data_functionalizedCrystal
_audit_creation_method	'MofGen! by Chris Wilmer'
_symmetry_space_group_name_H-M	'P1'
_symmetry_Int_Tables_number	1
_symmetry_cell_setting	triclinic
loop_
_symmetry_equiv_pos_as_xyz
  x,y,z
_cell_length_a	17.077404
_cell_length_b	12.759394
_cell_length_c	17.077396
_cell_angle_alpha	89.973684
_cell_angle_beta	89.980499
_cell_angle_gamma	90.015062
loop_
_atom_site_label
_atom_site_type_symbol
_atom_site_fract_x
_atom_site_fract_y
_atom_site_fract_z
Zn1	Zn	1.200099	-0.418260	-0.443855
Zn2	Zn	1.200024	-0.593961	-0.312593
Zn3	Zn	1.068830	-0.418297	-0.312602
Zn4	Zn	1.068817	-0.593898	-0.443817
O5	O	1.134442	-0.506104	-0.378217
O6	O	1.309936	-0.441578	-0.426454
O7	O	1.182595	-0.570700	-0.202748
O8	O	1.086280	-0.271271	-0.330033
O9	O	1.309881	-0.570664	-0.330017
O10	O	1.182722	-0.271244	-0.426463
O11	O	1.086208	-0.441641	-0.202754
O12	O	0.958982	-0.441580	-0.329996
O13	O	1.086257	-0.570558	-0.553669
O14	O	0.958972	-0.570594	-0.426399
O15	O	1.182709	-0.441517	-0.553697
O16	O	1.182582	-0.740974	-0.329981
O17	O	1.086185	-0.740928	-0.426391
C18	C	0.930495	-0.506085	-0.378195
C19	C	0.843245	-0.506102	-0.378205
C20	C	0.802270	-0.573381	-0.428321
C21	C	0.720290	-0.573383	-0.428334
C22	C	0.679285	-0.506111	-0.378225
C23	C	0.720266	-0.438825	-0.328107
C24	C	0.802245	-0.438818	-0.328099
C25	C	0.549396	-0.438846	-0.328125
C26	C	0.467411	-0.438854	-0.328132
C27	C	0.467441	-0.573411	-0.428360
C28	C	0.549419	-0.573404	-0.428352
C29	C	0.590394	-0.506119	-0.378233
C30	C	1.134395	-0.779072	-0.378198
C31	C	1.134447	-0.895848	-0.378216
C32	C	1.234901	-0.895843	-0.277900
C33	C	1.285148	-0.950701	-0.227751
C34	C	1.285194	-1.060422	-0.227773
C35	C	1.234989	-1.115288	-0.277950
C36	C	1.184742	-1.060430	-0.328099
C37	C	1.184700	-0.950706	-0.328070
C38	C	1.084293	-1.060436	-0.428417
C39	C	1.084242	-0.950714	-0.428393
C40	C	1.034088	-1.115302	-0.478594
C41	C	0.983835	-1.060444	-0.528740
C42	C	0.983791	-0.950716	-0.528716
C43	C	1.033994	-0.895856	-0.478542
C44	C	1.339187	-0.506124	-0.378239
C45	C	1.426436	-0.506132	-0.378249
C46	C	1.134490	-0.506027	-0.582961
C47	C	1.134510	-0.505994	-0.670211
C48	C	1.134511	-0.232071	-0.378253
C49	C	1.134540	-0.115294	-0.378269
C50	C	1.184735	-0.438797	-0.711217
C51	C	1.184744	-0.438762	-0.793197
C52	C	1.134532	-0.505930	-0.834171
C53	C	1.084302	-0.573130	-0.793159
C54	C	1.084290	-0.573159	-0.711180
C55	C	1.084334	-0.573067	-0.964029
C56	C	1.084348	-0.573039	-1.046014
C57	C	1.184788	-0.438670	-1.046047
C58	C	1.184776	-0.438699	-0.964068
C59	C	1.134546	-0.505900	-0.923062
C60	C	1.134440	-0.506105	-0.174269
C61	C	1.134572	-0.505842	-0.087020
H62	H	0.582803	-0.628188	-0.469151
O63	O	0.680396	-0.638792	-0.476902
C64	C	0.587853	-0.780700	-0.487272
C65	C	0.632970	-0.706673	-0.432179
H66	H	0.549510	-0.835615	-0.451135
H67	H	0.549445	-0.732598	-0.528373
H68	H	0.631251	-0.828741	-0.523100
H69	H	0.589628	-0.658616	-0.396300
H70	H	0.671389	-0.754835	-0.391129
O71	O	1.235185	-1.221871	-0.277978
C72	C	1.310493	-1.379214	-0.298295
C73	C	1.310385	-1.258510	-0.298272
H74	H	1.371281	-1.408874	-0.314717
H75	H	1.294302	-1.409146	-0.237497
H76	H	1.265949	-1.408984	-0.342745
H77	H	1.354929	-1.228651	-0.253861
H78	H	1.326540	-1.228650	-0.359098
O79	O	1.034205	-1.221885	-0.478745
C80	C	1.054356	-1.379242	-0.554064
C81	C	1.054273	-1.258538	-0.553998
H82	H	1.070563	-1.408913	-0.614904
H83	H	1.098917	-1.409084	-0.509649
H84	H	0.993587	-1.409089	-0.537696
H85	H	1.115008	-1.228601	-0.570386
H86	H	1.009670	-1.228767	-0.598397
O87	O	1.035460	-0.638205	-0.924167
C88	C	0.929489	-0.652400	-0.831560
C89	C	0.984770	-0.578505	-0.876665
H90	H	0.888503	-0.604164	-0.793132
H91	H	0.893553	-0.700384	-0.874897
H92	H	0.965527	-0.707375	-0.793217
H93	H	0.948792	-0.523467	-0.915010
H94	H	1.020708	-0.530595	-0.833286
O95	O	0.935157	-1.113693	-0.577591
C96	C	0.896972	-1.147126	-0.711090
C97	C	0.952162	-1.086770	-0.655857
H98	H	0.910689	-1.125365	-0.774378
H99	H	0.905644	-1.234981	-0.702563
H100	H	0.833677	-1.125659	-0.697206
H101	H	1.015478	-1.108150	-0.669706
H102	H	0.943421	-0.998930	-0.664393
O103	O	0.427521	-0.638669	-0.477027
C104	C	0.301240	-0.698357	-0.521432
C105	C	0.346355	-0.624382	-0.466298
H106	H	0.235610	-0.686847	-0.512765
H107	H	0.317334	-0.680017	-0.584767
H108	H	0.317385	-0.783036	-0.507541
H109	H	0.330235	-0.539677	-0.480118
H110	H	0.330257	-0.642812	-0.402979
H111	H	0.434028	-0.384062	-0.287339
H112	H	1.033958	-0.806515	-0.478512
H113	H	0.942876	-0.906056	-0.569557
H114	H	1.225686	-0.383950	-1.079437
O115	O	0.841929	-0.373436	-0.279337
C116	C	0.833253	-0.239940	-0.179952
C117	C	0.788215	-0.313952	-0.235121
H118	H	0.789846	-0.191812	-0.144201
H119	H	0.871586	-0.288055	-0.138789
H120	H	0.871680	-0.185106	-0.216069
H121	H	0.749746	-0.368800	-0.199067
H122	H	0.749932	-0.265772	-0.276286
H123	H	0.582755	-0.384046	-0.287319
H124	H	1.043459	-0.627731	-1.079372
H125	H	0.686874	-0.384047	-0.287311
H126	H	1.225625	-0.384104	-0.677862
O127	O	1.333841	-0.897241	-0.179036
C128	C	1.378326	-0.728206	-0.134568
C129	C	1.323128	-0.788612	-0.189763
H130	H	1.369695	-0.640369	-0.143234
H131	H	1.364578	-0.749781	-0.071249
H132	H	1.441615	-0.749761	-0.148400
H133	H	1.259820	-0.767090	-0.176001
H134	H	1.336943	-0.767033	-0.253066
H135	H	1.326114	-1.105087	-0.186941
H136	H	0.835650	-0.628165	-0.469123
O137	O	1.233609	-0.373457	-0.832909
C138	C	1.333205	-0.240149	-0.824290
C139	C	1.277916	-0.314074	-0.779220
H140	H	1.369029	-0.192102	-0.780902
H141	H	1.374293	-0.288327	-0.862651
H142	H	1.297176	-0.185235	-0.862691
H143	H	1.313881	-0.369002	-0.740776
H144	H	1.236825	-0.265830	-0.740909
O145	O	1.035638	-0.638488	-0.832994
C146	C	1.025054	-0.780258	-0.925564
C147	C	1.080255	-0.706319	-0.880488
H148	H	1.061104	-0.835104	-0.963986
H149	H	0.989166	-0.828367	-0.882208
H150	H	0.984014	-0.731981	-0.963910
H151	H	1.121343	-0.754515	-0.842141
H152	H	1.116088	-0.658207	-0.923886
O153	O	1.035595	-0.638593	-0.671375
C154	C	0.997430	-0.817313	-0.646285
C155	C	1.052636	-0.743328	-0.691401
H156	H	1.011177	-0.902005	-0.662472
H157	H	1.006054	-0.805883	-0.580647
H158	H	0.934143	-0.798808	-0.662379
H159	H	1.115945	-0.761787	-0.675373
H160	H	1.043944	-0.754771	-0.757028
H161	H	1.225667	-0.384010	-0.930709
H162	H	1.234858	-0.806502	-0.277868
