data_functionalizedCrystal
_audit_creation_method	'MofGen! by Chris Wilmer'
_symmetry_space_group_name_H-M	'P1'
_symmetry_Int_Tables_number	1
_symmetry_cell_setting	triclinic
loop_
_symmetry_equiv_pos_as_xyz
  x,y,z
_cell_length_a	19.188905
_cell_length_b	18.266242
_cell_length_c	10.654550
_cell_angle_alpha	89.994866
_cell_angle_beta	96.190271
_cell_angle_gamma	90.016163
loop_
_atom_site_label
_atom_site_type_symbol
_atom_site_fract_x
_atom_site_fract_y
_atom_site_fract_z
O1	O	0.927185	0.061000	-0.156632
O2	O	0.724009	0.060975	-0.177770
O3	O	0.830268	0.060985	0.015638
O4	O	0.820926	0.060989	-0.350040
O5	O	0.830250	-0.060777	0.015648
O6	O	0.723991	-0.060787	-0.177760
O7	O	0.927167	-0.060762	-0.156622
Zn8	Zn	0.825576	-0.080107	-0.167190
Zn9	Zn	0.825600	0.080320	-0.167203
O10	O	0.820907	-0.060773	-0.350030
C11	C	0.697984	0.000090	-0.177086
C12	C	0.620466	0.000081	-0.175047
C13	C	0.584077	0.066455	-0.174073
C14	C	0.511241	0.066464	-0.172143
C15	C	0.474798	0.000095	-0.171162
C16	C	0.511194	-0.066288	-0.172143
C17	C	0.584028	-0.066295	-0.174086
N18	N	0.365283	-0.049298	-0.096644
N19	N	0.296094	-0.049286	-0.094796
C20	C	0.255353	0.000113	-0.165311
N21	N	0.286416	0.049511	-0.237729
N22	N	0.355612	0.049502	-0.239572
C23	C	0.395821	0.000096	-0.169056
C24	C	0.139987	0.066502	-0.162247
C25	C	0.067149	0.066508	-0.160324
C26	C	0.067104	-0.066246	-0.160312
C27	C	0.139940	-0.066251	-0.162247
C28	C	0.176377	0.000125	-0.163208
N29	N	0.825565	-0.189594	-0.167180
C30	C	0.872632	-0.227898	-0.081581
C31	C	0.872636	-0.304543	-0.081575
C32	C	0.825580	-0.342881	-0.167190
C33	C	0.778504	-0.304567	-0.252796
C34	C	0.778496	-0.227924	-0.252791
N35	N	0.817232	-0.463213	-0.278358
N36	N	0.817243	-0.536021	-0.278359
C37	C	0.825600	-0.573803	-0.167208
N38	N	0.833958	-0.536027	-0.056052
N39	N	0.833950	-0.463212	-0.056053
C40	C	0.825583	-0.425988	-0.167204
C41	C	0.872675	-0.695215	-0.081595
C42	C	0.872674	-0.771861	-0.081588
C43	C	0.778545	-0.771884	-0.252819
C44	C	0.778542	-0.695239	-0.252816
C45	C	0.825611	-0.656909	-0.167205
C46	C	0.953191	0.000124	-0.157306
C47	C	1.030710	0.000138	-0.159345
C48	C	0.829573	0.000105	0.062426
C49	C	0.827521	0.000107	0.201826
N50	N	0.825617	0.189807	-0.167202
C51	C	0.821603	0.000109	-0.396818
C52	C	0.823655	0.000112	-0.536218
C53	C	0.890085	0.000113	0.282645
C54	C	0.888152	0.000118	0.413625
C55	C	0.761086	0.000108	0.382952
C56	C	0.763020	0.000109	0.251975
C57	C	0.963445	0.000115	0.300355
C58	C	0.961512	0.000120	0.431335
H59	H	0.613740	0.120504	-0.174855
H60	H	0.708572	0.000110	0.423800
F61	F	0.178669	-0.136896	-0.163277
F62	F	0.993959	-0.068603	0.254436
H63	H	0.989146	-0.050833	0.473688
H64	H	0.983691	0.052696	0.477446
H65	H	0.910956	-0.196692	-0.011869
H66	H	0.481608	0.120516	-0.171351
H67	H	0.481517	-0.120326	-0.171347
F68	F	1.000959	0.066718	0.262770
H69	H	0.613655	-0.120347	-0.174880
F70	F	0.696431	0.000118	0.165964
H71	H	0.740167	-0.196736	-0.322497
H72	H	0.740189	-0.335786	-0.322503
F73	F	0.922735	-0.345316	0.009536
F74	F	0.922766	-0.654420	0.009524
F75	F	0.728450	-0.654470	-0.343928
H76	H	0.740228	-0.803098	-0.322524
F77	F	0.178768	0.137144	-0.163279
F78	F	0.028421	0.137157	-0.159298
H79	H	0.037432	-0.120285	-0.159521
H80	H	0.911000	-0.803049	-0.011876
