data_functionalizedCrystal
_audit_creation_method	'MofGen! by Chris Wilmer'
_symmetry_space_group_name_H-M	'P1'
_symmetry_Int_Tables_number	1
_symmetry_cell_setting	triclinic
loop_
_symmetry_equiv_pos_as_xyz
  x,y,z
_cell_length_a	16.120530
_cell_length_b	21.295417
_cell_length_c	16.120256
_cell_angle_alpha	92.868749
_cell_angle_beta	90.128265
_cell_angle_gamma	87.125778
loop_
_atom_site_label
_atom_site_type_symbol
_atom_site_fract_x
_atom_site_fract_y
_atom_site_fract_z
Zn1	Zn	1.247390	-0.318928	-0.534526
Zn2	Zn	1.747390	0.181072	-0.034526
Zn3	Zn	1.254326	-0.419134	-0.395454
Zn4	Zn	1.754326	0.080866	0.104546
Zn5	Zn	1.115382	-0.308287	-0.388444
Zn6	Zn	1.615382	0.191713	0.111556
Zn7	Zn	1.108282	-0.418557	-0.527424
Zn8	Zn	1.608282	0.081443	-0.027424
O9	O	1.181345	-0.366227	-0.461462
O10	O	1.681345	0.133773	0.038538
O11	O	1.364676	-0.336915	-0.521983
O12	O	1.864676	0.163085	-0.021983
O13	O	1.241769	-0.400218	-0.278159
O14	O	1.741769	0.099782	0.221841
O15	O	1.132963	-0.221613	-0.407861
O16	O	1.632963	0.278387	0.092139
O17	O	1.369771	-0.410536	-0.419808
O18	O	1.869771	0.089464	0.080192
O19	O	1.229948	-0.229431	-0.515186
O20	O	1.729948	0.270569	-0.015186
O21	O	1.139688	-0.318779	-0.273009
O22	O	1.639688	0.181221	0.226991
O23	O	0.998075	-0.318220	-0.400975
O24	O	1.498075	0.181780	0.099025
O25	O	1.120861	-0.409553	-0.644732
O26	O	1.620861	0.090447	-0.144732
O27	O	0.992858	-0.399235	-0.503083
O28	O	1.492858	0.100765	-0.003083
O29	O	1.223063	-0.336355	-0.649949
O30	O	1.723063	0.163645	-0.149949
O31	O	1.234884	-0.507143	-0.412922
O32	O	1.734884	-0.007143	0.087078
O33	O	1.127586	-0.506719	-0.509880
O34	O	1.627586	-0.006719	-0.009880
C35	C	0.965294	-0.357511	-0.450498
C36	C	1.465294	0.142489	0.049502
C37	C	0.872866	-0.353798	-0.445827
C38	C	1.372866	0.146202	0.054173
C39	C	0.703637	-0.347006	-0.437307
C40	C	1.203637	0.152994	0.062693
C41	C	0.659890	-0.385496	-0.485679
C42	C	1.159890	0.114504	0.014321
C43	C	0.565726	-0.381716	-0.480938
C44	C	1.065726	0.118284	0.019062
C45	C	0.797811	-0.350784	-0.442046
C46	C	1.297811	0.149216	0.057954
C47	C	1.181238	-0.529772	-0.461411
C48	C	1.681238	-0.029772	0.038589
C49	C	1.181267	-0.599742	-0.461420
C50	C	1.681267	-0.099742	0.038580
C51	C	1.237182	-0.632812	-0.410991
C52	C	1.737182	-0.132812	0.089009
C53	C	1.237220	-0.698557	-0.411012
C54	C	1.737220	-0.198557	0.088988
C55	C	1.181329	-0.731228	-0.461452
C56	C	1.681329	-0.231228	0.038548
C57	C	1.125411	-0.698150	-0.511891
C58	C	1.625411	-0.198150	-0.011891
C59	C	1.125380	-0.632407	-0.511875
C60	C	1.625380	-0.132407	-0.011875
N61	N	1.108264	-0.831794	-0.464100
N62	N	1.608264	-0.331794	0.035900
N63	N	1.108296	-0.894247	-0.464110
N64	N	1.608296	-0.394247	0.035890
C65	C	1.181420	-0.929308	-0.461504
C66	C	1.681420	-0.429308	0.038496
N67	N	1.254513	-0.899556	-0.458872
N68	N	1.754513	-0.399556	0.041128
N69	N	1.254481	-0.837097	-0.458857
N70	N	1.754481	-0.337097	0.041143
C71	C	1.181357	-0.802515	-0.461475
C72	C	1.681357	-0.302515	0.038525
C73	C	1.237380	-1.033666	-0.411095
C74	C	1.737380	-0.533666	0.088905
C75	C	1.237419	-1.099412	-0.411122
C76	C	1.737419	-0.599412	0.088878
C77	C	1.125603	-1.099004	-0.511996
C78	C	1.625603	-0.599004	-0.011996
C79	C	1.125571	-1.033259	-0.511975
C80	C	1.625571	-0.533259	-0.011975
C81	C	1.181459	-1.000594	-0.461520
C82	C	1.681459	-0.500594	0.038480
C83	C	1.398239	-0.374977	-0.472470
C84	C	1.898239	0.125023	0.027530
C85	C	1.490667	-0.378705	-0.477160
C86	C	1.990667	0.121295	0.022840
C87	C	1.170397	-0.374077	-0.678356
C88	C	1.670397	0.125923	-0.178356
C89	C	1.165731	-0.377422	-0.770784
C90	C	1.665731	0.122578	-0.270784
C91	C	1.181474	-0.202044	-0.461533
C92	C	1.681474	0.297956	0.038467
C93	C	1.181529	-0.132079	-0.461564
C94	C	1.681529	0.367921	0.038436
C95	C	1.205674	-0.348765	-0.983771
C96	C	1.705674	0.151235	-0.483771
C97	C	1.157185	-0.383503	-0.940003
C98	C	1.657185	0.116497	-0.440003
C99	C	1.161941	-0.380119	-0.845841
C100	C	1.661941	0.119881	-0.345841
C101	C	1.200919	-0.352148	-1.077942
C102	C	1.700919	0.147852	-0.577942
C103	C	1.192299	-0.358363	-0.245414
C104	C	1.692299	0.141637	0.254586
C105	C	1.197126	-0.354847	-0.152996
C106	C	1.697126	0.145153	0.347004
H107	H	0.693157	-0.421286	-0.530653
H108	H	1.193157	0.078714	-0.030653
H109	H	0.670373	-0.311218	-0.392337
H110	H	1.170373	0.188782	0.107663
C111	C	1.096285	-0.427121	-0.984917
C112	C	1.596285	0.072879	-0.484917
N113	N	1.050421	-0.459976	-1.018750
N114	N	1.550421	0.040024	-0.518750
H115	H	1.282691	-0.606218	-0.369910
H116	H	1.782691	-0.106218	0.130090
C117	C	1.063877	-0.596029	-0.567365
C118	C	1.563877	-0.096029	-0.067365
N119	N	1.017555	-0.568629	-0.609164
N120	N	1.517555	-0.068629	-0.109164
C121	C	1.266583	-0.305159	-0.938858
C122	C	1.766583	0.194841	-0.438858
N123	N	1.312460	-0.272318	-0.905020
N124	N	1.812460	0.227682	-0.405020
C125	C	1.298728	-0.734941	-0.355529
C126	C	1.798728	-0.234941	0.144471
N127	N	1.345055	-0.762344	-0.313737
N128	N	1.845055	-0.262344	0.186263
H129	H	1.282890	-1.007069	-0.370014
H130	H	1.782890	-0.507069	0.129986
C131	C	1.298932	-1.135790	-0.355642
C132	C	1.798932	-0.635790	0.144358
N133	N	1.345263	-1.163189	-0.313852
N134	N	1.845263	-0.663189	0.186148
C135	C	1.064123	-1.134938	-0.567483
C136	C	1.564123	-0.634938	-0.067483
N137	N	1.017817	-1.162008	-0.609279
N138	N	1.517817	-0.662008	-0.109279
C139	C	1.063928	-0.734089	-0.567373
C140	C	1.563928	-0.234089	-0.067373
N141	N	1.017618	-0.761159	-0.609164
N142	N	1.517618	-0.261159	-0.109164
C143	C	1.064076	-0.996882	-0.567469
C144	C	1.564076	-0.496882	-0.067469
N145	N	1.017764	-0.969483	-0.609280
N146	N	1.517764	-0.469483	-0.109280
