data_functionalizedCrystal
_audit_creation_method	'MofGen! by Chris Wilmer'
_symmetry_space_group_name_H-M	'P1'
_symmetry_Int_Tables_number	1
_symmetry_cell_setting	triclinic
loop_
_symmetry_equiv_pos_as_xyz
  x,y,z
_cell_length_a	10.686220
_cell_length_b	14.908520
_cell_length_c	14.908854
_cell_angle_alpha	90.221665
_cell_angle_beta	82.113811
_cell_angle_gamma	97.432447
loop_
_atom_site_label
_atom_site_type_symbol
_atom_site_fract_x
_atom_site_fract_y
_atom_site_fract_z
Zn1	Zn	1.876393	-0.231817	0.420680
Zn2	Zn	2.376393	0.268183	0.920680
Zn3	Zn	1.874828	-0.390950	0.279083
Zn4	Zn	2.374828	0.109050	0.779083
Zn5	Zn	1.675036	-0.250916	0.281967
Zn6	Zn	2.175036	0.249084	0.781967
Zn7	Zn	1.650513	-0.393788	0.442347
Zn8	Zn	2.150513	0.106212	0.942347
O9	O	1.769193	-0.316868	0.356019
O10	O	2.269193	0.183132	0.856019
O11	O	2.054331	-0.243745	0.391622
O12	O	2.554331	0.256255	0.891622
O13	O	1.857933	-0.379180	0.153088
O14	O	2.357933	0.120820	0.653088
O15	O	1.712665	-0.121992	0.292507
O16	O	2.212665	0.378008	0.792507
O17	O	2.053181	-0.360660	0.287592
O18	O	2.553181	0.139340	0.787592
O19	O	1.860601	-0.107960	0.394418
O20	O	2.360601	0.392040	0.894418
O21	O	1.711147	-0.276297	0.155206
O22	O	2.211147	0.223703	0.655206
O23	O	1.493638	-0.279049	0.313516
O24	O	1.993638	0.220951	0.813516
O25	O	1.670869	-0.365497	0.565851
O26	O	2.170869	0.134503	1.065851
O27	O	1.475621	-0.384017	0.431347
O28	O	1.975621	0.115983	0.931347
O29	O	1.836822	-0.246497	0.549932
O30	O	2.336822	0.253503	1.049932
O31	O	1.834154	-0.517717	0.308602
O32	O	2.334154	-0.017717	0.808602
O33	O	1.669351	-0.519802	0.428551
O34	O	2.169351	-0.019802	0.928551
C35	C	1.438438	-0.333914	0.375096
C36	C	1.938438	0.166086	0.875096
C37	C	1.296936	-0.341227	0.383280
C38	C	1.796936	0.158773	0.883280
C39	C	1.748954	-0.551529	0.370632
C40	C	2.248954	-0.051529	0.870632
C41	C	1.740411	-0.651910	0.376907
C42	C	2.240411	-0.151910	0.876907
C43	C	1.896126	-0.838291	0.263879
C44	C	2.396126	-0.338291	0.763879
C45	C	1.888103	-0.932609	0.269771
C46	C	2.388103	-0.432609	0.769771
C47	C	1.716348	-0.934863	0.394589
C48	C	2.216348	-0.434863	0.894589
C49	C	1.724371	-0.840545	0.388696
C50	C	2.224371	-0.340545	0.888696
C51	C	1.814262	-0.792263	0.323338
C52	C	2.314262	-0.292263	0.823338
C53	C	1.822278	-0.697945	0.317442
C54	C	2.322278	-0.197945	0.817442
C55	C	1.650530	-0.700200	0.442262
C56	C	2.150530	-0.200200	0.942262
C57	C	1.642507	-0.794517	0.448155
C58	C	2.142507	-0.294517	0.948155
C59	C	2.101239	-0.299756	0.336868
C60	C	2.601239	0.200244	0.836868
C61	C	2.242737	-0.292463	0.328707
C62	C	2.742737	0.207537	0.828707
C63	C	1.751284	-0.304183	0.591576
C64	C	2.251284	0.195817	1.091576
C65	C	1.743653	-0.298778	0.691957
C66	C	2.243653	0.201222	1.191957
C67	C	1.789543	-0.081288	0.341367
C68	C	2.289543	0.418712	0.841367
C69	C	1.798215	0.019103	0.335123
C70	C	2.298215	0.519103	0.835123
C71	C	1.787110	-0.329434	0.121370
C72	C	2.287110	0.170566	0.621370
C73	C	1.795010	-0.334573	0.020961
C74	C	2.295010	0.165427	0.520961
C75	C	1.882190	-0.395748	0.878376
C76	C	2.382190	0.104252	1.378376
C77	C	1.875024	-0.390671	0.972692
C78	C	2.375024	0.109329	1.472692
C79	C	1.722161	-0.283544	0.974906
C80	C	2.222161	0.216456	1.474906
C81	C	1.729327	-0.288621	0.880590
C82	C	2.229327	0.211379	1.380590
C83	C	1.809343	-0.344725	0.832328
C84	C	2.309343	0.155275	1.332328
C85	C	1.816502	-0.349806	0.738011
C86	C	2.316502	0.150194	1.238011
C87	C	1.663647	-0.242674	0.740226
C88	C	2.163647	0.257326	1.240226
C89	C	1.656480	-0.237598	0.834542
C90	C	2.156480	0.262402	1.334542
H91	H	1.895468	-0.658635	0.264222
H92	H	2.395468	-0.158635	0.764222
Br93	Br	1.564724	-0.173463	0.677734
Br94	Br	2.064724	0.326537	1.177734
Br95	Br	1.345821	-0.213555	0.240391
Br96	Br	1.845821	0.286445	0.740391
Br97	Br	1.520526	-0.860050	0.536855
Br98	Br	2.020526	-0.360050	1.036855
Br99	Br	1.613595	-0.207396	1.040418
Br100	Br	2.113595	0.292604	1.540418
H101	H	1.881662	-0.395484	0.698717
H102	H	2.381662	0.104516	1.198717
Br103	Br	1.193847	-0.420155	0.471586
Br104	Br	1.693847	0.079845	0.971586
H105	H	1.969310	-0.798980	0.210656
H106	H	2.469310	-0.298980	0.710656
Br107	Br	1.999214	-0.995073	0.189078
Br108	Br	2.499214	-0.495073	0.689078
Br109	Br	1.594384	-1.000402	0.483295
Br110	Br	2.094384	-0.500402	0.983295
H111	H	1.583867	-0.662714	0.490676
H112	H	2.083867	-0.162714	0.990676
Br113	Br	1.973898	-0.459914	1.035183
Br114	Br	2.473898	0.040086	1.535183
Br115	Br	1.547899	-0.161456	0.900048
Br116	Br	2.047899	0.338544	1.400048
H117	H	1.947349	-0.441426	0.839080
H118	H	2.447349	0.058574	1.339080
