data_functionalizedCrystal
_audit_creation_method	'MofGen! by Chris Wilmer'
_symmetry_space_group_name_H-M	'P1'
_symmetry_Int_Tables_number	1
_symmetry_cell_setting	triclinic
loop_
_symmetry_equiv_pos_as_xyz
  x,y,z
_cell_length_a	12.827893
_cell_length_b	25.639240
_cell_length_c	12.827885
_cell_angle_alpha	89.956835
_cell_angle_beta	89.980919
_cell_angle_gamma	90.032729
loop_
_atom_site_label
_atom_site_type_symbol
_atom_site_fract_x
_atom_site_fract_y
_atom_site_fract_z
Zn1	Zn	1.597543	-0.208126	-0.590746
Zn2	Zn	2.097543	0.291874	-0.090746
Zn3	Zn	1.597385	-0.295571	-0.415966
Zn4	Zn	2.097385	0.204429	0.084034
Zn5	Zn	1.422785	-0.208151	-0.416020
Zn6	Zn	1.922785	0.291849	0.083980
Zn7	Zn	1.422717	-0.295532	-0.590666
Zn8	Zn	1.922717	0.204468	-0.090666
O9	O	1.510108	-0.251845	-0.503350
O10	O	2.010108	0.248155	-0.003350
O11	O	1.743758	-0.219731	-0.567572
O12	O	2.243758	0.280269	-0.067572
O13	O	1.574185	-0.284002	-0.269737
O14	O	2.074185	0.215998	0.230263
O15	O	1.446062	-0.134983	-0.439255
O16	O	1.946062	0.365017	0.060745
O17	O	1.743642	-0.283977	-0.439161
O18	O	2.243642	0.216023	0.060839
O19	O	1.574456	-0.134964	-0.567625
O20	O	2.074456	0.365036	-0.067625
O21	O	1.445908	-0.219775	-0.269777
O22	O	1.945908	0.280225	0.230223
O23	O	1.276540	-0.219737	-0.439177
O24	O	1.776540	0.280263	0.060823
O25	O	1.445946	-0.283911	-0.736913
O26	O	1.945946	0.216089	-0.236913
O27	O	1.276490	-0.283935	-0.567489
O28	O	1.776490	0.216065	-0.067489
O29	O	1.574391	-0.219694	-0.736972
O30	O	2.074391	0.280306	-0.236972
O31	O	1.574120	-0.368731	-0.439084
O32	O	2.074120	0.131269	0.060916
O33	O	1.445792	-0.368702	-0.567435
O34	O	1.945792	0.131298	-0.067435
C35	C	1.238598	-0.251835	-0.503331
C36	C	1.738598	0.248165	-0.003331
C37	C	1.122445	-0.251843	-0.503347
C38	C	1.622445	0.248157	-0.003347
C39	C	0.950673	-0.220118	-0.567004
C40	C	1.450673	0.279882	-0.067004
C41	C	1.070723	-0.220109	-0.566988
C42	C	1.570723	0.279891	-0.066988
C43	C	1.509960	-0.387688	-0.503268
C44	C	2.009960	0.112312	-0.003268
C45	C	1.509992	-0.445802	-0.503268
C46	C	2.009992	0.054198	-0.003268
C47	C	1.576996	-0.806117	-0.570313
C48	C	2.076996	-0.306117	-0.070313
C49	C	1.577027	-0.860721	-0.570334
C50	C	2.077027	-0.360721	-0.070334
O51	O	1.633820	-0.888917	-0.627254
O52	O	2.133820	-0.388917	-0.127254
N53	N	1.510253	-0.888084	-0.503451
N54	N	2.010253	-0.388084	-0.003451
C55	C	1.443436	-0.860840	-0.436549
C56	C	1.943436	-0.360840	0.063451
O57	O	1.386642	-0.889129	-0.379663
O58	O	1.886642	-0.389129	0.120337
C59	C	1.443401	-0.806237	-0.436534
C60	C	1.943401	-0.306237	0.063466
C61	C	1.510186	-0.778876	-0.503414
C62	C	2.010186	-0.278876	-0.003414
C63	C	1.643775	-0.778756	-0.637188
C64	C	2.143775	-0.278756	-0.137188
C65	C	1.643746	-0.724155	-0.637165
C66	C	2.143746	-0.224155	-0.137165
C67	C	1.576936	-0.696915	-0.570267
C68	C	2.076936	-0.196915	-0.070267
C69	C	1.510157	-0.724276	-0.503391
C70	C	2.010157	-0.224276	-0.003391
C71	C	1.376579	-0.778994	-0.369639
C72	C	1.876579	-0.278994	0.130361
C73	C	1.376549	-0.724387	-0.369630
C74	C	1.876549	-0.224387	0.130370
C75	C	1.443335	-0.697027	-0.436510
C76	C	1.943335	-0.197027	0.063490
C77	C	1.443318	-0.642435	-0.436470
C78	C	1.943318	-0.142435	0.063530
N79	N	1.510092	-0.615072	-0.503353
N80	N	2.010092	-0.115072	-0.003353
C81	C	1.576901	-0.642312	-0.570252
C82	C	2.076901	-0.142312	-0.070252
C83	C	1.443514	-0.975511	-0.436588
C84	C	1.943514	-0.475511	0.063412
C85	C	1.443554	-1.030113	-0.436597
C86	C	1.943554	-0.530113	0.063403
C87	C	1.577143	-1.029990	-0.570383
C88	C	2.077143	-0.529990	-0.070383
C89	C	1.577108	-0.975387	-0.570368
C90	C	2.077108	-0.475387	-0.070368
C91	C	1.510288	-0.948148	-0.503471
C92	C	2.010288	-0.448148	-0.003471
C93	C	1.576834	-0.527647	-0.570198
C94	C	2.076834	-0.027647	-0.070198
C95	C	1.576802	-0.473042	-0.570166
C96	C	2.076802	0.026958	-0.070166
C97	C	1.443209	-0.473170	-0.436384
C98	C	1.943209	0.026830	0.063616
C99	C	1.443245	-0.527770	-0.436412
C100	C	1.943245	-0.027770	0.063588
C101	C	1.510061	-0.555008	-0.503327
C102	C	2.010061	-0.055008	-0.003327
O103	O	1.386551	-0.614205	-0.379582
O104	O	1.886551	-0.114205	0.120418
O105	O	1.633676	-0.614017	-0.627139
O106	O	2.133676	-0.114017	-0.127139
C107	C	1.782678	-0.251856	-0.503369
C108	C	2.282678	0.248144	-0.003369
C109	C	1.898831	-0.251860	-0.503378
C110	C	2.398831	0.248140	-0.003378
C111	C	1.510179	-0.251795	-0.775920
C112	C	2.010179	0.248205	-0.275920
C113	C	1.510209	-0.251773	-0.892073
C114	C	2.010209	0.248227	-0.392073
C115	C	1.510284	-0.115472	-0.503455
C116	C	2.010284	0.384528	-0.003455
C117	C	1.510360	-0.057358	-0.503499
C118	C	2.010360	0.442642	-0.003499
C119	C	1.573774	-0.219991	-0.943887
C120	C	2.073774	0.280009	-0.443887
C121	C	1.573807	-0.219968	-1.063937
C122	C	2.073807	0.280032	-0.563937
C123	C	1.510097	-0.251857	-0.231840
C124	C	2.010097	0.248143	0.268160
C125	C	1.510269	-0.251731	-0.115687
C126	C	2.010269	0.248269	0.384313
H127	H	1.631190	-0.450766	-0.624628
H128	H	2.131190	0.049234	-0.124628
H129	H	1.389104	-0.953335	-0.382103
H130	H	1.889104	-0.453335	0.117897
C131	C	1.650342	-0.557600	-0.643801
C132	C	2.150342	-0.057600	-0.143801
N133	N	1.705715	-0.580161	-0.699233
N134	N	2.205715	-0.080161	-0.199233
H135	H	1.388816	-0.450982	-0.381913
H136	H	1.888816	0.049018	0.118087
C137	C	1.130950	-0.183394	-0.640579
C138	C	1.630950	0.316606	-0.140579
N139	N	1.176315	-0.155740	-0.696012
N140	N	1.676315	0.344260	-0.196012
C141	C	1.647327	-0.183205	-1.124131
C142	C	2.147327	0.316795	-0.624131
N143	N	1.702702	-0.155513	-1.169471
N144	N	2.202702	0.344487	-0.669471
C145	C	1.717220	-0.694066	-0.710736
C146	C	2.217220	-0.194066	-0.210736
N147	N	1.772565	-0.671406	-0.766152
N148	N	2.272565	-0.171406	-0.266152
C149	C	1.436743	-0.288494	-1.055500
C150	C	1.936743	0.211506	-0.555500
N151	N	1.381361	-0.316183	-1.010160
N152	N	1.881361	0.183817	-0.510160
H153	H	0.906180	-0.192952	-0.621492
H154	H	1.406180	0.307048	-0.121492
C155	C	1.369783	-0.557868	-0.362835
C156	C	1.869783	-0.057868	0.137165
N157	N	1.314443	-0.580533	-0.307423
N158	N	1.814443	-0.080533	0.192577
H159	H	1.322195	-0.801262	-0.315177
H160	H	1.822195	-0.301262	0.184823
C161	C	0.958933	-0.288564	-0.429767
C162	C	1.458933	0.211436	0.070233
N163	N	1.004201	-0.316209	-0.374320
N164	N	1.504201	0.183791	0.125680
C165	C	1.647261	-0.183250	-0.883751
C166	C	2.147261	0.316750	-0.383751
N167	N	1.702613	-0.155577	-0.838459
N168	N	2.202613	0.344423	-0.338459
H169	H	1.455806	-0.278964	-0.936590
H170	H	1.955806	0.221036	-0.436590
C171	C	1.717286	-0.808711	-0.710780
C172	C	2.217286	-0.308711	-0.210780
N173	N	1.772668	-0.831270	-0.766205
N174	N	2.272668	-0.331270	-0.266205
H175	H	1.631541	-1.052179	-0.624857
H176	H	2.131541	-0.552179	-0.124857
C177	C	1.650573	-0.945295	-0.643945
C178	C	2.150573	-0.445295	-0.143945
N179	N	1.705908	-0.922633	-0.699368
N180	N	2.205908	-0.422633	-0.199368
C181	C	1.303041	-0.694428	-0.296034
C182	C	1.803041	-0.194428	0.203966
N183	N	1.247678	-0.671863	-0.240600
N184	N	1.747678	-0.171863	0.259400
C185	C	1.370092	-1.060204	-0.363015
C186	C	1.870092	-0.560204	0.136985
N187	N	1.314753	-1.082866	-0.307596
N188	N	1.814753	-0.582866	0.192404
H189	H	1.077868	-0.279019	-0.448870
H190	H	1.577868	0.220981	0.051130
