data_functionalizedCrystal
_audit_creation_method	'MofGen! by Chris Wilmer'
_symmetry_space_group_name_H-M	'P1'
_symmetry_Int_Tables_number	1
_symmetry_cell_setting	triclinic
loop_
_symmetry_equiv_pos_as_xyz
  x,y,z
_cell_length_a	21.295418
_cell_length_b	25.639239
_cell_length_c	21.295411
_cell_angle_alpha	89.980474
_cell_angle_beta	89.956262
_cell_angle_gamma	90.054499
loop_
_atom_site_label
_atom_site_type_symbol
_atom_site_fract_x
_atom_site_fract_y
_atom_site_fract_z
Zn1	Zn	0.962320	-0.207990	-0.356243
Zn2	Zn	0.962207	-0.295410	-0.250972
Zn3	Zn	0.857043	-0.208014	-0.250953
Zn4	Zn	0.856998	-0.295420	-0.356169
O5	O	0.909642	-0.251708	-0.303584
O6	O	1.050395	-0.219572	-0.342318
O7	O	0.948229	-0.283822	-0.162880
O8	O	0.871075	-0.134846	-0.264943
O9	O	1.050312	-0.283799	-0.264976
O10	O	0.948421	-0.134828	-0.342299
O11	O	0.870965	-0.219613	-0.162866
O12	O	0.768948	-0.219623	-0.264871
O13	O	0.870997	-0.283816	-0.444268
O14	O	0.768914	-0.283840	-0.342172
O15	O	0.948377	-0.219582	-0.444322
O16	O	0.948185	-0.368576	-0.264904
O17	O	0.870888	-0.368584	-0.342191
C18	C	0.746090	-0.251736	-0.303512
C19	C	0.676122	-0.251760	-0.303496
C20	C	0.643255	-0.285242	-0.343686
C21	C	0.577512	-0.285229	-0.343715
C22	C	0.544640	-0.251740	-0.303541
C23	C	0.577515	-0.218252	-0.263347
C24	C	0.643257	-0.218262	-0.263325
N25	N	0.441365	-0.247648	-0.248483
N26	N	0.378913	-0.247641	-0.248506
C27	C	0.346565	-0.251707	-0.303608
N28	N	0.379028	-0.255789	-0.358686
N29	N	0.441485	-0.255799	-0.358662
C30	C	0.473354	-0.251725	-0.303561
C31	C	0.242412	-0.285176	-0.343832
C32	C	0.176668	-0.285160	-0.343862
C33	C	0.176673	-0.218185	-0.263489
C34	C	0.242415	-0.218199	-0.263465
C35	C	0.275281	-0.251697	-0.303636
C36	C	0.909536	-0.387551	-0.303555
C37	C	0.909548	-0.445665	-0.303564
C38	C	0.949996	-0.806011	-0.263409
C39	C	0.950020	-0.860616	-0.263418
O40	O	0.984300	-0.888838	-0.229245
N41	N	0.909753	-0.887947	-0.303626
C42	C	0.869463	-0.860672	-0.343833
O43	O	0.835215	-0.888934	-0.378034
C44	C	0.869442	-0.806069	-0.343827
C45	C	0.909708	-0.778740	-0.303612
C46	C	0.990259	-0.778683	-0.223198
C47	C	0.990233	-0.724082	-0.223188
C48	C	0.949945	-0.696810	-0.263391
C49	C	0.909682	-0.724139	-0.303603
C50	C	0.829156	-0.778794	-0.384037
C51	C	0.829139	-0.724187	-0.384028
C52	C	0.869404	-0.696858	-0.343812
C53	C	0.869369	-0.642267	-0.343796
N54	N	0.909636	-0.614935	-0.303588
C55	C	0.949924	-0.642207	-0.263385
C56	C	0.869510	-0.975343	-0.343842
C57	C	0.869527	-1.029945	-0.343845
C58	C	0.950086	-1.029885	-0.263431
C59	C	0.950065	-0.975282	-0.263425
C60	C	0.909778	-0.948011	-0.303634
C61	C	0.949868	-0.527542	-0.263369
C62	C	0.949837	-0.472937	-0.263361
C63	C	0.869281	-0.473001	-0.343778
C64	C	0.869309	-0.527602	-0.343783
C65	C	0.909607	-0.554871	-0.303577
O66	O	0.835108	-0.614010	-0.377953
O67	O	0.984172	-0.613939	-0.229195
C68	C	1.073832	-0.251681	-0.303657
C69	C	1.143801	-0.251670	-0.303688
C70	C	0.909694	-0.251697	-0.467774
C71	C	0.909717	-0.251693	-0.537743
C72	C	0.909766	-0.115335	-0.303627
C73	C	0.909818	-0.057221	-0.303645
C74	C	0.950007	-0.218244	-0.570639
C75	C	0.950006	-0.218221	-0.636381
C76	C	0.909721	-0.251657	-0.669225
C77	C	0.869424	-0.285108	-0.636321
C78	C	0.869421	-0.285126	-0.570580
N79	N	0.904857	-0.297396	-0.772441
N80	N	0.904863	-0.297377	-0.834892
C81	C	0.909725	-0.251604	-0.867300
N82	N	0.914594	-0.205848	-0.834897
N83	N	0.914591	-0.205867	-0.772440
C84	C	0.909719	-0.251641	-0.740511
C85	C	0.950017	-0.218128	-0.971482
C86	C	0.950011	-0.218104	-1.037225
C87	C	0.869433	-0.284995	-1.037164
C88	C	0.869435	-0.285014	-0.971422
C89	C	0.909730	-0.251581	-0.938584
C90	C	0.909626	-0.251682	-0.140032
C91	C	0.909726	-0.251539	-0.070065
H92	H	0.670017	-0.190995	-0.230596
O93	O	0.989207	-0.185713	-0.668248
C94	C	1.024758	-0.156198	-0.625168
H95	H	1.026915	-0.177624	-0.578304
H96	H	1.001748	-0.116492	-0.618163
C97	C	1.089115	-0.122338	-0.708434
C98	C	1.091768	-0.148655	-0.650877
H99	H	1.130449	-0.117682	-0.724294
H100	H	1.065162	-0.142221	-0.737459
H101	H	1.069937	-0.089253	-0.702589
H102	H	1.110938	-0.181742	-0.656725
H103	H	1.115726	-0.128777	-0.621854
O104	O	0.830203	-0.317532	-0.668195
C105	C	0.767474	-0.306129	-0.652076
H106	H	0.764332	-0.264365	-0.634004
H107	H	0.750991	-0.334173	-0.613904
C108	C	0.729320	-0.363500	-0.732645
C109	C	0.725461	-0.312204	-0.710453
H110	H	0.703404	-0.367250	-0.768652
H111	H	0.771582	-0.371185	-0.743503
H112	H	0.715586	-0.386864	-0.700829
H113	H	0.739203	-0.288841	-0.742265
H114	H	0.683200	-0.304515	-0.699601
O115	O	1.029383	-0.697480	-0.184216
C116	C	1.070022	-0.665850	-0.220103
H117	H	1.047791	-0.657671	-0.267777
H118	H	1.116673	-0.686846	-0.227086
C119	C	1.108730	-0.624032	-0.126919
C120	C	1.081423	-0.613983	-0.185470
H121	H	1.115766	-0.592039	-0.105555
H122	H	1.081353	-0.645343	-0.102740
H123	H	1.147603	-0.641530	-0.132746
H124	H	1.042548	-0.596492	-0.179642
H125	H	1.108795	-0.592668	-0.209647
O126	O	0.830330	-0.317549	-1.068988
C127	C	0.844053	-0.369660	-1.052943
H128	H	0.868252	-0.370751	-1.005230
H129	H	0.876399	-0.387256	-1.089967
C130	C	0.752935	-0.400004	-1.108455
C131	C	0.782652	-0.401343	-1.049851
H132	H	0.715061	-0.419549	-1.106550
H133	H	0.743690	-0.364896	-1.119268
H134	H	0.779897	-0.414666	-1.139303
H135	H	0.755694	-0.386675	-1.019006
H136	H	0.791891	-0.436450	-1.039033
H137	H	0.982818	-0.191020	-0.543907
H138	H	0.836609	-0.312363	-0.543796
H139	H	0.982853	-0.953034	-0.230679
O140	O	0.144668	-0.317711	-0.382818
C141	C	0.106563	-0.351434	-0.346914
H142	H	0.096688	-0.332930	-0.299256
H143	H	0.131836	-0.390177	-0.339900
C144	C	0.056271	-0.383661	-0.440086
C145	C	0.044137	-0.360931	-0.381552
H146	H	0.017764	-0.389521	-0.461453
H147	H	0.081944	-0.360942	-0.464275
H148	H	0.077332	-0.415943	-0.434232
H149	H	0.023083	-0.328646	-0.387407
H150	H	0.018458	-0.383645	-0.357364
H151	H	0.982824	-0.190902	-0.944744
O152	O	0.830389	-0.317537	-0.939395
C153	C	0.866196	-0.351320	-0.901405
H154	H	0.913917	-0.332874	-0.891590
H155	H	0.873079	-0.390057	-0.926747
C156	C	0.772938	-0.383466	-0.850988
C157	C	0.831548	-0.360809	-0.838929
H158	H	0.751564	-0.389322	-0.812451
H159	H	0.748813	-0.360707	-0.876584
H160	H	0.778682	-0.415745	-0.872108
H161	H	0.825803	-0.328528	-0.817817
H162	H	0.855671	-0.383563	-0.813328
O163	O	0.989120	-0.185536	-1.069111
C164	C	0.975404	-0.133432	-1.053042
H165	H	0.951205	-0.132368	-1.005292
H166	H	0.943059	-0.115812	-1.090017
C167	C	1.066525	-0.103063	-1.108694
C168	C	1.036808	-0.101756	-1.050043
H169	H	1.104401	-0.083523	-1.106846
H170	H	1.075765	-0.138166	-1.119522
H171	H	1.039565	-0.088381	-1.139500
H172	H	1.063765	-0.116444	-1.019240
H173	H	1.027574	-0.066655	-1.039210
O174	O	0.675149	-0.317722	-0.382803
C175	C	0.659153	-0.306378	-0.445571
H176	H	0.641143	-0.264610	-0.448845
H177	H	0.620970	-0.334423	-0.461973
C178	C	0.739707	-0.363825	-0.483533
C179	C	0.717591	-0.312523	-0.487555
H180	H	0.775753	-0.367618	-0.509432
H181	H	0.750483	-0.371470	-0.441245
H182	H	0.707882	-0.387190	-0.497201
H183	H	0.749413	-0.289160	-0.473880
H184	H	0.706822	-0.304875	-0.529841
O185	O	0.545545	-0.317681	-0.382822
C186	C	0.507589	-0.287959	-0.423546
H187	H	0.527465	-0.246789	-0.427526
H188	H	0.457748	-0.286121	-0.404098
C189	C	0.482192	-0.364153	-0.484039
C190	C	0.506608	-0.313589	-0.488931
H191	H	0.481584	-0.379963	-0.524371
H192	H	0.507762	-0.384178	-0.456602
H193	H	0.440661	-0.362614	-0.467830
H194	H	0.548141	-0.315129	-0.505133
H195	H	0.481045	-0.293565	-0.516373
O196	O	1.029501	-0.805095	-0.184172
C197	C	1.092217	-0.791662	-0.198037
H198	H	1.093459	-0.752016	-0.222257
H199	H	1.113433	-0.822362	-0.230416
C200	C	1.128860	-0.837769	-0.106978
C201	C	1.130386	-0.789073	-0.136720
H202	H	1.152407	-0.836174	-0.069156
H203	H	1.086608	-0.846821	-0.097638
H204	H	1.146539	-0.863347	-0.133967
H205	H	1.112701	-0.763497	-0.109735
H206	H	1.172637	-0.780017	-0.146054
O207	O	0.545560	-0.185797	-0.224251
C208	C	0.507439	-0.215510	-0.183551
H209	H	0.527191	-0.256687	-0.179569
H210	H	0.457632	-0.217328	-0.203023
C211	C	0.482136	-0.139315	-0.123055
C212	C	0.506399	-0.189888	-0.118161
H213	H	0.481492	-0.123509	-0.082721
H214	H	0.507816	-0.119296	-0.150477
H215	H	0.440633	-0.140836	-0.139285
H216	H	0.547904	-0.188366	-0.101940
H217	H	0.480725	-0.209907	-0.090735
H218	H	0.269173	-0.312450	-0.376545
O219	O	0.274249	-0.185661	-0.224359
C220	C	0.231141	-0.156089	-0.188917
H221	H	0.184246	-0.177494	-0.186707
H222	H	0.224229	-0.116407	-0.212059
C223	C	0.314332	-0.122185	-0.124644
C224	C	0.256736	-0.148477	-0.121924
H225	H	0.330120	-0.117487	-0.083320
H226	H	0.343375	-0.142106	-0.148523
H227	H	0.308564	-0.089119	-0.143931
H228	H	0.262506	-0.181544	-0.102644
H229	H	0.227694	-0.128561	-0.098040
O230	O	0.789944	-0.697778	-0.423110
C231	C	0.754427	-0.733613	-0.458615
H232	H	0.752275	-0.772547	-0.432831
H233	H	0.777465	-0.739379	-0.506450
C234	C	0.690060	-0.664555	-0.499280
C235	C	0.687413	-0.712373	-0.467609
H236	H	0.648723	-0.651453	-0.504831
H237	H	0.713990	-0.640412	-0.475362
H238	H	0.709261	-0.669367	-0.539139
H239	H	0.668220	-0.707560	-0.427748
H240	H	0.663478	-0.736515	-0.491521
O241	O	0.830174	-0.554072	-0.382905
C242	C	0.794597	-0.518289	-0.418373
H243	H	0.820358	-0.479335	-0.420571
H244	H	0.746794	-0.512549	-0.395262
C245	C	0.753865	-0.587421	-0.482665
C246	C	0.785509	-0.539578	-0.485370
H247	H	0.748257	-0.600554	-0.523991
H248	H	0.777832	-0.611529	-0.458768
H249	H	0.714034	-0.582631	-0.463403
H250	H	0.825343	-0.544370	-0.504624
H251	H	0.761548	-0.515471	-0.509271
O252	O	0.988923	-0.446448	-0.224208
C253	C	0.975193	-0.459823	-0.161453
H254	H	0.951010	-0.499495	-0.160127
H255	H	0.942828	-0.429135	-0.140203
C256	C	1.066282	-0.413572	-0.125030
C257	C	1.036586	-0.462300	-0.123401
H258	H	1.104151	-0.415097	-0.101557
H259	H	1.075532	-0.404559	-0.167309
H260	H	1.039305	-0.388004	-0.107323
H261	H	1.063560	-0.487865	-0.141115
H262	H	1.027342	-0.471317	-0.081124
O263	O	0.830388	-1.056408	-0.382965
C264	C	0.794815	-1.020621	-0.418431
H265	H	0.820584	-0.981671	-0.420633
H266	H	0.747015	-1.014875	-0.395317
C267	C	0.754065	-1.089750	-0.482719
C268	C	0.785718	-1.041911	-0.485427
H269	H	0.748451	-1.102882	-0.524044
H270	H	0.778030	-1.113860	-0.458823
H271	H	0.714236	-1.084954	-0.463454
H272	H	0.825549	-1.046708	-0.504684
H273	H	0.761760	-1.017801	-0.509327
H274	H	0.149909	-0.190915	-0.230781
H275	H	0.982684	-0.549738	-0.230630
H276	H	0.982893	-1.052099	-0.230698
H277	H	0.836698	-0.953141	-0.376584
H278	H	0.796364	-0.801036	-0.416781
H279	H	0.836477	-0.450788	-0.376509
