data_functionalizedCrystal
_audit_creation_method	'MofGen! by Chris Wilmer'
_symmetry_space_group_name_H-M	'P1'
_symmetry_Int_Tables_number	1
_symmetry_cell_setting	triclinic
loop_
_symmetry_equiv_pos_as_xyz
  x,y,z
_cell_length_a	19.805405
_cell_length_b	19.805407
_cell_length_c	19.805399
_cell_angle_alpha	90.019197
_cell_angle_beta	90.027486
_cell_angle_gamma	90.023877
loop_
_atom_site_label
_atom_site_type_symbol
_atom_site_fract_x
_atom_site_fract_y
_atom_site_fract_z
Zn1	Zn	0.269548	-1.034729	-0.382713
Zn2	Zn	0.602882	-0.701396	-0.049380
Zn3	Zn	0.936215	-0.368063	0.283953
Zn4	Zn	0.382737	-1.034642	-0.269525
Zn5	Zn	0.716070	-0.701308	0.063808
Zn6	Zn	1.049403	-0.367975	0.397141
Zn7	Zn	0.269559	-0.921544	-0.269539
Zn8	Zn	0.602893	-0.588211	0.063795
Zn9	Zn	0.936226	-0.254877	0.397128
Zn10	Zn	0.382693	-0.921505	-0.382673
Zn11	Zn	0.716027	-0.588172	-0.049339
Zn12	Zn	1.049360	-0.254838	0.283994
O13	O	0.326134	-0.978105	-0.326112
O14	O	0.659468	-0.644772	0.007221
O15	O	0.992801	-0.311438	0.340554
O16	O	0.284577	-1.129434	-0.367710
O17	O	0.617910	-0.796101	-0.034377
O18	O	0.951243	-0.462768	0.298957
O19	O	0.367746	-1.019619	-0.174810
O20	O	0.701080	-0.686285	0.158523
O21	O	1.034413	-0.352952	0.491856
O22	O	0.174841	-0.936611	-0.284574
O23	O	0.508175	-0.603278	0.048759
O24	O	0.841508	-0.269945	0.382093
O25	O	0.367736	-1.129370	-0.284551
O26	O	0.701069	-0.796037	0.048782
O27	O	1.034402	-0.462703	0.382115
O28	O	0.174833	-1.019768	-0.367723
O29	O	0.508167	-0.686435	-0.034390
O30	O	0.841500	-0.353102	0.298944
O31	O	0.284596	-0.936526	-0.174820
O32	O	0.617929	-0.603193	0.158513
O33	O	0.951262	-0.269860	0.491846
O34	O	0.284553	-0.826822	-0.284535
O35	O	0.617887	-0.493489	0.048799
O36	O	0.951220	-0.160156	0.382132
O37	O	0.367661	-0.936545	-0.477395
O38	O	0.700995	-0.603212	-0.144061
O39	O	1.034328	-0.269878	0.189272
O40	O	0.367672	-0.826794	-0.367654
O41	O	0.701005	-0.493460	-0.034321
O42	O	1.034339	-0.160127	0.299013
O43	O	0.284534	-1.019730	-0.477424
O44	O	0.617868	-0.686397	-0.144091
O45	O	0.951201	-0.353064	0.189242
O46	O	0.477448	-1.019581	-0.284512
O47	O	0.810781	-0.686247	0.048821
O48	O	1.144114	-0.352914	0.382155
O49	O	0.477416	-0.936460	-0.367641
O50	O	0.810749	-0.603126	-0.034308
O51	O	1.144082	-0.269793	0.299026
C52	C	0.326110	-0.802249	-0.326092
C53	C	0.659443	-0.468916	0.007242
C54	C	0.992776	-0.135582	0.340575
C55	C	0.326115	-0.727017	-0.326099
C56	C	0.659449	-0.393684	0.007234
C57	C	0.992782	-0.060350	0.340568
C58	C	0.282890	-0.691707	-0.369465
C59	C	0.616224	-0.358374	-0.036131
C60	C	0.949557	-0.025040	0.297202
C61	C	0.282892	-0.621019	-0.369466
C62	C	0.616226	-0.287685	-0.036132
C63	C	0.949559	0.045648	0.297201
C64	C	0.326124	-0.585641	-0.326104
C65	C	0.659457	-0.252308	0.007230
C66	C	0.992790	0.081025	0.340563
C67	C	0.369350	-0.620956	-0.282733
C68	C	0.702684	-0.287623	0.050600
C69	C	1.036017	0.045710	0.383934
C70	C	0.369344	-0.691644	-0.282729
C71	C	0.702678	-0.358310	0.050604
C72	C	1.036011	-0.024977	0.383937
C73	C	0.369375	-0.335883	-0.282747
C74	C	0.702708	-0.002550	0.050586
C75	C	1.036042	0.330784	0.383920
C76	C	0.369379	-0.265191	-0.282755
C77	C	0.702713	0.068142	0.050578
C78	C	1.036046	0.401476	0.383911
C79	C	0.282923	-0.265258	-0.369483
C80	C	0.616256	0.068075	-0.036150
C81	C	0.949590	0.401408	0.297183
C82	C	0.282917	-0.335945	-0.369479
C83	C	0.616250	-0.002612	-0.036146
C84	C	0.949584	0.330721	0.297187
C85	C	0.326141	-0.371254	-0.326107
C86	C	0.659475	-0.037921	0.007227
C87	C	0.992808	0.295413	0.340560
C88	C	0.326137	-0.447903	-0.326105
C89	C	0.659471	-0.114569	0.007228
C90	C	0.992804	0.218764	0.340561
C91	C	0.326131	-0.508994	-0.326108
C92	C	0.659465	-0.175661	0.007225
C93	C	0.992798	0.157672	0.340559
C94	C	0.501991	-0.978025	-0.326085
C95	C	0.835324	-0.644692	0.007248
C96	C	1.168657	-0.311358	0.340581
C97	C	0.577222	-0.978052	-0.326096
C98	C	0.910556	-0.644719	0.007237
C99	C	1.243889	-0.311386	0.340570
C100	C	0.612561	-1.021375	-0.282857
C101	C	0.945894	-0.688041	0.050476
C102	C	1.279227	-0.354708	0.383809
C103	C	0.683249	-1.021402	-0.282875
C104	C	1.016583	-0.688069	0.050459
C105	C	1.349916	-0.354735	0.383792
C106	C	0.718598	-0.978103	-0.326128
C107	C	1.051931	-0.644769	0.007206
C108	C	1.385265	-0.311436	0.340539
C109	C	0.683255	-0.934779	-0.369371
C110	C	1.016588	-0.601445	-0.036038
C111	C	1.349921	-0.268112	0.297295
C112	C	0.612568	-0.934755	-0.369357
C113	C	0.945901	-0.601422	-0.036024
C114	C	1.279234	-0.268089	0.297310
C115	C	0.968328	-0.934872	-0.369431
C116	C	1.301661	-0.601538	-0.036097
C117	C	1.634995	-0.268205	0.297236
C118	C	1.039020	-0.934897	-0.369440
C119	C	1.372353	-0.601564	-0.036107
C120	C	1.705687	-0.268230	0.297227
C121	C	1.039010	-1.021518	-0.282948
C122	C	1.372343	-0.688185	0.050385
C123	C	1.705676	-0.354852	0.383719
C124	C	0.968322	-1.021495	-0.282934
C125	C	1.301656	-0.688162	0.050399
C126	C	1.634989	-0.354829	0.383733
C127	C	0.932985	-0.978174	-0.326180
C128	C	1.266319	-0.644840	0.007154
C129	C	1.599652	-0.311507	0.340487
C130	C	0.856337	-0.978146	-0.326161
C131	C	1.189670	-0.644812	0.007172
C132	C	1.523004	-0.311479	0.340505
C133	C	0.795245	-0.978127	-0.326143
C134	C	1.128578	-0.644794	0.007190
C135	C	1.461912	-0.311460	0.340524
C136	C	1.149592	-0.978198	-0.326162
C137	C	1.482925	-0.644865	0.007171
C138	C	1.816258	-0.311532	0.340504
C139	C	1.074360	-0.978223	-0.326204
C140	C	1.407693	-0.644890	0.007129
C141	C	1.741026	-0.311557	0.340463
C142	C	0.326092	-0.978143	-0.502655
C143	C	0.659425	-0.644810	-0.169322
C144	C	0.992758	-0.311476	0.164011
C145	C	0.326074	-0.978159	-0.577887
C146	C	0.659407	-0.644826	-0.244554
C147	C	0.992740	-0.311493	0.088779
C148	C	0.326155	-0.154648	-0.326128
C149	C	0.659488	0.178686	0.007206
C150	C	0.992821	0.512019	0.340539
C151	C	0.326150	-0.229880	-0.326118
C152	C	0.659484	0.103454	0.007215
C153	C	0.992817	0.436787	0.340548
C154	C	0.282787	-1.021475	-0.613248
C155	C	0.616121	-0.688142	-0.279915
C156	C	0.949454	-0.354808	0.053419
C157	C	0.282768	-1.021482	-0.683937
C158	C	0.616101	-0.688148	-0.350603
C159	C	0.949434	-0.354815	-0.017270
C160	C	0.326038	-0.978176	-0.719263
C161	C	0.659372	-0.644843	-0.385930
C162	C	0.992705	-0.311509	-0.052596
C163	C	0.369327	-0.934856	-0.683897
C164	C	0.702660	-0.601522	-0.350564
C165	C	1.035993	-0.268189	-0.017231
C166	C	0.369342	-0.934846	-0.613210
C167	C	0.702676	-0.601512	-0.279877
C168	C	1.036009	-0.268179	0.053457
C169	C	0.369264	-0.934894	-0.968971
C170	C	0.702597	-0.601560	-0.635637
C171	C	1.035930	-0.268227	-0.302304
C172	C	0.369246	-0.934908	-1.039663
C173	C	0.702579	-0.601575	-0.706329
C174	C	1.035913	-0.268242	-0.372996
C175	C	0.282689	-1.021530	-1.039697
C176	C	0.616022	-0.688197	-0.706364
C177	C	0.949356	-0.354863	-0.373030
C178	C	0.282705	-1.021520	-0.969010
C179	C	0.616038	-0.688187	-0.635677
C180	C	0.949371	-0.354853	-0.302343
C181	C	0.325990	-0.978197	-0.933650
C182	C	0.659323	-0.644864	-0.600317
C183	C	0.992657	-0.311531	-0.266984
C184	C	0.326010	-0.978189	-0.857002
C185	C	0.659343	-0.644856	-0.523669
C186	C	0.992677	-0.311523	-0.190335
C187	C	0.326022	-0.978187	-0.795910
C188	C	0.659356	-0.644854	-0.462577
C189	C	0.992689	-0.311520	-0.129243
C190	C	0.326128	-0.978106	-0.150256
C191	C	0.659461	-0.644773	0.183077
C192	C	0.992795	-0.311440	0.516410
C193	C	0.325956	-0.978221	-0.075025
C194	C	0.659289	-0.644888	0.258308
C195	C	0.992622	-0.311555	0.591642
H196	H	0.404585	-0.236389	-0.247442
H197	H	0.737918	0.096945	0.085891
H198	H	1.071252	0.430278	0.419224
Br199	Br	0.427975	-0.876133	-1.087606
Br200	Br	0.761309	-0.542800	-0.754273
Br201	Br	1.094642	-0.209466	-0.420939
H202	H	0.247553	-1.056742	-0.584490
H203	H	0.580887	-0.723408	-0.251157
H204	H	0.914220	-0.390075	0.082176
Br205	Br	0.224051	-1.080302	-0.731924
Br206	Br	0.557384	-0.746968	-0.398591
Br207	Br	0.890717	-0.413635	-0.065257
Br208	Br	0.224249	-0.383954	-0.428334
Br209	Br	0.557582	-0.050621	-0.095001
Br210	Br	0.890916	0.282713	0.238332
H211	H	0.583796	-0.899479	-0.404567
H212	H	0.917129	-0.566145	-0.071234
H213	H	1.250462	-0.232812	0.262099
H214	H	0.404571	-0.364623	-0.247431
H215	H	0.737905	-0.031290	0.085903
H216	H	1.071238	0.302044	0.419236
H217	H	0.247471	-1.056786	-0.940251
H218	H	0.580805	-0.723453	-0.606917
H219	H	0.914138	-0.390120	-0.273584
Br220	Br	0.223942	-1.080325	-1.087689
Br221	Br	0.557275	-0.746992	-0.754355
Br222	Br	0.890609	-0.413659	-0.421022
H223	H	0.404547	-0.592147	-0.247424
H224	H	0.737880	-0.258813	0.085910
H225	H	1.071213	0.074520	0.419243
Br226	Br	0.224260	-0.217336	-0.428347
Br227	Br	0.557593	0.115998	-0.095014
Br228	Br	0.890927	0.449331	0.238319
Br229	Br	0.428007	-0.876097	-0.920991
Br230	Br	0.761340	-0.542764	-0.587658
Br231	Br	1.094674	-0.209431	-0.254325
H232	H	0.712041	-0.899527	-0.404592
H233	H	1.045375	-0.566193	-0.071258
H234	H	1.378708	-0.232860	0.262075
H235	H	0.404542	-0.720392	-0.247416
H236	H	0.737876	-0.387059	0.085917
H237	H	1.071209	-0.053725	0.419251
Br238	Br	0.428048	-0.876078	-0.731839
Br239	Br	0.761381	-0.542745	-0.398506
Br240	Br	1.094715	-0.209412	-0.065173
H241	H	0.583784	-1.056631	-0.247633
H242	H	0.917118	-0.723298	0.085700
H243	H	1.250451	-0.389964	0.419034
H244	H	0.712019	-1.056679	-0.247665
H245	H	1.045352	-0.723345	0.085669
H246	H	1.378685	-0.390012	0.419002
H247	H	0.404584	-0.899567	-0.584420
H248	H	0.737917	-0.566233	-0.251087
H249	H	1.071250	-0.232900	0.082246
Br250	Br	0.224221	-0.739712	-0.428321
Br251	Br	0.557554	-0.406379	-0.094988
Br252	Br	0.890888	-0.073046	0.238345
Br253	Br	0.224228	-0.573100	-0.428322
Br254	Br	0.557561	-0.239767	-0.094989
Br255	Br	0.890894	0.093566	0.238344
H256	H	0.939544	-1.056751	-0.247711
H257	H	1.272877	-0.723418	0.085622
H258	H	1.606210	-0.390084	0.418956
H259	H	1.067799	-0.899638	-0.404667
H260	H	1.401132	-0.566305	-0.071334
H261	H	1.734466	-0.232972	0.262000
Br262	Br	1.086971	-1.080315	-0.224258
Br263	Br	1.420304	-0.746982	0.109075
Br264	Br	1.753637	-0.413649	0.442408
H265	H	0.939562	-0.899597	-0.404641
H266	H	1.272895	-0.566263	-0.071308
H267	H	1.606229	-0.232930	0.262025
