data_functionalizedCrystal
_audit_creation_method	'MofGen! by Chris Wilmer'
_symmetry_space_group_name_H-M	'P1'
_symmetry_Int_Tables_number	1
_symmetry_cell_setting	triclinic
loop_
_symmetry_equiv_pos_as_xyz
  x,y,z
_cell_length_a	11.026607
_cell_length_b	10.065875
_cell_length_c	10.908878
_cell_angle_alpha	83.443480
_cell_angle_beta	84.335404
_cell_angle_gamma	100.731764
loop_
_atom_site_label
_atom_site_type_symbol
_atom_site_fract_x
_atom_site_fract_y
_atom_site_fract_z
O1	O	-0.199737	-0.113471	1.676468
O2	O	-0.109198	-0.113477	1.323534
O3	O	-0.325216	-0.113470	1.470749
O4	O	0.016282	-0.113479	1.529252
O5	O	-0.283888	0.113518	1.442709
O6	O	-0.067869	0.113510	1.295493
O7	O	-0.158408	0.113516	1.648427
Zn8	Zn	-0.106577	0.149552	1.467508
Zn9	Zn	-0.161029	-0.149513	1.504453
O10	O	0.057610	0.113509	1.501212
C11	C	-0.347585	0.000022	1.445937
C12	C	-0.475808	0.000017	1.413764
C13	C	-0.080072	0.000016	1.263628
C14	C	-0.054874	0.000013	1.126901
N15	N	-0.069418	0.353657	1.442303
C16	C	-0.567541	0.000016	1.502599
C17	C	-0.700066	0.000011	1.469350
C18	C	0.079979	0.000014	1.526025
C19	C	0.208200	0.000010	1.558198
N20	N	-0.198199	-0.353618	1.529665
C21	C	-0.148106	0.421438	1.495674
C22	C	-0.119500	0.578604	1.476287
C23	C	-0.146818	0.000015	1.056638
C24	C	-0.120777	0.000012	0.915323
C25	C	-0.187534	0.000020	1.708333
C26	C	-0.212734	0.000014	1.845062
H27	H	-0.547964	0.000026	1.603269
H28	H	-0.719637	-0.000000	1.368674
H29	H	-0.244815	0.000011	1.101104
O30	O	-0.003797	-0.000053	0.862501
C31	C	0.209173	0.000025	0.895190
C32	C	0.076751	0.000068	0.955175
H33	H	0.274338	0.000152	0.970086
H34	H	0.208387	-0.094994	0.847302
H35	H	0.242843	0.094994	0.823747
H36	H	0.043001	-0.094837	1.026671
H37	H	0.077613	0.095149	1.002983
O38	O	-0.303925	0.577034	1.601299
C39	C	-0.491232	0.591776	1.728420
C40	C	-0.371562	0.670481	1.647305
H41	H	-0.545938	0.667293	1.765660
H42	H	-0.550495	0.524927	1.670156
H43	H	-0.465806	0.524823	1.809574
H44	H	-0.396875	0.737507	1.566142
H45	H	-0.312331	0.737243	1.705656
O46	O	0.036188	0.423435	1.370749
C47	C	0.160924	0.643701	1.286081
C48	C	0.041293	0.564852	1.367172
H49	H	0.165078	0.758050	1.283140
H50	H	0.245418	0.615787	1.327226
H51	H	0.160799	0.615623	1.187760
H52	H	0.041297	0.592888	1.465508
H53	H	-0.043148	0.592773	1.325926
O54	O	-0.329571	0.000074	0.898281
C55	C	-0.462080	-0.000015	1.087671
C56	C	-0.329703	-0.000049	1.027558
H57	H	-0.462236	-0.000144	1.192203
H58	H	-0.493747	0.095001	1.046006
H59	H	-0.528285	-0.094987	1.069305
H60	H	-0.263406	0.094858	1.045902
H61	H	-0.298139	-0.095128	1.069228
O62	O	-0.768245	0.000072	1.678238
C63	C	-0.614705	-0.000012	1.820843
C64	C	-0.641204	-0.000048	1.684848
H65	H	-0.512001	-0.000137	1.826235
H66	H	-0.638898	0.095004	1.856790
H67	H	-0.673635	-0.094984	1.880201
H68	H	-0.582290	0.094860	1.625393
H69	H	-0.617048	-0.095126	1.649001
O70	O	-0.253849	0.351902	1.567152
C71	C	-0.477898	0.307872	1.597345
C72	C	-0.358252	0.386696	1.516263
H73	H	-0.562338	0.335995	1.556246
H74	H	-0.482213	0.193504	1.600178
H75	H	-0.477709	0.335834	1.695701
H76	H	-0.358360	0.358848	1.417869
H77	H	-0.353984	0.501044	1.513534
O78	O	0.062015	-0.000234	1.073954
C79	C	0.233469	-0.117794	1.065719
C80	C	0.101078	-0.117700	1.125755
H81	H	0.265102	-0.212741	1.107594
H82	H	0.233699	-0.117885	0.961200
H83	H	0.299657	-0.022757	1.083977
H84	H	0.034814	-0.212720	1.107592
H85	H	0.100948	-0.117538	1.230255
H86	H	-0.030952	0.636922	1.416232
H87	H	-0.495385	0.000006	1.313095
