data_functionalizedCrystal
_audit_creation_method	'MofGen! by Chris Wilmer'
_symmetry_space_group_name_H-M	'P1'
_symmetry_Int_Tables_number	1
_symmetry_cell_setting	triclinic
loop_
_symmetry_equiv_pos_as_xyz
  x,y,z
_cell_length_a	10.654550
_cell_length_b	16.109301
_cell_length_c	15.186229
_cell_angle_alpha	89.999006
_cell_angle_beta	89.997420
_cell_angle_gamma	83.973243
loop_
_atom_site_label
_atom_site_type_symbol
_atom_site_fract_x
_atom_site_fract_y
_atom_site_fract_z
O1	O	0.161420	1.104090	-0.073178
O2	O	0.181508	0.862148	-0.073190
O3	O	-0.011350	0.988682	-0.073180
O4	O	0.354279	0.977556	-0.073187
O5	O	-0.011353	0.988673	0.073277
O6	O	0.181506	0.862139	0.073267
O7	O	0.161418	1.104082	0.073279
Zn8	Zn	0.171461	0.983109	0.096527
Zn9	Zn	0.171465	0.983120	-0.096437
O10	O	0.354276	0.977548	0.073270
C11	C	0.180693	0.831164	0.000037
C12	C	0.178254	0.738854	0.000032
C13	C	0.284717	0.430489	0.000046
C14	C	0.287021	0.517223	0.000041
C15	C	0.058200	0.535735	0.000033
C16	C	0.055898	0.449003	0.000032
C17	C	0.169160	0.396381	0.000043
C18	C	0.173766	0.569848	0.000039
C19	C	0.176264	0.663889	0.000033
C20	C	0.166663	0.302335	0.000047
C21	C	-0.058139	0.987861	0.000047
C22	C	-0.197549	0.985417	0.000044
C23	C	-0.278045	1.059918	0.000050
C24	C	-0.409035	1.057616	0.000044
C25	C	-0.379019	0.906306	0.000029
C26	C	-0.248032	0.908608	0.000029
C27	C	-0.227562	1.136726	0.000066
C28	C	-0.308060	1.211233	0.000073
C29	C	-0.439049	1.208932	0.000067
C30	C	-0.489541	1.132123	0.000053
C31	C	0.401065	0.978369	0.000040
C32	C	0.540475	0.980813	0.000038
C33	C	0.162233	1.135066	0.000050
C34	C	0.164673	1.227375	0.000049
N35	N	0.171458	0.983107	0.228219
N36	N	0.171458	0.983128	-0.228130
C37	C	0.086089	1.039156	0.453946
C38	C	0.086086	1.039159	0.546136
C39	C	0.256831	0.927074	0.546137
C40	C	0.256827	0.927068	0.453949
C41	C	0.171458	0.983114	0.407856
C42	C	0.171459	0.983122	0.592234
C43	C	0.171456	0.983125	0.692190
C44	C	0.171458	0.983110	0.307893
H45	H	0.381119	0.544988	0.000042
H46	H	-0.034013	0.578590	0.000027
C47	C	-0.079446	0.362191	0.075310
C48	C	-0.071130	0.411503	0.000027
H49	H	-0.157860	0.339036	0.075298
H50	H	-0.073813	0.395641	0.126375
H51	H	-0.012313	0.318445	0.075302
H52	H	-0.138258	0.455253	0.000038
H53	H	-0.076776	0.378051	-0.051052
H54	H	-0.120905	1.138608	0.000073
C55	C	-0.120592	1.281948	0.000094
C56	C	-0.252563	1.295658	0.000086
H57	H	-0.086337	1.334071	0.000107
H58	H	-0.092960	1.251252	-0.050977
H59	H	-0.092980	1.251235	0.051169
H60	H	-0.280177	1.326367	-0.050992
H61	H	-0.280207	1.326368	0.051163
C62	C	-0.455555	1.358725	0.000089
C63	C	-0.527534	1.290827	0.000073
H64	H	-0.510183	1.409285	0.000102
H65	H	-0.403840	1.356484	-0.050980
H66	H	-0.403841	1.356461	0.051166
H67	H	-0.579241	1.293088	-0.051007
H68	H	-0.579270	1.293070	0.051148
H69	H	0.016574	1.084791	0.416420
H70	H	0.016570	1.084792	0.583660
C71	C	-0.685342	1.170022	-0.075246
C72	C	-0.633528	1.129593	0.000041
H73	H	-0.774232	1.168464	-0.075247
H74	H	-0.650161	1.142602	-0.126309
H75	H	-0.666787	1.226426	-0.075232
H76	H	-0.652074	1.073187	0.000023
H77	H	-0.668721	1.157012	0.051117
H78	H	0.326345	0.881427	0.416419
H79	H	-0.420140	0.843772	0.000019
H80	H	0.326339	0.881444	0.583674
C81	C	-0.231509	0.758813	0.000019
C82	C	-0.159540	0.826716	0.000023
H83	H	-0.176875	0.708256	0.000017
H84	H	-0.283220	0.761066	-0.051049
H85	H	-0.283226	0.761060	0.051098
H86	H	-0.107829	0.824473	-0.051059
H87	H	-0.107807	0.824462	0.051096
H88	H	0.376942	0.387646	0.000054
