data_functionalizedCrystal
_audit_creation_method	'MofGen! by Chris Wilmer'
_symmetry_space_group_name_H-M	'P1'
_symmetry_Int_Tables_number	1
_symmetry_cell_setting	triclinic
loop_
_symmetry_equiv_pos_as_xyz
  x,y,z
_cell_length_a	6.817900
_cell_length_b	11.168130
_cell_length_c	11.168136
_cell_angle_alpha	92.019983
_cell_angle_beta	108.508683
_cell_angle_gamma	108.508653
loop_
_atom_site_label
_atom_site_type_symbol
_atom_site_fract_x
_atom_site_fract_y
_atom_site_fract_z
V1	V	-4.109882	-0.174724	-0.393709
O2	O	-4.069466	0.008377	-0.386204
O3	O	-4.086170	-0.346429	-0.391026
O4	O	-4.086173	-0.172044	-0.565415
O5	O	-4.069464	-0.167215	-0.210609
V6	V	-4.587112	-0.152822	-0.371808
O7	O	-4.384946	-0.222767	-0.441752
O8	O	-4.762246	-0.104778	-0.323765
O9	O	-4.387617	0.018883	-0.374490
O10	O	-4.744925	-0.335922	-0.379313
O11	O	-4.744927	-0.160330	-0.554908
O12	O	-4.387615	-0.155501	-0.200102
C13	C	-3.936378	-0.388286	-0.384818
C14	C	-3.998442	-0.528658	-0.383769
C15	C	-4.033444	-0.719172	-0.272327
C16	C	-3.969296	-0.574091	-0.273409
C17	C	-3.936380	-0.165840	-0.607266
C18	C	-3.998442	-0.164786	-0.747637
C19	C	-4.200950	-0.170305	-0.816329
C20	C	-4.265098	-0.169216	-0.961409
C21	C	-4.200752	0.060735	-0.380695
C22	C	-4.117927	0.201105	-0.381753
C23	C	-4.200750	-0.161709	-0.158244
C24	C	-4.117925	-0.162757	-0.017872
H25	H	-3.896870	-0.505597	-0.179728
H26	H	-3.872553	-0.159246	-0.796232
H27	H	-3.944444	-0.158040	-0.958831
C28	C	-4.069937	-0.905509	-0.168388
C29	C	-3.999898	-0.772014	-0.144769
H30	H	-4.049233	-0.938126	-0.089635
H31	H	-3.986348	-0.930354	-0.211731
H32	H	-4.221746	-0.938582	-0.219801
H33	H	-3.848084	-0.738940	-0.093363
H34	H	-4.083485	-0.747158	-0.101406
C35	C	-4.653084	-0.288715	-1.030240
C36	C	-4.499303	-0.175603	-1.041121
H37	H	-4.797675	-0.292662	-1.079462
H38	H	-4.640703	-0.290270	-0.943210
H39	H	-4.625184	-0.359927	-1.060691
H40	H	-4.527193	-0.104390	-1.010661
H41	H	-4.511693	-0.174037	-1.128169
C42	C	-4.306860	-0.704102	-0.522586
C43	C	-4.096228	-0.621108	-0.510248
H44	H	-4.367222	-0.761187	-0.600665
H45	H	-4.399332	-0.656015	-0.522267
H46	H	-4.296863	-0.751404	-0.453200
H47	H	-4.106227	-0.573798	-0.579629
H48	H	-4.003735	-0.669200	-0.510578
C49	C	-4.274464	-0.177410	-0.619712
C50	C	-4.370909	-0.177775	-0.750738
H51	H	-4.379403	-0.182029	-0.579226
H52	H	-4.151071	-0.101008	-0.583983
H53	H	-4.227545	-0.248962	-0.607069
H54	H	-4.417814	-0.106218	-0.763382
H55	H	-4.494342	-0.254185	-0.786478
H56	H	-4.142756	-0.759741	-0.476236
