data_functionalizedCrystal
_audit_creation_method	'MofGen! by Chris Wilmer'
_symmetry_space_group_name_H-M	'P1'
_symmetry_Int_Tables_number	1
_symmetry_cell_setting	triclinic
loop_
_symmetry_equiv_pos_as_xyz
  x,y,z
_cell_length_a	16.974897
_cell_length_b	11.792241
_cell_length_c	16.053802
_cell_angle_alpha	87.416941
_cell_angle_beta	96.225225
_cell_angle_gamma	83.796436
loop_
_atom_site_label
_atom_site_type_symbol
_atom_site_fract_x
_atom_site_fract_y
_atom_site_fract_z
O1	O	1.056474	0.135041	0.140738
O2	O	0.825606	0.154522	0.125157
O3	O	0.946642	-0.020472	0.133320
O4	O	0.935438	0.310035	0.132575
O5	O	0.939980	-0.010880	-0.005989
O6	O	0.818943	0.164114	-0.014151
O7	O	1.049812	0.144634	0.001430
Zn8	Zn	0.933320	0.155897	-0.028479
Zn9	Zn	0.942098	0.143258	0.155066
O10	O	0.928775	0.319628	-0.006733
C11	C	0.792718	0.158752	0.053508
C12	C	0.704650	0.157053	0.047564
C13	C	0.942607	-0.057956	0.063618
C14	C	0.940501	-0.183939	0.063477
C15	C	0.666899	0.151029	0.120702
C16	C	0.584147	0.149451	0.115105
C17	C	0.539148	0.153890	0.036369
C18	C	0.576904	0.159918	-0.036775
C19	C	0.659654	0.161504	-0.031177
C20	C	0.291274	0.149716	0.011484
C21	C	0.208519	0.148126	0.005891
C22	C	0.215768	0.137662	0.157772
C23	C	0.298519	0.139241	0.163363
C24	C	0.336267	0.145275	0.090219
N25	N	0.454563	0.152274	0.030646
N26	N	0.420851	0.146899	0.095943
C27	C	0.936627	-0.414594	0.063229
C28	C	0.938780	-0.286240	0.063367
C29	C	1.082700	0.140403	0.073080
C30	C	1.170768	0.142102	0.079030
C31	C	0.932811	0.357112	0.062970
C32	C	0.934918	0.483094	0.063117
N33	N	0.927335	0.164522	-0.153743
C34	C	0.978855	0.090088	-0.193962
C35	C	0.974676	0.096132	-0.281651
C36	C	0.918980	0.176616	-0.329118
C37	C	0.867454	0.251053	-0.288893
C38	C	0.871630	0.245003	-0.201207
C39	C	0.900739	0.203012	-0.591758
C40	C	0.896569	0.209059	-0.679451
C41	C	1.003790	0.054135	-0.672202
C42	C	1.007964	0.048096	-0.584514
C43	C	0.956436	0.122530	-0.544297
N44	N	0.914709	0.182798	-0.418750
N45	N	0.960704	0.116341	-0.454667
N46	N	0.948089	0.134625	0.280330
H47	H	0.553415	0.144546	0.174662
O48	O	1.061722	-0.030439	-0.538302
C49	C	1.054172	-0.020080	-0.452296
H50	H	1.025936	0.069680	-0.442139
H51	H	1.014815	-0.085383	-0.430476
C52	C	1.171915	-0.152046	-0.414022
C53	C	1.137240	-0.041798	-0.401545
H54	H	1.223154	-0.165448	-0.382715
H55	H	1.177000	-0.159030	-0.471965
H56	H	1.139109	-0.206453	-0.395838
H57	H	1.170041	0.012607	-0.419738
H58	H	1.132162	-0.034806	-0.343603
O59	O	0.342106	0.134968	0.239915
C60	C	0.291043	0.129278	0.303271
H61	H	0.227868	0.165619	0.276814
H62	H	0.291276	0.036453	0.326547
C63	C	0.397883	0.154726	0.409268
C64	C	0.320291	0.199371	0.376775
H65	H	0.415925	0.197958	0.454611
H66	H	0.432286	0.158555	0.366585
H67	H	0.398067	0.077373	0.428659
H68	H	0.320110	0.276717	0.357376
H69	H	0.285889	0.195556	0.419457
H70	H	0.185024	0.132752	0.217322
H71	H	1.016627	0.035521	-0.314397
H72	H	0.171880	0.151773	-0.058229
H73	H	0.321999	0.154621	-0.048075
H74	H	0.851212	0.274603	-0.718095
H75	H	0.540259	0.163539	-0.100884
H76	H	1.045741	-0.006466	-0.704956
H77	H	0.690389	0.166414	-0.090734
O78	O	1.032983	0.011804	-0.147984
C79	C	1.077571	-0.052578	-0.202290
H80	H	1.042067	-0.049373	-0.266999
H81	H	1.136209	-0.015396	-0.207610
C82	C	1.138634	-0.181399	-0.087537
C83	C	1.095024	-0.177471	-0.167011
H84	H	1.149404	-0.258438	-0.065774
H85	H	1.108597	-0.138022	-0.050949
H86	H	1.187494	-0.150408	-0.091981
H87	H	1.046162	-0.208448	-0.162565
H88	H	1.125054	-0.220857	-0.203598
H89	H	0.858784	0.263620	-0.559020
O90	O	0.813421	0.329202	-0.335125
C91	C	0.820769	0.318567	-0.421146
H92	H	0.883082	0.276640	-0.428868
H93	H	0.774445	0.263599	-0.449096
C94	C	0.730667	0.489333	-0.457438
C95	C	0.807202	0.437847	-0.466922
H96	H	0.722295	0.562910	-0.485676
H97	H	0.725713	0.496497	-0.399484
H98	H	0.692073	0.443515	-0.480729
H99	H	0.845796	0.483658	-0.443622
H100	H	0.812162	0.430694	-0.524873
O101	O	0.821663	0.317470	-0.162166
C102	C	0.834001	0.431233	-0.182688
H103	H	0.896362	0.433117	-0.202491
H104	H	0.787754	0.468313	-0.236550
C105	C	0.749119	0.500552	-0.081273
C106	C	0.825714	0.502867	-0.105588
H107	H	0.744003	0.544742	-0.033716
H108	H	0.740803	0.423909	-0.067449
H109	H	0.710588	0.531450	-0.126165
H110	H	0.864243	0.471956	-0.060701
H111	H	0.834035	0.579507	-0.119403
O112	O	0.710484	0.146764	0.197254
C113	C	0.659417	0.141084	0.260607
H114	H	0.596241	0.177412	0.234141
H115	H	0.659656	0.048264	0.283897
C116	C	0.766245	0.166575	0.366605
C117	C	0.688653	0.211202	0.334101
H118	H	0.784280	0.209823	0.411942
H119	H	0.800651	0.170397	0.323925
H120	H	0.766434	0.089226	0.386007
H121	H	0.688467	0.288545	0.314691
H122	H	0.654247	0.207395	0.376781
