data_functionalizedCrystal
_audit_creation_method	'MofGen! by Chris Wilmer'
_symmetry_space_group_name_H-M	'P1'
_symmetry_Int_Tables_number	1
_symmetry_cell_setting	triclinic
loop_
_symmetry_equiv_pos_as_xyz
  x,y,z
_cell_length_a	20.919309
_cell_length_b	23.096457
_cell_length_c	20.919309
_cell_angle_alpha	89.999751
_cell_angle_beta	60.101124
_cell_angle_gamma	62.591463
loop_
_atom_site_label
_atom_site_type_symbol
_atom_site_fract_x
_atom_site_fract_y
_atom_site_fract_z
Zr1	Zr	0.692446	0.585938	-0.106857
O2	O	0.817971	0.501546	-0.209953
O3	O	0.561618	0.608431	-0.071789
O4	O	0.684800	0.617465	-0.204963
O5	O	0.702670	0.489229	0.024331
O6	O	0.684802	0.712745	-0.204966
O7	O	0.694789	0.492513	-0.076779
O8	O	0.464451	0.696587	0.033257
O9	O	0.923021	0.505388	-0.213893
O10	O	0.617395	0.693212	-0.061021
O11	O	0.623275	0.619655	0.014439
O12	O	0.768307	0.630290	-0.142355
O13	O	0.774187	0.556733	-0.066896
Zr14	Zr	0.705018	0.732663	0.054395
Zr15	Zr	0.692449	0.737900	-0.106863
Zr16	Zr	0.705015	0.580701	0.054401
Zr17	Zr	0.859988	0.592066	-0.113141
Zr18	Zr	0.537476	0.726535	0.060679
O19	O	0.835846	0.710169	0.019327
O20	O	0.817975	0.717616	-0.209961
O21	O	0.835843	0.494100	0.019336
O22	O	0.579493	0.817055	0.157491
O23	O	0.561621	0.824501	-0.071798
O24	O	0.579489	0.600985	0.157499
O25	O	0.694794	0.829372	-0.076792
O26	O	0.712664	0.701136	0.152501
O27	O	0.712663	0.605856	0.152505
O28	O	0.702675	0.826088	0.024317
O29	O	0.923023	0.626177	-0.213897
O30	O	0.474441	0.692424	0.161435
O31	O	0.474443	0.813213	0.161431
O32	O	0.464453	0.817376	0.033252
O33	O	0.933012	0.501225	-0.085714
O34	O	0.933013	0.622014	-0.085719
O35	O	0.629158	0.688311	0.089893
O36	O	0.623277	0.761868	0.014434
O37	O	0.774189	0.698946	-0.066901
O38	O	0.780069	0.625389	0.008559
C39	C	0.489163	0.651636	-0.018371
C40	C	0.418037	0.649035	-0.015703
C41	C	0.381553	0.686207	-0.053839
C42	C	0.314718	0.683764	-0.051326
C43	C	0.284374	0.644145	-0.010680
C44	C	0.320862	0.606972	0.027461
C45	C	0.387691	0.609419	0.024951
C46	C	0.082743	0.634840	-0.001127
C47	C	0.015911	0.632394	0.001378
C48	C	0.009772	0.709188	-0.077408
C49	C	0.076606	0.711628	-0.079918
C50	C	0.113084	0.674457	-0.041774
C51	C	0.216060	0.641646	-0.008111
C52	C	0.181393	0.676961	-0.044338
C53	C	0.698729	0.469220	-0.026223
C54	C	0.698728	0.404708	-0.026221
C55	C	0.619956	0.407247	0.016228
C56	C	0.619955	0.346632	0.016231
C57	C	0.698730	0.283478	-0.026229
C58	C	0.777513	0.280942	-0.068680
C59	C	0.777512	0.341557	-0.068676
N60	N	0.754655	0.164992	-0.092620
N61	N	0.754650	0.107413	-0.092622
C62	C	0.698737	0.100846	-0.026243
N63	N	0.642814	0.154040	0.040139
N64	N	0.642816	0.211626	0.040140
C65	C	0.698739	0.217747	-0.026238
C66	C	0.619958	0.037661	0.016213
C67	C	0.619960	-0.022957	0.016219
C68	C	0.777520	-0.088647	-0.068700
C69	C	0.777516	-0.028029	-0.068698
C70	C	0.698732	0.035122	-0.026243
C71	C	0.908301	0.666965	-0.034091
C72	C	0.979427	0.669566	-0.036759
C73	C	0.683010	0.665851	-0.227940
C74	C	0.677674	0.668074	-0.296399
C75	C	0.698735	0.849381	-0.026238
C76	C	0.698736	0.913893	-0.026241
C77	C	0.753940	0.636275	-0.371016
C78	C	0.748921	0.638373	-0.435338
C79	C	0.667636	0.672266	-0.425039
C80	C	0.591364	0.704069	-0.350414
C81	C	0.596384	0.701975	-0.286094
C82	C	0.648538	0.680236	-0.617118
C83	C	0.643525	0.682326	-0.681445
C84	C	0.801082	0.616630	-0.766365
C85	C	0.806094	0.614536	-0.702040
C86	C	0.729823	0.646342	-0.627421
C87	C	0.662504	0.674409	-0.490785
C88	C	0.734956	0.644202	-0.561677
C89	C	0.714454	0.652750	0.175478
C90	C	0.719790	0.650527	0.243937
C91	C	0.489166	0.841717	-0.018378
C92	C	0.418041	0.903627	-0.015713
C93	C	0.504885	0.645085	0.183338
C94	C	0.439095	0.640261	0.254464
C95	C	0.504888	0.835166	0.183331
C96	C	0.439099	0.894853	0.254454
C97	C	0.892576	0.483435	-0.235793
C98	C	0.958365	0.423748	-0.306916
C99	C	0.908298	0.476884	-0.034083
C100	C	0.979423	0.414974	-0.036748
C101	C	0.892579	0.673515	-0.235800
C102	C	0.958369	0.678340	-0.306926
C103	C	0.381569	0.896863	-0.053855
C104	C	0.314748	0.955030	-0.051366
C105	C	0.284396	1.019959	-0.010731
C106	C	0.320875	1.026722	0.027411
C107	C	0.387699	0.968556	0.024918
C108	C	0.411271	0.673833	0.327259
C109	C	0.349464	0.669297	0.394095
C110	C	0.315478	0.631193	0.388135
C111	C	0.343309	0.597617	0.315333
C112	C	0.405119	0.602149	0.248498
C113	C	0.405135	0.961286	0.248465
C114	C	0.343328	1.017374	0.315287
C115	C	0.315482	1.007029	0.388097
C116	C	0.349453	0.940590	0.394084
C117	C	0.411264	0.884503	0.327263
C118	C	0.992338	0.357316	-0.300928
C119	C	1.054165	0.301228	-0.367750
C120	C	1.082014	0.311573	-0.440560
C121	C	1.048039	0.378012	-0.446547
C122	C	0.986217	0.434099	-0.379726
C123	C	1.015901	0.421738	0.001386
C124	C	1.082740	0.363573	-0.001121
C125	C	1.113094	0.298644	-0.041759
C126	C	1.076612	0.291881	-0.079898
C127	C	1.009779	0.350046	-0.077395
C128	C	0.992335	0.716450	-0.300942
C129	C	1.054143	0.720996	-0.367765
C130	C	1.081989	0.687428	-0.440573
C131	C	1.048016	0.649317	-0.446557
C132	C	0.986204	0.644775	-0.379733
H133	H	0.285012	0.714033	-0.082378
Cl134	Cl	0.300630	1.100890	0.307742
Cl135	Cl	0.541330	0.724938	-0.668494
H136	H	0.326772	0.932177	0.453375
Cl137	Cl	1.159733	0.241056	-0.524558
H138	H	0.811024	0.612480	-0.496093
H139	H	0.438910	0.830412	0.332150
Cl140	Cl	0.943509	0.517611	-0.387267
H141	H	0.969666	0.348879	-0.241648
H142	H	0.555812	-0.020884	0.050791
Cl143	Cl	1.083055	0.391006	-0.538086
H144	H	0.427797	0.969722	0.189186
H145	H	0.841660	-0.140067	-0.103272
H146	H	0.417387	0.974073	0.055982
Cl147	Cl	0.552654	0.720190	-0.523319
H148	H	0.191346	0.609388	0.024982
H149	H	1.167514	0.251288	-0.043791
Cl150	Cl	0.977760	0.503357	0.052475
Cl151	Cl	0.896959	0.576650	-0.860173
H152	H	0.406280	0.844000	-0.086954
H153	H	0.229982	1.067315	-0.008706
Cl154	Cl	1.096861	0.217712	-0.360205
Cl155	Cl	0.943519	0.596854	-0.387271
H156	H	-0.008791	0.600128	0.034476
Cl157	Cl	0.433555	0.562688	0.072898
H158	H	0.112434	0.604576	0.029935
H159	H	0.427765	0.574812	0.189228
Cl160	Cl	0.237775	1.077547	0.472094
Cl161	Cl	0.957342	0.758657	-0.209419
H162	H	0.841661	-0.030100	-0.103269
H163	H	0.296146	0.574717	0.060560
H164	H	1.112432	0.369093	0.029940
Cl165	Cl	1.114778	0.210250	-0.130978
Cl166	Cl	0.963923	0.341529	-0.125335
H167	H	0.820131	0.608671	-0.379411
H168	H	1.081798	0.752029	-0.362879
Cl169	Cl	0.489177	0.746679	-0.337467
Cl170	Cl	0.282704	1.108352	0.078497
H171	H	0.596321	0.702005	-0.482407
Cl172	Cl	0.520914	0.486634	0.069605
Cl173	Cl	0.453981	0.721742	0.334772
H174	H	0.326812	0.696642	0.453367
H175	H	0.555808	0.089082	0.050798
H176	H	0.534280	0.727869	-0.225337
H177	H	1.132320	0.691132	-0.494979
Cl178	Cl	1.083039	0.607114	-0.538093
Cl179	Cl	0.219539	0.726768	-0.095432
Cl180	Cl	0.520918	0.349819	0.069595
H181	H	0.406258	0.718466	-0.086941
H182	H	0.101311	0.743889	-0.113015
H183	H	0.841652	0.229518	-0.103251
Cl184	Cl	-0.036094	0.755916	-0.125354
H185	H	0.285055	0.949510	-0.082427
Cl186	Cl	0.908285	0.571892	-0.714994
Cl187	Cl	0.237772	0.625504	0.472165
H188	H	0.841660	0.339484	-0.103241
H189	H	0.801138	0.616610	-0.570059
H190	H	0.315629	0.566593	0.310492
