data_functionalizedCrystal
_audit_creation_method	'MofGen! by Chris Wilmer'
_symmetry_space_group_name_H-M	'P1'
_symmetry_Int_Tables_number	1
_symmetry_cell_setting	triclinic
loop_
_symmetry_equiv_pos_as_xyz
  x,y,z
_cell_length_a	18.215407
_cell_length_b	16.625545
_cell_length_c	18.215399
_cell_angle_alpha	89.975452
_cell_angle_beta	90.017368
_cell_angle_gamma	89.975606
loop_
_atom_site_label
_atom_site_type_symbol
_atom_site_fract_x
_atom_site_fract_y
_atom_site_fract_z
Zn1	Zn	1.125061	0.321065	0.416085
Zn2	Zn	1.625061	0.821065	0.916085
Zn3	Zn	1.124965	0.455905	0.293026
Zn4	Zn	1.624965	0.955905	0.793026
Zn5	Zn	1.001994	0.321084	0.293038
Zn6	Zn	1.501994	0.821084	0.793038
Zn7	Zn	1.001955	0.455853	0.416056
Zn8	Zn	1.501955	0.955853	0.916056
O9	O	1.063494	0.388477	0.354551
O10	O	1.563494	0.888477	0.854551
O11	O	1.228033	0.338965	0.399768
O12	O	1.728033	0.838965	0.899768
O13	O	1.108629	0.438051	0.190043
O14	O	1.608629	0.938051	0.690043
O15	O	1.018375	0.208249	0.309377
O16	O	1.518375	0.708249	0.809377
O17	O	1.227962	0.438032	0.309357
O18	O	1.727962	0.938032	0.809357
O19	O	1.108793	0.208235	0.399779
O20	O	1.608793	0.708235	0.899779
O21	O	1.018282	0.338998	0.190052
O22	O	1.518282	0.838998	0.690052
O23	O	0.899005	0.338948	0.309349
O24	O	1.399005	0.838948	0.809349
O25	O	1.018310	0.437943	0.519044
O26	O	1.518310	0.937943	1.019044
O27	O	0.898976	0.437962	0.399730
O28	O	1.398976	0.937962	0.899730
O29	O	1.108755	0.338915	0.519065
O30	O	1.608755	0.838915	1.019065
O31	O	1.108591	0.568731	0.309329
O32	O	1.608591	1.068731	0.809329
O33	O	1.018217	0.568693	0.399719
O34	O	1.518217	1.068693	0.899719
C35	C	0.872288	0.388452	0.354538
C36	C	1.372288	0.888452	0.854538
C37	C	0.790489	0.388461	0.354550
C38	C	1.290489	0.888461	0.854550
C39	C	0.602331	0.336983	0.401701
C40	C	1.102331	0.836983	0.901701
C41	C	0.525472	0.336990	0.401704
C42	C	1.025472	0.836990	0.901704
C43	C	0.525409	0.439993	0.307414
C44	C	1.025409	0.939993	0.807414
C45	C	0.602267	0.439982	0.307408
C46	C	1.102267	0.939982	0.807408
C47	C	0.640725	0.388478	0.354556
C48	C	1.140725	0.888478	0.854556
C49	C	0.487009	0.388496	0.354564
C50	C	0.987009	0.888496	0.854564
C51	C	0.403676	0.388504	0.354567
C52	C	0.903676	0.888504	0.854567
C53	C	0.724064	0.388469	0.354553
C54	C	1.224064	0.888469	0.854553
C55	C	1.063409	0.597968	0.354536
C56	C	1.563409	1.097968	0.854536
C57	C	1.063441	0.687589	0.354554
C58	C	1.563441	1.187589	0.854554
C59	C	1.063467	0.760371	0.354571
C60	C	1.563467	1.260371	0.854571
C61	C	1.063508	0.851680	0.354591
C62	C	1.563508	1.351680	0.854591
C63	C	1.063545	0.924456	0.354603
C64	C	1.563545	1.424456	0.854603
C65	C	1.063585	1.015770	0.354621
C66	C	1.563585	1.515770	0.854621
C67	C	1.255447	0.388502	0.354564
C68	C	1.755447	0.888502	0.854564
C69	C	1.337246	0.388513	0.354570
C70	C	1.837246	0.888513	0.854570
C71	C	1.063539	0.388421	0.546504
C72	C	1.563539	0.888421	1.046504
C73	C	1.063558	0.388398	0.628303
C74	C	1.563558	0.888398	1.128303
C75	C	1.063593	1.178168	0.354592
C76	C	1.563593	1.678168	0.854592
C77	C	1.063622	1.088547	0.354633
C78	C	1.563622	1.588547	0.854633
C79	C	1.063492	0.388474	0.163345
C80	C	1.563492	0.888474	0.663345
C81	C	1.063615	0.388271	0.081546
C82	C	1.563615	0.888271	0.581546
C83	C	1.110670	0.336785	0.816509
C84	C	1.610670	0.836785	1.316509
C85	C	1.110679	0.336762	0.893368
C86	C	1.610679	0.836762	1.393368
C87	C	1.016498	0.439885	0.893335
C88	C	1.516498	0.939885	1.393335
C89	C	1.016486	0.439904	0.816477
C90	C	1.516486	0.939904	1.316477
C91	C	1.063576	0.388355	0.778067
C92	C	1.563576	0.888355	1.278067
C93	C	1.063597	0.388313	0.931783
C94	C	1.563597	0.888313	1.431783
C95	C	1.063606	0.388288	1.015116
C96	C	1.563606	0.888288	1.515116
C97	C	1.063566	0.388379	0.694728
C98	C	1.563566	0.888379	1.194728
H99	H	0.633641	0.295043	0.440090
H100	H	1.133641	0.795043	0.940090
O101	O	0.639601	0.489893	0.261532
O102	O	1.139601	0.989893	0.761532
C103	C	0.684067	0.443914	0.214080
C104	C	1.184067	0.943914	0.714080
H105	H	0.660917	0.380408	0.209632
H106	H	1.160917	0.880408	0.709632
H107	H	0.684914	0.472999	0.157400
H108	H	1.184914	0.972999	0.657400
H109	H	0.742324	0.441155	0.236837
H110	H	1.242324	0.941155	0.736837
O111	O	1.156327	0.286591	0.779231
O112	O	1.656327	0.786591	1.279231
C113	C	1.140291	0.206226	0.798041
C114	C	1.640291	0.706226	1.298041
H115	H	1.081503	0.202149	0.819159
H116	H	1.581503	0.702149	1.319159
H117	H	1.146641	0.166401	0.747507
H118	H	1.646641	0.666401	1.247507
H119	H	1.179761	0.185142	0.842665
H120	H	1.679761	0.685142	1.342665
O121	O	0.970799	0.490074	0.930568
O122	O	1.470799	0.990074	1.430568
C123	C	0.986855	0.570442	0.911788
C124	C	1.486855	1.070442	1.411788
H125	H	1.015134	0.572129	0.855987
H126	H	1.515134	1.072129	1.355987
H127	H	0.933725	0.606594	0.909145
H128	H	1.433725	1.106594	1.409145
H129	H	1.024687	0.597592	0.955043
H130	H	1.524687	1.097592	1.455043
H131	H	1.149026	0.294767	0.924665
H132	H	1.649026	0.794767	1.424665
H133	H	0.978132	0.481898	0.785176
H134	H	1.478132	0.981898	1.285176
H135	H	0.494214	0.295057	0.440093
H136	H	0.994214	0.795057	0.940093
H137	H	0.494087	0.481927	0.269028
H138	H	0.994087	0.981927	0.769028
