data_functionalizedCrystal
_audit_creation_method	'MofGen! by Chris Wilmer'
_symmetry_space_group_name_H-M	'P1'
_symmetry_Int_Tables_number	1
_symmetry_cell_setting	triclinic
loop_
_symmetry_equiv_pos_as_xyz
  x,y,z
_cell_length_a	19.288864
_cell_length_b	19.188930
_cell_length_c	17.766277
_cell_angle_alpha	89.988508
_cell_angle_beta	89.976791
_cell_angle_gamma	83.140512
loop_
_atom_site_label
_atom_site_type_symbol
_atom_site_fract_x
_atom_site_fract_y
_atom_site_fract_z
O1	O	0.921360	0.087099	-0.062844
O2	O	0.719100	0.098849	-0.062794
O3	O	0.826066	-0.008682	-0.062806
O4	O	0.814393	0.194630	-0.062832
O5	O	0.826048	-0.008688	0.062383
O6	O	0.719081	0.098843	0.062395
O7	O	0.921341	0.087094	0.062345
Cu8	Cu	0.820209	0.092968	0.073800
Cu9	Cu	0.820231	0.092974	-0.074250
O10	O	0.814374	0.194625	0.062356
C11	C	0.693214	0.098468	-0.000193
C12	C	0.616110	0.097333	-0.000173
C13	C	0.571419	0.160427	-0.000193
C14	C	0.498972	0.159361	-0.000201
C15	C	0.471219	0.095197	-0.000204
C16	C	0.515921	0.032095	-0.000180
C17	C	0.588366	0.033163	-0.000164
C18	C	0.362960	0.044759	-0.044082
C19	C	0.290515	0.043694	-0.044103
C20	C	0.247773	0.091900	-0.000249
C21	C	0.277483	0.141184	0.043614
C22	C	0.349929	0.142252	0.043630
C23	C	0.392665	0.094032	-0.000221
C24	C	0.124526	0.153843	-0.000277
C25	C	0.052078	0.152774	-0.000281
C26	C	0.069028	0.025506	-0.000267
C27	C	0.141475	0.026576	-0.000256
C28	C	0.169219	0.090747	-0.000265
C29	C	0.825679	-0.034696	-0.000209
C30	C	0.824544	-0.112200	-0.000202
C31	C	0.887309	-0.157129	-0.000214
C32	C	0.886243	-0.229953	-0.000226
C33	C	0.822408	-0.257844	-0.000211
C34	C	0.759636	-0.212906	-0.000203
C35	C	0.760704	-0.140084	-0.000199
N36	N	0.773608	-0.365848	0.042405
N37	N	0.772598	-0.435026	0.042403
C38	C	0.819187	-0.477253	-0.000225
N39	N	0.866835	-0.447689	-0.042841
N40	N	0.867847	-0.378504	-0.042836
C41	C	0.821243	-0.336807	-0.000216
C42	C	0.880800	-0.601146	-0.000251
C43	C	0.879731	-0.673971	-0.000268
C44	C	0.753122	-0.656922	-0.000237
C45	C	0.754193	-0.584099	-0.000228
C46	C	0.818034	-0.556216	-0.000231
C47	C	0.947227	0.087475	-0.000258
C48	C	1.024330	0.088609	-0.000283
C49	C	0.814762	0.220638	-0.000242
C50	C	0.815896	0.298143	-0.000253
N51	N	0.820199	0.092963	0.177931
N52	N	0.820247	0.092974	-0.178380
C53	C	0.867579	0.045372	0.217312
C54	C	0.867583	0.045368	0.296114
C55	C	0.820213	0.092969	0.335531
C56	C	0.772824	0.140564	0.296140
C57	C	0.772817	0.140561	0.217340
C58	C	0.810919	0.156585	0.460362
C59	C	0.810931	0.156589	0.539161
C60	C	0.820232	0.092977	0.578578
C61	C	0.829535	0.029359	0.539185
C62	C	0.829528	0.029356	0.460385
C63	C	0.820216	0.092977	0.420977
C64	C	0.867619	0.045378	0.703405
C65	C	0.867618	0.045374	0.782208
C66	C	0.772863	0.140575	0.782233
C67	C	0.772861	0.140573	0.703431
C68	C	0.820242	0.092976	0.664022
H69	H	0.493320	-0.020148	-0.000193
N70	N	0.839571	-0.039258	0.581686
H71	H	0.838161	-0.029606	0.637582
H72	H	0.801046	-0.068238	0.567937
N73	N	0.409058	-0.007237	-0.091386
H74	H	0.443090	-0.036784	-0.057782
H75	H	0.379195	-0.038567	-0.119173
N76	N	0.003892	0.220843	-0.000258
H77	H	0.012812	0.248866	-0.046656
H78	H	-0.046200	0.210396	-0.000220
N79	N	0.953942	-0.278421	-0.000223
H80	H	0.943577	-0.328785	-0.000222
H81	H	0.981790	-0.269411	-0.046633
N82	N	0.636575	-0.034892	-0.000139
H83	H	0.608004	-0.075703	-0.000139
H84	H	0.667027	-0.037220	-0.046542
N85	N	0.690789	-0.242991	-0.000181
H86	H	0.663293	-0.226600	0.046233
H87	H	0.663361	-0.226578	-0.046612
H88	H	0.930844	-0.710552	-0.000281
N89	N	0.154454	0.223052	-0.000272
H90	H	0.207130	0.214155	-0.000264
H91	H	0.138113	0.250656	-0.046685
N92	N	0.721710	0.191891	0.174858
H93	H	0.691698	0.222044	0.211783
H94	H	0.748200	0.222691	0.142141
N95	N	0.684271	-0.686994	-0.000229
H96	H	0.693117	-0.739945	-0.000236
H97	H	0.656805	-0.670555	0.046187
H98	H	0.939293	-0.134431	-0.000220
N99	N	0.231400	0.193180	0.090928
H100	H	0.237472	0.242493	0.074553
H101	H	0.181018	0.184966	0.084255
H102	H	0.734254	0.179319	0.328238
H103	H	0.906158	0.006613	0.185228
H104	H	0.932783	-0.578442	-0.000257
N105	N	0.381975	0.195401	0.090939
H106	H	0.343911	0.225780	0.118719
H107	H	0.415434	0.170145	0.128408
N108	N	0.918686	-0.005966	0.338603
H109	H	0.948699	-0.036119	0.301680
H110	H	0.949307	0.020693	0.371273
N111	N	0.450760	0.227417	-0.000226
H112	H	0.459690	0.255418	-0.046638
H113	H	0.400677	0.216945	-0.000208
H114	H	0.703083	-0.547517	-0.000214
H115	H	0.837101	-0.022444	0.428315
N116	N	0.039107	-0.043702	-0.000262
H117	H	-0.013570	-0.034806	-0.000273
H118	H	0.055494	-0.071302	-0.046665
N119	N	0.189677	-0.041480	-0.000237
H120	H	0.180800	-0.069483	-0.046644
H121	H	0.239763	-0.031013	-0.000197
N122	N	0.601343	0.229636	-0.000208
H123	H	0.562033	0.269445	-0.000223
H124	H	0.631007	0.232857	0.046206
H125	H	0.266331	0.003566	-0.079822
N126	N	0.693005	-0.091619	-0.000186
H127	H	0.652402	-0.120336	-0.000181
H128	H	0.690683	-0.061046	0.046227
N129	N	0.918718	-0.005958	0.660892
H130	H	0.948731	-0.036112	0.697801
H131	H	0.892221	-0.036756	0.628217
H132	H	0.906199	0.006616	0.814274
H133	H	0.734291	0.179330	0.814326
N134	N	0.721756	0.191909	0.660957
H135	H	0.729602	0.241444	0.674653
H136	H	0.728960	0.184626	0.605069
N137	N	0.800894	0.225201	0.581646
H138	H	0.794989	0.265498	0.544720
H139	H	0.757905	0.226763	0.614361
N140	N	0.800889	0.225200	0.417852
H141	H	0.795005	0.265500	0.454762
H142	H	0.843070	0.229163	0.385135
