data_functionalizedCrystal
_audit_creation_method	'MofGen! by Chris Wilmer'
_symmetry_space_group_name_H-M	'P1'
_symmetry_Int_Tables_number	1
_symmetry_cell_setting	triclinic
loop_
_symmetry_equiv_pos_as_xyz
  x,y,z
_cell_length_a	12.759401
_cell_length_b	12.759400
_cell_length_c	19.805399
_cell_angle_alpha	90.022119
_cell_angle_beta	90.016625
_cell_angle_gamma	90.012280
loop_
_atom_site_label
_atom_site_type_symbol
_atom_site_fract_x
_atom_site_fract_y
_atom_site_fract_z
Zn1	Zn	1.606235	-0.418315	0.382692
Zn2	Zn	1.606143	-0.594009	0.269515
Zn3	Zn	1.430546	-0.418342	0.269523
Zn4	Zn	1.430530	-0.593950	0.382667
O5	O	1.518364	-0.506154	0.326099
O6	O	1.753244	-0.441635	0.367686
O7	O	1.582818	-0.570742	0.174799
O8	O	1.453897	-0.271317	0.284548
O9	O	1.753176	-0.570716	0.284535
O10	O	1.582974	-0.271298	0.367694
O11	O	1.453808	-0.441680	0.174805
O12	O	1.283523	-0.441623	0.284524
O13	O	1.453869	-0.570616	0.477387
O14	O	1.283511	-0.570642	0.367651
O15	O	1.582959	-0.441578	0.477405
O16	O	1.582803	-0.741022	0.284511
O17	O	1.453781	-0.740979	0.367644
C18	C	1.245396	-0.506130	0.326086
C19	C	1.128620	-0.506145	0.326097
C20	C	1.073733	-0.438876	0.282892
C21	C	0.964009	-0.438901	0.282901
C22	C	0.964068	-0.573466	0.369325
C23	C	1.073790	-0.573445	0.369312
C24	C	1.128563	-0.371575	0.239677
C25	C	1.073676	-0.304300	0.196470
C26	C	0.963952	-0.304325	0.196478
C27	C	0.909114	-0.371625	0.239694
C28	C	1.518309	-0.779121	0.326088
C29	C	1.518381	-0.895898	0.326106
C30	C	1.585558	-0.950670	0.369436
C31	C	1.585607	-1.060394	0.369452
C32	C	1.451299	-1.060564	0.282804
C33	C	1.451245	-0.950842	0.282792
C34	C	1.652694	-0.895726	0.412750
C35	C	1.719877	-0.950499	0.456082
C36	C	1.719926	-1.060223	0.456099
C37	C	1.652792	-1.115174	0.412783
C38	C	1.792397	-0.506179	0.326112
C39	C	1.909174	-0.506190	0.326118
C40	C	1.518423	-0.506088	0.502642
C41	C	1.518448	-0.506060	0.577874
C42	C	1.518448	-0.232121	0.326125
C43	C	1.518483	-0.115344	0.326136
C44	C	1.518365	-0.506144	0.150243
C45	C	1.518544	-0.505876	0.075012
C46	C	1.585666	-0.438866	0.613229
C47	C	1.585677	-0.438836	0.683917
C48	C	1.518474	-0.506005	0.719250
C49	C	1.451248	-0.573201	0.683890
C50	C	1.451233	-0.573226	0.613203
C51	C	1.451307	-0.573103	0.968963
C52	C	1.451330	-0.573076	1.039655
C53	C	1.585751	-0.438713	1.039678
C54	C	1.585736	-0.438738	0.968991
C55	C	1.518507	-0.505930	0.933637
C56	C	1.518495	-0.505961	0.856989
C57	C	1.518491	-0.505980	0.795897
H58	H	0.919266	-0.249554	0.161292
C59	C	1.793719	-0.890050	0.503728
N60	N	1.849338	-0.844521	0.539616
H61	H	0.819770	-0.371645	0.239695
H62	H	1.396543	-0.906246	0.247510
C63	C	0.903743	-0.647483	0.416864
N64	N	0.858306	-0.703230	0.452674
C65	C	1.249261	-0.371544	0.239662
N66	N	1.340171	-0.371521	0.239652
H67	H	1.118480	-0.628220	0.404494
H68	H	1.774622	-1.104815	0.491387
C69	C	1.652844	-1.235875	0.412808
N70	N	1.652886	-1.326785	0.412825
H71	H	1.640463	-0.384045	0.940226
H72	H	1.652664	-0.806383	0.412740
C73	C	1.377504	-1.121015	0.235130
N74	N	1.321939	-1.166547	0.199209
H75	H	1.118331	-0.249514	0.161281
H76	H	1.396526	-0.627888	0.712663
C77	C	1.659595	-0.364973	0.574370
N78	N	1.715277	-0.309310	0.545103
H79	H	1.640415	-0.384123	0.712700
C80	C	1.659693	-0.364787	1.078573
N81	N	1.715383	-0.309107	1.107868
H82	H	1.396601	-0.627775	1.068421
C83	C	1.377350	-0.647013	0.930084
N84	N	1.321639	-0.702684	0.900797
H85	H	1.396486	-0.627931	0.584418
