data_functionalizedCrystal
_audit_creation_method	'MofGen! by Chris Wilmer'
_symmetry_space_group_name_H-M	'P1'
_symmetry_Int_Tables_number	1
_symmetry_cell_setting	triclinic
loop_
_symmetry_equiv_pos_as_xyz
  x,y,z
_cell_length_a	19.805407
_cell_length_b	19.121063
_cell_length_c	19.805398
_cell_angle_alpha	92.409806
_cell_angle_beta	89.986879
_cell_angle_gamma	92.469032
loop_
_atom_site_label
_atom_site_type_symbol
_atom_site_fract_x
_atom_site_fract_y
_atom_site_fract_z
Zn1	Zn	1.023190	-0.279623	-0.394203
Zn2	Zn	1.356523	0.053710	-0.060869
Zn3	Zn	1.689856	0.387043	0.272464
Zn4	Zn	1.018285	-0.397078	-0.285838
Zn5	Zn	1.351619	-0.063744	0.047496
Zn6	Zn	1.684952	0.269589	0.380829
Zn7	Zn	0.910016	-0.279645	-0.281028
Zn8	Zn	1.243349	0.053689	0.052305
Zn9	Zn	1.576683	0.387022	0.385639
Zn10	Zn	0.905138	-0.397038	-0.398983
Zn11	Zn	1.238471	-0.063705	-0.065649
Zn12	Zn	1.571804	0.269628	0.267684
O13	O	0.964157	-0.338346	-0.340013
O14	O	1.297491	-0.005013	-0.006679
O15	O	1.630824	0.328321	0.326654
O16	O	1.117255	-0.295211	-0.379840
O17	O	1.450589	0.038122	-0.046507
O18	O	1.783922	0.371455	0.286827
O19	O	1.003913	-0.381526	-0.190484
O20	O	1.337246	-0.048192	0.142849
O21	O	1.670579	0.285141	0.476183
O22	O	0.929123	-0.181357	-0.292027
O23	O	1.262456	0.151976	0.041306
O24	O	1.595790	0.485309	0.374639
O25	O	1.113652	-0.381505	-0.300225
O26	O	1.446986	-0.048171	0.033109
O27	O	1.780319	0.285162	0.366442
O28	O	1.012271	-0.181342	-0.375176
O29	O	1.345604	0.151992	-0.041843
O30	O	1.678938	0.485325	0.291490
O31	O	0.924368	-0.295248	-0.186950
O32	O	1.257701	0.038085	0.146383
O33	O	1.591034	0.371419	0.479716
O34	O	0.814653	-0.295210	-0.296663
O35	O	1.147986	0.038124	0.036671
O36	O	1.481319	0.371457	0.370004
O37	O	0.920808	-0.381437	-0.493064
O38	O	1.254142	-0.048104	-0.159731
O39	O	1.587475	0.285229	0.173602
O40	O	0.811069	-0.381458	-0.383323
O41	O	1.144402	-0.048125	-0.049990
O42	O	1.477735	0.285208	0.283343
O43	O	1.007541	-0.295173	-0.489552
O44	O	1.340874	0.038160	-0.156219
O45	O	1.674207	0.371493	0.177114
O46	O	0.999182	-0.495357	-0.304860
O47	O	1.332515	-0.162024	0.028473
O48	O	1.665849	0.171309	0.361807
O49	O	0.916053	-0.495328	-0.387987
O50	O	1.249386	-0.161995	-0.054654
O51	O	1.582720	0.171338	0.278680
C52	C	0.788302	-0.338333	-0.339990
C53	C	1.121635	-0.004999	-0.006657
C54	C	1.454968	0.328334	0.326676
C55	C	0.713069	-0.338344	-0.339997
C56	C	1.046403	-0.005010	-0.006664
C57	C	1.379736	0.328323	0.326669
C58	C	0.675874	-0.383321	-0.385054
C59	C	1.009207	-0.049988	-0.051721
C60	C	1.342540	0.283346	0.281612
C61	C	0.605185	-0.383322	-0.385064
C62	C	0.938519	-0.049989	-0.051731
C63	C	1.271852	0.283344	0.281603
C64	C	0.571694	-0.338349	-0.340013
C65	C	0.905027	-0.005016	-0.006679
C66	C	1.238360	0.328317	0.326654
C67	C	0.608894	-0.293367	-0.294954
C68	C	0.942228	0.039966	0.038380
C69	C	1.275561	0.373300	0.371713
C70	C	0.679582	-0.293363	-0.294948
C71	C	1.012915	0.039970	0.038385
C72	C	1.346248	0.373304	0.371719
C73	C	0.323820	-0.293383	-0.294977
C74	C	0.657154	0.039951	0.038357
C75	C	0.990487	0.373284	0.371690
C76	C	0.253128	-0.293392	-0.294985
C77	C	0.586461	0.039941	0.038349
C78	C	0.919794	0.373275	0.371682
C79	C	0.249424	-0.383342	-0.385093
C80	C	0.582757	-0.050009	-0.051759
C81	C	0.916091	0.283325	0.281574
C82	C	0.320111	-0.383338	-0.385087
C83	C	0.653445	-0.050004	-0.051754
C84	C	0.986778	0.283329	0.281580
C85	C	0.357306	-0.338353	-0.340031
C86	C	0.690639	-0.005020	-0.006697
C87	C	1.023973	0.328313	0.326636
C88	C	0.433954	-0.338352	-0.340022
C89	C	0.767288	-0.005018	-0.006688
C90	C	1.100621	0.328315	0.326645
C91	C	0.495046	-0.338354	-0.340018
C92	C	0.828380	-0.005021	-0.006685
C93	C	1.161713	0.328313	0.326649
C94	C	0.956574	-0.520827	-0.347479
C95	C	1.289908	-0.187493	-0.014146
C96	C	1.623241	0.145840	0.319188
C97	C	0.953392	-0.598893	-0.350696
C98	C	1.286726	-0.265560	-0.017362
C99	C	1.620059	0.067774	0.315971
C100	C	0.995212	-0.635560	-0.308963
C101	C	1.328545	-0.302227	0.024371
C102	C	1.661879	0.031106	0.357704
C103	C	0.992223	-0.708912	-0.311992
C104	C	1.325556	-0.375578	0.021341
C105	C	1.658890	-0.042245	0.354675
C106	C	0.947411	-0.745594	-0.356751
C107	C	1.280744	-0.412261	-0.023418
C108	C	1.614078	-0.078928	0.309915
C109	C	0.905590	-0.708922	-0.398489
C110	C	1.238923	-0.375588	-0.065155
C111	C	1.572256	-0.042255	0.268178
C112	C	0.908582	-0.635572	-0.395462
C113	C	1.241916	-0.302238	-0.062129
C114	C	1.575249	0.031095	0.271204
C115	C	0.936211	-0.967064	-0.368055
C116	C	1.269545	-0.633731	-0.034722
C117	C	1.602878	-0.300397	0.298611
C118	C	0.933220	-1.040419	-0.371077
C119	C	1.266554	-0.707086	-0.037744
C120	C	1.599887	-0.373753	0.295589
C121	C	1.019855	-1.040404	-0.284581
C122	C	1.353189	-0.707071	0.048752
C123	C	1.686522	-0.373737	0.382085
C124	C	1.022841	-0.967053	-0.281556
C125	C	1.356174	-0.633719	0.051777
C126	C	1.689508	-0.300386	0.385111
C127	C	0.981022	-0.930387	-0.323296
C128	C	1.314356	-0.597053	0.010038
C129	C	1.647689	-0.263720	0.343371
C130	C	0.944353	-0.820571	-0.359847
C131	C	1.277687	-0.487238	-0.026514
C132	C	1.611020	-0.153904	0.306819
C133	C	0.984084	-0.855411	-0.320203
C134	C	1.317417	-0.522078	0.013131
C135	C	1.650750	-0.188744	0.346464
C136	C	1.140699	-0.338360	-0.340036
C137	C	1.474033	-0.005027	-0.006702
C138	C	1.807366	0.328307	0.326631
C139	C	1.215931	-0.338366	-0.340045
C140	C	1.549264	-0.005033	-0.006712
C141	C	1.882598	0.328301	0.326621
C142	C	0.964177	-0.338299	-0.516554
C143	C	1.297511	-0.004965	-0.183220
C144	C	1.630844	0.328368	0.150113
C145	C	0.964186	-0.338278	-0.591785
C146	C	1.297519	-0.004945	-0.258451
C147	C	1.630852	0.328388	0.074882
C148	C	0.971788	-0.155153	-0.332532
C149	C	1.305122	0.178181	0.000801
C150	C	1.638455	0.511514	0.334134
C151	C	0.975040	-0.077087	-0.329344
C152	C	1.308373	0.256247	0.003989
C153	C	1.641707	0.589580	0.337322
C154	C	1.005716	-0.383091	-1.055409
C155	C	1.339050	-0.049758	-0.722076
C156	C	1.672383	0.283575	-0.388742
C157	C	1.005697	-0.383110	-0.984721
C158	C	1.339030	-0.049777	-0.651388
C159	C	1.672363	0.283556	-0.318055
C160	C	0.964273	-0.338199	-0.947543
C161	C	1.297606	-0.004866	-0.614210
C162	C	1.630940	0.328468	-0.280877
C163	C	0.922861	-0.293271	-0.981057
C164	C	1.256195	0.040062	-0.647724
C165	C	1.589528	0.373396	-0.314390
C166	C	0.922878	-0.293256	-1.051744
C167	C	1.256211	0.040077	-0.718410
C168	C	1.589544	0.373411	-0.385077
C169	C	0.922793	-0.293331	-0.695986
C170	C	1.256127	0.040002	-0.362653
C171	C	1.589460	0.373336	-0.029319
C172	C	0.922782	-0.293348	-0.625295
C173	C	1.256115	0.039985	-0.291961
C174	C	1.589448	0.373319	0.041372
C175	C	1.005612	-0.383186	-0.628964
C176	C	1.338946	-0.049852	-0.295630
C177	C	1.672279	0.283481	0.037703
C178	C	1.005629	-0.383171	-0.699650
C179	C	1.338962	-0.049837	-0.366317
C180	C	1.672296	0.283496	-0.032984
C181	C	0.964215	-0.338245	-0.733158
C182	C	1.297548	-0.004912	-0.399824
C183	C	1.630881	0.328421	-0.066491
C184	C	0.964235	-0.338226	-0.809806
C185	C	1.297569	-0.004893	-0.476472
C186	C	1.630902	0.328441	-0.143139
C187	C	0.964256	-0.338214	-0.870897
C188	C	1.297589	-0.004881	-0.537564
C189	C	1.630922	0.328452	-0.204230
C190	C	0.964178	-0.338343	-0.164157
C191	C	1.297512	-0.005009	0.169177
C192	C	1.630845	0.328324	0.502510
C193	C	0.964309	-0.338165	-0.088918
C194	C	1.297642	-0.004832	0.244416
C195	C	1.630976	0.328502	0.577749
H196	H	0.225861	-0.256765	-0.258298
H197	H	0.559194	0.076568	0.075035
H198	H	0.892528	0.409902	0.408368
Cl199	Cl	1.040420	-0.809295	-0.263939
Cl200	Cl	1.373753	-0.475961	0.069395
Cl201	Cl	1.707086	-0.142628	0.402728
H202	H	1.039406	-0.419702	-0.957442
H203	H	1.372739	-0.086369	-0.624109
H204	H	1.706073	0.246964	-0.290775
H205	H	0.889130	-0.256707	-0.950781
H206	H	1.222464	0.076627	-0.617448
H207	H	1.555797	0.409960	-0.284115
Cl208	Cl	1.079188	-0.920943	-0.225294
Cl209	Cl	1.412522	-0.587609	0.108039
Cl210	Cl	1.745855	-0.254276	0.441372
H211	H	0.896737	-1.070284	-0.407537
H212	H	1.230070	-0.736951	-0.074204
H213	H	1.563404	-0.403618	0.259129
Cl214	Cl	0.870701	-0.236885	-0.578557
Cl215	Cl	1.204035	0.096449	-0.245224
Cl216	Cl	1.537368	0.429782	0.088109
H217	H	0.574904	-0.419948	-0.421753
H218	H	0.908237	-0.086615	-0.088420
H219	H	1.241570	0.246719	0.244913
H220	H	1.039332	-0.419768	-0.601673
H221	H	1.372665	-0.086435	-0.268340
H222	H	1.705998	0.246899	0.064993
H223	H	0.219132	-0.419968	-0.421782
H224	H	0.552465	-0.086635	-0.088449
H225	H	0.885798	0.246699	0.244884
Cl226	Cl	0.362211	-0.439880	-0.441723
Cl227	Cl	0.695545	-0.106546	-0.108389
Cl228	Cl	1.028878	0.226787	0.224944
Cl229	Cl	1.057707	-0.439632	-0.746384
Cl230	Cl	1.391040	-0.106299	-0.413051
Cl231	Cl	1.724374	0.227035	-0.079718
H232	H	0.709866	-0.256734	-0.258261
H233	H	1.043199	0.076599	0.075072
H234	H	1.376532	0.409933	0.408405
Cl235	Cl	0.870824	-0.236771	-1.093869
Cl236	Cl	1.204158	0.096562	-0.760536
Cl237	Cl	1.537491	0.429896	-0.427202
H238	H	0.354095	-0.256759	-0.258284
H239	H	0.687429	0.076574	0.075049
H240	H	1.020762	0.409908	0.408383
Cl241	Cl	1.057799	-0.439551	-1.102140
Cl242	Cl	1.391132	-0.106217	-0.768806
Cl243	Cl	1.724466	0.227116	-0.435473
Cl244	Cl	1.051546	-0.589452	-0.252687
Cl245	Cl	1.384879	-0.256119	0.080647
Cl246	Cl	1.718213	0.077215	0.413980
Cl247	Cl	0.717971	-0.439865	-0.441691
Cl248	Cl	1.051304	-0.106532	-0.108357
Cl249	Cl	1.384637	0.226801	0.224976
Cl250	Cl	0.566790	-0.236825	-0.238322
Cl251	Cl	0.900124	0.096509	0.095012
Cl252	Cl	1.233457	0.429842	0.428345
H253	H	1.026277	-0.738763	-0.278008
H254	H	1.359610	-0.405430	0.055325
H255	H	1.692943	-0.072096	0.388658
Cl256	Cl	1.072428	-1.086503	-0.232116
Cl257	Cl	1.405762	-0.753169	0.101217
Cl258	Cl	1.739095	-0.419836	0.434550
Cl259	Cl	0.883637	-0.920979	-0.420528
Cl260	Cl	1.216971	-0.587646	-0.087194
Cl261	Cl	1.550304	-0.254313	0.246139
Cl262	Cl	0.856009	-0.589475	-0.447931
Cl263	Cl	1.189342	-0.256142	-0.114598
Cl264	Cl	1.522676	0.077191	0.218736
Cl265	Cl	0.849258	-0.755037	-0.454762
Cl266	Cl	1.182591	-0.421704	-0.121428
Cl267	Cl	1.515924	-0.088370	0.211905
Cl268	Cl	0.888019	-0.866692	-0.416114
Cl269	Cl	1.221352	-0.533359	-0.082780
Cl270	Cl	1.554686	-0.200026	0.250553
H271	H	0.889070	-0.256751	-0.723259
H272	H	1.222404	0.076582	-0.389926
H273	H	1.555737	0.409916	-0.056593
