data_functionalizedCrystal
_audit_creation_method	'MofGen! by Chris Wilmer'
_symmetry_space_group_name_H-M	'P1'
_symmetry_Int_Tables_number	1
_symmetry_cell_setting	triclinic
loop_
_symmetry_equiv_pos_as_xyz
  x,y,z
_cell_length_a	10.540539
_cell_length_b	10.540539
_cell_length_c	9.016244
_cell_angle_alpha	89.999933
_cell_angle_beta	89.994699
_cell_angle_gamma	84.525492
loop_
_atom_site_label
_atom_site_type_symbol
_atom_site_fract_x
_atom_site_fract_y
_atom_site_fract_z
O1	O	1.685893	0.178895	-0.123263
O2	O	1.316480	0.195751	-0.123280
O3	O	1.509614	0.002617	-0.123269
O4	O	1.492759	0.372030	-0.123274
O5	O	1.509586	0.002621	0.123411
O6	O	1.316452	0.195755	0.123400
O7	O	1.685865	0.178900	0.123418
Cu8	Cu	1.501156	0.187328	0.145933
Cu9	Cu	1.501189	0.187323	-0.145795
O10	O	1.492730	0.372034	0.123407
C11	C	1.269163	0.194489	0.000058
C12	C	1.128215	0.190707	0.000051
C13	C	1.508336	-0.044684	0.000068
C14	C	1.504554	-0.185632	0.000060
C15	C	0.944788	0.045790	0.000628
C16	C	1.091406	0.049624	0.000057
C17	C	1.066558	0.258600	-0.140811
C18	C	0.920014	0.253785	-0.140914
C19	C	0.919493	0.256660	0.139608
C20	C	1.066475	0.257960	0.141455
C21	C	1.359637	-0.369059	-0.000500
C22	C	1.363471	-0.222441	0.000055
C23	C	1.572434	-0.247287	0.140930
C24	C	1.567619	-0.393832	0.141049
C25	C	1.570520	-0.394355	-0.139473
C26	C	1.571820	-0.247373	-0.141336
C27	C	1.733182	0.180161	0.000077
C28	C	1.874130	0.183943	0.000074
C29	C	1.494008	0.419335	0.000066
C30	C	1.497790	0.560283	0.000064
N31	N	1.501141	0.187331	0.351119
N32	N	1.501213	0.187310	-0.350982
C33	C	1.397510	0.290298	0.586146
C34	C	1.397739	0.290684	0.414255
C35	C	1.633864	0.217464	0.413464
C36	C	1.633298	0.218193	0.585409
C37	C	1.473367	0.053892	0.585663
C38	C	1.470322	0.054757	0.413709
H39	H	1.134008	-0.003797	0.101034
H40	H	1.522153	-0.206517	-0.245547
H41	H	1.548979	-0.022762	0.626319
H42	H	1.672424	-0.441581	-0.140416
C43	C	1.421374	0.423263	0.644480
H44	H	1.494265	0.416286	0.706980
H45	H	1.349232	0.457948	0.699219
H46	H	1.435375	0.477581	0.563218
H47	H	1.657653	0.315531	0.625498
H48	H	1.133163	-0.004177	-0.101092
C49	C	0.881914	0.185984	-0.283147
H50	H	0.955968	0.161631	-0.340317
H51	H	0.824861	0.242175	-0.339464
H52	H	0.841431	0.112295	-0.257400
C53	C	1.565604	-0.053752	0.355679
H54	H	1.625701	-0.019469	0.292245
H55	H	1.521019	-0.113086	0.301999
H56	H	1.608906	-0.095629	0.437010
C57	C	1.124092	0.194881	-0.282433
H58	H	1.185670	0.126913	-0.256020
H59	H	1.163664	0.255863	-0.339431
H60	H	1.058426	0.162528	-0.339209
C61	C	1.099181	0.396919	0.152949
H62	H	1.060667	0.435159	0.239330
H63	H	1.068046	0.442923	0.067767
H64	H	1.189013	0.398403	0.158859
H65	H	0.872266	0.358564	0.140559
C66	C	1.264498	0.266281	0.357300
H67	H	1.264456	0.266503	0.251931
H68	H	1.203453	0.331401	0.392634
H69	H	1.243386	0.185887	0.392187
H70	H	1.304121	-0.399265	0.099949
H71	H	1.669083	-0.441800	0.147444
C72	C	1.121782	0.190957	0.282236
H73	H	1.182253	0.122288	0.254969
H74	H	1.054945	0.159174	0.337562
H75	H	1.162303	0.250079	0.341020
C76	C	1.740761	0.120813	0.641606
H77	H	1.741139	0.120595	0.746974
H78	H	1.820419	0.143464	0.606155
H79	H	1.727006	0.038297	0.606370
C80	C	0.855206	0.390846	-0.149592
H81	H	0.918474	0.449220	-0.153049
H82	H	0.803024	0.407899	-0.064655
H83	H	0.804156	0.399979	-0.236464
H84	H	1.298584	0.272446	0.627535
H85	H	1.303918	-0.397661	-0.101521
C86	C	1.499805	-0.431937	0.283281
H87	H	1.496274	-0.521656	0.284611
H88	H	1.415722	-0.390554	0.285464
H89	H	1.545599	-0.407121	0.367525
C90	C	1.290798	-0.166023	0.136702
H91	H	1.258825	-0.232726	0.192098
H92	H	1.221866	-0.107567	0.105295
H93	H	1.346887	-0.122985	0.197040
C94	C	1.291300	-0.164881	-0.136345
H95	H	1.259364	-0.231100	-0.192593
H96	H	1.347632	-0.121482	-0.195946
H97	H	1.222349	-0.106565	-0.104635
C98	C	0.876864	0.194987	0.283850
H99	H	0.830999	0.124303	0.260318
H100	H	0.823634	0.255758	0.338846
H101	H	0.949669	0.166822	0.341358
C102	C	1.712394	-0.217085	0.148029
H103	H	1.730715	-0.166479	0.064949
H104	H	1.766733	-0.294344	0.146728
H105	H	1.726070	-0.171771	0.236788
C106	C	1.508851	-0.436971	-0.283712
H107	H	1.438162	-0.482831	-0.260177
H108	H	1.569618	-0.490201	-0.338713
H109	H	1.480693	-0.364158	-0.341216
H110	H	0.916191	-0.009944	0.101649
H111	H	1.525258	-0.204686	0.245756
H112	H	1.088912	0.362208	-0.146054
C113	C	0.903995	-0.029198	-0.135067
H114	H	0.844094	0.023325	-0.192061
H115	H	0.866119	-0.102607	-0.102669
H116	H	0.976612	-0.054552	-0.194207
C117	C	1.338422	0.023897	0.358674
H118	H	1.302279	0.091511	0.297798
H119	H	1.284345	0.014051	0.441338
H120	H	1.347274	-0.052905	0.302901
C121	C	1.710780	-0.214664	-0.152824
H122	H	1.729679	-0.162702	-0.071167
H123	H	1.721948	-0.170078	-0.242730
H124	H	1.766450	-0.291046	-0.151624
C125	C	1.421944	0.424390	0.358650
H126	H	1.422163	0.425085	0.253285
H127	H	1.502091	0.445530	0.394261
H128	H	1.356500	0.485047	0.394085
C129	C	1.667502	0.347474	0.355286
H130	H	1.600844	0.383557	0.293021
H131	H	1.744650	0.336215	0.300332
H132	H	1.677735	0.402872	0.436627
H133	H	1.712919	0.144501	0.372564
H134	H	1.378630	0.025213	0.629106
