data_functionalizedCrystal
_audit_creation_method	'MofGen! by Chris Wilmer'
_symmetry_space_group_name_H-M	'P1'
_symmetry_Int_Tables_number	1
_symmetry_cell_setting	triclinic
loop_
_symmetry_equiv_pos_as_xyz
  x,y,z
_cell_length_a	13.032721
_cell_length_b	13.033299
_cell_length_c	13.032268
_cell_angle_alpha	105.162039
_cell_angle_beta	76.710373
_cell_angle_gamma	90.864526
loop_
_atom_site_label
_atom_site_type_symbol
_atom_site_fract_x
_atom_site_fract_y
_atom_site_fract_z
Zn1	Zn	-0.662427	-1.451056	0.490302
Zn2	Zn	-0.817498	-1.450942	0.335263
Zn3	Zn	-0.623112	-1.301729	0.329589
Zn4	Zn	-0.817449	-1.250865	0.535404
O5	O	-0.730121	-1.363648	0.422639
O6	O	-0.699471	-1.597269	0.453235
O7	O	-0.775279	-1.452388	0.183491
O8	O	-0.482098	-1.342872	0.329658
O9	O	-0.813401	-1.597185	0.339328
O10	O	-0.510982	-1.452582	0.447733
O11	O	-0.632464	-1.342761	0.179322
O12	O	-0.632417	-1.148754	0.373391
O13	O	-0.813318	-1.256182	0.680440
O14	O	-0.775196	-1.111385	0.524603
O15	O	-0.699424	-1.403262	0.647304
O16	O	-0.963720	-1.403067	0.383062
O17	O	-0.963685	-1.256071	0.530105
C18	C	-1.001624	-1.324062	0.462113
C19	C	-1.117788	-1.307218	0.479026
C20	C	-0.699536	-1.092154	0.453276
C21	C	-0.686479	-0.976001	0.466412
C22	C	-1.169573	-1.372488	0.413855
C23	C	-1.289635	-1.355080	0.431333
C24	C	-0.736919	-0.924203	0.415793
C25	C	-0.723426	-0.804152	0.429369
C26	C	-0.457565	-1.403414	0.383031
C27	C	-0.341417	-1.420359	0.366153
C28	C	-0.760751	-1.324061	0.704124
C29	C	-0.773803	-1.307191	0.824076
C30	C	-0.760817	-0.636204	0.391875
C31	C	-0.773873	-0.752358	0.378743
C32	C	-0.699542	-1.403153	0.142232
C33	C	-0.686218	-1.420268	0.022215
C34	C	-0.723270	-1.372442	0.861160
C35	C	-0.736759	-1.355008	0.985136
H36	H	-1.125026	-1.441260	0.345123
H37	H	-1.334183	-1.286311	0.500077
O38	O	-0.622905	-0.923028	0.530018
C39	C	-0.519132	-0.968068	0.488462
H40	H	-0.521233	-1.053493	0.437755
H41	H	-0.481282	-0.967551	0.559225
H42	H	-0.470968	-0.919582	0.434807
H43	H	-0.827046	-1.238414	0.884111
H44	H	-0.632958	-1.489039	0.962184
O45	O	-1.170790	-1.225055	0.560977
C46	C	-1.130013	-1.128067	0.545211
H47	H	-1.045994	-1.143176	0.492506
H48	H	-1.129591	-1.070721	0.627831
H49	H	-1.181481	-1.091875	0.502550
O50	O	-1.288453	-1.502488	0.284123
C51	C	-1.359912	-1.559777	0.226904
H52	H	-1.442946	-1.545938	0.281954
H53	H	-1.336252	-1.648290	0.201588
H54	H	-1.358321	-1.531432	0.150902
H55	H	-0.790096	-0.968733	0.362411
O56	O	-0.660124	-0.750897	0.493152
C57	C	-0.720260	-0.669323	0.578522
H58	H	-0.793427	-0.646916	0.553656
H59	H	-0.670731	-0.596682	0.595496
H60	H	-0.745250	-0.698407	0.655446
H61	H	-0.827059	-0.796881	0.325362
H62	H	-0.670016	-1.441209	0.801125
O63	O	-0.800291	-1.273040	1.056896
C64	C	-0.799605	-1.273871	1.164704
H65	H	-0.776111	-1.357371	1.165910
H66	H	-0.881716	-1.249378	1.219782
H67	H	-0.740436	-1.215537	1.195596
