data_functionalizedCrystal
_audit_creation_method	'MofGen! by Chris Wilmer'
_symmetry_space_group_name_H-M	'P1'
_symmetry_Int_Tables_number	1
_symmetry_cell_setting	triclinic
loop_
_symmetry_equiv_pos_as_xyz
  x,y,z
_cell_length_a	6.394989
_cell_length_b	10.908878
_cell_length_c	9.482900
_cell_angle_alpha	83.038437
_cell_angle_beta	80.390180
_cell_angle_gamma	106.708749
loop_
_atom_site_label
_atom_site_type_symbol
_atom_site_fract_x
_atom_site_fract_y
_atom_site_fract_z
O1	O	0.360239	1.718036	-0.120878
O2	O	0.198040	1.346797	-0.120882
O3	O	0.585034	1.537686	-0.120881
O4	O	-0.026755	1.527147	-0.120879
O5	O	0.506167	1.498916	0.120911
O6	O	0.119173	1.308028	0.120911
O7	O	0.281372	1.679266	0.120914
Cu8	Cu	0.193071	1.490107	0.142990
Cu9	Cu	0.286341	1.535956	-0.142957
O10	O	-0.105623	1.488377	0.120913
C11	C	0.143448	1.279816	0.000014
C12	C	0.098306	1.137995	0.000012
C13	C	0.263023	1.086320	0.000011
C14	C	0.216370	0.939740	0.000009
C15	C	0.622700	1.516219	0.000010
C16	C	0.856723	1.509850	0.000008
C17	C	0.335965	1.746248	0.000015
C18	C	0.381110	1.888071	0.000008
N19	N	0.127475	1.457868	0.344110
N20	N	0.351957	1.568205	-0.344077
C21	C	0.267001	1.526438	0.416309
C22	C	0.212410	1.499625	0.583727
H23	H	-0.077250	1.073718	0.000006
Cl24	Cl	-0.034423	1.378324	0.679635
Cl25	Cl	0.598453	1.689780	0.560019
Cl26	Cl	0.534082	1.185550	0.000007
Cl27	Cl	-0.054696	0.840517	-0.000003
Cl28	Cl	0.652188	0.987296	-0.000010
Cl29	Cl	0.514196	1.647431	0.320397
Cl30	Cl	-0.119348	1.336572	0.440023
