data_functionalizedCrystal
_audit_creation_method	'MofGen! by Chris Wilmer'
_symmetry_space_group_name_H-M	'P1'
_symmetry_Int_Tables_number	1
_symmetry_cell_setting	triclinic
loop_
_symmetry_equiv_pos_as_xyz
  x,y,z
_cell_length_a	6.817900
_cell_length_b	17.078472
_cell_length_c	10.773894
_cell_angle_alpha	96.744406
_cell_angle_beta	96.645922
_cell_angle_gamma	99.306020
loop_
_atom_site_label
_atom_site_type_symbol
_atom_site_fract_x
_atom_site_fract_y
_atom_site_fract_z
V1	V	-3.928691	-0.106853	-0.388822
O2	O	-3.939481	0.008135	-0.381550
O3	O	-3.860287	-0.214756	-0.386039
O4	O	-3.846912	-0.103893	-0.558458
O5	O	-3.952948	-0.103496	-0.207937
V6	V	-4.419236	-0.093255	-0.367202
O7	O	-4.174545	-0.136682	-0.436248
O8	O	-4.623578	-0.063426	-0.319776
O9	O	-4.264433	0.014649	-0.369985
O10	O	-4.525842	-0.208242	-0.374475
O11	O	-4.512375	-0.096611	-0.548087
O12	O	-4.277807	-0.096214	-0.197567
C13	C	-3.701501	-0.241102	-0.379873
C14	C	-3.726637	-0.329306	-0.378728
C15	C	-3.918551	-0.374739	-0.384408
C16	C	-3.942159	-0.457617	-0.383340
C17	C	-3.773848	-0.495059	-0.376582
C18	C	-3.581918	-0.449621	-0.370906
C19	C	-3.558315	-0.366745	-0.371983
C20	C	-3.825128	-0.742492	-0.372702
C21	C	-3.848746	-0.825373	-0.371621
C22	C	-4.208986	-0.833364	-0.384057
C23	C	-4.185364	-0.750486	-0.385126
C24	C	-3.993439	-0.705055	-0.379456
N25	N	-3.797973	-0.579773	-0.375486
N26	N	-3.969318	-0.620344	-0.380562
C27	C	-3.684440	-0.099684	-0.599809
C28	C	-3.698728	-0.097978	-0.738486
C29	C	-3.876255	-0.100934	-0.806344
C30	C	-3.891027	-0.099171	-0.949674
C31	C	-4.086560	0.040991	-0.376148
C32	C	-4.040661	0.129194	-0.377301
C33	C	-4.103622	-0.100426	-0.156209
C34	C	-4.068573	-0.102128	-0.017531
H35	H	-4.365245	-0.870362	-0.388673
H36	H	-3.557676	-0.094135	-0.786499
H37	H	-4.055611	-0.344259	-0.389898
H38	H	-4.098433	-0.494605	-0.387967
O39	O	-3.722627	-0.094450	-1.006846
C40	C	-3.587952	-0.023567	-0.954358
H41	H	-3.674358	0.021863	-0.910385
H42	H	-3.472627	-0.037633	-0.878663
C43	C	-3.373777	-0.044302	-1.112682
C44	C	-3.479906	0.011498	-1.058683
H45	H	-3.307122	-0.022673	-1.177031
H46	H	-3.464506	-0.092059	-1.148042
H47	H	-3.277688	-0.056019	-1.049592
H48	H	-3.576009	0.023206	-1.121769
H49	H	-3.389191	0.059258	-1.023335
O50	O	-4.349088	-0.714250	-0.391773
C51	C	-4.523541	-0.772121	-0.396535
H52	H	-4.492906	-0.833665	-0.433601
H53	H	-4.567900	-0.772941	-0.297806
C54	C	-4.733190	-0.675505	-0.439508
C55	C	-4.695569	-0.751093	-0.485043
H56	H	-4.839308	-0.662533	-0.494099
H57	H	-4.615658	-0.636515	-0.436295
H58	H	-4.770145	-0.676198	-0.357234
H59	H	-4.658590	-0.750397	-0.567308
H60	H	-4.813099	-0.790083	-0.488272
H61	H	-4.017304	-0.104766	-0.758328
O62	O	-3.638773	-0.698270	-0.367009
C63	C	-3.599688	-0.640158	-0.258711
H64	H	-3.747658	-0.627887	-0.228104
H65	H	-3.509682	-0.663164	-0.179225
C66	C	-3.296954	-0.577246	-0.326720
C67	C	-3.478694	-0.562171	-0.289135
H68	H	-3.222312	-0.529141	-0.345484
H69	H	-3.323281	-0.616399	-0.399681
H70	H	-3.221974	-0.596420	-0.260476
H71	H	-3.553681	-0.543007	-0.355385
H72	H	-3.452377	-0.523012	-0.216186
O73	O	-3.371737	-0.322723	-0.366398
C74	C	-3.228244	-0.373542	-0.360232
H75	H	-3.292520	-0.430152	-0.321613
H76	H	-3.188934	-0.390346	-0.458737
C77	C	-2.958830	-0.260354	-0.320033
C78	C	-3.037769	-0.329881	-0.272590
H79	H	-2.841332	-0.233422	-0.265976
H80	H	-3.055503	-0.226116	-0.324191
H81	H	-2.926089	-0.274368	-0.402120
H82	H	-3.070533	-0.315866	-0.190511
H83	H	-2.941097	-0.364116	-0.268415
H84	H	-3.711680	-0.855859	-0.366147
H85	H	-4.209640	-0.105969	-0.969524
H86	H	-3.444879	-0.480114	-0.365412
