data_functionalizedCrystal
_audit_creation_method	'MofGen! by Chris Wilmer'
_symmetry_space_group_name_H-M	'P1'
_symmetry_Int_Tables_number	1
_symmetry_cell_setting	triclinic
loop_
_symmetry_equiv_pos_as_xyz
  x,y,z
_cell_length_a	17.077404
_cell_length_b	21.395361
_cell_length_c	17.077396
_cell_angle_alpha	89.966749
_cell_angle_beta	89.980499
_cell_angle_gamma	90.030933
loop_
_atom_site_label
_atom_site_type_symbol
_atom_site_fract_x
_atom_site_fract_y
_atom_site_fract_z
Zn1	Zn	1.200012	-0.249435	-0.443817
Zn2	Zn	1.199901	-0.354216	-0.312540
Zn3	Zn	1.068744	-0.249457	-0.312565
Zn4	Zn	1.068694	-0.354179	-0.443763
O5	O	1.134338	-0.301822	-0.378171
O6	O	1.309844	-0.263341	-0.426414
O7	O	1.182477	-0.340344	-0.202696
O8	O	1.086224	-0.161776	-0.330008
O9	O	1.309763	-0.340323	-0.329966
O10	O	1.182666	-0.161760	-0.426439
O11	O	1.086117	-0.263378	-0.202714
O12	O	0.958890	-0.263342	-0.329957
O13	O	1.086139	-0.340260	-0.553617
O14	O	0.958854	-0.340281	-0.426348
O15	O	1.182618	-0.263305	-0.553657
O16	O	1.182429	-0.441889	-0.329914
O17	O	1.086031	-0.441862	-0.426324
C18	C	0.930390	-0.301810	-0.378149
C19	C	0.843140	-0.301821	-0.378159
C20	C	1.134234	-0.464609	-0.378127
C21	C	1.134262	-0.534251	-0.378135
C22	C	0.802151	-0.341943	-0.428269
C23	C	0.720171	-0.341944	-0.428282
C24	C	0.679181	-0.301826	-0.378179
C25	C	0.720175	-0.261699	-0.328067
C26	C	0.802154	-0.261695	-0.328059
C27	C	0.549305	-0.261711	-0.328086
C28	C	0.467320	-0.261716	-0.328092
C29	C	0.467322	-0.341961	-0.428309
C30	C	0.549301	-0.341957	-0.428301
C31	C	0.590290	-0.301830	-0.378187
C32	C	1.184500	-0.566957	-0.327986
C33	C	1.184537	-0.632392	-0.328004
C34	C	1.134321	-0.665119	-0.378162
C35	C	1.084078	-0.632404	-0.428321
C36	C	1.084049	-0.566970	-0.428307
C37	C	1.063641	-0.768833	-0.384313
C38	C	1.063669	-0.834266	-0.384321
C39	C	1.134412	-0.866940	-0.378208
C40	C	1.205129	-0.834172	-0.372070
C41	C	1.205099	-0.768738	-0.372057
C42	C	1.134347	-0.736071	-0.378182
C43	C	1.184694	-0.970599	-0.328075
C44	C	1.184732	-1.036035	-0.328098
C45	C	1.084267	-1.036046	-0.428411
C46	C	1.084236	-0.970611	-0.428392
C47	C	1.134449	-0.937891	-0.378220
C48	C	1.339082	-0.301833	-0.378193
C49	C	1.426332	-0.301839	-0.378203
C50	C	1.134385	-0.301775	-0.582915
C51	C	1.134405	-0.301756	-0.670165
C52	C	1.134463	-0.138398	-0.378232
C53	C	1.134517	-0.068757	-0.378258
C54	C	1.184644	-0.261682	-0.711177
C55	C	1.184653	-0.261661	-0.793158
C56	C	1.134428	-0.301718	-0.834125
C57	C	1.084184	-0.341793	-0.793107
C58	C	1.084171	-0.341811	-0.711128
C59	C	1.084215	-0.341756	-0.963977
C60	C	1.084229	-0.341739	-1.045962
C61	C	1.184698	-0.261606	-1.046007
C62	C	1.184685	-0.261623	-0.964028
C63	C	1.134442	-0.301700	-0.923016
C64	C	1.134336	-0.301822	-0.174223
C65	C	1.134467	-0.301666	-0.086974
H66	H	0.835520	-0.374614	-0.469066
H67	H	1.043329	-0.374356	-1.079315
H68	H	1.043290	-0.374380	-0.930588
O69	O	1.035433	-0.380791	-0.832815
C70	C	0.997283	-0.487363	-0.857885
C71	C	1.052528	-0.443266	-0.812856
H72	H	1.011095	-0.537884	-0.841777
H73	H	0.933979	-0.476411	-0.841746
H74	H	1.005910	-0.480436	-0.923518
H75	H	1.043970	-0.450168	-0.747212
H76	H	1.115811	-0.454229	-0.829059
H77	H	1.043138	-0.540340	-0.469145
H78	H	1.043383	-1.062691	-0.469255
O79	O	1.035484	-0.380771	-0.671196
C80	C	1.024856	-0.465401	-0.578631
C81	C	1.080084	-0.421310	-0.623793
H82	H	1.060894	-0.498197	-0.540308
H83	H	0.983842	-0.436674	-0.540201
H84	H	0.988941	-0.494003	-0.622001
H85	H	1.116050	-0.392699	-0.580480
H86	H	1.121046	-0.450074	-0.662235
H87	H	1.043324	-0.943979	-0.469225
H88	H	0.686801	-0.374617	-0.469086
O89	O	1.233340	-0.222661	-0.833026
C90	C	1.243974	-0.138060	-0.925631
C91	C	1.188748	-0.182185	-0.880521
H92	H	1.207944	-0.105333	-0.964054
H93	H	1.279852	-0.109391	-0.882298
H94	H	1.285023	-0.166824	-0.963980
H95	H	1.147652	-0.153470	-0.842171
H96	H	1.152925	-0.210856	-0.923896
O97	O	1.273922	-0.865805	-0.366093
C98	C	1.414231	-0.858802	-0.353989
C99	C	1.336383	-0.822896	-0.360738
H100	H	1.464752	-0.824126	-0.349675
H101	H	1.413115	-0.889455	-0.299373
H102	H	1.422458	-0.889412	-0.407984
H103	H	1.328106	-0.792252	-0.306784
H104	H	1.337534	-0.792282	-0.415387
H105	H	1.006087	-0.860941	-0.389311
O106	O	1.233545	-0.938907	-0.279319
C107	C	1.333156	-0.945801	-0.179788
C108	C	1.277888	-0.981767	-0.234978
H109	H	1.369010	-0.980437	-0.143912
H110	H	1.374218	-0.915128	-0.215816
H111	H	1.297110	-0.915204	-0.138736
H112	H	1.313872	-1.012398	-0.276041
H113	H	1.236824	-1.012400	-0.198901
H114	H	1.225647	-1.062664	-0.287263
H115	H	0.582673	-0.374628	-0.469094
O116	O	0.427542	-0.381028	-0.476906
C117	C	0.402444	-0.487647	-0.514782
C118	C	0.447534	-0.443473	-0.459693
H119	H	0.418603	-0.538142	-0.500896
H120	H	0.336802	-0.480811	-0.506180
H121	H	0.418588	-0.476681	-0.578098
H122	H	0.431456	-0.454412	-0.396356
H123	H	0.513165	-0.450317	-0.468363
O124	O	1.233459	-0.222711	-0.671506
C125	C	1.333140	-0.143252	-0.680213
C126	C	1.277885	-0.187347	-0.725234
H127	H	1.369085	-0.114657	-0.723632
H128	H	1.297158	-0.110454	-0.641860
H129	H	1.374125	-0.172037	-0.641807
H130	H	1.236889	-0.158612	-0.763682
H131	H	1.313916	-0.220146	-0.763537
H132	H	0.582676	-0.229031	-0.287285
H133	H	1.225587	-0.229009	-0.930675
H134	H	1.262678	-0.742060	-0.367061
H135	H	0.433948	-0.229041	-0.287304
H136	H	0.686794	-0.229031	-0.287276
H137	H	0.835526	-0.229020	-0.287258
H138	H	1.006029	-0.742237	-0.389295
H139	H	1.043194	-0.659054	-0.469161
O140	O	1.233421	-0.222687	-1.085963
C141	C	1.277984	-0.187155	-1.212276
C142	C	1.222757	-0.231251	-1.167120
H143	H	1.269393	-0.194073	-1.277900
H144	H	1.264228	-0.136625	-1.196225
H145	H	1.341263	-0.198154	-1.196125
H146	H	1.159459	-0.220309	-1.183247
H147	H	1.236580	-0.281768	-1.183175
O148	O	1.233357	-0.535271	-0.279233
C149	C	1.332976	-0.542169	-0.179710
C150	C	1.277696	-0.578133	-0.234892
H151	H	1.368826	-0.576807	-0.143834
H152	H	1.374040	-0.511504	-0.215746
H153	H	1.296938	-0.511565	-0.138659
H154	H	1.313670	-0.608771	-0.275954
H155	H	1.236630	-0.608759	-0.198807
H156	H	1.225450	-0.659027	-0.287166
