data_functionalizedCrystal
_audit_creation_method	'MofGen! by Chris Wilmer'
_symmetry_space_group_name_H-M	'P1'
_symmetry_Int_Tables_number	1
_symmetry_cell_setting	triclinic
loop_
_symmetry_equiv_pos_as_xyz
  x,y,z
_cell_length_a	16.959455
_cell_length_b	16.959454
_cell_length_c	16.959447
_cell_angle_alpha	89.973264
_cell_angle_beta	89.976354
_cell_angle_gamma	90.015068
loop_
_atom_site_label
_atom_site_type_symbol
_atom_site_fract_x
_atom_site_fract_y
_atom_site_fract_z
Zn1	Zn	-1.208384	0.314771	0.447125
Zn2	Zn	-0.875051	0.648105	0.780458
Zn3	Zn	-0.541717	0.981438	1.113792
Zn4	Zn	-1.208306	0.446964	0.314955
Zn5	Zn	-0.874973	0.780297	0.648288
Zn6	Zn	-0.541640	1.113631	0.981621
Zn7	Zn	-1.076212	0.314792	0.314941
Zn8	Zn	-0.742879	0.648125	0.648274
Zn9	Zn	-0.409546	0.981458	0.981608
Zn10	Zn	-1.076177	0.446900	0.447072
Zn11	Zn	-0.742844	0.780234	0.780405
Zn12	Zn	-0.409510	1.113567	1.113738
O13	O	-1.142270	0.380857	0.381023
O14	O	-0.808937	0.714190	0.714356
O15	O	-0.475603	1.047524	1.047690
O16	O	-1.318984	0.332325	0.429620
O17	O	-0.985651	0.665659	0.762954
O18	O	-0.652318	0.998992	1.096287
O19	O	-1.190766	0.429466	0.204342
O20	O	-0.857433	0.762799	0.537675
O21	O	-0.524099	1.096133	0.871009
O22	O	-1.093792	0.204178	0.332492
O23	O	-0.760459	0.537512	0.665825
O24	O	-0.427126	0.870845	0.999159
O25	O	-1.318927	0.429446	0.332515
O26	O	-0.985594	0.762780	0.665849
O27	O	-0.652261	1.096113	0.999182
O28	O	-1.190898	0.204163	0.429607
O29	O	-0.857565	0.537497	0.762940
O30	O	-0.524232	0.870830	1.096274
O31	O	-1.093717	0.332360	0.204332
O32	O	-0.760384	0.665693	0.537665
O33	O	-0.427051	0.999026	0.870999
O34	O	-0.965597	0.332298	0.332440
O35	O	-0.632263	0.665631	0.665774
O36	O	-0.298930	0.998965	0.999107
O37	O	-1.093732	0.429338	0.557690
O38	O	-0.760399	0.762671	0.891023
O39	O	-0.427065	1.096005	1.224356
O40	O	-0.965571	0.429358	0.429516
O41	O	-0.632237	0.762691	0.762850
O42	O	-0.298904	1.096024	1.096183
O43	O	-1.190864	0.332264	0.557729
O44	O	-0.857531	0.665597	0.891062
O45	O	-0.524197	0.998930	1.224396
O46	O	-1.190732	0.557566	0.332464
O47	O	-0.857399	0.890900	0.665797
O48	O	-0.524065	1.224233	0.999130
O49	O	-1.093657	0.557520	0.429530
O50	O	-0.760324	0.890853	0.762863
O51	O	-0.426990	1.224186	1.096196
C52	C	-0.936904	0.380824	0.380972
C53	C	-0.603570	0.714157	0.714305
C54	C	-0.270237	1.047490	1.047638
C55	C	-0.849047	0.380829	0.380968
C56	C	-0.515714	0.714162	0.714302
C57	C	-0.182380	1.047495	1.047635
C58	C	-0.477531	0.431354	0.330397
C59	C	-0.144198	0.764688	0.663730
C60	C	0.189136	1.098021	0.997064
C61	C	-0.477612	0.330378	0.431670
C62	C	-0.144278	0.663711	0.765003
C63	C	0.189055	0.997045	1.098336
C64	C	-0.560158	0.330368	0.431655
C65	C	-0.226824	0.663701	0.764989
C66	C	0.106509	0.997035	1.098322
C67	C	-0.601394	0.380853	0.381012
C68	C	-0.268061	0.714186	0.714345
C69	C	0.065273	1.047519	1.047678
C70	C	-0.560085	0.431347	0.330382
C71	C	-0.226751	0.764681	0.663716
C72	C	0.106582	1.098014	0.997049
C73	C	-0.601473	0.279880	0.482289
C74	C	-0.268140	0.613213	0.815622
C75	C	0.065193	0.946546	1.148956
C76	C	-0.684024	0.279868	0.482277
C77	C	-0.350691	0.613202	0.815611
C78	C	-0.017357	0.946535	1.148944
C79	C	-0.725262	0.330350	0.431629
C80	C	-0.391929	0.663683	0.764962
C81	C	-0.058595	0.997016	1.098296
C82	C	-0.683948	0.380846	0.380997
C83	C	-0.350614	0.714179	0.714331
C84	C	-0.017281	1.047512	1.047664
C85	C	-0.725184	0.431330	0.330354
C86	C	-0.391851	0.764664	0.663687
C87	C	-0.058517	1.097997	0.997020
C88	C	-0.683871	0.481823	0.279717
C89	C	-0.350538	0.815157	0.613050
C90	C	-0.017204	1.148490	0.946384
C91	C	-0.601323	0.481829	0.279734
C92	C	-0.267989	0.815162	0.613068
C93	C	0.065344	1.148495	0.946401
C94	C	-0.807811	0.330344	0.431612
C95	C	-0.474477	0.663677	0.764945
C96	C	-0.141144	0.997011	1.098279
C97	C	-0.807738	0.431323	0.330339
C98	C	-0.474404	0.764657	0.663672
C99	C	-0.141071	1.097990	0.997006
C100	C	-1.142204	0.586223	0.381010
C101	C	-0.808870	0.919556	0.714343
C102	C	-0.475537	1.252890	1.047676
C103	C	-1.142248	0.674080	0.381030
C104	C	-0.808914	1.007413	0.714364
C105	C	-0.475581	1.340746	1.047697
C106	C	-1.142303	0.380791	0.587191
C107	C	-0.808969	0.714125	0.920525
C108	C	-0.475636	1.047458	1.253858
C109	C	-1.142317	0.380764	0.675048
C110	C	-0.808983	0.714097	1.008381
C111	C	-0.475650	1.047430	1.341715
C112	C	-0.348438	0.380882	0.381061
C113	C	-0.015105	0.714215	0.714394
C114	C	0.318229	1.047548	1.047728
C115	C	-0.436295	0.380870	0.381040
C116	C	-0.102961	0.714203	0.714374
C117	C	0.230372	1.047536	1.047707
C118	C	-1.142358	0.174689	0.381054
C119	C	-0.809025	0.508022	0.714387
C120	C	-0.475691	0.841355	1.047721
C121	C	-1.142395	0.086832	0.381067
C122	C	-0.809062	0.420165	0.714400
C123	C	-0.475729	0.753499	1.047734
C124	C	-1.091796	1.045561	0.431560
C125	C	-0.758463	1.378894	0.764893
C126	C	-0.425130	1.712228	1.098227
C127	C	-1.192964	1.045550	0.330567
C128	C	-0.859630	1.378883	0.663900
C129	C	-0.526297	1.712216	0.997234
C130	C	-1.192936	0.963004	0.330560
C131	C	-0.859603	1.296337	0.663893
C132	C	-0.526269	1.629670	0.997226
C133	C	-1.142337	0.921733	0.381052
C134	C	-0.809004	1.255066	0.714386
C135	C	-0.475670	1.588399	1.047719
C136	C	-1.091765	0.963007	0.431552
C137	C	-0.758432	1.296341	0.764886
C138	C	-0.425099	1.629674	1.098219
C139	C	-1.243501	0.921723	0.280055
C140	C	-0.910167	1.255056	0.613388
C141	C	-0.576834	1.588389	0.946721
C142	C	-1.243475	0.839172	0.280045
C143	C	-0.910141	1.172505	0.613378
C144	C	-0.576808	1.505839	0.946711
C145	C	-1.192879	0.797899	0.330542
C146	C	-0.859546	1.131233	0.663876
C147	C	-0.526212	1.464566	0.997209
C148	C	-1.142306	0.839179	0.381045
C149	C	-0.808973	1.172512	0.714378
C150	C	-0.475639	1.505846	1.047712
C151	C	-1.091707	0.797908	0.431538
C152	C	-0.758374	1.131241	0.764871
C153	C	-0.425040	1.464575	1.098204
C154	C	-1.041138	0.839186	0.482045
C155	C	-0.707804	1.172520	0.815379
C156	C	-0.374471	1.505853	1.148712
C157	C	-1.041170	0.921735	0.482050
C158	C	-0.707836	1.255068	0.815383
C159	C	-0.374503	1.588401	1.148717
C160	C	-1.192847	0.715351	0.330538
C161	C	-0.859513	1.048684	0.663871
C162	C	-0.526180	1.382017	0.997204
C163	C	-1.091676	0.715354	0.431530
C164	C	-0.758343	1.048688	0.764864
C165	C	-0.425009	1.382021	1.098197
C166	C	-1.142283	0.380865	0.175657
C167	C	-0.808949	0.714198	0.508990
C168	C	-0.475616	1.047532	0.842324
C169	C	-1.142422	0.380670	0.087801
C170	C	-0.809088	0.714004	0.421134
C171	C	-0.475755	1.047337	0.754467
C172	C	-1.091839	0.431222	1.046506
C173	C	-0.758506	0.764556	1.379839
C174	C	-0.425172	1.097889	1.713173
C175	C	-1.192983	0.330138	1.046542
C176	C	-0.859650	0.663471	1.379875
C177	C	-0.526317	0.996805	1.713208
C178	C	-1.192962	0.330155	0.963996
C179	C	-0.859629	0.663488	1.297329
C180	C	-0.526296	0.996821	1.630663
C181	C	-1.142380	0.380707	0.922701
C182	C	-0.809046	0.714040	1.256035
C183	C	-0.475713	1.047374	1.589368
C184	C	-1.091818	0.431242	0.963952
C185	C	-0.758485	0.764576	1.297286
C186	C	-0.425151	1.097909	1.630619
C187	C	-1.243529	0.279626	0.922738
C188	C	-0.910195	0.612959	1.256072
C189	C	-0.576862	0.946293	1.589405
C190	C	-1.243510	0.279641	0.840187
C191	C	-0.910177	0.612975	1.173521
C192	C	-0.576844	0.946308	1.506854
C193	C	-1.192923	0.330190	0.798891
C194	C	-0.859590	0.663523	1.132225
C195	C	-0.526256	0.996857	1.465558
C196	C	-1.142359	0.380727	0.840148
C197	C	-0.809025	0.714060	1.173481
C198	C	-0.475692	1.047394	1.506814
C199	C	-1.091776	0.431279	0.798853
C200	C	-0.758443	0.764612	1.132186
C201	C	-0.425109	1.097946	1.465520
C202	C	-1.041207	0.481813	0.840108
C203	C	-0.707874	0.815146	1.173441
C204	C	-0.374541	1.148479	1.506774
C205	C	-1.041231	0.481791	0.922656
C206	C	-0.707898	0.815124	1.255990
C207	C	-0.374564	1.148458	1.589323
C208	C	-1.192899	0.330211	0.716343
C209	C	-0.859566	0.663545	1.049676
C210	C	-0.526233	0.996878	1.383009
C211	C	-1.091755	0.431299	0.716299
C212	C	-0.758422	0.764632	1.049633
C213	C	-0.425089	1.097966	1.382966
H214	H	-0.444032	0.289280	0.472906
H215	H	-0.110699	0.622614	0.806239
H216	H	0.222635	0.955947	1.139573
H217	H	-1.234016	0.681746	0.289411
H218	H	-0.900683	1.015079	0.622745
H219	H	-0.567349	1.348412	0.956078
O220	O	-0.557001	0.225424	0.536903
O221	O	-0.223668	0.558757	0.870237
O222	O	0.109665	0.892090	1.203570
H223	H	-0.492660	0.233903	0.528395
H224	H	-0.159326	0.567236	0.861729
H225	H	0.174007	0.900569	1.195062
O226	O	-0.986638	0.536325	0.795567
O227	O	-0.653305	0.869659	1.128900
O228	O	-0.319972	1.202992	1.462234
H229	H	-1.000162	0.598364	0.811391
H230	H	-0.666828	0.931698	1.144724
H231	H	-0.333495	1.265031	1.478057
H232	H	-0.999936	0.805574	0.523153
H233	H	-0.666602	1.138907	0.856487
H234	H	-0.333269	1.472241	1.189820
H235	H	-1.000063	0.522935	0.956253
H236	H	-0.666730	0.856269	1.289587
H237	H	-0.333396	1.189602	1.622920
H238	H	-0.443890	0.472462	0.289168
H239	H	-0.110557	0.805795	0.622501
H240	H	0.222776	1.139129	0.955834
O241	O	-1.037180	0.485806	0.671760
O242	O	-0.703846	0.819139	1.005093
O243	O	-0.370513	1.152473	1.338426
H244	H	-1.002020	0.520935	0.714317
H245	H	-0.668687	0.854268	1.047650
H246	H	-0.335354	1.187602	1.380983
O247	O	-1.247541	1.090049	0.276105
O248	O	-0.914207	1.423382	0.609438
O249	O	-0.580874	1.756715	0.942771
H250	H	-1.309558	1.074146	0.289731
H251	H	-0.976225	1.407479	0.623064
H252	H	-0.642892	1.740813	0.956397
H253	H	-1.234170	0.288985	1.080169
H254	H	-0.900836	0.622318	1.413502
H255	H	-0.567503	0.955652	1.746836
H256	H	-1.050665	0.472363	1.080099
H257	H	-0.717332	0.805697	1.413433
H258	H	-0.383998	1.139030	1.746766
H259	H	-0.841306	0.472432	0.289096
H260	H	-0.507973	0.805765	0.622429
H261	H	-0.174640	1.139099	0.955762
H262	H	-1.284715	0.238474	0.956367
H263	H	-0.951382	0.571807	1.289700
H264	H	-0.618048	0.905141	1.623033
H265	H	-1.284686	0.238493	0.806605
H266	H	-0.951353	0.571827	1.139938
H267	H	-0.618019	0.905160	1.473271
O268	O	-0.728583	0.225400	0.536876
O269	O	-0.395249	0.558733	0.870209
O270	O	-0.061916	0.892067	1.203543
H271	H	-0.686039	0.190291	0.572087
H272	H	-0.352705	0.523624	0.905420
H273	H	-0.019372	0.856958	1.238754
H274	H	-1.234074	0.289070	0.682757
H275	H	-0.900741	0.622403	1.016090
H276	H	-0.567407	0.955737	1.349423
O277	O	-0.852369	0.275886	0.486215
O278	O	-0.519036	0.609219	0.819549
O279	O	-0.185703	0.942552	1.152882
H280	H	-0.836558	0.289518	0.548231
H281	H	-0.503225	0.622851	0.881565
H282	H	-0.169892	0.956184	1.214898
O283	O	-0.728352	0.536268	0.225091
O284	O	-0.395019	0.869602	0.558424
O285	O	-0.061686	1.202935	0.891757
H286	H	-0.765978	0.576520	0.260394
H287	H	-0.432645	0.909854	0.593728
H288	H	-0.099312	1.243187	0.927061
O289	O	-0.556767	0.536288	0.225125
O290	O	-0.223433	0.869621	0.558458
O291	O	0.109900	1.202955	0.891791
H292	H	-0.492438	0.527816	0.233650
H293	H	-0.159105	0.861150	0.566984
H294	H	0.174228	1.194483	0.900317
H295	H	-1.050475	0.681756	0.472651
H296	H	-0.717142	1.015090	0.805984
H297	H	-0.383808	1.348423	1.139318
O298	O	-1.298102	0.966232	0.225625
O299	O	-0.964768	1.299565	0.558958
O300	O	-0.631435	1.632899	0.892291
H301	H	-1.289644	1.030568	0.234134
H302	H	-0.956310	1.363901	0.567467
H303	H	-0.622977	1.697234	0.900801
O304	O	-0.986614	0.966253	0.536507
O305	O	-0.653281	1.299587	0.869840
O306	O	-0.319948	1.632920	1.203174
H307	H	-0.995127	1.030588	0.528017
H308	H	-0.661794	1.363921	0.861350
H309	H	-0.328460	1.697254	1.194684
H310	H	-1.050626	1.079173	0.472684
H311	H	-0.717293	1.412507	0.806017
H312	H	-0.383959	1.745840	1.139351
O313	O	-1.298023	0.794651	0.225582
O314	O	-0.964689	1.127984	0.558916
O315	O	-0.631356	1.461318	0.892249
H316	H	-1.333216	0.837219	0.190479
H317	H	-0.999883	1.170552	0.523812
H318	H	-0.666550	1.503885	0.857145
