data_functionalizedCrystal
_audit_creation_method	'MofGen! by Chris Wilmer'
_symmetry_space_group_name_H-M	'P1'
_symmetry_Int_Tables_number	1
_symmetry_cell_setting	triclinic
loop_
_symmetry_equiv_pos_as_xyz
  x,y,z
_cell_length_a	16.992697
_cell_length_b	12.503572
_cell_length_c	16.992695
_cell_angle_alpha	86.236993
_cell_angle_beta	89.331663
_cell_angle_gamma	86.247427
loop_
_atom_site_label
_atom_site_type_symbol
_atom_site_fract_x
_atom_site_fract_y
_atom_site_fract_z
O1	O	-1.055097	0.089165	0.162657
O2	O	-0.555097	0.589165	0.662657
O3	O	-0.826699	0.089201	0.160823
O4	O	-0.326699	0.589201	0.660823
O5	O	-0.939982	0.089175	0.047540
O6	O	-0.439982	0.589175	0.547540
O7	O	-0.941814	0.089192	0.275940
O8	O	-0.441814	0.589192	0.775940
O9	O	-0.931463	-0.089465	0.056075
O10	O	-0.431463	0.410535	0.556075
O11	O	-0.818180	-0.089439	0.169358
O12	O	-0.318180	0.410561	0.669358
O13	O	-1.046578	-0.089475	0.171191
O14	O	-0.546578	0.410525	0.671191
Cu15	Cu	-0.931601	-0.105768	0.171054
Cu16	Cu	-0.431601	0.394232	0.671054
Cu17	Cu	-0.941676	0.105495	0.160961
Cu18	Cu	-0.441676	0.605495	0.660961
O19	O	-0.933295	-0.089448	0.284474
O20	O	-0.433295	0.410552	0.784474
C21	C	-0.793079	-0.000114	0.162734
C22	C	-0.293079	0.499886	0.662734
C23	C	-0.705596	-0.000100	0.155705
C24	C	-0.205596	0.499900	0.655705
N25	N	-0.924521	-0.254358	0.178153
N26	N	-0.424521	0.245642	0.678153
C27	C	-0.659605	-0.000095	0.223523
C28	C	-0.159605	0.499905	0.723523
C29	C	-0.577404	-0.000109	0.216914
C30	C	-0.077404	0.499891	0.716914
C31	C	-0.541195	-0.000120	0.142487
C32	C	-0.041195	0.499880	0.642487
C33	C	-0.587191	-0.000128	0.074664
C34	C	-0.087191	0.499872	0.574664
C35	C	-0.669391	-0.000122	0.081274
C36	C	-0.169391	0.499878	0.581274
C37	C	-0.295879	-0.000146	0.115093
C38	C	0.204121	0.499854	0.615093
C39	C	-0.213674	-0.000149	0.108488
C40	C	0.286326	0.499851	0.608488
C41	C	-0.203892	-0.000131	0.250739
C42	C	0.296108	0.499869	0.750739
C43	C	-0.286093	-0.000119	0.257342
C44	C	0.213907	0.499881	0.757342
C45	C	-0.332082	-0.000133	0.189519
C46	C	0.167918	0.499867	0.689519
N47	N	-0.457172	-0.000131	0.135730
N48	N	0.042828	0.499869	0.635730
N49	N	-0.416103	-0.000130	0.196277
N50	N	0.083897	0.499870	0.696277
C51	C	-0.914107	-0.473471	0.188602
C52	C	-0.414107	0.026529	0.688602
C53	C	-0.959174	-0.526809	0.143409
C54	C	-0.459174	-0.026809	0.643409
C55	C	-0.953379	-0.648731	0.149223
C56	C	-0.453379	-0.148731	0.649223
C57	C	-0.919901	-0.351538	0.182789
C58	C	-0.419901	0.148462	0.682789
C59	C	-0.080198	-0.000152	0.169279
C60	C	0.419802	0.499848	0.669279
C61	C	-0.167683	-0.000143	0.176306
C62	C	0.332317	0.499857	0.676306
C63	C	-0.933367	-0.000145	0.022447
C64	C	-0.433367	0.499855	0.522447
C65	C	-0.926338	-0.000143	-0.065037
C66	C	-0.426338	0.499857	0.434963
N67	N	-0.948762	0.254085	0.153856
N68	N	-0.448762	0.754085	0.653856
C69	C	-0.994156	-0.000155	-0.111027
C70	C	-0.494156	0.499845	0.388973
C71	C	-0.987547	-0.000144	-0.193229
C72	C	-0.487547	0.499856	0.306771
C73	C	-0.913120	-0.000128	-0.229438
C74	C	-0.413120	0.499872	0.270562
C75	C	-0.845298	-0.000113	-0.183442
C76	C	-0.345298	0.499887	0.316558
C77	C	-0.851907	-0.000117	-0.101242
C78	C	-0.351907	0.499883	0.398758
C79	C	-0.885727	-0.000109	-0.474753
C80	C	-0.385727	0.499891	0.025247
C81	C	-0.879122	-0.000109	-0.556959
C82	C	-0.379122	0.499891	-0.056959
C83	C	-1.021372	-0.000137	-0.566740
C84	C	-0.521372	0.499863	-0.066740
C85	C	-1.027975	-0.000147	-0.484538
C86	C	-0.527975	0.499853	0.015462
C87	C	-0.960153	-0.000127	-0.438550
C88	C	-0.460153	0.499873	0.061450
N89	N	-0.906363	-0.000120	-0.313461
N90	N	-0.406363	0.499880	0.186539
N91	N	-0.966911	-0.000127	-0.354529
N92	N	-0.466911	0.499873	0.145471
C93	C	-0.939910	-0.000126	0.309567
C94	C	-0.439910	0.499874	0.809567
C95	C	-0.946939	-0.000121	0.397051
C96	C	-0.446939	0.499879	0.897051
H97	H	-0.689080	-0.000086	0.284129
H98	H	-0.189080	0.499914	0.784129
C99	C	-1.088487	0.091656	-0.028643
C100	C	-0.588487	0.591656	0.471357
C101	C	-1.075967	-0.000171	-0.071227
C102	C	-0.575967	0.499829	0.428773
H103	H	-1.138994	0.091644	-0.004070
H104	H	-0.638994	0.591644	0.495930
H105	H	-1.085925	0.153942	-0.063479
H106	H	-0.585925	0.653942	0.436521
H107	H	-1.049038	0.091648	0.010511
H108	H	-0.549038	0.591648	0.510511
H109	H	-1.115413	-0.000159	-0.110384
H110	H	-0.615413	0.499841	0.389616
H111	H	-1.078537	-0.062473	-0.036387
H112	H	-0.578537	0.437527	0.463613
C113	C	-0.832689	-0.000082	-0.344412
C114	C	-0.332689	0.499918	0.155588
C115	C	-0.811178	-0.000088	-0.424208
C116	C	-0.311178	0.499912	0.075792
H117	H	-0.786662	-0.000061	-0.313208
H118	H	-0.286662	0.499939	0.186792
H119	H	-0.860015	-0.062381	-0.329977
H120	H	-0.360015	0.437619	0.170023
H121	H	-0.865968	0.062211	-0.335934
H122	H	-0.365968	0.562211	0.164066
H123	H	-0.777903	-0.062385	-0.432687
H124	H	-0.277903	0.437615	0.067313
H125	H	-0.783839	0.062217	-0.438648
H126	H	-0.283839	0.562217	0.061352
H127	H	-0.557703	-0.000153	0.014065
H128	H	-0.057703	0.499847	0.514065
H129	H	-0.784698	-0.000094	-0.212930
H130	H	-0.284698	0.499906	0.287070
C131	C	-0.707417	0.091710	-0.042322
C132	C	-0.207417	0.591710	0.457678
C133	C	-0.719950	-0.000119	0.006728
C134	C	-0.219950	0.499881	0.506728
H135	H	-0.738635	0.091710	-0.088342
H136	H	-0.238635	0.591710	0.411658
H137	H	-0.653288	0.091697	-0.056910
H138	H	-0.153288	0.591697	0.443090
H139	H	-0.721844	0.154001	-0.014982
H140	H	-0.221844	0.654001	0.485018
H141	H	-0.705518	-0.062411	-0.020610
H142	H	-0.205518	0.437589	0.479390
H143	H	-0.774092	-0.000117	0.021315
H144	H	-0.274092	0.499883	0.521315
C145	C	-1.057692	-0.537817	0.044625
C146	C	-0.557692	-0.037817	0.544625
C147	C	-1.017141	-0.464852	0.085285
C148	C	-0.517141	0.035148	0.585285
H149	H	-1.093474	-0.499561	0.008742
H150	H	-0.593474	0.000439	0.508742
H151	H	-1.086058	-0.581678	0.081194
H152	H	-0.586058	-0.081678	0.581194
H153	H	-1.021042	-0.581682	0.016351
H154	H	-0.521042	-0.081682	0.516351
H155	H	-1.053790	-0.420992	0.113563
H156	H	-0.553790	0.079008	0.613563
H157	H	-0.988772	-0.420972	0.048711
H158	H	-0.488772	0.079028	0.548711
C159	C	-0.861568	-0.645966	0.241316
C160	C	-0.361568	-0.145966	0.741316
C161	C	-0.856156	-0.535429	0.246733
C162	C	-0.356156	-0.035429	0.746733
H163	H	-0.825797	-0.684223	0.277209
H164	H	-0.325797	-0.184223	0.777209
H165	H	-0.848771	-0.664328	0.189127
H166	H	-0.348771	-0.164328	0.689127
H167	H	-0.913805	-0.664312	0.253952
H168	H	-0.413805	-0.164312	0.753952
H169	H	-0.803920	-0.517081	0.234091
H170	H	-0.303920	-0.017081	0.734091
H171	H	-0.868948	-0.517060	0.298934
H172	H	-0.368948	-0.017060	0.798934
C173	C	-0.297280	-0.000156	-0.026177
C174	C	0.202720	0.499844	0.473823
C175	C	-0.346424	-0.000152	0.040543
C176	C	0.153576	0.499848	0.540543
H177	H	-0.328489	-0.000153	-0.072203
H178	H	0.171511	0.499847	0.427797
H179	H	-0.262053	-0.062447	-0.022817
H180	H	0.237947	0.437553	0.477183
H181	H	-0.267980	0.062145	-0.028766
H182	H	0.232020	0.562145	0.471234
H183	H	-0.375720	-0.062457	0.043135
H184	H	0.124280	0.437543	0.543135
H185	H	-0.381665	0.062146	0.037182
H186	H	0.118335	0.562146	0.537182
H187	H	-0.539961	-0.000104	0.272139
H188	H	-0.039961	0.499896	0.772139
H189	H	-1.088581	-0.000160	-0.455063
H190	H	-0.588581	0.499840	0.044937
H191	H	-0.184196	-0.000156	0.047878
H192	H	0.315804	0.499844	0.547878
C193	C	-0.781199	0.091732	-0.007512
C194	C	-0.281199	0.591732	0.492488
C195	C	-0.777360	-0.000103	-0.050687
C196	C	-0.277360	0.499897	0.449313
H197	H	-0.735173	0.091745	0.023694
H198	H	-0.235173	0.591745	0.523694
H199	H	-0.826465	0.091714	0.025812
H200	H	-0.326465	0.591714	0.525812
H201	H	-0.784549	0.154018	-0.042766
H202	H	-0.284549	0.654018	0.457234
H203	H	-0.774016	-0.062391	-0.015433
H204	H	-0.274016	0.437609	0.484567
H205	H	-0.732082	-0.000095	-0.084014
H206	H	-0.232082	0.499905	0.415986
H207	H	-1.042771	-0.000156	-0.230671
H208	H	-0.542771	0.499844	0.269329
H209	H	-1.076589	-0.000152	-0.604193
H210	H	-0.576589	0.499848	-0.104193
C211	C	-0.739172	-0.000048	-0.539039
C212	C	-0.239172	0.499952	-0.039039
C213	C	-0.797307	-0.000075	-0.596762
C214	C	-0.297307	0.499925	-0.096762
H215	H	-0.688667	-0.000019	-0.563615
H216	H	-0.188667	0.499981	-0.063615
H217	H	-0.741726	-0.062342	-0.504211
H218	H	-0.241726	0.437658	-0.004211
H219	H	-0.747691	0.062250	-0.510154
H220	H	-0.247691	0.562250	-0.010154
H221	H	-0.788791	-0.062376	-0.625644
H222	H	-0.288791	0.437624	-0.125644
H223	H	-0.794750	0.062226	-0.631604
H224	H	-0.294750	0.562226	-0.131604
H225	H	-0.166439	-0.000122	0.305956
H226	H	0.333561	0.499878	0.805956
H227	H	-0.315569	-0.000097	0.317947
H228	H	0.184431	0.499903	0.817947
