data_functionalizedCrystal
_audit_creation_method	'MofGen! by Chris Wilmer'
_symmetry_space_group_name_H-M	'P1'
_symmetry_Int_Tables_number	1
_symmetry_cell_setting	triclinic
loop_
_symmetry_equiv_pos_as_xyz
  x,y,z
_cell_length_a	6.817900
_cell_length_b	12.908942
_cell_length_c	19.453114
_cell_angle_alpha	96.112537
_cell_angle_beta	101.709288
_cell_angle_gamma	100.860556
loop_
_atom_site_label
_atom_site_type_symbol
_atom_site_fract_x
_atom_site_fract_y
_atom_site_fract_z
V1	V	-3.993306	-0.146948	-0.218605
O2	O	-3.995287	0.005932	-0.214846
O3	O	-3.931749	-0.290287	-0.216723
O4	O	-3.936383	-0.145183	-0.314123
O5	O	-3.990622	-0.140176	-0.116772
V6	V	-4.479743	-0.128603	-0.206472
O7	O	-4.248172	-0.187189	-0.245220
O8	O	-4.675074	-0.088362	-0.179857
O9	O	-4.318093	0.014736	-0.208354
O10	O	-4.595158	-0.281483	-0.210231
O11	O	-4.599824	-0.135375	-0.308305
O12	O	-4.313459	-0.130368	-0.110954
C13	C	-3.773825	-0.325214	-0.213175
C14	C	-3.804725	-0.442399	-0.212273
C15	C	-3.779735	-0.140119	-0.337417
C16	C	-3.814391	-0.139624	-0.415501
C17	C	-4.225432	-0.673379	-0.217574
C18	C	-4.254475	-0.783485	-0.216726
C19	C	-3.891859	-0.772720	-0.209737
C20	C	-3.862817	-0.662614	-0.210584
C21	C	-4.029610	-0.612947	-0.214501
C22	C	-4.000562	-0.502838	-0.215344
C23	C	-3.637952	-0.492077	-0.208359
C24	C	-3.666995	-0.602182	-0.207512
C25	C	-4.011968	-0.144683	-0.455744
C26	C	-4.044532	-0.144219	-0.529112
C27	C	-3.879512	-0.138717	-0.562236
C28	C	-3.681905	-0.133651	-0.521982
C29	C	-3.649344	-0.134105	-0.448615
N30	N	-3.814659	-0.194387	-0.680876
N31	N	-3.845604	-0.193958	-0.750573
C32	C	-3.977604	-0.137346	-0.783288
N33	N	-4.077526	-0.081193	-0.743676
N34	N	-4.046586	-0.081627	-0.673973
C35	C	-3.914798	-0.138223	-0.641790
C36	C	-4.210503	-0.141900	-0.903086
C37	C	-4.243057	-0.141429	-0.976454
C38	C	-3.880427	-0.130872	-0.969324
C39	C	-3.847876	-0.131332	-0.895956
C40	C	-4.012922	-0.136852	-0.862842
C41	C	-4.139359	0.049658	-0.211900
C42	C	-4.087696	0.166841	-0.212807
C43	C	-4.133449	-0.135436	-0.087657
C44	C	-4.078033	-0.135925	-0.009572
H45	H	-4.361237	-0.632937	-0.220753
H46	H	-3.756077	-0.813179	-0.206554
H47	H	-3.488448	-0.129977	-0.415848
H48	H	-4.413930	-0.832685	-0.219229
O49	O	-4.236569	-0.149345	-0.568211
C50	C	-4.585324	-0.250055	-0.606017
C51	C	-4.367932	-0.244384	-0.561721
H52	H	-4.691601	-0.326876	-0.600773
H53	H	-4.580364	-0.248863	-0.664159
H54	H	-4.644975	-0.178570	-0.585869
H55	H	-4.308151	-0.315853	-0.581806
H56	H	-4.373019	-0.245524	-0.503586
H57	H	-3.531205	-0.642637	-0.204325
H58	H	-3.478495	-0.442861	-0.205856
H59	H	-4.344892	-0.146391	-0.876122
H60	H	-4.146364	-0.149174	-0.428787
H61	H	-4.136373	-0.462401	-0.218528
O62	O	-4.434948	-0.146480	-1.015637
C63	C	-4.711084	-0.243928	-1.111863
C64	C	-4.493736	-0.238326	-1.067556
H65	H	-4.758697	-0.318191	-1.153841
H66	H	-4.712145	-0.169874	-1.138941
H67	H	-4.823381	-0.247900	-1.075569
H68	H	-4.381314	-0.234389	-1.103802
H69	H	-4.492841	-0.312379	-1.040470
H70	H	-3.686991	-0.127224	-0.863190
O71	O	-3.521722	-0.128169	-0.554221
C72	C	-3.319088	-0.029698	-0.623603
C73	C	-3.500582	-0.035796	-0.587140
H74	H	-3.301912	0.044991	-0.650214
H75	H	-3.348568	-0.103326	-0.665312
H76	H	-3.172315	-0.026213	-0.582226
H77	H	-3.647434	-0.039247	-0.628464
H78	H	-3.470925	0.037830	-0.545417
O79	O	-3.720235	-0.125385	-1.001555
C80	C	-3.517582	-0.026904	-1.070926
C81	C	-3.699085	-0.033007	-1.034468
H82	H	-3.500397	0.047790	-1.097533
H83	H	-3.547057	-0.100527	-1.112639
H84	H	-3.370815	-0.023423	-1.029548
H85	H	-3.845931	-0.036453	-1.075794
H86	H	-3.669433	0.040615	-0.992742
