data_functionalizedCrystal
_audit_creation_method	'MofGen! by Chris Wilmer'
_symmetry_space_group_name_H-M	'P1'
_symmetry_Int_Tables_number	1
_symmetry_cell_setting	triclinic
loop_
_symmetry_equiv_pos_as_xyz
  x,y,z
_cell_length_a	27.435584
_cell_length_b	27.434948
_cell_length_c	27.431174
_cell_angle_alpha	60.005483
_cell_angle_beta	60.011353
_cell_angle_gamma	59.993028
loop_
_atom_site_label
_atom_site_type_symbol
_atom_site_fract_x
_atom_site_fract_y
_atom_site_fract_z
O1	O	0.067437	-0.712144	0.595551
O2	O	0.025356	-0.554453	0.479848
O3	O	0.125206	-0.654236	0.479781
O4	O	-0.032412	-0.612361	0.595618
O5	O	0.158328	-0.621117	0.512835
O6	O	0.058479	-0.521333	0.512902
O7	O	0.100560	-0.679025	0.628605
Zn8	Zn	0.084778	-0.594921	0.576001
Zn9	Zn	0.041138	-0.638557	0.532452
O10	O	0.000710	-0.579241	0.628672
N11	N	0.114563	-0.565144	0.605726
N12	N	0.011358	-0.668338	0.502727
C13	C	0.156385	-0.523520	0.904506
C14	C	0.413419	-0.523497	0.647322
C15	C	0.156253	-0.523488	0.647384
C16	C	0.156238	-0.266354	0.647407
C17	C	0.197637	-0.390463	0.688753
C18	C	0.197646	-0.482126	0.688741
C19	C	0.220575	-0.459215	0.711654
C20	C	0.320555	-0.441991	0.659023
C21	C	0.383051	-0.462825	0.638179
C22	C	0.383069	-0.563942	0.676737
C23	C	0.320575	-0.543107	0.697583
C24	C	0.212704	-0.359206	0.627313
C25	C	0.191849	-0.296705	0.606496
C26	C	0.140866	-0.296722	0.708562
C27	C	0.161721	-0.359223	0.729379
C28	C	0.136200	-0.467030	0.703858
C29	C	0.115361	-0.487857	0.683021
C30	C	0.217408	-0.538877	0.631968
C31	C	0.238249	-0.518050	0.652796
C32	C	0.136259	-0.467047	0.811668
C33	C	0.115461	-0.487892	0.874167
C34	C	0.217537	-0.538923	0.874131
C35	C	0.238333	-0.518080	0.811631
C36	C	0.197693	-0.482140	0.780401
C37	C	0.289320	-0.482131	0.688723
C38	C	0.132699	-0.546027	0.973247
C39	C	0.482158	-0.545613	0.624075
C40	C	0.132521	-0.546006	0.624886
C41	C	0.132917	-0.197607	0.625310
C42	C	-0.098217	-0.686189	0.484419
C43	C	-0.006438	-0.686322	0.392891
C44	C	-0.006621	-0.777944	0.484592
C45	C	-0.006606	-0.686315	0.484649
C46	C	-0.029470	-0.709193	0.461638
N47	N	0.538410	-0.565162	0.605628
O48	O	0.742647	-0.575135	0.458625
O49	O	0.742821	-0.691181	0.616169
O50	O	0.742757	-0.690917	0.516248
O51	O	0.742711	-0.575399	0.558546
O52	O	0.643472	-0.657878	0.549405
O53	O	0.643536	-0.658142	0.649326
O54	O	0.643362	-0.542096	0.491782
Zn55	Zn	0.627685	-0.594873	0.575818
Zn56	Zn	0.758498	-0.638404	0.532133
O57	O	0.643426	-0.542360	0.591702
N58	N	0.847774	-0.668115	0.502317
N59	N	0.114542	-0.141354	0.605766
O60	O	-0.032397	0.062987	0.595660
O61	O	0.125155	0.062987	0.479633
O62	O	0.025219	0.062974	0.479910
O63	O	0.067539	0.063001	0.595383
O64	O	0.058343	-0.036320	0.513009
O65	O	0.158279	-0.036306	0.512732
O66	O	0.000728	-0.036306	0.628759
Zn67	Zn	0.084763	-0.052071	0.576000
Zn68	Zn	0.041120	0.078752	0.532392
O69	O	0.100664	-0.036292	0.628482
N70	N	0.011333	0.168036	0.502628
N71	N	0.114782	-0.565197	1.029501
O72	O	0.104681	-0.712124	1.233827
O73	O	-0.011334	-0.554523	1.233839
O74	O	-0.011066	-0.654443	1.233797
O75	O	0.104414	-0.612204	1.233869
O76	O	0.022028	-0.621336	1.134509
O77	O	0.021760	-0.521417	1.134551
O78	O	0.137775	-0.679018	1.134539
Zn79	Zn	0.085022	-0.594961	1.118780
Zn80	Zn	0.041420	-0.638580	1.249597
O81	O	0.137508	-0.579098	1.134580
N82	N	0.011658	-0.668350	1.338876
C83	C	0.037974	-0.518023	0.480435
C84	C	0.161625	-0.641592	0.480351
C85	C	0.087941	-0.715455	0.628017
C86	C	-0.035710	-0.591885	0.628101
C87	C	0.693199	-0.690642	0.652596
C88	C	0.693122	-0.690315	0.528855
C89	C	0.692981	-0.542634	0.455356
C90	C	0.693062	-0.542961	0.579095
C91	C	0.161524	0.013463	0.480164
C92	C	0.037807	0.013324	0.480547
C93	C	-0.035683	0.013341	0.628188
C94	C	0.088076	0.013357	0.627845
C95	C	-0.010764	-0.518114	1.184196
C96	C	-0.010426	-0.641846	1.184125
C97	C	0.137205	-0.715426	1.184182
C98	C	0.136875	-0.591687	1.184231
H99	H	0.103160	-0.437777	0.786243
H100	H	0.028745	0.013321	0.444270
O101	O	0.692835	-0.499184	0.401385
C102	C	0.641389	-0.485336	0.390709
H103	H	0.624291	-0.524818	0.418560
H104	H	0.605365	-0.444417	0.403592
C105	C	0.677952	-0.423659	0.289818
C106	C	0.656955	-0.472153	0.324021
H107	H	0.687553	-0.415524	0.248681
H108	H	0.712612	-0.432987	0.297011
H109	H	0.647928	-0.389565	0.300560
H110	H	0.686982	-0.506247	0.313284
H111	H	0.622301	-0.462831	0.316825
O112	O	0.098567	-0.769452	0.671446
C113	C	0.047264	-0.769594	0.722914
H114	H	0.018796	-0.721743	0.722327
H115	H	0.020296	-0.790977	0.723641
C116	C	0.101073	-0.864273	0.779670
C117	C	0.066111	-0.805502	0.778951
H118	H	0.112698	-0.886425	0.814237
H119	H	0.135637	-0.864180	0.744994
H120	H	0.078594	-0.882084	0.780273
H121	H	0.088592	-0.787690	0.778341
H122	H	0.031551	-0.805594	0.813628
H123	H	0.173631	-0.760687	1.184171
H124	H	-0.080930	0.013340	0.664614
H125	H	0.206895	-0.650521	0.443974
O126	O	0.098833	0.013281	0.671203
C127	C	0.092234	-0.038151	0.721537
H128	H	0.062290	-0.055299	0.721068
H129	H	0.137892	-0.074159	0.720336
C130	C	0.100575	-0.001467	0.779350
C131	C	0.063793	-0.022526	0.778777
H132	H	0.083034	0.008170	0.814659
H133	H	0.105023	0.033183	0.745438
H134	H	0.138621	-0.031478	0.778347
H135	H	0.025751	0.007487	0.779772
H136	H	0.059337	-0.057170	0.812690
O137	O	-0.054162	-0.464093	1.184225
C138	C	-0.032670	-0.426944	1.184234
H139	H	0.005651	-0.455658	1.203042
H140	H	-0.016094	-0.396795	1.136606
C141	C	-0.130415	-0.353033	1.200074
C142	C	-0.083352	-0.388301	1.223180
H143	H	-0.161678	-0.329195	1.224095
H144	H	-0.144895	-0.378060	1.200066
H145	H	-0.116594	-0.327915	1.160385
H146	H	-0.097172	-0.413424	1.262865
H147	H	-0.068876	-0.363278	1.223196
O148	O	-0.089740	-0.581133	0.671444
C149	C	-0.126839	-0.522474	0.649852
H150	H	-0.098087	-0.494128	0.611514
H151	H	-0.156987	-0.523379	0.633269
C152	C	-0.200788	-0.530281	0.747545
C153	C	-0.165475	-0.495465	0.700460
H154	H	-0.224622	-0.513621	0.778762
H155	H	-0.175795	-0.569802	0.762092
H156	H	-0.225906	-0.531033	0.733718
H157	H	-0.140351	-0.494720	0.714285
H158	H	-0.190464	-0.455943	0.685916
O159	O	-0.053616	-0.652692	1.184022
C160	C	-0.031872	-0.711378	1.184006
H161	H	0.018979	-0.727108	1.165252
H162	H	-0.046997	-0.742267	1.231625
C163	C	-0.118835	-0.693191	1.168032
C164	C	-0.056379	-0.712509	1.144993
H165	H	-0.133954	-0.693890	1.143970
H166	H	-0.133486	-0.653654	1.168045
H167	H	-0.131431	-0.718934	1.207714
H168	H	-0.043784	-0.686762	1.105315
H169	H	-0.041727	-0.752043	1.144973
O170	O	0.693019	-0.499724	0.589997
C171	C	0.693088	-0.521478	0.648667
H172	H	0.674331	-0.559820	0.676913
H173	H	0.740731	-0.538108	0.647761
C174	C	0.677177	-0.423892	0.641134
C175	C	0.654136	-0.470980	0.675827
H176	H	0.653152	-0.392742	0.657888
H177	H	0.677133	-0.409236	0.601606
H178	H	0.716879	-0.437758	0.640382
H179	H	0.614437	-0.457115	0.676573
H180	H	0.654172	-0.485633	0.715357
H181	H	0.693242	-0.727072	0.697844
O182	O	0.693114	-0.733536	0.517971
C183	C	0.693078	-0.711793	0.459289
H184	H	0.674241	-0.660940	0.443599
H185	H	0.740700	-0.726867	0.428381
C186	C	0.677290	-0.798829	0.477408
C187	C	0.654150	-0.736371	0.458138
H188	H	0.653280	-0.813992	0.476697
H189	H	0.677316	-0.813480	0.516943
H190	H	0.716974	-0.811384	0.451649
H191	H	0.614469	-0.723818	0.483902
H192	H	0.654116	-0.721719	0.418608
O193	O	0.215444	0.013713	0.436671
C194	C	0.260668	-0.037602	0.456843
H195	H	0.244407	-0.054937	0.507728
H196	H	0.271980	-0.073556	0.439754
C197	C	0.336725	-0.000381	0.370725
C198	C	0.316755	-0.021669	0.433224
H199	H	0.371323	0.009446	0.356154
H200	H	0.306257	0.034190	0.357134
H201	H	0.346147	-0.030346	0.356493
H202	H	0.307326	0.008299	0.447455
H203	H	0.347222	-0.056235	0.446817
O204	O	0.055760	-0.473143	0.904441
C205	C	0.024355	-0.436964	0.863471
H206	H	0.054146	-0.414244	0.818917
H207	H	0.010870	-0.465790	0.856826
C208	C	-0.068568	-0.417099	0.942600
C209	C	-0.031980	-0.389190	0.887880
H210	H	-0.103319	-0.387632	0.957657
H211	H	-0.047410	-0.441476	0.970203
H212	H	-0.079799	-0.441120	0.937055
H213	H	-0.020744	-0.365176	0.893426
H214	H	-0.053137	-0.364809	0.860278
O215	O	0.257097	-0.573840	0.904371
C216	C	0.315779	-0.582672	0.863369
H217	H	0.315643	-0.575686	0.818824
H218	H	0.333675	-0.549402	0.856719
C219	C	0.356060	-0.655280	0.942449
C220	C	0.355893	-0.646704	0.887739
H221	H	0.380805	-0.694777	0.957481
H222	H	0.316525	-0.649328	0.970073
H223	H	0.370972	-0.627551	0.936899
H224	H	0.340974	-0.674428	0.893290
H225	H	0.395427	-0.652662	0.860116
O226	O	0.055654	-0.473166	0.697784
C227	C	0.024283	-0.436985	0.733969
H228	H	0.054107	-0.444962	0.756677
H229	H	0.010778	-0.388026	0.705152
C230	C	-0.068663	-0.443025	0.753857
C231	C	-0.032033	-0.452826	0.781751
H232	H	-0.103402	-0.452794	0.783329
H233	H	-0.047528	-0.467399	0.729476
H234	H	-0.079910	-0.402226	0.729844
H235	H	-0.020780	-0.493626	0.805757
H236	H	-0.053167	-0.428459	0.806137
O237	O	0.180175	-0.580847	1.184142
C238	C	0.193870	-0.532495	1.132736
H239	H	0.180757	-0.527788	1.096785
H240	H	0.168111	-0.489688	1.144371
C241	C	0.277447	-0.549644	1.153587
C242	C	0.261345	-0.543866	1.109429
H243	H	0.319067	-0.556656	1.139211
H244	H	0.268219	-0.582218	1.188221
H245	H	0.255976	-0.513970	1.163279
H246	H	0.282810	-0.579542	1.099744
H247	H	0.270578	-0.511297	1.074793
O248	O	0.256933	-0.573749	0.597040
C249	C	0.315633	-0.582619	0.588187
H250	H	0.315520	-0.544942	0.595175
H251	H	0.333559	-0.627145	0.621441
C252	C	0.355830	-0.629330	0.515570
C253	C	0.355692	-0.583051	0.524148
H254	H	0.380541	-0.629599	0.476069
H255	H	0.316283	-0.623356	0.521536
H256	H	0.370766	-0.666431	0.543286
H257	H	0.340748	-0.545951	0.496437
H258	H	0.395237	-0.589018	0.518176
H259	H	0.103135	-0.437780	0.733124
O260	O	0.290259	-0.582110	0.726337
C261	C	0.305525	-0.611385	0.688090
H262	H	0.322682	-0.582927	0.639708
H263	H	0.341813	-0.656491	0.698156
C264	C	0.228932	-0.655823	0.757491
C265	C	0.250000	-0.620869	0.698068
H266	H	0.194683	-0.661677	0.763648
H267	H	0.218648	-0.636103	0.783260
H268	H	0.259177	-0.693408	0.765873
H269	H	0.219758	-0.583283	0.689689
H270	H	0.260277	-0.640584	0.672298
O271	O	0.413464	-0.623155	0.685231
C272	C	0.449604	-0.631646	0.629442
H273	H	0.430746	-0.592077	0.593413
H274	H	0.496969	-0.635337	0.618611
C275	C	0.473733	-0.737985	0.676050
C276	C	0.450569	-0.689388	0.631800
H277	H	0.474332	-0.773604	0.677505
H278	H	0.449387	-0.732266	0.713637
H279	H	0.513202	-0.741053	0.667019
H280	H	0.411099	-0.686316	0.640836
H281	H	0.474909	-0.695108	0.594215
H282	H	0.288283	-0.530335	0.640482
O283	O	0.413365	-0.423795	0.609236
C284	C	0.398055	-0.381359	0.557725
H285	H	0.380866	-0.400616	0.543366
H286	H	0.361777	-0.339228	0.567949
C287	C	0.474666	-0.342251	0.524676
C288	C	0.453559	-0.365905	0.507038
H289	H	0.508903	-0.332716	0.493411
H290	H	0.484980	-0.370840	0.559382
H291	H	0.444429	-0.307145	0.533197
H292	H	0.483793	-0.401014	0.498525
H293	H	0.443252	-0.337322	0.472330
O294	O	0.247562	-0.389461	0.587771
C295	C	0.256393	-0.348468	0.529077
H296	H	0.218707	-0.303918	0.529204
H297	H	0.300911	-0.341818	0.511157
C298	C	0.303098	-0.427570	0.488843
C299	C	0.256808	-0.372854	0.488998
H300	H	0.303357	-0.442613	0.464119
H301	H	0.297151	-0.455188	0.528386
H302	H	0.340192	-0.422021	0.473910
H303	H	0.219716	-0.378405	0.503937
H304	H	0.262750	-0.345237	0.449456
H305	H	0.288361	-0.530376	0.786177
H306	H	0.149444	-0.384673	0.779411
O307	O	0.206380	-0.266311	0.546816
C308	C	0.153852	-0.230145	0.531733
H309	H	0.116322	-0.248986	0.566971
H310	H	0.140693	-0.182780	0.529667
C311	C	0.211041	-0.206028	0.427164
C312	C	0.164948	-0.229172	0.470442
H313	H	0.217885	-0.205426	0.389357
H314	H	0.246430	-0.230392	0.437326
H315	H	0.200069	-0.166560	0.425451
H316	H	0.175923	-0.268642	0.472161
H317	H	0.129560	-0.204815	0.460279
H318	H	0.111630	-0.271286	0.741644
O319	O	0.027193	-0.464011	0.437063
C320	C	-0.021150	-0.453347	0.423327
H321	H	-0.025898	-0.497690	0.436496
H322	H	-0.063946	-0.424593	0.449015
C323	C	-0.003900	-0.366177	0.339660
C324	C	-0.009729	-0.420640	0.355829
H325	H	0.003143	-0.345999	0.298025
H326	H	0.028668	-0.373359	0.348915
H327	H	-0.039565	-0.342222	0.361071
H328	H	0.025938	-0.444596	0.334424
H329	H	-0.042291	-0.413461	0.346569
H330	H	0.295112	-0.392340	0.651807
