data_functionalizedCrystal
_audit_creation_method	'MofGen! by Chris Wilmer'
_symmetry_space_group_name_H-M	'P1'
_symmetry_Int_Tables_number	1
_symmetry_cell_setting	triclinic
loop_
_symmetry_equiv_pos_as_xyz
  x,y,z
_cell_length_a	19.121102
_cell_length_b	19.120786
_cell_length_c	12.645323
_cell_angle_alpha	92.471912
_cell_angle_beta	92.461268
_cell_angle_gamma	89.915559
loop_
_atom_site_label
_atom_site_type_symbol
_atom_site_fract_x
_atom_site_fract_y
_atom_site_fract_z
Zn1	Zn	1.059885	-0.324914	0.646623
Zn2	Zn	1.559885	0.175086	1.146623
Zn3	Zn	1.054789	-0.442162	0.461463
Zn4	Zn	1.554789	0.057838	0.961463
Zn5	Zn	0.942641	-0.319930	0.462150
Zn6	Zn	1.442641	0.180070	0.962150
Zn7	Zn	0.937613	-0.437111	0.631469
Zn8	Zn	1.437613	0.062889	1.131469
O9	O	0.998732	-0.381029	0.550426
O10	O	1.498732	0.118971	1.050426
O11	O	1.157314	-0.344667	0.628116
O12	O	1.657314	0.155333	1.128116
O13	O	1.039883	-0.425976	0.313203
O14	O	1.539883	0.074024	0.813203
O15	O	0.962430	-0.222482	0.493250
O16	O	1.462430	0.277518	0.993250
O17	O	1.153570	-0.430808	0.492080
O18	O	1.653570	0.069192	0.992080
O19	O	1.048569	-0.226144	0.628782
O20	O	1.548569	0.273856	1.128782
O21	O	0.957488	-0.336172	0.313707
O22	O	1.457488	0.163828	0.813707
O23	O	0.843868	-0.331275	0.478555
O24	O	1.343868	0.168725	0.978555
O25	O	0.953862	-0.422200	0.781830
O26	O	1.453862	0.077800	1.281830
O27	O	0.840175	-0.417367	0.602954
O28	O	1.340175	0.082633	1.102954
O29	O	1.043694	-0.339769	0.792964
O30	O	1.543694	0.160231	1.292964
O31	O	1.035008	-0.539601	0.477385
O32	O	1.535008	-0.039601	0.977385
O33	O	0.948920	-0.535891	0.602288
O34	O	1.448920	-0.035891	1.102288
C35	C	0.816584	-0.373233	0.539185
C36	C	1.316584	0.126767	1.039185
C37	C	0.738659	-0.369914	0.534400
C38	C	1.238659	0.130086	1.034400
C39	C	0.700143	-0.413247	0.596809
C40	C	1.200143	0.086753	1.096809
C41	C	0.626925	-0.410119	0.592318
C42	C	1.126925	0.089881	1.092318
C43	C	0.592225	-0.363663	0.525413
C44	C	1.092225	0.136337	1.025413
C45	C	0.630747	-0.320325	0.463002
C46	C	1.130747	0.179675	0.963002
C47	C	0.703963	-0.323450	0.467499
C48	C	1.203963	0.176550	0.967499
C49	C	0.371253	-0.351980	0.508607
C50	C	0.871253	0.148020	1.008607
C51	C	0.298031	-0.348860	0.504113
C52	C	0.798031	0.151140	1.004113
C53	C	0.294215	-0.438654	0.633431
C54	C	0.794215	0.061346	1.133431
C55	C	0.367433	-0.441777	0.637916
C56	C	0.867433	0.058223	1.137916
C57	C	0.405948	-0.398437	0.575510
C58	C	0.905948	0.101563	1.075510
C59	C	0.517384	-0.360466	0.520819
C60	C	1.017384	0.139534	1.020819
C61	C	0.480788	-0.401630	0.580110
C62	C	0.980788	0.098370	1.080110
C63	C	0.990885	-0.563186	0.538142
C64	C	1.490885	-0.063186	1.038142
C65	C	0.987592	-0.641116	0.532926
C66	C	1.487592	-0.141116	1.032926
C67	C	1.030860	-0.679572	0.601093
C68	C	1.530860	-0.179572	1.101093
C69	C	1.027763	-0.752795	0.596194
C70	C	1.527763	-0.252795	1.096194
C71	C	0.981402	-0.787561	0.523122
C72	C	1.481402	-0.287561	1.023122
C73	C	0.938129	-0.749099	0.454952
C74	C	1.438129	-0.249099	0.954952
C75	C	0.941223	-0.675877	0.459857
C76	C	1.441223	-0.175877	0.959857
C77	C	0.969815	-1.008552	0.504784
C78	C	1.469815	-0.508552	1.004784
C79	C	0.966726	-1.081780	0.499882
C80	C	1.466726	-0.581780	0.999882
C81	C	1.056359	-1.085470	0.641125
C82	C	1.556359	-0.585470	1.141125
C83	C	1.059452	-1.012247	0.646020
C84	C	1.559452	-0.512247	1.146020
C85	C	1.016177	-0.973791	0.577854
C86	C	1.516177	-0.473791	1.077854
C87	C	0.978237	-0.862407	0.518110
C88	C	1.478237	-0.362407	1.018110
C89	C	1.019339	-0.898947	0.582871
C90	C	1.519339	-0.398947	1.082871
C91	C	1.181591	-0.388857	0.561712
C92	C	1.681591	0.111143	1.061712
C93	C	1.259515	-0.392193	0.566521
C94	C	1.759515	0.107807	1.066521
C95	C	0.998786	-0.380977	0.826938
C96	C	1.498786	0.119023	1.326938
C97	C	0.998809	-0.380955	0.944772
C98	C	1.498809	0.119045	1.444772
C99	C	1.006629	-0.198163	0.562783
C100	C	1.506629	0.301837	1.062783
C101	C	1.009994	-0.120236	0.568048
C102	C	1.509994	0.379764	1.068048
C103	C	0.998721	-0.381032	0.274996
C104	C	1.498721	0.118968	0.774996
C105	C	0.998842	-0.380863	0.157185
C106	C	1.498842	0.119137	0.657185
C107	C	0.942139	-0.432550	1.105338
C108	C	1.442139	0.067450	1.605338
C109	C	0.942270	-0.432823	0.982769
C110	C	1.442270	0.067177	1.482769
C111	C	1.071820	-0.404163	0.992488
C112	C	1.571820	0.095837	1.492488
C113	C	1.071508	-0.404489	1.115045
C114	C	1.571508	0.095511	1.615045
C115	C	0.983178	-0.305881	1.115813
C116	C	1.483178	0.194119	1.615813
C117	C	0.981511	-0.306255	0.993075
C118	C	1.481511	0.193745	1.493075
H119	H	0.402604	-0.316695	0.457782
H120	H	0.902604	0.183305	0.957782
H121	H	0.934580	-0.977247	0.449278
H122	H	1.434580	-0.477247	0.949278
H123	H	1.068615	-0.651271	0.660592
H124	H	1.568615	-0.151271	1.160592
H125	H	1.097203	-0.983942	0.705521
H126	H	1.597203	-0.483942	1.205521
H127	H	0.952115	-0.487723	1.133235
H128	H	1.452115	0.012277	1.633235
N129	N	0.928243	-0.899908	0.439286
N130	N	1.428243	-0.399908	0.939286
H131	H	0.901302	-0.864438	0.396837
H132	H	1.401302	-0.364438	0.896837
H133	H	0.894500	-0.928911	0.478358
H134	H	1.394500	-0.428911	0.978358
H135	H	0.900378	-0.777411	0.395459
H136	H	1.400378	-0.277411	0.895459
H137	H	0.262848	-0.473937	0.684240
H138	H	0.762848	0.026063	1.184240
H139	H	1.063001	-0.784103	0.651695
H140	H	1.563001	-0.284103	1.151695
N141	N	0.260614	-0.298762	0.431917
N142	N	0.760614	0.201238	0.931917
H143	H	0.229011	-0.325933	0.378933
H144	H	0.729011	0.174067	0.878933
H145	H	0.296177	-0.271805	0.393139
H146	H	0.796177	0.228195	0.893139
H147	H	1.091590	-1.116788	0.696623
H148	H	1.591590	-0.616788	1.196623
H149	H	0.952352	-0.488345	0.950517
H150	H	1.452352	0.011655	1.450517
H151	H	0.595568	-0.445406	0.643137
H152	H	1.095568	0.054594	1.143137
N153	N	0.593324	-0.270231	0.390818
N154	N	1.093324	0.229769	0.890818
H155	H	0.541096	-0.274833	0.397427
H156	H	1.041096	0.225167	0.897427
H157	H	0.605641	-0.281642	0.315143
H158	H	1.105641	0.218358	0.815143
N159	N	0.916722	-1.119280	0.421063
N160	N	1.416722	-0.619280	0.921063
H161	H	0.889775	-1.083808	0.378624
H162	H	1.389775	-0.583808	0.878624
H163	H	0.882983	-1.148286	0.460139
H164	H	1.382983	-0.648286	0.960139
N165	N	1.089584	-0.477216	1.149420
N166	N	1.589584	0.022784	1.649420
H167	H	1.097679	-0.508763	1.084974
H168	H	1.597679	-0.008763	1.584974
H169	H	1.049704	-0.496236	1.189465
H170	H	1.549704	0.003764	1.689465
H171	H	1.115018	-0.368647	1.149837
H172	H	1.615018	0.131353	1.649837
H173	H	0.905989	-0.644567	0.404350
H174	H	1.405989	-0.144567	0.904350
H175	H	0.395680	-0.479608	0.692395
H176	H	0.895680	0.020392	1.192395
H177	H	1.057084	-0.870638	0.642370
H178	H	1.557084	-0.370638	1.142370
N179	N	1.129104	-0.356055	0.960708
N180	N	1.629104	0.143945	1.460708
H181	H	1.108228	-0.318666	0.914961
H182	H	1.608228	0.181334	1.414961
H183	H	1.164566	-0.383988	0.919638
H184	H	1.664566	0.116012	1.419638
H185	H	0.888030	-0.417935	0.950141
H186	H	1.388030	0.082065	1.450141
H187	H	0.931033	-0.285342	1.144690
H188	H	1.431033	0.214658	1.644690
N189	N	0.870064	-0.412973	1.140976
N190	N	1.370064	0.087027	1.640976
H191	H	0.873465	-0.370411	1.191081
H192	H	1.373465	0.129589	1.691081
H193	H	0.849611	-0.453321	1.178373
H194	H	1.349611	0.046679	1.678373
N195	N	1.090295	-0.476156	0.948379
N196	N	1.590295	0.023844	1.448379
H197	H	1.053505	-0.510801	0.967254
H198	H	1.553505	-0.010801	1.467254
H199	H	1.137374	-0.490564	0.979574
H200	H	1.637374	0.009436	1.479574
H201	H	0.735323	-0.288160	0.416685
H202	H	1.235323	0.211840	0.916685
H203	H	0.927797	-0.288811	0.961648
H204	H	1.427797	0.211189	1.461648
H205	H	1.024517	-0.267333	1.149975
H206	H	1.524517	0.232667	1.649975
N207	N	0.737567	-0.463359	0.668963
N208	N	1.237567	0.036641	1.168963
H209	H	0.702054	-0.490334	0.707818
H210	H	1.202054	0.009666	1.207818
H211	H	0.769189	-0.436159	0.721882
H212	H	1.269189	0.063841	1.221882
N213	N	0.518207	-0.451739	0.652268
N214	N	1.018207	0.048261	1.152268
H215	H	0.549827	-0.424587	0.705251
H216	H	1.049827	0.075413	1.205251
H217	H	0.547133	-0.485473	0.608695
H218	H	1.047133	0.014527	1.108695
N219	N	0.479948	-0.310383	0.448630
N220	N	0.979948	0.189617	0.948630
H221	H	0.450972	-0.276633	0.492098
H222	H	0.950972	0.223367	0.992098
H223	H	0.448375	-0.337616	0.395683
H224	H	0.948375	0.162384	0.895683
N225	N	1.032553	-0.252206	0.959295
N226	N	1.532553	0.247794	1.459295
H227	H	1.067772	-0.275481	0.911993
H228	H	1.567772	0.224519	1.411993
H229	H	1.057690	-0.229895	1.024041
H230	H	1.557690	0.270105	1.524041
