data_functionalizedCrystal
_audit_creation_method	'MofGen! by Chris Wilmer'
_symmetry_space_group_name_H-M	'P1'
_symmetry_Int_Tables_number	1
_symmetry_cell_setting	triclinic
loop_
_symmetry_equiv_pos_as_xyz
  x,y,z
_cell_length_a	11.792241
_cell_length_b	15.995292
_cell_length_c	10.268362
_cell_angle_alpha	89.997908
_cell_angle_beta	89.999626
_cell_angle_gamma	83.831016
loop_
_atom_site_label
_atom_site_type_symbol
_atom_site_fract_x
_atom_site_fract_y
_atom_site_fract_z
O1	O	1.505919	0.114766	-0.108164
O2	O	2.005919	0.614766	0.391836
O3	O	1.175476	0.126594	-0.108193
O4	O	1.675476	0.626594	0.391807
O5	O	1.349765	-0.001170	-0.108180
O6	O	1.849765	0.498830	0.391820
O7	O	1.331630	0.242530	-0.108177
O8	O	1.831630	0.742530	0.391823
O9	O	1.349750	-0.001175	0.108421
O10	O	1.849750	0.498825	0.608421
O11	O	1.175461	0.126589	0.108407
O12	O	1.675461	0.626589	0.608407
O13	O	1.505904	0.114761	0.108437
O14	O	2.005904	0.614761	0.608437
Cu15	Cu	1.340681	0.120674	0.128199
Cu16	Cu	1.840681	0.620674	0.628199
Cu17	Cu	1.340699	0.120681	-0.127956
Cu18	Cu	1.840699	0.620681	0.372044
O19	O	1.331615	0.242525	0.108423
O20	O	1.831615	0.742525	0.608423
C21	C	1.133184	0.125849	0.000103
C22	C	1.633184	0.625849	0.500103
C23	C	1.007189	0.123625	0.000092
C24	C	1.507189	0.623625	0.500092
C25	C	1.349019	-0.032371	0.000117
C26	C	1.849019	0.467629	0.500117
C27	C	1.346806	-0.125334	0.000107
C28	C	1.846806	0.374666	0.500107
C29	C	0.776512	0.119536	0.000129
C30	C	1.276512	0.619536	0.500129
C31	C	0.904878	0.121808	0.000108
C32	C	1.404878	0.621808	0.500108
C33	C	1.338672	-0.463110	0.000118
C34	C	1.838672	0.036890	0.500118
C35	C	1.464469	-0.439226	0.000614
C36	C	1.964469	0.060774	0.500614
C37	C	1.466860	-0.342540	0.000121
C38	C	1.966860	0.157460	0.500121
C39	C	1.342708	-0.295535	0.000114
C40	C	1.842708	0.204465	0.500114
C41	C	1.279824	-0.324919	-0.123577
C42	C	1.779824	0.175081	0.376423
C43	C	1.278310	-0.421716	-0.123676
C44	C	1.778310	0.078284	0.376324
C45	C	1.275724	-0.421591	0.122639
C46	C	1.775724	0.078409	0.622639
C47	C	1.280386	-0.325077	0.124269
C48	C	1.780386	0.174923	0.624269
C49	C	1.344983	-0.200829	0.000107
C50	C	1.844983	0.299171	0.500107
C51	C	1.336393	-0.557816	0.000117
C52	C	1.836393	-0.057816	0.500117
C53	C	1.548196	0.115507	0.000137
C54	C	2.048196	0.615507	0.500137
C55	C	1.674191	0.117730	0.000140
C56	C	2.174191	0.617730	0.500140
C57	C	1.332361	0.273726	0.000123
C58	C	1.832361	0.773726	0.500123
C59	C	1.334574	0.366689	0.000125
C60	C	1.834574	0.866689	0.500125
N61	N	1.340677	0.120669	0.308365
N62	N	1.840677	0.620669	0.808365
N63	N	1.340712	0.120679	-0.308122
N64	N	1.840712	0.620679	0.191878
C65	C	1.340693	0.120679	0.574036
C66	C	1.840693	0.620679	1.074036
C67	C	1.340680	0.120676	0.426198
C68	C	1.840680	0.620676	0.926198
H69	H	1.516109	-0.323293	0.088786
H70	H	2.016109	0.176707	0.588786
Br71	Br	1.127553	-0.272495	-0.131264
Br72	Br	1.627553	0.227505	0.368736
Br73	Br	1.549448	-0.311478	-0.147910
Br74	Br	2.049448	0.188522	0.352090
H75	H	1.512951	-0.467005	0.089318
H76	H	2.012951	0.032995	0.589318
H77	H	1.512694	-0.468023	-0.087585
H78	H	2.012694	0.031977	0.412415
Br79	Br	1.352626	-0.291155	-0.276997
Br80	Br	1.852626	0.208845	0.223003
Br81	Br	1.356693	-0.293785	0.276791
Br82	Br	1.856693	0.206215	0.776791
H83	H	1.321873	-0.448332	-0.216133
H84	H	1.821873	0.051668	0.283867
H85	H	1.315333	-0.449502	0.216396
H86	H	1.815333	0.050498	0.716396
H87	H	1.186075	-0.436685	-0.129286
H88	H	1.686075	0.063315	0.370714
H89	H	1.183128	-0.436002	0.123467
H90	H	1.683128	0.063998	0.623467
Br91	Br	1.129343	-0.270815	0.136716
Br92	Br	1.629343	0.229185	0.636716
