data_functionalizedCrystal
_audit_creation_method	'MofGen! by Chris Wilmer'
_symmetry_space_group_name_H-M	'P1'
_symmetry_Int_Tables_number	1
_symmetry_cell_setting	triclinic
loop_
_symmetry_equiv_pos_as_xyz
  x,y,z
_cell_length_a	21.395362
_cell_length_b	19.805405
_cell_length_c	21.395355
_cell_angle_alpha	90.019910
_cell_angle_beta	90.043940
_cell_angle_gamma	90.042288
loop_
_atom_site_label
_atom_site_type_symbol
_atom_site_fract_x
_atom_site_fract_y
_atom_site_fract_z
Zn1	Zn	0.957878	-0.269255	0.354580
Zn2	Zn	1.291212	0.064079	0.687913
Zn3	Zn	1.624545	0.397412	1.021246
Zn4	Zn	0.957789	-0.382425	0.249800
Zn5	Zn	1.291122	-0.049091	0.583133
Zn6	Zn	1.624455	0.284242	0.916466
Zn7	Zn	0.853093	-0.269286	0.249781
Zn8	Zn	1.186426	0.064047	0.583114
Zn9	Zn	1.519760	0.397380	0.916447
Zn10	Zn	0.853070	-0.382438	0.354504
Zn11	Zn	1.186403	-0.049105	0.687838
Zn12	Zn	1.519737	0.284228	1.021171
O13	O	0.905458	-0.325851	0.302166
O14	O	1.238791	0.007482	0.635499
O15	O	1.572124	0.340816	0.968833
O16	O	1.045544	-0.284248	0.340720
O17	O	1.378878	0.049085	0.674053
O18	O	1.712211	0.382419	1.007386
O19	O	0.943873	-0.367424	0.162119
O20	O	1.277206	-0.034091	0.495452
O21	O	1.610539	0.299243	0.828786
O22	O	0.867040	-0.174565	0.263706
O23	O	1.200374	0.158768	0.597040
O24	O	1.533707	0.492101	0.930373
O25	O	1.045478	-0.367393	0.263738
O26	O	1.378812	-0.034060	0.597071
O27	O	1.712145	0.299273	0.930405
O28	O	0.944025	-0.174542	0.340701
O29	O	1.277359	0.158791	0.674035
O30	O	1.610692	0.492124	1.007368
O31	O	0.866953	-0.284302	0.162105
O32	O	1.200287	0.049032	0.495439
O33	O	1.533620	0.382365	0.828772
O34	O	0.765412	-0.284315	0.263633
O35	O	1.098746	0.049018	0.596967
O36	O	1.432079	0.382352	0.930300
O37	O	0.867001	-0.367417	0.442192
O38	O	1.200334	-0.034084	0.775525
O39	O	1.533668	0.299250	1.108859
O40	O	0.765395	-0.367448	0.340573
O41	O	1.098729	-0.034114	0.673906
O42	O	1.432062	0.299219	1.007240
O43	O	0.944003	-0.284261	0.442247
O44	O	1.277336	0.049072	0.775581
O45	O	1.610670	0.382405	1.108914
O46	O	0.943850	-0.477143	0.263665
O47	O	1.277184	-0.143810	0.596998
O48	O	1.610517	0.189524	0.930332
O49	O	0.866914	-0.477153	0.340591
O50	O	1.200247	-0.143820	0.673925
O51	O	1.533581	0.189513	1.007258
C52	C	0.742670	-0.325887	0.302093
C53	C	1.076003	0.007447	0.635427
C54	C	1.409336	0.340780	0.968760
C55	C	0.673029	-0.325918	0.302077
C56	C	1.006362	0.007415	0.635410
C57	C	1.339695	0.340748	0.968744
C58	C	0.640323	-0.369263	0.342080
C59	C	0.973656	-0.035930	0.675413
C60	C	1.306990	0.297404	1.008746
C61	C	0.574888	-0.369246	0.342108
C62	C	0.908221	-0.035913	0.675441
C63	C	1.241554	0.297420	1.008774
C64	C	0.542160	-0.325892	0.302122
C65	C	0.875494	0.007441	0.635455
C66	C	1.208827	0.340774	0.968788
C67	C	0.574874	-0.282539	0.262116
C68	C	0.908207	0.050794	0.595450
C69	C	1.241540	0.384127	0.928783
C70	C	0.640308	-0.282553	0.262094
C71	C	0.973641	0.050781	0.595427
C72	C	1.306974	0.384114	0.928761
C73	C	0.438435	-0.320440	0.245717
C74	C	0.771768	0.012894	0.579050
C75	C	1.105102	0.346227	0.912383
C76	C	0.373002	-0.320431	0.245738
C77	C	0.706336	0.012902	0.579071
C78	C	1.039669	0.346235	0.912405
C79	C	0.340340	-0.325848	0.302191
C80	C	0.673673	0.007485	0.635524
C81	C	1.007006	0.340818	0.968858
C82	C	0.373118	-0.331287	0.358624
C83	C	0.706451	0.002046	0.691958
C84	C	1.039785	0.335379	1.025291
C85	C	0.438552	-0.331301	0.358602
C86	C	0.771885	0.002033	0.691935
C87	C	1.105219	0.335366	1.025269
C88	C	0.471208	-0.325873	0.302142
C89	C	0.804541	0.007460	0.635475
C90	C	1.137875	0.340794	0.968808
C91	C	0.236682	-0.369177	0.342227
C92	C	0.570015	-0.035844	0.675560
C93	C	0.903348	0.297490	1.008894
C94	C	0.171245	-0.369156	0.342256
C95	C	0.504578	-0.035822	0.675589
C96	C	0.837912	0.297511	1.008923
C97	C	0.171232	-0.282452	0.262259
C98	C	0.504566	0.050881	0.595593
C99	C	0.837899	0.384214	0.928926
C100	C	0.236668	-0.282470	0.262236
C101	C	0.570001	0.050863	0.595569
C102	C	0.903334	0.384196	0.928903
C103	C	0.269388	-0.325836	0.302219
C104	C	0.602722	0.007497	0.635552
C105	C	0.936055	0.340831	0.968886
C106	C	0.905387	-0.501707	0.302136
C107	C	1.238720	-0.168374	0.635469
C108	C	1.572054	0.164960	0.968802
C109	C	0.905414	-0.576939	0.302144
C110	C	1.238748	-0.243606	0.635477
C111	C	1.572081	0.089728	0.968810
C112	C	0.945514	-0.612255	0.262130
C113	C	1.278847	-0.278922	0.595464
C114	C	1.612180	0.054411	0.928797
C115	C	0.945540	-0.682944	0.262144
C116	C	1.278874	-0.349610	0.595477
C117	C	1.612207	-0.016277	0.928811
C118	C	0.905464	-0.718315	0.302169
C119	C	1.238797	-0.384981	0.635502
C120	C	1.572130	-0.051648	0.968835
C121	C	0.865362	-0.682993	0.342187
C122	C	1.198696	-0.349660	0.675520
C123	C	1.532029	-0.016327	1.008853
C124	C	0.865339	-0.612306	0.342175
C125	C	1.198673	-0.278973	0.675509
C126	C	1.532006	0.054361	1.008842
C127	C	0.865455	-0.968067	0.342233
C128	C	1.198788	-0.634733	0.675566
C129	C	1.532122	-0.301400	1.008900
C130	C	0.865480	-1.038759	0.342240
C131	C	1.198813	-0.705425	0.675573
C132	C	1.532146	-0.372092	1.008906
C133	C	0.945656	-1.038704	0.262202
C134	C	1.278989	-0.705371	0.595535
C135	C	1.612322	-0.372037	0.928868
C136	C	0.945633	-0.968017	0.262191
C137	C	1.278966	-0.634684	0.595524
C138	C	1.612299	-0.301350	0.928857
C139	C	0.905534	-0.932702	0.302210
C140	C	1.238867	-0.599369	0.635544
C141	C	1.572201	-0.266035	0.968877
C142	C	0.905507	-0.856053	0.302196
C143	C	1.238840	-0.522720	0.635529
C144	C	1.572173	-0.189387	0.968862
C145	C	0.905488	-0.794962	0.302181
C146	C	1.238821	-0.461628	0.635514
C147	C	1.572154	-0.128295	0.968847
C148	C	1.068881	-0.325816	0.302239
C149	C	1.402214	0.007518	0.635573
C150	C	1.735548	0.340851	0.968906
C151	C	1.138522	-0.325800	0.302271
C152	C	1.471855	0.007533	0.635604
C153	C	1.805189	0.340866	0.968937
C154	C	0.905510	-0.325837	0.465589
C155	C	1.238843	0.007496	0.798923
C156	C	1.572176	0.340829	1.132256
C157	C	0.905532	-0.325831	0.535231
C158	C	1.238865	0.007502	0.868564
C159	C	1.572198	0.340835	1.201897
C160	C	0.905545	-0.149308	0.302210
C161	C	1.238879	0.184025	0.635544
C162	C	1.572212	0.517358	0.968877
C163	C	0.905583	-0.074076	0.302229
C164	C	1.238916	0.259257	0.635562
C165	C	1.572249	0.592590	0.968896
C166	C	0.905442	-0.325816	0.139378
C167	C	1.238775	0.007518	0.472712
C168	C	1.572108	0.340851	0.806045
C169	C	0.905541	-0.325631	0.069738
C170	C	1.238874	0.007702	0.403071
C171	C	1.572208	0.341036	0.736404
C172	C	0.945625	-0.282530	0.567974
C173	C	1.278958	0.050803	0.901307
C174	C	1.612292	0.384136	1.234640
C175	C	0.945624	-0.282501	0.633409
C176	C	1.278957	0.050832	0.966742
C177	C	1.612291	0.384165	1.300076
C178	C	0.905537	-0.325785	0.666099
C179	C	1.238870	0.007548	0.999432
C180	C	1.572203	0.340881	1.332766
C181	C	0.865436	-0.369089	0.633348
C182	C	1.198769	-0.035756	0.966682
C183	C	1.532102	0.297577	1.300015
C184	C	0.865433	-0.369112	0.567914
C185	C	1.198766	-0.035779	0.901247
C186	C	1.532100	0.297554	1.234581
C187	C	0.900565	-0.386731	0.769762
C188	C	1.233898	-0.053398	1.103095
C189	C	1.567232	0.279936	1.436428
C190	C	0.900572	-0.386709	0.835195
C191	C	1.233905	-0.053376	1.168528
C192	C	1.567238	0.279958	1.501861
C193	C	0.905540	-0.325714	0.867920
C194	C	1.238874	0.007620	1.201253
C195	C	1.572207	0.340953	1.534587
C196	C	0.910516	-0.264738	0.835204
C197	C	1.243849	0.068595	1.168538
C198	C	1.577182	0.401928	1.501871
C199	C	0.910513	-0.264762	0.769770
C200	C	1.243846	0.068572	1.103103
C201	C	1.577180	0.401905	1.436437
C202	C	0.905534	-0.325765	0.737051
C203	C	1.238868	0.007569	1.070385
C204	C	1.572201	0.340902	1.403718
C205	C	0.945635	-0.282378	0.971615
C206	C	1.278968	0.050956	1.304949
C207	C	1.612302	0.384289	1.638282
C208	C	0.945630	-0.282347	1.037052
C209	C	1.278963	0.050986	1.370385
C210	C	1.612296	0.384319	1.703719
C211	C	0.865444	-0.368941	1.036990
C212	C	1.198778	-0.035608	1.370323
C213	C	1.532111	0.297725	1.703657
C214	C	0.865446	-0.368966	0.971555
C215	C	1.198780	-0.035632	1.304888
C216	C	1.532113	0.297701	1.638221
C217	C	0.905545	-0.325685	0.938871
C218	C	1.238878	0.007649	1.272205
C219	C	1.572212	0.340982	1.605538
H220	H	0.263297	-0.247178	0.229658
H221	H	0.596630	0.086156	0.562992
H222	H	0.929963	0.419489	0.896325
O223	O	0.822088	-0.574215	0.385334
O224	O	1.155421	-0.240882	0.718668
O225	O	1.488754	0.092452	1.052001
H226	H	0.828809	-0.519120	0.378608
H227	H	1.162142	-0.185787	0.711941
H228	H	1.495476	0.147547	1.045275
O229	O	0.988786	-0.721038	0.218983
O230	O	1.322120	-0.387704	0.552317
O231	O	1.655453	-0.054371	0.885650
H232	H	1.016643	-0.684567	0.191144
H233	H	1.349977	-0.351233	0.524477
H234	H	1.683310	-0.017900	0.857810
H235	H	0.465238	-0.335727	0.404552
H236	H	0.798571	-0.002394	0.737886
H237	H	1.131904	0.330939	1.071219
H238	H	0.914563	-0.215070	0.861848
H239	H	1.247896	0.118263	1.195181
H240	H	1.581229	0.451596	1.528514
O241	O	0.822194	-0.415770	0.668605
O242	O	1.155528	-0.082437	1.001938
O243	O	1.488861	0.250896	1.335271
H244	H	0.832905	-0.468895	0.656049
H245	H	1.166239	-0.135562	0.989382
H246	H	1.499572	0.197771	1.322716
H247	H	0.346526	-0.335697	0.404594
H248	H	0.679859	-0.002364	0.737927
H249	H	1.013192	0.330969	1.071261
O250	O	0.271981	-0.415938	0.385357
O251	O	0.605314	-0.082604	0.718690
O252	O	0.938648	0.250729	1.052023
H253	H	0.238242	-0.446067	0.413187
H254	H	0.571576	-0.112734	0.746521
H255	H	0.904909	0.220599	1.079854
O256	O	0.988880	-0.235698	0.936357
O257	O	1.322213	0.097635	1.269691
O258	O	1.655547	0.430969	1.603024
H259	H	0.960856	-0.201284	0.906517
H260	H	1.294189	0.132049	1.239851
H261	H	1.627522	0.465382	1.573184
O262	O	0.135964	-0.415997	0.385321
O263	O	0.469298	-0.082664	0.718654
O264	O	0.802631	0.250670	1.051987
H265	H	0.169713	-0.446189	0.413083
H266	H	0.503046	-0.112856	0.746416
H267	H	0.836380	0.220478	1.079749
H268	H	0.832782	-0.404372	0.541255
H269	H	1.166115	-0.071039	0.874588
H270	H	1.499448	0.262294	1.207922
H271	H	0.978277	-0.247083	1.063710
H272	H	1.311611	0.086251	1.397044
H273	H	1.644944	0.419584	1.730377
O274	O	0.135944	-0.235695	0.219124
O275	O	0.469278	0.097638	0.552457
O276	O	0.802611	0.430971	0.885791
H277	H	0.084948	-0.242972	0.225855
H278	H	0.418282	0.090361	0.559188
H279	H	0.751615	0.423695	0.892522
H280	H	0.666960	-0.404574	0.374638
H281	H	1.000294	-0.071240	0.707971
H282	H	1.333627	0.262093	1.041305
H283	H	0.978276	-0.247287	0.541367
H284	H	1.311609	0.086046	0.874700
H285	H	1.644942	0.419380	1.208034
O286	O	0.539600	-0.416024	0.385230
O287	O	0.872933	-0.082690	0.718563
O288	O	1.206266	0.250643	1.051897
H289	H	0.573346	-0.446191	0.413018
H290	H	0.906679	-0.112858	0.746351
H291	H	1.240012	0.220475	1.079685
O292	O	0.822184	-0.415660	0.936244
O293	O	1.155518	-0.082326	1.269578
O294	O	1.488851	0.251007	1.602911
H295	H	0.832890	-0.468780	0.948802
H296	H	1.166224	-0.135447	1.282136
H297	H	1.499557	0.197886	1.615469
H298	H	0.978265	-0.939220	0.229597
H299	H	1.311598	-0.605887	0.562930
H300	H	1.644931	-0.272554	0.896263
O301	O	0.822200	-0.415622	1.072239
O302	O	1.155534	-0.082289	1.405573
O303	O	1.488867	0.251045	1.738906
H304	H	0.832913	-0.468747	1.059685
H305	H	1.166246	-0.135414	1.393019
H306	H	1.499579	0.197920	1.726352
H307	H	0.896351	-0.436388	0.743122
H308	H	1.229684	-0.103055	1.076455
H309	H	1.563018	0.230278	1.409789
H310	H	0.832804	-0.939318	0.374817
H311	H	1.166137	-0.605985	0.708151
H312	H	1.499471	-0.272652	1.041484
O313	O	0.988926	-1.076792	0.219052
O314	O	1.322259	-0.743459	0.552385
O315	O	1.655592	-0.410126	0.885719
H316	H	0.982221	-1.131888	0.225791
H317	H	1.315554	-0.798555	0.559124
H318	H	1.648888	-0.465222	0.892458
O319	O	0.988874	-0.235803	0.668737
O320	O	1.322207	0.097531	1.002071
O321	O	1.655541	0.430864	1.335404
H322	H	1.016759	-0.205715	0.635017
H323	H	1.350093	0.127618	0.968351
H324	H	1.683426	0.460952	1.301684
O325	O	0.822257	-1.076913	0.385416
O326	O	1.155591	-0.743580	0.718749
O327	O	1.488924	-0.410246	1.052082
H328	H	0.794375	-1.040481	0.413248
H329	H	1.127708	-0.707148	0.746581
H330	H	1.461041	-0.373815	1.079914
H331	H	0.832734	-0.711798	0.374778
H332	H	1.166067	-0.378464	0.708111
H333	H	1.499401	-0.045131	1.041445
H334	H	0.346319	-0.316007	0.199786
H335	H	0.679652	0.017327	0.533120
H336	H	1.012986	0.350660	0.866453
O337	O	0.895199	-0.452470	0.870480
O338	O	1.228533	-0.119137	1.203813
O339	O	1.561866	0.214197	1.537147
H340	H	0.891728	-0.494886	0.836733
H341	H	1.225062	-0.161553	1.170066
H342	H	1.558395	0.171780	1.503399
O343	O	0.473663	-0.314599	0.184824
O344	O	0.806996	0.018735	0.518158
O345	O	1.140330	0.352068	0.851491
H346	H	0.439879	-0.310826	0.145588
H347	H	0.773213	0.022508	0.478921
H348	H	1.106546	0.355841	0.812254
H349	H	0.548223	-0.247239	0.229561
H350	H	0.881556	0.086094	0.562894
H351	H	1.214890	0.419427	0.896227
H352	H	0.914562	-0.215113	0.743136
H353	H	1.247896	0.118220	1.076469
H354	H	1.581229	0.451553	1.409802
O355	O	0.675590	-0.235814	0.218935
O356	O	1.008923	0.097520	0.552268
O357	O	1.342256	0.430853	0.885602
H358	H	0.641842	-0.205668	0.191129
H359	H	0.975175	0.127666	0.524462
H360	H	1.308509	0.460999	0.857796
H361	H	0.978146	-0.583461	0.229535
H362	H	1.311479	-0.250128	0.562868
H363	H	1.644813	0.083206	0.896202
