data_functionalizedCrystal
_audit_creation_method	'MofGen! by Chris Wilmer'
_symmetry_space_group_name_H-M	'P1'
_symmetry_Int_Tables_number	1
_symmetry_cell_setting	triclinic
loop_
_symmetry_equiv_pos_as_xyz
  x,y,z
_cell_length_a	12.759395
_cell_length_b	12.594516
_cell_length_c	12.759387
_cell_angle_alpha	90.029359
_cell_angle_beta	90.021028
_cell_angle_gamma	90.018934
loop_
_atom_site_label
_atom_site_type_symbol
_atom_site_fract_x
_atom_site_fract_y
_atom_site_fract_z
Zn1	Zn	1.606243	-0.423664	0.594030
Zn2	Zn	1.606123	-0.601682	0.418355
Zn3	Zn	1.430542	-0.423720	0.418365
Zn4	Zn	1.430523	-0.601604	0.593993
O5	O	1.518358	-0.512667	0.506186
O6	O	1.753249	-0.447288	0.570738
O7	O	1.582789	-0.578131	0.271335
O8	O	1.453907	-0.274767	0.441688
O9	O	1.753160	-0.578077	0.441670
O10	O	1.582994	-0.274726	0.570748
O11	O	1.453790	-0.447383	0.271343
O12	O	1.283518	-0.447307	0.441651
O13	O	1.453875	-0.577944	0.741019
O14	O	1.283505	-0.577998	0.570684
O15	O	1.582976	-0.447212	0.741046
O16	O	1.582772	-0.750617	0.441634
O17	O	1.453759	-0.750560	0.570674
C18	C	1.245390	-0.512651	0.506165
C19	C	1.128614	-0.512669	0.506181
C20	C	0.909271	-0.376722	0.640832
C21	C	0.964183	-0.308726	0.708127
C22	C	1.073904	-0.308708	0.708109
C23	C	1.128716	-0.376696	0.640790
C24	C	1.073804	-0.444692	0.573495
C25	C	0.964080	-0.444700	0.573518
C26	C	1.073702	-0.580665	0.438886
C27	C	0.963980	-0.580680	0.438898
C28	C	1.128514	-0.648653	0.371568
C29	C	1.073601	-0.716645	0.304265
C30	C	0.963873	-0.716659	0.304286
C31	C	0.909068	-0.648676	0.371602
C32	C	1.518279	-0.789208	0.506171
C33	C	1.518341	-0.907514	0.506200
C34	C	1.448228	-1.047538	0.576350
C35	C	1.544010	-0.976624	0.602123
C36	C	1.422569	-0.976856	0.480474
C37	C	1.614345	-1.047386	0.532062
C38	C	1.492839	-1.047623	0.410369
C39	C	1.588687	-0.976742	0.436105
C40	C	1.792391	-0.512685	0.506207
C41	C	1.909168	-0.512692	0.506216
C42	C	1.518437	-0.512563	0.780219
C43	C	1.518471	-0.512519	0.896996
C44	C	1.518466	-0.235047	0.506223
C45	C	1.518512	-0.116741	0.506239
C46	C	1.518339	-0.512695	0.233218
C47	C	1.518509	-0.512439	0.116442
C48	C	1.652913	-0.376397	0.897045
C49	C	1.720148	-0.308321	0.951930
C50	C	1.720174	-0.308282	1.061652
C51	C	1.652954	-0.376325	1.116491
C52	C	1.585719	-0.444401	1.061606
C53	C	1.585703	-0.444435	0.951881
C54	C	1.451273	-0.580516	1.061557
C55	C	1.451252	-0.580562	0.951835
C56	C	1.384054	-0.648559	1.116396
C57	C	1.316822	-0.716642	1.061511
C58	C	1.316800	-0.716679	0.951783
C59	C	1.384016	-0.648638	0.896950
H60	H	1.218057	-0.376684	0.640791
O61	O	1.246856	-0.648625	0.371527
H62	H	1.275834	-0.589909	0.429616
O63	O	1.315180	-0.935874	0.451572
H64	H	1.257056	-0.964264	0.509887
O65	O	1.244321	-0.790020	1.120653
H66	H	1.255632	-0.778553	1.206170
O67	O	1.132719	-0.789959	0.231658
H68	H	1.182727	-0.844161	0.278580
O69	O	0.904646	-0.789993	0.231697
H70	H	0.961197	-0.837254	0.184882
O71	O	1.667402	-0.935809	0.357547
H72	H	1.746859	-0.964205	0.379166
O73	O	1.464136	-1.088972	0.303028
H74	H	1.384495	-1.060779	0.281830
H75	H	0.819727	-0.648668	0.371612
O76	O	1.652886	-0.376445	0.778702
H77	H	1.710917	-0.317693	0.749790
O78	O	0.905060	-0.235402	0.780731
H79	H	0.961678	-0.188125	0.827527
O80	O	1.369690	-1.088725	0.654957
H81	H	1.391186	-1.060285	0.734462
O82	O	1.572684	-0.935293	0.709485
H83	H	1.514299	-0.963635	0.767561
H84	H	1.384076	-0.648518	1.205737
H85	H	1.774875	-0.252920	0.907268
H86	H	1.118614	-0.253342	0.762908
H87	H	1.774916	-0.252841	1.106339
O88	O	1.652970	-0.376280	1.234833
H89	H	1.711015	-0.317511	1.263785
O90	O	1.721758	-1.088241	0.561050
H91	H	1.720974	-1.176366	0.560883
O92	O	1.244261	-0.790085	0.892584
H93	H	1.197525	-0.837384	0.949155
O94	O	1.384000	-0.648697	0.778607
H95	H	1.304762	-0.627192	0.749659
H96	H	0.819930	-0.376707	0.640830
