data_functionalizedCrystal
_audit_creation_method	'MofGen! by Chris Wilmer'
_symmetry_space_group_name_H-M	'P1'
_symmetry_Int_Tables_number	1
_symmetry_cell_setting	triclinic
loop_
_symmetry_equiv_pos_as_xyz
  x,y,z
_cell_length_a	12.837942
_cell_length_b	12.837943
_cell_length_c	11.295483
_cell_angle_alpha	94.538773
_cell_angle_beta	94.530417
_cell_angle_gamma	85.171060
loop_
_atom_site_label
_atom_site_type_symbol
_atom_site_fract_x
_atom_site_fract_y
_atom_site_fract_z
O1	O	0.265788	-1.408689	-0.099003
O2	O	0.765788	-0.908689	0.400997
O3	O	0.252345	-1.105556	-0.099010
O4	O	0.752345	-0.605556	0.400990
O5	O	0.107500	-1.250401	-0.098999
O6	O	0.607500	-0.750401	0.401001
O7	O	0.410633	-1.263845	-0.099013
O8	O	0.910633	-0.763845	0.400987
O9	O	0.120201	-1.237676	0.099051
O10	O	0.620201	-0.737676	0.599051
O11	O	0.265045	-1.092832	0.099040
O12	O	0.765045	-0.592832	0.599040
O13	O	0.278489	-1.395965	0.099047
O14	O	0.778489	-0.895965	0.599047
Cu15	Cu	0.272927	-1.243237	0.117127
Cu16	Cu	0.772927	-0.743237	0.617127
Cu17	Cu	0.257907	-1.258285	-0.117090
Cu18	Cu	0.757907	-0.758285	0.382910
O19	O	0.423333	-1.251121	0.099037
O20	O	0.923333	-0.751121	0.599037
C21	C	0.254153	-1.060125	0.000014
C22	C	0.754153	-0.560125	0.500014
C23	C	0.240609	-0.943710	0.000012
C24	C	0.740609	-0.443710	0.500012
C25	C	0.074781	-1.239497	0.000025
C26	C	0.574781	-0.739497	0.500025
C27	C	-0.041634	-1.225953	0.000023
C28	C	0.458366	-0.725953	0.500023
C29	C	0.276680	-1.441396	0.000021
C30	C	0.776680	-0.941396	0.500021
C31	C	0.290224	-1.557812	0.000015
C32	C	0.790224	-1.057812	0.500015
C33	C	-0.266509	-1.388784	0.000002
C34	C	0.233491	-0.888784	0.500002
C35	C	-0.375892	-1.376062	-0.000000
C36	C	0.124108	-0.876062	0.500000
C37	C	-0.369784	-1.187791	0.000008
C38	C	0.130216	-0.687791	0.500008
C39	C	-0.260402	-1.200512	0.000010
C40	C	0.239598	-0.700512	0.500010
C41	C	-0.208768	-1.301011	0.000009
C42	C	0.291232	-0.801011	0.500009
C43	C	-0.099383	-1.313731	0.000020
C44	C	0.400617	-0.813731	0.500020
C45	C	-0.093278	-1.125461	0.000019
C46	C	0.406722	-0.625461	0.500019
C47	C	-0.202660	-1.112740	0.000017
C48	C	0.297340	-0.612740	0.500017
C49	C	0.456052	-1.262024	0.000010
C50	C	0.956052	-0.762024	0.500010
C51	C	0.572467	-1.275569	0.000004
C52	C	1.072467	-0.775569	0.500004
N53	N	0.283491	-1.232661	0.281863
N54	N	0.783491	-0.732661	0.781863
C55	C	0.403439	-0.718835	0.000021
C56	C	0.903439	-0.218835	0.500021
C57	C	0.390717	-0.609453	0.000020
C58	C	0.890717	-0.109453	0.500020
C59	C	0.202446	-0.615561	0.000016
C60	C	0.702446	-0.115561	0.500016
C61	C	0.215167	-0.724943	0.000017
C62	C	0.715167	-0.224943	0.500017
C63	C	0.315667	-0.776576	0.000018
C64	C	0.815667	-0.276576	0.500018
C65	C	0.328387	-0.885961	0.000011
C66	C	0.828387	-0.385961	0.500011
C67	C	0.140117	-0.892066	0.000016
C68	C	0.640117	-0.392066	0.500016
C69	C	0.127396	-0.782684	0.000015
C70	C	0.627396	-0.282684	0.500015
N71	N	0.247335	-1.268868	-0.281825
N72	N	0.747335	-0.768868	0.218175
C73	C	0.171231	-1.344996	0.531161
C74	C	0.671231	-0.844996	1.031161
C75	C	0.179223	-1.337012	0.655824
C76	C	0.679223	-0.837012	1.155824
C77	C	0.307459	-1.208702	0.655854
C78	C	0.807459	-0.708702	1.155854
C79	C	0.299467	-1.216687	0.531191
C80	C	0.799467	-0.716687	1.031191
C81	C	0.231353	-1.284837	0.468849
C82	C	0.731353	-0.784837	0.968849
C83	C	0.223367	-1.292826	0.344183
C84	C	0.723367	-0.792826	0.844183
C85	C	0.351597	-1.164512	0.344216
C86	C	0.851597	-0.664512	0.844216
C87	C	0.359589	-1.156528	0.468879
C88	C	0.859589	-0.656528	0.968879
H89	H	-0.057344	-1.395563	0.000023
H90	H	0.442656	-0.895563	0.500023
F91	F	0.435345	-0.940912	0.000008
F92	F	0.935345	-0.440912	0.500008
F93	F	0.095497	-0.560590	0.000029
F94	F	0.595497	-0.060590	0.500029
H95	H	0.167908	-1.348320	0.293425
H96	H	0.667908	-0.848320	0.793425
H97	H	0.415044	-1.101038	0.519653
H98	H	0.915044	-0.601038	1.019653
H99	H	0.400555	-1.115530	0.293468
H100	H	0.900555	-0.615530	0.793468
H101	H	0.115777	-1.400494	0.480401
H102	H	0.615777	-0.900494	0.980401
F103	F	0.510395	-0.773791	0.000008
F104	F	1.010395	-0.273791	0.500008
F105	F	-0.257625	-1.005787	0.000008
F106	F	0.242375	-0.505787	0.500008
F107	F	-0.424756	-1.080842	-0.000021
F108	F	0.075244	-0.580842	0.499979
H109	H	0.462191	-0.562444	0.000025
H110	H	0.962191	-0.062444	0.500025
F111	F	0.046697	-0.953527	-0.000002
F112	F	0.546697	-0.453527	0.499998
F113	F	0.020443	-0.727720	0.000018
F114	F	0.520443	-0.227720	0.500018
H115	H	-0.224468	-1.470613	0.000013
H116	H	0.275532	-0.970613	0.500013
F117	F	0.115231	-1.401039	0.722137
F118	F	0.615231	-0.901039	1.222137
H119	H	0.362909	-1.153209	0.706630
H120	H	0.862909	-0.653209	1.206630
H121	H	-0.422901	-1.447536	-0.000010
H122	H	0.077099	-0.947536	0.499990
F123	F	-0.031817	-1.032041	0.000039
F124	F	0.468183	-0.532041	0.500039
