data_functionalizedCrystal
_audit_creation_method	'MofGen! by Chris Wilmer'
_symmetry_space_group_name_H-M	'P1'
_symmetry_Int_Tables_number	1
_symmetry_cell_setting	triclinic
loop_
_symmetry_equiv_pos_as_xyz
  x,y,z
_cell_length_a	15.995300
_cell_length_b	17.038274
_cell_length_c	15.500227
_cell_angle_alpha	86.974526
_cell_angle_beta	87.154472
_cell_angle_gamma	92.708204
loop_
_atom_site_label
_atom_site_type_symbol
_atom_site_fract_x
_atom_site_fract_y
_atom_site_fract_z
O1	O	1.121816	-0.096958	-0.071992
O2	O	0.878924	-0.109444	-0.071988
O3	O	0.998925	0.010613	-0.071966
O4	O	1.001815	-0.217015	-0.072014
O5	O	0.991641	0.003357	0.071921
O6	O	0.871640	-0.116701	0.071899
O7	O	1.114532	-0.104215	0.071896
Cu8	Cu	0.992421	-0.111120	0.085035
Cu9	Cu	1.001035	-0.102538	-0.085128
O10	O	0.994531	-0.224272	0.071873
C11	C	0.844051	-0.112563	-0.000044
C12	C	0.750989	-0.111037	-0.000042
C13	C	0.580606	-0.108217	-0.000048
C14	C	0.539230	-0.193700	-0.000064
C15	C	0.442448	-0.192124	-0.000392
C16	C	0.412851	-0.105442	-0.000053
C17	C	0.455114	-0.058894	-0.082048
C18	C	0.551905	-0.061054	-0.082115
C19	C	0.543810	-0.068041	0.081517
C20	C	0.446812	-0.068103	0.082593
C21	C	0.318044	-0.103868	-0.000058
C22	C	0.675413	-0.109787	-0.000048
C23	C	0.992657	0.036113	-0.000018
C24	C	0.984822	0.122906	-0.000005
C25	C	1.056751	0.173014	0.000002
C26	C	1.049384	0.254565	0.000006
C27	C	0.970087	0.286006	0.000009
C28	C	0.898153	0.235891	-0.000000
C29	C	0.905521	0.154342	-0.000010
C30	C	0.944059	0.531764	0.000035
C31	C	0.936697	0.613320	0.000048
C32	C	1.087928	0.631988	0.000052
C33	C	1.095289	0.550436	0.000047
C34	C	1.023355	0.500329	0.000033
C35	C	0.962555	0.369364	0.000016
C36	C	1.030888	0.416973	0.000020
C37	C	1.149406	-0.101095	-0.000051
C38	C	1.242468	-0.102622	-0.000059
N39	N	0.986369	-0.117156	0.204719
C40	C	1.000797	0.750226	-0.000039
C41	C	1.008626	0.663428	0.000055
N42	N	1.007094	-0.096497	-0.204812
C43	C	1.037237	-0.066302	0.250005
C44	C	1.032668	-0.070874	0.340577
C45	C	0.977234	-0.126304	0.385862
C46	C	0.926359	-0.177160	0.340569
C47	C	0.930925	-0.172584	0.249999
C48	C	0.960785	-0.142776	0.659325
C49	C	0.956225	-0.147350	0.749902
C50	C	1.062534	-0.041063	0.749904
C51	C	1.067098	-0.036495	0.659332
C52	C	1.016220	-0.087348	0.614047
C53	C	0.972564	-0.130980	0.478441
C54	C	1.020887	-0.082667	0.521470
H55	H	0.557192	-0.231019	0.058726
H56	H	0.897991	0.394972	0.000021
H57	H	0.571061	-0.005055	0.082319
F58	F	0.582770	-0.096948	-0.162551
H59	H	0.872120	0.638914	0.000065
H60	H	1.107956	0.295361	0.000014
H61	H	1.082382	-0.021169	0.213141
H62	H	1.121322	0.147422	0.000004
H63	H	1.074089	-0.029465	0.377449
H64	H	0.431901	-0.084881	-0.143312
H65	H	0.419957	-0.222323	-0.059526
H66	H	0.418608	-0.102134	0.143255
H67	H	1.112237	0.008641	0.622463
F68	F	1.179688	0.516983	0.000022
F69	F	1.115279	0.383510	0.000011
H70	H	0.564222	-0.224580	-0.058789
H71	H	0.911082	-0.192491	0.786768
H72	H	0.919360	-0.184185	0.622462
H73	H	1.103955	0.000340	0.786783
F74	F	0.867499	0.478447	0.000018
F75	F	0.404456	-0.239561	0.076413
F76	F	1.164480	0.685321	0.000066
F77	F	1.079879	-0.023674	0.473274
H78	H	0.881219	-0.222290	0.377445
F79	F	0.813760	0.269355	-0.000006
F80	F	0.876780	-0.226708	0.201803
H81	H	0.927429	-0.176114	0.515319
F82	F	0.588477	0.021221	-0.086673
H83	H	0.436618	0.004952	-0.084854
H84	H	0.426707	-0.005156	0.087800
F85	F	0.569112	-0.108925	0.162777
H86	H	0.846948	0.113544	-0.000016
