data_functionalizedCrystal
_audit_creation_method	'MofGen! by Chris Wilmer'
_symmetry_space_group_name_H-M	'P1'
_symmetry_Int_Tables_number	1
_symmetry_cell_setting	triclinic
loop_
_symmetry_equiv_pos_as_xyz
  x,y,z
_cell_length_a	6.817900
_cell_length_b	14.858572
_cell_length_c	13.212940
_cell_angle_alpha	89.125246
_cell_angle_beta	106.299459
_cell_angle_gamma	104.524003
loop_
_atom_site_label
_atom_site_type_symbol
_atom_site_fract_x
_atom_site_fract_y
_atom_site_fract_z
V1	V	-4.045019	-0.277761	-0.145083
O2	O	-4.025322	-0.284970	0.006296
O3	O	-4.003013	-0.263843	-0.287024
O4	O	-4.001570	-0.404386	-0.143148
O5	O	-4.026774	-0.143455	-0.138577
V6	V	-4.527177	-0.263157	-0.126941
O7	O	-4.309272	-0.309797	-0.184878
O8	O	-4.713122	-0.231122	-0.087146
O9	O	-4.345978	-0.277075	0.015001
O10	O	-4.664272	-0.255948	-0.278320
O11	O	-4.662820	-0.397464	-0.133447
O12	O	-4.347420	-0.136533	-0.128876
C13	C	-3.847567	-0.435635	-0.138087
C14	C	-3.893368	-0.539072	-0.137444
C15	C	-3.849408	-0.256360	-0.321618
C16	C	-3.896383	-0.245825	-0.437659
C17	C	-4.061002	-0.917838	-0.135094
C18	C	-4.014353	-0.812453	-0.135748
C19	C	-3.977187	-0.728458	-0.136270
C20	C	-3.930535	-0.623067	-0.136922
C21	C	-4.164765	-0.105278	-0.133940
C22	C	-4.098202	-0.001841	-0.134578
C23	C	-4.073302	-0.393836	-0.685915
C24	C	-4.117440	-0.383941	-0.794947
C25	C	-4.028785	-0.216141	-0.764756
C26	C	-3.984647	-0.226036	-0.655724
C27	C	-4.006911	-0.314886	-0.616308
C28	C	-3.962786	-0.324780	-0.507275
C29	C	-3.874118	-0.156981	-0.477085
C30	C	-3.918256	-0.147086	-0.586117
C31	C	-4.162924	-0.284555	0.049588
C32	C	-4.095188	-0.295096	0.165628
H33	H	-3.980938	-0.397127	-0.475186
H34	H	-3.900129	-0.074746	-0.618224
Br35	Br	-4.207525	-0.491091	-0.889412
H36	H	-4.091473	-0.466182	-0.653824
Br37	Br	-3.998555	-0.095567	-0.818267
Br38	Br	-3.783943	-0.049827	-0.382610
