data_functionalizedCrystal
_audit_creation_method	'MofGen! by Chris Wilmer'
_symmetry_space_group_name_H-M	'P1'
_symmetry_Int_Tables_number	1
_symmetry_cell_setting	triclinic
loop_
_symmetry_equiv_pos_as_xyz
  x,y,z
_cell_length_a	15.297475
_cell_length_b	29.839131
_cell_length_c	15.296720
_cell_angle_alpha	99.631078
_cell_angle_beta	91.617114
_cell_angle_gamma	80.335685
loop_
_atom_site_label
_atom_site_type_symbol
_atom_site_fract_x
_atom_site_fract_y
_atom_site_fract_z
Zn1	Zn	1.253272	-0.349615	-0.726427
Zn2	Zn	1.753272	0.150385	-0.226427
Zn3	Zn	1.278510	-0.414300	-0.579911
Zn4	Zn	1.778510	0.085700	-0.079911
Zn5	Zn	1.132159	-0.324379	-0.554680
Zn6	Zn	1.632159	0.175621	-0.054680
Zn7	Zn	1.106738	-0.409884	-0.701042
Zn8	Zn	1.606738	0.090116	-0.201042
O9	O	1.192670	-0.374545	-0.640515
O10	O	1.692670	0.125455	-0.140515
O11	O	1.379193	-0.370605	-0.728175
O12	O	1.879193	0.129395	-0.228175
O13	O	1.280298	-0.393658	-0.453994
O14	O	1.780298	0.106342	0.046006
O15	O	1.148301	-0.264872	-0.577528
O16	O	1.648301	0.235128	-0.077528
O17	O	1.397736	-0.418129	-0.620530
O18	O	1.897736	0.081871	-0.120530
O19	O	1.237282	-0.283413	-0.703709
O20	O	1.737282	0.216587	-0.203709
O21	O	1.172774	-0.327594	-0.435457
O22	O	1.672774	0.172406	0.064543
O23	O	1.006213	-0.323312	-0.552912
O24	O	1.506213	0.176688	-0.052912
O25	O	1.104975	-0.410603	-0.826979
O26	O	1.604975	0.089397	-0.326979
O27	O	0.987537	-0.386133	-0.660443
O28	O	1.487537	0.113867	-0.160443
O29	O	1.212633	-0.366324	-0.845630
O30	O	1.712633	0.133676	-0.345630
O31	O	1.255648	-0.476569	-0.595915
O32	O	1.755648	0.023431	-0.095915
O33	O	1.129448	-0.473325	-0.684909
O34	O	1.629448	0.026675	-0.184909
C35	C	0.965093	-0.351505	-0.601186
C36	C	1.465093	0.148495	-0.101186
C37	C	0.867731	-0.341661	-0.584381
C38	C	1.367731	0.158339	-0.084381
C39	C	0.554547	-0.444906	-0.760621
C40	C	1.054547	0.055094	-0.260621
C41	C	0.646024	-0.454158	-0.776407
C42	C	1.146024	0.045842	-0.276407
C43	C	0.701455	-0.426035	-0.728402
C44	C	1.201455	0.073965	-0.228402
C45	C	0.665401	-0.388657	-0.664608
C46	C	1.165401	0.111343	-0.164608
C47	C	0.573916	-0.379406	-0.648816
C48	C	1.073916	0.120594	-0.148816
C49	C	0.720824	-0.360535	-0.616597
C50	C	1.220824	0.139465	-0.116597
C51	C	0.684770	-0.323158	-0.552803
C52	C	1.184770	0.176842	-0.052803
C53	C	0.593293	-0.313908	-0.537014
C54	C	1.093293	0.186092	-0.037014
C55	C	0.537862	-0.342032	-0.585018
C56	C	1.037862	0.157968	-0.085018
C57	C	0.812309	-0.369786	-0.632390
C58	C	1.312309	0.130214	-0.132390
C59	C	0.831678	-0.304287	-0.520584
C60	C	1.331678	0.195713	-0.020584
C61	C	0.740201	-0.295034	-0.504798
C62	C	1.240201	0.204966	-0.004798
C63	C	1.192549	-0.491249	-0.640418
C64	C	1.692549	0.008751	-0.140418
C65	C	1.192572	-0.541185	-0.640420
C66	C	1.692572	-0.041185	-0.140420
C67	C	1.238976	-0.860469	-0.706296
C68	C	1.738976	-0.360469	-0.206296
C69	C	1.239062	-1.048155	-0.706365
C70	C	1.739062	-0.548155	-0.206365
O71	O	1.278395	-1.080600	-0.762297
O72	O	1.778395	-0.580600	-0.262297
N73	N	1.192802	-1.062009	-0.640638
N74	N	1.692802	-0.562009	-0.140638
C75	C	1.146512	-1.028937	-0.574893
C76	C	1.646512	-0.528937	-0.074893
O77	O	1.107159	-1.045027	-0.518995
O78	O	1.607159	-0.545027	-0.018995
C79	C	1.146421	-0.841251	-0.574828
C80	C	1.646421	-0.341251	-0.074828
C81	C	1.192692	-0.827401	-0.640554
C82	C	1.692692	-0.327401	-0.140554
C83	C	1.285242	-0.846618	-0.772017
C84	C	1.785242	-0.346618	-0.272017
C85	C	1.285224	-0.799699	-0.771996
C86	C	1.785224	-0.299699	-0.271996
C87	C	1.238940	-0.766631	-0.706254
C88	C	1.738940	-0.266631	-0.206254
C89	C	1.192674	-0.780482	-0.640533
C90	C	1.692674	-0.280482	-0.140533
C91	C	1.100126	-0.808180	-0.509087
C92	C	1.600126	-0.308180	-0.009087
C93	C	1.100106	-0.761257	-0.509078
C94	C	1.600106	-0.261257	-0.009078
C95	C	1.146377	-0.747407	-0.574804
C96	C	1.646377	-0.247407	-0.074804
C97	C	1.146372	-0.700496	-0.574771
C98	C	1.646372	-0.200496	-0.074771
N99	N	1.192632	-0.686642	-0.640497
N100	N	1.692632	-0.186642	-0.140497
C101	C	1.238916	-0.719710	-0.706239
C102	C	1.738916	-0.219710	-0.206239
C103	C	1.146564	-1.127475	-0.574930
C104	C	1.646564	-0.627475	-0.074930
C105	C	1.146588	-1.174396	-0.574945
C106	C	1.646588	-0.674396	-0.074945
C107	C	1.239137	-1.193612	-0.706418
C108	C	1.739137	-0.693612	-0.206418
C109	C	1.239118	-1.146690	-0.706399
C110	C	1.739118	-0.646690	-0.206399
C111	C	1.192824	-1.113622	-0.640657
C112	C	1.692824	-0.613622	-0.140657
C113	C	1.238876	-0.621177	-0.706190
C114	C	1.738876	-0.121177	-0.206190
C115	C	1.238857	-0.574253	-0.706162
C116	C	1.738857	-0.074253	-0.206162
C117	C	1.146304	-0.555042	-0.574692
C118	C	1.646304	-0.055042	-0.074692
C119	C	1.146326	-0.601962	-0.574717
C120	C	1.646326	-0.101962	-0.074717
C121	C	1.192614	-0.635029	-0.640474
C122	C	1.692614	-0.135029	-0.140474
O123	O	1.107051	-0.668027	-0.518873
O124	O	1.607051	-0.168027	-0.018873
O125	O	1.278247	-0.703611	-0.762140
O126	O	1.778247	-0.203611	-0.262140
C127	C	1.238994	-0.907388	-0.706316
C128	C	1.738994	-0.407388	-0.206316
C129	C	1.192728	-0.921239	-0.640595
C130	C	1.692728	-0.421239	-0.140595
C131	C	1.146444	-0.888171	-0.574854
C132	C	1.646444	-0.388171	-0.074854
C133	C	1.192752	-0.968160	-0.640610
C134	C	1.692752	-0.468160	-0.140610
C135	C	1.239036	-1.001228	-0.706352
C136	C	1.739036	-0.501228	-0.206352
C137	C	1.285296	-0.987374	-0.772079
C138	C	1.785296	-0.487374	-0.272079
C139	C	1.285278	-0.940456	-0.772058
C140	C	1.785278	-0.440456	-0.272058
C141	C	1.100183	-0.902024	-0.509127
C142	C	1.600183	-0.402024	-0.009127
C143	C	1.100206	-0.948944	-0.509152
C144	C	1.600206	-0.448944	-0.009152
C145	C	1.146490	-0.982012	-0.574894
C146	C	1.646490	-0.482012	-0.074894
C147	C	1.421135	-0.397675	-0.679998
C148	C	1.921135	0.102325	-0.179998
C149	C	1.518493	-0.407531	-0.696824
C150	C	2.018493	0.092469	-0.196824
C151	C	1.153153	-0.390786	-0.868974
C152	C	1.653153	0.109214	-0.368974
C153	C	1.136313	-0.397707	-0.966330
C154	C	1.636313	0.102293	-0.466330
C155	C	1.192812	-0.257389	-0.640636
C156	C	1.692812	0.242611	-0.140636
C157	C	1.192872	-0.207464	-0.640687
C158	C	1.692872	0.292536	-0.140687
C159	C	1.313058	-0.325004	-1.279603
C160	C	1.813058	0.174996	-0.779603
C161	C	1.328886	-0.318503	-1.188133
C162	C	1.828886	0.181497	-0.688133
C163	C	1.280744	-0.338303	-1.132678
C164	C	1.780744	0.161697	-0.632678
C165	C	1.216772	-0.364606	-1.168701
C166	C	1.716772	0.135394	-0.668701
C167	C	1.200948	-0.371111	-1.260181
C168	C	1.700948	0.128889	-0.760181
C169	C	1.168634	-0.384410	-1.113256
C170	C	1.668634	0.115590	-0.613256
C171	C	1.104662	-0.410713	-1.149279
C172	C	1.604662	0.089287	-0.649279
C173	C	1.088841	-0.417216	-1.240750
C174	C	1.588841	0.082784	-0.740750
C175	C	1.136983	-0.397416	-1.296205
C176	C	1.636983	0.102584	-0.796205
C177	C	1.184458	-0.377905	-1.021777
C178	C	1.684458	0.122095	-0.521777
C179	C	1.072348	-0.424012	-1.002355
C180	C	1.572348	0.075988	-0.502355
C181	C	1.056520	-0.430513	-1.093824
C182	C	1.556520	0.069487	-0.593824
C183	C	1.232083	-0.358340	-0.412953
C184	C	1.732083	0.141660	0.087047
C185	C	1.249093	-0.351309	-0.315627
C186	C	1.749093	0.148691	0.184373
H187	H	1.276539	-0.562979	-0.759684
H188	H	1.776539	-0.062979	-0.259684
H189	H	1.004434	-0.451929	-1.123168
H190	H	1.504434	0.048071	-0.623168
H191	H	0.841655	-0.400219	-0.684332
H192	H	1.341655	0.099781	-0.184332
O193	O	0.800120	-0.436011	-0.745424
O194	O	1.300120	0.063989	-0.245424
H195	H	0.815879	-0.466724	-0.797852
H196	H	1.315879	0.033276	-0.297852
H197	H	1.352253	-0.308889	-1.324763
H198	H	1.852253	0.191111	-0.824763
H199	H	0.463373	-0.334500	-0.572170
H200	H	0.963373	0.165500	-0.072170
H201	H	1.124100	-0.402708	-1.370688
H202	H	1.624100	0.097292	-0.870688
O203	O	1.297802	-0.331288	-1.034019
O204	O	1.797802	0.168712	-0.534019
H205	H	1.350365	-0.309668	-1.018284
H206	H	1.850365	0.190332	-0.518284
O207	O	1.397879	-0.290137	-1.149278
O208	O	1.897879	0.209863	-0.649278
H209	H	1.428693	-0.277458	-1.203203
H210	H	1.928693	0.222542	-0.703203
O211	O	1.019844	-0.445585	-1.279609
O212	O	1.519844	0.054415	-0.779609
H213	H	0.989018	-0.458256	-1.225683
H214	H	1.489018	0.041744	-0.725683
H215	H	1.062492	-0.875103	-0.455593
H216	H	1.562492	-0.375103	0.044407
H217	H	1.062529	-0.960215	-0.455622
H218	H	1.562529	-0.460215	0.044378
O219	O	1.096647	-1.091811	-0.504007
O220	O	1.596647	-0.591811	-0.004007
H221	H	1.064500	-1.109333	-0.458304
H222	H	1.564500	-0.609333	0.041696
O223	O	1.288805	-0.656839	-0.777106
O224	O	1.788805	-0.156839	-0.277106
H225	H	1.320977	-0.639318	-0.822792
H226	H	1.820977	-0.139318	-0.322792
O227	O	1.335219	-1.023045	-0.842988
O228	O	1.835219	-0.523045	-0.342988
H229	H	1.308249	-1.017385	-0.909110
H230	H	1.808249	-0.517385	-0.409110
O231	O	1.253450	-0.349537	-0.982924
O232	O	1.753450	0.150463	-0.482924
H233	H	1.235433	-0.314012	-0.997918
H234	H	1.735433	0.185988	-0.497918
H235	H	1.276825	-1.220544	-0.759947
H236	H	1.776825	-0.720544	-0.259947
O237	O	1.020411	-0.445368	-0.942554
O238	O	1.520411	0.054632	-0.442554
H239	H	1.042153	-0.436421	-0.872894
H240	H	1.542153	0.063579	-0.372894
H241	H	1.062405	-0.734334	-0.455543
H242	H	1.562405	-0.234334	0.044457
O243	O	0.684911	-0.494465	-0.845215
O244	O	1.184911	0.005535	-0.345215
H245	H	0.631000	-0.512464	-0.875951
H246	H	1.131000	-0.012464	-0.375951
H247	H	0.509408	-0.467802	-0.799694
H248	H	1.009408	0.032198	-0.299694
H249	H	1.108623	-0.528111	-0.521163
H250	H	1.608623	-0.028111	-0.021163
O251	O	0.554401	-0.273597	-0.468206
O252	O	1.054401	0.226403	0.031794
H253	H	0.608310	-0.255592	-0.437483
H254	H	1.108310	0.244408	0.062517
O255	O	0.701295	-0.254728	-0.435986
O256	O	1.201295	0.245272	0.064014
H257	H	0.716251	-0.222333	-0.454177
H258	H	1.216251	0.277667	0.045823
O259	O	0.891450	-0.273947	-0.468804
O260	O	1.391450	0.226053	0.031196
H261	H	0.961117	-0.286656	-0.490510
H262	H	1.461117	0.213344	0.009490
O263	O	1.335193	-0.925526	-0.842950
O264	O	1.835193	-0.425526	-0.342950
H265	H	1.288254	-0.903346	-0.880700
H266	H	1.788254	-0.403346	-0.380700
H267	H	1.108657	-0.613239	-0.521192
H268	H	1.608657	-0.113239	-0.021192
H269	H	1.322899	-0.788426	-0.825518
H270	H	1.822899	-0.288426	-0.325518
H271	H	1.276795	-1.135416	-0.759919
H272	H	1.776795	-0.635416	-0.259919
O273	O	1.335171	-0.882282	-0.842927
O274	O	1.835171	-0.382282	-0.342927
H275	H	1.367339	-0.864759	-0.888613
H276	H	1.867339	-0.364759	-0.388613
H277	H	1.108920	-1.185669	-0.521417
H278	H	1.608920	-0.685669	-0.021417
H279	H	1.062448	-0.819448	-0.455566
H280	H	1.562448	-0.319448	0.044434
