data_functionalizedCrystal
_audit_creation_method	'MofGen! by Chris Wilmer'
_symmetry_space_group_name_H-M	'P1'
_symmetry_Int_Tables_number	1
_symmetry_cell_setting	triclinic
loop_
_symmetry_equiv_pos_as_xyz
  x,y,z
_cell_length_a	10.654562
_cell_length_b	14.519731
_cell_length_c	9.730223
_cell_angle_alpha	89.997677
_cell_angle_beta	89.996961
_cell_angle_gamma	84.089478
loop_
_atom_site_label
_atom_site_type_symbol
_atom_site_fract_x
_atom_site_fract_y
_atom_site_fract_z
O1	O	1.666592	0.129583	-0.114384
O2	O	2.166592	0.629583	0.385616
O3	O	1.300999	0.141911	-0.114367
O4	O	1.800999	0.641911	0.385633
O5	O	1.493475	0.001560	-0.114363
O6	O	1.993475	0.501560	0.385637
O7	O	1.474116	0.269934	-0.114387
O8	O	1.974116	0.769934	0.385613
O9	O	1.493472	0.001564	0.114217
O10	O	1.993472	0.501564	0.614217
O11	O	1.300996	0.141915	0.114213
O12	O	1.800996	0.641915	0.614213
O13	O	1.666590	0.129586	0.114196
O14	O	2.166590	0.629586	0.614196
Zn15	Zn	1.483793	0.135751	0.150497
Zn16	Zn	1.983793	0.635751	0.650497
Zn17	Zn	1.483796	0.135747	-0.150667
Zn18	Zn	1.983796	0.635747	0.349333
O19	O	1.474114	0.269937	0.114193
O20	O	1.974114	0.769937	0.614193
C21	C	1.254208	0.141006	-0.000075
C22	C	1.754208	0.641006	0.499925
C23	C	1.114792	0.138290	-0.000068
C24	C	1.614792	0.638290	0.499932
C25	C	1.049272	0.137025	0.124520
C26	C	1.549272	0.637025	0.624520
C27	C	0.918274	0.134481	0.124498
C28	C	1.418274	0.634481	0.624498
C29	C	0.918326	0.134470	-0.124713
C30	C	1.418326	0.634470	0.375287
C31	C	1.049323	0.137008	-0.124689
C32	C	1.549323	0.637008	0.375311
C33	C	1.049240	0.137035	0.268400
C34	C	1.549240	0.637035	0.768400
C35	C	0.918242	0.134491	0.268378
C36	C	1.418242	0.634491	0.768378
C37	C	1.492566	-0.032802	-0.000073
C38	C	1.992566	0.467198	0.499927
C39	C	1.489848	-0.135196	-0.000072
C40	C	1.989848	0.364804	0.499928
C41	C	1.487640	-0.218352	-0.000075
C42	C	1.987640	0.281648	0.499925
C43	C	1.484880	-0.322675	-0.000085
C44	C	1.984880	0.177325	0.499915
C45	C	1.482690	-0.405826	-0.000094
C46	C	1.982690	0.094174	0.499906
C47	C	1.479930	-0.510155	-0.000102
C48	C	1.979930	-0.010155	0.499898
C49	C	1.713380	0.130492	-0.000099
C50	C	2.213380	0.630492	0.499901
C51	C	1.852797	0.133208	-0.000115
C52	C	2.352797	0.633208	0.499885
C53	C	1.475022	0.304300	-0.000101
C54	C	1.975022	0.804300	0.499899
C55	C	1.477740	0.406694	-0.000111
C56	C	1.977740	0.906694	0.499889
N57	N	1.483800	0.135754	0.356033
N58	N	1.983800	0.635754	0.856033
N59	N	1.483799	0.135737	-0.356204
N60	N	1.983799	0.635737	0.143796
C61	C	1.569050	0.073628	0.427961
C62	C	2.069050	0.573628	0.927961
C63	C	1.569047	0.073616	0.571844
C64	C	2.069047	0.573616	1.071844
C65	C	1.398539	0.197866	0.571859
C66	C	1.898539	0.697866	1.071859
C67	C	1.398537	0.197872	0.427978
C68	C	1.898537	0.697872	0.927978
C69	C	1.667495	0.001896	0.427953
C70	C	2.167495	0.501896	0.927953
C71	C	1.667492	0.001885	0.571836
C72	C	2.167492	0.501885	1.071836
H73	H	0.889293	0.067233	0.313029
H74	H	1.389293	0.567233	0.813029
H75	H	1.329109	0.248452	0.369416
H76	H	1.829109	0.748452	0.869416
H77	H	1.096105	0.073303	0.323659
H78	H	1.596105	0.573303	0.823659
Br79	Br	1.282828	0.282162	0.669505
Br80	Br	1.782828	0.782162	1.169505
H81	H	1.637616	-0.065102	0.616459
H82	H	2.137616	0.434898	1.116459
H83	H	0.871349	0.198227	0.323607
H84	H	1.371349	0.698227	0.823607
H85	H	1.078174	0.204295	0.313037
H86	H	1.578174	0.704295	0.813037
H87	H	1.646727	-0.068989	0.388907
H88	H	2.146727	0.431011	0.888907
H89	H	1.758465	0.024360	0.383321
H90	H	2.258465	0.524360	0.883321
Br91	Br	1.828097	0.028214	0.636927
Br92	Br	2.328097	0.528214	1.136927
H93	H	1.102667	0.138023	-0.226140
H94	H	1.602667	0.638023	0.273860
H95	H	0.865006	0.133426	-0.226174
H96	H	1.365006	0.633426	0.273826
