data_functionalizedCrystal
_audit_creation_method	'MofGen! by Chris Wilmer'
_symmetry_space_group_name_H-M	'P1'
_symmetry_Int_Tables_number	1
_symmetry_cell_setting	triclinic
loop_
_symmetry_equiv_pos_as_xyz
  x,y,z
_cell_length_a	16.625539
_cell_length_b	13.032831
_cell_length_c	16.625545
_cell_angle_alpha	97.169868
_cell_angle_beta	89.971893
_cell_angle_gamma	97.191849
loop_
_atom_site_label
_atom_site_type_symbol
_atom_site_fract_x
_atom_site_fract_y
_atom_site_fract_z
Zn1	Zn	-0.612179	-1.597616	-0.477784
Zn2	Zn	-0.112179	-1.097616	0.022216
Zn3	Zn	-0.477333	-1.597481	-0.612614
Zn4	Zn	0.022667	-1.097481	-0.112614
Zn5	Zn	-0.460266	-1.422857	-0.460662
Zn6	Zn	0.039734	-0.922857	0.039338
Zn7	Zn	-0.595038	-1.422809	-0.595424
Zn8	Zn	-0.095038	-0.922809	-0.095424
O9	O	-0.536204	-1.510191	-0.536621
O10	O	-0.036204	-1.010191	-0.036621
O11	O	-0.608608	-1.743837	-0.510030
O12	O	-0.108608	-1.243837	-0.010030
O13	O	-0.362233	-1.574281	-0.592486
O14	O	0.137767	-1.074281	-0.092486
O15	O	-0.480448	-1.446115	-0.350109
O16	O	0.019552	-0.946115	0.149891
O17	O	-0.509537	-1.743738	-0.609089
O18	O	-0.009537	-1.243738	-0.109089
O19	O	-0.592058	-1.574510	-0.362688
O20	O	-0.092058	-1.074510	0.137312
O21	O	-0.349694	-1.445985	-0.480848
O22	O	0.150306	-0.945985	0.019152
O23	O	-0.463827	-1.276612	-0.464179
O24	O	0.036173	-0.776612	0.035821
O25	O	-0.710148	-1.446034	-0.579790
O26	O	-0.210148	-0.946034	-0.079790
O27	O	-0.562844	-1.276577	-0.563187
O28	O	-0.062844	-0.776577	-0.063187
O29	O	-0.722741	-1.574464	-0.493361
O30	O	-0.222741	-1.074464	0.006639
O31	O	-0.492916	-1.574234	-0.723159
O32	O	0.007084	-1.074234	-0.223159
O33	O	-0.579394	-1.445903	-0.710529
O34	O	-0.079394	-0.945903	-0.210529
C35	C	-0.509624	-1.238676	-0.509960
C36	C	-0.009624	-0.738676	-0.009960
C37	C	-0.498272	-1.122521	-0.498574
C38	C	0.001728	-0.622521	0.001426
C39	C	-0.746520	-1.510259	-0.536568
C40	C	-0.246520	-1.010259	-0.036568
C41	C	-0.836144	-1.510288	-0.536545
C42	C	-0.336144	-1.010288	-0.036545
C43	C	-0.536167	-1.510077	-0.746101
C44	C	-0.036167	-1.010077	-0.246101
C45	C	-0.536188	-1.510124	-0.835727
C46	C	-0.036188	-1.010124	-0.335727
C47	C	-1.164324	-1.510336	-0.536460
C48	C	-0.664324	-1.010336	-0.036460
C49	C	-1.073014	-1.510320	-0.536486
C50	C	-0.573014	-1.010320	-0.036486
C51	C	-1.000237	-1.510312	-0.536503
C52	C	-0.500237	-1.010312	-0.036503
C53	C	-0.908921	-1.510295	-0.536528
C54	C	-0.408921	-1.010295	-0.036528
C55	C	-0.326712	-1.510183	-0.536622
C56	C	0.173288	-1.010183	-0.036622
C57	C	-0.237109	-1.510357	-0.536438
C58	C	0.262891	-1.010357	-0.036438
C59	C	-0.562888	-1.782766	-0.563387
C60	C	-0.062888	-1.282766	-0.063387
C61	C	-0.574260	-1.898921	-0.574793
C62	C	-0.074260	-1.398921	-0.074793
C63	C	-0.542129	-1.070746	-0.542564
C64	C	-0.042129	-0.570746	-0.042564
C65	C	-0.530397	-0.950693	-0.530797
C66	C	-0.030397	-0.450693	-0.030797
C67	C	-0.536208	-1.510165	-0.908513
C68	C	-0.036208	-1.010165	-0.408513
C69	C	-0.536232	-1.510226	-0.999828
C70	C	-0.036232	-1.010226	-0.499828
C71	C	-0.536247	-1.510280	-1.072609
C72	C	-0.036247	-1.010280	-0.572609
C73	C	-0.536270	-1.510340	-1.163929
C74	C	-0.036270	-1.010340	-0.663929
C75	C	-0.536261	-1.510333	-0.326326
C76	C	-0.036261	-1.010333	0.173674
C77	C	-0.536285	-1.510394	-0.236711
C78	C	-0.036285	-1.010394	0.263289
H79	H	-0.588364	-1.115297	-0.588934
H80	H	-0.088364	-0.615297	-0.088934
Br81	Br	-0.453339	-0.876453	-0.453492
Br82	Br	0.046661	-0.376453	0.046508
Br83	Br	-0.651341	-0.973158	-0.652075
Br84	Br	-0.151341	-0.473158	-0.152075
H85	H	-0.452042	-1.077970	-0.452198
H86	H	0.047958	-0.577970	0.047802
