data_functionalizedCrystal
_audit_creation_method	'MofGen! by Chris Wilmer'
_symmetry_space_group_name_H-M	'P1'
_symmetry_Int_Tables_number	1
_symmetry_cell_setting	triclinic
loop_
_symmetry_equiv_pos_as_xyz
  x,y,z
_cell_length_a	13.897448
_cell_length_b	12.827893
_cell_length_c	12.827885
_cell_angle_alpha	90.019272
_cell_angle_beta	90.032276
_cell_angle_gamma	90.017853
loop_
_atom_site_label
_atom_site_type_symbol
_atom_site_fract_x
_atom_site_fract_y
_atom_site_fract_z
Zn1	Zn	-0.383964	1.597653	0.590831
Zn2	Zn	-0.545290	1.597540	0.416083
Zn3	Zn	-0.384012	1.422894	0.416104
Zn4	Zn	-0.545219	1.422873	0.590783
O5	O	-0.464621	1.510240	0.503450
O6	O	-0.405374	1.743874	0.567661
O7	O	-0.523946	1.574335	0.269850
O8	O	-0.249024	1.446133	0.439311
O9	O	-0.523900	1.743791	0.439275
O10	O	-0.248989	1.574527	0.567681
O11	O	-0.405455	1.446023	0.269865
O12	O	-0.405386	1.276655	0.439265
O13	O	-0.523779	1.446096	0.737026
O14	O	-0.523825	1.276639	0.567601
O15	O	-0.405305	1.574506	0.737060
O16	O	-0.680263	1.574314	0.439229
O17	O	-0.680210	1.445986	0.567580
C18	C	-0.464604	1.238730	0.503430
C19	C	-0.464619	1.122577	0.503447
C20	C	-0.406073	1.070833	0.567075
C21	C	-0.406088	0.950783	0.567093
C22	C	-0.715236	1.510164	0.503420
C23	C	-0.822450	1.510227	0.503442
C24	C	-1.018745	1.510336	0.503508
C25	C	-0.909512	1.510272	0.503474
C26	C	-0.213028	1.510345	0.503504
C27	C	-0.105814	1.510390	0.503526
C28	C	-0.464529	1.510311	0.776021
C29	C	-0.464489	1.510341	0.892174
C30	C	-0.464640	1.782810	0.503471
C31	C	-0.464648	1.898963	0.503480
C32	C	-0.464644	1.510229	0.231940
C33	C	-0.464412	1.510401	0.115788
C34	C	-0.405853	1.573890	0.943976
C35	C	-0.405811	1.573923	1.064026
H36	H	-0.514779	0.943455	0.449008
H37	H	-0.514618	1.455996	1.071246
F38	F	-0.340256	1.644952	0.885781
F39	F	-0.530146	1.064317	0.432254
F40	F	-0.340538	1.129093	0.638260
F41	F	-0.340575	0.892624	0.638304
H42	H	-0.355614	1.628332	1.108575
H43	H	-0.514652	1.455953	0.936701
