data_functionalizedCrystal
_audit_creation_method	'MofGen! by Chris Wilmer'
_symmetry_space_group_name_H-M	'P1'
_symmetry_Int_Tables_number	1
_symmetry_cell_setting	triclinic
loop_
_symmetry_equiv_pos_as_xyz
  x,y,z
_cell_length_a	10.540535
_cell_length_b	9.016244
_cell_length_c	12.837942
_cell_angle_alpha	89.998686
_cell_angle_beta	90.323709
_cell_angle_gamma	90.004976
loop_
_atom_site_label
_atom_site_type_symbol
_atom_site_fract_x
_atom_site_fract_y
_atom_site_fract_z
O1	O	1.701958	0.123258	-0.146191
O2	O	1.334058	0.123278	-0.159972
O3	O	1.509850	0.123259	-0.002119
O4	O	1.526166	0.123277	-0.304045
O5	O	1.509822	-0.123421	-0.002122
O6	O	1.334030	-0.123402	-0.159976
O7	O	1.701930	-0.123423	-0.146194
Cu8	Cu	1.517977	-0.145937	-0.153086
Cu9	Cu	1.518011	0.145792	-0.153081
O10	O	1.526138	-0.123404	-0.304048
C11	C	1.286628	-0.000059	-0.158942
C12	C	1.145340	-0.000052	-0.155853
C13	C	1.096007	-0.000064	-0.040600
C14	C	0.949049	-0.000639	-0.037349
C15	C	0.941768	-0.140659	-0.208465
C16	C	1.088803	-0.140762	-0.210918
C17	C	1.088903	0.139770	-0.212591
C18	C	0.941971	0.141603	-0.207260
N19	N	1.517963	-0.351123	-0.153088
C20	C	1.423578	-0.586145	-0.237246
C21	C	1.423842	-0.414254	-0.237561
C22	C	1.653392	-0.413467	-0.177715
C23	C	1.652892	-0.585412	-0.178311
C24	C	1.478207	-0.585671	-0.044027
C25	C	1.475240	-0.413716	-0.044734
C26	C	1.749360	-0.000082	-0.147225
C27	C	1.890648	-0.000080	-0.150314
C28	C	1.504325	-0.000080	0.036541
C29	C	1.487886	-0.000077	0.151740
N30	N	1.518034	0.350978	-0.153071
C31	C	1.531663	-0.000062	-0.342708
C32	C	1.548102	-0.000055	-0.457906
C33	C	1.685505	-0.000057	0.391238
C34	C	1.670066	-0.000053	0.499477
C35	C	1.441569	-0.000056	0.476461
C36	C	1.457009	-0.000059	0.368221
C37	C	1.578980	-0.000062	0.325614
C38	C	1.594419	-0.000076	0.217372
C39	C	1.365923	-0.000068	0.194358
C40	C	1.350484	-0.000064	0.302598
H41	H	1.133125	0.100733	0.003659
H42	H	0.915613	-0.102012	0.007903
F43	F	0.904183	0.131053	0.022092
F44	F	1.146540	-0.131646	0.016281
H45	H	1.124648	-0.246255	-0.171649
H46	H	1.538554	-0.370748	0.020914
F47	F	0.895637	-0.277940	-0.156323
H48	H	1.685987	-0.625498	-0.257865
H49	H	1.784819	-0.000073	0.356546
F50	F	1.292803	-0.359158	-0.218246
H51	H	1.121116	-0.146765	-0.295407
F52	F	1.220680	-0.000050	0.347956
F53	F	0.891816	-0.146973	-0.317181
F54	F	1.130033	0.141523	-0.323437
H55	H	1.380895	-0.629115	-0.020589
F56	F	1.458815	-0.360461	-0.343313
F57	F	1.724230	-0.000088	0.172027
F58	F	1.292171	-0.640214	-0.218165
H59	H	1.450083	-0.629335	-0.317689
F60	F	1.139248	0.279094	-0.165581
H61	H	1.756809	-0.000044	0.552905
F62	F	1.311769	-0.000017	0.521826
F63	F	1.697235	-0.357160	-0.280523
F64	F	1.748304	-0.639778	-0.101209
F65	F	0.898558	0.277544	-0.151931
H66	H	1.279183	-0.000084	0.140915
H67	H	0.901982	0.150533	-0.289705
H68	H	1.725896	-0.372570	-0.118080
H69	H	1.375550	-0.372970	-0.026068
F70	F	1.568038	-0.638816	0.037864
