data_functionalizedCrystal
_audit_creation_method	'MofGen! by Chris Wilmer'
_symmetry_space_group_name_H-M	'P1'
_symmetry_Int_Tables_number	1
_symmetry_cell_setting	triclinic
loop_
_symmetry_equiv_pos_as_xyz
  x,y,z
_cell_length_a	11.169417
_cell_length_b	16.625545
_cell_length_c	11.169409
_cell_angle_alpha	89.963866
_cell_angle_beta	89.980176
_cell_angle_gamma	90.026437
loop_
_atom_site_label
_atom_site_type_symbol
_atom_site_fract_x
_atom_site_fract_y
_atom_site_fract_z
Zn1	Zn	1.834835	-0.320917	-0.678511
Zn2	Zn	2.168169	0.012416	-0.345178
Zn3	Zn	2.501502	0.345749	-0.011844
Zn4	Zn	1.834671	-0.455779	-0.477815
Zn5	Zn	2.168005	-0.122446	-0.144481
Zn6	Zn	2.501338	0.210887	0.188852
Zn7	Zn	1.634121	-0.320967	-0.477845
Zn8	Zn	1.967455	0.012367	-0.144512
Zn9	Zn	2.300788	0.345700	0.188821
Zn10	Zn	1.634076	-0.455714	-0.678460
Zn11	Zn	1.967409	-0.122381	-0.345126
Zn12	Zn	2.300742	0.210953	-0.011793
O13	O	1.734426	-0.388344	-0.578158
O14	O	2.067759	-0.055011	-0.244824
O15	O	2.401093	0.278322	0.088509
O16	O	2.002763	-0.338814	-0.651897
O17	O	2.336097	-0.005481	-0.318564
O18	O	2.669430	0.327853	0.014770
O19	O	1.808019	-0.437944	-0.309869
O20	O	2.141352	-0.104611	0.023464
O21	O	2.474685	0.228722	0.356798
O22	O	1.660834	-0.208128	-0.504499
O23	O	1.994168	0.125206	-0.171165
O24	O	2.327501	0.458539	0.162168
O25	O	2.002643	-0.437897	-0.504446
O26	O	2.335976	-0.104563	-0.171113
O27	O	2.669310	0.228770	0.162221
O28	O	1.808298	-0.208092	-0.651927
O29	O	2.141631	0.125242	-0.318593
O30	O	2.474965	0.458575	0.014740
O31	O	1.660675	-0.338898	-0.309892
O32	O	1.994009	-0.005565	0.023442
O33	O	2.327342	0.327769	0.356775
O34	O	1.466166	-0.338834	-0.504449
O35	O	1.799499	-0.005501	-0.171115
O36	O	2.132832	0.327832	0.162218
O37	O	1.660756	-0.437785	-0.846416
O38	O	1.994090	-0.104451	-0.513083
O39	O	2.327423	0.228882	-0.179750
O40	O	1.466132	-0.437832	-0.651839
O41	O	1.799465	-0.104499	-0.318506
O42	O	2.132799	0.228834	0.014828
O43	O	1.808254	-0.338750	-0.846454
O44	O	2.141587	-0.005417	-0.513121
O45	O	2.474920	0.327916	-0.179787
O46	O	1.807974	-0.568603	-0.504396
O47	O	2.141308	-0.235270	-0.171063
O48	O	2.474641	0.098063	0.162270
O49	O	1.660597	-0.568555	-0.651809
O50	O	1.993931	-0.235222	-0.318476
O51	O	2.327264	0.098112	0.014858
C52	C	1.422601	-0.388332	-0.578142
C53	C	1.755935	-0.054999	-0.244809
C54	C	2.089268	0.278335	0.088524
C55	C	1.289201	-0.388346	-0.578164
C56	C	1.622535	-0.055013	-0.244831
C57	C	1.955868	0.278320	0.088503
C58	C	1.734296	-0.597835	-0.578120
C59	C	2.067629	-0.264502	-0.244787
C60	C	2.400962	0.068831	0.088547
C61	C	1.734350	-0.687456	-0.578144
C62	C	2.067683	-0.354123	-0.244811
C63	C	2.401016	-0.020790	0.088523
C64	C	1.734396	-0.760239	-0.578168
C65	C	2.067729	-0.426905	-0.244834
C66	C	2.401063	-0.093572	0.088499
C67	C	1.734466	-0.851547	-0.578194
C68	C	2.067799	-0.518214	-0.244861
C69	C	2.401133	-0.184880	0.088472
C70	C	1.734528	-0.924324	-0.578209
C71	C	2.067862	-0.590990	-0.244876
C72	C	2.401195	-0.257657	0.088457
C73	C	1.734597	-1.015638	-0.578234
C74	C	2.067930	-0.682305	-0.244901
C75	C	2.401264	-0.348971	0.088433
C76	C	2.047468	-0.388357	-0.578174
C77	C	2.380802	-0.055024	-0.244841
C78	C	2.714135	0.278309	0.088493
C79	C	2.180868	-0.388363	-0.578181
C80	C	2.514202	-0.055029	-0.244847
C81	C	2.847535	0.278304	0.088486
C82	C	1.734518	-0.388255	-0.891200
C83	C	2.067851	-0.054921	-0.557867
C84	C	2.401185	0.278412	-0.224534
C85	C	1.734557	-0.388217	-1.024600
C86	C	2.067891	-0.054883	-0.691267
C87	C	2.401224	0.278450	-0.357934
C88	C	1.734590	-0.178035	-0.578222
C89	C	2.067923	0.155298	-0.244889
C90	C	2.401256	0.488631	0.088445
C91	C	1.734659	-0.088414	-0.578249
C92	C	2.067993	0.244919	-0.244916
C93	C	2.401326	0.578252	0.088417
C94	C	1.734403	-0.388375	-0.266333
C95	C	2.067737	-0.055042	0.067000
C96	C	2.401070	0.278291	0.400334
C97	C	1.734596	-0.388186	-0.132934
C98	C	2.067930	-0.054853	0.200400
C99	C	2.401263	0.278480	0.533733
