data_functionalizedCrystal
_audit_creation_method	'MofGen! by Chris Wilmer'
_symmetry_space_group_name_H-M	'P1'
_symmetry_Int_Tables_number	1
_symmetry_cell_setting	triclinic
loop_
_symmetry_equiv_pos_as_xyz
  x,y,z
_cell_length_a	13.897449
_cell_length_b	13.897441
_cell_length_c	13.897448
_cell_angle_alpha	90.030599
_cell_angle_beta	89.981481
_cell_angle_gamma	89.976606
loop_
_atom_site_label
_atom_site_type_symbol
_atom_site_fract_x
_atom_site_fract_y
_atom_site_fract_z
Zn1	Zn	1.474703	-0.545450	0.383963
Zn2	Zn	1.724703	-0.295450	0.633963
Zn3	Zn	1.974703	-0.045450	0.883963
Zn4	Zn	2.224703	0.204550	1.133963
Zn5	Zn	1.474597	-0.384151	0.545285
Zn6	Zn	1.724597	-0.134151	0.795285
Zn7	Zn	1.974597	0.115849	1.045285
Zn8	Zn	2.224597	0.365849	1.295285
Zn9	Zn	1.313392	-0.384161	0.384007
Zn10	Zn	1.563392	-0.134161	0.634007
Zn11	Zn	1.813392	0.115839	0.884007
Zn12	Zn	2.063392	0.365839	1.134007
Zn13	Zn	1.313373	-0.545396	0.545220
Zn14	Zn	1.563373	-0.295396	0.795220
Zn15	Zn	1.813373	-0.045396	1.045220
Zn16	Zn	2.063373	0.204604	1.295220
O17	O	1.394016	-0.464789	0.464619
O18	O	1.644016	-0.214789	0.714619
O19	O	1.894016	0.035211	0.964619
O20	O	2.144016	0.285211	1.214619
O21	O	1.609670	-0.524071	0.405371
O22	O	1.859670	-0.274071	0.655371
O23	O	2.109670	-0.024071	0.905371
O24	O	2.359670	0.225929	1.155371
O25	O	1.453176	-0.249171	0.523937
O26	O	1.703176	0.000829	0.773937
O27	O	1.953176	0.250829	1.023937
O28	O	2.203176	0.500829	1.273937
O29	O	1.334842	-0.405582	0.249020
O30	O	1.584842	-0.155582	0.499020
O31	O	1.834842	0.094418	0.749020
O32	O	2.084842	0.344418	0.999020
O33	O	1.609592	-0.405566	0.523893
O34	O	1.859592	-0.155566	0.773893
O35	O	2.109592	0.094434	1.023893
O36	O	2.359592	0.344434	1.273893
O37	O	1.453356	-0.524081	0.248987
O38	O	1.703356	-0.274081	0.498987
O39	O	1.953356	-0.024081	0.748987
O40	O	2.203356	0.225919	0.998987
O41	O	1.334739	-0.249178	0.405447
O42	O	1.584739	0.000822	0.655447
O43	O	1.834739	0.250822	0.905447
O44	O	2.084739	0.500822	1.155447
O45	O	1.178408	-0.405530	0.405384
O46	O	1.428408	-0.155530	0.655384
O47	O	1.678408	0.094470	0.905384
O48	O	1.928408	0.344470	1.155384
O49	O	1.334811	-0.680385	0.523783
O50	O	1.584811	-0.430385	0.773783
O51	O	1.834811	-0.180385	1.023783
O52	O	2.084811	0.069615	1.273783
O53	O	1.178394	-0.523990	0.523826
O54	O	1.428394	-0.273990	0.773826
O55	O	1.678394	-0.023990	1.023826
O56	O	1.928394	0.226010	1.273826
O57	O	1.453339	-0.680424	0.405308
O58	O	1.703339	-0.430424	0.655308
O59	O	1.953339	-0.180424	0.905308
O60	O	2.203339	0.069576	1.155308
O61	O	1.453158	-0.405514	0.680258
O62	O	1.703158	-0.155514	0.930258
O63	O	1.953158	0.094486	1.180258
O64	O	2.203158	0.344486	1.430258
O65	O	1.334708	-0.523980	0.680210
O66	O	1.584708	-0.273980	0.930210
O67	O	1.834708	-0.023980	1.180210
O68	O	2.084708	0.226020	1.430210
C69	C	1.143402	-0.464756	0.464604
C70	C	1.393402	-0.214756	0.714604
C71	C	1.643402	0.035244	0.964604
C72	C	1.893402	0.285244	1.214604
C73	C	1.036188	-0.464764	0.464621
C74	C	1.286188	-0.214764	0.714621
C75	C	1.536188	0.035236	0.964621
C76	C	1.786188	0.285236	1.214621
C77	C	0.949118	-0.464780	0.464624
C78	C	1.199118	-0.214780	0.714624
C79	C	1.449118	0.035220	0.964624
C80	C	1.699118	0.285220	1.214624
C81	C	0.839886	-0.464810	0.464631
C82	C	1.089886	-0.214810	0.714631
C83	C	1.339886	0.035190	0.964631
C84	C	1.589886	0.285190	1.214631
C85	C	1.394085	-0.716382	0.464533
C86	C	1.644085	-0.466382	0.714533
C87	C	1.894085	-0.216382	0.964533
C88	C	2.144085	0.033618	1.214533
C89	C	1.394114	-0.823596	0.464497
C90	C	1.644114	-0.573596	0.714497
C91	C	1.894114	-0.323596	0.964497
C92	C	2.144114	-0.073596	1.214497
C93	C	1.394140	-1.019892	0.464432
C94	C	1.644140	-0.769892	0.714432
C95	C	1.894140	-0.519892	0.964432
C96	C	2.144140	-0.269892	1.214432
C97	C	1.394122	-0.910659	0.464471
C98	C	1.644122	-0.660659	0.714471
C99	C	1.894122	-0.410659	0.964471
C100	C	2.144122	-0.160659	1.214471
C101	C	1.645609	-0.464824	0.464634
C102	C	1.895609	-0.214824	0.714634
C103	C	2.145609	0.035176	0.964634
C104	C	2.395609	0.285176	1.214634
C105	C	1.752823	-0.464838	0.464641
C106	C	2.002823	-0.214838	0.714641
C107	C	2.252823	0.035162	0.964641
C108	C	2.502823	0.285162	1.214641
C109	C	1.393946	-0.464761	0.715233
C110	C	1.643946	-0.214761	0.965233
C111	C	1.893946	0.035239	1.215233
C112	C	2.143946	0.285239	1.465233
C113	C	1.394004	-0.464782	0.822447
C114	C	1.644004	-0.214782	1.072447
C115	C	1.894004	0.035218	1.322447
C116	C	2.144004	0.285218	1.572447
C117	C	1.394003	-0.214175	0.464634
C118	C	1.644003	0.035825	0.714634
C119	C	1.894003	0.285825	0.964634
C120	C	2.144003	0.535825	1.214634
C121	C	1.394161	-0.106962	0.464399
C122	C	1.644161	0.143038	0.714399
C123	C	1.894161	0.393038	0.964399
C124	C	2.144161	0.643038	1.214399
C125	C	1.394113	-0.464839	0.213026
C126	C	1.644113	-0.214839	0.463026
C127	C	1.894113	0.035161	0.713026
C128	C	2.144113	0.285161	0.963026
C129	C	1.394154	-0.464859	0.105812
C130	C	1.644154	-0.214859	0.355812
C131	C	1.894154	0.035141	0.605812
C132	C	2.144154	0.285141	0.855812
C133	C	1.394105	-0.464842	1.018742
C134	C	1.644105	-0.214842	1.268742
C135	C	1.894105	0.035158	1.518742
C136	C	2.144105	0.285158	1.768742
C137	C	1.394046	-0.464812	0.909510
C138	C	1.644046	-0.214812	1.159510
C139	C	1.894046	0.035188	1.409510
C140	C	2.144046	0.285188	1.659510
