data_functionalizedCrystal
_audit_creation_method	'MofGen! by Chris Wilmer'
_symmetry_space_group_name_H-M	'P1'
_symmetry_Int_Tables_number	1
_symmetry_cell_setting	triclinic
loop_
_symmetry_equiv_pos_as_xyz
  x,y,z
_cell_length_a	14.044220
_cell_length_b	26.809956
_cell_length_c	14.044220
_cell_angle_alpha	89.996150
_cell_angle_beta	93.188878
_cell_angle_gamma	90.004656
loop_
_atom_site_label
_atom_site_type_symbol
_atom_site_fract_x
_atom_site_fract_y
_atom_site_fract_z
O1	O	1.277174	0.041429	0.230155
O2	O	1.000503	0.041441	0.221849
O3	O	1.134686	0.041430	0.087666
O4	O	1.142991	0.041440	0.364338
O5	O	1.134660	-0.041529	0.087686
O6	O	1.000477	-0.041518	0.221869
O7	O	1.277149	-0.041531	0.230175
Zn8	Zn	1.138809	-0.054696	0.226025
Zn9	Zn	1.138843	0.054606	0.225999
O10	O	1.142966	-0.041520	0.364358
C11	C	0.964868	-0.000037	0.218223
C12	C	0.858725	-0.000032	0.207379
N13	N	1.138792	-0.129292	0.226043
C14	C	0.664388	-0.000043	0.187553
C15	C	0.613258	-0.000042	0.264467
C16	C	0.505122	-0.000048	0.253435
C17	C	0.772534	-0.000037	0.198583
C18	C	1.198252	-0.473923	0.166598
C19	C	1.198273	-0.682801	0.166585
O20	O	1.248790	-0.709809	0.116045
N21	N	1.138846	-0.708919	0.225978
C22	C	1.079405	-0.682815	0.285374
O23	O	1.028852	-0.709823	0.335884
C24	C	1.079379	-0.473938	0.285381
C25	C	1.138817	-0.447822	0.225991
C26	C	1.257684	-0.447807	0.107212
C27	C	1.257682	-0.395591	0.107220
C28	C	1.198248	-0.369490	0.166613
C29	C	1.138815	-0.395606	0.225999
C30	C	1.019933	-0.447835	0.344771
C31	C	1.019931	-0.395613	0.344766
C32	C	1.079369	-0.369497	0.285376
C33	C	1.079378	-0.317289	0.285399
N34	N	1.138805	-0.291171	0.226006
C35	C	1.198240	-0.317271	0.166613
C36	C	1.079424	-0.792478	0.285367
C37	C	1.079431	-0.844697	0.285367
C38	C	1.198299	-0.844679	0.166577
C39	C	1.198296	-0.792459	0.166583
C40	C	1.138851	-0.766360	0.225974
C41	C	1.198232	-0.207613	0.166634
C42	C	1.198227	-0.155392	0.166650
C43	C	1.079356	-0.155415	0.285436
C44	C	1.079364	-0.207631	0.285424
C45	C	1.138805	-0.233729	0.226016
O46	O	1.028881	-0.290249	0.335905
O47	O	1.248770	-0.290254	0.116096
C48	C	1.198254	-0.526139	0.166590
C49	C	1.138822	-0.552255	0.225976
C50	C	1.079387	-0.526155	0.285369
C51	C	1.138829	-0.604474	0.225976
C52	C	1.198264	-0.630574	0.166582
C53	C	1.257691	-0.604456	0.107190
C54	C	1.257689	-0.552240	0.107197
C55	C	1.019960	-0.552273	0.344762
C56	C	1.019967	-0.604489	0.344750
C57	C	1.079402	-0.630590	0.285357
C58	C	1.312783	-0.000052	0.233800
C59	C	1.418926	-0.000053	0.244645
C60	C	1.131037	-0.000050	0.052054
C61	C	1.120193	-0.000050	-0.054088
N62	N	1.138866	0.129202	0.225974
C63	C	1.100366	-0.000042	-0.248426
C64	C	1.177281	-0.000044	-0.299556
C65	C	1.166249	-0.000039	-0.407692
C66	C	1.111397	-0.000046	-0.140280
C67	C	1.146614	-0.000039	0.399969
C68	C	1.157459	-0.000036	0.506112
H69	H	0.650697	-0.000037	0.338600
H70	H	0.626951	-0.000048	0.113425
H71	H	0.971533	-0.469091	0.393131
H72	H	1.251414	-0.000013	-0.262117
H73	H	1.026239	-0.000037	-0.285863
C74	C	1.014104	-0.763775	0.350786
N75	N	0.964935	-0.742159	0.400090
C76	C	0.954575	-0.633211	0.410088
N77	N	0.905315	-0.654842	0.459291
H78	H	1.246632	-0.134131	0.118288
H79	H	1.246632	-0.228856	0.118257
H80	H	1.306079	-0.374330	0.058857
H81	H	1.246694	-0.865939	0.118218
C82	C	1.263675	-0.763737	0.101243
N83	N	1.312918	-0.742106	0.052024
C84	C	1.014052	-0.873419	0.350708
N85	N	0.964801	-0.895050	0.399919
C86	C	1.323065	-0.476509	0.041861
N87	N	1.372317	-0.498125	-0.007364
C88	C	0.954546	-0.366906	0.410114
N89	N	0.905304	-0.345286	0.459339
H90	H	1.030974	-0.228895	0.333795
H91	H	1.030968	-0.134156	0.333796
C92	C	1.323067	-0.633177	0.041854
N93	N	1.372301	-0.654812	-0.007358
H94	H	1.306089	-0.530980	0.058836
C95	C	0.954646	-0.523570	0.410176
N96	N	0.905477	-0.501952	0.459480
