data_functionalizedCrystal
_audit_creation_method	'MofGen! by Chris Wilmer'
_symmetry_space_group_name_H-M	'P1'
_symmetry_Int_Tables_number	1
_symmetry_cell_setting	triclinic
loop_
_symmetry_equiv_pos_as_xyz
  x,y,z
_cell_length_a	16.959455
_cell_length_b	19.121063
_cell_length_c	16.959447
_cell_angle_alpha	87.589679
_cell_angle_beta	90.017493
_cell_angle_gamma	92.465894
loop_
_atom_site_label
_atom_site_type_symbol
_atom_site_fract_x
_atom_site_fract_y
_atom_site_fract_z
Zn1	Zn	1.194939	-0.279682	0.460313
Zn2	Zn	1.189198	-0.397135	0.333764
Zn3	Zn	1.062760	-0.279696	0.328151
Zn4	Zn	1.057078	-0.397090	0.465900
O5	O	1.125994	-0.338401	0.397032
O6	O	1.304788	-0.295275	0.443537
O7	O	1.172401	-0.381582	0.222409
O8	O	1.085074	-0.181410	0.340996
O9	O	1.300570	-0.381568	0.350561
O10	O	1.182186	-0.181399	0.438094
O11	O	1.079507	-0.295300	0.218286
O12	O	0.951396	-0.295256	0.346413
O13	O	1.075390	-0.381491	0.575769
O14	O	0.947221	-0.381505	0.447617
O15	O	1.176677	-0.295231	0.571664
O16	O	1.166891	-0.495414	0.355979
O17	O	1.069823	-0.495381	0.453059
C18	C	0.920628	-0.338378	0.397013
C19	C	0.832772	-0.338385	0.397024
C20	C	0.463446	-0.293454	0.344439
C21	C	0.459141	-0.383405	0.449673
C22	C	0.541688	-0.383395	0.449667
C23	C	0.585117	-0.338415	0.397046
C24	C	0.546000	-0.293444	0.344430
C25	C	0.580811	-0.428370	0.502277
C26	C	0.663362	-0.428362	0.502273
C27	C	0.706793	-0.383377	0.449655
C28	C	0.667671	-0.338405	0.397038
C29	C	0.711100	-0.293424	0.344417
C30	C	0.671980	-0.248448	0.291803
C31	C	0.589431	-0.248460	0.291813
C32	C	0.789342	-0.383365	0.449645
C33	C	0.793654	-0.293414	0.344408
C34	C	1.117139	-0.520881	0.405751
C35	C	1.113424	-0.598947	0.409508
C36	C	1.162255	-0.635617	0.360770
C37	C	1.158765	-0.708968	0.364308
C38	C	1.106439	-0.745648	0.416580
C39	C	1.057606	-0.708973	0.465323
C40	C	1.061100	-0.635624	0.461789
C41	C	1.093362	-0.967118	0.429782
C42	C	1.089869	-1.040473	0.433311
C43	C	1.191031	-1.040462	0.332296
C44	C	1.194517	-0.967110	0.328763
C45	C	1.145686	-0.930442	0.377509
C46	C	1.102869	-0.820625	0.420196
C47	C	1.149261	-0.855467	0.373897
C48	C	1.332161	-0.338425	0.397052
C49	C	1.420017	-0.338435	0.397060
C50	C	1.126040	-0.338354	0.603198
C51	C	1.126060	-0.338334	0.691054
C52	C	1.134904	-0.155208	0.388296
C53	C	1.138701	-0.077142	0.384573
C54	C	1.125995	-0.338397	0.191665
C55	C	1.126138	-0.338219	0.103801
C56	C	1.073335	-0.383237	0.734466
C57	C	1.178799	-0.293408	0.730194
C58	C	1.178817	-0.293385	0.812739
C59	C	1.126092	-0.338288	0.856151
C60	C	1.073350	-0.383214	0.817018
C61	C	1.231552	-0.248455	0.851877
C62	C	1.231571	-0.248430	0.934427
C63	C	1.178850	-0.293337	0.977841
C64	C	1.126106	-0.338265	0.938703
C65	C	1.073381	-0.383168	0.982116
C66	C	1.020641	-0.428100	0.942980
C67	C	1.020628	-0.428121	0.860432
C68	C	1.178863	-0.293316	1.060388
C69	C	1.073396	-0.383145	1.064668
H70	H	0.707351	-0.211828	0.248955
C71	C	0.546811	-0.199704	0.234732
C72	C	0.465223	-0.209353	0.245991
C73	C	0.425933	-0.164457	0.193419
H74	H	0.562532	-0.152498	0.244087
H75	H	0.559775	-0.209919	0.182071
H76	H	0.452265	-0.199133	0.298640
H77	H	0.449479	-0.256550	0.236629
H78	H	0.438897	-0.174672	0.140758
H79	H	0.441660	-0.117254	0.202779
H80	H	0.370572	-0.171002	0.201046
H81	H	0.431591	-0.256833	0.301604
C82	C	1.288675	-0.199681	0.804633
C83	C	1.246109	-0.154691	0.755056
C84	C	1.298710	-0.109763	0.711507
H85	H	1.320115	-0.172850	0.839659
H86	H	1.321784	-0.226557	0.773683
H87	H	1.213013	-0.127818	0.786003
H88	H	1.214671	-0.181503	0.720014
H89	H	1.331819	-0.136639	0.680557
H90	H	1.330148	-0.082937	0.746539
H91	H	1.269837	-0.079237	0.677859
C92	C	1.243955	-1.080240	0.279250
C93	C	1.227628	-1.062474	0.200169
C94	C	1.276363	-1.099111	0.151282
H95	H	1.297657	-1.068205	0.290185
H96	H	1.234373	-1.129184	0.288790
H97	H	1.237216	-1.013541	0.190634
H98	H	1.173935	-1.074510	0.189210
H99	H	1.266782	-1.148055	0.160822
H100	H	1.330063	-1.087074	0.162224
H101	H	1.265288	-1.087068	0.097621
H102	H	1.015004	-0.738844	0.507887
C103	C	1.288923	-0.199627	0.976770
C104	C	1.335106	-0.160322	0.921083
C105	C	1.387956	-0.115366	0.960061
H106	H	1.260274	-0.168952	1.007510
H107	H	1.322108	-0.226475	1.010238
H108	H	1.301925	-0.133476	0.887628
H109	H	1.363772	-0.190978	0.890340
H110	H	1.421141	-0.142214	0.993530
H111	H	1.359300	-0.084696	0.990800
H112	H	1.419302	-0.088697	0.922284
H113	H	0.829009	-0.256781	0.301562
C114	C	1.236157	-0.244652	1.102985
C115	C	1.284888	-0.284406	1.152294
C116	C	1.337674	-0.239598	1.191553
H117	H	1.267629	-0.217894	1.065397
H118	H	1.207432	-0.214052	1.133769
H119	H	1.313611	-0.314993	1.121512
H120	H	1.253439	-0.311162	1.189897
H121	H	1.308949	-0.208999	1.222337
H122	H	1.369140	-0.212843	1.153959
H123	H	1.370740	-0.266564	1.225019
C124	C	1.016279	-0.431988	1.111843
C125	C	1.058858	-0.477003	1.161377
C126	C	1.006271	-0.522015	1.204836
H127	H	0.983125	-0.405195	1.142824
H128	H	0.984884	-0.458790	1.076736
H129	H	1.090240	-0.450205	1.196479
H130	H	1.092009	-0.503812	1.130416
H131	H	0.974875	-0.548816	1.169730
H132	H	0.973120	-0.495216	1.235813
H133	H	1.035153	-0.552567	1.238445
H134	H	0.423776	-0.420030	0.492510
C135	C	0.533521	-0.477127	0.559370
C136	C	0.452857	-0.467493	0.548131
C137	C	0.409266	-0.512391	0.600721
H138	H	0.544664	-0.524332	0.550017
H139	H	0.547521	-0.466904	0.612025
H140	H	0.438863	-0.477721	0.495488
H141	H	0.441691	-0.420298	0.557490
H142	H	0.423266	-0.502167	0.653376
H143	H	0.420415	-0.559593	0.591364
H144	H	0.354531	-0.505856	0.593107
H145	H	0.695207	-0.464984	0.545115
H146	H	0.821190	-0.419987	0.492480
C147	C	1.008216	-0.595769	0.514799
C148	C	1.054956	-0.553613	0.563482
C149	C	1.006269	-0.516897	0.612337
H150	H	0.975143	-0.567138	0.483246
H151	H	0.976565	-0.628095	0.546483
H152	H	1.086593	-0.521292	0.531802
H153	H	1.088028	-0.582227	0.595052
H154	H	0.974618	-0.549222	0.644021
H155	H	0.973198	-0.488269	0.580777
H156	H	1.037975	-0.488295	0.645379
C157	C	1.219147	-0.595922	0.303990
C158	C	1.261178	-0.643739	0.262081
C159	C	1.313603	-0.607201	0.209776
H160	H	1.190380	-0.567348	0.268076
H161	H	1.254976	-0.567281	0.332859
H162	H	1.225354	-0.672369	0.233214
H163	H	1.289961	-0.672315	0.297975
H164	H	1.349433	-0.578560	0.238645
H165	H	1.284830	-0.578628	0.173866
H166	H	1.342133	-0.639639	0.181339
C167	C	0.963350	-0.476989	0.818088
C168	C	0.917200	-0.516330	0.873773
C169	C	0.864441	-0.561366	0.834792
H170	H	0.930130	-0.450219	0.784592
H171	H	0.992092	-0.507632	0.787378
H172	H	0.888460	-0.485690	0.904470
H173	H	0.950399	-0.543114	0.907271
H174	H	0.893184	-0.592009	0.804082
H175	H	0.831226	-0.534591	0.801298
H176	H	0.833127	-0.588069	0.872568
C177	C	1.212007	-0.748754	0.311590
C178	C	1.260657	-0.790712	0.358506
C179	C	1.309783	-0.827337	0.310000
H180	H	1.180639	-0.777512	0.278431
H181	H	1.243711	-0.716375	0.280028
H182	H	1.228957	-0.823088	0.390055
H183	H	1.292042	-0.761971	0.391665
H184	H	1.341487	-0.794957	0.278437
H185	H	1.278408	-0.856091	0.276842
H186	H	1.342803	-0.855804	0.341825
H187	H	1.053600	-0.937268	0.469471
C188	C	1.033160	-1.080264	0.490200
C189	C	1.051198	-1.062384	0.567562
C190	C	0.998984	-1.099035	0.619986
H191	H	0.980597	-1.068319	0.478122
H192	H	1.038082	-1.129206	0.485371
H193	H	1.046269	-1.013453	0.572389
H194	H	1.103752	-1.074331	0.579666
H195	H	1.003906	-1.147977	0.615157
H196	H	0.946424	-1.087086	0.607901
H197	H	1.011220	-1.086913	0.672483
C198	C	1.046177	-0.860543	0.476991
C199	C	1.088899	-0.902605	0.529706
C200	C	1.036703	-0.939397	0.582030
H201	H	1.017565	-0.828284	0.505592
H202	H	1.010407	-0.889240	0.448121
H203	H	1.124655	-0.873910	0.558573
H204	H	1.117509	-0.934877	0.501127
H205	H	1.000933	-0.968094	0.553160
H206	H	1.008094	-0.907133	0.610625
H207	H	1.065681	-0.967945	0.617798
H208	H	1.191868	-0.825600	0.331340
H209	H	1.237125	-0.937247	0.286199
C210	C	1.235917	-0.244624	0.682957
C211	C	1.193345	-0.199628	0.633393
C212	C	1.245940	-0.154687	0.589854
H213	H	1.267356	-0.217799	0.717989
H214	H	1.269028	-0.271491	0.651997
H215	H	1.160247	-0.172764	0.664350
H216	H	1.161908	-0.226434	0.598345
H217	H	1.279051	-0.181553	0.558894
H218	H	1.277376	-0.127866	0.624892
H219	H	1.217063	-0.124156	0.556215
H220	H	0.977708	-0.464656	0.978337
H221	H	1.030397	-0.419822	0.702598
