data_functionalizedCrystal
_audit_creation_method	'MofGen! by Chris Wilmer'
_symmetry_space_group_name_H-M	'P1'
_symmetry_Int_Tables_number	1
_symmetry_cell_setting	triclinic
loop_
_symmetry_equiv_pos_as_xyz
  x,y,z
_cell_length_a	10.868271
_cell_length_b	19.288864
_cell_length_c	19.288865
_cell_angle_alpha	83.136245
_cell_angle_beta	89.989638
_cell_angle_gamma	89.981837
loop_
_atom_site_label
_atom_site_type_symbol
_atom_site_fract_x
_atom_site_fract_y
_atom_site_fract_z
O1	O	0.102731	-0.921348	-0.086648
O2	O	0.102649	-0.719087	-0.098337
O3	O	0.102668	-0.826062	0.008638
O4	O	0.102712	-0.814373	-0.193623
O5	O	-0.101977	-0.826053	0.008642
O6	O	-0.101996	-0.719079	-0.098333
O7	O	-0.101914	-0.921339	-0.086644
Zn8	Zn	-0.134447	-0.820208	-0.092488
Zn9	Zn	0.135181	-0.820219	-0.092493
O10	O	-0.101933	-0.814365	-0.193619
C11	C	0.000315	-0.693207	-0.097959
C12	C	0.000283	-0.616103	-0.096830
N13	N	-0.318461	-0.820205	-0.092484
C14	C	0.000342	-0.825682	0.034516
C15	C	0.000330	-0.824553	0.111620
C16	C	-0.569467	-0.820216	-0.092492
C17	C	-0.429789	-0.820207	-0.092489
N18	N	0.319196	-0.820227	-0.092492
C19	C	0.000422	-0.947220	-0.087022
C20	C	0.000463	-1.024324	-0.088151
C21	C	0.000316	-0.571407	-0.159598
C22	C	0.000329	-0.498960	-0.158537
C23	C	0.000334	-0.471212	-0.094705
C24	C	0.000294	-0.515918	-0.031929
C25	C	0.000269	-0.588364	-0.032991
C26	C	0.072061	-0.362953	-0.044527
C27	C	0.072094	-0.290509	-0.043467
C28	C	0.000408	-0.247767	-0.091425
C29	C	-0.071295	-0.277476	-0.140455
C30	C	-0.071321	-0.349922	-0.141517
C31	C	0.000361	-0.392658	-0.093546
C32	C	0.000454	-0.124514	-0.153047
C33	C	0.000460	-0.052066	-0.151984
C34	C	0.000437	-0.069026	-0.025374
C35	C	0.000419	-0.141473	-0.026439
C36	C	0.000433	-0.169212	-0.090278
C37	C	0.000396	-0.814745	-0.219497
C38	C	0.000415	-0.815874	-0.296601
C39	C	0.000350	-0.887321	0.156316
C40	C	0.000369	-0.886260	0.228763
C41	C	0.000344	-0.822428	0.256511
C42	C	0.000331	-0.759652	0.211805
C43	C	0.000324	-0.760714	0.139359
C44	C	-0.071359	-0.772245	0.364800
C45	C	-0.071360	-0.771185	0.437244
C46	C	0.000370	-0.819148	0.479956
C47	C	0.072085	-0.868183	0.450217
C48	C	0.072078	-0.869245	0.377771
C49	C	0.000352	-0.821269	0.335065
C50	C	0.000412	-0.880770	0.603209
C51	C	0.000438	-0.879707	0.675657
C52	C	0.000388	-0.753097	0.658697
C53	C	0.000374	-0.754162	0.586250
C54	C	0.000380	-0.818000	0.558511
H55	H	0.000330	-0.593987	-0.211580
O56	O	0.000616	-0.151385	-0.215099
C57	C	0.106677	-0.159125	-0.323621
C58	C	0.106635	-0.128636	-0.253381
H59	H	0.192397	-0.140756	-0.354586
H60	H	0.021098	-0.140659	-0.354673
H61	H	0.106602	-0.218581	-0.313580
H62	H	0.106753	-0.069180	-0.263359
H63	H	0.192206	-0.147156	-0.222351
H64	H	0.000461	-0.930822	0.712049
H65	H	-0.129708	-0.374108	-0.181437
H66	H	0.000353	-0.462561	-0.209652
H67	H	-0.129670	-0.242677	-0.179506
H68	H	0.000479	-0.015674	-0.203099
H69	H	0.000518	-0.046435	0.026600
H70	H	0.000315	-0.493322	0.020044
H71	H	0.000359	-0.939303	0.133736
H72	H	0.000422	-0.932751	0.580622
H73	H	-0.129777	-0.733186	0.330028
H74	H	0.000399	-0.177866	0.024674
H75	H	0.130484	-0.266325	-0.003547
H76	H	0.000313	-0.707679	0.234401
O77	O	0.141824	-0.404366	0.002088
C78	C	0.284022	-0.409648	0.098412
C79	C	0.205096	-0.362668	0.045654
H80	H	0.335178	-0.375956	0.133658
H81	H	0.353273	-0.439706	0.069122
H82	H	0.221965	-0.448074	0.131545
H83	H	0.267056	-0.324202	0.012507
H84	H	0.135834	-0.332659	0.074987
O85	O	0.000300	-0.631687	0.028049
C86	C	0.000203	-0.640864	0.153738
C87	C	0.000193	-0.591720	0.084663
H88	H	0.000091	-0.608570	0.199529
H89	H	0.085858	-0.675213	0.156452
H90	H	-0.085429	-0.675197	0.156368
H91	H	0.085767	-0.557342	0.081987
H92	H	-0.085519	-0.557417	0.081978
H93	H	0.000390	-0.937375	0.265162
H94	H	0.130474	-0.909169	0.353560
O95	O	0.141922	-0.914683	0.491714
C96	C	0.306352	-0.931106	0.575867
C97	C	0.227377	-0.878370	0.528890
H98	H	0.375444	-0.901768	0.605946
H99	H	0.357695	-0.966322	0.542195
H100	H	0.244313	-0.964277	0.614275
H101	H	0.289327	-0.845153	0.490474
H102	H	0.176022	-0.843203	0.562605
H103	H	0.000374	-0.701123	0.681288
O104	O	0.000285	-0.693124	0.542927
C105	C	0.000305	-0.567435	0.533753
C106	C	0.000374	-0.636511	0.582895
H107	H	0.000404	-0.521645	0.566047
H108	H	-0.085364	-0.564716	0.499436
H109	H	0.085923	-0.564809	0.499386
H110	H	-0.085186	-0.639183	0.617306
H111	H	0.086100	-0.639201	0.617164
O112	O	-0.141052	-0.723491	0.466014
C113	C	-0.283376	-0.627417	0.445503
C114	C	-0.204483	-0.681383	0.412831
H115	H	-0.334701	-0.593368	0.402521
H116	H	-0.221400	-0.593220	0.474881
H117	H	-0.352503	-0.655749	0.483307
H118	H	-0.135348	-0.653109	0.374996
H119	H	-0.266536	-0.715578	0.383496
H120	H	0.000308	-0.709599	0.102967
