data_functionalizedCrystal
_audit_creation_method	'MofGen! by Chris Wilmer'
_symmetry_space_group_name_H-M	'P1'
_symmetry_Int_Tables_number	1
_symmetry_cell_setting	triclinic
loop_
_symmetry_equiv_pos_as_xyz
  x,y,z
_cell_length_a	14.908783
_cell_length_b	16.120444
_cell_length_c	14.908308
_cell_angle_alpha	95.986749
_cell_angle_beta	89.788727
_cell_angle_gamma	96.376156
loop_
_atom_site_label
_atom_site_type_symbol
_atom_site_fract_x
_atom_site_fract_y
_atom_site_fract_z
Zn1	Zn	1.328315	-0.293307	-0.602926
Zn2	Zn	1.329261	-0.425029	-0.459346
Zn3	Zn	1.186681	-0.292400	-0.443851
Zn4	Zn	1.169356	-0.441087	-0.601794
O5	O	1.253403	-0.362956	-0.526979
O6	O	1.454636	-0.304440	-0.590838
O7	O	1.317994	-0.400335	-0.331102
O8	O	1.212323	-0.175169	-0.458941
O9	O	1.455331	-0.401215	-0.485350
O10	O	1.316381	-0.175835	-0.575813
O11	O	1.213241	-0.302893	-0.319717
O12	O	1.058187	-0.318464	-0.457844
O13	O	1.182796	-0.428584	-0.728133
O14	O	1.045459	-0.427704	-0.573884
O15	O	1.299582	-0.320011	-0.728964
O16	O	1.301195	-0.544511	-0.484253
O17	O	1.183713	-0.556308	-0.588909
C18	C	1.240700	-0.580837	-0.538160
C19	C	1.235346	-0.674045	-0.542978
C20	C	1.019102	-0.374729	-0.514060
C21	C	0.918864	-0.379786	-0.508555
C22	C	0.729762	-0.288675	-0.608240
C23	C	0.635580	-0.293425	-0.603071
C24	C	0.636317	-0.394030	-0.493044
C25	C	0.730499	-0.389280	-0.498213
C26	C	0.777218	-0.336602	-0.555814
C27	C	0.871402	-0.331858	-0.560988
C28	C	0.872137	-0.432458	-0.450956
C29	C	0.777955	-0.437207	-0.445787
C30	C	1.281385	-0.880361	-0.502191
C31	C	1.225587	-0.844692	-0.551785
C32	C	1.231019	-0.749735	-0.546884
C33	C	1.275955	-0.975326	-0.507092
C34	C	1.488619	-0.351138	-0.539949
C35	C	1.588854	-0.346101	-0.545476
C36	C	1.239151	-0.376190	-0.762183
C37	C	1.233077	-0.381829	-0.862413
C38	C	1.266179	-0.144223	-0.515775
C39	C	1.271624	-0.051013	-0.511001
C40	C	1.343273	-0.279350	-1.051622
C41	C	1.337569	-0.284646	-1.145797
C42	C	1.215963	-0.397712	-1.144938
C43	C	1.221666	-0.392416	-1.050763
C44	C	1.285324	-0.333234	-1.004109
C45	C	1.291032	-0.327943	-0.909932
C46	C	1.169422	-0.441004	-0.909075
C47	C	1.163718	-0.446300	-1.003250
C48	C	1.267655	-0.349710	-0.292690
C49	C	1.273917	-0.343826	-0.192458
H50	H	0.909439	-0.288965	-0.607890
N51	N	1.346411	-0.829200	-0.444306
N52	N	1.320937	-0.778721	-0.382607
H53	H	1.366859	-0.742578	-0.341724
N54	N	1.356062	-0.267492	-0.862288
N55	N	1.407795	-0.219385	-0.904726
H56	H	1.453724	-0.176688	-0.871080
N57	N	1.150926	-0.458130	-1.192621
N58	N	1.092017	-0.434432	-1.240484
H59	H	1.046081	-0.477095	-1.274167
H60	H	0.598263	-0.436908	-0.446138
N61	N	0.587094	-0.244472	-0.656616
N62	N	0.539560	-0.191861	-0.619353
H63	H	0.505315	-0.157285	-0.657171
N64	N	0.920613	-0.481405	-0.397385
N65	N	0.915448	-0.471577	-0.313316
H66	H	0.949684	-0.506146	-0.275483
H67	H	1.395110	-0.231166	-1.013635
N68	N	1.396763	-0.229594	-1.194316
N69	N	1.453590	-0.176756	-1.152644
H70	H	1.495397	-0.137871	-1.186910
N71	N	0.777476	-0.234873	-0.667087
N72	N	0.735092	-0.192088	-0.713897
H73	H	0.768788	-0.154088	-0.755459
N74	N	0.730215	-0.491005	-0.386952
N75	N	0.646125	-0.495237	-0.382340
H76	H	0.612409	-0.533233	-0.340788
H77	H	1.173738	-0.885469	-0.597925
H78	H	1.111888	-0.494483	-1.041249
H79	H	1.122238	-0.484883	-0.870381
