data_functionalizedCrystal
_audit_creation_method	'MofGen! by Chris Wilmer'
_symmetry_space_group_name_H-M	'P1'
_symmetry_Int_Tables_number	1
_symmetry_cell_setting	triclinic
loop_
_symmetry_equiv_pos_as_xyz
  x,y,z
_cell_length_a	17.640112
_cell_length_b	12.759399
_cell_length_c	12.759393
_cell_angle_alpha	90.030906
_cell_angle_beta	101.174084
_cell_angle_gamma	78.760271
loop_
_atom_site_label
_atom_site_type_symbol
_atom_site_fract_x
_atom_site_fract_y
_atom_site_fract_z
Zn1	Zn	1.208352	0.093196	-0.269864
Zn2	Zn	1.208269	0.268934	-0.094206
Zn3	Zn	1.076176	0.128799	-0.129657
Zn4	Zn	1.076169	0.304387	-0.305280
O5	O	1.142242	0.198829	-0.199752
O6	O	1.318941	0.086770	-0.216905
O7	O	1.190715	0.250407	0.048104
O8	O	1.093747	-0.022955	-0.148271
O9	O	1.318881	0.215884	-0.087849
O10	O	1.190856	-0.049112	-0.251281
O11	O	1.093667	0.147451	0.022058
O12	O	0.965575	0.181829	-0.182612
O13	O	1.093735	0.276310	-0.447595
O14	O	0.965570	0.310833	-0.311641
O15	O	1.190850	0.121148	-0.421575
O16	O	1.190708	0.420668	-0.122190
O17	O	1.093655	0.446716	-0.277265
C18	C	0.936895	0.254043	-0.254817
C19	C	0.849047	0.277688	-0.278399
C20	C	1.142301	0.198712	-0.473769
C21	C	1.142326	0.198663	-0.590539
C22	C	1.142193	0.471809	-0.199741
C23	C	1.142245	0.588572	-0.199752
C24	C	0.560029	0.019176	-0.020609
C25	C	0.477483	0.041416	-0.042783
C26	C	0.477532	0.175932	-0.176909
C27	C	0.560080	0.153700	-0.154751
C28	C	0.601322	0.075321	-0.076599
C29	C	0.601373	0.209846	-0.210740
C30	C	0.683914	0.187618	-0.188580
C31	C	0.725162	0.109246	-0.110429
C32	C	0.683863	0.053094	-0.054438
C33	C	0.560129	0.288229	-0.288887
C34	C	0.601422	0.344375	-0.344876
C35	C	0.683965	0.322143	-0.322721
C36	C	0.725213	0.243770	-0.244571
C37	C	0.725263	0.378294	-0.378712
C38	C	0.807805	0.356067	-0.356551
C39	C	0.807754	0.221543	-0.222410
C40	C	1.348390	0.143401	-0.144472
C41	C	1.436238	0.119780	-0.120915
C42	C	1.142312	-0.075223	-0.199780
C43	C	1.142342	-0.192008	-0.199792
C44	C	1.192838	0.629821	-0.119065
C45	C	1.192889	0.739531	-0.119087
C46	C	1.091746	0.766737	-0.280487
C47	C	1.091700	0.657027	-0.280468
C48	C	1.192897	0.117858	-0.631854
C49	C	1.192911	0.117809	-0.741574
C50	C	1.091780	0.279379	-0.768657
C51	C	1.091763	0.279423	-0.658939
C52	C	1.142228	0.198857	0.073212
C53	C	1.142356	0.198570	0.190022
H54	H	0.841336	0.157703	-0.158786
H55	H	0.792373	0.091152	-0.092385
H56	H	0.567831	0.408194	-0.408504
H57	H	1.050576	0.345224	-0.625303
O58	O	1.037216	0.840572	-0.367528
H59	H	1.045738	0.923793	-0.353977
H60	H	1.233996	0.574086	-0.053342
O61	O	1.247456	0.784032	-0.032065
H62	H	1.233918	0.766712	0.046784
H63	H	1.234089	0.052009	-0.775206
H64	H	0.691671	0.442117	-0.442335
H65	H	0.443865	-0.004318	0.002809
H66	H	1.050501	0.623441	-0.346178
O67	O	1.247424	0.030751	-0.558076
H68	H	1.282586	-0.025450	-0.605244
O69	O	0.728358	-0.031443	0.029854
H70	H	0.685779	-0.066753	0.065071
H71	H	1.050615	0.345133	-0.824361
H72	H	0.443941	0.239751	-0.240537
H73	H	0.492919	0.306324	-0.306927
O74	O	0.604519	-0.065361	0.063686
H75	H	0.588686	-0.143534	0.041279
O76	O	0.852352	0.416613	-0.416942
H77	H	0.809807	0.474839	-0.475017
