data_functionalizedCrystal
_audit_creation_method	'MofGen! by Chris Wilmer'
_symmetry_space_group_name_H-M	'P1'
_symmetry_Int_Tables_number	1
_symmetry_cell_setting	triclinic
loop_
_symmetry_equiv_pos_as_xyz
  x,y,z
_cell_length_a	11.169417
_cell_length_b	19.121063
_cell_length_c	19.120904
_cell_angle_alpha	94.741613
_cell_angle_beta	92.426083
_cell_angle_gamma	92.469728
loop_
_atom_site_label
_atom_site_type_symbol
_atom_site_fract_x
_atom_site_fract_y
_atom_site_fract_z
Zn1	Zn	1.783215	-0.297092	-0.409709
Zn2	Zn	1.783067	-0.409739	-0.297060
Zn3	Zn	1.591464	-0.292095	-0.292068
Zn4	Zn	1.573510	-0.414721	-0.414687
O5	O	1.682814	-0.353412	-0.353381
O6	O	1.951144	-0.312041	-0.394771
O7	O	1.765102	-0.389957	-0.197937
O8	O	1.624476	-0.194295	-0.303501
O9	O	1.951035	-0.394802	-0.312008
O10	O	1.765355	-0.197966	-0.389931
O11	O	1.624332	-0.303524	-0.194270
O12	O	1.421133	-0.308355	-0.308329
O13	O	1.593876	-0.403294	-0.512487
O14	O	1.407943	-0.398448	-0.398416
O15	O	1.747946	-0.316872	-0.508830
O16	O	1.747692	-0.508863	-0.316835
O17	O	1.593732	-0.512523	-0.403256
C18	C	1.370991	-0.353401	-0.353371
C19	C	1.237589	-0.353414	-0.353385
C20	C	1.668779	-0.536224	-0.361143
C21	C	1.662883	-0.614433	-0.364487
C22	C	1.740329	-0.649248	-0.321101
C23	C	1.734790	-0.722734	-0.324250
C24	C	1.651799	-0.761403	-0.370783
C25	C	1.574350	-0.726583	-0.414174
C26	C	1.579895	-0.653099	-0.411027
C27	C	1.631049	-0.983375	-0.382535
C28	C	1.625507	-1.056864	-0.385676
C29	C	1.785949	-1.053010	-0.295753
C30	C	1.791482	-0.979524	-0.292608
C31	C	1.714037	-0.944710	-0.336002
C32	C	1.646133	-0.836517	-0.374001
C33	C	1.719710	-0.869598	-0.332786
C34	C	1.995855	-0.353423	-0.353391
C35	C	2.129254	-0.353428	-0.353395
C36	C	1.668924	-0.361196	-0.536902
C37	C	1.663006	-0.364514	-0.615108
C38	C	1.696935	-0.169887	-0.345604
C39	C	1.702953	-0.091679	-0.342290
C40	C	1.740437	-0.321079	-0.649946
C41	C	1.734861	-0.324193	-0.723429
C42	C	1.651859	-0.370746	-0.762072
C43	C	1.574420	-0.414183	-0.727229
C44	C	1.579991	-0.411064	-0.653747
C45	C	1.631020	-0.382409	-0.984033
C46	C	1.625458	-0.385526	-1.057520
C47	C	1.785898	-0.295535	-1.053714
C48	C	1.791466	-0.292424	-0.980232
C49	C	1.714023	-0.335858	-0.945395
C50	C	1.646160	-0.373932	-0.837183
C51	C	1.719717	-0.332668	-0.870285
C52	C	1.696722	-0.345607	-0.170572
C53	C	1.702889	-0.342091	-0.092358
H54	H	1.807904	-0.617768	-0.283206
H55	H	1.578585	-0.411839	-0.868655
H56	H	1.567988	-0.955035	-0.417866
H57	H	1.506782	-0.758073	-0.452064
Br58	Br	1.832344	-0.269481	-0.817840
Br59	Br	1.832344	-0.817118	-0.269641
Br60	Br	1.474793	-0.605849	-0.469915
H61	H	1.797854	-0.751077	-0.288920
H62	H	1.859060	-0.948041	-0.254718
Br63	Br	1.533507	-0.889003	-0.437152
H64	H	1.797916	-0.288826	-0.751790
Br65	Br	1.525915	-0.441354	-0.936764
Br66	Br	1.904120	-0.229245	-0.927792
Br67	Br	1.891053	-1.100260	-0.236869
H68	H	1.557864	-0.423437	-1.088981
H69	H	1.557939	-1.088347	-0.423581
H70	H	1.808029	-0.283173	-0.618488
Br71	Br	1.890992	-0.236591	-1.100997
Br72	Br	1.474894	-0.470009	-0.606466
H73	H	1.506833	-0.452085	-0.758698
