data_functionalizedCrystal
_audit_creation_method	'MofGen! by Chris Wilmer'
_symmetry_space_group_name_H-M	'P1'
_symmetry_Int_Tables_number	1
_symmetry_cell_setting	triclinic
loop_
_symmetry_equiv_pos_as_xyz
  x,y,z
_cell_length_a	13.339070
_cell_length_b	10.540539
_cell_length_c	12.376457
_cell_angle_alpha	101.393660
_cell_angle_beta	75.589755
_cell_angle_gamma	100.077393
loop_
_atom_site_label
_atom_site_type_symbol
_atom_site_fract_x
_atom_site_fract_y
_atom_site_fract_z
O1	O	1.366170	0.620442	-0.094026
O2	O	1.071037	0.536703	-0.094022
O3	O	1.225337	0.396162	-0.094023
O4	O	1.211871	0.760984	-0.094026
O5	O	1.186775	0.431235	0.093989
O6	O	1.032476	0.571777	0.093990
O7	O	1.327609	0.655516	0.093986
Zn8	Zn	1.173920	0.619215	0.123839
Zn9	Zn	1.224726	0.573004	-0.123875
O10	O	1.173309	0.796058	0.093987
C11	C	1.013965	0.540095	-0.000016
C12	C	0.901358	0.497931	-0.000014
C13	C	0.538938	0.825771	-0.000035
C14	C	0.644738	0.865389	-0.000040
C15	C	0.708898	0.773528	-0.000033
C16	C	0.667248	0.642042	-0.000022
C17	C	0.561440	0.602418	-0.000026
C18	C	0.731400	0.550175	-0.000024
C19	C	0.689750	0.418690	-0.000014
C20	C	0.583951	0.379073	-0.000017
C21	C	0.519791	0.470934	-0.000024
C22	C	0.837208	0.589799	-0.000020
C23	C	0.859710	0.366447	-0.000012
C24	C	0.753910	0.326829	-0.000007
C25	C	1.205046	0.366051	-0.000019
C26	C	1.202026	0.224072	-0.000025
C27	C	1.086335	0.001104	-0.000445
C28	C	1.089311	0.148845	-0.000022
C29	C	1.234249	0.200932	0.107338
C30	C	1.230384	0.053093	0.107429
C31	C	1.276528	0.013471	-0.106376
C32	C	1.277857	0.160541	-0.107796
C33	C	1.384681	0.652124	-0.000023
C34	C	1.497290	0.694286	-0.000032
C35	C	1.193600	0.826168	-0.000020
C36	C	1.196622	0.968146	-0.000021
N37	N	1.139253	0.650755	0.292897
N38	N	1.259401	0.541457	-0.292934
C39	C	1.339873	0.468218	0.647881
C40	C	1.364130	0.446141	0.529541
C41	C	1.307913	0.497292	0.470375
C42	C	1.227434	0.570525	0.529559
C43	C	1.203180	0.592613	0.647911
C44	C	1.171220	0.621687	0.470404
C45	C	1.090741	0.694920	0.529589
C46	C	1.066490	0.717003	0.647929
C47	C	1.122707	0.665852	0.707096
C48	C	1.195474	0.599599	0.352053
C49	C	1.058781	0.723994	0.352082
C50	C	1.034523	0.746071	0.470422
H51	H	0.911950	0.291645	-0.000011
N52	N	0.687269	0.999694	-0.000018
N53	N	0.727533	1.061505	0.079240
H54	H	0.757569	1.156367	0.079261
H55	H	0.968996	0.805699	0.518625
N56	N	0.411712	0.430471	-0.000005
N57	N	0.343209	0.477431	0.079248
H58	H	0.266876	0.448859	0.079261
N59	N	1.011013	-0.037842	0.095601
N60	N	1.038203	-0.089764	0.164363
H61	H	0.985009	-0.117272	0.232198
H62	H	0.719985	0.219769	-0.000008
N63	N	1.001367	0.776253	0.291640
N64	N	1.023034	0.756527	0.185976
H65	H	0.982494	0.793436	0.143282
N66	N	0.473395	0.919591	-0.000022
N67	N	0.461406	1.013573	0.079229
H68	H	0.415113	1.079840	0.079238
N69	N	1.251690	-0.060730	-0.208462
N70	N	1.231157	-0.004440	-0.278721
H71	H	1.213603	-0.056844	-0.350815
H72	H	1.062415	0.162543	-0.076985
N73	N	1.097935	0.688381	0.827981
N74	N	1.148132	0.642689	0.880787
H75	H	1.130638	0.658597	0.966164
N76	N	1.159431	0.019318	0.208090
N77	N	1.143747	-0.095770	0.226354
H78	H	1.093632	-0.119621	0.297446
H79	H	0.871108	0.696856	-0.000025
N80	N	0.984298	0.791836	0.708369
N81	N	0.934115	0.837508	0.655534
H82	H	0.876068	0.890363	0.698217
H83	H	1.057601	-0.057036	-0.077437
N84	N	1.277667	0.524781	0.291617
N85	N	1.354466	0.575008	0.225563
H86	H	1.412516	0.522153	0.182889
H87	H	1.030519	0.190332	0.077069
H88	H	1.310448	0.033663	0.112299
H89	H	1.316205	0.252244	0.111329
N90	N	1.166417	0.256959	0.207563
N91	N	1.094298	0.313970	0.200199
H92	H	1.046386	0.353536	0.270980
H93	H	1.429656	0.386518	0.481358
N94	N	1.248559	0.176359	-0.207430
N95	N	1.172133	0.234193	-0.199186
H96	H	1.151438	0.245370	-0.269550
H97	H	1.361364	0.211563	-0.114280
H98	H	0.795045	0.805792	-0.000039
N99	N	0.541387	0.244770	-0.000020
N100	N	0.501112	0.182960	-0.079270
H101	H	0.471048	0.088109	-0.079272
N102	N	1.378851	-0.011141	-0.107319
N103	N	1.454114	0.018035	-0.185381
H104	H	1.526375	0.000648	-0.186042
N105	N	1.332708	0.474740	0.349494
N106	N	1.404566	0.409357	0.296665
H107	H	1.422081	0.393424	0.211288
H108	H	1.385643	0.426586	0.696063
