data_functionalizedCrystal
_audit_creation_method	'MofGen! by Chris Wilmer'
_symmetry_space_group_name_H-M	'P1'
_symmetry_Int_Tables_number	1
_symmetry_cell_setting	triclinic
loop_
_symmetry_equiv_pos_as_xyz
  x,y,z
_cell_length_a	14.971486
_cell_length_b	19.288865
_cell_length_c	14.048226
_cell_angle_alpha	89.988335
_cell_angle_beta	89.998499
_cell_angle_gamma	83.375189
loop_
_atom_site_label
_atom_site_type_symbol
_atom_site_fract_x
_atom_site_fract_y
_atom_site_fract_z
O1	O	1.186458	0.090517	-0.079062
O2	O	1.686458	0.590517	0.420938
O3	O	0.925999	0.101357	-0.079090
O4	O	1.425999	0.601357	0.420910
O5	O	1.063754	-0.005169	-0.079056
O6	O	1.563754	0.494831	0.420944
O7	O	1.048702	0.197043	-0.079096
O8	O	1.548702	0.697043	0.420904
O9	O	1.063738	-0.005175	0.079265
O10	O	1.563738	0.494825	0.579265
O11	O	0.925982	0.101351	0.079232
O12	O	1.425982	0.601351	0.579232
O13	O	1.186441	0.090511	0.079259
O14	O	1.686441	0.590511	0.579259
Zn15	Zn	1.056209	0.095930	0.104382
Zn16	Zn	1.556209	0.595930	0.604382
Zn17	Zn	1.056231	0.095938	-0.104213
Zn18	Zn	1.556231	0.595938	0.395787
O19	O	1.048686	0.197037	0.079226
O20	O	1.548686	0.697037	0.579226
C21	C	0.892669	0.100869	0.000068
C22	C	1.392669	0.600869	0.500068
C23	C	0.793379	0.099416	0.000058
C24	C	1.293379	0.599416	0.500058
C25	C	0.735816	0.161997	0.000047
C26	C	1.235816	0.661997	0.500047
C27	C	0.642524	0.160628	0.000062
C28	C	1.142524	0.660628	0.500062
C29	C	0.606797	0.096677	0.000080
C30	C	1.106797	0.596677	0.500080
C31	C	0.664368	0.034092	0.000094
C32	C	1.164368	0.534092	0.500094
C33	C	0.757658	0.035461	0.000086
C34	C	1.257658	0.535461	0.500086
C35	C	0.469921	0.031241	0.000108
C36	C	0.969921	0.531241	0.500108
C37	C	0.376624	0.029871	0.000113
C38	C	0.876624	0.529871	0.500113
C39	C	0.354786	0.156407	0.000083
C40	C	0.854786	0.656407	0.500083
C41	C	0.448077	0.157777	0.000075
C42	C	0.948077	0.657777	0.500075
C43	C	0.505641	0.095191	0.000087
C44	C	1.005641	0.595191	0.500087
C45	C	1.063262	-0.031050	0.000107
C46	C	1.563262	0.468950	0.500107
C47	C	1.061808	-0.108158	0.000115
C48	C	1.561808	0.391842	0.500115
C49	C	1.142636	-0.152591	0.000128
C50	C	1.642636	0.347409	0.500128
C51	C	1.141271	-0.225043	0.000113
C52	C	1.641271	0.274957	0.500113
C53	C	1.059071	-0.253058	0.000104
C54	C	1.559071	0.246942	0.500104
C55	C	0.978232	-0.208615	0.000085
C56	C	1.478232	0.291385	0.500085
C57	C	0.979600	-0.136166	0.000091
C58	C	1.479600	0.363834	0.500091
C59	C	0.994448	-0.361558	0.055554
C60	C	1.494448	0.138442	0.555554
C61	C	0.993083	-0.434007	0.055554
C62	C	1.493083	0.065993	0.555554
C63	C	1.054848	-0.476517	0.000082
C64	C	1.554848	0.023483	0.500082
C65	C	1.117994	-0.446571	-0.055378
C66	C	1.617994	0.053429	0.444622
C67	C	1.119362	-0.374121	-0.055372
C68	C	1.619362	0.125879	0.444628
C69	C	1.057579	-0.331617	0.000097
C70	C	1.557579	0.168383	0.500097
C71	C	1.134201	-0.599511	0.000077
C72	C	1.634201	-0.099511	0.500077
C73	C	1.132832	-0.671963	0.000056
C74	C	1.632832	-0.171963	0.500056
C75	C	0.969791	-0.655535	0.000038
C76	C	1.469791	-0.155535	0.500038
C77	C	0.971163	-0.583084	0.000050
C78	C	1.471163	-0.083084	0.500050
C79	C	1.053370	-0.555077	0.000074
C80	C	1.553370	-0.055077	0.500074
C81	C	1.219771	0.090999	0.000099
C82	C	1.719771	0.590999	0.500099
C83	C	1.319061	0.092452	0.000103
C84	C	1.819061	0.592452	0.500103
C85	C	1.049178	0.222918	0.000060
C86	C	1.549178	0.722918	0.500060
C87	C	1.050632	0.300026	0.000046
C88	C	1.550632	0.800026	0.500046
N89	N	1.056201	0.095924	0.246743
N90	N	1.556201	0.595924	0.746743
N91	N	1.056246	0.095939	-0.246574
N92	N	1.556246	0.595939	0.253426
C93	C	1.117218	0.048774	0.296576
C94	C	1.617218	0.548774	0.796576
C95	C	1.117224	0.048773	0.396233
C96	C	1.617224	0.548773	0.896233
C97	C	1.056217	0.095927	0.446056
C98	C	1.556217	0.595927	0.946056
C99	C	0.995193	0.143079	0.396217
C100	C	1.495193	0.643079	0.896217
C101	C	0.995183	0.143076	0.296561
C102	C	1.495183	0.643076	0.796561
C103	C	0.995219	0.143084	0.603931
C104	C	1.495219	0.643084	1.103931
C105	C	0.995229	0.143089	0.703593
C106	C	1.495229	0.643089	1.203593
C107	C	1.117259	0.048782	0.703603
C108	C	1.617259	0.548782	1.203603
C109	C	1.117250	0.048778	0.603947
C110	C	1.617250	0.548778	1.103947
C111	C	1.056227	0.095932	0.554115
C112	C	1.556227	0.595932	1.054115
H113	H	1.209576	-0.129793	0.000145
H114	H	1.709576	0.370207	0.500145
H115	H	0.804527	-0.015498	0.000094
H116	H	1.304527	0.484502	0.500094
H117	H	1.166901	0.010379	0.256016
H118	H	1.666901	0.510379	0.756016
Cl119	Cl	0.916794	-0.308124	0.125299
Cl120	Cl	1.416794	0.191876	0.625299
Cl121	Cl	0.780719	0.242397	0.000018
Cl122	Cl	1.280719	0.742397	0.500018
Cl123	Cl	0.913705	-0.471647	0.125277
Cl124	Cl	1.413705	0.028353	0.625277
Cl125	Cl	0.282420	0.235087	0.000070
Cl126	Cl	0.782420	0.735087	0.500070
Cl127	Cl	0.619455	-0.046304	0.000123
Cl128	Cl	1.119455	0.453696	0.500123
H129	H	1.170775	-0.349742	-0.100531
H130	H	1.670775	0.150258	0.399469
H131	H	1.168289	-0.481182	-0.100548
H132	H	1.668289	0.018818	0.399452
H133	H	0.347539	-0.022204	0.000130
H134	H	0.847539	0.477796	0.500130
Cl135	Cl	0.570161	0.239305	0.000042
Cl136	Cl	1.070161	0.739305	0.500042
H137	H	0.516788	-0.019723	0.000119
H138	H	1.016788	0.480277	0.500119
H139	H	1.198655	-0.708141	0.000062
H140	H	1.698655	-0.208141	0.500062
Cl141	Cl	1.242891	-0.280911	0.000129
Cl142	Cl	1.742891	0.219089	0.500129
H143	H	1.201139	-0.576706	0.000093
H144	H	1.701139	-0.076706	0.500093
H145	H	1.166908	0.010380	0.436807
H146	H	1.666908	0.510380	0.936807
H147	H	0.902863	-0.678344	0.000026
H148	H	1.402863	-0.178344	0.500026
H149	H	0.905343	-0.546906	0.000044
H150	H	1.405343	-0.046906	0.500044
Cl151	Cl	1.193950	-0.010496	0.541311
Cl152	Cl	1.693950	0.489504	1.041311
H153	H	0.911305	-0.231430	0.000076
H154	H	1.411305	0.268570	0.500076
H155	H	0.913778	-0.099988	0.000081
H156	H	1.413778	0.400012	0.500081
H157	H	0.477162	0.209852	0.000051
H158	H	0.977162	0.709852	0.500051
Cl159	Cl	0.918528	0.202369	0.766221
Cl160	Cl	1.418528	0.702369	1.266221
Cl161	Cl	1.193973	-0.010494	0.766254
Cl162	Cl	1.693973	0.489506	1.266254
H163	H	0.945524	0.181479	0.563360
H164	H	1.445524	0.681479	1.063360
Cl165	Cl	0.918492	0.202356	0.458849
Cl166	Cl	1.418492	0.702356	0.958849
Cl167	Cl	0.918469	0.202350	0.233915
Cl168	Cl	1.418469	0.702350	0.733915
