data_functionalizedCrystal
_audit_creation_method	'MofGen! by Chris Wilmer'
_symmetry_space_group_name_H-M	'P1'
_symmetry_Int_Tables_number	1
_symmetry_cell_setting	triclinic
loop_
_symmetry_equiv_pos_as_xyz
  x,y,z
_cell_length_a	12.759395
_cell_length_b	12.759394
_cell_length_c	12.759387
_cell_angle_alpha	90.031332
_cell_angle_beta	90.019071
_cell_angle_gamma	90.016374
loop_
_atom_site_label
_atom_site_type_symbol
_atom_site_fract_x
_atom_site_fract_y
_atom_site_fract_z
Zn1	Zn	1.606253	-0.418171	0.593999
Zn2	Zn	1.606147	-0.593887	0.418317
Zn3	Zn	1.430555	-0.418228	0.418336
Zn4	Zn	1.430543	-0.593814	0.593956
O5	O	1.518375	-0.506025	0.506152
O6	O	1.753260	-0.441488	0.570704
O7	O	1.582816	-0.570640	0.271298
O8	O	1.453911	-0.271199	0.441664
O9	O	1.753182	-0.570586	0.441631
O10	O	1.582995	-0.271158	0.570723
O11	O	1.453809	-0.441584	0.271312
O12	O	1.283533	-0.441512	0.441622
O13	O	1.453890	-0.570460	0.740983
O14	O	1.283523	-0.570515	0.570649
O15	O	1.582983	-0.441416	0.741014
O16	O	1.582804	-0.740899	0.441590
O17	O	1.453788	-0.740845	0.570631
C18	C	1.245407	-0.506012	0.506134
C19	C	1.128630	-0.506032	0.506151
C20	C	1.128659	-0.640580	0.640290
C21	C	1.073813	-0.707861	0.707362
C22	C	0.964092	-0.707874	0.707375
C23	C	0.909214	-0.640596	0.640310
C24	C	0.964060	-0.573314	0.573238
C25	C	1.073784	-0.573310	0.573230
C26	C	0.964031	-0.438763	0.439106
C27	C	1.073753	-0.438753	0.439086
C28	C	0.909153	-0.371484	0.372042
C29	C	0.963999	-0.304206	0.304962
C30	C	1.073728	-0.304196	0.304951
C31	C	1.128599	-0.371471	0.372014
C32	C	1.518312	-0.778993	0.506126
C33	C	1.518381	-0.895769	0.506151
C34	C	1.652826	-0.895772	0.371881
C35	C	1.720076	-0.950635	0.304758
C36	C	1.720137	-1.060356	0.304786
C37	C	1.652944	-1.115218	0.371947
C38	C	1.585694	-1.060356	0.439070
C39	C	1.585637	-0.950632	0.439032
C40	C	1.451256	-1.060353	0.573343
C41	C	1.451187	-0.950631	0.573311
C42	C	1.384063	-1.115214	0.640504
C43	C	1.316806	-1.060352	0.707623
C44	C	1.316746	-0.950624	0.707591
C45	C	1.383937	-0.895769	0.640434
C46	C	1.792408	-0.506039	0.506170
C47	C	1.909185	-0.506044	0.506178
C48	C	1.518447	-0.505924	0.780185
C49	C	1.518478	-0.505880	0.896962
C50	C	1.518467	-0.231992	0.506200
C51	C	1.518506	-0.115215	0.506221
C52	C	1.518363	-0.506050	0.233184
C53	C	1.518536	-0.505797	0.116408
C54	C	1.652970	-0.371433	1.116439
C55	C	1.720168	-0.304267	1.061593
C56	C	1.720139	-0.304302	0.951871
C57	C	1.652905	-0.371513	0.896993
C58	C	1.585706	-0.438679	0.951838
C59	C	1.585741	-0.438635	1.061562
C60	C	1.451279	-0.573047	0.951808
C61	C	1.451302	-0.573008	1.061529
C62	C	1.384046	-0.640258	0.896929
C63	C	1.316840	-0.707421	0.951775
C64	C	1.316872	-0.707382	1.061503
C65	C	1.384103	-0.640175	1.116375
H66	H	1.118507	-0.762637	0.761966
H67	H	1.774903	-1.105025	0.250135
O68	O	1.792613	-0.231861	0.892706
H69	H	1.839367	-0.185115	0.949294
H70	H	0.819873	-0.640603	0.640336
H71	H	0.819812	-0.371495	0.372061
H72	H	1.653009	-1.204559	0.371973
O73	O	1.652985	-0.371390	1.234781
H74	H	1.732224	-0.392624	1.263723
H75	H	1.262109	-0.762143	0.907084
H76	H	0.919309	-0.249428	0.250369
H77	H	1.262154	-0.762081	1.106152
O78	O	1.384114	-1.233557	0.640533
H79	H	1.442154	-1.262492	0.582567
H80	H	1.652896	-0.371544	0.807651
O81	O	1.246942	-0.371471	0.372003
H82	H	1.275865	-0.313389	0.314093
O83	O	1.383854	-0.777426	0.640370
H84	H	1.325792	-0.748489	0.698313
H85	H	1.262107	-1.105029	0.762305
O86	O	1.384137	-0.640138	1.234718
H87	H	1.442183	-0.582126	1.263659
H88	H	1.774786	-0.905957	0.250078
O89	O	1.132874	-0.231634	0.232594
H90	H	1.111834	-0.149202	0.250756
O91	O	1.244201	-0.891450	0.779977
H92	H	1.197485	-0.948036	0.826669
H93	H	1.384031	-0.640286	0.807588
H94	H	1.218001	-0.640584	0.640278
H95	H	1.774911	-0.249547	1.106287
H96	H	0.919436	-0.762656	0.761996
O97	O	1.652753	-0.777430	0.371849
H98	H	1.710776	-0.748498	0.313878
