data_functionalizedCrystal
_audit_creation_method	'MofGen! by Chris Wilmer'
_symmetry_space_group_name_H-M	'P1'
_symmetry_Int_Tables_number	1
_symmetry_cell_setting	triclinic
loop_
_symmetry_equiv_pos_as_xyz
  x,y,z
_cell_length_a	19.288864
_cell_length_b	19.288865
_cell_length_c	18.366186
_cell_angle_alpha	90.009647
_cell_angle_beta	90.019533
_cell_angle_gamma	83.136245
loop_
_atom_site_label
_atom_site_type_symbol
_atom_site_fract_x
_atom_site_fract_y
_atom_site_fract_z
O1	O	-0.921350	-0.086647	-0.060791
O2	O	-0.719089	-0.098336	-0.060743
O3	O	-0.826064	0.008639	-0.060754
O4	O	-0.814375	-0.193622	-0.060780
O5	O	-0.826052	0.008641	0.060345
O6	O	-0.719077	-0.098334	0.060357
O7	O	-0.921338	-0.086645	0.060308
Zn8	Zn	-0.820206	-0.092489	0.079559
Zn9	Zn	-0.820221	-0.092492	-0.079994
O10	O	-0.814363	-0.193620	0.060319
C11	C	-0.693207	-0.097959	-0.000187
C12	C	-0.616103	-0.096830	-0.000167
C13	C	-0.825682	0.034516	-0.000202
C14	C	-0.824553	0.111620	-0.000195
N15	N	-0.820200	-0.092486	0.188451
C16	C	-0.947220	-0.087022	-0.000250
C17	C	-1.024324	-0.088151	-0.000274
C18	C	-0.571407	-0.159598	-0.000187
C19	C	-0.498960	-0.158537	-0.000195
C20	C	-0.471212	-0.094705	-0.000198
C21	C	-0.515918	-0.031929	-0.000174
C22	C	-0.588364	-0.032991	-0.000159
C23	C	-0.362954	-0.044526	-0.042642
C24	C	-0.290510	-0.043467	-0.042662
C25	C	-0.247767	-0.091425	-0.000241
C26	C	-0.277475	-0.140455	0.042189
C27	C	-0.349921	-0.141518	0.042205
C28	C	-0.392658	-0.093546	-0.000214
C29	C	-0.124514	-0.153047	-0.000269
C30	C	-0.052066	-0.151984	-0.000272
C31	C	-0.069026	-0.025374	-0.000259
C32	C	-0.141473	-0.026439	-0.000248
C33	C	-0.169212	-0.090278	-0.000256
C34	C	-0.814745	-0.219497	-0.000234
C35	C	-0.815874	-0.296601	-0.000246
C36	C	-0.887321	0.156316	-0.000207
C37	C	-0.886260	0.228763	-0.000218
C38	C	-0.822428	0.256511	-0.000203
C39	C	-0.759652	0.211805	-0.000196
C40	C	-0.760714	0.139359	-0.000192
C41	C	-0.772244	0.364799	0.042227
C42	C	-0.771184	0.437244	0.042228
C43	C	-0.819148	0.479956	-0.000219
C44	C	-0.868184	0.450218	-0.042657
C45	C	-0.869246	0.377772	-0.042653
C46	C	-0.821269	0.335065	-0.000208
C47	C	-0.880770	0.603209	-0.000244
C48	C	-0.879707	0.675657	-0.000259
C49	C	-0.753097	0.658697	-0.000230
C50	C	-0.754162	0.586250	-0.000221
C51	C	-0.818000	0.558511	-0.000225
C52	C	-0.867599	-0.045135	0.772996
C53	C	-0.867600	-0.045136	0.696768
C54	C	-0.820219	-0.092487	0.658662
C55	C	-0.772846	-0.139851	0.696790
C56	C	-0.772851	-0.139853	0.773016
C57	C	-0.756927	-0.101756	0.537922
C58	C	-0.756921	-0.101750	0.461697
C59	C	-0.820204	-0.092485	0.423554
C60	C	-0.883496	-0.083212	0.461646
C61	C	-0.883501	-0.083214	0.537872
C62	C	-0.820209	-0.092490	0.576007
C63	C	-0.867578	-0.045128	0.302781
C64	C	-0.867580	-0.045135	0.226552
C65	C	-0.772821	-0.139846	0.226575
C66	C	-0.772825	-0.139843	0.302802
C67	C	-0.820203	-0.092481	0.340901
N68	N	-0.820229	-0.092490	0.811115
H69	H	-0.593987	-0.211580	-0.000195
Cl70	Cl	-0.644557	0.045924	-0.000135
H71	H	-0.734269	-0.178406	0.665760
Cl72	Cl	-0.679405	0.246686	-0.000183
Cl73	Cl	-0.713268	-0.199375	0.350728
Cl74	Cl	-0.197666	0.052474	-0.000228
Cl75	Cl	-0.963057	-0.071560	0.413704
H76	H	-0.015674	-0.203099	-0.000284
Cl77	Cl	-0.416682	0.015771	-0.095976
Cl78	Cl	-0.442760	-0.237451	-0.000218
Cl79	Cl	-0.967575	0.121448	-0.000232
Cl80	Cl	-0.481037	0.048318	-0.000174
H81	H	-0.703049	0.549857	-0.000208
Cl82	Cl	-0.927143	0.014409	0.350677
H83	H	-0.937375	0.265162	-0.000231
H84	H	-0.705385	-0.109292	0.430689
H85	H	-0.266327	-0.003546	-0.077215
H86	H	-0.909171	0.353562	-0.077208
H87	H	-0.906158	-0.006574	0.195515
H88	H	-0.734276	-0.178416	0.804053
Cl89	Cl	-0.223749	-0.200751	0.095522
Cl90	Cl	-0.387267	-0.203150	0.095547
Cl91	Cl	-0.677363	-0.113407	0.585865
H92	H	-0.147101	-0.205028	-0.000265
H93	H	-0.907240	0.484993	-0.077221
H94	H	-0.932751	0.580622	-0.000250
Cl95	Cl	-0.034151	0.054873	-0.000254
Cl96	Cl	-0.713262	-0.199378	0.178675
Cl97	Cl	-0.963063	-0.071565	0.585757
H98	H	-0.930822	0.712049	-0.000273
Cl99	Cl	-0.672850	0.693572	-0.000215
H100	H	-0.906178	-0.006571	0.804013
Cl101	Cl	-0.709543	0.474623	0.095580
H102	H	-0.906175	-0.006572	0.665726
H103	H	-0.733184	0.330027	0.076796
H104	H	-0.709599	0.102967	-0.000182
