data_functionalizedCrystal
_audit_creation_method	'MofGen! by Chris Wilmer'
_symmetry_space_group_name_H-M	'P1'
_symmetry_Int_Tables_number	1
_symmetry_cell_setting	triclinic
loop_
_symmetry_equiv_pos_as_xyz
  x,y,z
_cell_length_a	19.288864
_cell_length_b	19.188930
_cell_length_c	17.766277
_cell_angle_alpha	89.988508
_cell_angle_beta	89.976791
_cell_angle_gamma	83.140512
loop_
_atom_site_label
_atom_site_type_symbol
_atom_site_fract_x
_atom_site_fract_y
_atom_site_fract_z
O1	O	0.921360	0.087099	-0.062844
O2	O	1.421360	0.587099	0.437156
O3	O	0.719100	0.098849	-0.062794
O4	O	1.219100	0.598849	0.437206
O5	O	0.826066	-0.008682	-0.062806
O6	O	1.326066	0.491318	0.437194
O7	O	0.814393	0.194630	-0.062832
O8	O	1.314393	0.694630	0.437168
O9	O	0.826048	-0.008688	0.062383
O10	O	1.326048	0.491312	0.562383
O11	O	0.719081	0.098843	0.062395
O12	O	1.219081	0.598843	0.562395
O13	O	0.921341	0.087094	0.062345
O14	O	1.421341	0.587094	0.562345
Cu15	Cu	0.820209	0.092968	0.073800
Cu16	Cu	1.320209	0.592968	0.573800
Cu17	Cu	0.820231	0.092974	-0.074250
Cu18	Cu	1.320231	0.592974	0.425750
O19	O	0.814374	0.194625	0.062356
O20	O	1.314374	0.694625	0.562356
C21	C	0.693214	0.098468	-0.000193
C22	C	1.193214	0.598468	0.499807
C23	C	0.616110	0.097333	-0.000173
C24	C	1.116110	0.597333	0.499827
C25	C	0.825679	-0.034696	-0.000209
C26	C	1.325679	0.465304	0.499791
C27	C	0.824544	-0.112200	-0.000202
C28	C	1.324544	0.387800	0.499798
C29	C	0.571419	0.160427	-0.000193
C30	C	1.071419	0.660427	0.499807
C31	C	0.498972	0.159361	-0.000201
C32	C	0.998972	0.659361	0.499799
C33	C	0.471219	0.095197	-0.000204
C34	C	0.971219	0.595197	0.499796
C35	C	0.515921	0.032095	-0.000180
C36	C	1.015921	0.532095	0.499820
C37	C	0.588366	0.033163	-0.000164
C38	C	1.088366	0.533163	0.499836
C39	C	0.362960	0.044759	-0.044082
C40	C	0.862960	0.544759	0.455918
C41	C	0.290515	0.043694	-0.044103
C42	C	0.790515	0.543694	0.455897
C43	C	0.247773	0.091900	-0.000249
C44	C	0.747773	0.591900	0.499751
C45	C	0.277483	0.141184	0.043614
C46	C	0.777483	0.641184	0.543614
C47	C	0.349929	0.142252	0.043630
C48	C	0.849929	0.642252	0.543630
C49	C	0.392665	0.094032	-0.000221
C50	C	0.892665	0.594032	0.499779
C51	C	0.124526	0.153843	-0.000277
C52	C	0.624526	0.653843	0.499723
C53	C	0.052078	0.152774	-0.000281
C54	C	0.552078	0.652774	0.499719
C55	C	0.069028	0.025506	-0.000267
C56	C	0.569028	0.525506	0.499733
C57	C	0.141475	0.026576	-0.000256
C58	C	0.641475	0.526576	0.499744
C59	C	0.169219	0.090747	-0.000265
C60	C	0.669219	0.590747	0.499735
C61	C	0.887309	-0.157129	-0.000214
C62	C	1.387309	0.342871	0.499786
C63	C	0.886243	-0.229953	-0.000226
C64	C	1.386243	0.270047	0.499774
C65	C	0.822408	-0.257844	-0.000211
C66	C	1.322408	0.242156	0.499789
C67	C	0.759636	-0.212906	-0.000203
C68	C	1.259636	0.287094	0.499797
C69	C	0.760704	-0.140084	-0.000199
C70	C	1.260704	0.359916	0.499801
N71	N	0.773608	-0.365848	0.042405
N72	N	1.273608	0.134152	0.542405
N73	N	0.772598	-0.435026	0.042403
N74	N	1.272598	0.064974	0.542403
C75	C	0.819187	-0.477253	-0.000225
C76	C	1.319187	0.022747	0.499775
N77	N	0.866835	-0.447689	-0.042841
N78	N	1.366835	0.052311	0.457159
N79	N	0.867847	-0.378504	-0.042836
N80	N	1.367847	0.121496	0.457164
C81	C	0.821243	-0.336807	-0.000216
C82	C	1.321243	0.163193	0.499784
C83	C	0.880800	-0.601146	-0.000251
C84	C	1.380800	-0.101146	0.499749
C85	C	0.879731	-0.673971	-0.000268
C86	C	1.379731	-0.173971	0.499732
C87	C	0.753122	-0.656922	-0.000237
C88	C	1.253122	-0.156922	0.499763
C89	C	0.754193	-0.584099	-0.000228
C90	C	1.254193	-0.084099	0.499772
C91	C	0.818034	-0.556216	-0.000231
C92	C	1.318034	-0.056216	0.499769
C93	C	0.947227	0.087475	-0.000258
C94	C	1.447227	0.587475	0.499742
C95	C	1.024330	0.088609	-0.000283
C96	C	1.524330	0.588609	0.499717
C97	C	0.814762	0.220638	-0.000242
C98	C	1.314762	0.720638	0.499758
C99	C	0.815896	0.298143	-0.000253
C100	C	1.315896	0.798143	0.499747
N101	N	0.820199	0.092963	0.177931
N102	N	1.320199	0.592963	0.677931
N103	N	0.820247	0.092974	-0.178380
N104	N	1.320247	0.592974	0.321620
C105	C	0.867579	0.045372	0.217312
C106	C	1.367579	0.545372	0.717312
C107	C	0.867583	0.045368	0.296114
C108	C	1.367583	0.545368	0.796114
C109	C	0.820213	0.092969	0.335531
C110	C	1.320213	0.592969	0.835531
C111	C	0.772824	0.140564	0.296140
C112	C	1.272824	0.640564	0.796140
C113	C	0.772817	0.140561	0.217340
C114	C	1.272817	0.640561	0.717340
C115	C	0.810919	0.156585	0.460362
C116	C	1.310919	0.656585	0.960362
C117	C	0.810931	0.156589	0.539161
C118	C	1.310931	0.656589	1.039161
C119	C	0.820232	0.092977	0.578578
C120	C	1.320232	0.592977	1.078578
C121	C	0.829535	0.029359	0.539185
C122	C	1.329535	0.529359	1.039185
C123	C	0.829528	0.029356	0.460385
C124	C	1.329528	0.529356	0.960385
C125	C	0.820216	0.092977	0.420977
C126	C	1.320216	0.592977	0.920977
C127	C	0.867619	0.045378	0.703405
C128	C	1.367619	0.545378	1.203405
C129	C	0.867618	0.045374	0.782208
C130	C	1.367618	0.545374	1.282208
C131	C	0.772863	0.140575	0.782233
C132	C	1.272863	0.640575	1.282233
C133	C	0.772861	0.140573	0.703431
C134	C	1.272861	0.640573	1.203431
C135	C	0.820242	0.092976	0.664022
C136	C	1.320242	0.592976	1.164022
H137	H	0.594003	0.212680	-0.000201
H138	H	1.094003	0.712680	0.499799
C139	C	0.919704	-0.006983	0.339443
C140	C	1.419704	0.493017	0.839443
H141	H	0.947923	-0.035328	0.304686
H142	H	1.447923	0.464672	0.804686
H143	H	0.894815	-0.035983	0.370207
H144	H	1.394815	0.464017	0.870207
H145	H	0.948540	0.018071	0.370158
H146	H	1.448540	0.518071	0.870158
C147	C	0.720702	0.192919	0.174018
C148	C	1.220702	0.692919	0.674018
H149	H	0.692492	0.221271	0.208777
H150	H	1.192492	0.721271	0.708777
H151	H	0.691866	0.167877	0.143296
H152	H	1.191866	0.667877	0.643296
H153	H	0.745601	0.221921	0.143262
H154	H	1.245601	0.721921	0.643262
C155	C	0.230480	0.194215	0.091858
C156	C	0.730480	0.694215	0.591858
H157	H	0.258549	0.223720	0.117978
H158	H	0.758549	0.723720	0.617978
H159	H	0.205416	0.169659	0.127124
H160	H	0.705416	0.669659	0.627124
H161	H	0.198480	0.221994	0.060226
H162	H	0.698480	0.721994	0.560226
C163	C	0.948776	-0.723393	-0.000279
C164	C	1.448776	-0.223393	0.499721
H165	H	0.986947	-0.696353	-0.000273
H166	H	1.486947	-0.196353	0.499727
H167	H	0.951004	-0.752146	-0.043938
H168	H	1.451004	-0.252146	0.456062
H169	H	0.950978	-0.752164	0.043380
H170	H	1.450978	-0.252164	0.543380
C171	C	0.800704	0.226565	0.582485
C172	C	1.300704	0.726565	1.082485
H173	H	0.795152	0.264449	0.547726
H174	H	1.295152	0.764449	1.047726
H175	H	0.840381	0.230342	0.613200
H176	H	1.340381	0.730342	1.113200
H177	H	0.760256	0.228080	0.613249
H178	H	1.260256	0.728080	1.113249
C179	C	0.002913	0.222179	-0.000304
C180	C	0.502913	0.722179	0.499696
H181	H	-0.044207	0.212355	-0.000303
H182	H	0.455793	0.712355	0.499697
H183	H	0.011327	0.248498	-0.043963
H184	H	0.511327	0.748498	0.456037
H185	H	0.011281	0.248501	0.043354
H186	H	0.511281	0.748501	0.543354
H187	H	0.906198	0.006619	0.671317
H188	H	1.406198	0.506619	1.171317
H189	H	0.932783	-0.578442	-0.000257
H190	H	1.432783	-0.078442	0.499743
C191	C	0.720756	0.192936	0.660106
C192	C	1.220756	0.692936	1.160106
H193	H	0.727534	0.186116	0.607530
H194	H	1.227534	0.686116	1.107530
H195	H	0.728162	0.239513	0.673007
H196	H	1.228162	0.739513	1.173007
H197	H	0.674421	0.185474	0.673043
H198	H	1.174421	0.685474	1.173043
H199	H	0.837108	-0.022440	0.571277
H200	H	1.337108	0.477560	1.071277
C201	C	0.919740	-0.006978	0.825529
C202	C	1.419740	0.493022	1.325529
H203	H	0.947960	-0.035319	0.790769
H204	H	1.447960	0.464681	1.290769
H205	H	0.894853	-0.035983	0.856290
H206	H	1.394853	0.464017	1.356290
H207	H	0.948576	0.018075	0.856246
H208	H	1.448576	0.518075	1.356246
C209	C	0.257841	-0.010518	-0.092347
C210	C	0.757841	0.489482	0.407653
H211	H	0.293672	-0.039084	-0.118450
H212	H	0.793672	0.460916	0.381550
H213	H	0.226385	0.013199	-0.127627
H214	H	0.726385	0.513199	0.372373
H215	H	0.233318	-0.039125	-0.060719
H216	H	0.733318	0.460875	0.439281
H217	H	0.937355	-0.266541	-0.000239
H218	H	1.437355	0.233459	0.499761
C219	C	0.382609	0.196454	0.091883
C220	C	0.882609	0.696454	0.591883
H221	H	0.346783	0.225010	0.118004
H222	H	0.846783	0.725010	0.618004
H223	H	0.407136	0.225063	0.060268
H224	H	0.907136	0.725063	0.560268
H225	H	0.414063	0.172721	0.127160
H226	H	0.914063	0.672721	0.627160
C227	C	0.409969	-0.008267	-0.092330
C228	C	0.909969	0.491733	0.407670
H229	H	0.381900	-0.037761	-0.118465
H230	H	0.881900	0.462239	0.381535
H231	H	0.441971	-0.036046	-0.060709
H232	H	0.941971	0.463954	0.439291
H233	H	0.435029	0.016301	-0.127595
H234	H	0.935029	0.516301	0.372405
C235	C	0.449799	0.228765	-0.000227
C236	C	0.949799	0.728765	0.499773
H237	H	0.402680	0.218937	-0.000231
H238	H	0.902680	0.718937	0.499769
H239	H	0.458214	0.255085	-0.043885
H240	H	0.958214	0.755085	0.456115
H241	H	0.458162	0.255087	0.043432
H242	H	0.958162	0.755087	0.543432
H243	H	0.701147	-0.679631	-0.000228
H244	H	1.201147	-0.179631	0.499772
H245	H	0.177864	-0.024802	-0.000244
H246	H	0.677864	0.475198	0.499756
C247	C	0.800693	0.226563	0.417012
C248	C	1.300693	0.726563	0.917012
H249	H	0.795166	0.264451	0.451756
H250	H	1.295166	0.764451	0.951756
H251	H	0.760245	0.228084	0.386291
H252	H	1.260245	0.728084	0.886291
H253	H	0.840372	0.230329	0.386253
H254	H	1.340372	0.730329	0.886253
H255	H	0.046433	-0.026738	-0.000317
H256	H	0.546433	0.473262	0.499683
H257	H	0.493320	-0.020148	-0.000193
H258	H	0.993320	0.479852	0.499807
C259	C	0.720757	0.192935	0.825582
C260	C	1.220757	0.692935	1.325582
H261	H	0.727549	0.186123	0.878154
H262	H	1.227549	0.686123	1.378154
H263	H	0.674425	0.185471	0.812694
H264	H	1.174425	0.685471	1.312694
H265	H	0.728160	0.239516	0.812652
H266	H	1.228160	0.739516	1.312652
H267	H	0.624755	-0.018218	-0.000148
H268	H	1.124755	0.481782	0.499852
C269	C	0.685151	-0.534675	-0.000202
C270	C	1.185151	-0.034675	0.499798
H271	H	0.646980	-0.561714	-0.000188
H272	H	1.146980	-0.061714	0.499812
H273	H	0.682940	-0.505901	-0.043854
H274	H	1.182940	-0.005901	0.456146
H275	H	0.682933	-0.505926	0.043464
H276	H	1.182933	-0.005926	0.543464
C277	C	0.155051	0.224424	-0.000278
C278	C	0.655051	0.724424	0.499722
H279	H	0.204599	0.216024	-0.000276
H280	H	0.704599	0.716024	0.499724
H281	H	0.139675	0.250392	0.043374
H282	H	0.639675	0.750392	0.543374
H283	H	0.139718	0.250396	-0.043944
H284	H	0.639718	0.750396	0.456056
H285	H	0.939293	-0.134431	-0.000220
H286	H	1.439293	0.365569	0.499780
C287	C	0.720721	0.192924	0.339496
C288	C	1.220721	0.692924	0.839496
H289	H	0.727516	0.186115	0.392067
H290	H	1.227516	0.686115	0.892067
H291	H	0.674389	0.185461	0.326612
H292	H	1.174389	0.685461	0.826612
H293	H	0.728124	0.239505	0.326562
H294	H	1.228124	0.739505	0.826562
C295	C	0.689418	-0.243580	-0.000189
C296	C	1.189418	0.256420	0.499811
H297	H	0.652189	-0.206389	-0.000188
H298	H	1.152189	0.293611	0.499812
H299	H	0.686359	-0.271644	0.043465
H300	H	1.186359	0.228356	0.543465
H301	H	0.686381	-0.271624	-0.043852
H302	H	1.186381	0.228376	0.456148
C303	C	0.691662	-0.090657	-0.000184
C304	C	1.191662	0.409343	0.499816
H305	H	0.701441	-0.043293	-0.000187
H306	H	1.201441	0.456707	0.499813
H307	H	0.665466	-0.099099	0.043475
H308	H	1.165466	0.400901	0.543475
H309	H	0.665488	-0.099079	-0.043843
H310	H	1.165488	0.400921	0.456157
C311	C	0.919689	-0.006991	0.173966
C312	C	1.419689	0.493009	0.673966
H313	H	0.947903	-0.035340	0.208712
H314	H	1.447903	0.464660	0.708712
H315	H	0.948521	0.018047	0.143200
H316	H	1.448521	0.518047	0.643200
H317	H	0.894785	-0.035997	0.143252
H318	H	1.394785	0.464003	0.643252
H319	H	0.837101	-0.022444	0.428315
H320	H	1.337101	0.477556	0.928315
