data_functionalizedCrystal
_audit_creation_method	'MofGen! by Chris Wilmer'
_symmetry_space_group_name_H-M	'P1'
_symmetry_Int_Tables_number	1
_symmetry_cell_setting	triclinic
loop_
_symmetry_equiv_pos_as_xyz
  x,y,z
_cell_length_a	9.065218
_cell_length_b	8.597304
_cell_length_c	7.540329
_cell_angle_alpha	82.296522
_cell_angle_beta	89.996962
_cell_angle_gamma	85.172810
loop_
_atom_site_label
_atom_site_type_symbol
_atom_site_fract_x
_atom_site_fract_y
_atom_site_fract_z
O1	O	1.960828	0.230168	-0.182649
O2	O	2.294161	0.563502	0.150684
O3	O	2.627494	0.896835	0.484017
O4	O	1.531578	0.249048	-0.185536
O5	O	1.864911	0.582381	0.147797
O6	O	2.198245	0.915714	0.481131
O7	O	1.754650	0.011261	-0.149197
O8	O	2.087984	0.344595	0.184136
O9	O	2.421317	0.677928	0.517470
O10	O	1.737756	0.467955	-0.218988
O11	O	2.071089	0.801288	0.114345
O12	O	2.404422	1.134621	0.447679
O13	O	1.754637	0.011258	0.145768
O14	O	2.087970	0.344592	0.479102
O15	O	2.421303	0.677925	0.812435
O16	O	1.531565	0.249045	0.109430
O17	O	1.864898	0.582378	0.442763
O18	O	2.198231	0.915711	0.776096
O19	O	1.960814	0.230165	0.112316
O20	O	2.294148	0.563499	0.445650
O21	O	2.627481	0.896832	0.778983
Cu22	Cu	1.746188	0.239605	0.137806
Cu23	Cu	2.079522	0.572938	0.471139
Cu24	Cu	2.412855	0.906271	0.804472
Cu25	Cu	1.746204	0.239608	-0.211025
Cu26	Cu	2.079537	0.572942	0.122308
Cu27	Cu	2.412871	0.906275	0.455641
O28	O	1.737742	0.467952	0.075978
O29	O	2.071075	0.801285	0.409311
O30	O	2.404409	1.134618	0.742644
C31	C	1.476581	0.247232	-0.037776
C32	C	1.809915	0.580565	0.295557
C33	C	2.143248	0.913899	0.628890
C34	C	1.312728	0.241807	-0.036948
C35	C	1.646062	0.575140	0.296385
C36	C	1.979395	0.908473	0.629719
C37	C	1.752829	-0.047238	0.007221
C38	C	2.086162	0.286096	0.340555
C39	C	2.419496	0.619429	0.673888
C40	C	1.747404	-0.221541	0.033847
C41	C	2.080737	0.111792	0.367180
C42	C	2.414071	0.445125	0.700513
C43	C	2.015811	0.231981	-0.035447
C44	C	2.349144	0.565314	0.297886
C45	C	2.682478	0.898648	0.631219
C46	C	2.179664	0.237406	-0.036287
C47	C	2.512997	0.570740	0.297046
C48	C	2.846331	0.904073	0.630380
C49	C	1.739563	0.526451	-0.080445
C50	C	2.072897	0.859784	0.252889
C51	C	2.406230	1.193117	0.586222
C52	C	1.744988	0.700754	-0.107082
C53	C	2.078322	1.034088	0.226251
C54	C	2.411655	1.367421	0.559585
N55	N	1.746188	0.239601	0.383155
N56	N	2.079521	0.572935	0.716488
N57	N	2.412854	0.906268	1.049821
N58	N	1.746216	0.239599	-0.456372
N59	N	2.079549	0.572933	-0.123039
N60	N	2.412883	0.906266	0.210294
H61	H	1.747066	-0.232423	-0.248117
H62	H	2.080399	0.100910	0.085216
H63	H	2.413732	0.434243	0.418550
H64	H	1.745305	-0.288369	0.174891
H65	H	2.078638	0.044965	0.508224
H66	H	2.411972	0.378298	0.841558
