data_functionalizedCrystal
_audit_creation_method	'MofGen! by Chris Wilmer'
_symmetry_space_group_name_H-M	'P1'
_symmetry_Int_Tables_number	1
_symmetry_cell_setting	triclinic
loop_
_symmetry_equiv_pos_as_xyz
  x,y,z
_cell_length_a	21.395361
_cell_length_b	21.395364
_cell_length_c	21.395355
_cell_angle_alpha	89.974400
_cell_angle_beta	90.021511
_cell_angle_gamma	89.971791
loop_
_atom_site_label
_atom_site_type_symbol
_atom_site_fract_x
_atom_site_fract_y
_atom_site_fract_z
Zn1	Zn	-0.249553	-0.957859	0.354266
Zn2	Zn	0.250447	-0.457859	0.854266
Zn3	Zn	-0.354313	-0.957762	0.249483
Zn4	Zn	0.145687	-0.457762	0.749483
Zn5	Zn	-0.249548	-0.853074	0.249501
Zn6	Zn	0.250452	-0.353074	0.749501
Zn7	Zn	-0.354292	-0.853043	0.354221
Zn8	Zn	0.145708	-0.353043	0.854221
O9	O	-0.301926	-0.905434	0.301868
O10	O	0.198074	-0.405434	0.801868
O11	O	-0.263460	-1.045524	0.340377
O12	O	0.236540	-0.545524	0.840377
O13	O	-0.340422	-0.943847	0.161807
O14	O	0.159578	-0.443847	0.661807
O15	O	-0.161871	-0.867028	0.263424
O16	O	0.338129	-0.367028	0.763424
O17	O	-0.340427	-1.045452	0.263394
O18	O	0.159573	-0.545452	0.763394
O19	O	-0.161874	-0.944013	0.340395
O20	O	0.338126	-0.444013	0.840395
O21	O	-0.263452	-0.866933	0.161820
O22	O	0.236548	-0.366933	0.661820
O23	O	-0.263432	-0.765392	0.263381
O24	O	0.236568	-0.265392	0.763381
O25	O	-0.340391	-0.866975	0.441905
O26	O	0.159609	-0.366975	0.941905
O27	O	-0.340387	-0.765369	0.340319
O28	O	0.159613	-0.265369	0.840319
O29	O	-0.263440	-0.943983	0.441938
O30	O	0.236560	-0.443983	0.941938
O31	O	-0.441988	-0.943817	0.263351
O32	O	0.058012	-0.443817	0.763351
O33	O	-0.441973	-0.866881	0.340301
O34	O	0.058027	-0.366881	0.840301
C35	C	-0.301907	-0.742647	0.301847
C36	C	0.198093	-0.242647	0.801847
C37	C	-0.301914	-0.673006	0.301853
C38	C	0.198086	-0.173006	0.801853
C39	C	-0.342060	-0.171214	0.341879
C40	C	0.157940	0.328786	0.841879
C41	C	-0.342061	-0.236649	0.341874
C42	C	0.157939	0.263351	0.841874
C43	C	-0.301931	-0.269367	0.301878
C44	C	0.198069	0.230633	0.801878
C45	C	-0.261809	-0.236644	0.261873
C46	C	0.238191	0.263356	0.761873
C47	C	-0.261813	-0.171210	0.261876
C48	C	0.238187	0.328790	0.761876
C49	C	-0.245467	-0.373056	0.297031
C50	C	0.254533	0.126944	0.797031
C51	C	-0.245462	-0.438489	0.297033
C52	C	0.254538	0.061511	0.797033
C53	C	-0.301917	-0.471188	0.301867
C54	C	0.198083	0.028812	0.801867
C55	C	-0.358380	-0.438446	0.306712
C56	C	0.141620	0.061554	0.806712
C57	C	-0.358385	-0.373012	0.306714
C58	C	0.141615	0.126988	0.806714
C59	C	-0.301922	-0.340320	0.301871
C60	C	0.198078	0.159680	0.801871
C61	C	-0.342041	-0.574856	0.341860
C62	C	0.157959	-0.074856	0.841860
C63	C	-0.342044	-0.640292	0.341850
C64	C	0.157956	-0.140292	0.841850
C65	C	-0.261786	-0.640286	0.261853
C66	C	0.238214	-0.140286	0.761853
C67	C	-0.261790	-0.574850	0.261860
C68	C	0.238210	-0.074850	0.761860
C69	C	-0.301916	-0.542139	0.301867
C70	C	0.198084	-0.042139	0.801867
C71	C	-0.464714	-0.905352	0.301833
C72	C	0.035286	-0.405352	0.801833
C73	C	-0.534355	-0.905374	0.301839
C74	C	-0.034355	-0.405374	0.801839
C75	C	-0.567056	-0.945470	0.261812
C76	C	-0.067056	-0.445470	0.761812
C77	C	-0.632491	-0.945499	0.261826
C78	C	-0.132491	-0.445499	0.761826
C79	C	-0.665224	-0.905421	0.301860
C80	C	-0.165224	-0.405421	0.801860
C81	C	-0.632516	-0.865322	0.341895
C82	C	-0.132516	-0.365322	0.841895
C83	C	-0.567081	-0.865298	0.341885
C84	C	-0.067081	-0.365298	0.841885
C85	C	-0.768936	-0.849006	0.306769
C86	C	-0.268936	-0.349006	0.806769
C87	C	-0.834369	-0.849029	0.306776
C88	C	-0.334369	-0.349029	0.806776
C89	C	-0.867044	-0.905494	0.301897
C90	C	-0.367044	-0.405494	0.801897
C91	C	-0.834278	-0.961938	0.296999
C92	C	-0.334278	-0.461938	0.796999
C93	C	-0.768844	-0.961915	0.296988
C94	C	-0.268844	-0.461915	0.796988
C95	C	-0.736176	-0.905442	0.301877
C96	C	-0.236176	-0.405442	0.801877
C97	C	-0.970697	-0.945625	0.261883
C98	C	-0.470697	-0.445625	0.761883
C99	C	-1.036134	-0.945655	0.261901
C100	C	-0.536134	-0.445655	0.761901
C101	C	-1.036157	-0.865472	0.341968
C102	C	-0.536157	-0.365472	0.841968
C103	C	-0.970722	-0.865448	0.341953
C104	C	-0.470722	-0.365448	0.841953
C105	C	-0.937996	-0.905523	0.301907
C106	C	-0.437996	-0.405523	0.801907
C107	C	-0.138503	-0.905535	0.301916
C108	C	0.361497	-0.405535	0.801916
C109	C	-0.068862	-0.905577	0.301937
C110	C	0.431138	-0.405577	0.801937
C111	C	-0.301914	-0.905486	0.465291
C112	C	0.198086	-0.405486	0.965291
C113	C	-0.301908	-0.905509	0.534932
C114	C	0.198092	-0.405509	1.034932
C115	C	-0.301942	-0.068858	0.301885
C116	C	0.198058	0.431142	0.801885
C117	C	-0.301940	-0.138499	0.301882
C118	C	0.198060	0.361501	0.801882
C119	C	-0.301894	-0.905419	0.139080
C120	C	0.198106	-0.405419	0.639080
C121	C	-0.301723	-0.905518	0.069439
C122	C	0.198277	-0.405518	0.569439
C123	C	-0.261838	-0.945605	0.567664
C124	C	0.238162	-0.445605	1.067664
C125	C	-0.261811	-0.945604	0.633099
C126	C	0.238189	-0.445604	1.133099
C127	C	-0.301866	-0.905513	0.665801
C128	C	0.198134	-0.405513	1.165801
C129	C	-0.341939	-0.865409	0.633062
C130	C	0.158061	-0.365409	1.133062
C131	C	-0.341960	-0.865407	0.567627
C132	C	0.158040	-0.365407	1.067627
C133	C	-0.358281	-0.900538	0.769463
C134	C	0.141719	-0.400538	1.269463
C135	C	-0.358261	-0.900544	0.834896
C136	C	0.141739	-0.400544	1.334896
C137	C	-0.301800	-0.905517	0.867622
C138	C	0.198200	-0.405517	1.367622
C139	C	-0.245357	-0.910497	0.834906
C140	C	0.254643	-0.410497	1.334906
C141	C	-0.245378	-0.910494	0.769472
C142	C	0.254622	-0.410494	1.269472
C143	C	-0.301847	-0.905511	0.736753
C144	C	0.198153	-0.405511	1.236753
C145	C	-0.261697	-0.945615	0.971305
C146	C	0.238303	-0.445615	1.471305
C147	C	-0.261669	-0.945610	1.036742
C148	C	0.238331	-0.445610	1.536742
C149	C	-0.341802	-0.865418	1.036703
C150	C	0.158198	-0.365418	1.536703
C151	C	-0.341824	-0.865420	0.971268
C152	C	0.158176	-0.365420	1.471268
C153	C	-0.301773	-0.905522	0.938573
C154	C	0.198227	-0.405522	1.438573
H155	H	-0.374736	-0.144585	0.374454
H156	H	0.125264	0.355415	0.874454
H157	H	-0.199381	-0.914547	0.861549
H158	H	0.300619	-0.414547	1.361549
N159	N	-0.667778	-0.988741	0.218651
N160	N	-0.167778	-0.488741	0.718651
H161	H	-0.656352	-1.033502	0.228414
H162	H	-0.156352	-0.533502	0.728414
H163	H	-0.656411	-0.978969	0.173891
H164	H	-0.156411	-0.478969	0.673891
H165	H	-0.404359	-0.346356	0.310658
H166	H	0.095641	0.153644	0.810658
H167	H	-0.374409	-0.832770	1.063328
H168	H	0.125591	-0.332770	1.563328
H169	H	-0.374716	-0.548221	0.374435
H170	H	0.125284	-0.048221	0.874435
N171	N	-0.869510	-1.022846	0.291738
N172	N	-0.369510	-0.522846	0.791738
H173	H	-0.858129	-1.044179	0.251205
H174	H	-0.358129	-0.544179	0.751205
H175	H	-0.915923	-1.014248	0.292518
H176	H	-0.415923	-0.514248	0.792518
H177	H	-0.742168	-1.007873	0.293002
H178	H	-0.242168	-0.507873	0.793002
N179	N	-0.935394	-0.988847	0.218695
N180	N	-0.435394	-0.488847	0.718695
H181	H	-0.966041	-1.014257	0.193342
H182	H	-0.466041	-0.514257	0.693342
H183	H	-0.908203	-1.017819	0.244220
H184	H	-0.408203	-0.517819	0.744220
H185	H	-0.374549	-0.832766	0.659691
H186	H	0.125451	-0.332766	1.159691
H187	H	-0.742339	-0.803022	0.310744
H188	H	-0.242339	-0.303022	0.810744
H189	H	-1.062807	-0.832843	0.374568
H190	H	-0.562807	-0.332843	0.874568
H191	H	-1.062757	-0.978310	0.229308
H192	H	-0.562757	-0.478310	0.729308
H193	H	-0.659171	-0.832691	0.374493
H194	H	-0.159171	-0.332691	0.874493
H195	H	-0.229081	-0.978264	0.944684
H196	H	0.270919	-0.478264	1.444684
N197	N	-0.935447	-0.822196	0.385121
N198	N	-0.435447	-0.322196	0.885121
H199	H	-0.966110	-0.796810	0.410484
H200	H	-0.466110	-0.296810	0.910484
H201	H	-0.908338	-0.793205	0.359582
H202	H	-0.408338	-0.293205	0.859582
N203	N	-0.869700	-0.788149	0.312052
N204	N	-0.369700	-0.288149	0.812052
H205	H	-0.858310	-0.766808	0.352581
H206	H	-0.358310	-0.266808	0.852581
H207	H	-0.916100	-0.796775	0.311286
H208	H	-0.416100	-0.296775	0.811286
H209	H	-0.404352	-0.465068	0.310653
H210	H	0.095648	0.034932	0.810653
N211	N	-0.531807	-0.822049	0.385057
N212	N	-0.031807	-0.322049	0.885057
H213	H	-0.562470	-0.796664	0.410424
H214	H	-0.062470	-0.296664	0.910424
H215	H	-0.504699	-0.793056	0.359519
H216	H	-0.004699	-0.293056	0.859519
H217	H	-0.374458	-0.832773	0.944618
H218	H	0.125542	-0.332773	1.444618
H219	H	-0.229224	-0.978258	0.541047
H220	H	0.270776	-0.478258	1.041047
N221	N	-0.419135	-0.895173	0.870178
N222	N	0.080865	-0.395173	1.370178
H223	H	-0.410556	-0.895934	0.916595
H224	H	0.089444	-0.395934	1.416595
H225	H	-0.447157	-0.931386	0.858751
H226	H	0.052843	-0.431386	1.358751
H227	H	-0.229178	-0.978254	0.659754
H228	H	0.270822	-0.478254	1.159754
H229	H	-0.199492	-0.346438	0.293084
H230	H	0.300508	0.153562	0.793084
N231	N	-0.385323	-0.675581	0.384986
N232	N	0.114677	-0.175581	0.884986
H233	H	-0.410742	-0.644927	0.410329
H234	H	0.089258	-0.144927	0.910329
H235	H	-0.359859	-0.702759	0.414024
H236	H	0.140141	-0.202759	0.914024
H237	H	-0.199421	-0.914547	0.742837
H238	H	0.300579	-0.414547	1.242837
H239	H	-0.229035	-0.978260	1.063391
H240	H	0.270965	-0.478260	1.563391
N241	N	-0.419183	-0.895182	0.734169
N242	N	0.080817	-0.395182	1.234169
H243	H	-0.454934	-0.892038	0.764822
H244	H	0.045066	-0.392038	1.264822
H245	H	-0.425005	-0.933357	0.707040
H246	H	0.074995	-0.433357	1.207040
N247	N	-0.218537	-0.135920	0.218737
N248	N	0.281463	0.364080	0.718737
H249	H	-0.243962	-0.108746	0.189659
H250	H	0.256038	0.391254	0.689659
H251	H	-0.193125	-0.166613	0.193438
H252	H	0.306875	0.333387	0.693438
N253	N	-0.385172	-0.822150	0.532320
N254	N	0.114828	-0.322150	1.032320
H255	H	-0.410539	-0.796747	0.562962
H256	H	0.089461	-0.296747	1.062962
H257	H	-0.414183	-0.847627	0.505177
H258	H	0.085817	-0.347627	1.005177
H259	H	-0.229118	-0.548214	0.229292
H260	H	0.270882	-0.048214	0.729292
N261	N	-0.385335	-0.271944	0.385015
N262	N	0.114665	0.228056	0.885015
H263	H	-0.375666	-0.260584	0.429799
H264	H	0.124334	0.239416	0.929799
H265	H	-0.379222	-0.318348	0.378888
H266	H	0.120778	0.181652	0.878888
N267	N	-0.218507	-0.675565	0.218708
N268	N	0.281493	-0.175565	0.718708
H269	H	-0.224593	-0.721982	0.224774
H270	H	0.275407	-0.221982	0.724774
H271	H	-0.173773	-0.664152	0.228540
H272	H	0.326227	-0.164152	0.728540
N273	N	-0.184566	-0.473801	0.291811
N274	N	0.315434	0.026199	0.791811
H275	H	-0.148803	-0.443159	0.288741
H276	H	0.351197	0.056841	0.788741
H277	H	-0.185415	-0.500932	0.253204
H278	H	0.314585	-0.000932	0.753204
N279	N	-0.218528	-0.271928	0.218732
N280	N	0.281472	0.228072	0.718732
H281	H	-0.224611	-0.318345	0.224800
H282	H	0.275389	0.181655	0.724800
H283	H	-0.173795	-0.260513	0.228563
H284	H	0.326205	0.239487	0.728563
H285	H	-0.540412	-0.978103	0.229206
H286	H	-0.040412	-0.478103	0.729206
