data_functionalizedCrystal
_audit_creation_method	'MofGen! by Chris Wilmer'
_symmetry_space_group_name_H-M	'P1'
_symmetry_Int_Tables_number	1
_symmetry_cell_setting	triclinic
loop_
_symmetry_equiv_pos_as_xyz
  x,y,z
_cell_length_a	17.640112
_cell_length_b	21.295412
_cell_length_c	17.639929
_cell_angle_alpha	78.769176
_cell_angle_beta	92.187346
_cell_angle_gamma	101.171875
loop_
_atom_site_label
_atom_site_type_symbol
_atom_site_fract_x
_atom_site_fract_y
_atom_site_fract_z
Zn1	Zn	1.221976	-0.148658	-0.067383
Zn2	Zn	1.721976	0.351342	0.432617
Zn3	Zn	1.247563	-0.018844	-0.194382
Zn4	Zn	1.747563	0.481156	0.305618
Zn5	Zn	1.094998	-0.059676	-0.093103
Zn6	Zn	1.594998	0.440324	0.406897
Zn7	Zn	1.120649	-0.140351	-0.220026
Zn8	Zn	1.620649	0.359649	0.279974
O9	O	1.171296	-0.091882	-0.143724
O10	O	1.671296	0.408118	0.356276
O11	O	1.331625	-0.117826	-0.062734
O12	O	1.831625	0.382174	0.437266
O13	O	1.227298	0.063830	-0.180979
O14	O	1.727298	0.563830	0.319021
O15	O	1.090398	-0.092045	0.016577
O16	O	1.590398	0.407955	0.516577
O17	O	1.350424	-0.022452	-0.156040
O18	O	1.850424	0.477548	0.343960
O19	O	1.183688	-0.157419	0.035473
O20	O	1.683688	0.342581	0.535473
O21	O	1.115209	0.033830	-0.106569
O22	O	1.615209	0.533830	0.393431
O23	O	0.992146	-0.083990	-0.131435
O24	O	1.492146	0.416010	0.368565
O25	O	1.134117	-0.229543	-0.199746
O26	O	1.634117	0.270457	0.300254
O27	O	1.010992	-0.143261	-0.224686
O28	O	1.510992	0.356739	0.275314
O29	O	1.208561	-0.235646	-0.087599
O30	O	1.708561	0.264354	0.412401
O31	O	1.252172	-0.014398	-0.304052
O32	O	1.752172	0.485602	0.195948
O33	O	1.158928	-0.103668	-0.322892
O34	O	1.658928	0.396332	0.177108
C35	C	0.974018	-0.117155	-0.183635
C36	C	1.474018	0.382845	0.316365
C37	C	0.889625	-0.127978	-0.200727
C38	C	1.389625	0.372022	0.299273
C39	C	0.562831	-0.009667	-0.013861
C40	C	1.062831	0.490333	0.486139
C41	C	0.483535	-0.019843	-0.029937
C42	C	0.983535	0.480157	0.470063
C43	C	0.503240	-0.081397	-0.127173
C44	C	1.003240	0.418603	0.372827
C45	C	0.582540	-0.071230	-0.111102
C46	C	1.082540	0.428770	0.388898
C47	C	0.612329	-0.035363	-0.054446
C48	C	1.112329	0.464637	0.445554
C49	C	0.632037	-0.096926	-0.151687
C50	C	1.132037	0.403074	0.348313
C51	C	0.711331	-0.086756	-0.135620
C52	C	1.211331	0.413244	0.364380
C53	C	0.741126	-0.050890	-0.078968
C54	C	1.241126	0.449110	0.421032
C55	C	0.691622	-0.025193	-0.038379
C56	C	1.191622	0.474807	0.461621
C57	C	0.602248	-0.132788	-0.208346
C58	C	1.102248	0.367212	0.291654
C59	C	0.651745	-0.158484	-0.248931
C60	C	1.151745	0.341516	0.251069
C61	C	0.731039	-0.148318	-0.232861
C62	C	1.231039	0.351682	0.267139
C63	C	0.760835	-0.112452	-0.176209
C64	C	1.260835	0.387548	0.323791
C65	C	0.780543	-0.174015	-0.273450
C66	C	1.280543	0.325985	0.226550
C67	C	0.859836	-0.163845	-0.257383
C68	C	1.359836	0.336155	0.242617
C69	C	0.840128	-0.102282	-0.160142
C70	C	1.340128	0.397718	0.339858
C71	C	1.171346	-0.256074	-0.143664
C72	C	1.671346	0.243926	0.356336
C73	C	1.171368	-0.326043	-0.143639
C74	C	1.671368	0.173957	0.356361
C75	C	1.113015	-0.374520	-0.104886
C76	C	1.613015	0.125480	0.395114
C77	C	1.113009	-0.440265	-0.104872
C78	C	1.613009	0.059735	0.395128
C79	C	1.171368	-0.457532	-0.143601
C80	C	1.671368	0.042468	0.356399
C81	C	1.229727	-0.409045	-0.182363
C82	C	1.729727	0.090955	0.317637
C83	C	1.229726	-0.343300	-0.182382
C84	C	1.729726	0.156700	0.317618
N85	N	1.239009	-0.551128	-0.135948
N86	N	1.739009	-0.051128	0.364052
N87	N	1.239006	-0.613584	-0.135926
N88	N	1.739006	-0.113584	0.364074
C89	C	1.171372	-0.655614	-0.143548
C90	C	1.671372	-0.155614	0.356452
N91	N	1.103736	-0.632833	-0.151178
N92	N	1.603736	-0.132833	0.348822
N93	N	1.103739	-0.570373	-0.151195
N94	N	1.603739	-0.070373	0.348805
C95	C	1.171375	-0.528818	-0.143585
C96	C	1.671375	-0.028818	0.356415
C97	C	1.113009	-0.775381	-0.104778
C98	C	1.613009	-0.275381	0.395222
C99	C	1.113003	-0.841127	-0.104770
C100	C	1.613003	-0.341127	0.395230
C101	C	1.229727	-0.809905	-0.182256
C102	C	1.729727	-0.309905	0.317744
C103	C	1.229726	-0.744160	-0.182269
C104	C	1.729726	-0.244160	0.317731
C105	C	1.171368	-0.726903	-0.143526
C106	C	1.671368	-0.226903	0.356474
C107	C	1.369345	-0.066511	-0.103657
C108	C	1.869345	0.433489	0.396343
C109	C	1.453742	-0.055699	-0.086583
C110	C	1.953742	0.444301	0.413417
C111	C	1.211131	-0.053712	-0.341022
C112	C	1.711131	0.446288	0.158978
C113	C	1.228241	-0.037394	-0.425413
C114	C	1.728241	0.462606	0.074587
C115	C	1.171279	0.071666	-0.143719
C116	C	1.671279	0.571666	0.356281
C117	C	1.171362	0.141612	-0.143500
C118	C	1.671362	0.641612	0.356500
C119	C	1.300935	0.032045	-0.534517
C120	C	1.800935	0.532045	-0.034517
C121	C	1.284851	0.016707	-0.455220
C122	C	1.784851	0.516707	0.044780
C123	C	1.187695	-0.076181	-0.474898
C124	C	1.687695	0.423819	0.025102
C125	C	1.203774	-0.060853	-0.554198
C126	C	1.703774	0.439147	-0.054198
C127	C	1.260394	-0.006739	-0.584001
C128	C	1.760394	0.493261	-0.084001
C129	C	1.163233	-0.099637	-0.603682
C130	C	1.663233	0.400363	-0.103682
C131	C	1.179307	-0.084308	-0.682975
C132	C	1.679307	0.415692	-0.182975
C133	C	1.235923	-0.030195	-0.712785
C134	C	1.735923	0.469805	-0.212785
C135	C	1.276469	0.008591	-0.663294
C136	C	1.776469	0.508591	-0.163294
C137	C	1.106609	-0.153749	-0.573878
C138	C	1.606609	0.346251	-0.073878
C139	C	1.066068	-0.192532	-0.623362
C140	C	1.566068	0.307468	-0.123362
C141	C	1.082146	-0.177206	-0.702656
C142	C	1.582146	0.322794	-0.202656
C143	C	1.138762	-0.123093	-0.732466
C144	C	1.638762	0.376907	-0.232466
C145	C	1.041601	-0.215991	-0.752147
C146	C	1.541601	0.284009	-0.252147
C147	C	1.057675	-0.200662	-0.831440
C148	C	1.557675	0.299338	-0.331440
C149	C	1.154836	-0.107764	-0.811759
C150	C	1.654836	0.392236	-0.311759
C151	C	1.131328	-0.130213	0.054350
C152	C	1.631328	0.369787	0.554350
C153	C	1.114295	-0.146548	0.138757
C154	C	1.614295	0.353452	0.638757
H155	H	0.537681	-0.141067	-0.221426
H156	H	1.037681	0.358933	0.278574
H157	H	1.065491	-0.479743	-0.073310
H158	H	1.565491	0.020257	0.426690
N159	N	1.326261	0.056314	-0.404655
N160	N	1.826261	0.556314	0.095345
N161	N	1.290614	0.084477	-0.365854
N162	N	1.790614	0.584477	0.134146
H163	H	1.319857	0.112445	-0.330138
H164	H	1.819857	0.612445	0.169862
N165	N	0.822123	-0.040511	-0.062557
N166	N	1.322123	0.459489	0.437443
N167	N	0.854355	-0.088149	-0.039585
N168	N	1.354355	0.411851	0.460415
H169	H	0.911559	-0.080820	-0.027994
H170	H	1.411559	0.419180	0.472006
N171	N	0.910397	-0.190107	-0.298824
N172	N	1.410397	0.309893	0.201176
N173	N	0.949279	-0.229736	-0.263194
N174	N	1.449279	0.270264	0.236806
H175	H	0.984988	-0.248285	-0.292464
H176	H	1.484988	0.251715	0.207536
N177	N	0.432969	0.006394	0.011535
N178	N	0.932969	0.506394	0.511535
N179	N	0.378966	-0.030850	0.050927
N180	N	0.878966	0.469150	0.550927
H181	H	0.343253	-0.012322	0.080216
H182	H	0.843253	0.487678	0.580216
H183	H	1.065489	-0.761329	-0.073232
H184	H	1.565489	-0.261329	0.426768
H185	H	0.478975	-0.110598	-0.173304
H186	H	0.978975	0.389402	0.326696
N187	N	1.053382	-0.890639	-0.065187
N188	N	1.553382	-0.390639	0.434813
N189	N	1.001283	-0.875217	-0.030603
N190	N	1.501283	-0.375217	0.469397
H191	H	0.959173	-0.910186	-0.002646
H192	H	1.459173	-0.410186	0.497354
H193	H	1.347048	0.076106	-0.558782
H194	H	1.847048	0.576106	-0.058782
H195	H	0.995495	-0.260048	-0.727872
H196	H	1.495495	0.239952	-0.227872
H197	H	1.065492	-0.360474	-0.073341
H198	H	1.565492	0.139526	0.426659
N199	N	1.289353	-0.694651	-0.221844
N200	N	1.789353	-0.194651	0.278156
N201	N	1.358398	-0.694015	-0.202626
N202	N	1.858398	-0.194015	0.297374
H203	H	1.400514	-0.659050	-0.230578
H204	H	1.900514	-0.159050	0.269422
N205	N	0.621301	-0.195114	-0.306803
N206	N	1.121301	0.304886	0.193197
N207	N	0.550503	-0.204188	-0.321144
N208	N	1.050503	0.295812	0.178856
H209	H	0.529002	-0.230060	-0.362016
H210	H	1.029002	0.269940	0.137984
N211	N	1.129858	-0.131449	-0.444440
N212	N	1.629858	0.368551	0.055560
N213	N	1.115508	-0.145128	-0.373643
N214	N	1.615508	0.354872	0.126357
H215	H	1.074660	-0.184162	-0.352132
H216	H	1.574660	0.315838	0.147868
H217	H	1.024670	-0.232249	-0.871730
H218	H	1.524670	0.267751	-0.371730
N219	N	0.750098	-0.210639	-0.331326
N220	N	1.250098	0.289361	0.168674
N221	N	0.679301	-0.219708	-0.345670
N222	N	1.179301	0.280292	0.154330
H223	H	0.657799	-0.245574	-0.386547
H224	H	1.157799	0.254426	0.113453
N225	N	1.289330	-0.426689	-0.221926
N226	N	1.789330	0.073311	0.278074
N227	N	1.289323	-0.485391	-0.221904
N228	N	1.789323	0.014609	0.278096
H229	H	1.331418	-0.497852	-0.249850
H230	H	1.831418	0.002148	0.250150
H231	H	1.277248	-0.303829	-0.213938
H232	H	1.777248	0.196171	0.286062
H233	H	1.277245	-0.823962	-0.213788
H234	H	1.777245	-0.323962	0.286212
N235	N	1.334300	0.063867	-0.693758
N236	N	1.834300	0.563867	-0.193758
N237	N	1.348640	0.077546	-0.764557
N238	N	1.848640	0.577546	-0.264557
H239	H	1.389481	0.116583	-0.786075
H240	H	1.889481	0.616583	-0.286075
H241	H	1.200949	-0.063703	-0.836025
H242	H	1.700949	0.436297	-0.336025
N243	N	1.090196	-0.169406	-0.492880
N244	N	1.590196	0.330594	0.007120
N245	N	1.142225	-0.181875	-0.445439
N246	N	1.642225	0.318125	0.054561
H247	H	1.130633	-0.192933	-0.388234
H248	H	1.630633	0.307067	0.111766
H249	H	1.019965	-0.236591	-0.599088
H250	H	1.519965	0.263409	-0.099088
N251	N	1.252352	-0.014520	-0.793780
N252	N	1.752352	0.485480	-0.293780
N253	N	1.243699	0.039420	-0.832425
N254	N	1.743699	0.539420	-0.332425
H255	H	1.255303	0.050492	-0.889628
H256	H	1.755303	0.550492	-0.389628
N257	N	0.870577	-0.065643	-0.102275
N258	N	1.370577	0.434357	0.397725
N259	N	0.941377	-0.056567	-0.087942
N260	N	1.441377	0.443433	0.412058
H261	H	0.962884	-0.030691	-0.047077
H262	H	1.462884	0.469309	0.452923
H263	H	0.715875	0.004001	0.007767
H264	H	1.215875	0.504001	0.507767
H265	H	0.587085	0.019527	0.032285
H266	H	1.087085	0.519527	0.532285
