data_functionalizedCrystal
_audit_creation_method	'MofGen! by Chris Wilmer'
_symmetry_space_group_name_H-M	'P1'
_symmetry_Int_Tables_number	1
_symmetry_cell_setting	triclinic
loop_
_symmetry_equiv_pos_as_xyz
  x,y,z
_cell_length_a	13.185408
_cell_length_b	15.944564
_cell_length_c	15.021413
_cell_angle_alpha	89.990269
_cell_angle_beta	90.003821
_cell_angle_gamma	112.261283
loop_
_atom_site_label
_atom_site_type_symbol
_atom_site_fract_x
_atom_site_fract_y
_atom_site_fract_z
O1	O	1.446939	0.218812	0.073957
O2	O	1.129453	0.133673	0.073976
O3	O	1.296858	0.300475	0.073957
O4	O	1.279533	0.052010	0.073975
O5	O	1.296844	0.300485	-0.074107
O6	O	1.129438	0.133683	-0.074088
O7	O	1.446924	0.218822	-0.074108
Zn8	Zn	1.288179	0.176254	-0.097606
Zn9	Zn	1.288198	0.176241	0.097475
O10	O	1.279518	0.052020	-0.074089
C11	C	1.088818	0.125047	-0.000054
C12	C	0.967761	0.099339	-0.000047
C13	C	0.897903	0.007804	-0.000038
C14	C	0.784164	-0.016353	-0.000045
C15	C	0.740271	0.051022	-0.000053
C16	C	0.810129	0.142559	-0.000055
C17	C	0.923880	0.166718	-0.000055
C18	C	0.766248	0.209936	-0.000069
C19	C	0.836106	0.301473	-0.000072
C20	C	0.949845	0.325628	-0.000072
C21	C	0.993738	0.258253	-0.000064
C22	C	0.652497	0.185777	-0.000069
C23	C	0.678474	0.344691	-0.000086
C24	C	0.792213	0.368848	-0.000079
C25	C	1.296129	0.331611	-0.000075
C26	C	1.293966	0.424367	-0.000076
C27	C	1.185024	0.614591	-0.000058
C28	C	1.235596	0.687049	-0.073066
C29	C	1.290051	0.594207	-0.000070
C30	C	1.235635	0.687028	0.072914
C31	C	1.286263	0.758262	-0.000060
C32	C	1.340653	0.665443	-0.073138
C33	C	1.340677	0.665413	0.072907
C34	C	1.391326	0.737870	-0.000118
C35	C	1.292231	0.499698	-0.000076
C36	C	1.284091	0.852772	-0.000060
C37	C	1.487559	0.227448	-0.000076
C38	C	1.608616	0.253156	-0.000077
N39	N	1.288173	0.176265	-0.230744
C40	C	1.280233	1.020879	-0.000056
C41	C	1.282352	0.928109	-0.000052
C42	C	1.365002	0.253737	-0.529744
C43	C	1.387060	0.183054	-0.470373
C44	C	1.288199	0.176246	-0.587781
C45	C	1.266180	0.246948	-0.470410
C46	C	1.288190	0.176260	-0.412357
C47	C	1.310307	0.105536	-0.529717
C48	C	1.189383	0.169469	-0.529759
C49	C	1.211400	0.098722	-0.470415
C50	C	1.288208	0.176239	-0.688838
C51	C	1.288180	0.176258	-0.311302
N52	N	1.288212	0.176238	0.230612
H53	H	0.595629	0.111247	-0.000068
H54	H	1.385068	0.655313	0.134628
O55	O	1.393490	0.653645	-0.146949
C56	C	1.398282	0.651339	-0.307266
C57	C	1.338359	0.664746	-0.223751
H58	H	1.353720	0.660290	-0.369382
H59	H	1.485957	0.703502	-0.307597
H60	H	1.399492	0.580228	-0.306639
H61	H	1.337064	0.735828	-0.224323
H62	H	1.250715	0.612530	-0.223452
H63	H	1.146443	0.033141	-0.444529
O64	O	1.244090	0.318366	-0.439435
C65	C	1.300165	0.480762	-0.434411
C66	C	1.325284	0.399959	-0.469562
H67	H	1.365808	0.546750	-0.458739
H68	H	1.216592	0.475692	-0.459882
H69	H	1.299536	0.479659	-0.358526
H70	H	1.325973	0.401011	-0.545445
H71	H	1.408840	0.405059	-0.444023
O72	O	1.332802	0.034261	-0.560543
C73	C	1.462056	-0.039439	-0.564627
C74	C	1.436699	0.041309	-0.529643
H75	H	1.546065	-0.033758	-0.539674
H76	H	1.397037	-0.105448	-0.539653
H77	H	1.461861	-0.038857	-0.640517
H78	H	1.436911	0.040813	-0.453756
H79	H	1.501722	0.107281	-0.554685
O80	O	1.182486	0.698854	0.146522
C81	C	1.013638	0.648439	0.229663
C82	C	1.073715	0.634942	0.146281
H83	H	0.925680	0.596789	0.229486
H84	H	1.057483	0.638756	0.291905
H85	H	1.013263	0.719819	0.229295
H86	H	1.074107	0.563570	0.146563
H87	H	1.029851	0.644682	0.084077
H88	H	1.470622	0.188783	-0.444288
H89	H	1.105847	0.163771	-0.555863
O90	O	1.442453	0.331818	-0.560979
C91	C	1.528672	0.419600	-0.690089
C92	C	1.440901	0.331149	-0.654835
H93	H	1.527462	0.419080	-0.765975
H94	H	1.510740	0.479961	-0.664743
H95	H	1.612854	0.425213	-0.665638
H96	H	1.356685	0.325449	-0.679272
H97	H	1.458928	0.270831	-0.680174
O98	O	0.629760	0.027402	-0.000012
C99	C	0.452282	-0.094460	-0.000053
C100	C	0.577419	-0.067832	-0.000084
H101	H	0.409928	-0.171457	-0.000130
H102	H	0.427094	-0.065876	0.061926
H103	H	0.427184	-0.065748	-0.062003
H104	H	0.602608	-0.096536	0.061823
H105	H	0.602539	-0.096402	-0.062105
H106	H	0.727293	-0.090882	-0.000043
O107	O	1.495485	0.800840	-0.000218
C108	C	1.688213	0.828303	-0.001014
C109	C	1.570311	0.756901	-0.000912
H110	H	1.748743	0.792806	-0.001556
H111	H	1.701368	0.872841	-0.062708
H112	H	1.701812	0.872133	0.061217
H113	H	1.556631	0.713009	-0.063102
H114	H	1.557213	0.712427	0.060823
H115	H	1.086353	0.277917	-0.000061
O116	O	0.940722	-0.057521	-0.000001
C117	C	1.104449	-0.090721	-0.000072
C118	C	1.056104	-0.016642	-0.000088
H119	H	1.197741	-0.057699	-0.000162
H120	H	1.075773	-0.134659	0.061908
H121	H	1.075612	-0.134658	-0.062022
H122	H	1.084919	0.027357	0.061819
H123	H	1.084775	0.027229	-0.062109
O124	O	0.635668	0.410033	-0.000050
C125	C	0.471946	0.443240	-0.000104
C126	C	0.520286	0.369158	-0.000122
H127	H	0.378654	0.410221	-0.000181
H128	H	0.500637	0.487164	0.061871
H129	H	0.500774	0.487189	-0.062059
H130	H	0.491481	0.325145	0.061791
H131	H	0.491601	0.325300	-0.062137
O132	O	1.017815	0.414515	0.000040
C133	C	1.161260	0.534024	0.076768
C134	C	1.084370	0.433339	0.076741
H135	H	1.215073	0.549280	0.138783
H136	H	1.215237	0.549342	0.014845
H137	H	1.110330	0.578009	0.076721
H138	H	1.135213	0.389288	0.076819
H139	H	1.030389	0.418095	0.138658
O140	O	0.859923	0.457807	-0.000046
C141	C	0.873693	0.612881	-0.000112
C142	C	0.796888	0.512172	-0.000131
H143	H	0.822761	0.656864	-0.000200
H144	H	0.927573	0.628209	0.061868
H145	H	0.927618	0.628124	-0.062061
H146	H	0.742895	0.496858	0.061776
H147	H	0.743084	0.496896	-0.062152
O148	O	1.182423	0.698972	-0.146628
C149	C	1.013617	0.648545	-0.229827
C150	C	1.073704	0.634965	-0.146476
H151	H	0.925714	0.596793	-0.229742
H152	H	1.013099	0.719880	-0.229456
H153	H	1.057593	0.638978	-0.292029
H154	H	1.029776	0.644485	-0.084230
H155	H	1.074232	0.563633	-0.146926
H156	H	1.097851	0.561574	-0.000126
