data_functionalizedCrystal
_audit_creation_method	'MofGen! by Chris Wilmer'
_symmetry_space_group_name_H-M	'P1'
_symmetry_Int_Tables_number	1
_symmetry_cell_setting	triclinic
loop_
_symmetry_equiv_pos_as_xyz
  x,y,z
_cell_length_a	18.050591
_cell_length_b	18.050589
_cell_length_c	12.759387
_cell_angle_alpha	90.029785
_cell_angle_beta	89.971092
_cell_angle_gamma	89.969296
loop_
_atom_site_label
_atom_site_type_symbol
_atom_site_fract_x
_atom_site_fract_y
_atom_site_fract_z
Zn1	Zn	1.135318	0.295699	-0.594248
Zn2	Zn	1.635318	0.795699	-0.094248
Zn3	Zn	1.135197	0.419908	-0.418571
Zn4	Zn	1.635197	0.919908	0.081429
Zn5	Zn	1.011120	0.295728	-0.418559
Zn6	Zn	1.511120	0.795728	0.081441
Zn7	Zn	1.011071	0.419843	-0.594185
Zn8	Zn	1.511071	0.919843	-0.094185
O9	O	1.073176	0.357795	-0.506391
O10	O	1.573176	0.857795	-0.006391
O11	O	1.239226	0.312191	-0.570976
O12	O	1.739226	0.812191	-0.070976
O13	O	1.118708	0.403474	-0.271548
O14	O	1.618708	0.903474	0.228452
O15	O	1.027666	0.191799	-0.441886
O16	O	1.527666	0.691799	0.058114
O17	O	1.239138	0.403447	-0.441907
O18	O	1.739138	0.903447	0.058093
O19	O	1.118913	0.191779	-0.570964
O20	O	1.618913	0.691779	-0.070964
O21	O	1.027549	0.312240	-0.271539
O22	O	1.527549	0.812240	0.228461
O23	O	0.907189	0.312177	-0.441824
O24	O	1.407189	0.812177	0.058176
O25	O	1.027583	0.403336	-0.741214
O26	O	1.527583	0.903336	-0.241214
O27	O	0.907153	0.403364	-0.570856
O28	O	1.407153	0.903364	-0.070856
O29	O	1.118866	0.312128	-0.741261
O30	O	1.618866	0.812128	-0.241261
O31	O	1.118661	0.523824	-0.441846
O32	O	1.618661	1.023824	0.058154
O33	O	1.027466	0.523777	-0.570868
O34	O	1.527466	1.023777	-0.070868
C35	C	0.880224	0.357767	-0.506333
C36	C	1.380224	0.857767	-0.006333
C37	C	0.797678	0.357773	-0.506333
C38	C	1.297678	0.857773	-0.006333
C39	C	0.598226	0.308128	-0.436327
C40	C	1.098226	0.808128	0.063673
C41	C	0.548796	0.375868	-0.410480
C42	C	1.048796	0.875868	0.089520
C43	C	0.646548	0.357796	-0.506380
C44	C	1.146548	0.857796	-0.006380
C45	C	0.548896	0.290079	-0.532225
C46	C	1.048896	0.790079	-0.032225
C47	C	0.500563	0.357811	-0.506424
C48	C	1.000563	0.857811	-0.006424
C49	C	0.598205	0.425571	-0.480483
C50	C	1.098205	0.925571	0.019517
C51	C	0.598310	0.339737	-0.602273
C52	C	1.098310	0.839737	-0.102273
C53	C	0.548903	0.407523	-0.576462
C54	C	1.048903	0.907523	-0.076462
C55	C	0.730646	0.357786	-0.506352
C56	C	1.230646	0.857786	-0.006352
C57	C	0.416466	0.357829	-0.506452
C58	C	0.916466	0.857829	-0.006452
C59	C	1.073065	0.550747	-0.506374
C60	C	1.573065	1.050747	-0.006374
C61	C	1.073085	0.633293	-0.506402
C62	C	1.573085	1.133293	-0.006402
C63	C	1.023519	0.832744	-0.576541
C64	C	1.523519	1.332744	-0.076541
C65	C	1.005407	0.882191	-0.480669
C66	C	1.505407	1.382191	0.019331
C67	C	1.073141	0.784423	-0.506417
C68	C	1.573141	1.284423	-0.006417
C69	C	1.091274	0.882058	-0.602301
C70	C	1.591274	1.382058	-0.102301
C71	C	1.073194	0.930408	-0.506439
C72	C	1.573194	1.430408	-0.006439
C73	C	1.054993	0.832782	-0.410494
C74	C	1.554993	1.332782	0.089506
C75	C	1.140891	0.832645	-0.532190
C76	C	1.640891	1.332645	-0.032190
C77	C	1.122804	0.882069	-0.436252
C78	C	1.622804	1.382069	0.063748
C79	C	1.073109	0.700325	-0.506405
C80	C	1.573109	1.200325	-0.006405
C81	C	1.073226	1.014505	-0.506440
C82	C	1.573226	1.514505	-0.006440
C83	C	1.266882	0.357823	-0.506450
C84	C	1.766882	0.857823	-0.006450
C85	C	1.349428	0.357835	-0.506475
C86	C	1.849428	0.857835	-0.006475
C87	C	1.073232	0.357722	-0.780424
C88	C	1.573232	0.857722	-0.280424
C89	C	1.073256	0.357691	-0.897201
C90	C	1.573256	0.857691	-0.397201
C91	C	1.073280	1.164089	-0.506432
C92	C	1.573280	1.664089	-0.006432
C93	C	1.073252	1.081543	-0.506452
C94	C	1.573252	1.581543	-0.006452
C95	C	1.168316	0.262722	-0.897269
C96	C	1.668316	0.762722	-0.397269
C97	C	1.215857	0.215227	-0.952164
C98	C	1.715857	0.715227	-0.452164
C99	C	1.215875	0.215200	-1.061886
C100	C	1.715875	0.715200	-0.561886
C101	C	1.168346	0.262672	-1.116715
C102	C	1.668346	0.762672	-0.616715
C103	C	1.120805	0.310167	-1.061820
C104	C	1.620805	0.810167	-0.561820
C105	C	1.120794	0.310191	-0.952096
C106	C	1.620794	0.810191	-0.452096
C107	C	1.025743	0.405131	-1.061752
C108	C	1.525743	0.905131	-0.561752
C109	C	1.025727	0.405163	-0.952030
C110	C	1.525727	0.905163	-0.452030
C111	C	0.978214	0.452603	-1.116582
C112	C	1.478214	0.952603	-0.616582
C113	C	0.930676	0.500103	-1.061687
C114	C	1.430676	1.000103	-0.561687
C115	C	0.930660	0.500129	-0.951958
C116	C	1.430660	1.000129	-0.451958
C117	C	0.978187	0.452658	-0.897136
C118	C	1.478187	0.952658	-0.397136
C119	C	1.073163	0.357814	-0.233423
C120	C	1.573163	0.857814	0.266577
C121	C	1.073283	0.357635	-0.116647
C122	C	1.573283	0.857635	0.383353
H123	H	0.527382	0.449581	-0.635722
H124	H	1.027382	0.949581	-0.135722
H125	H	0.619882	0.266171	-0.377021
H126	H	1.119882	0.766171	0.122979
Br127	Br	1.116800	0.918141	-0.737434
Br128	Br	1.616800	1.418141	-0.237434
H129	H	0.948138	0.903970	-0.458890
H130	H	1.448138	1.403970	0.041110
Br131	Br	1.168362	0.262625	-1.265624
Br132	Br	1.668362	0.762625	-0.765624
H133	H	0.978229	0.452575	-1.205923
H134	H	1.478229	0.952575	-0.705923
H135	H	0.891939	0.538798	-0.907269
H136	H	1.391939	1.038798	-0.407269
H137	H	0.620075	0.324430	-0.683324
H138	H	1.120075	0.824430	-0.183324
H139	H	1.254553	0.176575	-0.907510
H140	H	1.754553	0.676575	-0.407510
H141	H	0.527197	0.232814	-0.554030
H142	H	1.027197	0.732814	-0.054030
Br143	Br	0.512547	0.401348	-0.275351
Br144	Br	1.012547	0.901348	0.224649
H145	H	0.981502	0.811086	-0.635759
H146	H	1.481502	1.311086	-0.135759
H147	H	0.978182	0.452678	-0.807794
H148	H	1.478182	0.952678	-0.307794
H149	H	0.619775	0.482861	-0.458552
H150	H	1.119775	0.982861	0.041448
H151	H	1.039610	0.811227	-0.329392
H152	H	1.539610	1.311227	0.170608
H153	H	0.891978	0.538747	-1.106337
H154	H	1.391978	1.038747	-0.606337
Br155	Br	1.192787	0.917940	-0.337320
Br156	Br	1.692787	1.417940	0.162680
H157	H	1.168313	0.262746	-0.807928
H158	H	1.668313	0.762746	-0.307928
Br159	Br	1.236323	0.796345	-0.568566
Br160	Br	1.736323	1.296345	-0.068566
Br161	Br	1.280379	0.150727	-1.136391
Br162	Br	1.780379	0.650727	-0.636391
