data_functionalizedCrystal
_audit_creation_method	'MofGen! by Chris Wilmer'
_symmetry_space_group_name_H-M	'P1'
_symmetry_Int_Tables_number	1
_symmetry_cell_setting	triclinic
loop_
_symmetry_equiv_pos_as_xyz
  x,y,z
_cell_length_a	14.519731
_cell_length_b	14.519709
_cell_length_c	13.596369
_cell_angle_alpha	89.999792
_cell_angle_beta	89.993567
_cell_angle_gamma	96.315501
loop_
_atom_site_label
_atom_site_type_symbol
_atom_site_fract_x
_atom_site_fract_y
_atom_site_fract_z
O1	O	-1.223856	0.120986	0.081803
O2	O	-0.973856	0.370986	0.331803
O3	O	-0.723856	0.620986	0.581803
O4	O	-0.473856	0.870986	0.831803
O5	O	-0.955382	0.135202	0.081798
O6	O	-0.705382	0.385202	0.331798
O7	O	-0.455382	0.635202	0.581798
O8	O	-0.205382	0.885202	0.831798
O9	O	-1.096737	-0.006144	0.081809
O10	O	-0.846737	0.243856	0.331809
O11	O	-0.596737	0.493856	0.581809
O12	O	-0.346737	0.743856	0.831809
O13	O	-1.082501	0.262332	0.081791
O14	O	-0.832501	0.512332	0.331791
O15	O	-0.582501	0.762332	0.581791
O16	O	-0.332501	1.012332	0.831791
O17	O	-1.096723	-0.006151	-0.081774
O18	O	-0.846723	0.243849	0.168226
O19	O	-0.596723	0.493849	0.418226
O20	O	-0.346723	0.743849	0.668226
O21	O	-0.955368	0.135195	-0.081785
O22	O	-0.705368	0.385195	0.168215
O23	O	-0.455368	0.635195	0.418215
O24	O	-0.205368	0.885195	0.668215
O25	O	-1.223842	0.120979	-0.081780
O26	O	-0.973842	0.370979	0.168220
O27	O	-0.723842	0.620979	0.418220
O28	O	-0.473842	0.870979	0.668220
Zn29	Zn	-1.089603	0.128086	-0.107755
Zn30	Zn	-0.839603	0.378086	0.142245
Zn31	Zn	-0.589603	0.628086	0.392245
Zn32	Zn	-0.339603	0.878086	0.642245
Zn33	Zn	-1.089621	0.128096	0.107772
Zn34	Zn	-0.839621	0.378096	0.357772
Zn35	Zn	-0.589621	0.628096	0.607772
Zn36	Zn	-0.339621	0.878096	0.857772
O37	O	-1.082487	0.262325	-0.081792
O38	O	-0.832487	0.512325	0.168208
O39	O	-0.582487	0.762325	0.418208
O40	O	-0.332487	1.012325	0.668208
C41	C	-0.921016	0.134532	0.000006
C42	C	-0.671016	0.384532	0.250006
C43	C	-0.421016	0.634532	0.500006
C44	C	-0.171016	0.884532	0.750006
C45	C	-0.818635	0.132536	0.000004
C46	C	-0.568635	0.382536	0.250004
C47	C	-0.318635	0.632536	0.500004
C48	C	-0.068635	0.882536	0.750004
C49	C	-0.735491	0.130915	0.000007
C50	C	-0.485491	0.380915	0.250007
C51	C	-0.235491	0.630915	0.500007
C52	C	0.014509	0.880915	0.750007
C53	C	-0.631182	0.128888	0.000005
C54	C	-0.381182	0.378888	0.250005
C55	C	-0.131182	0.628888	0.500005
C56	C	0.118818	0.878888	0.750005
C57	C	-0.548043	0.127280	0.000004
C58	C	-0.298043	0.377280	0.250004
C59	C	-0.048043	0.627280	0.500004
C60	C	0.201957	0.877280	0.750004
C61	C	-0.443728	0.125253	0.000004
C62	C	-0.193728	0.375253	0.250004
C63	C	0.056272	0.625253	0.500004
C64	C	0.306272	0.875253	0.750004
C65	C	-1.096067	-0.040507	0.000022
C66	C	-0.846067	0.209493	0.250022
C67	C	-0.596067	0.459493	0.500022
C68	C	-0.346067	0.709493	0.750022
C69	C	-1.094079	-0.142889	0.000035
C70	C	-0.844079	0.107111	0.250035
C71	C	-0.594079	0.357111	0.500035
C72	C	-0.344079	0.607111	0.750035
N73	N	-1.089597	0.128078	-0.254847
N74	N	-0.839597	0.378078	-0.004847
N75	N	-0.589597	0.628078	0.245153
N76	N	-0.339597	0.878078	0.495153
C77	C	-0.258209	0.121649	0.000009
C78	C	-0.008209	0.371649	0.250009
C79	C	0.241791	0.621649	0.500009
C80	C	0.491791	0.871649	0.750009
C81	C	-0.360589	0.123645	0.000003
C82	C	-0.110589	0.373645	0.250003
C83	C	0.139411	0.623645	0.500003
C84	C	0.389411	0.873645	0.750003
C85	C	-1.083157	0.296688	-0.000003
C86	C	-0.833157	0.546688	0.249997
C87	C	-0.583157	0.796688	0.499997
C88	C	-0.333157	1.046688	0.749997
C89	C	-1.085146	0.399070	-0.000009
C90	C	-0.835146	0.649070	0.249991
C91	C	-0.585146	0.899070	0.499991
C92	C	-0.335146	1.149070	0.749991
C93	C	-1.092465	0.773966	0.000030
C94	C	-0.842465	1.023966	0.250030
C95	C	-0.592465	1.273966	0.500030
C96	C	-0.342465	1.523966	0.750030
C97	C	-1.090432	0.669658	0.000019
C98	C	-0.840432	0.919658	0.250019
C99	C	-0.590432	1.169658	0.500019
C100	C	-0.340432	1.419658	0.750019
C101	C	-1.088806	0.586521	0.000009
C102	C	-0.838806	0.836521	0.250009
C103	C	-0.588806	1.086521	0.500009
C104	C	-0.338806	1.336521	0.750009
C105	C	-1.086773	0.482207	0.000000
C106	C	-0.836773	0.732207	0.250000
C107	C	-0.586773	0.982207	0.500000
C108	C	-0.336773	1.232207	0.750000
C109	C	-1.089620	0.128096	-0.656138
C110	C	-0.839620	0.378096	-0.406138
C111	C	-0.589620	0.628096	-0.156138
C112	C	-0.339620	0.878096	0.093862
C113	C	-1.089611	0.128095	-0.544486
C114	C	-0.839611	0.378095	-0.294486
C115	C	-0.589611	0.628095	-0.044486
C116	C	-0.339611	0.878095	0.205514
C117	C	-1.089609	0.128088	-0.455496
C118	C	-0.839609	0.378088	-0.205496
C119	C	-0.589609	0.628088	0.044504
C120	C	-0.339609	0.878088	0.294504
C121	C	-1.089599	0.128085	-0.343837
C122	C	-0.839599	0.378085	-0.093837
C123	C	-0.589599	0.628085	0.156163
C124	C	-0.339599	0.878085	0.406163
N125	N	-1.089635	0.128096	0.254864
N126	N	-0.839635	0.378096	0.504864
N127	N	-0.589635	0.628096	0.754864
N128	N	-0.339635	0.878096	1.004864
