data_functionalizedCrystal
_audit_creation_method	'MofGen! by Chris Wilmer'
_symmetry_space_group_name_H-M	'P1'
_symmetry_Int_Tables_number	1
_symmetry_cell_setting	triclinic
loop_
_symmetry_equiv_pos_as_xyz
  x,y,z
_cell_length_a	15.625950
_cell_length_b	15.625429
_cell_length_c	14.048226
_cell_angle_alpha	71.916421
_cell_angle_beta	108.066950
_cell_angle_gamma	89.777900
loop_
_atom_site_label
_atom_site_type_symbol
_atom_site_fract_x
_atom_site_fract_y
_atom_site_fract_z
O1	O	1.196204	0.117771	0.292975
O2	O	0.933780	0.131778	0.197582
O3	O	1.072001	-0.006454	0.292995
O4	O	1.057982	0.256004	0.197562
O5	O	1.071985	-0.006463	0.451314
O6	O	0.933763	0.131770	0.355901
O7	O	1.196187	0.117763	0.451293
Zn8	Zn	1.064972	0.124765	0.428733
Zn9	Zn	1.064994	0.124776	0.220142
O10	O	1.057965	0.255996	0.355880
C11	C	0.900188	0.131137	0.265372
C12	C	0.800117	0.129228	0.231499
C13	C	0.470861	0.122975	0.551456
C14	C	0.376828	0.121199	0.519576
C15	C	0.376893	0.121209	0.346999
C16	C	0.470927	0.122990	0.378863
C17	C	0.517904	0.123872	0.481093
C18	C	0.517970	0.123886	0.308500
C19	C	0.611997	0.125662	0.340364
C20	C	0.658981	0.126541	0.442590
C21	C	0.611931	0.125647	0.512957
C22	C	0.470992	0.122997	0.206273
C23	C	0.518036	0.123894	0.135911
C24	C	0.612063	0.125676	0.167771
C25	C	0.659047	0.126555	0.269998
C26	C	0.659113	0.126570	0.097405
C27	C	0.753141	0.128346	0.129269
C28	C	0.753074	0.128331	0.301861
C29	C	1.071358	-0.040047	0.383528
C30	C	1.069454	-0.140131	0.417412
C31	C	1.063213	-0.469272	0.097382
C32	C	1.061420	-0.563315	0.129249
C33	C	1.061402	-0.563310	0.301837
C34	C	1.063200	-0.469265	0.269986
C35	C	1.064104	-0.422254	0.167757
C36	C	1.064090	-0.422247	0.340361
C37	C	1.065883	-0.328211	0.308510
C38	C	1.066784	-0.281192	0.206284
C39	C	1.065896	-0.328217	0.135906
C40	C	1.063180	-0.469260	0.442587
C41	C	1.064071	-0.422242	0.512961
C42	C	1.065869	-0.328204	0.481114
C43	C	1.066771	-0.281186	0.378888
C44	C	1.066758	-0.281179	0.551492
C45	C	1.068550	-0.187143	0.519641
C46	C	1.068563	-0.187149	0.347037
C47	C	1.229779	0.118404	0.383501
C48	C	1.329849	0.120314	0.417369
C49	C	1.058609	0.289588	0.265346
C50	C	1.060513	0.389672	0.231455
N51	N	1.064964	0.124757	0.571094
N52	N	1.065010	0.124777	0.077787
C53	C	1.126188	0.063573	0.663159
C54	C	1.126194	0.063573	0.762819
C55	C	1.064980	0.124761	0.770412
C56	C	1.003750	0.185948	0.678336
C57	C	1.003740	0.185944	0.578679
C58	C	1.003776	0.185955	0.886057
C59	C	1.003786	0.185961	0.985722
C60	C	1.126230	0.063584	1.070197
C61	C	1.126220	0.063579	0.970540
C62	C	1.064990	0.124768	0.878471
H63	H	0.509111	0.123707	0.634696
O64	O	1.061251	-0.570687	0.476938
H65	H	0.999379	-0.587526	0.498646
H66	H	1.063958	-0.430993	0.014140
O67	O	0.937738	0.251941	0.786743
H68	H	0.949311	0.322248	0.785567
O69	O	1.060467	-0.614033	0.053344
H70	H	1.061404	-0.565541	-0.023087
H71	H	0.791324	0.129063	0.385102
O72	O	0.467371	0.122941	0.025651
H73	H	0.416593	0.183533	-0.016934
H74	H	0.953903	0.235766	0.684523
H75	H	1.176039	0.013750	0.656988
O76	O	1.060428	-0.614014	0.412096
H77	H	1.122158	-0.603911	0.471287
H78	H	1.066641	-0.289938	0.052664
O79	O	0.608438	0.125599	-0.012844
H80	H	0.656949	0.126510	-0.056417
O81	O	0.803890	0.129320	0.053381
H82	H	0.755426	0.128419	-0.023062
O83	O	1.192267	-0.002422	1.169493
H84	H	1.181983	0.007850	1.240068
H85	H	1.063331	-0.460532	0.596196
O86	O	1.065793	-0.331889	0.661754
H87	H	1.064404	-0.405179	0.672081
H88	H	1.069308	-0.148870	0.263795
O89	O	1.192239	-0.002422	0.962351
H90	H	1.236092	0.035609	0.918940
H91	H	0.953938	0.235786	0.991894
H92	H	1.068234	-0.204619	0.180349
H93	H	0.338632	0.120486	0.263765
O94	O	0.937711	0.251939	0.479373
H95	H	0.895152	0.294495	0.501393
O96	O	1.069520	-0.136421	0.595542
H97	H	1.068602	-0.184910	0.671983
H98	H	0.394429	0.121556	0.180332
O99	O	1.192244	-0.002402	0.862121
H100	H	1.234821	-0.044937	0.840098
H101	H	0.735544	0.127986	0.468532
H102	H	0.650181	0.126380	0.596197
H103	H	0.338526	0.120490	0.576873
