data_functionalizedCrystal
_audit_creation_method	'MofGen! by Chris Wilmer'
_symmetry_space_group_name_H-M	'P1'
_symmetry_Int_Tables_number	1
_symmetry_cell_setting	triclinic
loop_
_symmetry_equiv_pos_as_xyz
  x,y,z
_cell_length_a	16.959455
_cell_length_b	18.101395
_cell_length_c	16.959447
_cell_angle_alpha	89.970532
_cell_angle_beta	89.985678
_cell_angle_gamma	90.028051
loop_
_atom_site_label
_atom_site_type_symbol
_atom_site_fract_x
_atom_site_fract_y
_atom_site_fract_z
Zn1	Zn	1.208323	-0.294875	-0.446913
Zn2	Zn	1.208220	-0.418728	-0.314737
Zn3	Zn	1.076152	-0.294899	-0.314751
Zn4	Zn	1.076091	-0.418673	-0.446875
O5	O	1.142196	-0.356794	-0.380819
O6	O	1.318920	-0.311318	-0.429390
O7	O	1.190683	-0.402335	-0.204128
O8	O	1.093753	-0.191263	-0.332304
O9	O	1.318845	-0.402312	-0.332280
O10	O	1.190859	-0.191246	-0.429404
O11	O	1.093653	-0.311358	-0.204138
O12	O	0.965533	-0.311304	-0.332267
O13	O	1.093649	-0.402218	-0.557491
O14	O	0.965488	-0.402241	-0.429339
O15	O	1.190800	-0.311264	-0.557519
O16	O	1.190624	-0.522354	-0.332243
O17	O	1.093550	-0.522313	-0.429325
C18	C	0.936830	-0.356769	-0.380801
C19	C	0.848974	-0.356777	-0.380812
C20	C	1.142091	-0.549204	-0.380796
C21	C	1.142118	-0.631518	-0.380812
C22	C	0.477497	-0.309404	-0.330380
C23	C	0.477499	-0.404244	-0.431304
C24	C	0.560045	-0.404234	-0.431299
C25	C	0.601321	-0.356808	-0.380833
C26	C	0.560050	-0.309394	-0.330372
C27	C	0.601321	-0.451653	-0.481754
C28	C	0.683872	-0.451644	-0.481750
C29	C	0.725150	-0.404215	-0.431287
C30	C	0.683874	-0.356798	-0.380825
C31	C	0.725150	-0.309373	-0.330359
C32	C	0.683876	-0.261951	-0.279899
C33	C	0.601327	-0.261964	-0.279909
C34	C	0.807698	-0.404202	-0.431278
C35	C	0.807703	-0.309362	-0.330351
C36	C	1.142291	-0.930609	-0.380855
C37	C	1.081356	-0.899289	-0.442088
C38	C	1.081066	-0.813671	-0.441896
C39	C	1.142205	-0.782227	-0.380834
C40	C	1.119658	-0.813380	-0.297530
C41	C	1.119266	-0.899025	-0.297896
C42	C	1.225907	-0.898956	-0.402193
C43	C	1.225415	-0.813305	-0.404020
C44	C	1.142158	-0.698367	-0.380818
C45	C	1.142337	-1.014469	-0.380866
C46	C	1.348365	-0.356819	-0.380838
C47	C	1.436221	-0.356830	-0.380846
C48	C	1.142229	-0.356732	-0.586987
C49	C	1.142243	-0.356706	-0.674844
C50	C	1.142324	-0.163632	-0.380860
C51	C	1.142379	-0.081318	-0.380877
C52	C	1.091756	-0.403984	-1.046308
C53	C	1.192920	-0.309273	-1.046332
C54	C	1.192899	-0.309289	-0.963786
C55	C	1.142306	-0.356653	-0.922497
C56	C	1.091735	-0.404002	-0.963754
C57	C	1.243475	-0.261946	-0.922523
C58	C	1.243456	-0.261960	-0.839972
C59	C	1.192859	-0.309322	-0.798681
C60	C	1.142285	-0.356672	-0.839944
C61	C	1.091693	-0.404037	-0.798655
C62	C	1.041115	-0.451384	-0.839915
C63	C	1.041138	-0.451364	-0.922464
C64	C	1.192836	-0.309342	-0.716133
C65	C	1.091672	-0.404055	-0.716101
C66	C	1.142209	-0.356801	-0.175453
C67	C	1.142348	-0.356619	-0.087597
H68	H	0.841304	-0.270738	-0.289259
O69	O	1.099734	-0.785740	-0.523710
H70	H	1.049812	-0.751818	-0.545590
H71	H	1.095322	-0.919836	-0.504057
O72	O	1.247383	-0.258286	-0.671626
H73	H	1.233872	-0.200156	-0.687481
O74	O	1.247473	-0.258190	-1.090877
H75	H	1.309502	-0.270897	-1.075045
H76	H	1.242417	-0.792941	-0.465328
O77	O	0.728403	-0.210810	-0.225462
H78	H	0.685840	-0.177842	-0.190369
H79	H	1.058143	-0.919066	-0.279821
H80	H	0.443888	-0.442860	-0.472386
O81	O	1.039550	-0.785059	-0.273157
H82	H	1.045144	-0.753128	-0.217582
H83	H	0.443888	-0.270793	-0.289299
O84	O	0.556814	-0.210846	-0.225459
H85	H	0.492479	-0.218837	-0.233929
H86	H	1.284669	-0.223389	-0.956146
O87	O	0.556795	-0.502793	-0.536182
H88	H	0.519224	-0.469684	-0.576460
O89	O	0.728389	-0.502779	-0.536179
H90	H	0.685818	-0.535753	-0.571277
O91	O	0.852218	-0.455339	-0.485696
H92	H	0.809648	-0.488317	-0.520791
O93	O	0.998970	-0.786616	-0.423163
H94	H	0.976826	-0.752570	-0.472892
H95	H	1.019755	-0.920873	-0.428131
O96	O	1.175490	-0.926483	-0.235395
H97	H	1.202835	-0.878587	-0.205038
O98	O	0.986588	-0.502425	-0.966966
H99	H	1.021950	-0.540103	-1.004560
H100	H	1.162645	-0.793014	-0.250663
O101	O	1.253140	-0.927485	-0.481290
H102	H	1.207377	-0.964547	-0.506278
H103	H	0.999926	-0.489951	-0.806287
O104	O	1.288735	-0.784982	-0.349231
H105	H	1.261767	-0.748148	-0.304418
O106	O	1.286089	-0.925949	-0.343252
H107	H	1.256637	-0.961714	-0.298955
H108	H	1.050466	-0.442619	-0.682489
O109	O	1.037201	-0.455047	-1.090801
H110	H	1.045712	-0.447081	-1.155140
O111	O	1.298002	-0.210894	-0.795470
H112	H	1.333182	-0.177954	-0.838050
