data_functionalizedCrystal
_audit_creation_method	'MofGen! by Chris Wilmer'
_symmetry_space_group_name_H-M	'P1'
_symmetry_Int_Tables_number	1
_symmetry_cell_setting	triclinic
loop_
_symmetry_equiv_pos_as_xyz
  x,y,z
_cell_length_a	21.395362
_cell_length_b	25.639239
_cell_length_c	21.395356
_cell_angle_alpha	89.971496
_cell_angle_beta	89.957023
_cell_angle_gamma	90.054564
loop_
_atom_site_label
_atom_site_type_symbol
_atom_site_fract_x
_atom_site_fract_y
_atom_site_fract_z
Zn1	Zn	0.957819	-0.207942	-0.354582
Zn2	Zn	1.291152	0.125391	-0.021249
Zn3	Zn	1.624486	0.458724	0.312085
Zn4	Zn	0.957709	-0.295376	-0.249803
Zn5	Zn	1.291042	0.037957	0.083530
Zn6	Zn	1.624375	0.371291	0.416864
Zn7	Zn	0.853036	-0.207981	-0.249783
Zn8	Zn	1.186369	0.125353	0.083550
Zn9	Zn	1.519702	0.458686	0.416883
Zn10	Zn	0.852988	-0.295373	-0.354508
Zn11	Zn	1.186322	0.037960	-0.021174
Zn12	Zn	1.519655	0.371294	0.312159
O13	O	0.905388	-0.251668	-0.302169
O14	O	1.238721	0.081665	0.031164
O15	O	1.572055	0.414999	0.364498
O16	O	1.045482	-0.219526	-0.340722
O17	O	1.378815	0.113807	-0.007389
O18	O	1.712149	0.447141	0.325944
O19	O	0.943797	-0.283800	-0.162122
O20	O	1.277130	0.049533	0.171211
O21	O	1.610464	0.382866	0.504544
O22	O	0.867001	-0.134810	-0.263708
O23	O	1.200335	0.198523	0.069625
O24	O	1.533668	0.531856	0.402959
O25	O	1.045401	-0.283763	-0.263742
O26	O	1.378734	0.049570	0.069592
O27	O	1.712068	0.382903	0.402925
O28	O	0.943985	-0.134782	-0.340703
O29	O	1.277318	0.198551	-0.007370
O30	O	1.610652	0.531884	0.325964
O31	O	0.866894	-0.219591	-0.162108
O32	O	1.200228	0.113742	0.171225
O33	O	1.533561	0.447075	0.504559
O34	O	0.765351	-0.219588	-0.263636
O35	O	1.098685	0.113745	0.069697
O36	O	1.432018	0.447078	0.403031
O37	O	0.866921	-0.283758	-0.442196
O38	O	1.200254	0.049576	-0.108862
O39	O	1.533588	0.382909	0.224471
O40	O	0.765317	-0.283795	-0.340576
O41	O	1.098650	0.049538	-0.007243
O42	O	1.431983	0.382872	0.326090
O43	O	0.943939	-0.219523	-0.442250
O44	O	1.277273	0.113810	-0.108917
O45	O	1.610606	0.447144	0.224417
O46	O	0.943751	-0.368541	-0.263669
O47	O	1.277085	-0.035208	0.069664
O48	O	1.610418	0.298126	0.402997
O49	O	0.866814	-0.368539	-0.340596
O50	O	1.200147	-0.035205	-0.007262
O51	O	1.533481	0.298128	0.326071
C52	C	0.742600	-0.251696	-0.302096
C53	C	1.075933	0.081638	0.031237
C54	C	1.409267	0.414971	0.364570
C55	C	0.672959	-0.251720	-0.302080
C56	C	1.006292	0.081613	0.031253
C57	C	1.339626	0.414947	0.364587
C58	C	0.640244	-0.285197	-0.342083
C59	C	0.973577	0.048136	-0.008750
C60	C	1.306911	0.381470	0.324584
C61	C	0.574809	-0.285184	-0.342111
C62	C	0.908142	0.048149	-0.008778
C63	C	1.241475	0.381483	0.324556
C64	C	0.542091	-0.251700	-0.302125
C65	C	0.875424	0.081633	0.031209
C66	C	1.208757	0.414967	0.364542
C67	C	0.574813	-0.218217	-0.262119
C68	C	0.908147	0.115117	0.071214
C69	C	1.241480	0.448450	0.404548
C70	C	0.640247	-0.218227	-0.262097
C71	C	0.973581	0.115106	0.071237
C72	C	1.306914	0.448440	0.404570
C73	C	0.438368	-0.247496	-0.245720
C74	C	0.771701	0.085838	0.087614
C75	C	1.105034	0.419171	0.420947
C76	C	0.372935	-0.247489	-0.245741
C77	C	0.706268	0.085844	0.087593
C78	C	1.039601	0.419178	0.420926
C79	C	0.340270	-0.251666	-0.302194
C80	C	0.673603	0.081667	0.031139
C81	C	1.006937	0.415001	0.364473
C82	C	0.373046	-0.255860	-0.358627
C83	C	0.706380	0.077473	-0.025294
C84	C	1.039713	0.410807	0.308039
C85	C	0.438480	-0.255870	-0.358605
C86	C	0.771814	0.077463	-0.025272
C87	C	1.105147	0.410797	0.308062
C88	C	0.471138	-0.251685	-0.302145
C89	C	0.804472	0.081648	0.031189
C90	C	1.137805	0.414982	0.364522
C91	C	0.236603	-0.285130	-0.342231
C92	C	0.569936	0.048203	-0.008897
C93	C	0.903269	0.381536	0.324436
C94	C	0.171166	-0.285114	-0.342260
C95	C	0.504499	0.048219	-0.008926
C96	C	0.837833	0.381553	0.324407
C97	C	0.171172	-0.218149	-0.262262
C98	C	0.504505	0.115184	0.071071
C99	C	0.837839	0.448517	0.404405
C100	C	0.236607	-0.218163	-0.262239
C101	C	0.569941	0.115170	0.071095
C102	C	0.903274	0.448503	0.404428
C103	C	0.269319	-0.251657	-0.302222
C104	C	0.602652	0.081677	0.031111
C105	C	0.935985	0.415010	0.364445
C106	C	0.905282	-0.387511	-0.302140
C107	C	1.238616	-0.054177	0.031193
C108	C	1.571949	0.279156	0.364526
C109	C	0.905295	-0.445625	-0.302149
C110	C	1.238628	-0.112291	0.031184
C111	C	1.571961	0.221042	0.364518
C112	C	0.945554	-0.805976	-0.262182
C113	C	1.278887	-0.472643	0.071151
C114	C	1.612220	-0.139310	0.404485
C115	C	0.945578	-0.860581	-0.262190
C116	C	1.278911	-0.527247	0.071143
C117	C	1.612245	-0.193914	0.404476
O118	O	0.979698	-0.888808	-0.228177
O119	O	1.313032	-0.555474	0.105156
O120	O	1.646365	-0.222141	0.438489
N121	N	0.905498	-0.887907	-0.302211
N122	N	1.238831	-0.554574	0.031123
N123	N	1.572165	-0.221240	0.364456
C124	C	0.865396	-0.860626	-0.342230
C125	C	1.198729	-0.527293	-0.008896
C126	C	1.532062	-0.193960	0.324437
O127	O	0.831307	-0.888884	-0.376271
O128	O	1.164640	-0.555550	-0.042938
O129	O	1.497974	-0.222217	0.290396
C130	C	0.865375	-0.806023	-0.342224
C131	C	1.198708	-0.472690	-0.008891
C132	C	1.532042	-0.139356	0.324443
C133	C	0.905453	-0.778699	-0.302196
C134	C	1.238786	-0.445366	0.031137
C135	C	1.572120	-0.112033	0.364470
C136	C	0.985629	-0.778653	-0.222158
C137	C	1.318962	-0.445319	0.111175
C138	C	1.652296	-0.111986	0.444508
C139	C	0.985604	-0.724052	-0.222149
C140	C	1.318937	-0.390719	0.111184
C141	C	1.652270	-0.057385	0.444517
C142	C	0.945503	-0.696775	-0.262164
C143	C	1.278837	-0.363442	0.071170
C144	C	1.612170	-0.030109	0.404503
C145	C	0.905428	-0.724099	-0.302187
C146	C	1.238761	-0.390766	0.031146
C147	C	1.572094	-0.057432	0.364479
C148	C	0.825276	-0.778743	-0.382246
C149	C	1.158609	-0.445410	-0.048912
C150	C	1.491943	-0.112077	0.284421
C151	C	0.825259	-0.724136	-0.382237
C152	C	1.158593	-0.390803	-0.048903
C153	C	1.491926	-0.057470	0.284430
C154	C	0.865337	-0.696813	-0.342209
C155	C	1.198671	-0.363479	-0.008876
C156	C	1.532004	-0.030146	0.324457
C157	C	0.865302	-0.642222	-0.342193
C158	C	1.198635	-0.308888	-0.008860
C159	C	1.531969	0.024445	0.324474
N160	N	0.905382	-0.614895	-0.302173
N161	N	1.238715	-0.281562	0.031161
N162	N	1.572049	0.051772	0.364494
C163	C	0.945483	-0.642172	-0.262158
C164	C	1.278816	-0.308839	0.071175
C165	C	1.612149	0.024495	0.404509
C166	C	0.865443	-0.975297	-0.342239
C167	C	1.198776	-0.641964	-0.008906
C168	C	1.532109	-0.308630	0.324427
C169	C	0.865460	-1.029899	-0.342242
C170	C	1.198793	-0.696566	-0.008909
C171	C	1.532126	-0.363233	0.324424
C172	C	0.945643	-1.029850	-0.262204
C173	C	1.278977	-0.696516	0.071130
C174	C	1.612310	-0.363183	0.404463
C175	C	0.945623	-0.975246	-0.262198
C176	C	1.278956	-0.641913	0.071135
C177	C	1.612289	-0.308580	0.404469
C178	C	0.905523	-0.947971	-0.302219
C179	C	1.238856	-0.614637	0.031114
C180	C	1.572189	-0.281304	0.364448
C181	C	0.945426	-0.527507	-0.262142
C182	C	1.278759	-0.194174	0.071192
C183	C	1.612093	0.139160	0.404525
C184	C	0.945395	-0.472902	-0.262134
C185	C	1.278729	-0.139568	0.071199
C186	C	1.612062	0.193765	0.404532
C187	C	0.865215	-0.472956	-0.342175
C188	C	1.198548	-0.139623	-0.008842
C189	C	1.531881	0.193711	0.324492
C190	C	0.865243	-0.527556	-0.342180
C191	C	1.198576	-0.194223	-0.008847
C192	C	1.531909	0.139110	0.324486
C193	C	0.905353	-0.554831	-0.302162
C194	C	1.238687	-0.221497	0.031172
C195	C	1.572020	0.111836	0.364505
O196	O	0.831201	-0.613960	-0.376190
O197	O	1.164534	-0.280626	-0.042857
O198	O	1.497867	0.052707	0.290476
O199	O	0.979571	-0.613908	-0.228128
O200	O	1.312904	-0.280575	0.105205
O201	O	1.646238	0.052759	0.438539
C202	C	1.068811	-0.251641	-0.302242
C203	C	1.402145	0.081693	0.031091
C204	C	1.735478	0.415026	0.364424
C205	C	1.138452	-0.251629	-0.302274
C206	C	1.471786	0.081704	0.031060
C207	C	1.805119	0.415038	0.364393
C208	C	0.905437	-0.251636	-0.465592
C209	C	1.238770	0.081698	-0.132259
C210	C	1.572104	0.415031	0.201074
C211	C	0.905458	-0.251622	-0.535234
C212	C	1.238791	0.081712	-0.201900
C213	C	1.572125	0.415045	0.131433
C214	C	0.905511	-0.115295	-0.302212
C215	C	1.238844	0.218038	0.031122
C216	C	1.572177	0.551372	0.364455
C217	C	0.905563	-0.057181	-0.302230
C218	C	1.238896	0.276152	0.031104
C219	C	1.572230	0.609486	0.364437
C220	C	0.865426	-0.218184	-0.567929
C221	C	1.198759	0.115149	-0.234596
C222	C	1.532092	0.448482	0.098737
C223	C	0.865423	-0.218175	-0.633365
C224	C	1.198757	0.115159	-0.300032
C225	C	1.532090	0.448492	0.033302
C226	C	0.905465	-0.251597	-0.666102
C227	C	1.238798	0.081736	-0.332769
C228	C	1.572132	0.415070	0.000565
C229	C	0.945500	-0.285041	-0.633398
C230	C	1.278834	0.048292	-0.300065
C231	C	1.612167	0.381626	0.033268
C232	C	0.945497	-0.285053	-0.567964
C233	C	1.278830	0.048280	-0.234631
C234	C	1.612164	0.381613	0.098702
C235	C	0.961916	-0.255694	-0.769807
C236	C	1.295250	0.077639	-0.436474
C237	C	1.628583	0.410972	-0.103141
C238	C	0.961921	-0.255678	-0.835240
C239	C	1.295254	0.077655	-0.501907
C240	C	1.628588	0.410988	-0.168574
C241	C	0.905475	-0.251562	-0.867923
C242	C	1.238809	0.081772	-0.534590
C243	C	1.572142	0.415105	-0.201256
C244	C	0.849024	-0.247450	-0.835164
C245	C	1.182357	0.085883	-0.501831
C246	C	1.515690	0.419217	-0.168498
C247	C	0.849020	-0.247462	-0.769730
C248	C	1.182354	0.085871	-0.436397
C249	C	1.515687	0.419204	-0.103064
C250	C	0.905473	-0.251587	-0.737054
C251	C	1.238806	0.081746	-0.403721
C252	C	1.572140	0.415079	-0.070388
C253	C	0.865437	-0.218112	-0.971571
C254	C	1.198770	0.115221	-0.638238
C255	C	1.532104	0.448555	-0.304905
C256	C	0.865434	-0.218106	-1.037008
C257	C	1.198767	0.115227	-0.703675
C258	C	1.532101	0.448561	-0.370341
C259	C	0.945517	-0.284969	-1.037040
C260	C	1.278850	0.048364	-0.703707
C261	C	1.612183	0.381697	-0.370374
C262	C	0.945514	-0.284978	-0.971605
C263	C	1.278847	0.048355	-0.638271
C264	C	1.612181	0.381689	-0.304938
C265	C	0.905475	-0.251547	-0.938874
C266	C	1.238809	0.081787	-0.605541
C267	C	1.572142	0.415120	-0.272208
C268	C	0.905375	-0.251663	-0.139381
C269	C	1.238708	0.081671	0.193952
C270	C	1.572041	0.415004	0.527285
C271	C	0.905475	-0.251529	-0.069741
C272	C	1.238809	0.081804	0.263593
C273	C	1.572142	0.415138	0.596926
H274	H	0.465164	-0.259284	-0.404555
H275	H	0.798498	0.074050	-0.071222
H276	H	1.131831	0.407383	0.262111
H277	H	0.346253	-0.244077	-0.199789
H278	H	0.679586	0.089256	0.133544
H279	H	1.012920	0.422589	0.466878
H280	H	0.464958	-0.244092	-0.199746
H281	H	0.798291	0.089241	0.133588
H282	H	1.131624	0.422575	0.466921
F283	F	0.782624	-0.807811	-0.424854
F284	F	1.115957	-0.474478	-0.091521
F285	F	1.449291	-0.141145	0.241812
F286	F	0.675054	-0.320842	-0.384639
F287	F	1.008388	0.012491	-0.051306
F288	F	1.341721	0.345825	0.282027
F289	F	0.788946	-0.243066	-0.869942
F290	F	1.122279	0.090267	-0.536609
F291	F	1.455612	0.423601	-0.203275
H292	H	0.832835	-0.190890	-0.944921
H293	H	1.166168	0.142443	-0.611587
H294	H	1.499501	0.475776	-0.278254
H295	H	1.018241	-0.701808	-0.189557
H296	H	1.351574	-0.368475	0.143776
H297	H	1.684907	-0.035142	0.477109
H298	H	0.832783	-0.953092	-0.374827
H299	H	1.166117	-0.619758	-0.041494
H300	H	1.499450	-0.286425	0.291839
H301	H	0.832818	-1.052142	-0.374831
H302	H	1.166152	-0.718808	-0.041497
H303	H	1.499485	-0.385475	0.291836
F304	F	1.021997	-0.260080	-0.735031
F305	F	1.355331	0.073254	-0.401697
F306	F	1.688664	0.406587	-0.068364
F307	F	0.822809	-0.182527	-1.071805
F308	F	1.156142	0.150806	-0.738472
F309	F	1.489476	0.484139	-0.405138
H310	H	0.832825	-0.190943	-0.659991
H311	H	1.166159	0.142390	-0.326658
H312	H	1.499492	0.475723	0.006676
F313	F	0.988321	-1.058889	-0.219615
F314	F	1.321655	-0.725556	0.113718
F315	F	1.654988	-0.392223	0.447051
F316	F	0.822576	-0.556637	-0.384770
F317	F	1.155909	-0.223304	-0.051437
F318	F	1.489242	0.110029	0.281897
F319	F	0.338288	-0.260303	-0.418714
F320	F	0.671621	0.073030	-0.085381
F321	F	1.004954	0.406363	0.247952
F322	F	0.271419	-0.320774	-0.384787
F323	F	0.604752	0.012559	-0.051453
F324	F	0.938086	0.345893	0.281880
F325	F	0.782579	-0.695111	-0.424835
F326	F	1.115913	-0.361777	-0.091502
F327	F	1.449246	-0.028444	0.241831
F328	F	0.822810	-0.182605	-0.533099
F329	F	1.156144	0.150728	-0.199765
F330	F	1.489477	0.484061	0.133568
H331	H	0.978121	-0.312181	-1.063694
H332	H	1.311454	0.021152	-0.730361
H333	H	1.644787	0.354485	-0.397028
H334	H	0.832563	-0.450739	-0.374753
H335	H	1.165896	-0.117405	-0.041419
H336	H	1.499230	0.215928	0.291914
F337	F	0.788942	-0.243089	-0.734869
F338	F	1.122275	0.090244	-0.401535
F339	F	1.455609	0.423578	-0.068202
H340	H	0.978115	-0.312205	-0.944984
H341	H	1.311448	0.021128	-0.611650
H342	H	1.644781	0.354461	-0.278317
F343	F	0.988108	-0.320643	-0.533166
F344	F	1.321441	0.012690	-0.199833
F345	F	1.654774	0.346023	0.133501
H346	H	1.007887	-0.259024	-0.861907
H347	H	1.341221	0.074310	-0.528574
H348	H	1.674554	0.407643	-0.195241
H349	H	0.548170	-0.190953	-0.229563
H350	H	0.881503	0.142380	0.103770
H351	H	1.214837	0.475714	0.437104
H352	H	0.548167	-0.312445	-0.374689
H353	H	0.881500	0.020889	-0.041355
H354	H	1.214834	0.354222	0.291978
F355	F	0.136349	-0.320744	-0.384842
F356	F	0.469682	0.012590	-0.051509
F357	F	0.803015	0.345923	0.281825
H358	H	0.978102	-0.312254	-0.660057
H359	H	1.311436	0.021080	-0.326724
H360	H	1.644769	0.354413	0.006609
F361	F	0.988279	-0.946171	-0.219596
F362	F	1.321612	-0.612838	0.113737
F363	F	1.654946	-0.279505	0.447071
F364	F	0.136355	-0.182510	-0.219708
F365	F	0.469689	0.150823	0.113625
F366	F	0.803022	0.484156	0.446958
F367	F	0.271426	-0.182534	-0.219660
F368	F	0.604759	0.150800	0.113674
F369	F	0.938093	0.484133	0.447007
H370	H	0.666883	-0.190964	-0.229521
H371	H	1.000217	0.142369	0.103812
H372	H	1.333550	0.475702	0.437145
F373	F	0.988116	-0.556526	-0.219549
F374	F	1.321450	-0.223193	0.113784
F375	F	1.654783	0.110140	0.447118
F376	F	0.988054	-0.443825	-0.219530
F377	F	1.321387	-0.110491	0.113804
F378	F	1.654720	0.222842	0.447137
F379	F	1.028315	-0.807675	-0.179566
F380	F	1.361648	-0.474341	0.153767
F381	F	1.694981	-0.141008	0.487100
