data_functionalizedCrystal
_audit_creation_method	'MofGen! by Chris Wilmer'
_symmetry_space_group_name_H-M	'P1'
_symmetry_Int_Tables_number	1
_symmetry_cell_setting	triclinic
loop_
_symmetry_equiv_pos_as_xyz
  x,y,z
_cell_length_a	15.297475
_cell_length_b	29.839131
_cell_length_c	15.296720
_cell_angle_alpha	80.368922
_cell_angle_beta	88.382886
_cell_angle_gamma	80.335685
loop_
_atom_site_label
_atom_site_type_symbol
_atom_site_fract_x
_atom_site_fract_y
_atom_site_fract_z
Zn1	Zn	1.253272	-0.349615	0.726427
Zn2	Zn	1.278510	-0.414300	0.579911
Zn3	Zn	1.132159	-0.324379	0.554680
Zn4	Zn	1.106738	-0.409884	0.701042
O5	O	1.192670	-0.374545	0.640515
O6	O	1.379193	-0.370605	0.728175
O7	O	1.280298	-0.393658	0.453994
O8	O	1.148301	-0.264872	0.577528
O9	O	1.397736	-0.418129	0.620530
O10	O	1.237282	-0.283413	0.703709
O11	O	1.172774	-0.327594	0.435457
O12	O	1.006213	-0.323312	0.552912
O13	O	1.104975	-0.410603	0.826979
O14	O	0.987537	-0.386133	0.660443
O15	O	1.212633	-0.366324	0.845630
O16	O	1.255648	-0.476569	0.595915
O17	O	1.129448	-0.473325	0.684909
C18	C	0.965093	-0.351505	0.601186
C19	C	0.867731	-0.341661	0.584381
C20	C	0.554547	-0.444906	0.760621
C21	C	0.646024	-0.454158	0.776407
C22	C	0.701455	-0.426035	0.728402
C23	C	0.665401	-0.388657	0.664608
C24	C	0.573916	-0.379406	0.648816
C25	C	0.720824	-0.360535	0.616597
C26	C	0.684770	-0.323158	0.552803
C27	C	0.593293	-0.313908	0.537014
C28	C	0.537862	-0.342032	0.585018
C29	C	0.812309	-0.369786	0.632390
C30	C	0.831678	-0.304287	0.520584
C31	C	0.740201	-0.295034	0.504798
C32	C	1.192549	-0.491249	0.640418
C33	C	1.192572	-0.541185	0.640420
C34	C	1.238976	-0.860469	0.706296
C35	C	1.239062	-1.048155	0.706365
O36	O	1.278395	-1.080600	0.762297
N37	N	1.192802	-1.062009	0.640638
C38	C	1.146512	-1.028937	0.574893
O39	O	1.107159	-1.045027	0.518995
C40	C	1.146421	-0.841251	0.574828
C41	C	1.192692	-0.827401	0.640554
C42	C	1.285242	-0.846618	0.772017
C43	C	1.285224	-0.799699	0.771996
C44	C	1.238940	-0.766631	0.706254
C45	C	1.192674	-0.780482	0.640533
C46	C	1.100126	-0.808180	0.509087
C47	C	1.100106	-0.761257	0.509078
C48	C	1.146377	-0.747407	0.574804
C49	C	1.146372	-0.700496	0.574771
N50	N	1.192632	-0.686642	0.640497
C51	C	1.238916	-0.719710	0.706239
C52	C	1.146564	-1.127475	0.574930
C53	C	1.146588	-1.174396	0.574945
C54	C	1.239137	-1.193612	0.706418
C55	C	1.239118	-1.146690	0.706399
C56	C	1.192824	-1.113622	0.640657
C57	C	1.238876	-0.621177	0.706190
C58	C	1.238857	-0.574253	0.706162
C59	C	1.146304	-0.555042	0.574692
C60	C	1.146326	-0.601962	0.574717
C61	C	1.192614	-0.635029	0.640474
O62	O	1.107051	-0.668027	0.518873
O63	O	1.278247	-0.703611	0.762140
C64	C	1.238994	-0.907388	0.706316
C65	C	1.192728	-0.921239	0.640595
C66	C	1.146444	-0.888171	0.574854
C67	C	1.192752	-0.968160	0.640610
C68	C	1.239036	-1.001228	0.706352
C69	C	1.285296	-0.987374	0.772079
C70	C	1.285278	-0.940456	0.772058
C71	C	1.100183	-0.902024	0.509127
C72	C	1.100206	-0.948944	0.509152
C73	C	1.146490	-0.982012	0.574894
C74	C	1.421135	-0.397675	0.679998
C75	C	1.518493	-0.407531	0.696824
C76	C	1.153153	-0.390786	0.868974
C77	C	1.136313	-0.397707	0.966330
C78	C	1.192812	-0.257389	0.640636
C79	C	1.192872	-0.207464	0.640687
C80	C	1.232083	-0.358340	0.412953
C81	C	1.249093	-0.351309	0.315627
C82	C	1.313058	-0.325004	1.279603
C83	C	1.328886	-0.318503	1.188133
C84	C	1.280744	-0.338303	1.132678
C85	C	1.216772	-0.364606	1.168701
C86	C	1.200948	-0.371111	1.260181
C87	C	1.168634	-0.384410	1.113256
C88	C	1.104662	-0.410713	1.149279
C89	C	1.088841	-0.417216	1.240750
C90	C	1.136983	-0.397416	1.296205
C91	C	1.184458	-0.377905	1.021777
C92	C	1.072348	-0.424012	1.002355
C93	C	1.056520	-0.430513	1.093824
H94	H	0.675373	-0.484591	0.828346
C95	C	1.290044	-1.229991	0.778736
H96	H	1.283421	-1.259918	0.769330
H97	H	1.351114	-1.227332	0.776148
H98	H	1.266982	-1.225173	0.835350
H99	H	1.062405	-0.734334	0.455543
H100	H	1.352253	-0.308889	1.324763
C101	C	0.553636	-0.272797	0.466839
H102	H	0.599746	-0.257369	0.440515
H103	H	0.524537	-0.283621	0.422444
H104	H	0.512167	-0.252030	0.494273
H105	H	1.108623	-0.528111	0.521163
C106	C	0.802075	-0.436207	0.745776
H107	H	0.815608	-0.462492	0.790650
H108	H	0.832542	-0.441998	0.692795
H109	H	0.820151	-0.410407	0.764623
H110	H	0.876810	-0.281387	0.481493
C111	C	0.700539	-0.253923	0.434625
H112	H	0.746647	-0.238494	0.408298
H113	H	0.671438	-0.264748	0.390232
H114	H	0.659071	-0.233157	0.462061
H115	H	1.293634	-0.333008	1.058200
H116	H	1.322956	-0.929183	0.825578
C117	C	0.986160	-0.459448	1.133453
H118	H	0.959747	-0.470307	1.087330
H119	H	1.013469	-0.484947	1.174909
H120	H	0.941842	-0.440934	1.162557
C121	C	1.019386	-0.445792	0.941363
H122	H	1.037965	-0.438146	0.881724
H123	H	1.029572	-0.478334	0.958533
H124	H	0.957946	-0.434322	0.946190
H125	H	1.062529	-0.960215	0.455622
H126	H	1.062492	-0.875103	0.455593
C127	C	0.493574	-0.475837	0.813416
H128	H	0.433929	-0.464972	0.794876
H129	H	0.510772	-0.506605	0.803065
H130	H	0.498395	-0.475010	0.874887
C131	C	0.437239	-0.331862	0.567641
H132	H	0.409395	-0.353967	0.605363
H133	H	0.413923	-0.301878	0.579323
H134	H	0.426321	-0.333477	0.507508
H135	H	1.236543	-0.356489	0.992456
C136	C	1.289748	-0.559020	0.778469
H137	H	1.317305	-0.585437	0.817630
H138	H	1.333725	-0.542195	0.751596
H139	H	1.249596	-0.540038	0.810803
H140	H	1.108920	-1.185669	0.521417
C141	C	1.119575	-0.404567	1.396823
H142	H	1.157410	-0.389008	1.424687
H143	H	1.059480	-0.392549	1.407755
H144	H	1.131113	-0.436559	1.420106
H145	H	1.108865	-1.100553	0.521393
C146	C	1.018478	-0.446150	1.280375
H147	H	0.992066	-0.457008	1.234249
H148	H	1.045784	-0.471651	1.321829
H149	H	0.974160	-0.427637	1.309479
H150	H	1.062448	-0.819448	0.455566
C151	C	1.289800	-0.657544	0.778515
H152	H	1.317356	-0.642569	0.817642
H153	H	1.249684	-0.675172	0.810872
H154	H	1.333796	-0.677324	0.751641
H155	H	1.322899	-0.788426	0.825518
C156	C	1.336166	-0.882986	0.844335
H157	H	1.363718	-0.868010	0.883463
H158	H	1.296054	-0.900617	0.876691
H159	H	1.380165	-0.902764	0.817460
H160	H	1.322986	-1.014307	0.825606
C161	C	1.095432	-0.617198	0.502420
H162	H	1.067861	-0.590782	0.463267
H163	H	1.135565	-0.636185	0.470086
H164	H	1.051450	-0.634019	0.529312
C165	C	1.289997	-1.131458	0.778709
H166	H	1.317556	-1.157875	0.817866
H167	H	1.333972	-1.114628	0.751844
H168	H	1.249840	-1.112480	0.811046
C169	C	1.399245	-0.289571	1.148513
H170	H	1.425645	-0.278707	1.194637
H171	H	1.443560	-0.308080	1.119406
H172	H	1.371932	-0.264068	1.107059
H173	H	0.841655	-0.400219	0.684332
