data_functionalizedCrystal
_audit_creation_method	'MofGen! by Chris Wilmer'
_symmetry_space_group_name_H-M	'P1'
_symmetry_Int_Tables_number	1
_symmetry_cell_setting	triclinic
loop_
_symmetry_equiv_pos_as_xyz
  x,y,z
_cell_length_a	14.853567
_cell_length_b	14.519709
_cell_length_c	13.930277
_cell_angle_alpha	89.994503
_cell_angle_beta	89.995755
_cell_angle_gamma	83.657538
loop_
_atom_site_label
_atom_site_type_symbol
_atom_site_fract_x
_atom_site_fract_y
_atom_site_fract_z
O1	O	1.196415	0.120405	-0.079767
O2	O	1.696415	0.620405	0.420233
O3	O	0.933961	0.134748	-0.079783
O4	O	1.433961	0.634748	0.420217
O5	O	1.072147	-0.006665	-0.079766
O6	O	1.572147	0.493335	0.420234
O7	O	1.058230	0.261817	-0.079784
O8	O	1.558230	0.761817	0.420216
O9	O	1.072128	-0.006668	0.079896
O10	O	1.572128	0.493332	0.579896
O11	O	0.933942	0.134745	0.079878
O12	O	1.433942	0.634745	0.579878
O13	O	1.196396	0.120402	0.079895
O14	O	1.696396	0.620402	0.579895
Zn15	Zn	1.065166	0.127573	0.105236
Zn16	Zn	1.565166	0.627573	0.605236
Zn17	Zn	1.065191	0.127577	-0.105125
Zn18	Zn	1.565191	0.627577	0.394875
O19	O	1.058210	0.261814	0.079878
O20	O	1.558210	0.761814	0.579878
C21	C	0.900363	0.134096	0.000045
C22	C	1.400363	0.634096	0.500045
C23	C	0.800278	0.132149	0.000039
C24	C	1.300278	0.632149	0.500039
C25	C	0.387709	0.039914	0.000067
C26	C	0.887709	0.539914	0.500067
C27	C	0.366493	0.207916	0.000055
C28	C	0.866493	0.707916	0.500055
C29	C	0.460527	0.209747	0.000052
C30	C	0.960527	0.709747	0.500052
C31	C	0.518157	0.126660	0.000055
C32	C	1.018157	0.626660	0.500055
C33	C	0.481752	0.041743	0.000061
C34	C	0.981752	0.541743	0.500061
C35	C	0.496939	0.294663	0.000035
C36	C	0.996939	0.794663	0.500035
C37	C	0.590979	0.296498	0.000031
C38	C	1.090979	0.796498	0.500031
C39	C	0.648610	0.213410	0.000041
C40	C	1.148610	0.713410	0.500041
C41	C	0.612200	0.128489	0.000049
C42	C	1.112200	0.628489	0.500049
C43	C	0.669830	0.045403	0.000052
C44	C	1.169830	0.545403	0.500052
C45	C	0.633422	-0.039520	0.000066
C46	C	1.133422	0.460480	0.500066
C47	C	0.539383	-0.041345	0.000071
C48	C	1.039383	0.458655	0.500071
C49	C	0.742649	0.215235	0.000036
C50	C	1.242649	0.715235	0.500036
C51	C	0.763873	0.047231	0.000046
C52	C	1.263873	0.547231	0.500046
C53	C	1.071488	-0.041026	0.000065
C54	C	1.571488	0.458974	0.500065
C55	C	1.069545	-0.143407	0.000065
C56	C	1.569545	0.356593	0.500065
C57	C	1.062390	-0.518299	0.000040
C58	C	1.562390	-0.018299	0.500040
C59	C	1.064377	-0.413992	0.000047
C60	C	1.564377	0.086008	0.500047
C61	C	1.065967	-0.330856	0.000054
C62	C	1.565967	0.169144	0.500054
C63	C	1.067955	-0.226543	0.000059
C64	C	1.567955	0.273457	0.500059
C65	C	1.229994	0.121053	0.000064
C66	C	1.729994	0.621053	0.500064
C67	C	1.330079	0.123001	0.000064
C68	C	1.830079	0.623001	0.500064
C69	C	1.058869	0.296175	0.000044
C70	C	1.558869	0.796175	0.500044
C71	C	1.060812	0.398556	0.000038
C72	C	1.560812	0.898556	0.500038
N73	N	1.065155	0.127569	0.248803
N74	N	1.565155	0.627569	0.748803
N75	N	1.065209	0.127573	-0.248691
N76	N	1.565209	0.627573	0.251309
C77	C	1.004000	0.190170	0.701064
C78	C	1.504000	0.690170	1.201064
C79	C	1.126407	0.064977	0.701049
C80	C	1.626407	0.564977	1.201049
C81	C	1.126396	0.064974	0.600553
C82	C	1.626396	0.564974	1.100553
C83	C	1.065188	0.127571	0.550308
C84	C	1.565188	0.627571	1.050308
C85	C	1.003989	0.190171	0.600559
C86	C	1.503989	0.690171	1.100559
C87	C	1.187599	0.002381	0.550295
C88	C	1.687599	0.502381	1.050295
C89	C	1.187592	0.002376	0.449793
C90	C	1.687592	0.502376	0.949793
C91	C	1.126378	0.064970	0.399546
C92	C	1.626378	0.564970	0.899546
C93	C	1.065177	0.127571	0.449803
C94	C	1.565177	0.627571	0.949803
C95	C	1.003968	0.190168	0.399558
C96	C	1.503968	0.690168	0.899558
C97	C	0.942762	0.252767	0.449814
C98	C	1.442762	0.752767	0.949814
C99	C	0.942776	0.252764	0.550312
C100	C	1.442776	0.752764	1.050312
C101	C	1.126364	0.064972	0.299047
C102	C	1.626364	0.564972	0.799047
C103	C	1.003957	0.190169	0.299053
C104	C	1.503957	0.690169	0.799053
H105	H	0.358060	-0.029228	0.000082
H106	H	0.858060	0.470772	0.500082
H107	H	1.176201	0.014010	0.258134
H108	H	1.676201	0.514010	0.758134
F109	F	1.252745	-0.064231	0.603769
F110	F	1.752745	0.435769	1.103769
H111	H	0.772288	0.284378	0.000026
H112	H	1.272288	0.784378	0.500026
H113	H	1.176246	0.014016	0.741962
H114	H	1.676246	0.514016	1.241962
H115	H	0.509731	-0.110484	0.000105
H116	H	1.009731	0.389516	0.500105
H117	H	0.810790	-0.020429	0.000052
H118	H	1.310790	0.479571	0.500052
F119	F	0.694766	-0.127943	0.000062
F120	F	1.194766	0.372057	0.500062
F121	F	1.252729	-0.064246	0.396315
F122	F	1.752729	0.435754	0.896315
F123	F	0.877626	0.319390	0.396329
F124	F	1.377626	0.819390	0.896329
F125	F	0.305158	0.296337	0.000040
F126	F	0.805158	0.796337	0.500040
F127	F	0.938860	0.256785	0.754547
F128	F	1.438860	0.756785	1.254547
H129	H	0.954110	0.241140	0.258150
H130	H	1.454110	0.741140	0.758150
F131	F	0.435602	0.383083	0.000018
F132	F	0.935602	0.883083	0.500018
H133	H	0.892944	0.303730	0.591236
H134	H	1.392944	0.803730	1.091236
F135	F	0.629719	0.386878	0.000018
F136	F	1.129719	0.886878	0.500018
