data_functionalizedCrystal
_audit_creation_method	'MofGen! by Chris Wilmer'
_symmetry_space_group_name_H-M	'P1'
_symmetry_Int_Tables_number	1
_symmetry_cell_setting	triclinic
loop_
_symmetry_equiv_pos_as_xyz
  x,y,z
_cell_length_a	14.971482
_cell_length_b	15.995292
_cell_length_c	13.448316
_cell_angle_alpha	89.996588
_cell_angle_beta	89.993798
_cell_angle_gamma	83.540612
loop_
_atom_site_label
_atom_site_type_symbol
_atom_site_fract_x
_atom_site_fract_y
_atom_site_fract_z
O1	O	1.186800	0.109105	-0.082672
O2	O	1.520134	0.442438	0.250662
O3	O	1.853467	0.775771	0.583995
O4	O	0.926382	0.122175	-0.082676
O5	O	1.259715	0.455508	0.250658
O6	O	1.593049	0.788842	0.583991
O7	O	1.063737	-0.006244	-0.082675
O8	O	1.397070	0.327089	0.250658
O9	O	1.730404	0.660423	0.583992
O10	O	1.049445	0.237524	-0.082672
O11	O	1.382779	0.570857	0.250661
O12	O	1.716112	0.904190	0.583994
O13	O	1.063720	-0.006252	0.082709
O14	O	1.397053	0.327081	0.416042
O15	O	1.730386	0.660415	0.749375
O16	O	0.926365	0.122167	0.082708
O17	O	1.259698	0.455500	0.416041
O18	O	1.593031	0.788834	0.749375
O19	O	1.186783	0.109097	0.082712
O20	O	1.520117	0.442430	0.416045
O21	O	1.853450	0.775763	0.749379
Cu22	Cu	1.056572	0.115631	0.097811
Cu23	Cu	1.389906	0.448965	0.431144
Cu24	Cu	1.723239	0.782298	0.764478
Cu25	Cu	1.056593	0.115641	-0.097775
Cu26	Cu	1.389926	0.448974	0.235559
Cu27	Cu	1.723260	0.782307	0.568892
O28	O	1.049428	0.237516	0.082711
O29	O	1.382762	0.570849	0.416045
O30	O	1.716095	0.904182	0.749378
C31	C	0.893049	0.121587	0.000016
C32	C	1.226383	0.454921	0.333349
C33	C	1.559716	0.788254	0.666682
C34	C	0.793755	0.119837	0.000014
C35	C	1.127088	0.453170	0.333347
C36	C	1.460421	0.786504	0.666680
C37	C	0.747102	0.119009	0.090166
C38	C	1.080435	0.452342	0.423499
C39	C	1.413768	0.785675	0.756832
C40	C	0.653805	0.117351	0.090167
C41	C	0.987139	0.450684	0.423500
C42	C	1.320472	0.784018	0.756833
C43	C	0.607163	0.116528	0.000015
C44	C	0.940496	0.449861	0.333348
C45	C	1.273830	0.783194	0.666681
C46	C	0.653823	0.117354	-0.090144
C47	C	0.987156	0.450687	0.243189
C48	C	1.320490	0.784021	0.576523
C49	C	0.747118	0.119006	-0.090144
C50	C	1.080452	0.452339	0.243189
C51	C	1.413785	0.785672	0.576523
C52	C	0.459366	0.113913	-0.090138
C53	C	0.792699	0.447247	0.243196
C54	C	1.126032	0.780580	0.576529
C55	C	0.366064	0.112263	-0.090138
C56	C	0.699397	0.445596	0.243195
C57	C	1.032730	0.778930	0.576529
C58	C	0.366053	0.112259	0.090173
C59	C	0.699386	0.445592	0.423506
C60	C	1.032720	0.778925	0.756840
C61	C	0.459348	0.113910	0.090173
C62	C	0.792682	0.447244	0.423506
C63	C	1.126015	0.780577	0.756840
C64	C	0.506001	0.114738	0.000014
C65	C	0.839335	0.448071	0.333347
C66	C	1.172668	0.781405	0.666681
C67	C	1.063147	-0.037444	0.000014
C68	C	1.396480	0.295889	0.333348
C69	C	1.729813	0.629222	0.666681
C70	C	1.061403	-0.130399	0.000007
C71	C	1.394736	0.202934	0.333340
C72	C	1.728070	0.536268	0.666673
C73	C	1.054992	-0.468144	0.000016
C74	C	1.388325	-0.134810	0.333349
C75	C	1.721659	0.198523	0.666682
C76	C	1.154131	-0.444733	0.000387
C77	C	1.487465	-0.111400	0.333720
C78	C	1.820798	0.221933	0.667053
C79	C	1.156016	-0.348056	0.000010
C80	C	1.489349	-0.014723	0.333344
C81	C	1.822682	0.318611	0.666677
C82	C	1.058173	-0.300585	0.000012
C83	C	1.391507	0.032749	0.333345
C84	C	1.724840	0.366082	0.666679
C85	C	1.008618	-0.329730	-0.094428
C86	C	1.341952	0.003603	0.238905
C87	C	1.675285	0.336937	0.572239
C88	C	1.007425	-0.426522	-0.094504
C89	C	1.340758	-0.093188	0.238830
C90	C	1.674091	0.240145	0.572163
C91	C	1.005381	-0.426390	0.093569
C92	C	1.338714	-0.093057	0.426902
C93	C	1.672047	0.240277	0.760235
C94	C	1.009054	-0.329894	0.094813
C95	C	1.342388	0.003440	0.428147
C96	C	1.675721	0.336773	0.761480
C97	C	1.059966	-0.205887	0.000006
C98	C	1.393299	0.127447	0.333340
C99	C	1.726632	0.460780	0.666673
C100	C	1.053197	-0.562841	0.000015
C101	C	1.386530	-0.229508	0.333348
C102	C	1.719863	0.103825	0.666681
C103	C	1.220116	0.109685	0.000019
C104	C	1.553449	0.443018	0.333352
C105	C	1.886783	0.776351	0.666685
C106	C	1.319411	0.111435	0.000014
C107	C	1.652744	0.444768	0.333347
C108	C	1.986077	0.778101	0.666681
C109	C	1.050018	0.268716	0.000020
C110	C	1.383352	0.602049	0.333353
C111	C	1.716685	0.935383	0.666687
C112	C	1.051762	0.361671	0.000021
C113	C	1.385096	0.695004	0.333354
C114	C	1.718429	1.028337	0.666688
N115	N	1.056565	0.115624	0.235375
N116	N	1.389898	0.448957	0.568709
N117	N	1.723231	0.782291	0.902042
N118	N	1.056608	0.115641	-0.235339
N119	N	1.389941	0.448974	0.097994
N120	N	1.723274	0.782308	0.431328
C121	C	1.117404	0.058784	0.287416
C122	C	1.450738	0.392117	0.620749
C123	C	1.784071	0.725450	0.954083
C124	C	1.117410	0.058783	0.391519
C125	C	1.450743	0.392116	0.724852
C126	C	1.784077	0.725449	1.058186
C127	C	1.056579	0.115627	0.443580
C128	C	1.389913	0.448961	0.776913
C129	C	1.723246	0.782294	1.110246
C130	C	0.995733	0.172471	0.391532
C131	C	1.329067	0.505804	0.724865
C132	C	1.662400	0.839137	1.058199
C133	C	0.995724	0.172467	0.287431
C134	C	1.329057	0.505800	0.620764
C135	C	1.662391	0.839133	0.954097
C136	C	0.995758	0.172476	0.608512
C137	C	1.329091	0.505810	0.941845
C138	C	1.662425	0.839143	1.275179
C139	C	0.995768	0.172482	0.712620
C140	C	1.329101	0.505815	1.045954
C141	C	1.662435	0.839148	1.379287
C142	C	1.117444	0.058792	0.712600
C143	C	1.450777	0.392126	1.045934
C144	C	1.784111	0.725459	1.379267
C145	C	1.117435	0.058788	0.608499
C146	C	1.450768	0.392122	0.941832
C147	C	1.784101	0.725455	1.275166
C148	C	1.056589	0.115633	0.556458
C149	C	1.389923	0.448966	0.889792
C150	C	1.723256	0.782300	1.223125
H151	H	0.328090	0.111594	-0.163547
H152	H	0.661423	0.444927	0.169786
H153	H	0.994756	0.778260	0.503119
H154	H	1.045138	-0.311296	0.164679
H155	H	1.378471	0.022037	0.498013
H156	H	1.711805	0.355371	0.831346
H157	H	0.497348	0.114588	-0.163555
H158	H	0.830681	0.447921	0.169779
H159	H	1.164014	0.781254	0.503112
H160	H	0.615840	0.116678	-0.163547
H161	H	0.949173	0.450011	0.169786
H162	H	1.282507	0.783344	0.503120
H163	H	1.194826	-0.328996	0.067707
H164	H	1.528160	0.004338	0.401040
H165	H	1.861493	0.337671	0.734374
H166	H	1.192139	-0.473710	-0.066959
H167	H	1.525472	-0.140377	0.266374
H168	H	1.858806	0.192956	0.599708
H169	H	0.946233	0.218770	0.755003
H170	H	1.279566	0.552103	1.088336
H171	H	1.612899	0.885436	1.421670
H172	H	0.946199	0.218752	0.433926
H173	H	1.279533	0.552085	0.767259
H174	H	1.612866	0.885419	1.100592
H175	H	0.615827	0.116662	0.163577
H176	H	0.949160	0.449996	0.496911
H177	H	1.282493	0.783329	0.830244
H178	H	0.328063	0.111585	0.163584
H179	H	0.661397	0.444918	0.496917
H180	H	0.994730	0.778252	0.830250
H181	H	0.785102	0.119682	-0.163555
H182	H	1.118435	0.453015	0.169779
H183	H	1.451768	0.786348	0.503112
H184	H	1.192337	-0.472696	0.068114
H185	H	1.525670	-0.139363	0.401447
H186	H	1.859004	0.193971	0.734780
H187	H	0.946181	0.218751	0.245060
H188	H	1.279515	0.552084	0.578393
H189	H	1.612848	0.885418	0.911727
H190	H	1.036594	-0.454451	0.165154
H191	H	1.369927	-0.121118	0.498487
H192	H	1.703261	0.212216	0.831821
H193	H	0.934735	-0.441144	-0.098781
H194	H	1.268069	-0.107810	0.234552
H195	H	1.601402	0.225523	0.567885
H196	H	1.166949	0.012498	0.433890
H197	H	1.500283	0.345832	0.767223
H198	H	1.833616	0.679165	1.100557
H199	H	1.195069	-0.329609	-0.067805
H200	H	1.528403	0.003724	0.265528
H201	H	1.861736	0.337057	0.598862
H202	H	0.785070	0.119686	0.163578
H203	H	1.118404	0.453019	0.496911
H204	H	1.451737	0.786352	0.830244
H205	H	1.166972	0.012506	0.566111
H206	H	1.500305	0.345839	0.899445
H207	H	1.833638	0.679172	1.232778
H208	H	1.041759	-0.453301	-0.165100
H209	H	1.375092	-0.119967	0.168233
H210	H	1.708425	0.213366	0.501566
H211	H	0.936619	-0.297933	-0.097938
H212	H	1.269953	0.035400	0.235395
H213	H	1.603286	0.368733	0.568728
H214	H	0.937639	-0.296995	0.100518
H215	H	1.270972	0.036338	0.433851
H216	H	1.604305	0.369671	0.767185
H217	H	1.043045	-0.309632	-0.164711
H218	H	1.376378	0.023701	0.168623
H219	H	1.709711	0.357035	0.501956
H220	H	1.166986	0.012508	0.754978
H221	H	1.500319	0.345841	1.088311
H222	H	1.833652	0.679174	1.421645
H223	H	0.497321	0.114586	0.163583
H224	H	0.830655	0.447919	0.496916
H225	H	1.163988	0.781252	0.830249
H226	H	0.932407	-0.440453	0.094206
H227	H	1.265740	-0.107119	0.427539
H228	H	1.599073	0.226214	0.760873
H229	H	1.166943	0.012498	0.245035
H230	H	1.500276	0.345831	0.578368
H231	H	1.833610	0.679164	0.911702
H232	H	0.946208	0.218763	0.566144
H233	H	1.279542	0.552096	0.899477
H234	H	1.612875	0.885429	1.232811
