data_functionalizedCrystal
_audit_creation_method	'MofGen! by Chris Wilmer'
_symmetry_space_group_name_H-M	'P1'
_symmetry_Int_Tables_number	1
_symmetry_cell_setting	triclinic
loop_
_symmetry_equiv_pos_as_xyz
  x,y,z
_cell_length_a	19.077236
_cell_length_b	16.625545
_cell_length_c	19.077174
_cell_angle_alpha	92.273408
_cell_angle_beta	85.294282
_cell_angle_gamma	92.318364
loop_
_atom_site_label
_atom_site_type_symbol
_atom_site_fract_x
_atom_site_fract_y
_atom_site_fract_z
Zn1	Zn	1.093734	-0.291123	-0.441975
Zn2	Zn	1.427067	0.042210	-0.108642
Zn3	Zn	1.760401	0.375544	0.224692
Zn4	Zn	1.088917	-0.420758	-0.324088
Zn5	Zn	1.422250	-0.087424	0.009246
Zn6	Zn	1.755584	0.245909	0.342579
Zn7	Zn	0.971115	-0.291135	-0.319358
Zn8	Zn	1.304449	0.042198	0.013975
Zn9	Zn	1.637782	0.375531	0.347309
Zn10	Zn	0.975807	-0.431113	-0.437192
Zn11	Zn	1.309141	-0.097780	-0.103859
Zn12	Zn	1.642474	0.235553	0.229474
O13	O	1.032393	-0.358532	-0.380653
O14	O	1.365727	-0.025199	-0.047320
O15	O	1.699060	0.308134	0.286013
O16	O	1.191748	-0.303980	-0.430318
O17	O	1.525081	0.029353	-0.096985
O18	O	1.858415	0.362686	0.236349
O19	O	1.069311	-0.399234	-0.224810
O20	O	1.402644	-0.065901	0.108523
O21	O	1.735977	0.267432	0.441857
O22	O	0.987433	-0.178300	-0.335646
O23	O	1.320767	0.155033	-0.002313
O24	O	1.654100	0.488367	0.331021
O25	O	1.188209	-0.399222	-0.343707
O26	O	1.521542	-0.065889	-0.010373
O27	O	1.854876	0.267444	0.322960
O28	O	1.077521	-0.178291	-0.425732
O29	O	1.410854	0.155042	-0.092399
O30	O	1.744187	0.488376	0.240935
O31	O	0.982762	-0.304001	-0.221335
O32	O	1.316096	0.029332	0.111998
O33	O	1.649429	0.362665	0.445331
O34	O	0.873085	-0.314043	-0.331008
O35	O	1.206418	0.019290	0.002325
O36	O	1.539751	0.352624	0.335659
O37	O	0.995430	-0.416872	-0.536477
O38	O	1.328763	-0.083539	-0.203144
O39	O	1.662097	0.249795	0.130190
O40	O	0.876532	-0.416884	-0.417580
O41	O	1.209865	-0.083551	-0.084247
O42	O	1.543198	0.249783	0.249086
O43	O	1.082070	-0.314022	-0.539991
O44	O	1.415404	0.019311	-0.206658
O45	O	1.748737	0.352645	0.126676
O46	O	1.073860	-0.534965	-0.339069
O47	O	1.407194	-0.201632	-0.005736
O48	O	1.740527	0.131701	0.327598
O49	O	0.990759	-0.542573	-0.422166
O50	O	1.324092	-0.209240	-0.088833
O51	O	1.657426	0.124093	0.244500
C52	C	0.849229	-0.366589	-0.373262
C53	C	1.182562	-0.033256	-0.039929
C54	C	1.515895	0.300078	0.293404
C55	C	0.770871	-0.370056	-0.370117
C56	C	1.104204	-0.036723	-0.036784
C57	C	1.437537	0.296611	0.296550
C58	C	0.735904	-0.322182	-0.413802
C59	C	1.069237	0.011151	-0.080469
C60	C	1.402570	0.344484	0.252864
C61	C	0.662278	-0.325436	-0.410841
C62	C	0.995611	0.007898	-0.077508
C63	C	1.328944	0.341231	0.255826
C64	C	0.623620	-0.376567	-0.364198
C65	C	0.956953	-0.043234	-0.030864
C66	C	1.290287	0.290099	0.302469
C67	C	0.658592	-0.424443	-0.320508
C68	C	0.991925	-0.091110	0.012826
C69	C	1.325258	0.242224	0.346159
C70	C	0.732216	-0.421185	-0.323466
C71	C	1.065550	-0.087852	0.009867
C72	C	1.398883	0.245482	0.343201
C73	C	0.403228	-0.391616	-0.350504
C74	C	0.736562	-0.058283	-0.017171
C75	C	1.069895	0.275051	0.316163
C76	C	0.329599	-0.394872	-0.347550
C77	C	0.662932	-0.061539	-0.014217
C78	C	0.996265	0.271794	0.319116
C79	C	0.333290	-0.295863	-0.437883
C80	C	0.666623	0.037470	-0.104550
C81	C	0.999957	0.370803	0.228783
C82	C	0.406916	-0.292613	-0.440840
C83	C	0.740249	0.040720	-0.107507
C84	C	1.073582	0.374053	0.225826
C85	C	0.441881	-0.340486	-0.397148
C86	C	0.775214	-0.007152	-0.063815
C87	C	1.108548	0.326181	0.269519
N88	N	0.548363	-0.379896	-0.361171
N89	N	0.881696	-0.046563	-0.027838
N90	N	1.215029	0.286771	0.305496
N91	N	0.517137	-0.337152	-0.400171
N92	N	0.850470	-0.003819	-0.066838
N93	N	1.183804	0.329514	0.266495
C94	C	1.032316	-0.568026	-0.380628
C95	C	1.365649	-0.234692	-0.047295
C96	C	1.698983	0.098641	0.286039
C97	C	1.032348	-0.657646	-0.380643
C98	C	1.365681	-0.324313	-0.047310
C99	C	1.699015	0.009021	0.286023
C100	C	1.032376	-0.730428	-0.380658
C101	C	1.365709	-0.397095	-0.047325
C102	C	1.699043	-0.063761	0.286008
C103	C	1.032418	-0.821735	-0.380676
C104	C	1.365751	-0.488402	-0.047342
C105	C	1.699084	-0.155068	0.285991
C106	C	1.032455	-0.894510	-0.380686
C107	C	1.365788	-0.561177	-0.047353
C108	C	1.699121	-0.227844	0.285981
C109	C	1.032496	-0.985823	-0.380702
C110	C	1.365829	-0.652490	-0.047369
C111	C	1.699162	-0.319157	0.285964
C112	C	1.216273	-0.350445	-0.388074
C113	C	1.549607	-0.017112	-0.054740
C114	C	1.882940	0.316222	0.278593
C115	C	1.294632	-0.346998	-0.391236
C116	C	1.627965	-0.013665	-0.057902
C117	C	1.961299	0.319668	0.275431
C118	C	1.039811	-0.366601	-0.564528
C119	C	1.373144	-0.033267	-0.231195
C120	C	1.706477	0.300066	0.102139
C121	C	1.042972	-0.370039	-0.642884
C122	C	1.376305	-0.036706	-0.309551
C123	C	1.709638	0.296628	0.023782
C124	C	1.032491	-0.148221	-0.380695
C125	C	1.365824	0.185112	-0.047362
C126	C	1.699158	0.518446	0.285972
C127	C	1.032533	-0.058599	-0.380713
C128	C	1.365866	0.274735	-0.047379
C129	C	1.699199	0.608068	0.285954
C130	C	0.999398	-0.322073	-0.677887
C131	C	1.332731	0.011261	-0.344554
C132	C	1.666064	0.344594	-0.011220
C133	C	1.002365	-0.325310	-0.751511
C134	C	1.335698	0.008023	-0.418178
C135	C	1.669032	0.341357	-0.084844
C136	C	1.048910	-0.376510	-0.790132
C137	C	1.382244	-0.043177	-0.456798
C138	C	1.715577	0.290156	-0.123465
C139	C	1.092486	-0.424482	-0.755124
C140	C	1.425820	-0.091149	-0.421791
C141	C	1.759153	0.242185	-0.088457
C142	C	1.089515	-0.421248	-0.681501
C143	C	1.422848	-0.087915	-0.348168
C144	C	1.756182	0.245418	-0.014834
C145	C	1.062625	-0.391502	-1.010515
C146	C	1.395959	-0.058169	-0.677181
C147	C	1.729292	0.275164	-0.343848
C148	C	1.065595	-0.394731	-1.084143
C149	C	1.398928	-0.061397	-0.750809
C150	C	1.732262	0.271936	-0.417476
C151	C	0.975472	-0.295559	-1.080524
C152	C	1.308806	0.037774	-0.747191
C153	C	1.642139	0.371107	-0.413858
C154	C	0.972508	-0.292326	-1.006900
C155	C	1.305842	0.041007	-0.673567
C156	C	1.639175	0.374340	-0.340234
C157	C	1.016081	-0.340301	-0.971899
C158	C	1.349415	-0.006968	-0.638566
C159	C	1.682748	0.326365	-0.305233
N160	N	1.051946	-0.379819	-0.865387
N161	N	1.385279	-0.046485	-0.532054
N162	N	1.718613	0.286848	-0.198721
N163	N	1.013042	-0.336997	-0.896645
N164	N	1.346375	-0.003663	-0.563311
N165	N	1.679708	0.329670	-0.229978
C166	C	1.025045	-0.350435	-0.197496
C167	C	1.358379	-0.017102	0.135838
C168	C	1.691712	0.316231	0.469171
C169	C	1.022021	-0.346764	-0.119145
C170	C	1.355354	-0.013431	0.214188
C171	C	1.688688	0.319903	0.547522
H172	H	0.304813	-0.256887	-0.473454
H173	H	0.638147	0.076446	-0.140121
H174	H	0.971480	0.409780	0.193213
C175	C	1.110597	-0.444230	-0.972024
C176	C	1.443930	-0.110896	-0.638691
C177	C	1.777264	0.222437	-0.305358
N178	N	1.146746	-0.483930	-0.943032
N179	N	1.480079	-0.150597	-0.609699
N180	N	1.813412	0.182736	-0.276365
C181	C	0.770679	-0.473852	-0.275410
C182	C	1.104013	-0.140518	0.057923
C183	C	1.437346	0.192815	0.391256
N184	N	0.799648	-0.513521	-0.239212
N185	N	1.132982	-0.180187	0.094121
N186	N	1.466315	0.153146	0.427455
C187	C	0.778421	-0.265932	-0.465114
C188	C	1.111754	0.067401	-0.131780
C189	C	1.445087	0.400735	0.201553
N190	N	0.810442	-0.223559	-0.503760
N191	N	1.143776	0.109774	-0.170427
N192	N	1.477109	0.443107	0.162906
H193	H	0.627111	-0.466072	-0.282526
H194	H	0.960444	-0.132738	0.050807
H195	H	1.293777	0.200595	0.384140
C196	C	0.623818	-0.272773	-0.458901
C197	C	0.957151	0.060561	-0.125567
C198	C	1.290485	0.393894	0.207766
N199	N	0.594851	-0.233105	-0.495102
N200	N	0.928184	0.100228	-0.161768
N201	N	1.261517	0.433562	0.171565
H202	H	0.298125	-0.436514	-0.309567
H203	H	0.631459	-0.103181	0.023766
H204	H	0.964792	0.230153	0.357099
C205	C	0.954437	-0.272534	-0.790010
C206	C	1.287770	0.060799	-0.456677
C207	C	1.621104	0.394133	-0.123344
N208	N	0.918337	-0.232778	-0.819008
N209	N	1.251671	0.100555	-0.485674
N210	N	1.585004	0.433888	-0.152341
C211	C	0.921303	-0.236004	-0.964423
C212	C	1.254636	0.097329	-0.631090
C213	C	1.587970	0.430663	-0.297756
N214	N	0.882736	-0.193580	-0.932429
N215	N	1.216069	0.139754	-0.599096
N216	N	1.549402	0.473087	-0.265762
H217	H	0.961499	-0.280375	-0.646447
H218	H	1.294833	0.052958	-0.313114
H219	H	1.628166	0.386292	0.020219
C220	C	1.143527	-0.480992	-0.797603
C221	C	1.476860	-0.147659	-0.464269
C222	C	1.810193	0.185674	-0.130936
N223	N	1.181916	-0.523623	-0.829594
N224	N	1.515249	-0.190290	-0.496261
N225	N	1.848582	0.143043	-0.162928
C226	C	1.137453	-0.474012	-0.642999
C227	C	1.470786	-0.140678	-0.309666
C228	C	1.804120	0.192655	0.023668
N229	N	1.173561	-0.513755	-0.614000
N230	N	1.506895	-0.180422	-0.280667
N231	N	1.840228	0.152911	0.052666
C232	C	0.927541	-0.242796	-1.119032
C233	C	1.260874	0.090538	-0.785698
C234	C	1.594207	0.423871	-0.452365
N235	N	0.891434	-0.203055	-1.148035
N236	N	1.224768	0.130279	-0.814702
N237	N	1.558101	0.463612	-0.481369
H238	H	0.431688	-0.430598	-0.314927
H239	H	0.765021	-0.097265	0.018406
H240	H	1.098355	0.236069	0.351740
H241	H	0.438386	-0.250979	-0.478825
H242	H	0.771720	0.082354	-0.145492
H243	H	1.105053	0.415687	0.187842
C244	C	1.116798	-0.451060	-1.126624
C245	C	1.450132	-0.117727	-0.793290
C246	C	1.783465	0.215606	-0.459957
N247	N	1.155363	-0.493486	-1.158621
N248	N	1.488696	-0.160152	-0.825287
N249	N	1.822029	0.173181	-0.491954
