data_functionalizedCrystal
_audit_creation_method	'MofGen! by Chris Wilmer'
_symmetry_space_group_name_H-M	'P1'
_symmetry_Int_Tables_number	1
_symmetry_cell_setting	triclinic
loop_
_symmetry_equiv_pos_as_xyz
  x,y,z
_cell_length_a	19.805407
_cell_length_b	19.077391
_cell_length_c	19.805407
_cell_angle_alpha	87.689496
_cell_angle_beta	90.010162
_cell_angle_gamma	92.268720
loop_
_atom_site_label
_atom_site_type_symbol
_atom_site_fract_x
_atom_site_fract_y
_atom_site_fract_z
Zn1	Zn	1.045450	0.280335	0.371973
Zn2	Zn	1.545450	0.780335	0.871973
Zn3	Zn	1.049929	0.397998	0.254240
Zn4	Zn	1.549929	0.897998	0.754240
Zn5	Zn	0.932292	0.280320	0.258789
Zn6	Zn	1.432292	0.780320	0.758789
Zn7	Zn	0.936765	0.397992	0.367378
Zn8	Zn	1.436765	0.897992	0.867378
O9	O	0.991109	0.339161	0.313095
O10	O	1.491109	0.839161	0.813095
O11	O	1.140761	0.295952	0.356375
O12	O	1.640761	0.795952	0.856375
O13	O	1.034327	0.382384	0.160127
O14	O	1.534327	0.882384	0.660127
O15	O	0.943556	0.181834	0.277631
O16	O	1.443556	0.681834	0.777631
O17	O	1.144052	0.382398	0.269877
O18	O	1.644052	0.882398	0.769877
O19	O	1.026693	0.181845	0.360787
O20	O	1.526693	0.681845	0.860787
O21	O	0.947900	0.295927	0.163470
O22	O	1.447900	0.795927	0.663470
O23	O	0.838168	0.295921	0.273175
O24	O	1.338168	0.795921	0.773175
O25	O	0.951179	0.382388	0.462704
O26	O	1.451179	0.882388	0.962704
O27	O	0.841454	0.382373	0.352954
O28	O	1.341454	0.882373	0.852954
O29	O	1.031030	0.295946	0.466080
O30	O	1.531030	0.795946	0.966080
O31	O	1.038664	0.496485	0.265420
O32	O	1.538664	0.996485	0.765420
O33	O	0.955522	0.496481	0.348542
O34	O	1.455522	0.996481	0.848542
C35	C	0.815252	0.339145	0.313060
C36	C	1.315252	0.839145	0.813060
C37	C	0.740021	0.339155	0.313060
C38	C	1.240021	0.839155	0.813060
C39	C	0.279962	0.384262	0.354608
C40	C	0.779962	0.884262	0.854608
C41	C	0.350650	0.384261	0.354594
C42	C	0.850650	0.884261	0.854594
C43	C	0.384260	0.339178	0.313121
C44	C	0.884260	0.839178	0.813121
C45	C	0.347177	0.294099	0.271654
C46	C	0.847177	0.794099	0.771654
C47	C	0.276491	0.294104	0.271666
C48	C	0.776491	0.794104	0.771666
C49	C	0.632250	0.294077	0.271608
C50	C	1.132250	0.794077	0.771608
C51	C	0.702942	0.294074	0.271601
C52	C	1.202942	0.794074	0.771601
C53	C	0.706410	0.384234	0.354536
C54	C	1.206410	0.884234	0.854536
C55	C	0.635723	0.384239	0.354547
C56	C	1.135723	0.884239	0.854547
C57	C	0.598647	0.339163	0.313078
C58	C	1.098647	0.839163	0.813078
C59	C	0.521998	0.339166	0.313093
C60	C	1.021998	0.839166	0.813093
C61	C	0.460907	0.339171	0.313109
C62	C	0.960907	0.839171	0.813109
C63	C	0.998083	0.522020	0.306004
C64	C	1.498083	1.022020	0.806004
C65	C	1.001128	0.600248	0.302992
C66	C	1.501128	1.100248	0.802992
C67	C	0.959242	0.637023	0.344819
C68	C	1.459242	1.137023	0.844819
C69	C	0.962107	0.710526	0.341987
C70	C	1.462107	1.210526	0.841987
C71	C	1.006861	0.747253	0.297331
C72	C	1.506861	1.247253	0.797331
C73	C	1.048749	0.710473	0.255500
C74	C	1.548749	1.210473	0.755500
C75	C	1.045881	0.636971	0.258329
C76	C	1.545881	1.136971	0.758329
C77	C	1.020082	0.967078	0.284230
C78	C	1.520082	1.467078	0.784230
C79	C	1.022948	1.040585	0.281406
C80	C	1.522948	1.540585	0.781406
C81	C	0.936304	1.040633	0.367892
C82	C	1.436304	1.540633	0.867892
C83	C	0.933443	0.967130	0.370720
C84	C	1.433443	1.467130	0.870720
C85	C	0.975328	0.930356	0.328887
C86	C	1.475328	1.430356	0.828887
N87	N	1.009792	0.822386	0.294437
N88	N	1.509792	1.322386	0.794437
N89	N	0.972394	0.855225	0.331778
N90	N	1.472394	1.355225	0.831778
C91	C	1.167652	0.339178	0.313131
C92	C	1.667652	0.839178	0.813131
C93	C	1.242885	0.339185	0.313146
C94	C	1.742885	0.839185	0.813146
C95	C	0.991104	0.339168	0.489637
C96	C	1.491104	0.839168	0.989637
C97	C	0.991102	0.339171	0.564869
C98	C	1.491102	0.839171	1.064869
C99	C	0.984104	1.155588	0.320220
C100	C	1.484104	1.655588	0.820220
C101	C	0.981062	1.077360	0.323233
C102	C	1.481062	1.577360	0.823233
C103	C	1.032678	0.294156	1.028420
C104	C	1.532678	0.794156	1.528420
C105	C	1.032680	0.294159	0.957731
C106	C	1.532680	0.794159	1.457731
C107	C	0.991107	0.339165	0.920631
C108	C	1.491107	0.839165	1.420631
C109	C	0.949533	0.384176	0.954223
C110	C	1.449533	0.884176	1.454223
C111	C	0.949535	0.384176	1.024910
C112	C	1.449535	0.884176	1.524910
C113	C	0.949526	0.384179	0.669150
C114	C	1.449526	0.884179	1.169150
C115	C	0.949526	0.384174	0.598458
C116	C	1.449526	0.884174	1.098458
C117	C	1.032671	0.294162	0.601971
C118	C	1.532671	0.794162	1.101971
C119	C	1.032673	0.294161	0.672658
C120	C	1.532673	0.794161	1.172658
C121	C	0.991102	0.339175	0.706244
C122	C	1.491102	0.839175	1.206244
C123	C	0.991101	0.339172	0.782892
C124	C	1.491101	0.839172	1.282892
C125	C	0.991104	0.339165	0.843984
C126	C	1.491104	0.839165	1.343984
C127	C	0.991108	0.339169	1.137239
C128	C	1.491108	0.839169	1.637239
C129	C	0.991106	0.339162	1.062007
C130	C	1.491106	0.839162	1.562007
H131	H	0.730305	0.257360	0.237827
H132	H	1.230305	0.757360	0.737827
O133	O	0.247424	0.428118	0.394919
O134	O	0.747424	0.928118	0.894919
C135	C	0.258331	0.517512	0.477215
C136	C	0.758331	1.017512	0.977215
C137	C	0.295264	0.467891	0.431584
C138	C	0.795264	0.967891	0.931584
H139	H	0.296993	0.549671	0.506882
H140	H	0.796993	1.049671	1.006882
H141	H	0.226648	0.554313	0.444698
H142	H	0.726648	1.054313	0.944698
H143	H	0.224001	0.485245	0.513884
H144	H	0.724001	0.985245	1.013884
H145	H	0.329628	0.500102	0.394907
H146	H	0.829628	1.000102	0.894907
H147	H	0.326904	0.431088	0.464144
H148	H	0.826904	0.931088	0.964144
H149	H	0.927992	0.740465	0.376041
H150	H	1.427992	1.240465	0.876041
O151	O	1.066493	1.076213	0.238056
O152	O	1.566493	1.576213	0.738056
C153	C	1.182507	1.098727	0.204440
C154	C	1.682507	1.598727	0.704440
C155	C	1.133283	1.058306	0.253564
C156	C	1.633283	1.558306	0.753564
H157	H	1.236518	1.084275	0.216970
H158	H	1.736518	1.584275	0.716970
H159	H	1.170146	1.084310	0.150393
H160	H	1.670146	1.584310	0.650393
H161	H	1.177294	1.157566	0.209620
H162	H	1.677294	1.657566	0.709620
H163	H	1.138469	0.999457	0.248445
H164	H	1.638469	1.499457	0.748445
H165	H	1.145658	1.072781	0.307591
H166	H	1.645658	1.572781	0.807591
O167	O	0.379743	0.250210	0.231400
O168	O	0.879743	0.750210	0.731400
C169	C	0.396811	0.130437	0.203389
C170	C	0.896811	0.630437	0.703389
C171	C	0.359878	0.180063	0.249014
C172	C	0.859878	0.680063	0.749014
H173	H	0.380775	0.073712	0.217623
H174	H	0.880775	0.573712	0.717623
H175	H	0.383345	0.142655	0.148312
H176	H	0.883345	0.642655	0.648312
H177	H	0.453701	0.138208	0.210487
H178	H	0.953701	0.638208	0.710487
H179	H	0.302980	0.172319	0.241974
H180	H	0.802980	0.672319	0.741974
H181	H	0.373400	0.167833	0.304074
H182	H	0.873400	0.667833	0.804074
O183	O	0.603002	0.428067	0.394738
O184	O	1.103002	0.928067	0.894738
C185	C	0.526858	0.523137	0.400013
C186	C	1.026858	1.023137	0.900013
C187	C	0.563860	0.473532	0.354422
C188	C	1.063860	0.973532	0.854422
H189	H	0.495214	0.559918	0.367435
H190	H	0.995214	1.059918	0.867435
H191	H	0.492499	0.490924	0.436699
H192	H	0.992499	0.990924	0.936699
H193	H	0.565513	0.555324	0.429661
H194	H	1.065513	1.055324	0.929661
H195	H	0.525253	0.441334	0.324730
H196	H	1.025253	0.941334	0.824730
H197	H	0.598230	0.505785	0.317779
H198	H	1.098230	1.005785	0.817779
O199	O	0.889899	0.931564	0.414108
O200	O	1.389899	1.431564	0.914108
C201	C	0.804275	0.939371	0.499604
C202	C	1.304275	1.439371	0.999604
C203	C	0.853548	0.979736	0.450489
C204	C	1.353548	1.479736	0.950489
H205	H	0.774882	0.978300	0.529042
H206	H	1.274882	1.478300	1.029042
H207	H	0.767528	0.905029	0.469837
H208	H	1.267528	1.405029	0.969837
H209	H	0.833978	0.904892	0.536327
H210	H	1.333978	1.404892	1.036327
H211	H	0.823901	1.014253	0.413755
H212	H	1.323901	1.514253	0.913755
H213	H	0.890295	1.014034	0.480299
H214	H	1.390295	1.514034	0.980299
O215	O	1.073038	0.250503	0.569237
O216	O	1.573038	0.750503	1.069237
C217	C	1.109856	0.210570	0.461899
C218	C	1.609856	0.710570	0.961899
C219	C	1.064126	0.260062	0.498881
C220	C	1.564126	0.760062	0.998881
H221	H	1.102656	0.218270	0.405010
H222	H	1.602656	0.718270	0.905010
H223	H	1.164920	0.222929	0.475277
H224	H	1.664920	0.722929	0.975277
H225	H	1.095812	0.153828	0.478041
H226	H	1.595812	0.653828	0.978041
H227	H	1.078109	0.316820	0.482759
H228	H	1.578109	0.816820	0.982759
H229	H	1.009074	0.247642	0.485502
H230	H	1.509074	0.747642	0.985502
H231	H	1.066534	0.257512	0.930388
H232	H	1.566534	0.757512	1.430388
H233	H	1.054188	0.937143	0.250169
H234	H	1.554188	1.437143	0.750169
O235	O	1.092288	0.746185	0.212211
O236	O	1.592288	1.246185	0.712211
C237	C	1.186874	0.829132	0.199988
C238	C	1.686874	1.329132	0.699988
C239	C	1.137623	0.788720	0.249091
C240	C	1.637623	1.288720	0.749091
H241	H	1.223531	0.863542	0.229784
H242	H	1.723531	1.363542	0.729784
H243	H	1.216369	0.790258	0.170581
H244	H	1.716369	1.290258	0.670581
H245	H	1.157145	0.863552	0.163234
H246	H	1.657145	1.363552	0.663234
H247	H	1.167300	0.754299	0.285885
H248	H	1.667300	1.254299	0.785885
H249	H	1.108127	0.827632	0.278448
H250	H	1.608127	1.327632	0.778448
O251	O	0.596147	0.250288	0.231407
O252	O	1.096147	0.750288	0.731407
C253	C	0.512685	0.155284	0.226085
C254	C	1.012685	0.655284	0.726085
C255	C	0.553531	0.204824	0.271703
C256	C	1.053531	0.704824	0.771703
H257	H	0.478230	0.118505	0.258646
H258	H	0.978230	0.618505	0.758646
H259	H	0.480785	0.187548	0.189428
H260	H	0.980785	0.687548	0.689428
H261	H	0.548844	0.123092	0.196405
H262	H	1.048844	0.623092	0.696405
H263	H	0.517421	0.237027	0.301426
H264	H	1.017421	0.737027	0.801426
H265	H	0.585439	0.172520	0.308317
H266	H	1.085439	0.672520	0.808317
H267	H	0.915667	0.420823	0.568253
H268	H	1.415667	0.920823	1.068253
O269	O	0.742531	0.428005	0.394753
O270	O	1.242531	0.928005	0.894753
C271	C	0.852963	0.467931	0.431527
C272	C	1.352963	0.967931	0.931527
C273	C	0.812142	0.418341	0.385937
C274	C	1.312142	0.918341	0.885937
H275	H	0.909251	0.460125	0.424426
H276	H	1.409251	0.960125	0.924426
H277	H	0.841275	0.524679	0.417356
H278	H	1.341275	1.024679	0.917356
H279	H	0.838573	0.455666	0.486593
H280	H	1.338573	0.955666	0.986593
H281	H	0.826509	0.430543	0.330857
H282	H	1.326509	0.930543	0.830857
H283	H	0.823834	0.361609	0.400166
H284	H	1.323834	0.861609	0.900166
O285	O	0.240548	0.250349	0.231295
O286	O	0.740548	0.750349	0.731295
C287	C	0.217543	0.216030	0.117545
C288	C	0.717543	0.716030	0.617545
C289	C	0.258301	0.265614	0.163193
C290	C	0.758301	0.765614	0.663193
H291	H	0.231871	0.228364	0.062475
H292	H	0.731871	0.728364	0.562475
H293	H	0.229290	0.159286	0.131661
H294	H	0.729290	0.659286	0.631661
H295	H	0.161251	0.223766	0.124709
H296	H	0.661251	0.723766	0.624709
H297	H	0.314604	0.257940	0.156052
H298	H	0.814604	0.757940	0.656052
H299	H	0.246497	0.322340	0.149066
H300	H	0.746497	0.822340	0.649066
O301	O	0.915710	0.601458	0.388219
O302	O	1.415710	1.101458	0.888219
C303	C	0.830106	0.609272	0.473734
C304	C	1.330106	1.109272	0.973734
C305	C	0.879365	0.649633	0.424603
C306	C	1.379365	1.149633	0.924603
H307	H	0.800718	0.648204	0.503174
H308	H	1.300718	1.148204	1.003174
H309	H	0.793354	0.574923	0.443981
H310	H	1.293354	1.074923	0.943981
H311	H	0.859820	0.574800	0.510455
H312	H	1.359820	1.074800	1.010455
H313	H	0.849707	0.684143	0.387871
H314	H	1.349707	1.184143	0.887871
H315	H	0.916118	0.683938	0.454399
H316	H	1.416118	1.183938	0.954399
O317	O	0.895641	1.076464	0.408455
O318	O	1.395641	1.576464	0.908455
C319	C	0.861683	1.189719	0.442456
C320	C	1.361683	1.689719	0.942456
C321	C	0.907765	1.149229	0.396470
C322	C	1.407765	1.649229	0.896470
H323	H	0.871479	1.248556	0.432793
H324	H	1.371479	1.748556	0.932793
H325	H	0.806542	1.175376	0.431063
H326	H	1.306542	1.675376	0.931063
H327	H	0.872948	1.175193	0.497597
H328	H	1.372948	1.675193	0.997597
H329	H	0.896561	1.163734	0.341314
H330	H	1.396561	1.663734	0.841314
H331	H	0.962892	1.163576	0.407921
H332	H	1.462892	1.663576	0.907921
O333	O	1.086637	0.601355	0.217672
O334	O	1.586637	1.101355	0.717672
C335	C	1.172844	0.609060	0.131558
C336	C	1.672844	1.109060	0.631558
C337	C	1.126740	0.649482	0.177580
C338	C	1.626740	1.149482	0.677580
H339	H	1.205270	0.647953	0.099121
H340	H	1.705270	1.147953	0.599121
H341	H	1.206912	0.574619	0.163958
H342	H	1.706912	1.074619	0.663958
H343	H	1.140441	0.574675	0.097489
H344	H	1.640441	1.074675	0.597489
H345	H	1.159090	0.683905	0.211657
H346	H	1.659090	1.183905	0.711657
H347	H	1.092669	0.683878	0.145140
H348	H	1.592669	1.183878	0.645140
H349	H	0.380836	0.420969	0.388355
H350	H	0.880836	0.920969	0.888355
H351	H	1.066528	0.257502	1.058622
H352	H	1.566528	0.757502	1.558622
H353	H	1.066524	0.257510	0.702861
H354	H	1.566524	0.757510	1.202861
H355	H	0.915676	0.420830	0.696487
H356	H	1.415676	0.920830	1.196487
O357	O	0.909167	0.427830	0.918084
O358	O	1.409167	0.927830	1.418084
C359	C	0.872340	0.467752	0.807632
C360	C	1.372340	0.967752	1.307632
C361	C	0.918078	0.418268	0.848474
C362	C	1.418078	0.918268	1.348474
H363	H	0.879539	0.460049	0.751344
H364	H	1.379539	0.960049	1.251344
H365	H	0.817278	0.455387	0.821953
H366	H	1.317278	0.955387	1.321953
H367	H	0.886378	0.524496	0.819368
H368	H	1.386378	1.024496	1.319368
H369	H	0.904101	0.361507	0.836759
H370	H	1.404101	0.861507	1.336759
H371	H	0.973129	0.430693	0.834147
H372	H	1.473129	0.930693	1.334147
H373	H	0.915683	0.420825	1.052256
H374	H	1.415683	0.920825	1.552256
