data_functionalizedCrystal
_audit_creation_method	'MofGen! by Chris Wilmer'
_symmetry_space_group_name_H-M	'P1'
_symmetry_Int_Tables_number	1
_symmetry_cell_setting	triclinic
loop_
_symmetry_equiv_pos_as_xyz
  x,y,z
_cell_length_a	14.519709
_cell_length_b	10.654541
_cell_length_c	9.730217
_cell_angle_alpha	89.999932
_cell_angle_beta	89.997059
_cell_angle_gamma	95.917964
loop_
_atom_site_label
_atom_site_type_symbol
_atom_site_fract_x
_atom_site_fract_y
_atom_site_fract_z
O1	O	-0.129520	1.666593	-0.114227
O2	O	-0.141863	1.300995	-0.114237
O3	O	-0.001504	1.493488	-0.114244
O4	O	-0.269880	1.474101	-0.114220
O5	O	-0.001502	1.493482	0.114336
O6	O	-0.141862	1.300990	0.114343
O7	O	-0.129519	1.666587	0.114353
Zn8	Zn	-0.135690	1.483787	0.150640
Zn9	Zn	-0.135692	1.483795	-0.150524
O10	O	-0.269879	1.474095	0.114360
C11	C	-0.140957	1.254203	0.000051
C12	C	-0.138247	1.114786	0.000047
C13	C	-0.306085	1.085201	0.000045
C14	C	-0.388727	1.004912	0.000038
C15	C	-0.386175	0.873919	0.000037
C16	C	-0.300972	0.823213	0.000046
C17	C	-0.218330	0.903502	0.000052
C18	C	-0.220891	1.034496	0.000050
C19	C	-0.050493	0.933086	0.000064
C20	C	-0.053043	1.064080	0.000056
C21	C	0.034710	0.882380	0.000073
C22	C	0.117354	0.962669	0.000070
C23	C	0.114798	1.093670	0.000070
C24	C	0.029599	1.144369	0.000062
C25	C	-0.304244	1.475002	0.000073
C26	C	-0.406639	1.477709	0.000083
C27	C	-0.781587	1.487676	0.000028
C28	C	-0.677264	1.484908	0.000044
C29	C	-0.594116	1.482693	0.000057
C30	C	-0.489787	1.479924	0.000070
C31	C	0.032862	1.492581	0.000040
C32	C	0.135257	1.489874	0.000021
C33	C	-0.130425	1.713380	0.000062
C34	C	-0.133135	1.852797	0.000057
N35	N	-0.135689	1.483791	0.356177
N36	N	-0.135686	1.483801	-0.356061
C37	C	-0.011436	1.654312	0.356161
C38	C	0.050687	1.739581	0.428093
C39	C	0.050688	1.739594	0.571973
C40	C	-0.011440	1.654326	0.643924
C41	C	-0.073564	1.569057	0.571992
C42	C	-0.073559	1.569056	0.428109
C43	C	-0.197810	1.398532	0.572007
C44	C	-0.197816	1.398523	0.428128
C45	C	-0.259938	1.313264	0.643959
C46	C	-0.322067	1.227999	0.572027
C47	C	-0.322066	1.227991	0.428138
C48	C	-0.259940	1.313254	0.356196
H49	H	-0.298901	0.716550	0.000061
Br50	Br	0.038176	0.704602	0.000083
H51	H	0.186720	0.921373	0.000076
Br52	Br	0.135006	1.855307	0.669599
H53	H	-0.308172	1.191861	0.000016
H54	H	-0.372650	1.158550	0.369578
H55	H	-0.011428	1.654332	0.761078
Br56	Br	0.026124	1.322145	0.000050
Br57	Br	-0.498332	0.764949	0.000047
H58	H	-0.011438	1.654321	0.239006
Br59	Br	0.135006	1.855291	0.330445
H60	H	-0.259931	1.313273	0.761113
Br61	Br	-0.259938	1.313259	0.160929
Br62	Br	-0.504355	1.073732	0.000030
Br63	Br	0.226963	1.202624	0.000095
Br64	Br	-0.406366	1.112280	0.669677
