data_functionalizedCrystal
_audit_creation_method	'MofGen! by Chris Wilmer'
_symmetry_space_group_name_H-M	'P1'
_symmetry_Int_Tables_number	1
_symmetry_cell_setting	triclinic
loop_
_symmetry_equiv_pos_as_xyz
  x,y,z
_cell_length_a	25.639242
_cell_length_b	25.639239
_cell_length_c	25.639243
_cell_angle_alpha	90.014050
_cell_angle_beta	90.011922
_cell_angle_gamma	90.030990
loop_
_atom_site_label
_atom_site_type_symbol
_atom_site_fract_x
_atom_site_fract_y
_atom_site_fract_z
Zn1	Zn	0.799212	-0.208346	0.295633
Zn2	Zn	1.049212	0.041654	0.545633
Zn3	Zn	1.299212	0.291654	0.795633
Zn4	Zn	1.549212	0.541654	1.045633
Zn5	Zn	0.799140	-0.295758	0.208197
Zn6	Zn	1.049140	-0.045758	0.458197
Zn7	Zn	1.299140	0.204242	0.708197
Zn8	Zn	1.549140	0.454242	0.958197
Zn9	Zn	0.711792	-0.208326	0.208209
Zn10	Zn	0.961792	0.041674	0.458209
Zn11	Zn	1.211792	0.291674	0.708209
Zn12	Zn	1.461792	0.541674	0.958209
Zn13	Zn	0.711734	-0.295740	0.295599
Zn14	Zn	0.961734	-0.045740	0.545599
Zn15	Zn	1.211734	0.204260	0.795599
Zn16	Zn	1.461734	0.454260	1.045599
O17	O	0.755470	-0.252043	0.251910
O18	O	1.005470	-0.002043	0.501910
O19	O	1.255470	0.247957	0.751910
O20	O	1.505470	0.497957	1.001910
O21	O	0.872368	-0.219957	0.284044
O22	O	1.122368	0.030043	0.534044
O23	O	1.372368	0.280043	0.784044
O24	O	1.622368	0.530043	1.034044
O25	O	0.787547	-0.284159	0.135034
O26	O	1.037547	-0.034159	0.385034
O27	O	1.287547	0.215841	0.635034
O28	O	1.537547	0.465841	0.885034
O29	O	0.723444	-0.135164	0.219825
O30	O	0.973444	0.114836	0.469825
O31	O	1.223444	0.364836	0.719825
O32	O	1.473444	0.614836	0.969825
O33	O	0.872314	-0.284178	0.219805
O34	O	1.122314	-0.034178	0.469805
O35	O	1.372314	0.215822	0.719805
O36	O	1.622314	0.465822	0.969805
O37	O	0.787671	-0.135178	0.284055
O38	O	1.037671	0.114822	0.534055
O39	O	1.287671	0.364822	0.784055
O40	O	1.537671	0.614822	1.034055
O41	O	0.723373	-0.219923	0.135042
O42	O	0.973373	0.030077	0.385042
O43	O	1.223373	0.280077	0.635042
O44	O	1.473373	0.530077	0.885042
O45	O	0.638620	-0.219907	0.219792
O46	O	0.888620	0.030093	0.469792
O47	O	1.138620	0.280093	0.719792
O48	O	1.388620	0.530093	0.969792
O49	O	0.723344	-0.284149	0.368769
O50	O	0.973344	-0.034149	0.618769
O51	O	1.223344	0.215851	0.868769
O52	O	1.473344	0.465851	1.118769
O53	O	0.638576	-0.284129	0.283997
O54	O	0.888576	-0.034129	0.533997
O55	O	1.138576	0.215871	0.783997
O56	O	1.388576	0.465871	1.033997
O57	O	0.787614	-0.219940	0.368794
O58	O	1.037614	0.030060	0.618794
O59	O	1.287614	0.280060	0.868794
O60	O	1.537614	0.530060	1.118794
O61	O	0.787490	-0.368921	0.219772
O62	O	1.037490	-0.118921	0.469772
O63	O	1.287490	0.131079	0.719772
O64	O	1.537490	0.381079	0.969772
O65	O	0.723273	-0.368908	0.283986
O66	O	0.973273	-0.118908	0.533986
O67	O	1.223273	0.131092	0.783986
O68	O	1.473273	0.381092	1.033986
C69	C	0.619627	-0.252014	0.251893
C70	C	0.869627	-0.002014	0.501893
C71	C	1.119627	0.247986	0.751893
C72	C	1.369627	0.497986	1.001893
C73	C	0.561513	-0.252015	0.251898
C74	C	0.811513	-0.002015	0.501898
C75	C	1.061513	0.247985	0.751898
C76	C	1.311513	0.497985	1.001898
C77	C	0.310355	-0.218662	0.285420
C78	C	0.560355	0.031338	0.535420
C79	C	0.810355	0.281338	0.785420
C80	C	1.060355	0.531338	1.035420
C81	C	0.364960	-0.218657	0.285417
C82	C	0.614960	0.031343	0.535417
C83	C	0.864960	0.281343	0.785417
C84	C	1.114960	0.531343	1.035417
O85	O	0.393227	-0.190277	0.313914
O86	O	0.643227	0.059723	0.563914
O87	O	0.893227	0.309723	0.813914
O88	O	1.143227	0.559723	1.063914
N89	N	0.392239	-0.252037	0.251916
N90	N	0.642239	-0.002037	0.501916
N91	N	0.892239	0.247963	0.751916
N92	N	1.142239	0.497963	1.001916
C93	C	0.364911	-0.285427	0.218419
C94	C	0.614911	-0.035427	0.468419
C95	C	0.864911	0.214573	0.718419
C96	C	1.114911	0.464573	0.968419
O97	O	0.393129	-0.313819	0.189924
O98	O	0.643129	-0.063819	0.439924
O99	O	0.893129	0.186181	0.689924
O100	O	1.143129	0.436181	0.939924
C101	C	0.310308	-0.285435	0.218425
C102	C	0.560308	-0.035435	0.468425
C103	C	0.810308	0.214565	0.718425
C104	C	1.060308	0.464565	0.968425
C105	C	0.283031	-0.252049	0.251925
C106	C	0.533031	-0.002049	0.501925
C107	C	0.783031	0.247951	0.751925
C108	C	1.033031	0.497951	1.001925
C109	C	0.283079	-0.185280	0.318917
C110	C	0.533079	0.064720	0.568917
C111	C	0.783079	0.314720	0.818917
C112	C	1.033079	0.564720	1.068917
C113	C	0.228478	-0.185284	0.318919
C114	C	0.478478	0.064716	0.568919
C115	C	0.728478	0.314716	0.818919
C116	C	0.978478	0.564716	1.068919
C117	C	0.201154	-0.218671	0.285424
C118	C	0.451154	0.031329	0.535424
C119	C	0.701154	0.281329	0.785424
C120	C	0.951154	0.531329	1.035424
C121	C	0.228431	-0.252054	0.251927
C122	C	0.478431	-0.002054	0.501927
C123	C	0.728431	0.247946	0.751927
C124	C	0.978431	0.497946	1.001927
C125	C	0.282981	-0.318827	0.184932
C126	C	0.532981	-0.068827	0.434932
C127	C	0.782981	0.181173	0.684932
C128	C	1.032981	0.431173	0.934932
C129	C	0.228374	-0.318832	0.184941
C130	C	0.478374	-0.068832	0.434941
C131	C	0.728374	0.181168	0.684941
C132	C	0.978374	0.431168	0.934941
C133	C	0.201098	-0.285447	0.218440
C134	C	0.451098	-0.035447	0.468440
C135	C	0.701098	0.214553	0.718440
C136	C	0.951098	0.464553	0.968440
C137	C	0.146506	-0.285445	0.218434
C138	C	0.396506	-0.035445	0.468434
C139	C	0.646506	0.214555	0.718434
C140	C	0.896506	0.464555	0.968434
N141	N	0.119227	-0.252066	0.251935
N142	N	0.369227	-0.002066	0.501935
N143	N	0.619227	0.247934	0.751935
N144	N	0.869227	0.497934	1.001935
C145	C	0.146551	-0.218679	0.285430
C146	C	0.396551	0.031321	0.535430
C147	C	0.646551	0.281321	0.785430
C148	C	0.896551	0.531321	1.035430
C149	C	0.479582	-0.285410	0.218410
C150	C	0.729582	-0.035410	0.468410
C151	C	0.979582	0.214590	0.718410
C152	C	1.229582	0.464590	0.968410
C153	C	0.534184	-0.285400	0.218401
C154	C	0.784184	-0.035400	0.468401
C155	C	1.034184	0.214600	0.718401
C156	C	1.284184	0.464600	0.968401
C157	C	0.534229	-0.218630	0.285399
C158	C	0.784229	0.031370	0.535399
C159	C	1.034229	0.281370	0.785399
C160	C	1.284229	0.531370	1.035399
C161	C	0.479626	-0.218638	0.285405
C162	C	0.729626	0.031362	0.535405
C163	C	0.979626	0.281362	0.785405
C164	C	1.229626	0.531362	1.035405
C165	C	0.452303	-0.252030	0.251911
C166	C	0.702303	-0.002030	0.501911
C167	C	0.952303	0.247970	0.751911
C168	C	1.202303	0.497970	1.001911
C169	C	0.031886	-0.218691	0.285432
C170	C	0.281886	0.031309	0.535432
C171	C	0.531886	0.281309	0.785432
C172	C	0.781886	0.531309	1.035432
C173	C	-0.022719	-0.218697	0.285429
C174	C	0.227281	0.031303	0.535429
C175	C	0.477281	0.281303	0.785429
C176	C	0.727281	0.531303	1.035429
C177	C	-0.022759	-0.285468	0.218433
C178	C	0.227241	-0.035468	0.468433
C179	C	0.477241	0.214532	0.718433
C180	C	0.727241	0.464532	0.968433
C181	C	0.031841	-0.285460	0.218433
C182	C	0.281841	-0.035460	0.468433
C183	C	0.531841	0.214540	0.718433
C184	C	0.781841	0.464540	0.968433
C185	C	0.059163	-0.252070	0.251937
C186	C	0.309163	-0.002070	0.501937
C187	C	0.559163	0.247930	0.751937
C188	C	0.809163	0.497930	1.001937
O189	O	0.118205	-0.313813	0.189952
O190	O	0.368205	-0.063813	0.439952
O191	O	0.618205	0.186187	0.689952
O192	O	0.868205	0.436187	0.939952
O193	O	0.118327	-0.190297	0.313925
O194	O	0.368327	0.059703	0.563925
O195	O	0.618327	0.309703	0.813925
O196	O	0.868327	0.559703	1.063925
C197	C	0.755382	-0.387885	0.251886
C198	C	1.005382	-0.137885	0.501886
C199	C	1.255382	0.112115	0.751886
C200	C	1.505382	0.362115	1.001886
C201	C	0.755392	-0.445999	0.251893
C202	C	1.005392	-0.195999	0.501893
C203	C	1.255392	0.054001	0.751893
C204	C	1.505392	0.304001	1.001893
C205	C	0.788994	-0.806356	0.218531
C206	C	1.038994	-0.556356	0.468531
C207	C	1.288994	-0.306356	0.718531
C208	C	1.538994	-0.056356	0.968531
C209	C	0.789015	-0.860961	0.218538
C210	C	1.039015	-0.610961	0.468538
C211	C	1.289015	-0.360961	0.718538
C212	C	1.539015	-0.110961	0.968538
O213	O	0.817494	-0.889192	0.190145
O214	O	1.067494	-0.639192	0.440145
O215	O	1.317494	-0.389192	0.690145
O216	O	1.567494	-0.139192	0.940145
N217	N	0.755561	-0.888282	0.251944
N218	N	1.005561	-0.638282	0.501944
N219	N	1.255561	-0.388282	0.751944
N220	N	1.505561	-0.138282	1.001944
C221	C	0.722090	-0.860996	0.285350
C222	C	0.972090	-0.610996	0.535350
C223	C	1.222090	-0.360996	0.785350
C224	C	1.472090	-0.110996	1.035350
O225	O	0.693637	-0.889248	0.313766
O226	O	0.943637	-0.639248	0.563766
O227	O	1.193637	-0.389248	0.813766
O228	O	1.443637	-0.139248	1.063766
C229	C	0.722072	-0.806392	0.285345
C230	C	0.972072	-0.556392	0.535345
C231	C	1.222072	-0.306392	0.785345
C232	C	1.472072	-0.056392	1.035345
C233	C	0.755524	-0.779074	0.251933
C234	C	1.005524	-0.529074	0.501933
C235	C	1.255524	-0.279074	0.751933
C236	C	1.505524	-0.029074	1.001933
C237	C	0.822444	-0.779038	0.185121
C238	C	1.072444	-0.529038	0.435121
C239	C	1.322444	-0.279038	0.685121
C240	C	1.572444	-0.029038	0.935121
C241	C	0.822423	-0.724437	0.185113
C242	C	1.072423	-0.474437	0.435113
C243	C	1.322423	-0.224437	0.685113
C244	C	1.572423	0.025563	0.935113
C245	C	0.788952	-0.697155	0.218516
C246	C	1.038952	-0.447155	0.468516
C247	C	1.288952	-0.197155	0.718516
C248	C	1.538952	0.052845	0.968516
C249	C	0.755503	-0.724473	0.251925
C250	C	1.005503	-0.474473	0.501925
C251	C	1.255503	-0.224473	0.751925
C252	C	1.505503	0.025527	1.001925
C253	C	0.688603	-0.779107	0.318753
C254	C	0.938603	-0.529107	0.568753
C255	C	1.188603	-0.279107	0.818753
C256	C	1.438603	-0.029107	1.068753
C257	C	0.688589	-0.724500	0.318746
C258	C	0.938589	-0.474500	0.568746
C259	C	1.188589	-0.224500	0.818746
C260	C	1.438589	0.025500	1.068746
C261	C	0.722041	-0.697182	0.285333
C262	C	0.972041	-0.447182	0.535333
C263	C	1.222041	-0.197182	0.785333
C264	C	1.472041	0.052818	1.035333
C265	C	0.722011	-0.642591	0.285320
C266	C	0.972011	-0.392591	0.535320
C267	C	1.222011	-0.142591	0.785320
C268	C	1.472011	0.107409	1.035320
N269	N	0.755465	-0.615270	0.251913
N270	N	1.005465	-0.365270	0.501913
N271	N	1.255465	-0.115270	0.751913
N272	N	1.505465	0.134730	1.001913
C273	C	0.788935	-0.642552	0.218511
C274	C	1.038935	-0.392552	0.468511
C275	C	1.288935	-0.142552	0.718511
C276	C	1.538935	0.107448	0.968511
C277	C	0.722129	-0.975666	0.285358
C278	C	0.972129	-0.725666	0.535358
C279	C	1.222129	-0.475666	0.785358
C280	C	1.472129	-0.225666	1.035358
C281	C	0.722143	-1.030269	0.285361
C282	C	0.972143	-0.780269	0.535361
C283	C	1.222143	-0.530269	0.785361
C284	C	1.472143	-0.280269	1.035361
C285	C	0.789069	-1.030230	0.218549
C286	C	1.039069	-0.780230	0.468549
C287	C	1.289069	-0.530230	0.718549
C288	C	1.539069	-0.280230	0.968549
C289	C	0.789052	-0.975626	0.218544
C290	C	1.039052	-0.725626	0.468544
C291	C	1.289052	-0.475626	0.718544
C292	C	1.539052	-0.225626	0.968544
C293	C	0.755582	-0.948345	0.251951
C294	C	1.005582	-0.698345	0.501951
C295	C	1.255582	-0.448345	0.751951
C296	C	1.505582	-0.198345	1.001951
C297	C	0.788888	-0.527887	0.218497
C298	C	1.038888	-0.277887	0.468497
C299	C	1.288888	-0.027887	0.718497
C300	C	1.538888	0.222113	0.968497
C301	C	0.788862	-0.473281	0.218491
C302	C	1.038862	-0.223281	0.468491
C303	C	1.288862	0.026719	0.718491
C304	C	1.538862	0.276719	0.968491
C305	C	0.721939	-0.473325	0.285305
C306	C	0.971939	-0.223325	0.535305
C307	C	1.221939	0.026675	0.785305
C308	C	1.471939	0.276675	1.035305
C309	C	0.721962	-0.527926	0.285309
C310	C	0.971962	-0.277926	0.535309
C311	C	1.221962	-0.027926	0.785309
C312	C	1.471962	0.222074	1.035309
C313	C	0.755441	-0.555205	0.251904
C314	C	1.005441	-0.305205	0.501904
C315	C	1.255441	-0.055205	0.751904
C316	C	1.505441	0.194795	1.001904
O317	O	0.693549	-0.614324	0.313699
O318	O	0.943549	-0.364324	0.563699
O319	O	1.193549	-0.114324	0.813699
O320	O	1.443549	0.135676	1.063699
O321	O	0.817387	-0.614293	0.190104
O322	O	1.067387	-0.364293	0.440104
O323	O	1.317387	-0.114293	0.690104
O324	O	1.567387	0.135707	0.940104
C325	C	0.891843	-0.252071	0.251927
C326	C	1.141843	-0.002071	0.501927
C327	C	1.391843	0.247929	0.751927
C328	C	1.641843	0.497929	1.001927
C329	C	0.949957	-0.252084	0.251934
C330	C	1.199957	-0.002084	0.501934
C331	C	1.449957	0.247916	0.751934
C332	C	1.699957	0.497916	1.001934
C333	C	0.755481	-0.252045	0.388283
C334	C	1.005481	-0.002045	0.638283
C335	C	1.255481	0.247955	0.888283
C336	C	1.505481	0.497955	1.138283
C337	C	0.755485	-0.252045	0.446397
C338	C	1.005485	-0.002045	0.696397
C339	C	1.255485	0.247955	0.946397
C340	C	1.505485	0.497955	1.196397
C341	C	0.755572	-0.115670	0.251945
C342	C	1.005572	0.134330	0.501945
C343	C	1.255572	0.384330	0.751945
C344	C	1.505572	0.634330	1.001945
C345	C	0.755616	-0.057556	0.251960
C346	C	1.005616	0.192444	0.501960
C347	C	1.255616	0.442444	0.751960
C348	C	1.505616	0.692444	1.001960
C349	C	0.788883	-0.285496	0.697578
C350	C	1.038883	-0.035496	0.947578
C351	C	1.288883	0.214504	1.197578
C352	C	1.538883	0.464504	1.447578
C353	C	0.788884	-0.285497	0.642974
C354	C	1.038884	-0.035497	0.892974
C355	C	1.288884	0.214503	1.142974
C356	C	1.538884	0.464503	1.392974
O357	O	0.817286	-0.313951	0.614727
O358	O	1.067286	-0.063951	0.864727
O359	O	1.317286	0.186049	1.114727
O360	O	1.567286	0.436049	1.364727
N361	N	0.755475	-0.252051	0.615671
N362	N	1.005475	-0.002051	0.865671
N363	N	1.255475	0.247949	1.115671
N364	N	1.505475	0.497949	1.365671
C365	C	0.722059	-0.218606	0.642975
C366	C	0.972059	0.031394	0.892975
C367	C	1.222059	0.281394	1.142975
C368	C	1.472059	0.531394	1.392975
O369	O	0.693642	-0.190158	0.614737
O370	O	0.943642	0.059842	0.864737
O371	O	1.193642	0.309842	1.114737
O372	O	1.443642	0.559842	1.364737
C373	C	0.722056	-0.218608	0.697578
C374	C	0.972056	0.031392	0.947578
C375	C	1.222056	0.281392	1.197578
C376	C	1.472056	0.531392	1.447578
C377	C	0.755470	-0.252053	0.724878
C378	C	1.005470	-0.002053	0.974878
C379	C	1.255470	0.247947	1.224878
C380	C	1.505470	0.497947	1.474878
C381	C	0.822294	-0.318938	0.724879
C382	C	1.072294	-0.068938	0.974879
C383	C	1.322294	0.181062	1.224879
C384	C	1.572294	0.431062	1.474879
C385	C	0.822293	-0.318936	0.779479
C386	C	1.072293	-0.068936	1.029479
C387	C	1.322293	0.181064	1.279479
C388	C	1.572293	0.431064	1.529479
C389	C	0.788881	-0.285493	0.806779
C390	C	1.038881	-0.035493	1.056779
C391	C	1.288881	0.214507	1.306779
C392	C	1.538881	0.464507	1.556779
C393	C	0.755469	-0.252051	0.779479
C394	C	1.005469	-0.002051	1.029479
C395	C	1.255469	0.247949	1.279479
C396	C	1.505469	0.497949	1.529479
C397	C	0.688637	-0.185166	0.724881
C398	C	0.938637	0.064834	0.974881
C399	C	1.188637	0.314834	1.224881
C400	C	1.438637	0.564834	1.474881
C401	C	0.688636	-0.185172	0.779488
C402	C	0.938636	0.064828	1.029488
C403	C	1.188636	0.314828	1.279488
C404	C	1.438636	0.564828	1.529488
C405	C	0.722051	-0.218616	0.806788
C406	C	0.972051	0.031384	1.056788
C407	C	1.222051	0.281384	1.306788
C408	C	1.472051	0.531384	1.556788
C409	C	0.722056	-0.218606	0.861379
C410	C	0.972056	0.031394	1.111379
C411	C	1.222056	0.281394	1.361379
C412	C	1.472056	0.531394	1.611379
N413	N	0.755465	-0.252051	0.888683
N414	N	1.005465	-0.002051	1.138683
N415	N	1.255465	0.247949	1.388683
N416	N	1.505465	0.497949	1.638683
C417	C	0.788877	-0.285495	0.861383
C418	C	1.038877	-0.035495	1.111383
C419	C	1.288877	0.214505	1.361383
C420	C	1.538877	0.464505	1.611383
C421	C	0.722069	-0.218605	0.528304
C422	C	0.972069	0.031395	0.778304
C423	C	1.222069	0.281395	1.028304
C424	C	1.472069	0.531395	1.278304
C425	C	0.722075	-0.218600	0.473702
C426	C	0.972075	0.031400	0.723702
C427	C	1.222075	0.281400	0.973702
C428	C	1.472075	0.531400	1.223702
C429	C	0.788899	-0.285491	0.473705
C430	C	1.038899	-0.035491	0.723705
C431	C	1.288899	0.214509	0.973705
C432	C	1.538899	0.464509	1.223705
C433	C	0.788895	-0.285493	0.528308
C434	C	1.038895	-0.035493	0.778308
C435	C	1.288895	0.214507	1.028308
C436	C	1.538895	0.464507	1.278308
C437	C	0.755478	-0.252051	0.555607
C438	C	1.005478	-0.002051	0.805607
C439	C	1.255478	0.247949	1.055607
C440	C	1.505478	0.497949	1.305607
C441	C	0.788873	-0.285488	0.976048
C442	C	1.038873	-0.035488	1.226048
C443	C	1.288873	0.214512	1.476048
C444	C	1.538873	0.464512	1.726048
C445	C	0.788871	-0.285482	1.030653
C446	C	1.038871	-0.035482	1.280653
C447	C	1.288871	0.214518	1.530653
C448	C	1.538871	0.464518	1.780653
C449	C	0.722045	-0.218593	1.030645
C450	C	0.972045	0.031407	1.280645
C451	C	1.222045	0.281407	1.530645
C452	C	1.472045	0.531407	1.780645
C453	C	0.722049	-0.218597	0.976045
C454	C	0.972049	0.031403	1.226045
C455	C	1.222049	0.281403	1.476045
C456	C	1.472049	0.531403	1.726045
C457	C	0.755465	-0.252049	0.948747
C458	C	1.005465	-0.002049	1.198747
C459	C	1.255465	0.247951	1.448747
C460	C	1.505465	0.497951	1.698747
O461	O	0.693668	-0.190167	0.889661
O462	O	0.943668	0.059833	1.139661
O463	O	1.193668	0.309833	1.389661
O464	O	1.443668	0.559833	1.639661
O465	O	0.817284	-0.313943	0.889627
O466	O	1.067284	-0.063943	1.139627
O467	O	1.317284	0.186057	1.389627
O468	O	1.567284	0.436057	1.639627
C469	C	0.755457	-0.252049	1.116067
C470	C	1.005457	-0.002049	1.366067
C471	C	1.255457	0.247951	1.616067
C472	C	1.505457	0.497951	1.866067
C473	C	0.755459	-0.252039	1.057953
C474	C	1.005459	-0.002039	1.307953
C475	C	1.255459	0.247961	1.557953
C476	C	1.505459	0.497961	1.807953
H477	H	0.457339	-0.312601	0.191130
H478	H	0.707339	-0.062601	0.441130
H479	H	0.957339	0.187399	0.691130
H480	H	1.207339	0.437399	0.941130
F481	F	-0.051849	-0.320998	0.182786
F482	F	0.198151	-0.070998	0.432786
F483	F	0.448151	0.179002	0.682786
F484	F	0.698151	0.429002	0.932786
H485	H	0.694858	-0.191367	0.550528
H486	H	0.944858	0.058633	0.800528
H487	H	1.194858	0.308633	1.050528
H488	H	1.444858	0.558633	1.300528
F489	F	0.824437	-0.321079	1.059705
F490	F	1.074437	-0.071079	1.309705
F491	F	1.324437	0.178921	1.559705
F492	F	1.574437	0.428921	1.809705
F493	F	0.563319	-0.183097	0.321048
F494	F	0.813319	0.066903	0.571048
F495	F	1.063319	0.316903	0.821048
F496	F	1.313319	0.566903	1.071048
H497	H	0.661427	-0.157933	0.702662
H498	H	0.911427	0.092067	0.952662
H499	H	1.161427	0.342067	1.202662
H500	H	1.411427	0.592067	1.452662
F501	F	0.686350	-0.557001	0.320861
F502	F	0.936350	-0.307001	0.570861
F503	F	1.186350	-0.057001	0.820861
F504	F	1.436350	0.192999	1.070861
F505	F	0.686320	-0.444280	0.320853
F506	F	0.936320	-0.194280	0.570853
F507	F	1.186320	0.055720	0.820853
F508	F	1.436320	0.305720	1.070853
H509	H	0.816291	-0.953387	0.191337
H510	H	1.066291	-0.703387	0.441337
H511	H	1.316291	-0.453387	0.691337
H512	H	1.566291	-0.203387	0.941337
F513	F	0.857859	-0.354537	0.695832
F514	F	1.107859	-0.104537	0.945832
F515	F	1.357859	0.145463	1.195832
F516	F	1.607859	0.395463	1.445832
H517	H	0.694871	-0.191360	0.451478
H518	H	0.944871	0.058640	0.701478
H519	H	1.194871	0.308640	0.951478
H520	H	1.444871	0.558640	1.201478
H521	H	0.816103	-0.451041	0.191281
H522	H	1.066103	-0.201041	0.441281
H523	H	1.316103	0.048959	0.691281
H524	H	1.566103	0.298959	0.941281
H525	H	0.816104	-0.312727	0.550532
H526	H	1.066104	-0.062727	0.800532
H527	H	1.316104	0.187273	1.050532
H528	H	1.566104	0.437273	1.300532
H529	H	0.054125	-0.191501	0.312713
H530	H	0.304125	0.058499	0.562713
H531	H	0.554125	0.308499	0.812713
H532	H	0.804125	0.558499	1.062713
H533	H	0.694843	-0.191362	1.052883
H534	H	0.944843	0.058638	1.302883
H535	H	1.194843	0.308638	1.552883
H536	H	1.444843	0.558638	1.802883
H537	H	0.206131	-0.346026	0.157666
H538	H	0.456131	-0.096026	0.407666
H539	H	0.706131	0.153974	0.657666
H540	H	0.956131	0.403974	0.907666
H541	H	0.816151	-0.550091	0.191296
H542	H	1.066151	-0.300091	0.441296
H543	H	1.316151	-0.050091	0.691296
H544	H	1.566151	0.199909	0.941296
H545	H	0.816324	-1.052453	0.191353
H546	H	1.066324	-0.802453	0.441353
H547	H	1.316324	-0.552453	0.691353
H548	H	1.566324	-0.302453	0.941353
H549	H	0.457421	-0.191452	0.312683
H550	H	0.707421	0.058548	0.562683
H551	H	0.957421	0.308548	0.812683
H552	H	1.207421	0.558548	1.062683
H553	H	0.849702	-0.801245	0.157921
H554	H	1.099702	-0.551245	0.407921
H555	H	1.349702	-0.301245	0.657921
H556	H	1.599702	-0.051245	0.907921
H557	H	0.661423	-0.157938	0.801712
H558	H	0.911423	0.092062	1.051712
H559	H	1.161423	0.342062	1.301712
H560	H	1.411423	0.592062	1.551712
H561	H	0.054051	-0.312641	0.191151
H562	H	0.304051	-0.062641	0.441151
H563	H	0.554051	0.187359	0.691151
H564	H	0.804051	0.437359	0.941151
F565	F	0.858033	-0.695370	0.149557
F566	F	1.108033	-0.445370	0.399557
F567	F	1.358033	-0.195370	0.649557
F568	F	1.608033	0.054630	0.899557
H569	H	0.694899	-1.052506	0.312564
H570	H	0.944899	-0.802506	0.562564
H571	H	1.194899	-0.552506	0.812564
H572	H	1.444899	-0.302506	1.062564
F573	F	0.311999	-0.354355	0.149270
F574	F	0.561999	-0.104355	0.399270
F575	F	0.811999	0.145645	0.649270
F576	F	1.061999	0.395645	0.899270
H577	H	0.694870	-0.953456	0.312561
H578	H	0.944870	-0.703456	0.562561
H579	H	1.194870	-0.453456	0.812561
H580	H	1.444870	-0.203456	1.062561
F581	F	0.824438	-0.321092	0.947003
F582	F	1.074438	-0.071092	1.197003
F583	F	1.324438	0.178908	1.447003
F584	F	1.574438	0.428908	1.697003
H585	H	0.661361	-0.801340	0.345959
H586	H	0.911361	-0.551340	0.595959
H587	H	1.161361	-0.301340	0.845959
H588	H	1.411361	-0.051340	1.095959
F589	F	0.857853	-0.354537	0.808527
F590	F	1.107853	-0.104537	1.058527
F591	F	1.357853	0.145463	1.308527
F592	F	1.607853	0.395463	1.558527
F593	F	0.824458	-0.321087	0.444640
F594	F	1.074458	-0.071087	0.694640
F595	F	1.324458	0.178913	0.944640
F596	F	1.574458	0.428913	1.194640
F597	F	0.686491	-0.182996	0.946989
F598	F	0.936491	0.067004	1.196989
F599	F	1.186491	0.317004	1.446989
F600	F	1.436491	0.567004	1.696989
H601	H	0.661335	-0.702290	0.345952
H602	H	0.911335	-0.452290	0.595952
H603	H	1.161335	-0.202290	0.845952
H604	H	1.411335	0.047710	1.095952
H605	H	-0.044926	-0.191508	0.312709
H606	H	0.205074	0.058492	0.562709
H607	H	0.455074	0.308492	0.812709
H608	H	0.705074	0.558492	1.062709
H609	H	0.206275	-0.158101	0.346200
H610	H	0.456275	0.091899	0.596200
H611	H	0.706275	0.341899	0.846200
H612	H	0.956275	0.591899	1.096200
H613	H	0.305320	-0.158092	0.346195
H614	H	0.555320	0.091908	0.596195
H615	H	0.805320	0.341908	0.846195
H616	H	1.055320	0.591908	1.096195
H617	H	0.556388	-0.312580	0.191116
H618	H	0.806388	-0.062580	0.441116
H619	H	1.056388	0.187420	0.691116
H620	H	1.306388	0.437420	0.941116
