data_functionalizedCrystal
_audit_creation_method	'MofGen! by Chris Wilmer'
_symmetry_space_group_name_H-M	'P1'
_symmetry_Int_Tables_number	1
_symmetry_cell_setting	triclinic
loop_
_symmetry_equiv_pos_as_xyz
  x,y,z
_cell_length_a	19.121063
_cell_length_b	19.121274
_cell_length_c	19.120915
_cell_angle_alpha	94.963843
_cell_angle_beta	85.261346
_cell_angle_gamma	90.075254
loop_
_atom_site_label
_atom_site_type_symbol
_atom_site_fract_x
_atom_site_fract_y
_atom_site_fract_z
Zn1	Zn	-0.339806	-1.043481	0.367080
Zn2	Zn	-0.452456	-1.043398	0.254435
Zn3	Zn	-0.330220	-0.931277	0.254024
Zn4	Zn	-0.452410	-0.920766	0.377072
O5	O	-0.393723	-0.984730	0.313152
O6	O	-0.358781	-1.141750	0.348128
O7	O	-0.432248	-1.032889	0.155742
O8	O	-0.233210	-0.950594	0.264667
O9	O	-0.441544	-1.141689	0.265368
O10	O	-0.240254	-1.033030	0.347729
O11	O	-0.342442	-0.950514	0.155440
O12	O	-0.342397	-0.831603	0.274356
O13	O	-0.441465	-0.932680	0.474385
O14	O	-0.432170	-0.823881	0.364758
O15	O	-0.358736	-1.022838	0.467044
O16	O	-0.550731	-1.022697	0.275056
O17	O	-0.550697	-0.932600	0.365157
C18	C	-0.386239	-0.802259	0.320597
C19	C	-0.383055	-0.724195	0.323799
C20	C	-0.576198	-0.976517	0.321250
C21	C	-0.654266	-0.973067	0.324735
C22	C	-0.424573	-0.687492	0.282145
C23	C	-0.421582	-0.614143	0.285163
C24	C	-0.377068	-0.577498	0.329833
C25	C	-0.335548	-0.614206	0.371492
C26	C	-0.338543	-0.687553	0.368477
C27	C	-0.365875	-0.356036	0.341099
C28	C	-0.362882	-0.282683	0.344109
C29	C	-0.448917	-0.282625	0.257781
C30	C	-0.451905	-0.355975	0.254766
C31	C	-0.410388	-0.392676	0.296428
C32	C	-0.374008	-0.502523	0.332917
C33	C	-0.413452	-0.467649	0.293347
C34	C	-0.690939	-1.018388	0.279498
C35	C	-0.764292	-1.015147	0.282779
C36	C	-0.800970	-0.966581	0.331296
C37	C	-0.764291	-0.921258	0.376538
C38	C	-0.690940	-0.924503	0.373259
C39	C	-1.022444	-0.954438	0.343544
C40	C	-1.095800	-0.951195	0.346818
C41	C	-1.095795	-1.045085	0.253059
C42	C	-1.022442	-1.048323	0.249782
C43	C	-0.985771	-1.003002	0.295027
C44	C	-0.875948	-0.963265	0.334650
C45	C	-0.910794	-1.006322	0.291676
C46	C	-0.210536	-0.992994	0.305038
C47	C	-0.132473	-0.996516	0.301580
C48	C	-0.401165	-0.976596	0.497005
C49	C	-0.404337	-0.973130	0.575353
C50	C	-0.401227	-0.167915	0.305669
C51	C	-0.404400	-0.245980	0.302454
C52	C	-0.386261	-0.992876	0.130011
C53	C	-0.382897	-0.996487	0.051650
C54	C	-0.424473	-0.951175	1.018662
C55	C	-0.421483	-0.954430	0.945046
C56	C	-0.376919	-1.003001	0.904419
C57	C	-0.335338	-1.048315	0.937413
C58	C	-0.338325	-1.045056	1.011027
C59	C	-0.365742	-1.015185	0.681960
C60	C	-0.362760	-1.018442	0.608341
C61	C	-0.448904	-0.924555	0.615979
C62	C	-0.451891	-0.921304	0.689595
C63	C	-0.410307	-0.966615	0.722581
C64	C	-0.373863	-1.006330	0.829172
C65	C	-0.413359	-0.963282	0.797827
H66	H	-0.455391	-0.584263	0.251243
N67	N	-0.461428	-0.910902	0.841644
H68	H	-0.487319	-0.882689	0.809578
H69	H	-0.432745	-0.878339	0.872249
N70	N	-1.135360	-0.898813	0.399153
H71	H	-1.187392	-0.903633	0.394359
H72	H	-1.120084	-0.849715	0.389618
H73	H	-0.460819	-0.717324	0.245767
N74	N	-0.293769	-0.727145	0.413409
H75	H	-0.242607	-0.717121	0.400846
H76	H	-0.302485	-0.779155	0.404702
N77	N	-0.287535	-0.574689	0.419674
H78	H	-0.316204	-0.541536	0.454811
H79	H	-0.252550	-0.547023	0.390836
N80	N	-0.314717	-1.070847	0.564510
H81	H	-0.279763	-1.045142	0.533674
H82	H	-0.343439	-1.103427	0.533962
H83	H	-0.455347	-0.917538	0.918190
N84	N	-0.499956	-0.868917	0.733412
H85	H	-0.525842	-0.840704	0.701343
H86	H	-0.471272	-0.836355	0.764017
H87	H	-0.304466	-1.081952	1.037885
H88	H	-0.337581	-1.045879	0.796086
N89	N	-0.651383	-0.875613	0.422044
H90	H	-0.599351	-0.885038	0.412607
H91	H	-0.666658	-0.883708	0.472523
N92	N	-1.135347	-1.093961	0.204259
H93	H	-1.187380	-1.084537	0.213695
H94	H	-1.124980	-1.144194	0.212647
H95	H	-0.449699	-0.497488	0.256981
N96	N	-0.321074	-0.395603	0.386020
H97	H	-0.288568	-0.428751	0.354726
H98	H	-0.352261	-0.423278	0.418662
N99	N	-0.314870	-0.243156	0.392293
H100	H	-0.289025	-0.277535	0.418230
H101	H	-0.343591	-0.210003	0.427381
N102	N	-0.493752	-0.875684	0.580401
H103	H	-0.485100	-0.885116	0.527602
H104	H	-0.481282	-0.825451	0.594832
N105	N	-0.287283	-1.100709	0.893591
H106	H	-0.237170	-1.091508	0.904617
H107	H	-0.291769	-1.095870	0.841969
H108	H	-0.488152	-0.385806	0.218391
H109	H	-0.460765	-0.911625	1.051735
N110	N	-0.915505	-0.910878	0.386973
H111	H	-0.948393	-0.936601	0.419856
H112	H	-0.943444	-0.878294	0.360932
H113	H	-0.482719	-0.252735	0.223863
N114	N	-0.651381	-1.070768	0.227167
H115	H	-0.685748	-1.098988	0.199009
H116	H	-0.623401	-1.103323	0.253199
N117	N	-0.325994	-0.462993	0.381089
H118	H	-0.275876	-0.478488	0.367470
H119	H	-0.339595	-0.473063	0.431381
N120	N	-0.803848	-1.064028	0.233988
H121	H	-0.769482	-1.095283	0.202752
H122	H	-0.831830	-1.035561	0.203875
N123	N	-0.982885	-1.100714	0.197464
H124	H	-1.017249	-1.128938	0.169307
H125	H	-0.954910	-1.133265	0.223508
H126	H	-0.880929	-1.045867	0.252176
H127	H	-0.331886	-1.052085	0.708809
N128	N	-0.803844	-0.868873	0.428868
H129	H	-0.836733	-0.894595	0.461751
H130	H	-0.831779	-0.836282	0.402832
N131	N	-0.982894	-0.905552	0.392333
H132	H	-0.998116	-0.913622	0.442832
H133	H	-0.993223	-0.855323	0.383898
