data_functionalizedCrystal
_audit_creation_method	'MofGen! by Chris Wilmer'
_symmetry_space_group_name_H-M	'P1'
_symmetry_Int_Tables_number	1
_symmetry_cell_setting	triclinic
loop_
_symmetry_equiv_pos_as_xyz
  x,y,z
_cell_length_a	10.723024
_cell_length_b	9.565339
_cell_length_c	10.723023
_cell_angle_alpha	89.998758
_cell_angle_beta	84.467709
_cell_angle_gamma	90.003287
loop_
_atom_site_label
_atom_site_type_symbol
_atom_site_fract_x
_atom_site_fract_y
_atom_site_fract_z
O1	O	1.657187	0.116248	0.175018
O2	O	1.294035	0.116252	0.191772
O3	O	1.483988	0.116244	0.001819
O4	O	1.467234	0.116256	0.364971
O5	O	1.483973	-0.116276	0.001831
O6	O	1.294020	-0.116268	0.191783
O7	O	1.657172	-0.116272	0.175030
Zn8	Zn	1.475594	-0.153188	0.183409
Zn9	Zn	1.475613	0.153167	0.183393
O10	O	1.467219	-0.116264	0.364983
C11	C	1.247528	-0.000007	0.190558
C12	C	1.108973	-0.000006	0.186911
N13	N	1.475589	-0.362267	0.183419
C14	C	1.033991	-0.000001	0.293198
C15	C	0.890787	0.000000	0.289431
C16	C	1.387715	-0.453467	0.271236
C17	C	1.500690	-0.546646	0.296416
C18	C	1.362663	-0.546643	0.158249
C19	C	1.588622	-0.453395	0.208655
C20	C	1.450520	-0.453384	0.070439
C21	C	1.563576	-0.546521	0.095571
C22	C	1.703679	-0.000010	0.176243
C23	C	1.842234	-0.000002	0.179891
C24	C	1.482762	-0.000015	-0.044675
C25	C	1.479114	-0.000010	-0.183229
N26	N	1.475628	0.362247	0.183373
C27	C	1.477496	0.120444	-0.245001
C28	C	1.473727	0.120452	-0.388204
C29	C	1.468445	-0.000003	0.411477
C30	C	1.472093	0.000002	0.550031
H31	H	1.075812	-0.000006	0.386984
H32	H	1.313471	-0.412609	0.345569
Cl33	Cl	1.533471	-0.609895	0.443897
H34	H	1.267147	-0.587607	0.136980
Cl35	Cl	0.941699	0.000003	0.039396
Cl36	Cl	1.417687	-0.390080	-0.077000
H37	H	1.472341	0.223577	-0.441327
H38	H	0.826354	0.000010	0.380421
Cl39	Cl	1.479695	0.279662	-0.162983
H40	H	1.477701	-0.103130	-0.236361
Cl41	Cl	1.736128	-0.390431	0.241667
Cl42	Cl	1.474251	-0.159230	-0.367969
Cl43	Cl	1.678455	-0.609220	-0.019121
H44	H	1.067152	0.000027	0.093125
