data_functionalizedCrystal
_audit_creation_method	'MofGen! by Chris Wilmer'
_symmetry_space_group_name_H-M	'P1'
_symmetry_Int_Tables_number	1
_symmetry_cell_setting	triclinic
loop_
_symmetry_equiv_pos_as_xyz
  x,y,z
_cell_length_a	19.288874
_cell_length_b	19.288864
_cell_length_c	14.048226
_cell_angle_alpha	89.979690
_cell_angle_beta	89.993046
_cell_angle_gamma	83.138236
loop_
_atom_site_label
_atom_site_type_symbol
_atom_site_fract_x
_atom_site_fract_y
_atom_site_fract_z
O1	O	0.086649	0.921353	-0.079467
O2	O	0.098337	0.719093	-0.079402
O3	O	-0.008637	0.826064	-0.079429
O4	O	0.193623	0.814382	-0.079440
O5	O	-0.008643	0.826051	0.078892
O6	O	0.098331	0.719080	0.078919
O7	O	0.086643	0.921340	0.078854
Zn8	Zn	0.092486	0.820208	0.104024
Zn9	Zn	0.092494	0.820225	-0.104571
O10	O	0.193617	0.814369	0.078881
C11	C	-0.034516	0.825680	-0.000268
C12	C	-0.111619	0.824549	-0.000268
C13	C	0.097958	0.693210	-0.000233
C14	C	0.096829	0.616106	-0.000208
C15	C	-0.667192	0.816416	0.086012
C16	C	-0.594744	0.817472	0.086017
C17	C	-0.558510	0.818010	-0.000283
C18	C	-0.594727	0.817474	-0.086594
C19	C	-0.667172	0.816412	-0.086597
C20	C	-0.449176	0.860381	-0.066412
C21	C	-0.376732	0.861448	-0.066406
C22	C	-0.335064	0.821285	-0.000279
C23	C	-0.365849	0.780064	0.065857
C24	C	-0.438294	0.779001	0.065855
C25	C	-0.479955	0.819162	-0.000290
C26	C	-0.220299	0.822960	0.086032
C27	C	-0.147849	0.824012	0.086033
C28	C	-0.147834	0.824021	-0.086581
C29	C	-0.220281	0.822963	-0.086580
C30	C	-0.256510	0.822436	-0.000271
C31	C	0.159597	0.571412	-0.000226
C32	C	0.158536	0.498965	-0.000237
C33	C	0.094704	0.471215	-0.000248
C34	C	0.031928	0.515919	-0.000224
C35	C	0.032991	0.588365	-0.000204
C36	C	0.044528	0.362956	-0.055744
C37	C	0.043468	0.290512	-0.055770
C38	C	0.091425	0.247770	-0.000305
C39	C	0.140453	0.277480	0.055173
C40	C	0.141516	0.349925	0.055193
C41	C	0.093545	0.392661	-0.000269
C42	C	0.153046	0.124520	-0.000334
C43	C	0.151983	0.052072	-0.000338
C44	C	0.025374	0.069027	-0.000335
C45	C	0.026439	0.141474	-0.000321
C46	C	0.090277	0.169215	-0.000325
C47	C	0.219496	0.814753	-0.000281
C48	C	0.296599	0.815884	-0.000288
C49	C	0.087022	0.947223	-0.000317
C50	C	0.088151	1.024327	-0.000348
N51	N	0.092480	0.820202	0.246384
N52	N	0.092495	0.820237	-0.246932
C53	C	0.045131	0.867583	0.296191
C54	C	0.045131	0.867588	0.395848
C55	C	0.092483	0.820214	0.445698
C56	C	0.139834	0.772827	0.395885
C57	C	0.139830	0.772820	0.296229
C58	C	0.139839	0.772847	0.603599
C59	C	0.139843	0.772856	0.703262
C60	C	0.045139	0.867615	0.703218
C61	C	0.045136	0.867608	0.603563
C62	C	0.092488	0.820222	0.553756
H63	H	-0.696685	0.815986	0.156292
H64	H	0.006583	0.906198	0.743776
H65	H	0.178387	0.734251	0.436478
H66	H	0.205027	0.147108	-0.000323
H67	H	0.203098	0.015682	-0.000348
H68	H	0.006581	0.906187	0.562975
Br69	Br	-0.023061	0.250197	-0.131074
H70	H	0.005474	0.397752	-0.100916
H71	H	-0.565219	0.817910	-0.156861
Br72	Br	-0.269425	0.822246	-0.203708
Br73	Br	-0.061257	0.031375	-0.000334
H74	H	-0.118369	0.824443	0.156312
Br75	Br	-0.019132	0.931886	0.228548
Br76	Br	0.204110	0.708559	0.770908
Br77	Br	0.204088	0.708509	0.228635
H78	H	-0.696652	0.815978	-0.156875
H79	H	0.181434	0.374112	0.100368
Br80	Br	-0.052201	0.649026	-0.000177
H81	H	-0.463356	0.745438	0.119705
Br82	Br	-0.545594	0.818199	0.203147
Br83	Br	-0.309308	0.725559	0.155614
Br84	Br	-0.054701	0.478261	-0.000229
Br85	Br	0.204101	0.708533	0.536008
H86	H	-0.024674	0.177865	-0.000311
Br87	Br	0.246234	0.609059	-0.000230
H88	H	-0.249797	0.822525	0.156310
H89	H	0.006575	0.906169	0.436400
Br90	Br	0.243727	0.438297	-0.000256
H91	H	-0.118331	0.824451	-0.156848
Br92	Br	-0.334960	0.917394	-0.156155
Br93	Br	-0.505717	0.914874	-0.156184
H94	H	0.179504	0.242680	0.100338
