data_functionalizedCrystal
_audit_creation_method	'MofGen! by Chris Wilmer'
_symmetry_space_group_name_H-M	'P1'
_symmetry_Int_Tables_number	1
_symmetry_cell_setting	triclinic
loop_
_symmetry_equiv_pos_as_xyz
  x,y,z
_cell_length_a	8.497374
_cell_length_b	10.686220
_cell_length_c	10.686551
_cell_angle_alpha	89.691918
_cell_angle_beta	85.606337
_cell_angle_gamma	85.618240
loop_
_atom_site_label
_atom_site_type_symbol
_atom_site_fract_x
_atom_site_fract_y
_atom_site_fract_z
Zn1	Zn	0.384595	1.972367	0.562450
Zn2	Zn	0.670124	1.956197	0.352740
Zn3	Zn	0.424950	1.746494	0.368775
Zn4	Zn	0.666927	1.762626	0.578517
O5	O	0.536649	1.859421	0.465620
O6	O	0.406921	2.145761	0.521197
O7	O	0.655827	1.914860	0.179324
O8	O	0.198834	1.776472	0.394453
O9	O	0.616697	2.133880	0.367124
O10	O	0.169186	1.942420	0.536746
O11	O	0.475699	1.760793	0.191105
O12	O	0.472600	1.573095	0.410032
O13	O	0.611248	1.803968	0.751928
O14	O	0.650379	1.584948	0.564129
O15	O	0.403821	1.958063	0.740124
O16	O	0.890462	1.930503	0.382703
O17	O	0.888113	1.788288	0.548580
C18	C	0.565522	1.533506	0.490564
C19	C	0.577909	1.394081	0.501265
C20	C	0.946528	1.859407	0.465640
C21	C	1.125172	1.859438	0.465617
C22	C	0.502677	1.884619	0.792815
C23	C	0.488200	1.895356	0.932246
C24	C	0.507664	2.186608	0.440580
C25	C	0.495312	2.326036	0.429909
C26	C	0.570369	1.834393	0.139693
C27	C	0.584380	1.823899	0.000244
H28	H	0.658115	1.345665	0.570541
H29	H	0.677804	1.754509	0.951792
H30	H	0.394780	1.964759	0.980704
H31	H	0.415123	1.374445	0.360630
