data_functionalizedCrystal
_audit_creation_method	'MofGen! by Chris Wilmer'
_symmetry_space_group_name_H-M	'P1'
_symmetry_Int_Tables_number	1
_symmetry_cell_setting	triclinic
loop_
_symmetry_equiv_pos_as_xyz
  x,y,z
_cell_length_a	27.732048
_cell_length_b	14.044190
_cell_length_c	13.101039
_cell_angle_alpha	93.663707
_cell_angle_beta	86.675896
_cell_angle_gamma	87.917216
loop_
_atom_site_label
_atom_site_type_symbol
_atom_site_fract_x
_atom_site_fract_y
_atom_site_fract_z
O1	O	0.648646	0.107454	-0.085092
O2	O	0.508658	0.124591	-0.085124
O3	O	0.576549	-0.021930	-0.085088
O4	O	0.580756	0.253975	-0.085128
O5	O	0.571679	-0.011400	0.085339
O6	O	0.503788	0.135121	0.085303
O7	O	0.643776	0.117984	0.085336
Zn8	Zn	0.573009	0.128224	0.112378
Zn9	Zn	0.579426	0.114351	-0.112167
O10	O	0.575886	0.264505	0.085300
C11	C	0.572274	-0.051953	0.000128
C12	C	0.566785	-0.157098	0.000136
C13	C	0.488200	0.129496	0.000086
C14	C	0.434494	0.128412	0.000074
C15	C	0.595677	-0.407810	0.000102
C16	C	0.556760	-0.349611	0.000100
C17	C	0.562339	-0.242487	0.000120
C18	C	0.590099	-0.514943	0.000082
C19	C	0.099422	0.208179	0.000107
C20	C	-0.102426	0.204161	0.000117
O21	O	-0.130259	0.277103	0.000151
N22	N	-0.125629	0.117279	0.000127
C23	C	-0.098366	0.031397	0.000142
O24	O	-0.122733	-0.042593	0.000162
C25	C	0.103482	0.035417	0.000140
C26	C	0.126682	0.122303	0.000119
C27	C	0.122623	0.295059	0.000087
C28	C	0.173082	0.296062	0.000079
C29	C	0.200341	0.210186	0.000091
C30	C	0.177141	0.123307	0.000111
C31	C	0.130743	-0.050464	0.000162
C32	C	0.181208	-0.049451	0.000164
C33	C	0.204408	0.037435	0.000143
C34	C	0.254859	0.038434	0.000115
N35	N	0.278062	0.125315	0.000104
C36	C	0.250803	0.211192	0.000092
C37	C	-0.204339	0.029292	0.000141
C38	C	-0.254800	0.028287	0.000140
C39	C	-0.258857	0.201051	0.000117
C40	C	-0.208394	0.202055	0.000111
C41	C	-0.181136	0.116174	0.000131
C42	C	0.356771	0.213292	0.000074
C43	C	0.407235	0.214288	0.000062
C44	C	0.411287	0.041524	0.000091
C45	C	0.360828	0.040528	0.000098
C46	C	0.333571	0.126420	0.000093
O47	O	0.282722	-0.034468	0.000092
O48	O	0.275178	0.285172	0.000095
C49	C	0.048963	0.207176	0.000115
C50	C	0.025763	0.120296	0.000135
C51	C	0.053022	0.034420	0.000147
C52	C	-0.024699	0.119291	0.000134
C53	C	-0.051958	0.205167	0.000122
C54	C	-0.028755	0.292049	0.000111
C55	C	0.021704	0.293052	0.000103
C56	C	0.029820	-0.052461	0.000157
C57	C	-0.020640	-0.053458	0.000164
C58	C	-0.047899	0.032419	0.000152
C59	C	0.664235	0.113079	0.000124
C60	C	0.717941	0.114163	0.000128
C61	C	0.580161	0.294527	0.000081
C62	C	0.585650	0.399672	0.000067
N63	N	0.568633	0.137692	0.265624
N64	N	0.583805	0.104875	-0.265413
C65	C	0.562680	0.150582	0.474664
C66	C	0.589757	0.091988	0.525554
C67	C	0.586444	0.099161	0.641871
C68	C	0.565992	0.143411	0.358337
H69	H	0.633183	-0.377184	0.000121
H70	H	0.426122	0.285044	0.000045
O71	O	0.512045	-0.386295	0.000131
C72	C	0.465647	-0.528074	0.000041
C73	C	0.516311	-0.486650	0.000027
H74	H	0.469079	-0.609218	-0.000065
H75	H	0.443133	-0.498508	0.071383
H76	H	0.447219	-0.507158	-0.071264
H77	H	0.534780	-0.507551	0.071284
H78	H	0.538789	-0.516215	-0.071362
O79	O	0.330372	0.296810	0.000017
C80	C	0.331686	0.468275	0.000034
C81	C	0.361641	0.373763	0.000085
H82	H	0.356954	0.530517	0.000110
H83	H	0.310007	0.467783	-0.071307
H84	H	0.305914	0.476492	0.071341
H85	H	0.387439	0.365485	-0.071174
H86	H	0.383288	0.374297	0.071472
H87	H	0.537013	0.206129	0.518447
H88	H	0.191967	0.366814	0.000062
H89	H	-0.050958	0.361972	0.000097
O90	O	0.096222	0.378570	0.000027
C91	C	0.097539	0.550035	0.000045
C92	C	0.127492	0.455521	0.000101
H93	H	0.122808	0.612276	0.000126
H94	H	0.075863	0.549545	-0.071300
H95	H	0.071765	0.558253	0.071348
H96	H	0.153293	0.447242	-0.071154
H97	H	0.149136	0.456053	0.071492
O98	O	0.207615	-0.132970	0.000132
C99	C	0.206306	-0.304429	0.000223
C100	C	0.176345	-0.209919	0.000240
H101	H	0.181037	-0.366666	0.000332
H102	H	0.232054	-0.312756	-0.071121
H103	H	0.228013	-0.303822	0.071526
H104	H	0.154609	-0.210459	-0.071015
H105	H	0.150628	-0.201628	0.071631
O106	O	0.338232	-0.043805	0.000247
C107	C	0.281129	-0.139777	0.088610
C108	C	0.306671	-0.044220	0.088544
H109	H	0.255614	-0.140152	0.160002
H110	H	0.259601	-0.148991	0.017345
H111	H	0.309294	-0.200967	0.088563
H112	H	0.278538	0.017026	0.088627
H113	H	0.328208	-0.035090	0.159803
H114	H	-0.189509	0.272806	0.000099
O115	O	-0.285389	0.284404	-0.000028
C116	C	-0.342184	0.378099	-0.088351
C117	C	-0.312169	0.283658	-0.088312
H118	H	-0.363835	0.377536	-0.159732
H119	H	-0.367976	0.386350	-0.017075
H120	H	-0.316930	0.440363	-0.088304
H121	H	-0.337386	0.221338	-0.088395
H122	H	-0.286372	0.275490	-0.159582
O123	O	-0.277258	-0.056196	0.000194
C124	C	-0.267893	-0.227451	0.000161
C125	C	-0.242401	-0.131837	0.000117
H126	H	-0.239722	-0.288633	0.000077
H127	H	-0.293436	-0.227902	0.071502
H128	H	-0.289396	-0.236600	-0.071145
H129	H	-0.220872	-0.122626	0.071374
H130	H	-0.216886	-0.131429	-0.071272
H131	H	0.615426	0.036439	0.481765
O132	O	-0.177808	-0.054088	0.000014
C133	C	-0.115992	-0.158718	-0.088309
C134	C	-0.145993	-0.064253	-0.088273
H135	H	-0.090270	-0.166976	-0.159692
H136	H	-0.094266	-0.158193	-0.017035
H137	H	-0.141261	-0.220958	-0.088256
H138	H	-0.120760	-0.001962	-0.088362
H139	H	-0.167725	-0.064861	-0.159540
O140	O	0.108155	-0.134797	0.000323
C141	C	0.051052	-0.230772	0.088680
C142	C	0.076589	-0.135210	0.088613
H143	H	0.025533	-0.231146	0.160066
H144	H	0.029528	-0.239995	0.017409
H145	H	0.079219	-0.291956	0.088645
H146	H	0.048455	-0.073969	0.088684
H147	H	0.098122	-0.126071	0.159878
O148	O	0.437828	-0.041838	-0.000031
C149	C	0.499664	-0.146440	-0.088328
C150	C	0.469645	-0.051998	-0.088315
H151	H	0.525387	-0.154695	-0.159709
H152	H	0.521389	-0.145882	-0.017052
H153	H	0.474408	-0.208699	-0.088262
H154	H	0.494866	0.010313	-0.088418
H155	H	0.447914	-0.052639	-0.159585
O156	O	-0.043114	-0.137935	0.000046
C157	C	-0.052582	-0.291347	-0.088235
C158	C	-0.027090	-0.195733	-0.088229
H159	H	-0.039644	-0.338095	-0.159608
H160	H	-0.043674	-0.329398	-0.016951
H161	H	-0.093331	-0.277299	-0.088178
H162	H	0.013665	-0.209695	-0.088321
H163	H	-0.036037	-0.157711	-0.159506
H164	H	0.040589	0.363804	0.000088
H165	H	0.052009	-0.122393	0.000169
