data_functionalizedCrystal
_audit_creation_method	'MofGen! by Chris Wilmer'
_symmetry_space_group_name_H-M	'P1'
_symmetry_Int_Tables_number	1
_symmetry_cell_setting	triclinic
loop_
_symmetry_equiv_pos_as_xyz
  x,y,z
_cell_length_a	19.077105
_cell_length_b	19.077068
_cell_length_c	19.076919
_cell_angle_alpha	94.470751
_cell_angle_beta	90.076224
_cell_angle_gamma	90.115316
loop_
_atom_site_label
_atom_site_type_symbol
_atom_site_fract_x
_atom_site_fract_y
_atom_site_fract_z
Zn1	Zn	1.044048	-0.340450	-0.453500
Zn2	Zn	1.043962	-0.453600	-0.340340
Zn3	Zn	0.931660	-0.331023	-0.330931
Zn4	Zn	0.921801	-0.453176	-0.453077
O5	O	0.985368	-0.394562	-0.394462
O6	O	1.142196	-0.359583	-0.442604
O7	O	1.033154	-0.433572	-0.240616
O8	O	0.950731	-0.233799	-0.343429
O9	O	1.142133	-0.442714	-0.359466
O10	O	1.033302	-0.240725	-0.433479
O11	O	0.950647	-0.343516	-0.233703
O12	O	0.832193	-0.343104	-0.343019
O13	O	0.933928	-0.441990	-0.551609
O14	O	0.824949	-0.432849	-0.432759
O15	O	1.023742	-0.359171	-0.551919
O16	O	1.023594	-0.552019	-0.359056
O17	O	0.933844	-0.551707	-0.441883
C18	C	0.803119	-0.386908	-0.386822
C19	C	0.725151	-0.383651	-0.383571
C20	C	0.977658	-0.577398	-0.401461
C21	C	0.974423	-0.655619	-0.404482
C22	C	0.684769	-0.428912	-0.428699
C23	C	0.611510	-0.425842	-0.425647
C24	C	0.578634	-0.377515	-0.377464
C25	C	0.619022	-0.332250	-0.332335
C26	C	0.692280	-0.335317	-0.335390
C27	C	0.359940	-0.363323	-0.363326
C28	C	0.286677	-0.360262	-0.360273
C29	C	0.279170	-0.453853	-0.453586
C30	C	0.352429	-0.456918	-0.456635
C31	C	0.392810	-0.411651	-0.411508
N32	N	0.503752	-0.374378	-0.374342
N33	N	0.467691	-0.414785	-0.414634
C34	C	1.019665	-0.692509	-0.362816
C35	C	1.016626	-0.766007	-0.365661
C36	C	0.968342	-0.802612	-0.410169
C37	C	0.923098	-0.765717	-0.451839
C38	C	0.926141	-0.692221	-0.448997
C39	C	0.954231	-1.022406	-0.423292
C40	C	0.951190	-1.095907	-0.426130
C41	C	1.044720	-1.096192	-0.339952
C42	C	1.047755	-1.022695	-0.337111
C43	C	1.002514	-0.985806	-0.378784
N44	N	0.965233	-0.877738	-0.413077
N45	N	1.005627	-0.910681	-0.375880
C46	C	1.168328	-0.402247	-0.402132
C47	C	1.246295	-0.405522	-0.405400
C48	C	0.977745	-0.401585	-0.578012
C49	C	0.974497	-0.404578	-0.656230
C50	C	0.993126	-0.211015	-0.387451
C51	C	0.996432	-0.132798	-0.384464
C52	C	1.019730	-0.362866	-0.693140
C53	C	1.016669	-0.365675	-0.766634
C54	C	0.968378	-0.410200	-0.803216
C55	C	0.923140	-0.451913	-0.766301
C56	C	0.926198	-0.449100	-0.692809
C57	C	0.954216	-0.423233	-1.022998
C58	C	0.951163	-0.426044	-1.096496
C59	C	1.044691	-0.339805	-1.096823
C60	C	1.047748	-0.337000	-1.023329
C61	C	1.002507	-0.378710	-0.986421
N62	N	0.965250	-0.413073	-0.878339
N63	N	1.005632	-0.375832	-0.911299
C64	C	0.993003	-0.387518	-0.211626
C65	C	0.996396	-0.384333	-0.133406
H66	H	0.711530	-0.468267	-0.467932
H67	H	1.087072	-0.992892	-0.300869
O68	O	1.094583	-0.293631	-0.987833
C69	C	1.081465	-0.223548	-1.002502
H70	H	1.024733	-0.218430	-1.020208
H71	H	1.118064	-0.208373	-1.046051
C72	C	1.164013	-0.180695	-0.914035
C73	C	1.094331	-0.174406	-0.935776
H74	H	1.171952	-0.150380	-0.872876
H75	H	1.172852	-0.227911	-0.904153
H76	H	1.194504	-0.168050	-0.950331
H77	H	1.063842	-0.187059	-0.899484
H78	H	1.085487	-0.127191	-0.945650
O79	O	0.876325	-0.495243	-0.801875
C80	C	0.912570	-0.543989	-0.847810
H81	H	0.968554	-0.549810	-0.828147
H82	H	0.913591	-0.524464	-0.902780
C83	C	0.806400	-0.608596	-0.874443
C84	C	0.875158	-0.615751	-0.850290
H85	H	0.783322	-0.652862	-0.875976
H86	H	0.781980	-0.575754	-0.843498
H87	H	0.807260	-0.592324	-0.920249
H88	H	0.874297	-0.632014	-0.804482
H89	H	0.899577	-0.648597	-0.881227
H90	H	0.392810	-0.326468	-0.326576
O91	O	0.731538	-0.291283	-0.291650
C92	C	0.774179	-0.249214	-0.331818
H93	H	0.749992	-0.246151	-0.386167
H94	H	0.828685	-0.273390	-0.337355
C95	C	0.809510	-0.178503	-0.228050
C96	C	0.779799	-0.174736	-0.294800
H97	H	0.812980	-0.132562	-0.205215
H98	H	0.780784	-0.206847	-0.200987
H99	H	0.854928	-0.198652	-0.232673
H100	H	0.734379	-0.154596	-0.290176
H101	H	0.808518	-0.146387	-0.321862
O102	O	0.876215	-0.801380	-0.495013
C103	C	0.883239	-0.874162	-0.488600
H104	H	0.908096	-0.883092	-0.435664
H105	H	0.917963	-0.898134	-0.532740
C106	C	0.779901	-0.898248	-0.558492
C107	C	0.810424	-0.909217	-0.493472
H108	H	0.734986	-0.919873	-0.561501
H109	H	0.775169	-0.849214	-0.562816
H110	H	0.808844	-0.918226	-0.595269
H111	H	0.781486	-0.889232	-0.456698
H112	H	0.815150	-0.958248	-0.489143
O113	O	1.088643	-1.132137	-0.299553
C114	C	1.075598	-1.204855	-0.311592
H115	H	1.049903	-1.216000	-0.365300
H116	H	1.039155	-1.222603	-0.269059
C117	C	1.176845	-1.231572	-0.243680
C118	C	1.145291	-1.245261	-0.309648
H119	H	1.219834	-1.256497	-0.242478
H120	H	1.185633	-1.182580	-0.235566
H121	H	1.146469	-1.246361	-0.208243
H122	H	1.175663	-1.230463	-0.345083
H123	H	1.136510	-1.294251	-0.317768
H124	H	0.592249	-0.292898	-0.293106
O125	O	1.066630	-0.657064	-0.319563
C126	C	1.105898	-0.705388	-0.283386
H127	H	1.104938	-0.758967	-0.314340
H128	H	1.082147	-0.710130	-0.229149
C129	C	1.183348	-0.613586	-0.237301
C130	C	1.182175	-0.679391	-0.275323
H131	H	1.230399	-0.597550	-0.232324
H132	H	1.156892	-0.581029	-0.261672
H133	H	1.163553	-0.617547	-0.192108
H134	H	1.201962	-0.675428	-0.320518
H135	H	1.208637	-0.711948	-0.250959
H136	H	0.246283	-0.490707	-0.490327
H137	H	1.053504	-0.331711	-0.796682
H138	H	0.911879	-1.125710	-0.462386
O139	O	1.060737	-0.801833	-0.325345
C140	C	1.102574	-0.847662	-0.369065
H141	H	1.105331	-0.827779	-0.423820
H142	H	1.078574	-0.902604	-0.372673
C143	C	1.173585	-0.874782	-0.270732
C144	C	1.176976	-0.850359	-0.337981
H145	H	1.219479	-0.876450	-0.251558
H146	H	1.145397	-0.843909	-0.241276
H147	H	1.153582	-0.920566	-0.273748
H148	H	1.196970	-0.804574	-0.334963
H149	H	1.205169	-0.881225	-0.367436
H150	H	0.578633	-0.462699	-0.462394
H151	H	0.889357	-0.483058	-0.662757
H152	H	0.917392	-0.992377	-0.457223
H153	H	0.889301	-0.662185	-0.482927
O154	O	0.910207	-0.463643	-0.987106
C155	C	0.868379	-0.420043	-0.941153
H156	H	0.865468	-0.365287	-0.961009
H157	H	0.892489	-0.416392	-0.886273
C158	C	0.797627	-0.518564	-0.913880
C159	C	0.794047	-0.451314	-0.938271
H160	H	0.751776	-0.537855	-0.912099
H161	H	0.825808	-0.547939	-0.944837
H162	H	0.817721	-0.515513	-0.868149
H163	H	0.773961	-0.454367	-0.984004
H164	H	0.765860	-0.421940	-0.907321
O165	O	1.066661	-0.319554	-0.657714
C166	C	1.105939	-0.283353	-0.706056
H167	H	1.075130	-0.281716	-0.757144
H168	H	1.157799	-0.311659	-0.717093
C169	C	1.158248	-0.209794	-0.612193
C170	C	1.120405	-0.207779	-0.674938
H171	H	1.167174	-0.163178	-0.592998
H172	H	1.131788	-0.234185	-0.579623
H173	H	1.201460	-0.233386	-0.621400
H174	H	1.077190	-0.184195	-0.665729
H175	H	1.146858	-0.183382	-0.707505
H176	H	1.081523	-0.305846	-1.126882
O177	O	0.904186	-0.469312	-1.131923
C178	C	0.864923	-0.505537	-1.083589
H179	H	0.865887	-0.474606	-1.029998
H180	H	0.888673	-0.559763	-1.078890
C181	C	0.787463	-0.551627	-1.175353
C182	C	0.788643	-0.513635	-1.109533
H183	H	0.740411	-0.556626	-1.191358
H184	H	0.813917	-0.527224	-1.207918
H185	H	0.807258	-0.596812	-1.171428
H186	H	0.768856	-0.468449	-1.113461
H187	H	0.762184	-0.538031	-1.076970
H188	H	0.379191	-0.496273	-0.495869
H189	H	0.259912	-0.320900	-0.321040
