data_functionalizedCrystal
_audit_creation_method	'MofGen! by Chris Wilmer'
_symmetry_space_group_name_H-M	'P1'
_symmetry_Int_Tables_number	1
_symmetry_cell_setting	triclinic
loop_
_symmetry_equiv_pos_as_xyz
  x,y,z
_cell_length_a	22.863218
_cell_length_b	22.862586
_cell_length_c	22.858745
_cell_angle_alpha	60.006856
_cell_angle_beta	60.013818
_cell_angle_gamma	59.991795
loop_
_atom_site_label
_atom_site_type_symbol
_atom_site_fract_x
_atom_site_fract_y
_atom_site_fract_z
O1	O	0.081006	-0.854581	0.714630
O2	O	0.581006	-0.354581	1.214630
O3	O	0.030492	-0.665350	0.575795
O4	O	0.530492	-0.165350	1.075795
O5	O	0.150314	-0.785089	0.575706
O6	O	0.650314	-0.285089	1.075706
O7	O	-0.038816	-0.734841	0.714718
O8	O	0.461184	-0.234841	1.214718
O9	O	0.190066	-0.745348	0.615369
O10	O	0.690066	-0.245348	1.115369
O11	O	0.070244	-0.625609	0.615458
O12	O	0.570244	-0.125609	1.115458
O13	O	0.120758	-0.814840	0.754293
O14	O	0.620758	-0.314840	1.254293
Zn15	Zn	0.101812	-0.713914	0.691173
Zn16	Zn	0.601812	-0.213914	1.191173
Zn17	Zn	0.049438	-0.766275	0.638915
Zn18	Zn	0.549438	-0.266275	1.138915
O19	O	0.000936	-0.695100	0.754381
O20	O	0.500936	-0.195100	1.254381
N21	N	0.137558	-0.678184	0.726840
N22	N	0.637558	-0.178184	1.226840
N23	N	0.013698	-0.802011	0.603247
N24	N	0.513698	-0.302011	1.103247
C25	C	0.187224	-0.518558	0.776483
C26	C	0.687224	-0.018558	1.276483
C27	C	0.187235	-0.628552	0.776467
C28	C	0.687235	-0.128552	1.276467
C29	C	0.214753	-0.601061	0.803961
C30	C	0.714753	-0.101061	1.303961
C31	C	0.334724	-0.580392	0.740801
C32	C	0.834724	-0.080392	1.240801
C33	C	0.409718	-0.605392	0.715784
C34	C	0.909718	-0.105392	1.215784
C35	C	0.409746	-0.726732	0.762051
C36	C	0.909746	-0.226732	1.262051
C37	C	0.334754	-0.701730	0.787070
C38	C	0.834754	-0.201730	1.287070
C39	C	0.205297	-0.481049	0.702756
C40	C	0.705297	0.018951	1.202756
C41	C	0.180267	-0.406048	0.677779
C42	C	0.680267	0.093952	1.177779
C43	C	0.119099	-0.406071	0.800259
C44	C	0.619099	0.093929	1.300259
C45	C	0.144128	-0.481071	0.825236
C46	C	0.644128	0.018929	1.325236
C47	C	0.113501	-0.610437	0.794610
C48	C	0.613501	-0.110437	1.294610
C49	C	0.088492	-0.635428	0.769607
C50	C	0.588492	-0.135428	1.269607
C51	C	0.210943	-0.696652	0.708337
C52	C	0.710943	-0.196652	1.208337
C53	C	0.235956	-0.671660	0.733331
C54	C	0.735956	-0.171660	1.233331
C55	C	0.113585	-0.610461	0.923980
C56	C	0.613585	-0.110461	1.423980
C57	C	0.088635	-0.635476	0.998978
C58	C	0.588635	-0.135476	1.498978
C59	C	0.211128	-0.696714	0.998930
C60	C	0.711128	-0.196714	1.498930
C61	C	0.236077	-0.671700	0.923930
C62	C	0.736077	-0.171700	1.423930
C63	C	0.187303	-0.628571	0.886457
C64	C	0.687303	-0.128571	1.386457
C65	C	0.297246	-0.628559	0.776441
C66	C	0.797246	-0.128559	1.276441
C67	C	-0.117796	-0.823430	0.581283
C68	C	0.382204	-0.323430	1.081283
C69	C	-0.007671	-0.823587	0.471446
C70	C	0.492329	-0.323587	0.971446
C71	C	-0.007879	-0.933535	0.581483
C72	C	0.492121	-0.433535	1.081483
C73	C	-0.007861	-0.823583	0.581554
C74	C	0.492139	-0.323583	1.081554
C75	C	-0.035301	-0.851035	0.553942
C76	C	0.464699	-0.351035	1.053942
N77	N	0.446162	-0.678198	0.726752
N78	N	0.946162	-0.178198	1.226752
O79	O	0.691234	-0.690164	0.550341
O80	O	1.191234	-0.190164	1.050341
O81	O	0.691462	-0.829422	0.739388
O82	O	1.191462	-0.329422	1.239388
O83	O	0.691373	-0.829102	0.619485
O84	O	1.191373	-0.329102	1.119485
O85	O	0.691323	-0.690484	0.670244
O86	O	1.191323	-0.190484	1.170244
O87	O	0.572233	-0.789455	0.659278
O88	O	1.072233	-0.289455	1.159278
O89	O	0.572322	-0.789775	0.779181
O90	O	1.072322	-0.289775	1.279181
O91	O	0.572094	-0.650517	0.590134
O92	O	1.072094	-0.150517	1.090134
Zn93	Zn	0.553292	-0.713851	0.690976
Zn94	Zn	1.053292	-0.213851	1.190976
Zn95	Zn	0.710264	-0.766088	0.638547
Zn96	Zn	1.210264	-0.266088	1.138547
O97	O	0.572183	-0.650837	0.710037
O98	O	1.072183	-0.150837	1.210037
N99	N	0.817394	-0.801741	0.602763
N100	N	1.317394	-0.301741	1.102763
N101	N	0.137538	-0.369628	0.726874
N102	N	0.637538	0.130372	1.226874
O103	O	-0.038795	-0.124419	0.714761
O104	O	0.461205	0.375581	1.214761
O105	O	0.150256	-0.124417	0.575522
O106	O	0.650256	0.375583	1.075522
O107	O	0.030331	-0.124432	0.575860
O108	O	0.530331	0.375568	1.075860
O109	O	0.081131	-0.124404	0.714423
O110	O	0.581131	0.375596	1.214423
O111	O	0.070086	-0.243584	0.615573
O112	O	0.570086	0.256416	1.115573
O113	O	0.190011	-0.243569	0.615236
O114	O	0.690011	0.256431	1.115236
O115	O	0.000960	-0.243571	0.754474
O116	O	0.500960	0.256429	1.254474
Zn117	Zn	0.101797	-0.262488	0.691160
Zn118	Zn	0.601797	0.237512	1.191160
Zn119	Zn	0.049419	-0.105500	0.638836
Zn120	Zn	0.549419	0.394500	1.138836
O121	O	0.120885	-0.243556	0.754137
O122	O	0.620885	0.256444	1.254137
N123	N	0.013669	0.001640	0.603123
N124	N	0.513669	0.501640	1.103123
N125	N	0.137749	-0.678230	1.035381
N126	N	0.637749	-0.178230	1.535381
O127	O	0.125655	-0.854547	1.280566
O128	O	0.625655	-0.354547	1.780566
O129	O	-0.013567	-0.665426	1.280590
O130	O	0.486433	-0.165426	1.780590
O131	O	-0.013245	-0.785328	1.280537
O132	O	0.486755	-0.285328	1.780537
O133	O	0.125333	-0.734644	1.280618
O134	O	0.625333	-0.234644	1.780618
O135	O	0.026456	-0.745599	1.161392
O136	O	0.526456	-0.245599	1.661392
O137	O	0.026134	-0.625697	1.161444
O138	O	0.526134	-0.125697	1.661444
O139	O	0.165355	-0.814817	1.161420
O140	O	0.665355	-0.314817	1.661420
Zn141	Zn	0.102048	-0.713949	1.142516
Zn142	Zn	0.602048	-0.213949	1.642516
Zn143	Zn	0.049740	-0.766294	1.299495
Zn144	Zn	0.549740	-0.266294	1.799495
O145	O	0.165033	-0.694915	1.161473
O146	O	0.665033	-0.194915	1.661473
N147	N	0.014038	-0.802020	1.406629
N148	N	0.514038	-0.302020	1.906629
C149	C	0.045634	-0.621635	0.576499
C150	C	0.545634	-0.121635	1.076499
C151	C	0.194019	-0.769918	0.576389
C152	C	0.694019	-0.269918	1.076389
C153	C	0.105616	-0.858555	0.753588
C154	C	0.605616	-0.358555	1.253588
C155	C	-0.042769	-0.710272	0.753698
C156	C	0.457231	-0.210272	1.253698
C157	C	0.631920	-0.828776	0.783102
C158	C	1.131920	-0.328776	1.283102
C159	C	0.631811	-0.828380	0.634616
C160	C	1.131811	-0.328380	1.134616
C161	C	0.631633	-0.651162	0.546422
C162	C	1.131633	-0.151162	1.046422
C163	C	0.631745	-0.651559	0.694907
C164	C	1.131745	-0.151559	1.194907
C165	C	0.193900	-0.183846	0.576155
C166	C	0.693900	0.316154	1.076155
C167	C	0.045437	-0.184012	0.576622
C168	C	0.545437	0.315988	1.076622
C169	C	-0.042734	-0.183994	0.753792
C170	C	0.457266	0.316006	1.253792
C171	C	0.105780	-0.183977	0.753375
C172	C	0.605780	0.316023	1.253375
C173	C	-0.012889	-0.621735	1.221020
C174	C	0.487111	-0.121735	1.721020
C175	C	-0.012483	-0.770211	1.220931
C176	C	0.487517	-0.270211	1.720931
C177	C	0.164678	-0.858508	1.220991
C178	C	0.664678	-0.358508	1.720991
C179	C	0.164280	-0.710023	1.221052
C180	C	0.664280	-0.210023	1.721052
H181	H	0.028603	-0.620718	1.029520
H182	H	0.528603	-0.120718	1.529520
H183	H	0.631558	-0.607440	0.492131
H184	H	1.131558	-0.107440	0.992131
H185	H	-0.056000	-0.781036	1.220859
H186	H	0.444000	-0.281036	1.720859
O187	O	0.216204	-0.697170	1.221196
O188	O	0.716204	-0.197170	1.721196
C189	C	0.294396	-0.731678	1.282918
C190	C	0.794396	-0.231678	1.782918
C191	C	0.235583	-0.746300	1.282854
C192	C	0.735583	-0.246300	1.782854
H193	H	0.310092	-0.771400	1.332755
H194	H	0.810092	-0.271400	1.832755
H195	H	0.273414	-0.674770	1.282978
H196	H	0.773414	-0.174770	1.782978
H197	H	0.343260	-0.738065	1.233033
H198	H	0.843260	-0.238065	1.733033
H199	H	0.186699	-0.739952	1.332730
H200	H	0.686699	-0.239952	1.832730
H201	H	0.256622	-0.803202	1.282757
H202	H	0.756622	-0.303202	1.782757
H203	H	-0.097027	-0.183996	0.797505
H204	H	0.402973	0.316004	1.297505
H205	H	0.631735	-0.608016	0.705768
H206	H	1.131735	-0.108016	1.205768
H207	H	0.116407	-0.912913	0.797192
H208	H	0.616407	-0.412913	1.297192
H209	H	0.248082	-0.183515	0.532333
H210	H	0.748082	0.316485	1.032333
H211	H	0.631832	-0.871926	0.623751
H212	H	1.131832	-0.371926	1.123751
O213	O	0.066106	-0.568598	0.887691
O214	O	0.566106	-0.068598	1.387691
C215	C	-0.058025	-0.510460	0.895655
C216	C	0.441975	-0.010460	1.395655
C217	C	-0.004339	-0.557884	0.936842
C218	C	0.495661	-0.057884	1.436842
H219	H	-0.114991	-0.501771	0.935376
H220	H	0.385009	-0.001771	1.435376
H221	H	-0.049459	-0.537924	0.860561
H222	H	0.450541	-0.037924	1.360561
H223	H	-0.049363	-0.456530	0.860529
H224	H	0.450637	0.043470	1.360529
H225	H	-0.012968	-0.611822	0.972007
H226	H	0.487032	-0.111822	1.472007
H227	H	-0.012918	-0.530364	0.971891
H228	H	0.487082	-0.030364	1.471891
H229	H	0.116656	-0.183968	0.796904
H230	H	0.616656	0.316032	1.296904
H231	H	0.250848	-0.731818	1.029432
H232	H	0.750848	-0.231818	1.529432
O233	O	-0.064969	-0.556909	1.221058
O234	O	0.435031	-0.056909	1.721058
C235	C	-0.098259	-0.438877	1.221050
C236	C	0.401741	0.061123	1.721050
C237	C	-0.039222	-0.512265	1.221024
C238	C	0.460778	-0.012265	1.721024
H239	H	-0.077459	-0.402757	1.221007
H240	H	0.422541	0.097243	1.721007
H241	H	-0.147116	-0.446352	1.270915
H242	H	0.352884	0.053648	1.770915
H243	H	-0.113895	-0.413176	1.171190
H244	H	0.386105	0.086824	1.671190
H245	H	-0.023525	-0.538007	1.270850
H246	H	0.476475	-0.038007	1.770850
H247	H	0.009597	-0.504743	1.171126
H248	H	0.509597	-0.004743	1.671126
H249	H	0.208389	-0.912821	1.220975
H250	H	0.708389	-0.412821	1.720975
H251	H	0.631977	-0.872492	0.837399
H252	H	1.131977	-0.372492	1.337399
O253	O	0.298378	-0.748534	0.821574
O254	O	0.798378	-0.248534	1.321574
C255	C	0.275459	-0.836720	0.814905
C256	C	0.775459	-0.336720	1.314905
C257	C	0.316685	-0.783730	0.775739
C258	C	0.816685	-0.283730	1.275739
H259	H	0.290257	-0.865201	0.777870
H260	H	0.790257	-0.365201	1.277870
H261	H	0.215407	-0.806316	0.830942
H262	H	0.715407	-0.306316	1.330942
H263	H	0.290231	-0.877912	0.864926
H264	H	0.790231	-0.377912	1.364926
H265	H	0.301974	-0.742526	0.725692
H266	H	0.801974	-0.242526	1.225692
H267	H	0.376727	-0.814184	0.759756
H268	H	0.876727	-0.314184	1.259756
O269	O	0.307715	-0.689338	0.887593
O270	O	0.807715	-0.189338	1.387593
C271	C	0.426577	-0.752755	0.895464
C272	C	0.926577	-0.252755	1.395464
C273	C	0.345469	-0.732820	0.936702
C274	C	0.845469	-0.232820	1.436702
H275	H	0.457125	-0.787925	0.935150
H276	H	0.957125	-0.287925	1.435150
H277	H	0.441360	-0.701886	0.860375
H278	H	0.941360	-0.201886	1.360375
H279	H	0.441292	-0.783253	0.860327
H280	H	0.941292	-0.283253	1.360327
H281	H	0.330696	-0.702340	0.971878
H282	H	0.830696	-0.202340	1.471878
H283	H	0.330730	-0.783715	0.971745
H284	H	0.830730	-0.283715	1.471745
O285	O	0.032367	-0.184073	0.524784
O286	O	0.532367	0.315927	1.024784
C287	C	-0.052768	-0.184092	0.492038
C288	C	0.447232	0.315908	0.992038
C289	C	-0.038061	-0.184025	0.550808
C290	C	0.461939	0.315975	1.050808
H291	H	-0.109713	-0.184038	0.513052
H292	H	0.390287	0.315962	1.013052
H293	H	-0.013147	-0.233981	0.476404
H294	H	0.486853	0.266019	0.976404
H295	H	-0.046344	-0.134251	0.443124
H296	H	0.453656	0.365749	0.943124
H297	H	-0.044495	-0.233833	0.599761
H298	H	0.455505	0.266167	1.099761
H299	H	-0.077680	-0.134104	0.566381
H300	H	0.422320	0.365896	1.066381
O301	O	-0.107512	-0.697554	0.805868
O302	O	0.392488	-0.197554	1.305868
C303	C	-0.171536	-0.691070	0.925254
C304	C	0.328464	-0.191070	1.425254
C305	C	-0.098169	-0.705506	0.866238
C306	C	0.401831	-0.205506	1.366238
H307	H	-0.164009	-0.697478	0.974072
H308	H	0.335991	-0.197478	1.474072
H309	H	-0.197316	-0.730813	0.940974
H310	H	0.302684	-0.230813	1.440974
H311	H	-0.207609	-0.634174	0.904379
H312	H	0.292391	-0.134174	1.404379
H313	H	-0.062041	-0.762381	0.887063
H314	H	0.437959	-0.262381	1.387063
H315	H	-0.072446	-0.665718	0.850526
H316	H	0.427554	-0.165718	1.350526
O317	O	0.016843	-0.617799	0.787325
O318	O	0.516843	-0.117799	1.287325
C319	C	-0.101979	-0.554421	0.850718
C320	C	0.398021	-0.054421	1.350718
C321	C	-0.020859	-0.574342	0.830718
C322	C	0.479141	-0.074342	1.330718
H323	H	-0.132485	-0.519270	0.885791
H324	H	0.367515	-0.019270	1.385791
H325	H	-0.116751	-0.605297	0.881287
H326	H	0.383249	-0.105297	1.381287
H327	H	-0.116756	-0.523906	0.799831
H328	H	0.383244	-0.023906	1.299831
H329	H	-0.006024	-0.604839	0.881568
H330	H	0.493976	-0.104839	1.381568
H331	H	-0.006131	-0.523440	0.800121
H332	H	0.493869	-0.023440	1.300121
H333	H	0.073825	-0.575337	0.829731
H334	H	0.573825	-0.075337	1.329731
H335	H	0.034845	-0.567275	0.532897
H336	H	0.534845	-0.067275	1.032897
H337	H	0.250621	-0.731757	0.673222
H338	H	0.750621	-0.231757	1.173222
H339	H	0.295996	-0.686402	0.718551
H340	H	0.795996	-0.186402	1.218551
H341	H	0.440232	-0.566167	0.686761
H342	H	0.940232	-0.066167	1.186761
O343	O	0.298370	-0.509286	0.730351
O344	O	0.798370	-0.009286	1.230351
C345	C	0.275337	-0.390030	0.644580
C346	C	0.775337	0.109970	1.144580
C347	C	0.316567	-0.470535	0.656313
C348	C	0.816567	0.029465	1.156313
H349	H	0.290023	-0.358678	0.584722
H350	H	0.790023	0.141322	1.084722
H351	H	0.290116	-0.371364	0.671722
H352	H	0.790116	0.128636	1.171722
H353	H	0.215302	-0.380453	0.668617
H354	H	0.715302	0.119547	1.168617
H355	H	0.376611	-0.480173	0.632274
H356	H	0.876611	0.019827	1.132274
H357	H	0.301729	-0.489161	0.629187
H358	H	0.801729	0.010839	1.129187
O359	O	0.247122	-0.517353	0.655304
O360	O	0.747122	-0.017353	1.155304
C361	C	0.305171	-0.509414	0.531182
C362	C	0.805171	-0.009414	1.031182
C363	C	0.257786	-0.468211	0.584846
C364	C	0.757786	0.031789	1.084846
H365	H	0.313820	-0.469700	0.474205
H366	H	0.813820	0.030300	0.974205
H367	H	0.277703	-0.544507	0.539778
H368	H	0.777703	-0.044507	1.039778
H369	H	0.359115	-0.544546	0.539841
H370	H	0.859115	-0.044546	1.039841
H371	H	0.203834	-0.433040	0.576219
H372	H	0.703834	0.066960	1.076219
H373	H	0.285310	-0.433163	0.576236
H374	H	0.785310	0.066837	1.076236
H375	H	0.440287	-0.786313	0.770693
H376	H	0.940287	-0.286313	1.270693
H377	H	0.194981	-0.375507	0.617742
H378	H	0.694981	0.124493	1.117742
H379	H	0.084019	-0.375548	0.839959
H380	H	0.584019	0.124452	1.339959
H381	H	0.248339	-0.780632	0.532734
H382	H	0.748339	-0.280632	1.032734
O383	O	0.126534	-0.517402	0.896882
O384	O	0.626534	-0.017402	1.396882
C385	C	0.063183	-0.509514	1.015733
C386	C	0.563183	-0.009514	1.515733
C387	C	0.083070	-0.468282	0.934616
C388	C	0.583070	0.031718	1.434616
H389	H	0.028028	-0.469819	1.046264
H390	H	0.528028	0.030181	1.546264
H391	H	0.114066	-0.544608	1.030520
H392	H	0.614066	-0.044608	1.530520
H393	H	0.032690	-0.544647	1.030465
H394	H	0.532690	-0.044647	1.530465
H395	H	0.113545	-0.433110	0.919825
H396	H	0.613545	0.066890	1.419825
H397	H	0.032161	-0.433233	0.919872
H398	H	0.532161	0.066767	1.419872
