data_functionalizedCrystal
_audit_creation_method	'MofGen! by Chris Wilmer'
_symmetry_space_group_name_H-M	'P1'
_symmetry_Int_Tables_number	1
_symmetry_cell_setting	triclinic
loop_
_symmetry_equiv_pos_as_xyz
  x,y,z
_cell_length_a	14.044220
_cell_length_b	14.044220
_cell_length_c	13.101039
_cell_angle_alpha	86.326400
_cell_angle_beta	93.671687
_cell_angle_gamma	93.188878
loop_
_atom_site_label
_atom_site_type_symbol
_atom_site_fract_x
_atom_site_fract_y
_atom_site_fract_z
O1	O	-1.272352	-0.234979	0.085111
O2	O	-1.022352	0.015021	0.335111
O3	O	-0.772352	0.265021	0.585111
O4	O	-0.522352	0.515021	0.835111
O5	O	-0.995679	-0.226675	0.085137
O6	O	-0.745679	0.023325	0.335137
O7	O	-0.495679	0.273325	0.585137
O8	O	-0.245679	0.523325	0.835137
O9	O	-1.129863	-0.092490	0.085114
O10	O	-0.879863	0.157510	0.335114
O11	O	-0.629863	0.407510	0.585114
O12	O	-0.379863	0.657510	0.835114
O13	O	-1.138168	-0.369163	0.085133
O14	O	-0.888168	-0.119163	0.335133
O15	O	-0.638168	0.130837	0.585133
O16	O	-0.388168	0.380837	0.835133
O17	O	-1.139494	-0.082850	-0.085318
O18	O	-0.889494	0.167150	0.164682
O19	O	-0.639494	0.417150	0.414682
O20	O	-0.389494	0.667150	0.664682
O21	O	-1.005310	-0.217035	-0.085295
O22	O	-0.755310	0.032965	0.164705
O23	O	-0.505310	0.282965	0.414705
O24	O	-0.255310	0.532965	0.664705
O25	O	-1.281983	-0.225339	-0.085321
O26	O	-1.031983	0.024661	0.164679
O27	O	-0.781983	0.274661	0.414679
O28	O	-0.531983	0.524661	0.664679
Zn29	Zn	-1.145176	-0.219656	-0.112367
Zn30	Zn	-0.895176	0.030344	0.137633
Zn31	Zn	-0.645176	0.280344	0.387633
Zn32	Zn	-0.395176	0.530344	0.637633
Zn33	Zn	-1.132486	-0.232357	0.112183
Zn34	Zn	-0.882486	0.017643	0.362183
Zn35	Zn	-0.632486	0.267643	0.612183
Zn36	Zn	-0.382486	0.517643	0.862183
O37	O	-1.147799	-0.359523	-0.085298
O38	O	-0.897799	-0.109523	0.164702
O39	O	-0.647799	0.140477	0.414702
O40	O	-0.397799	0.390477	0.664702
C41	C	-0.964872	-0.218219	-0.000076
C42	C	-0.714872	0.031781	0.249924
C43	C	-0.464872	0.281781	0.499924
C44	C	-0.214872	0.531781	0.749924
C45	C	-0.858729	-0.207375	-0.000066
C46	C	-0.608729	0.042625	0.249934
C47	C	-0.358729	0.292625	0.499934
C48	C	-0.108729	0.542625	0.749934
C49	C	-1.131043	-0.052049	-0.000102
C50	C	-0.881043	0.197951	0.249898
C51	C	-0.631043	0.447951	0.499898
C52	C	-0.381043	0.697951	0.749898
C53	C	-1.120198	0.054094	-0.000102
C54	C	-0.870198	0.304094	0.249898
C55	C	-0.620198	0.554094	0.499898
C56	C	-0.370198	0.804094	0.749898
N57	N	-1.123826	-0.241019	0.265433
N58	N	-0.873826	0.008981	0.515433
N59	N	-0.623826	0.258981	0.765433
N60	N	-0.373826	0.508981	1.015433
C61	C	-1.312789	-0.233794	-0.000106
C62	C	-1.062789	0.016206	0.249894
C63	C	-0.812789	0.266206	0.499894
C64	C	-0.562789	0.516206	0.749894
C65	C	-1.418932	-0.244639	-0.000109
C66	C	-1.168932	0.005361	0.249891
C67	C	-0.918932	0.255361	0.499891
C68	C	-0.668932	0.505361	0.749891
C69	C	-0.664393	-0.187548	-0.000088
C70	C	-0.414393	0.062452	0.249912
C71	C	-0.164393	0.312452	0.499912
C72	C	0.085607	0.562452	0.749912
C73	C	-0.613263	-0.264462	-0.000087
C74	C	-0.363263	-0.014462	0.249913
C75	C	-0.113263	0.235538	0.499913
C76	C	0.136737	0.485538	0.749913
C77	C	-0.505127	-0.253430	-0.000099
C78	C	-0.255127	-0.003430	0.249901
C79	C	-0.005127	0.246570	0.499901
C80	C	0.244873	0.496570	0.749901
C81	C	-0.772538	-0.198578	-0.000076
C82	C	-0.522538	0.051422	0.249924
C83	C	-0.272538	0.301422	0.499924
C84	C	-0.022538	0.551422	0.749924
C85	C	-1.146619	-0.399965	-0.000080
C86	C	-0.896619	-0.149965	0.249920
C87	C	-0.646619	0.100035	0.499920
C88	C	-0.396619	0.350035	0.749920
C89	C	-1.157463	-0.506108	-0.000073
C90	C	-0.907463	-0.256108	0.249927
C91	C	-0.657463	-0.006108	0.499927
C92	C	-0.407463	0.243892	0.749927
C93	C	-1.100371	0.248431	-0.000086
C94	C	-0.850371	0.498431	0.249914
C95	C	-0.600371	0.748431	0.499914
C96	C	-0.350371	0.998431	0.749914
C97	C	-1.177286	0.299561	-0.000090
C98	C	-0.927286	0.549561	0.249910
C99	C	-0.677286	0.799561	0.499910
C100	C	-0.427286	1.049561	0.749910
C101	C	-1.166254	0.407697	-0.000080
C102	C	-0.916254	0.657697	0.249920
C103	C	-0.666254	0.907697	0.499920
C104	C	-0.416254	1.157697	0.749920
C105	C	-1.111402	0.140285	-0.000095
C106	C	-0.861402	0.390285	0.249905
C107	C	-0.611402	0.640285	0.499905
C108	C	-0.361402	0.890285	0.749905
N109	N	-1.153843	-0.210988	-0.265617
N110	N	-0.903843	0.039012	-0.015617
N111	N	-0.653843	0.289012	0.234383
N112	N	-0.403843	0.539012	0.484383
C113	C	-1.112035	-0.252802	0.474478
C114	C	-0.862035	-0.002802	0.724478
C115	C	-0.612035	0.247198	0.974478
C116	C	-0.362035	0.497198	1.224478
C117	C	-1.165631	-0.199207	0.525345
C118	C	-0.915631	0.050793	0.775345
C119	C	-0.665631	0.300793	1.025345
C120	C	-0.415631	0.550793	1.275345
C121	C	-1.159070	-0.205764	0.641664
C122	C	-0.909070	0.044236	0.891664
C123	C	-0.659070	0.294236	1.141664
C124	C	-0.409070	0.544236	1.391664
C125	C	-1.118595	-0.246247	0.358148
C126	C	-0.868595	0.003753	0.608148
C127	C	-0.618595	0.253753	0.858148
C128	C	-0.368595	0.503753	1.108148
H129	H	-0.650701	-0.338596	-0.000077
H130	H	-0.400701	-0.088596	0.249923
H131	H	-0.150701	0.161404	0.499923
H132	H	0.099299	0.411404	0.749923
H133	H	-1.061226	-0.303606	0.518284
H134	H	-0.811226	-0.053606	0.768284
H135	H	-0.561226	0.196394	1.018284
H136	H	-0.311226	0.446394	1.268284
C137	C	-1.234269	-0.130560	0.466161
C138	C	-0.984269	0.119440	0.716161
C139	C	-0.734269	0.369440	0.966161
C140	C	-0.484269	0.619440	1.216161
N141	N	-1.285961	-0.078854	0.421579
N142	N	-1.035961	0.171146	0.671579
N143	N	-0.785961	0.421146	0.921579
N144	N	-0.535961	0.671146	1.171579
C145	C	-1.277439	0.248986	-0.000113
C146	C	-1.027439	0.498986	0.249887
C147	C	-0.777439	0.748986	0.499887
C148	C	-0.527439	0.998986	0.749887
N149	N	-1.352872	0.210888	-0.000137
N150	N	-1.102872	0.460888	0.249863
N151	N	-0.852872	0.710888	0.499863
N152	N	-0.602872	0.960888	0.749863
H153	H	-0.626956	-0.113419	-0.000099
H154	H	-0.376956	0.136581	0.249901
H155	H	-0.126956	0.386581	0.499901
H156	H	0.123044	0.636581	0.749901
C157	C	-1.000227	0.299008	-0.000090
C158	C	-0.750227	0.549008	0.249910
C159	C	-0.500227	0.799008	0.499910
C160	C	-0.250227	1.049008	0.749910
N161	N	-0.924799	0.337114	-0.000101
N162	N	-0.674799	0.587114	0.249899
N163	N	-0.424799	0.837114	0.499899
N164	N	-0.174799	1.087114	0.749899
