data_functionalizedCrystal
_audit_creation_method	'MofGen! by Chris Wilmer'
_symmetry_space_group_name_H-M	'P1'
_symmetry_Int_Tables_number	1
_symmetry_cell_setting	triclinic
loop_
_symmetry_equiv_pos_as_xyz
  x,y,z
_cell_length_a	15.944551
_cell_length_b	19.288865
_cell_length_c	17.766277
_cell_angle_alpha	90.011603
_cell_angle_beta	89.986447
_cell_angle_gamma	96.682508
loop_
_atom_site_label
_atom_site_type_symbol
_atom_site_fract_x
_atom_site_fract_y
_atom_site_fract_z
O1	O	1.114185	-0.089583	-0.062676
O2	O	0.869593	-0.100628	-0.062663
O3	O	0.998956	0.006006	-0.062655
O4	O	0.984821	-0.196217	-0.062684
O5	O	0.998934	0.006012	0.062534
O6	O	0.869570	-0.100622	0.062526
O7	O	1.114162	-0.089578	0.062512
Cu8	Cu	0.991864	-0.095100	0.073950
Cu9	Cu	0.991891	-0.095106	-0.074100
O10	O	0.984799	-0.196212	0.062505
C11	C	0.998490	0.031887	-0.000058
C12	C	0.997125	0.108994	-0.000052
C13	C	0.838289	-0.100167	-0.000067
C14	C	0.745048	-0.098792	-0.000061
C15	C	1.145466	-0.090039	-0.000085
C16	C	1.238707	-0.091414	-0.000096
C17	C	1.453296	-0.160796	-0.000089
C18	C	1.514451	-0.128580	-0.061808
C19	C	1.409423	-0.093900	-0.000086
C20	C	1.514407	-0.128559	0.061618
C21	C	1.574326	-0.096307	-0.000072
C22	C	1.469350	-0.061666	-0.061856
C23	C	1.469299	-0.061654	0.061626
C24	C	1.530437	-0.029389	-0.000109
C25	C	1.314426	-0.092516	-0.000094
C26	C	1.669322	-0.097687	-0.000069
C27	C	0.985265	-0.222092	-0.000094
C28	C	0.986630	-0.299199	-0.000105
N29	N	0.991851	-0.095095	0.178080
C30	C	1.073030	0.153490	-0.000052
C31	C	1.071747	0.225941	-0.000064
C32	C	0.994555	0.253891	-0.000060
C33	C	0.918641	0.209385	-0.000064
C34	C	0.919925	0.136936	-0.000060
C35	C	0.933866	0.362341	0.043794
C36	C	0.932584	0.434788	0.043794
C37	C	0.990589	0.477347	-0.000077
C38	C	1.049890	0.447451	-0.043939
C39	C	1.051175	0.375002	-0.043934
C40	C	0.993154	0.332449	-0.000065
C41	C	1.065108	0.600403	-0.000091
C42	C	1.063822	0.672855	-0.000108
C43	C	0.910714	0.656298	-0.000100
C44	C	0.912002	0.583848	-0.000091
C45	C	0.989201	0.555906	-0.000083
N46	N	0.991910	-0.095105	-0.178230
C47	C	1.049152	-0.047900	0.217470
C48	C	1.049157	-0.047897	0.296272
C49	C	0.991869	-0.095100	0.335681
C50	C	0.934558	-0.142298	0.296281
C51	C	0.934549	-0.142295	0.217481
C52	C	0.980624	-0.158358	0.460510
C53	C	0.980639	-0.158362	0.539309
C54	C	0.991892	-0.095109	0.578727
C55	C	1.003147	-0.031849	0.539337
C56	C	1.003138	-0.031846	0.460536
C57	C	0.991872	-0.095108	0.421126
C58	C	1.049201	-0.047907	0.703563
C59	C	1.049200	-0.047903	0.782367
C60	C	0.934604	-0.142310	0.782374
C61	C	0.934601	-0.142308	0.703572
C62	C	0.991904	-0.095107	0.664171
H63	H	1.419776	-0.216323	-0.000158
C64	C	0.871537	-0.194219	0.339632
N65	N	0.824065	-0.233324	0.372283
H66	H	1.095858	-0.009468	0.814439
C67	C	1.442509	-0.023480	-0.132430
N68	N	1.422290	0.005279	-0.185586
C69	C	1.116399	0.342119	-0.092187
N70	N	1.165524	0.317350	-0.128535
H71	H	0.887887	-0.180727	0.185408
C72	C	0.871587	-0.194235	0.825718
N73	N	0.824121	-0.233345	0.858369
H74	H	0.971446	-0.209870	0.428422
H75	H	1.563804	0.026188	-0.000132
C76	C	1.442226	-0.023463	0.132133
N77	N	1.421830	0.005297	0.185245
C78	C	1.541497	-0.166810	-0.132305
N79	N	1.561869	-0.195610	-0.185398
C80	C	1.541378	-0.166794	0.132110
N81	N	1.561689	-0.195597	0.185203
C82	C	1.112226	0.004021	0.660220
N83	N	1.159696	0.043134	0.627576
H84	H	1.135891	0.130744	-0.000048
C85	C	1.150029	0.569664	-0.000094
N86	N	1.213991	0.546513	-0.000098
C87	C	1.155251	0.274896	-0.000060
N88	N	1.218147	0.311767	-0.000054
H89	H	0.850192	0.547618	-0.000087
C90	C	1.112179	0.004029	0.174135
N91	N	1.159648	0.043144	0.141493
H92	H	1.125636	0.709084	-0.000112
H93	H	0.884294	0.459124	0.079505
H94	H	0.847863	0.679055	-0.000101
C95	C	0.833729	0.240133	-0.000054
N96	N	0.769772	0.263291	-0.000047
C97	C	1.113699	0.494261	-0.092204
N98	N	1.161758	0.529521	-0.128556
C99	C	0.870054	0.315532	0.092062
N100	N	0.821994	0.280278	0.128418
H101	H	0.858113	0.100707	-0.000059
H102	H	0.887945	-0.180741	0.671498
C103	C	1.112203	0.004016	0.339610
N104	N	1.159693	0.043114	0.372250
H105	H	0.971479	-0.209872	0.571374
H106	H	1.012301	0.019662	0.428468
C107	C	1.015524	0.037736	0.582691
N108	N	1.024847	0.090145	0.615348
