data_functionalizedCrystal
_audit_creation_method	'MofGen! by Chris Wilmer'
_symmetry_space_group_name_H-M	'P1'
_symmetry_Int_Tables_number	1
_symmetry_cell_setting	triclinic
loop_
_symmetry_equiv_pos_as_xyz
  x,y,z
_cell_length_a	33.592126
_cell_length_b	33.591377
_cell_length_c	33.588093
_cell_angle_alpha	60.004089
_cell_angle_beta	60.008299
_cell_angle_gamma	59.994549
loop_
_atom_site_label
_atom_site_type_symbol
_atom_site_fract_x
_atom_site_fract_y
_atom_site_fract_z
O1	O	0.055297	-0.581666	0.486338
O2	O	0.020882	-0.452873	0.391864
O3	O	0.102445	-0.534352	0.391775
O4	O	-0.026266	-0.500187	0.486427
O5	O	0.129510	-0.507292	0.418747
O6	O	0.047947	-0.425814	0.418835
O7	O	0.082362	-0.554606	0.513309
Cu8	Cu	0.067626	-0.487739	0.468535
Cu9	Cu	0.035618	-0.519740	0.436638
O10	O	0.000799	-0.473128	0.513398
N11	N	0.090139	-0.465235	0.490972
N12	N	0.013110	-0.542249	0.414202
C13	C	0.124394	-0.431229	0.734914
C14	C	0.334265	-0.431145	0.524799
C15	C	0.124204	-0.431200	0.524965
C16	C	0.124184	-0.221175	0.524955
C17	C	0.158017	-0.322536	0.558710
C18	C	0.158027	-0.397406	0.558711
C19	C	0.176763	-0.378688	0.577408
C20	C	0.258412	-0.364594	0.534386
C21	C	0.309454	-0.381596	0.517340
C22	C	0.309485	-0.464188	0.548836
C23	C	0.258444	-0.447186	0.565883
C24	C	0.170304	-0.297002	0.508532
C25	C	0.153260	-0.245956	0.491537
C26	C	0.111648	-0.245983	0.574901
C27	C	0.128691	-0.297029	0.591896
C28	C	0.107841	-0.385091	0.571080
C29	C	0.090813	-0.402108	0.554078
C30	C	0.174153	-0.443755	0.512351
C31	C	0.191183	-0.426739	0.529347
C32	C	0.107923	-0.385106	0.659111
C33	C	0.090955	-0.402138	0.710156
C34	C	0.174335	-0.443795	0.710087
C35	C	0.191302	-0.426764	0.659041
C36	C	0.158095	-0.397418	0.633555
C37	C	0.232909	-0.397388	0.558656
C38	C	0.105069	-0.449619	0.791057
C39	C	0.390406	-0.449193	0.505789
C40	C	0.104813	-0.449599	0.506607
C41	C	0.105125	-0.165028	0.506915
C42	C	-0.020560	-0.576246	0.169890
C43	C	-0.020889	-0.786183	0.379970
C44	C	-0.020859	-0.576235	0.380063
C45	C	-0.230772	-0.576015	0.379658
C46	C	-0.129417	-0.609898	0.346025
C47	C	-0.054587	-0.609979	0.346172
C48	C	-0.073269	-0.628671	0.327396
C49	C	-0.087401	-0.710299	0.370335
C50	C	-0.070424	-0.761345	0.387369
C51	C	0.012165	-0.761428	0.356003
C52	C	-0.004813	-0.710383	0.338967
C53	C	-0.155001	-0.622196	0.396191
C54	C	-0.206043	-0.605128	0.413125
C55	C	-0.205914	-0.563467	0.329724
C56	C	-0.154872	-0.580535	0.312790
C57	C	-0.066886	-0.559797	0.333828
C58	C	-0.049903	-0.542809	0.350903
C59	C	-0.008321	-0.626180	0.392654
C60	C	-0.025304	-0.643170	0.375585
C61	C	-0.066758	-0.559805	0.245702
C62	C	-0.049671	-0.542819	0.194658
C63	C	-0.008026	-0.626194	0.194706
C64	C	-0.025111	-0.643179	0.245752
C65	C	-0.054479	-0.609983	0.271248
C66	C	-0.054597	-0.684821	0.346135
C67	C	-0.002109	-0.556901	0.113746
C68	C	-0.002869	-0.842328	0.398966
C69	C	-0.002496	-0.556887	0.398501
C70	C	-0.286914	-0.556929	0.397631
N71	N	0.436349	-0.465146	0.490703
O72	O	0.592194	-0.469605	0.374236
O73	O	0.592389	-0.564393	0.502890
O74	O	0.592305	-0.564176	0.421300
O75	O	0.592277	-0.469822	0.455826
O76	O	0.511216	-0.537214	0.448415
O77	O	0.511300	-0.537431	0.530004
O78	O	0.511104	-0.442643	0.401350
Cu79	Cu	0.503798	-0.487575	0.468153
Cu80	Cu	0.599695	-0.519461	0.436087
O81	O	0.511188	-0.442860	0.482940
N82	N	0.667145	-0.541890	0.413532
N83	N	0.090108	-0.119085	0.490958
O84	O	-0.026275	0.036848	0.486394
O85	O	0.102381	0.036888	0.391584
O86	O	0.020751	0.036852	0.391854
O87	O	0.055356	0.036884	0.486124
O88	O	0.047821	-0.044242	0.418876
O89	O	0.129452	-0.044207	0.418606
O90	O	0.000796	-0.044246	0.513417
Cu91	Cu	0.067596	-0.051631	0.468479
Cu92	Cu	0.035582	0.044273	0.436522
O93	O	0.082426	-0.044211	0.513146
N94	N	0.013063	0.111726	0.414043
N95	N	0.090453	-0.465282	0.837001
O96	O	0.085913	-0.581648	0.992925
O97	O	-0.008857	-0.452947	0.992970
O98	O	-0.008635	-0.534562	0.992946
O99	O	0.085691	-0.500033	0.992949
O100	O	0.018365	-0.507512	0.911855
O101	O	0.018143	-0.425898	0.911878
O102	O	0.112912	-0.554598	0.911834
Cu103	Cu	0.067993	-0.487778	0.904452
Cu104	Cu	0.036063	-0.519767	1.000352
O105	O	0.112691	-0.472984	0.911857
N106	N	0.013602	-0.542269	1.067803
C107	C	0.031188	-0.423114	0.392334
C108	C	0.132194	-0.524016	0.392223
C109	C	0.072056	-0.584366	0.512840
C110	C	-0.028950	-0.483464	0.512950
C111	C	0.551868	-0.563965	0.532655
C112	C	0.551766	-0.563697	0.431617
C113	C	0.551623	-0.443070	0.371586
C114	C	0.551728	-0.443339	0.472623
C115	C	0.132090	-0.003555	0.392006
C116	C	0.031035	-0.003698	0.392374
C117	C	-0.028947	-0.003703	0.512961
C118	C	0.072143	-0.003661	0.512626
C119	C	-0.008408	-0.423209	0.952430
C120	C	-0.008128	-0.524272	0.952385
C121	C	0.112464	-0.584336	0.952374
C122	C	0.112190	-0.483267	0.952401
H123	H	0.080878	-0.361206	0.638363
O124	O	0.022212	-0.003805	0.357083
C125	C	0.010742	-0.045814	0.373905
H126	H	0.026499	-0.075153	0.404176
H127	H	-0.030547	-0.036334	0.388626
C128	C	0.013353	-0.028840	0.294325
C129	C	0.032709	-0.064877	0.331501
H130	H	0.026901	-0.040598	0.268169
H131	H	0.021078	-0.000536	0.282992
H132	H	-0.021054	-0.020943	0.306599
H133	H	0.067114	-0.072769	0.319229
H134	H	0.024990	-0.093182	0.342832
O135	O	0.551865	-0.599104	0.422802
C136	C	0.593892	-0.640201	0.428184
H137	H	0.623237	-0.628502	0.422874
H138	H	0.584452	-0.667842	0.466254
C139	C	0.576870	-0.677925	0.396333
C140	C	0.612913	-0.663556	0.389807
H141	H	0.588602	-0.692334	0.372662
H142	H	0.548554	-0.650239	0.392709
H143	H	0.569006	-0.700957	0.428059
H144	H	0.620772	-0.640520	0.358084
H145	H	0.641231	-0.691239	0.393425
O146	O	-0.043859	-0.379094	0.952467
C147	C	-0.026304	-0.348746	0.952461
H148	H	0.005004	-0.372191	0.967804
H149	H	-0.012781	-0.324117	0.913560
C150	C	-0.106143	-0.288400	0.965430
C151	C	-0.067692	-0.317196	0.984280
H152	H	-0.131673	-0.268937	0.985056
H153	H	-0.117970	-0.308845	0.965433
H154	H	-0.094867	-0.267880	0.933013
H155	H	-0.078967	-0.337719	1.016694
H156	H	-0.055868	-0.296753	0.984284
H157	H	-0.037749	-0.531650	0.952352
O158	O	0.552000	-0.599527	0.576693
C159	C	0.594029	-0.640582	0.570226
H160	H	0.607993	-0.640021	0.531318
H161	H	0.623446	-0.639691	0.577189
C162	C	0.564187	-0.688079	0.654102
C163	C	0.581335	-0.687392	0.606316
H164	H	0.556358	-0.716954	0.676364
H165	H	0.535872	-0.660419	0.658460
H166	H	0.588704	-0.687335	0.659897
H167	H	0.556816	-0.688130	0.600519
H168	H	0.609646	-0.715053	0.601957
H169	H	-0.065895	-0.003715	0.542725
H170	H	-0.065919	-0.476185	0.542670
H171	H	0.330218	-0.354891	0.497577
H172	H	0.023834	-0.386116	0.362662
O173	O	0.551571	-0.407625	0.327475
C174	C	0.551536	-0.425177	0.297144
H175	H	0.566934	-0.466709	0.310323
H176	H	0.512620	-0.412816	0.298508
C177	C	0.564355	-0.353932	0.228179
C178	C	0.583271	-0.404943	0.244364
H179	H	0.583928	-0.341449	0.195621
H180	H	0.564376	-0.342106	0.248613
H181	H	0.531925	-0.343638	0.229319
H182	H	0.615697	-0.415236	0.243229
H183	H	0.583255	-0.416770	0.223928
H184	H	0.079554	-0.003651	0.542242
H185	H	0.142219	-0.621297	0.952354
O186	O	0.147559	-0.474403	0.952307
C187	C	0.158727	-0.434905	0.910321
H188	H	0.148004	-0.431063	0.880971
H189	H	0.137689	-0.399946	0.919829
C190	C	0.227002	-0.448892	0.927312
C191	C	0.213835	-0.444176	0.891261
H192	H	0.260994	-0.454609	0.915555
H193	H	0.219476	-0.475501	0.955599
H194	H	0.209466	-0.419758	0.935231
H195	H	0.231366	-0.473311	0.883347
H196	H	0.221365	-0.417571	0.862972
O197	O	0.042199	-0.390105	0.734901
C198	C	0.016532	-0.360562	0.701457
H199	H	0.040851	-0.341997	0.665061
H200	H	0.005516	-0.384110	0.696041
C201	C	-0.059345	-0.344360	0.766108
C202	C	-0.029477	-0.321555	0.721408
H203	H	-0.087727	-0.320300	0.778415
H204	H	-0.042054	-0.364265	0.788640
H205	H	-0.068520	-0.363983	0.761589
H206	H	-0.020298	-0.301937	0.725929
H207	H	-0.046769	-0.301645	0.698877
O208	O	0.080745	-0.628505	0.548258
C209	C	0.047301	-0.650174	0.561392
H210	H	0.013528	-0.620648	0.551634
H211	H	0.064961	-0.676723	0.540859
C212	C	0.074019	-0.714130	0.628640
C213	C	0.032535	-0.677865	0.616660
H214	H	0.064912	-0.731214	0.662732
H215	H	0.096552	-0.699533	0.619791
H216	H	0.088731	-0.736250	0.611526
H217	H	0.017828	-0.655744	0.633770
H218	H	0.009999	-0.692460	0.625514
H219	H	0.551722	-0.413701	0.480010
O220	O	0.176328	-0.532771	0.356823
C221	C	0.206631	-0.580683	0.374435
H222	H	0.193409	-0.593598	0.415966
H223	H	0.205288	-0.605899	0.362088
C224	C	0.275647	-0.565648	0.303242
C225	C	0.259410	-0.581509	0.354251
H226	H	0.308204	-0.566158	0.290790
H227	H	0.255231	-0.533369	0.291375
H228	H	0.274524	-0.586663	0.292959
H229	H	0.260527	-0.560490	0.364533
H230	H	0.279827	-0.613785	0.366119
H231	H	0.201378	-0.467681	0.730833
O232	O	0.176096	-0.003249	0.356452
C233	C	0.206432	-0.003152	0.373950
H234	H	0.182986	0.012037	0.405365
H235	H	0.231247	-0.042002	0.387309
C236	C	0.266517	0.010259	0.294000
C237	C	0.237720	0.028919	0.332581
H238	H	0.285819	0.030040	0.268481
H239	H	0.246080	0.010192	0.282211
H240	H	0.287192	-0.022116	0.305138
H241	H	0.217042	0.061291	0.321444
H242	H	0.258155	0.028992	0.344368
H243	H	0.080840	-0.361208	0.594989
O244	O	0.240058	-0.438755	0.634293
C245	C	0.265726	-0.468316	0.667735
H246	H	0.241408	-0.461812	0.704130
H247	H	0.276742	-0.508298	0.673155
C248	C	0.341602	-0.463370	0.603081
C249	C	0.311735	-0.455379	0.647781
H250	H	0.369984	-0.455391	0.590772
H251	H	0.324310	-0.443456	0.580550
H252	H	0.350777	-0.496688	0.607604
H253	H	0.302556	-0.422059	0.643257
H254	H	0.329027	-0.475287	0.670311
H255	H	0.201155	-0.467643	0.488446
O256	O	0.042059	-0.390209	0.566175
C257	C	0.020905	-0.407677	0.617304
H258	H	0.049996	-0.439153	0.633728
H259	H	0.004793	-0.377061	0.632433
C260	C	-0.055463	-0.386936	0.610359
C261	C	-0.019734	-0.425599	0.630531
H262	H	-0.080533	-0.397989	0.618519
H263	H	-0.041213	-0.375166	0.575912
H264	H	-0.068885	-0.361426	0.622969
H265	H	-0.006309	-0.451105	0.617916
H266	H	-0.033983	-0.437374	0.664976
O267	O	0.239943	-0.438665	0.517245
C268	C	0.261087	-0.421170	0.466116
H269	H	0.236867	-0.416184	0.448280
H270	H	0.264849	-0.384679	0.454575
C271	C	0.341564	-0.464215	0.471858
C272	C	0.311819	-0.458094	0.449951
H273	H	0.372859	-0.486989	0.461886
H274	H	0.327320	-0.476000	0.506305
H275	H	0.344694	-0.433802	0.462239
H276	H	0.308685	-0.488505	0.459576
H277	H	0.326064	-0.446315	0.415506
O278	O	0.233691	-0.479051	0.589379
C279	C	0.246150	-0.502958	0.558145
H280	H	0.260148	-0.479710	0.518629
H281	H	0.275795	-0.539792	0.566354
C282	C	0.183610	-0.539275	0.614853
C283	C	0.200799	-0.510719	0.566319
H284	H	0.155636	-0.544064	0.619896
H285	H	0.175217	-0.523170	0.635897
H286	H	0.208319	-0.569967	0.621688
H287	H	0.176092	-0.480026	0.559486
H288	H	0.209186	-0.526819	0.545274
O289	O	0.334369	-0.512544	0.555793
C290	C	0.384889	-0.520519	0.535554
H291	H	0.391833	-0.485385	0.506295
H292	H	0.399403	-0.532281	0.565414
C293	C	0.402556	-0.603956	0.548573
C294	C	0.411086	-0.560805	0.512633
H295	H	0.418717	-0.628807	0.534436
H296	H	0.368521	-0.598584	0.562210
H297	H	0.414652	-0.613751	0.573453
H298	H	0.398985	-0.551008	0.487757
H299	H	0.445121	-0.566176	0.498991
H300	H	0.237625	-0.324046	0.528499
H301	H	0.194180	-0.317769	0.481510
H302	H	0.087777	-0.225214	0.601924
O303	O	0.165171	-0.221202	0.442780
C304	C	0.147683	-0.233665	0.421603
H305	H	0.142706	-0.270735	0.445802
H306	H	0.111189	-0.204945	0.417836
C307	C	0.190710	-0.190470	0.341148
C308	C	0.184602	-0.236002	0.370868
H309	H	0.213482	-0.191909	0.309852
H310	H	0.202492	-0.182071	0.355416
H311	H	0.160297	-0.166541	0.338015
H312	H	0.215014	-0.259928	0.374006
H313	H	0.172827	-0.244405	0.356600
O314	O	0.116730	-0.321761	0.640658
C315	C	0.087179	-0.288301	0.666303
H316	H	0.093668	-0.251906	0.641960
H317	H	0.047199	-0.282887	0.677335
C318	C	0.092174	-0.352931	0.742196
C319	C	0.100146	-0.308231	0.712299
H320	H	0.100170	-0.365225	0.770570
H321	H	0.112081	-0.375474	0.724919
H322	H	0.058856	-0.348413	0.751384
H323	H	0.133464	-0.312751	0.703107
H324	H	0.080245	-0.285689	0.729576
H325	H	-0.059677	-0.501957	0.173865
H326	H	-0.090673	-0.532769	0.266460
H327	H	-0.015108	-0.684041	0.266548
O328	O	0.020506	-0.658507	0.170018
C329	C	0.027665	-0.706438	0.203514
H330	H	0.021913	-0.706336	0.239916
H331	H	0.000496	-0.721024	0.208889
C332	C	0.087020	-0.739351	0.138960
C333	C	0.079959	-0.739227	0.183668
H334	H	0.119277	-0.759578	0.126718
H335	H	0.082196	-0.707060	0.116393
H336	H	0.064376	-0.751505	0.143446
H337	H	0.102599	-0.727067	0.179181
H338	H	0.084789	-0.771518	0.206235
H339	H	-0.059919	-0.501948	0.340854
O340	O	-0.095346	-0.527489	0.305282
C341	C	-0.102551	-0.479556	0.298044
H342	H	-0.096897	-0.479652	0.328854
H343	H	-0.075341	-0.464965	0.261713
C344	C	-0.161758	-0.446657	0.259751
C345	C	-0.154819	-0.446774	0.297596
H346	H	-0.193999	-0.426435	0.259473
H347	H	-0.156903	-0.478950	0.264626
H348	H	-0.139080	-0.434499	0.229480
H349	H	-0.177492	-0.458938	0.327867
H350	H	-0.159679	-0.414482	0.292726
H351	H	0.015526	-0.653210	0.416597
H352	H	0.021903	-0.689639	0.319262
O353	O	-0.013379	-0.691925	0.387641
C354	C	-0.030911	-0.713118	0.438760
H355	H	-0.035931	-0.688938	0.456660
H356	H	-0.067389	-0.716869	0.450234
C357	C	0.012162	-0.793563	0.432934
C358	C	0.006000	-0.763867	0.454919
H359	H	0.034929	-0.824869	0.442902
H360	H	0.023972	-0.779285	0.398494
H361	H	-0.018239	-0.796683	0.442498
H362	H	0.036400	-0.760743	0.445350
H363	H	-0.005804	-0.778146	0.489358
O364	O	0.060540	-0.786242	0.348956
C365	C	0.086936	-0.773792	0.298574
H366	H	0.061895	-0.759737	0.277431
H367	H	0.101606	-0.744189	0.287200
C368	C	0.160531	-0.836430	0.313435
C369	C	0.129777	-0.819171	0.287466
H370	H	0.186959	-0.864421	0.306583
H371	H	0.142749	-0.844816	0.347379
H372	H	0.172752	-0.811757	0.303954
H373	H	0.117553	-0.843842	0.296952
H374	H	0.147559	-0.810790	0.253524
O375	O	-0.102355	-0.786019	0.410854
C376	C	-0.126241	-0.773545	0.379593
H377	H	-0.124995	-0.736518	0.350500
H378	H	-0.107218	-0.802312	0.361366
C379	C	-0.181241	-0.816556	0.445101
C380	C	-0.179715	-0.771076	0.409370
H381	H	-0.214225	-0.815035	0.463468
H382	H	-0.165147	-0.824961	0.466161
H383	H	-0.165386	-0.840523	0.429906
H384	H	-0.195564	-0.747111	0.424566
H385	H	-0.195812	-0.762667	0.388313
O386	O	-0.130349	-0.650695	0.428539
C387	C	-0.163878	-0.657895	0.476450
H388	H	-0.200240	-0.627091	0.476301
H389	H	-0.169334	-0.694239	0.491061
C390	C	-0.099351	-0.696111	0.509431
C391	C	-0.144011	-0.658274	0.509249
H392	H	-0.087096	-0.696347	0.529664
H393	H	-0.076762	-0.691262	0.477153
H394	H	-0.103904	-0.726393	0.521606
H395	H	-0.139457	-0.627992	0.497069
H396	H	-0.166599	-0.663118	0.541526
O397	O	-0.230975	-0.617009	0.461843
C398	C	-0.281484	-0.595661	0.469663
H399	H	-0.288396	-0.562897	0.436143
H400	H	-0.295976	-0.623560	0.476428
C401	C	-0.299253	-0.619153	0.555514
C402	C	-0.307744	-0.578910	0.514347
H403	H	-0.315453	-0.608822	0.583079
H404	H	-0.265225	-0.633538	0.550247
H405	H	-0.311330	-0.642399	0.561146
H406	H	-0.295662	-0.555668	0.508713
H407	H	-0.341771	-0.564520	0.519615
O408	O	-0.230568	-0.534937	0.297376
C409	C	-0.197041	-0.527762	0.249464
H410	H	-0.160672	-0.533501	0.249618
H411	H	-0.191602	-0.554932	0.234835
C412	C	-0.261564	-0.468419	0.216492
C413	C	-0.216896	-0.475464	0.216681
H414	H	-0.273812	-0.436160	0.196269
H415	H	-0.284153	-0.473254	0.248771
H416	H	-0.257026	-0.491064	0.204302
H417	H	-0.221436	-0.452823	0.228876
H418	H	-0.194309	-0.470623	0.184404
H419	H	-0.134040	-0.570516	0.271939
H420	H	-0.127938	-0.689491	0.376175
