data_functionalizedCrystal
_audit_creation_method	'MofGen! by Chris Wilmer'
_symmetry_space_group_name_H-M	'P1'
_symmetry_Int_Tables_number	1
_symmetry_cell_setting	triclinic
loop_
_symmetry_equiv_pos_as_xyz
  x,y,z
_cell_length_a	12.827893
_cell_length_b	12.827892
_cell_length_c	11.169409
_cell_angle_alpha	90.033028
_cell_angle_beta	90.021738
_cell_angle_gamma	90.015553
loop_
_atom_site_label
_atom_site_type_symbol
_atom_site_fract_x
_atom_site_fract_y
_atom_site_fract_z
Zn1	Zn	1.597697	-0.415945	0.678574
Zn2	Zn	1.597583	-0.590732	0.477888
Zn3	Zn	1.422930	-0.416006	0.477904
Zn4	Zn	1.422924	-0.590645	0.678529
O5	O	1.510283	-0.503332	0.578224
O6	O	1.743918	-0.439141	0.651965
O7	O	1.574370	-0.567616	0.309941
O8	O	1.446164	-0.269762	0.504549
O9	O	1.743834	-0.567557	0.504522
O10	O	1.574564	-0.269717	0.651980
O11	O	1.446053	-0.439246	0.309952
O12	O	1.276693	-0.439161	0.504506
O13	O	1.446153	-0.567408	0.846485
O14	O	1.276689	-0.567468	0.651904
O15	O	1.574558	-0.439057	0.846518
O16	O	1.574364	-0.736956	0.504478
O17	O	1.446042	-0.736892	0.651888
C18	C	1.238774	-0.503312	0.578202
C19	C	1.122620	-0.503329	0.578221
C20	C	1.070811	-0.439755	0.505413
C21	C	0.950760	-0.439771	0.505431
C22	C	1.510218	-0.774842	0.578203
C23	C	1.510286	-0.890995	0.578234
C24	C	1.573859	-0.942776	0.505372
C25	C	1.573930	-1.062827	0.505402
C26	C	1.782854	-0.503352	0.578247
C27	C	1.899007	-0.503360	0.578256
C28	C	1.510367	-0.503216	0.891267
C29	C	1.510403	-0.503167	1.024667
C30	C	1.510378	-0.230762	0.578271
C31	C	1.510418	-0.114608	0.578292
C32	C	1.510260	-0.503372	0.266399
C33	C	1.510427	-0.503127	0.133000
H34	H	0.906205	-0.385339	0.443103
C35	C	1.647463	-1.122976	0.421125
C36	C	1.602200	-1.198142	0.326950
C37	C	1.675735	-1.258293	0.242670
C38	C	1.794534	-1.243278	0.252565
C39	C	1.839803	-1.168108	0.346744
C40	C	1.766268	-1.107957	0.431024
H41	H	1.514252	-1.209260	0.319621
H42	H	1.642223	-1.313939	0.172952
H43	H	1.848969	-1.287806	0.190176
H44	H	1.927751	-1.156990	0.354073
H45	H	1.799780	-1.052311	0.500742
C46	C	0.959181	-0.576897	0.662474
C47	C	0.944338	-0.568519	0.798946
C48	C	1.004521	-0.642056	0.883164
C49	C	1.079549	-0.723971	0.830909
C50	C	1.094396	-0.732353	0.694430
C51	C	1.034212	-0.658816	0.610212
H52	H	0.888795	-0.507878	0.837635
H53	H	0.993530	-0.635851	0.984195
H54	H	1.124100	-0.778408	0.893252
H55	H	1.149939	-0.792994	0.655741
H56	H	1.045203	-0.665021	0.509181
H57	H	1.455983	-1.070085	0.640671
H58	H	1.078100	-0.557773	0.640565
H59	H	1.628238	-0.898235	0.442973
C60	C	1.436825	-0.951160	0.662541
C61	C	1.354916	-1.026329	0.610393
C62	C	1.281453	-1.086491	0.694704
C63	C	1.289897	-1.071483	0.831162
C64	C	1.371809	-0.996311	0.883317
C65	C	1.445272	-0.936149	0.799007
H66	H	1.348662	-1.037441	0.509372
H67	H	1.220816	-1.142138	0.656094
H68	H	1.235515	-1.116019	0.893574
H69	H	1.378063	-0.985199	0.984339
H70	H	1.505909	-0.880502	0.837617
H71	H	1.115331	-0.385319	0.443062
