data_functionalizedCrystal
_audit_creation_method	'MofGen! by Chris Wilmer'
_symmetry_space_group_name_H-M	'P1'
_symmetry_Int_Tables_number	1
_symmetry_cell_setting	triclinic
loop_
_symmetry_equiv_pos_as_xyz
  x,y,z
_cell_length_a	23.532407
_cell_length_b	10.489741
_cell_length_c	8.965430
_cell_angle_alpha	89.999293
_cell_angle_beta	89.987061
_cell_angle_gamma	96.306040
loop_
_atom_site_label
_atom_site_type_symbol
_atom_site_fract_x
_atom_site_fract_y
_atom_site_fract_z
O1	O	0.756285	-0.154817	-0.124355
O2	O	0.590571	-0.177219	-0.124288
O3	O	0.677199	0.019705	-0.124314
O4	O	0.669657	-0.351741	-0.124329
O5	O	0.677191	0.019692	0.123765
O6	O	0.590563	-0.177232	0.123790
O7	O	0.756278	-0.154830	0.123724
Cu8	Cu	0.673420	-0.166032	0.146409
Cu9	Cu	0.673429	-0.166017	-0.146973
O10	O	0.669650	-0.351754	0.123750
C11	C	0.569347	-0.176655	-0.000240
C12	C	0.506119	-0.174940	-0.000215
C13	C	0.676625	0.067212	-0.000276
C14	C	0.674921	0.208784	-0.000277
C15	C	0.777502	-0.155394	-0.000327
C16	C	0.840730	-0.157109	-0.000363
C17	C	1.107717	-0.280718	-0.000278
C18	C	1.048306	-0.279124	-0.000289
O19	O	1.012211	-0.377182	-0.000246
N20	N	1.024904	-0.162053	-0.000301
C21	C	1.060916	-0.046568	-0.000287
O22	O	1.035555	0.053157	-0.000296
C23	C	1.120326	-0.048162	-0.000265
C24	C	1.143724	-0.165241	-0.000269
C25	C	1.131116	-0.397787	-0.000280
C26	C	1.190522	-0.399380	-0.000272
C27	C	1.226530	-0.283903	-0.000263
C28	C	1.203131	-0.166834	-0.000261
C29	C	1.156337	0.067322	-0.000241
C30	C	1.215750	0.065717	-0.000218
C31	C	1.239148	-0.051361	-0.000222
C32	C	1.298545	-0.052950	-0.000244
N33	N	1.321947	-0.170021	-0.000232
C34	C	1.285940	-0.285498	-0.000241
C35	C	0.936151	-0.043228	-0.000329
C36	C	0.876743	-0.041632	-0.000361
C37	C	0.864137	-0.274189	-0.000360
C38	C	0.923546	-0.275784	-0.000339
C39	C	0.959553	-0.160299	-0.000317
C40	C	1.410699	-0.288834	-0.000226
C41	C	1.470111	-0.290416	-0.000225
C42	C	1.482712	-0.057859	-0.000217
C43	C	1.423305	-0.056276	-0.000227
C44	C	1.387299	-0.171774	-0.000226
O45	O	1.334675	0.045056	-0.000281
O46	O	1.311308	-0.385206	-0.000212
C47	C	0.670223	-0.399260	-0.000292
C48	C	0.671927	-0.540833	-0.000300
N49	N	0.673418	-0.166042	0.352758
C50	C	0.619802	0.275092	-0.000266
C51	C	0.645836	0.368074	0.122039
C52	C	0.645857	0.368062	-0.122547
C53	C	0.700978	0.299901	0.122129
C54	C	0.700991	0.299880	-0.122567
C55	C	0.727065	0.392835	-0.000232
N56	N	0.673435	-0.165996	-0.353322
C57	C	0.633343	-0.257084	0.450076
C58	C	0.684905	-0.281180	0.549468
C59	C	0.621878	-0.141956	0.549494
C60	C	0.725006	-0.190196	0.449961
C61	C	0.661945	-0.050922	0.449978
C62	C	0.713544	-0.074969	0.549325
H63	H	1.489159	-0.385760	-0.000228
H64	H	0.724296	0.269615	-0.225991
C65	C	1.130612	0.196120	-0.000207
N66	N	1.111238	0.293139	-0.000170
H67	H	0.652214	0.046381	0.406244
H68	H	0.622531	0.398256	-0.225956
C69	C	0.587605	-0.361186	0.391184
N70	N	0.553158	-0.439599	0.346822
H71	H	1.381389	-0.382883	-0.000221
C72	C	0.562985	-0.114453	0.608551
N73	N	0.518625	-0.093747	0.653026
C74	C	0.851012	0.087164	-0.000367
N75	N	0.831633	0.184178	-0.000359
C76	C	0.788341	0.461655	-0.000162
N77	N	0.834493	0.513495	-0.000099
C78	C	0.759388	0.029064	0.607854
N79	N	0.793920	0.107412	0.651948
H80	H	0.694620	-0.378515	0.593167
C81	C	0.783912	-0.217856	0.391151
N82	N	0.828278	-0.238695	0.346851
H83	H	0.622511	0.398305	0.225457
C84	C	0.975755	0.083824	-0.000329
N85	N	1.005581	0.179519	-0.000330
H86	H	1.209568	-0.494717	-0.000276
H87	H	0.942593	-0.371120	-0.000333
C88	C	1.091516	-0.524833	-0.000285
N89	N	1.061692	-0.620532	-0.000298
H90	H	0.834808	-0.368217	-0.000361
H91	H	1.245064	0.159762	-0.000199
H92	H	1.404253	0.039059	-0.000246
C93	C	0.732452	0.259292	0.261978
N94	N	0.756155	0.228700	0.367314
H95	H	1.512040	0.036159	-0.000215
C96	C	0.558581	0.205969	-0.000073
N97	N	0.512472	0.153902	0.000081
