data_functionalizedCrystal
_audit_creation_method	'MofGen! by Chris Wilmer'
_symmetry_space_group_name_H-M	'P1'
_symmetry_Int_Tables_number	1
_symmetry_cell_setting	triclinic
loop_
_symmetry_equiv_pos_as_xyz
  x,y,z
_cell_length_a	12.594517
_cell_length_b	14.908571
_cell_length_c	14.908308
_cell_angle_alpha	90.175053
_cell_angle_beta	86.724819
_cell_angle_gamma	93.296726
loop_
_atom_site_label
_atom_site_type_symbol
_atom_site_fract_x
_atom_site_fract_y
_atom_site_fract_z
Zn1	Zn	0.555467	1.345405	-0.587648
Zn2	Zn	1.055467	1.845405	-0.087648
Zn3	Zn	0.723825	1.354019	-0.437308
Zn4	Zn	1.223825	1.854019	0.062692
Zn5	Zn	0.535023	1.203716	-0.428643
Zn6	Zn	1.035023	1.703716	0.071357
Zn7	Zn	0.722561	1.195046	-0.578960
Zn8	Zn	1.222561	1.695046	-0.078960
O9	O	0.634219	1.274546	-0.508140
O10	O	1.134219	1.774546	-0.008140
O11	O	0.586886	1.472375	-0.574967
O12	O	1.086886	1.972375	-0.074967
O13	O	0.690754	1.341314	-0.310333
O14	O	1.190754	1.841314	0.189667
O15	O	0.388792	1.222535	-0.449745
O16	O	0.888792	1.722535	0.050255
O17	O	0.710578	1.478704	-0.464513
O18	O	1.210578	1.978704	0.035487
O19	O	0.403812	1.326633	-0.566565
O20	O	0.903812	1.826633	-0.066565
O21	O	0.552041	1.230888	-0.303967
O22	O	1.052041	1.730888	0.196033
O23	O	0.550815	1.076738	-0.441321
O24	O	1.050815	1.576738	0.058679
O25	O	0.708422	1.207758	-0.705938
O26	O	1.208422	1.707758	-0.205938
O27	O	0.688598	1.070368	-0.551757
O28	O	1.188598	1.570368	-0.051757
O29	O	0.585660	1.318226	-0.712321
O30	O	1.085660	1.818226	-0.212321
O31	O	0.872601	1.332907	-0.456089
O32	O	1.372601	1.832907	0.043911
O33	O	0.871672	1.216110	-0.560159
O34	O	1.371672	1.716110	-0.060159
C35	C	0.617352	1.040928	-0.494657
C36	C	1.117352	1.540928	0.005343
C37	C	0.610163	0.940983	-0.488910
C38	C	1.110163	1.440983	0.011090
C39	C	0.740329	0.746601	-0.592954
C40	C	1.240329	1.246601	-0.092954
C41	C	0.733578	0.652694	-0.587558
C42	C	1.233578	1.152694	-0.087558
C43	C	0.589905	0.659261	-0.472725
C44	C	1.089905	1.159261	0.027275
C45	C	0.596656	0.753167	-0.478122
C46	C	1.096656	1.253167	0.021878
C47	C	0.671872	0.796834	-0.538237
C48	C	1.171872	1.296834	-0.038237
C49	C	0.678627	0.890743	-0.543629
C50	C	1.178627	1.390743	-0.043629
C51	C	0.534950	0.897307	-0.428802
C52	C	1.034950	1.397307	0.071198
C53	C	0.528199	0.803401	-0.423405
C54	C	1.028199	1.303401	0.076595
C55	C	0.356603	1.274591	-0.508158
C56	C	0.856603	1.774591	-0.008158
C57	C	0.238299	1.274610	-0.508166
C58	C	0.738299	1.774610	-0.008166
C59	C	0.177215	1.331221	-0.571707
C60	C	0.677215	1.831221	-0.071707
C61	C	0.102779	1.357928	-0.490947
C62	C	0.602779	1.857928	0.009053
C63	C	0.101938	1.247931	-0.588932
C64	C	0.601938	1.747931	-0.088932
C65	C	0.165422	1.301362	-0.427364
C66	C	0.665422	1.801362	0.072636
C67	C	0.164588	1.191323	-0.525403
C68	C	0.664588	1.691323	-0.025403
C69	C	0.090178	1.218002	-0.444584
C70	C	0.590178	1.718002	0.055416
C71	C	0.910759	1.274526	-0.508143
C72	C	1.410759	1.774526	-0.008143
C73	C	1.029072	1.274597	-0.508179
C74	C	1.529072	1.774597	-0.008179
C75	C	0.649180	1.261064	-0.742667
C76	C	1.149180	1.761064	-0.242667
C77	C	0.655556	1.255319	-0.842608
C78	C	1.155556	1.755319	-0.342608
C79	C	0.651153	1.509078	-0.521676
C80	C	1.151153	2.009078	-0.021676
C81	C	0.658369	1.609021	-0.527444
C82	C	1.158369	2.109021	-0.027444
C83	C	0.539678	1.359551	-1.037057
C84	C	1.039678	1.859551	-0.537057
C85	C	0.545665	1.354155	-1.130961
C86	C	1.045665	1.854155	-0.630961
C87	C	0.673510	1.239129	-1.124322
C88	C	1.173510	1.739129	-0.624322
C89	C	0.667523	1.244524	-1.030418
C90	C	1.167523	1.744524	-0.530418
C91	C	0.600606	1.304738	-0.986789
C92	C	1.100606	1.804738	-0.486789
C93	C	0.594626	1.310138	-0.892883
C94	C	1.094626	1.810138	-0.392883
C95	C	0.722464	1.195107	-0.886245
C96	C	1.222464	1.695107	-0.386245
C97	C	0.728451	1.189712	-0.980150
C98	C	1.228451	1.689712	-0.480150
C99	C	0.619243	1.288028	-0.274528
C100	C	1.119243	1.788028	0.225472
C101	C	0.612580	1.293947	-0.174597
C102	C	1.112580	1.793947	0.325403
H103	H	0.789321	0.611798	-0.632116
H104	H	1.289321	1.111798	-0.132116
H105	H	0.727990	1.190105	-1.159861
H106	H	1.227990	1.690105	-0.659861
N107	N	0.200779	1.098052	-0.544739
N108	N	0.700779	1.598052	-0.044739
H109	H	0.177840	1.077953	-0.605790
H110	H	0.677840	1.577953	-0.105790
H111	H	0.280952	1.098705	-0.543953
H112	H	0.780952	1.598705	-0.043953
H113	H	0.479209	0.938218	-0.384245
H114	H	0.979209	1.438218	0.115755
N115	N	0.064853	1.218037	-0.679399
N116	N	0.564853	1.718037	-0.179399
H117	H	0.016399	1.161874	-0.671865
H118	H	0.516399	1.661874	-0.171865
H119	H	0.024807	1.267233	-0.706255
H120	H	0.524807	1.767233	-0.206255
N121	N	0.800600	1.124752	-1.027207
N122	N	1.300600	1.624752	-0.527207
H123	H	0.795141	1.129644	-1.094323
H124	H	1.295141	1.629644	-0.594323
H125	H	0.876585	1.139669	-1.011607
H126	H	1.376585	1.639669	-0.511607
H127	H	0.215163	1.379144	-0.625376
H128	H	0.715163	1.879144	-0.125376
H129	H	0.485198	1.408584	-1.001534
H130	H	0.985198	1.908584	-0.501534
H131	H	0.540140	1.359168	-0.857362
H132	H	1.040140	1.859168	-0.357362
N133	N	0.066626	1.451218	-0.471618
N134	N	0.566626	1.951218	0.028382
H135	H	0.098508	1.493945	-0.519641
H136	H	0.598508	1.993945	-0.019641
H137	H	-0.013647	1.450335	-0.471162
H138	H	0.486353	1.950335	0.028838
N139	N	0.202334	1.331320	-0.336863
N140	N	0.702334	1.831320	0.163137
H141	H	0.282551	1.331155	-0.337421
H142	H	0.782551	1.831155	0.162579
H143	H	0.179260	1.394013	-0.323727
H144	H	0.679260	1.894013	0.176273
H145	H	0.528662	0.623690	-0.423788
H146	H	1.028662	1.123690	0.076212
H147	H	0.466958	0.767834	-0.374463
H148	H	0.966958	1.267834	0.125537
N149	N	0.479949	1.413282	-1.185171
N150	N	0.979949	1.913282	-0.685171
H151	H	0.528691	1.452709	-1.226534
H152	H	1.028691	1.952709	-0.726534
H153	H	0.430476	1.374449	-1.221969
H154	H	0.930476	1.874449	-0.721969
N155	N	0.040156	1.154579	-0.373344
N156	N	0.540156	1.654579	0.126656
H157	H	0.063299	1.174838	-0.312402
H158	H	0.563299	1.674838	0.187598
H159	H	-0.039975	1.154552	-0.374162
H160	H	0.460025	1.654552	0.125838
N161	N	0.788190	1.135972	-0.832044
N162	N	1.288190	1.635972	-0.332044
H163	H	0.837674	1.174739	-0.795190
H164	H	1.337674	1.674739	-0.295190
H165	H	0.739381	1.096549	-0.790734
H166	H	1.239381	1.596549	-0.290734
N167	N	0.759752	0.937846	-0.608459
N168	N	1.259752	1.437846	-0.108459
H169	H	0.802093	0.891770	-0.642304
H170	H	1.302093	1.391770	-0.142304
H171	H	0.721960	0.974423	-0.652366
H172	H	1.221960	1.474423	-0.152366
H173	H	0.801578	0.782156	-0.641898
H174	H	1.301578	1.282156	-0.141898
