data_functionalizedCrystal
_audit_creation_method	'MofGen! by Chris Wilmer'
_symmetry_space_group_name_H-M	'P1'
_symmetry_Int_Tables_number	1
_symmetry_cell_setting	triclinic
loop_
_symmetry_equiv_pos_as_xyz
  x,y,z
_cell_length_a	29.839134
_cell_length_b	18.101396
_cell_length_c	18.101389
_cell_angle_alpha	90.016209
_cell_angle_beta	89.968937
_cell_angle_gamma	89.970231
loop_
_atom_site_label
_atom_site_type_symbol
_atom_site_fract_x
_atom_site_fract_y
_atom_site_fract_z
Zn1	Zn	0.686763	0.295051	-0.418983
Zn2	Zn	0.686692	0.418876	-0.295146
Zn3	Zn	0.611637	0.295037	-0.295130
Zn4	Zn	0.611600	0.418839	-0.418920
O5	O	0.649173	0.356951	-0.357045
O6	O	0.749621	0.311497	-0.402589
O7	O	0.676722	0.402459	-0.191511
O8	O	0.621648	0.191406	-0.311578
O9	O	0.749569	0.402472	-0.311607
O10	O	0.676843	0.191416	-0.402573
O11	O	0.621580	0.311475	-0.191499
O12	O	0.548765	0.311439	-0.311518
O13	O	0.621584	0.402408	-0.522562
O14	O	0.548737	0.402395	-0.402466
O15	O	0.676807	0.311461	-0.522608
O16	O	0.676686	0.522504	-0.311546
O17	O	0.621515	0.522477	-0.402482
C18	C	0.532451	0.356912	-0.356984
C19	C	0.482516	0.356914	-0.356975
C20	C	0.649101	0.549361	-0.357025
C21	C	0.649111	0.631676	-0.357042
C22	C	0.649199	0.356932	-0.550207
C23	C	0.649210	0.356924	-0.632521
C24	C	0.125931	0.309520	-0.309785
C25	C	0.313604	0.309499	-0.309740
O26	O	0.337870	0.269140	-0.269548
N27	N	0.337071	0.356926	-0.357012
C28	C	0.313617	0.404358	-0.404303
O29	O	0.337883	0.444691	-0.444515
C30	C	0.125945	0.404374	-0.404351
C31	C	0.102480	0.356950	-0.357070
C32	C	0.102466	0.262098	-0.262508
C33	C	0.055551	0.262107	-0.262517
C34	C	0.032100	0.309537	-0.309802
C35	C	0.055565	0.356958	-0.357079
C36	C	0.102491	0.451802	-0.451645
C37	C	0.055570	0.451801	-0.451654
C38	C	0.032106	0.404376	-0.404373
C39	C	-0.014802	0.404397	-0.404373
N40	N	-0.038269	0.356970	-0.357101
C41	C	-0.014818	0.309540	-0.309815
C42	C	0.412147	0.404347	-0.404273
C43	C	0.459065	0.404344	-0.404260
C44	C	0.459049	0.309484	-0.309698
C45	C	0.412130	0.309491	-0.309708
C46	C	0.388680	0.356920	-0.357001
C47	C	-0.113344	0.309562	-0.309837
C48	C	-0.160263	0.309577	-0.309848
C49	C	-0.160243	0.404434	-0.404413
C50	C	-0.113328	0.404422	-0.404399
C51	C	-0.089879	0.356980	-0.357109
O52	O	-0.039097	0.444728	-0.444550
O53	O	-0.039092	0.269201	-0.269620
C54	C	0.172846	0.309511	-0.309776
C55	C	0.196311	0.356933	-0.357052
C56	C	0.172860	0.404362	-0.404338
C57	C	0.243229	0.356929	-0.357040
C58	C	0.266680	0.309500	-0.309754
C59	C	0.243213	0.262073	-0.262482
C60	C	0.196297	0.262081	-0.262491
C61	C	0.196327	0.451789	-0.451610
C62	C	0.243243	0.451777	-0.451597
C63	C	0.266694	0.404348	-0.404312
C64	C	0.766351	0.356990	-0.357107
C65	C	0.816286	0.357007	-0.357133
C66	C	0.649191	0.930766	-0.357085
C67	C	0.614562	0.899455	-0.414441
C68	C	0.614403	0.813837	-0.414261
C69	C	0.649151	0.782384	-0.357064
C70	C	0.636332	0.813518	-0.279010
C71	C	0.636103	0.899164	-0.279355
C72	C	0.696718	0.899124	-0.377095
C73	C	0.696444	0.813473	-0.378805
C74	C	0.649130	0.698524	-0.357047
C75	C	0.649212	1.014626	-0.357096
C76	C	0.649242	1.163789	-0.357084
C77	C	0.649231	1.081475	-0.357107
C78	C	0.649236	0.356785	-0.931612
C79	C	0.614372	0.413825	-0.900258
C80	C	0.614466	0.414089	-0.814640
C81	C	0.649223	0.356854	-0.783230
C82	C	0.696554	0.378048	-0.814345
C83	C	0.696360	0.378423	-0.899990
C84	C	0.637181	0.278425	-0.900031
C85	C	0.636127	0.278878	-0.814380
C86	C	0.649218	0.356892	-0.699370
C87	C	0.649244	0.356749	-1.015472
C88	C	0.649173	0.356916	-0.164634
C89	C	0.649249	0.356715	-0.082321
H90	H	-0.094257	0.270927	-0.271332
H91	H	0.706952	0.434722	-0.792907
N92	N	0.624504	0.925209	-0.487301
N93	N	0.633097	0.879986	-0.537555
H94	H	0.640116	0.898168	-0.589019
H95	H	0.478166	0.442969	-0.442753
N96	N	0.730051	0.328566	-0.926007
N97	N	0.753635	0.293610	-0.880910
H98	H	0.777430	0.258400	-0.899281
N99	N	0.570640	0.926530	-0.398020
N100	N	0.564730	0.968785	-0.344258
H101	H	0.533711	0.987909	-0.332658
H102	H	0.601362	0.919196	-0.262406
N103	N	0.711387	0.926162	-0.447278
N104	N	0.746720	0.962937	-0.451920
H105	H	0.757078	0.982033	-0.501489
N106	N	0.126416	0.213659	-0.214190
N107	N	0.152563	0.239647	-0.166940
H108	H	0.169475	0.205438	-0.132808
H109	H	0.262344	0.490403	-0.490098
N110	N	0.031625	0.500262	-0.499961
N111	N	0.036850	0.568589	-0.494934
H112	H	0.019939	0.602817	-0.529050
H113	H	0.601961	0.792123	-0.261758
H114	H	0.177196	0.223463	-0.223990
H115	H	0.706111	0.793122	-0.436249
H116	H	0.393059	0.442972	-0.442786
N117	N	0.730528	0.786606	-0.330224
N118	N	0.737534	0.718725	-0.324952
H119	H	0.761604	0.699751	-0.290635
H120	H	0.601296	0.262895	-0.794041
H121	H	0.723228	0.337809	-0.794003
N122	N	0.624500	0.486917	-0.788897
N123	N	0.596971	0.520725	-0.749268
H124	H	0.604070	0.572154	-0.731074
H125	H	0.722518	0.919371	-0.335320
H126	H	0.660763	0.793145	-0.235109
H127	H	-0.094222	0.443045	-0.442894
H128	H	0.177238	0.490413	-0.490117
H129	H	0.706581	0.435705	-0.919978
H130	H	0.121588	0.490421	-0.490146
N131	N	0.666360	0.925168	-0.223908
N132	N	0.671580	0.993002	-0.214282
H133	H	0.692946	1.011367	-0.175120
H134	H	0.579368	0.400826	-0.793600
N135	N	0.570210	0.397347	-0.926071
N136	N	0.563913	0.343375	-0.967880
H137	H	0.532722	0.331736	-0.986117
H138	H	-0.179366	0.270957	-0.271344
N139	N	0.624245	0.486253	-0.927254
N140	N	0.595846	0.520466	-0.964742
H141	H	0.602819	0.571620	-0.983807
N142	N	0.665653	0.222720	-0.787566
N143	N	0.688265	0.185180	-0.831995
H144	H	0.709117	0.145516	-0.813056
H145	H	0.603267	0.259118	-0.921610
N146	N	0.031593	0.213659	-0.214215
N147	N	0.052544	0.171318	-0.172004
H148	H	0.035627	0.137097	-0.137889
N149	N	0.388171	0.261044	-0.261407
N150	N	0.409120	0.218705	-0.219191
H151	H	0.392202	0.184486	-0.185076
N152	N	0.669034	0.225116	-0.925484
N153	N	0.673825	0.213984	-0.993183
H154	H	0.696323	0.176340	-1.011164
N155	N	0.483015	0.261041	-0.261399
N156	N	0.524906	0.261050	-0.261402
H157	H	0.541834	0.226837	-0.227296
H158	H	-0.179345	0.443053	-0.442908
N159	N	0.267179	0.213633	-0.214180
N160	N	0.309069	0.213641	-0.214185
H161	H	0.325998	0.179431	-0.180076
N162	N	0.624471	0.787426	-0.486862
N163	N	0.660888	0.803915	-0.516752
H164	H	0.667999	0.785268	-0.568030
H165	H	0.579177	0.793404	-0.401004
