data_functionalizedCrystal
_audit_creation_method	'MofGen! by Chris Wilmer'
_symmetry_space_group_name_H-M	'P1'
_symmetry_Int_Tables_number	1
_symmetry_cell_setting	triclinic
loop_
_symmetry_equiv_pos_as_xyz
  x,y,z
_cell_length_a	12.837943
_cell_length_b	10.540539
_cell_length_c	11.892095
_cell_angle_alpha	93.930600
_cell_angle_beta	85.689438
_cell_angle_gamma	89.677216
loop_
_atom_site_label
_atom_site_type_symbol
_atom_site_fract_x
_atom_site_fract_y
_atom_site_fract_z
O1	O	1.384471	0.322967	-0.093973
O2	O	1.082545	0.306651	-0.093980
O3	O	1.240396	0.130859	-0.093975
O4	O	1.226620	0.498759	-0.093978
O5	O	1.227234	0.145491	0.094032
O6	O	1.069383	0.321283	0.094027
O7	O	1.371309	0.337599	0.094034
Zn8	Zn	1.218257	0.331764	0.123881
Zn9	Zn	1.235597	0.312486	-0.123827
O10	O	1.213458	0.513391	0.094029
C11	C	1.037303	0.308455	0.000023
C12	C	0.922104	0.292017	0.000020
C13	C	0.682608	0.489636	0.000034
C14	C	0.574368	0.474197	0.000032
C15	C	0.597382	0.245700	0.000022
C16	C	0.705621	0.261139	0.000024
C17	C	0.748231	0.383111	0.000028
C18	C	0.856473	0.398549	0.000022
C19	C	0.879484	0.170054	0.000020
C20	C	0.771244	0.154614	0.000018
C21	C	1.232782	0.090759	0.000027
C22	C	1.229692	-0.050529	0.000020
C23	C	1.111279	-0.247002	-0.000404
C24	C	1.114382	-0.100007	0.000019
C25	C	1.277668	-0.097735	0.107383
C26	C	1.273726	-0.244704	0.107473
C27	C	1.291038	-0.261604	-0.106326
C28	C	1.292200	-0.114616	-0.107745
C29	C	1.416551	0.335795	0.000029
C30	C	1.531751	0.352232	0.000025
C31	C	1.221072	0.553491	0.000025
C32	C	1.224163	0.694779	0.000024
N33	N	1.206429	0.344921	0.292934
N34	N	1.247433	0.299320	-0.292880
C35	C	1.329731	0.207693	0.529586
C36	C	1.321471	0.216900	0.647928
C37	C	1.181647	0.372535	0.647961
C38	C	1.189906	0.363328	0.529620
C39	C	1.263952	0.280906	0.470436
C40	C	1.272215	0.271706	0.352093
C41	C	1.132387	0.427334	0.352128
C42	C	1.124127	0.436540	0.470470
H43	H	1.076106	-0.068190	-0.076943
H44	H	0.736536	0.055309	0.000028
N45	N	1.065176	0.502103	0.291704
N46	N	0.968342	0.489727	0.304934
H47	H	0.920877	0.542533	0.262258
H48	H	0.932927	0.083313	0.000008
N49	N	1.060909	-0.296671	-0.097000
N50	N	1.107614	-0.375563	-0.166654
H51	H	1.072042	-0.410647	-0.234881
H52	H	1.375034	0.157281	0.696085
N53	N	1.106012	0.456699	0.708444
N54	N	1.098645	0.464893	0.814105
H55	H	1.045227	0.524334	0.856824
H56	H	0.562663	0.146403	0.000112
H57	H	1.362068	-0.065766	0.111377
N58	N	1.047652	-0.283683	0.095637
N59	N	1.085082	-0.352515	0.164398
H60	H	1.040149	-0.378425	0.232230
N61	N	1.052451	-0.046167	0.096729
N62	N	1.006806	-0.117167	0.164127
H63	H	0.963066	-0.079144	0.232435
N64	N	1.048496	0.520714	0.530946
N65	N	1.041126	0.528921	0.636607
H66	H	0.987711	0.588371	0.679319
H67	H	1.227097	-0.271164	0.187727
N68	N	0.726139	0.614221	0.000057
N69	N	0.778420	0.654491	0.079311
H70	H	0.809164	0.742482	0.079329
H71	H	1.233527	-0.053152	0.187277
N72	N	0.899984	0.523143	0.000020
N73	N	0.841375	0.618243	0.000027
H74	H	0.872100	0.706242	0.000028
H75	H	0.520940	0.560941	0.000040
H76	H	1.356314	-0.283183	0.112346
N77	N	1.251388	-0.314290	-0.208414
N78	N	1.247543	-0.432224	-0.227360
H79	H	1.219533	-0.469436	-0.299456
H80	H	1.390028	0.140591	0.481398
H81	H	1.257157	-0.084400	-0.187169
H82	H	1.376723	-0.081663	-0.114226
N83	N	1.395594	-0.309406	-0.107229
N84	N	1.449900	-0.279024	-0.026876
H85	H	1.523741	-0.312781	-0.027505
H86	H	1.332509	0.204598	0.303907
