data_functionalizedCrystal
_audit_creation_method	'MofGen! by Chris Wilmer'
_symmetry_space_group_name_H-M	'P1'
_symmetry_Int_Tables_number	1
_symmetry_cell_setting	triclinic
loop_
_symmetry_equiv_pos_as_xyz
  x,y,z
_cell_length_a	34.408637
_cell_length_b	34.407814
_cell_length_c	34.404193
_cell_angle_alpha	60.004510
_cell_angle_beta	60.009006
_cell_angle_gamma	59.994604
loop_
_atom_site_label
_atom_site_type_symbol
_atom_site_fract_x
_atom_site_fract_y
_atom_site_fract_z
O1	O	0.053973	-0.567860	0.474801
O2	O	0.020377	-0.442124	0.382567
O3	O	0.100004	-0.521670	0.382483
O4	O	-0.025653	-0.488314	0.474886
O5	O	0.126426	-0.495253	0.408816
O6	O	0.046800	-0.415707	0.408900
O7	O	0.080396	-0.541443	0.501134
Zn8	Zn	0.067793	-0.474381	0.459198
Zn9	Zn	0.032980	-0.509186	0.424503
O10	O	0.000769	-0.461897	0.501219
N11	N	0.091552	-0.450631	0.482879
N12	N	0.009225	-0.532940	0.400823
C13	C	0.142848	-0.268847	0.534081
C14	C	0.142979	-0.399386	0.664559
C15	C	0.142862	-0.399365	0.534081
C16	C	0.273409	-0.399338	0.533986
C17	C	0.157225	-0.311914	0.548422
C18	C	0.157300	-0.385019	0.621491
C19	C	0.230339	-0.384991	0.548370
C20	C	0.157235	-0.385007	0.548422
C21	C	0.124548	-0.214028	0.515827
C22	C	0.124571	-0.417639	0.515827
C23	C	0.175526	-0.366733	0.566676
C24	C	0.353121	-0.385580	0.491988
C25	C	0.402952	-0.402180	0.475348
C26	C	0.402981	-0.482812	0.506096
C27	C	0.353151	-0.466211	0.522737
C28	C	0.136544	-0.189099	0.466839
C29	C	0.119905	-0.139265	0.450247
C30	C	0.079280	-0.139291	0.531632
C31	C	0.095918	-0.189125	0.548224
C32	C	0.075577	-0.405615	0.527900
C33	C	0.058953	-0.422228	0.511301
C34	C	0.140315	-0.462889	0.470566
C35	C	0.156941	-0.446276	0.487159
C36	C	0.075772	-0.405653	0.744326
C37	C	0.059206	-0.422280	0.794159
C38	C	0.140607	-0.462951	0.794094
C39	C	0.157172	-0.446325	0.744260
C40	C	0.124753	-0.417674	0.719377
C41	C	0.328223	-0.417595	0.515681
C42	C	-0.172390	-0.583988	0.349141
C43	C	-0.041751	-0.584138	0.218783
C44	C	-0.041941	-0.584130	0.349402
C45	C	-0.041957	-0.714607	0.349338
C46	C	-0.129326	-0.598388	0.334853
C47	C	-0.056165	-0.598473	0.261852
C48	C	-0.056282	-0.671535	0.334962
C49	C	-0.056272	-0.598469	0.334999
C50	C	-0.227205	-0.565659	0.367327
C51	C	-0.023703	-0.565882	0.367734
C52	C	-0.074511	-0.616717	0.316667
C53	C	-0.055754	-0.794298	0.391257
C54	C	-0.039181	-0.844132	0.407888
C55	C	0.041447	-0.844215	0.377269
C56	C	0.024873	-0.794381	0.360637
C57	C	-0.252183	-0.577666	0.416302
C58	C	-0.302014	-0.561001	0.432833
C59	C	-0.301886	-0.520329	0.351410
C60	C	-0.252055	-0.536994	0.334880
C61	C	-0.035709	-0.516892	0.355682
C62	C	-0.019129	-0.500308	0.372353
C63	C	0.021465	-0.581700	0.413115
C64	C	0.004884	-0.598286	0.396450
C65	C	-0.035389	-0.516907	0.139026
C66	C	-0.018707	-0.500324	0.089193
C67	C	0.021949	-0.581721	0.089240
C68	C	0.005268	-0.598303	0.139074
C69	C	-0.023402	-0.565894	0.163965
C70	C	-0.023728	-0.769425	0.367633
N71	N	0.427173	-0.450553	0.482630
O72	O	0.589997	-0.458460	0.365361
O73	O	0.590185	-0.550997	0.490963
O74	O	0.590104	-0.550786	0.411309
O75	O	0.590077	-0.458671	0.445016
O76	O	0.510940	-0.524462	0.437777
O77	O	0.511020	-0.524674	0.517432
O78	O	0.510832	-0.432136	0.391830
Zn79	Zn	0.498357	-0.474225	0.458833
Zn80	Zn	0.602660	-0.508908	0.423960
O81	O	0.510913	-0.432348	0.471484
N82	N	0.673844	-0.532580	0.400158
N83	N	0.091520	-0.115070	0.482873
O84	O	-0.025663	0.047841	0.474857
O85	O	0.099940	0.047877	0.382299
O86	O	0.020247	0.047844	0.382560
O87	O	0.054030	0.047874	0.474596
O88	O	0.046674	-0.031326	0.408942
O89	O	0.126367	-0.031293	0.408680
O90	O	0.000764	-0.031329	0.501238
Zn91	Zn	0.067761	-0.043881	0.459148
Zn92	Zn	0.032943	0.060429	0.424389
O93	O	0.080457	-0.031296	0.500977
N94	N	0.009178	0.131618	0.400665
N95	N	0.091852	-0.450680	0.818332
O96	O	0.083862	-0.567845	0.981235
O97	O	-0.008657	-0.442198	0.981276
O98	O	-0.008441	-0.521875	0.981252
O99	O	0.083646	-0.488168	0.981258
O100	O	0.017919	-0.495468	0.902085
O101	O	0.017703	-0.415791	0.902109
O102	O	0.110222	-0.541438	0.902067
Zn103	Zn	0.068148	-0.474422	0.889518
Zn104	Zn	0.033417	-0.509214	0.993825
O105	O	0.110006	-0.461761	0.902091
N106	N	0.009712	-0.532961	1.065011
C107	C	0.030439	-0.413071	0.383027
C108	C	0.129046	-0.511580	0.382922
C109	C	0.070334	-0.570496	0.500675
C110	C	-0.028274	-0.471987	0.500780
C111	C	0.550625	-0.550579	0.520021
C112	C	0.550527	-0.550317	0.421379
C113	C	0.550389	-0.432554	0.362773
C114	C	0.550491	-0.432816	0.461414
C115	C	0.128944	0.008394	0.382712
C116	C	0.030287	0.008256	0.383068
C117	C	-0.028273	0.008252	0.500793
C118	C	0.070417	0.008292	0.500470
C119	C	-0.008218	-0.413165	0.941698
C120	C	-0.007945	-0.511830	0.941653
C121	C	0.109783	-0.570471	0.941646
C122	C	0.109516	-0.471800	0.941673
H123	H	0.049370	-0.382321	0.724071
O124	O	0.079095	0.008209	0.534984
C125	C	0.117667	-0.032781	0.545888
H126	H	0.121411	-0.061440	0.535433
H127	H	0.110992	-0.046550	0.585712
H128	H	0.151789	-0.023499	0.525335
O129	O	0.131577	-0.114995	0.402670
C130	C	0.156663	-0.086166	0.390608
H131	H	0.147698	-0.078707	0.423445
H132	H	0.146029	-0.051120	0.361723
H133	H	0.196546	-0.105358	0.376905
H134	H	0.550540	-0.579254	0.414165
H135	H	0.550674	-0.579628	0.556096
H136	H	-0.064344	0.008241	0.529850
H137	H	0.550485	-0.403881	0.468626
O138	O	0.021929	-0.369963	0.348477
C139	C	0.054594	-0.348817	0.335633
H140	H	0.068533	-0.364579	0.366138
H141	H	0.036075	-0.308776	0.327862
H142	H	0.085587	-0.355996	0.302515
H143	H	0.164941	0.008624	0.353583
H144	H	0.165136	-0.518689	0.353905
O145	O	-0.042827	-0.370097	0.941733
C146	C	-0.025689	-0.340469	0.941728
H147	H	0.004875	-0.363358	0.956708
H148	H	-0.055600	-0.317668	0.964722
H149	H	-0.012486	-0.316425	0.903750
H150	H	-0.036863	-0.519031	0.941619
O151	O	0.144379	-0.613552	0.941650
C152	C	0.127251	-0.643170	0.941627
H153	H	0.086705	-0.630282	0.956624
H154	H	0.141858	-0.681306	0.964598
H155	H	0.139338	-0.641874	0.903642
O156	O	0.143987	-0.463112	0.941647
C157	C	0.126643	-0.416323	0.941672
H158	H	0.096077	-0.393800	0.926695
H159	H	0.156448	-0.400305	0.918685
H160	H	0.113380	-0.417029	0.979655
O161	O	0.078965	-0.613619	0.535177
C162	C	0.125749	-0.643134	0.517900
H163	H	0.138296	-0.630159	0.477355
H164	H	0.126400	-0.681292	0.532441
H165	H	0.150381	-0.641819	0.529934
H166	H	0.019320	-0.412483	0.814467
H167	H	-0.064365	-0.464880	0.529794
O168	O	0.550256	-0.397907	0.319744
C169	C	0.509227	-0.386875	0.311253
H170	H	0.495602	-0.418362	0.333465
H171	H	0.518401	-0.379090	0.271894
H172	H	0.480502	-0.354254	0.321533
O173	O	0.172163	-0.490791	0.818192
C174	C	0.218948	-0.497826	0.785486
H175	H	0.218826	-0.492246	0.749971
H176	H	0.242628	-0.535621	0.799858
H177	H	0.233223	-0.471301	0.780181
H178	H	0.197059	-0.456117	0.723950
O179	O	0.204529	-0.457870	0.475379
C180	C	0.216539	-0.415987	0.450304
H181	H	0.188419	-0.386055	0.433468
H182	H	0.252698	-0.422536	0.421244
H183	H	0.218212	-0.405504	0.475923
H184	H	0.023050	0.008252	0.354152
H185	H	0.049217	-0.382297	0.551240
H186	H	0.166679	-0.486211	0.447227
O187	O	0.011344	-0.410526	0.523092
C188	C	-0.013663	-0.381685	0.551949
H189	H	0.010128	-0.388041	0.570041
H190	H	-0.046895	-0.391046	0.580163
H191	H	-0.024442	-0.342647	0.528980
H192	H	-0.231954	-0.601008	0.442726
H193	H	0.423275	-0.522397	0.511838
O194	O	0.328992	-0.497323	0.545674
C195	C	0.341162	-0.520662	0.515177
H196	H	0.354826	-0.497961	0.476600
H197	H	0.308393	-0.526277	0.521081
H198	H	0.370108	-0.556619	0.523189
O199	O	0.427068	-0.371013	0.452321
C200	C	0.394381	-0.324544	0.449671
H201	H	0.358851	-0.322609	0.452963
H202	H	0.408752	-0.298205	0.414051
H203	H	0.389109	-0.315243	0.479856
H204	H	0.332825	-0.345993	0.486242
H205	H	0.055974	-0.119015	0.558014
O206	O	0.164282	-0.213267	0.435349
C207	C	0.139090	-0.201083	0.406559
H208	H	0.099229	-0.187399	0.425827
H209	H	0.148004	-0.233853	0.399022
H210	H	0.149667	-0.172145	0.371548
O211	O	0.084238	-0.213265	0.595826
C212	C	0.055389	-0.180597	0.620860
H213	H	0.061726	-0.145067	0.597094
H214	H	0.064758	-0.194999	0.654103
H215	H	0.016357	-0.175310	0.631628
H216	H	-0.028474	-0.460433	0.068892
H217	H	-0.058738	-0.490513	0.159288
H218	H	0.015032	-0.638195	0.159378
O219	O	0.049735	-0.613248	0.065112
C220	C	0.024556	-0.642010	0.077226
H221	H	-0.004490	-0.642466	0.113378
H222	H	0.050105	-0.679818	0.078965
H223	H	0.007694	-0.627007	0.049129
O224	O	-0.063494	-0.485350	0.327814
C225	C	-0.070529	-0.438554	0.320749
H226	H	-0.065008	-0.438649	0.350828
H227	H	-0.108302	-0.414864	0.320426
H228	H	-0.043966	-0.424309	0.285280
H229	H	0.044746	-0.608091	0.436494
O230	O	-0.030699	-0.452731	0.360630
C231	C	0.011196	-0.440751	0.335611
H232	H	0.042468	-0.473621	0.344661
H233	H	0.006735	-0.411860	0.346229
H234	H	0.018261	-0.427085	0.295714
H235	H	0.014660	-0.638178	0.406265
H236	H	0.081021	-0.864532	0.371574
O237	O	0.056040	-0.770275	0.337640
C238	C	0.089902	-0.782477	0.296577
H239	H	0.092234	-0.818649	0.301067
H240	H	0.126160	-0.784224	0.291197
H241	H	0.078695	-0.754428	0.264262
O242	O	-0.070358	-0.868224	0.430846
C243	C	-0.116809	-0.835512	0.433445
H244	H	-0.118743	-0.799997	0.430190
H245	H	-0.143180	-0.849880	0.469032
H246	H	-0.126065	-0.830207	0.403214
H247	H	-0.095331	-0.773979	0.396956
H248	H	-0.322118	-0.496994	0.324987
O249	O	-0.326262	-0.572746	0.480413
C250	C	-0.314124	-0.622656	0.501122
H251	H	-0.300388	-0.638726	0.472742
H252	H	-0.346927	-0.632156	0.530450
H253	H	-0.285242	-0.637445	0.516921
O254	O	-0.227867	-0.525303	0.287289
C255	C	-0.260487	-0.496416	0.262198
H256	H	-0.296029	-0.502735	0.285910
H257	H	-0.246049	-0.505765	0.228937
H258	H	-0.265762	-0.457391	0.251457
