data_functionalizedCrystal
_audit_creation_method	'MofGen! by Chris Wilmer'
_symmetry_space_group_name_H-M	'P1'
_symmetry_Int_Tables_number	1
_symmetry_cell_setting	triclinic
loop_
_symmetry_equiv_pos_as_xyz
  x,y,z
_cell_length_a	14.044220
_cell_length_b	16.109301
_cell_length_c	14.586319
_cell_angle_alpha	89.994786
_cell_angle_beta	90.001391
_cell_angle_gamma	88.325179
loop_
_atom_site_label
_atom_site_type_symbol
_atom_site_fract_x
_atom_site_fract_y
_atom_site_fract_z
O1	O	1.257643	0.200436	-0.076149
O2	O	1.757643	0.700436	0.423851
O3	O	0.981677	0.193203	-0.076172
O4	O	1.481677	0.693203	0.423828
O5	O	1.127241	0.076352	-0.076150
O6	O	1.627241	0.576352	0.423850
O7	O	1.112079	0.317286	-0.076170
O8	O	1.612079	0.817286	0.423830
O9	O	1.127231	0.076350	0.076331
O10	O	1.627231	0.576350	0.576331
O11	O	0.981666	0.193200	0.076309
O12	O	1.481666	0.693200	0.576309
O13	O	1.257633	0.200433	0.076332
O14	O	1.757633	0.700433	0.576332
Cu15	Cu	1.119649	0.196816	0.090243
Cu16	Cu	1.619649	0.696816	0.590243
Cu17	Cu	1.119661	0.196820	-0.090083
Cu18	Cu	1.619661	0.696820	0.409917
O19	O	1.112069	0.317284	0.076311
O20	O	1.612069	0.817284	0.576311
C21	C	1.126622	0.045330	0.000091
C22	C	1.626622	0.545330	0.500091
C23	C	1.124781	-0.047102	0.000092
C24	C	1.624781	0.452898	0.500092
C25	C	0.946358	0.190036	0.000066
C26	C	1.446358	0.690036	0.500066
C27	C	0.841135	0.180592	0.000058
C28	C	1.341135	0.680592	0.500058
C29	C	1.206874	-0.263266	0.000084
C30	C	1.706874	0.236734	0.500084
C31	C	1.205137	-0.350116	0.000076
C32	C	1.705137	0.149884	0.500076
C33	C	1.032429	-0.343091	0.000066
C34	C	1.532429	0.156909	0.500066
C35	C	1.034168	-0.256243	0.000067
C36	C	1.534168	0.243757	0.500067
C37	C	1.121393	-0.216333	0.000081
C38	C	1.621393	0.283667	0.500081
C39	C	1.117917	-0.390031	0.000072
C40	C	1.617917	0.109969	0.500072
C41	C	1.116032	-0.484197	0.000064
C42	C	1.616032	0.015803	0.500064
C43	C	1.123278	-0.122161	0.000087
C44	C	1.623278	0.377839	0.500087
C45	C	0.648479	0.163326	0.000077
C46	C	1.148479	0.663326	0.500077
C47	C	0.590825	0.230306	0.000075
C48	C	1.090825	0.730306	0.500075
C49	C	0.483625	0.220699	0.000086
C50	C	0.983625	0.720699	0.500086
C51	C	0.755690	0.172932	0.000066
C52	C	1.255690	0.672932	0.500066
C53	C	1.292952	0.203600	0.000093
C54	C	1.792952	0.703600	0.500093
C55	C	1.398175	0.213044	0.000095
C56	C	1.898175	0.713044	0.500095
C57	C	1.112688	0.348306	0.000068
C58	C	1.612688	0.848306	0.500068
C59	C	1.114529	0.440738	0.000061
C60	C	1.614529	0.940738	0.500061
N61	N	1.119647	0.196814	0.217075
N62	N	1.619647	0.696814	0.717075
N63	N	1.119670	0.196816	-0.216915
N64	N	1.619670	0.696816	0.283085
C65	C	1.184125	0.145093	0.452091
C66	C	1.684125	0.645093	0.952091
C67	C	1.184128	0.145092	0.548072
C68	C	1.684128	0.645092	1.048072
C69	C	1.055186	0.248539	0.548063
C70	C	1.555186	0.748539	1.048063
C71	C	1.055179	0.248536	0.452083
C72	C	1.555179	0.748536	0.952083
C73	C	1.119654	0.196814	0.404100
C74	C	1.619654	0.696814	0.904100
C75	C	1.119663	0.196816	0.596061
C76	C	1.619663	0.696816	1.096061
C77	C	1.119666	0.196814	0.700128
C78	C	1.619666	0.696814	1.200128
C79	C	1.119651	0.196815	0.300026
C80	C	1.619651	0.696815	0.800026
H81	H	1.277898	-0.230774	0.000094
H82	H	1.777898	0.269226	0.500094
H83	H	0.621976	0.294863	0.000066
H84	H	1.121976	0.794863	0.500066
C85	C	1.255049	0.088202	0.600859
C86	C	1.755049	0.588202	1.100859
H87	H	1.293448	0.057405	0.558532
H88	H	1.793448	0.557405	1.058532
H89	H	1.220972	0.051046	0.638306
H90	H	1.720972	0.551046	1.138306
H91	H	1.294498	0.121062	0.638294
H92	H	1.794498	0.621062	1.138294
H93	H	1.274744	-0.388326	0.000077
H94	H	1.774744	0.111674	0.500077
H95	H	1.002693	0.290650	0.587140
H96	H	1.502693	0.790650	1.087140
H97	H	0.617330	0.098774	0.000087
H98	H	1.117330	0.598774	0.500087
H99	H	0.961413	-0.375597	0.000056
H100	H	1.461413	0.124403	0.500056
H101	H	1.236623	0.102977	0.413025
H102	H	1.736623	0.602977	0.913025
H103	H	1.002675	0.290653	0.413006
H104	H	1.502675	0.790653	0.913006
H105	H	0.964554	-0.218029	0.000061
H106	H	1.464554	0.281971	0.500061
