data_functionalizedCrystal
_audit_creation_method	'MofGen! by Chris Wilmer'
_symmetry_space_group_name_H-M	'P1'
_symmetry_Int_Tables_number	1
_symmetry_cell_setting	triclinic
loop_
_symmetry_equiv_pos_as_xyz
  x,y,z
_cell_length_a	34.490303
_cell_length_b	34.489386
_cell_length_c	34.485816
_cell_angle_alpha	60.004462
_cell_angle_beta	60.008900
_cell_angle_gamma	59.994399
loop_
_atom_site_label
_atom_site_type_symbol
_atom_site_fract_x
_atom_site_fract_y
_atom_site_fract_z
O1	O	0.053846	-0.566517	0.473678
O2	O	0.020329	-0.441078	0.381663
O3	O	0.099768	-0.520436	0.381578
O4	O	-0.025592	-0.487159	0.473762
O5	O	0.126127	-0.494082	0.407849
O6	O	0.046689	-0.414724	0.407933
O7	O	0.080206	-0.540163	0.499949
Zn8	Zn	0.067632	-0.473259	0.458112
Zn9	Zn	0.032903	-0.507982	0.423499
O10	O	0.000767	-0.460805	0.500033
N11	N	0.091336	-0.449565	0.481736
N12	N	0.009203	-0.531680	0.399875
C13	C	0.142510	-0.268211	0.532817
C14	C	0.142641	-0.398441	0.662987
C15	C	0.142524	-0.398421	0.532817
C16	C	0.272762	-0.398394	0.532723
C17	C	0.156853	-0.311177	0.547124
C18	C	0.156928	-0.384109	0.620020
C19	C	0.229794	-0.384081	0.547073
C20	C	0.156863	-0.384097	0.547124
C21	C	0.124253	-0.213522	0.514606
C22	C	0.124277	-0.416652	0.514606
C23	C	0.175110	-0.365866	0.565335
C24	C	0.352285	-0.384669	0.490824
C25	C	0.401998	-0.401229	0.474223
C26	C	0.402027	-0.481671	0.504898
C27	C	0.352316	-0.465109	0.521500
C28	C	0.136220	-0.188652	0.465734
C29	C	0.119621	-0.138936	0.449181
C30	C	0.079092	-0.138961	0.530374
C31	C	0.095691	-0.188678	0.546927
C32	C	0.075398	-0.404656	0.526651
C33	C	0.058814	-0.421229	0.510091
C34	C	0.139984	-0.461794	0.469452
C35	C	0.156570	-0.445221	0.486007
C36	C	0.075593	-0.404694	0.742565
C37	C	0.059066	-0.421281	0.792280
C38	C	0.140274	-0.461856	0.792215
C39	C	0.156800	-0.445269	0.742499
C40	C	0.124458	-0.416687	0.717675
C41	C	0.327446	-0.416608	0.514460
C42	C	-0.023585	-0.564792	0.161919
C43	C	-0.023910	-0.769260	0.366530
C44	C	-0.023880	-0.564780	0.366623
C45	C	-0.228325	-0.564561	0.366222
C46	C	-0.129610	-0.597564	0.333467
C47	C	-0.056729	-0.597644	0.333613
C48	C	-0.074925	-0.615849	0.315324
C49	C	-0.088689	-0.695351	0.357144
C50	C	-0.072155	-0.745068	0.373736
C51	C	0.008283	-0.745150	0.343188
C52	C	-0.008252	-0.695435	0.326596
C53	C	-0.154529	-0.609541	0.382326
C54	C	-0.204241	-0.592916	0.398818
C55	C	-0.204114	-0.552341	0.317588
C56	C	-0.154401	-0.568966	0.301096
C57	C	-0.068707	-0.548770	0.321590
C58	C	-0.052166	-0.532225	0.338221
C59	C	-0.011669	-0.613425	0.378886
C60	C	-0.028210	-0.629972	0.362261
C61	C	-0.068581	-0.548777	0.235758
C62	C	-0.051939	-0.532234	0.186043
C63	C	-0.011379	-0.613438	0.186090
C64	C	-0.028020	-0.629981	0.235806
C65	C	-0.056622	-0.597649	0.260639
C66	C	-0.056739	-0.670537	0.333576
C67	C	-0.005614	-0.545951	0.107238
C68	C	-0.006360	-0.823943	0.385033
C69	C	-0.005995	-0.545937	0.384582
C70	C	-0.283006	-0.545971	0.383725
N71	N	0.426163	-0.449489	0.481488
O72	O	0.588601	-0.457377	0.364497
O73	O	0.588789	-0.549696	0.489801
O74	O	0.588709	-0.549485	0.410335
O75	O	0.588681	-0.457588	0.443963
O76	O	0.509731	-0.523223	0.436741
O77	O	0.509811	-0.523434	0.516207
O78	O	0.509624	-0.431115	0.390903
Zn79	Zn	0.497178	-0.473105	0.457747
Zn80	Zn	0.601234	-0.507706	0.422956
O81	O	0.509704	-0.431326	0.470368
N82	N	0.672250	-0.531322	0.399211
N83	N	0.091303	-0.114798	0.481730
O84	O	-0.025603	0.047729	0.473733
O85	O	0.099703	0.047764	0.381394
O86	O	0.020199	0.047731	0.381655
O87	O	0.053901	0.047761	0.473472
O88	O	0.046564	-0.031252	0.407974
O89	O	0.126068	-0.031219	0.407713
O90	O	0.000762	-0.031254	0.500052
Zn91	Zn	0.067601	-0.043777	0.458061
Zn92	Zn	0.032864	0.060287	0.423385
O93	O	0.080266	-0.031222	0.499791
N94	N	0.009156	0.131307	0.399717
N95	N	0.091635	-0.449614	0.816396
O96	O	0.083664	-0.566502	0.978913
O97	O	-0.008637	-0.441152	0.978954
O98	O	-0.008421	-0.520640	0.978930
O99	O	0.083448	-0.487013	0.978936
O100	O	0.017877	-0.494296	0.899950
O101	O	0.017661	-0.414807	0.899974
O102	O	0.109961	-0.540157	0.899933
Zn103	Zn	0.067986	-0.473299	0.887414
Zn104	Zn	0.033338	-0.508010	0.991473
O105	O	0.109746	-0.460669	0.899956
N106	N	0.009689	-0.531700	1.062491
C107	C	0.030367	-0.412095	0.382120
C108	C	0.128741	-0.510370	0.382016
C109	C	0.070168	-0.569147	0.499490
C110	C	-0.028207	-0.470871	0.499595
C111	C	0.549323	-0.549278	0.518791
C112	C	0.549225	-0.549017	0.420381
C113	C	0.549087	-0.431532	0.361914
C114	C	0.549188	-0.431794	0.460322
C115	C	0.128638	0.008374	0.381806
C116	C	0.030215	0.008236	0.382161
C117	C	-0.028206	0.008233	0.499608
C118	C	0.070250	0.008272	0.499285
C119	C	-0.008199	-0.412187	0.939469
C120	C	-0.007927	-0.510619	0.939425
C121	C	0.109523	-0.569121	0.939417
C122	C	0.109257	-0.470684	0.939444
H123	H	0.019274	-0.411508	0.812539
H124	H	0.023205	-0.376060	0.353221
C125	C	0.177151	0.008687	0.342543
C126	C	0.186561	0.008832	0.293870
C127	C	0.235073	0.009145	0.254607
C128	C	0.274175	0.009313	0.264017
C129	C	0.264766	0.009168	0.312692
C130	C	0.216254	0.008855	0.351955
H131	H	0.157614	0.008708	0.286902
H132	H	0.242038	0.009253	0.218574
H133	H	0.310087	0.009545	0.234952
H134	H	0.293713	0.009292	0.319660
H135	H	0.209289	0.008747	0.387987
C136	C	0.020468	0.008226	0.343188
C137	C	-0.028239	0.008209	0.352936
C138	C	-0.037985	0.008199	0.313964
C139	C	0.000975	0.008207	0.265243
C140	C	0.049685	0.008224	0.255494
C141	C	0.059432	0.008234	0.294466
H142	H	-0.057082	0.008203	0.389004
H143	H	-0.074044	0.008185	0.321181
H144	H	-0.006240	0.008199	0.236394
H145	H	0.078529	0.008230	0.219426
H146	H	0.095490	0.008248	0.287248
C147	C	0.210335	-0.458392	0.472750
C148	C	0.232946	-0.486057	0.512010
C149	C	0.286710	-0.499219	0.498748
C150	C	0.317862	-0.484715	0.446226
C151	C	0.295251	-0.457048	0.406963
C152	C	0.241487	-0.443887	0.420224
H153	H	0.209885	-0.496796	0.550893
H154	H	0.303448	-0.519700	0.527814
H155	H	0.357661	-0.494458	0.436409
H156	H	0.318312	-0.446310	0.368080
H157	H	0.224749	-0.423406	0.391159
C158	C	0.549010	-0.392373	0.313300
C159	C	0.589980	-0.371895	0.282690
C160	C	0.589902	-0.332737	0.234076
C161	C	0.548855	-0.314056	0.216073
C162	C	0.507882	-0.334534	0.246683
C163	C	0.507959	-0.373693	0.295297
H164	H	0.620368	-0.385724	0.296017
H165	H	0.620234	-0.317577	0.211416
H166	H	0.548798	-0.285068	0.180086
H167	H	0.477494	-0.320706	0.233356
H168	H	0.477628	-0.388852	0.317957
C169	C	-0.076820	0.008222	0.538771
C170	C	-0.115973	0.008204	0.529311
C171	C	-0.164586	0.008193	0.568474
C172	C	-0.174047	0.008198	0.617097
C173	C	-0.134893	0.008215	0.626559
C174	C	-0.086279	0.008227	0.587396
H175	H	-0.108970	0.008201	0.493316
H176	H	-0.193570	0.008180	0.561470
H177	H	-0.210034	0.008189	0.646088
H178	H	-0.141895	0.008219	0.662555
H179	H	-0.057295	0.008240	0.594401
H180	H	0.077468	0.008281	0.528131
H181	H	0.138503	-0.605120	0.939399
C182	C	-0.047349	-0.363555	0.939486
C183	C	-0.038739	-0.318148	0.898484
C184	C	-0.077889	-0.269515	0.898500
C185	C	-0.125649	-0.266290	0.939519
C186	C	-0.134261	-0.311699	0.980524
C187	C	-0.095111	-0.360331	0.980508
H188	H	-0.003382	-0.320534	0.868116
H189	H	-0.071513	-0.235900	0.868145
H190	H	-0.154630	-0.230289	0.939531
H191	H	-0.169618	-0.309313	1.010892
H192	H	-0.101487	-0.393946	1.010863
H193	H	0.549182	-0.402927	0.467517
C194	C	0.177380	-0.519946	0.342907
C195	C	0.216483	-0.568602	0.352466
C196	C	0.265122	-0.578177	0.313357
C197	C	0.274657	-0.539097	0.264689
C198	C	0.235553	-0.490438	0.255128
C199	C	0.186914	-0.480863	0.294237
H200	H	0.209425	-0.597534	0.388494
H201	H	0.294069	-0.614198	0.320435
H202	H	0.310662	-0.546186	0.235738
H203	H	0.242611	-0.461506	0.219099
H204	H	0.157967	-0.444842	0.287159
C205	C	0.079838	-0.617826	0.538535
C206	C	0.128520	-0.656869	0.528882
C207	C	0.138191	-0.705548	0.567927
C208	C	0.099179	-0.715183	0.616625
C209	C	0.050493	-0.676139	0.626281
C210	C	0.040823	-0.627460	0.587236
H211	H	0.157402	-0.649737	0.492831
H212	H	0.174231	-0.734451	0.560780
H213	H	0.106337	-0.751218	0.645529
H214	H	0.021611	-0.683271	0.662332
H215	H	0.004782	-0.598557	0.594383
H216	H	-0.064213	-0.463781	0.528541
C217	C	0.549392	-0.588434	0.567407
C218	C	0.549423	-0.578943	0.606535
C219	C	0.549493	-0.618099	0.655152
C220	C	0.549532	-0.666746	0.664639
C221	C	0.549501	-0.676239	0.625510
C222	C	0.549432	-0.637083	0.576894
H223	H	0.549394	-0.542929	0.599513
H224	H	0.549515	-0.611071	0.684118
H225	H	0.549584	-0.695732	0.700628
H226	H	0.549531	-0.712253	0.632532
H227	H	0.549409	-0.644111	0.547927
C228	C	0.549240	-0.588020	0.410665
C229	C	0.549183	-0.578296	0.361976
C230	C	0.549198	-0.617299	0.352259
C231	C	0.549269	-0.666025	0.391232
C232	C	0.549326	-0.675751	0.439924
C233	C	0.549311	-0.636748	0.449641
H234	H	0.549131	-0.542224	0.333123
H235	H	0.549157	-0.610099	0.316213
H236	H	0.549280	-0.694897	0.384039
H237	H	0.549378	-0.711823	0.468777
H238	H	0.549352	-0.643948	0.485686
H239	H	0.138119	-0.463487	0.939440
C240	C	0.040014	-0.373251	0.715261
C241	C	-0.013737	-0.360059	0.742640
C242	C	-0.049315	-0.328619	0.715335
C243	C	-0.031141	-0.310371	0.660652
C244	C	0.022613	-0.323563	0.633270
C245	C	0.058191	-0.355003	0.660574
H246	H	-0.027193	-0.373567	0.783123
H247	H	-0.089107	-0.318853	0.735606
H248	H	-0.057478	-0.287097	0.640440
H249	H	0.036069	-0.310055	0.592787
H250	H	0.097983	-0.364769	0.640304
C251	C	0.175850	-0.493287	0.819522
C252	C	0.229602	-0.506476	0.792145
C253	C	0.265178	-0.537909	0.819452
C254	C	0.247001	-0.556153	0.874135
C255	C	0.193247	-0.542965	0.901515
C256	C	0.157671	-0.511531	0.874208
H257	H	0.243060	-0.492970	0.751662
H258	H	0.304971	-0.547672	0.799183
H259	H	0.273337	-0.579422	0.894349
H260	H	0.179789	-0.556471	0.941998
H261	H	0.117878	-0.501768	0.894477
C262	C	-0.046903	-0.520319	0.939376
C263	C	-0.037171	-0.569015	0.939338
C264	C	-0.076147	-0.578714	0.939289
C265	C	-0.124854	-0.539717	0.939279
C266	C	-0.134588	-0.491018	0.939318
C267	C	-0.095612	-0.481318	0.939366
H268	H	-0.001113	-0.597886	0.939345
H269	H	-0.068941	-0.614765	0.939261
H270	H	-0.153706	-0.546898	0.939243
H271	H	-0.170646	-0.462147	0.939310
H272	H	-0.102818	-0.445267	0.939395
H273	H	0.049100	-0.381393	0.549936
C274	C	0.210556	-0.458461	0.715122
C275	C	0.241774	-0.443986	0.721932
C276	C	0.295529	-0.457178	0.694556
C277	C	0.318065	-0.484844	0.660370
C278	C	0.286847	-0.499321	0.653559
C279	C	0.233092	-0.486129	0.680934
H280	H	0.225091	-0.423504	0.747240
H281	H	0.318638	-0.446461	0.699598
H282	H	0.357858	-0.494609	0.640105
H283	H	0.303529	-0.519803	0.628251
H284	H	0.209982	-0.496846	0.675892
H285	H	0.011902	-0.639768	0.165877
C286	C	-0.127257	-0.640999	0.417932
C287	C	-0.072576	-0.659288	0.399793
C288	C	-0.045305	-0.690747	0.435401
C289	C	-0.072716	-0.703916	0.489147
C290	C	-0.127401	-0.685626	0.507288
C291	C	-0.154672	-0.654168	0.471681
H292	H	-0.052281	-0.649540	0.360005
H293	H	-0.004823	-0.704286	0.421971
H294	H	-0.052529	-0.727204	0.515506
H295	H	-0.147695	-0.695375	0.547076
H296	H	-0.195153	-0.640629	0.485110
H297	H	0.166284	-0.485062	0.446169
C298	C	0.005047	-0.408039	0.523335
C299	C	-0.026122	-0.422530	0.575852
C300	C	-0.079887	-0.409340	0.589095
C301	C	-0.102483	-0.381660	0.549821
C302	C	-0.071313	-0.367167	0.497301
C303	C	-0.017548	-0.380357	0.484058
H304	H	-0.009396	-0.443022	0.604928
H305	H	-0.102961	-0.420069	0.627974
H306	H	-0.142284	-0.371896	0.559625
H307	H	-0.088040	-0.346675	0.468226
H308	H	0.005526	-0.369628	0.445180
H309	H	0.422274	-0.521162	0.510626
C310	C	0.324994	-0.500244	0.547494
C311	C	0.352354	-0.553592	0.555225
C312	C	0.325033	-0.588728	0.581215
C313	C	0.270351	-0.570517	0.599474
C314	C	0.242987	-0.517166	0.591743
C315	C	0.270309	-0.482030	0.565753
H316	H	0.392836	-0.567075	0.541709
H317	H	0.345290	-0.628222	0.586938
H318	H	0.250126	-0.596527	0.618713
H319	H	0.202506	-0.503683	0.605259
H320	H	0.250052	-0.442537	0.560030
H321	H	0.422223	-0.375220	0.454977
H322	H	0.159477	-0.208876	0.439413
C323	C	0.324927	-0.331316	0.483083
C324	C	0.331722	-0.295162	0.432356
C325	C	0.304366	-0.241810	0.424613
C326	C	0.270215	-0.224612	0.467597
C327	C	0.263418	-0.260766	0.518328
C328	C	0.290774	-0.314119	0.526070
H329	H	0.357005	-0.307893	0.400533
H330	H	0.309398	-0.215046	0.387059
H331	H	0.249964	-0.185117	0.461866
H332	H	0.238135	-0.248036	0.550150
H333	H	0.285742	-0.340883	0.563625
C334	C	0.132783	-0.111575	0.395420
C335	C	0.114524	-0.056889	0.377210
C336	C	0.127685	-0.029531	0.323449
C337	C	0.159105	-0.056858	0.287897
C338	C	0.177365	-0.111547	0.306106
C339	C	0.164204	-0.138906	0.359868
H340	H	0.091264	-0.036657	0.403528
H341	H	0.114167	0.010953	0.309969
H342	H	0.168847	-0.036606	0.248100
H343	H	0.200625	-0.131780	0.279789
H344	H	0.177722	-0.179390	0.373347
C345	C	0.047677	-0.111631	0.565926
C346	C	0.034519	-0.138987	0.619685
C347	C	0.003103	-0.111659	0.655238
C348	C	-0.015157	-0.056973	0.637032
C349	C	-0.002000	-0.029613	0.583270
C350	C	0.029417	-0.056942	0.547717
H351	H	0.048037	-0.179472	0.633165
H352	H	-0.006637	-0.131912	0.695036
H353	H	-0.038414	-0.036742	0.663350
H354	H	-0.015517	0.010872	0.569790
H355	H	0.039156	-0.036688	0.507919
H356	H	0.085944	-0.208923	0.586721
H357	H	-0.091873	-0.522445	0.255974
C358	C	-0.065103	-0.478471	0.158679
C359	C	-0.050658	-0.447281	0.165564
C360	C	-0.063823	-0.393518	0.138200
C361	C	-0.091432	-0.370946	0.103951
C362	C	-0.105878	-0.402136	0.097065
C363	C	-0.092714	-0.455899	0.124429
H364	H	-0.030219	-0.463990	0.190918
H365	H	-0.053128	-0.370429	0.143298
H366	H	-0.101177	-0.331148	0.083695
H367	H	-0.126317	-0.385427	0.071711
H368	H	-0.103408	-0.478988	0.119332
C369	C	-0.014863	-0.683743	0.263174
C370	C	-0.054196	-0.706248	0.297291
C371	C	-0.041039	-0.760010	0.324658
C372	C	0.011450	-0.791267	0.317906
C373	C	0.050785	-0.768763	0.283787
C374	C	0.037629	-0.715001	0.256421
H375	H	-0.093054	-0.683109	0.302291
H376	H	-0.070158	-0.776668	0.349915
H377	H	0.021189	-0.831065	0.338164
H378	H	0.089644	-0.791902	0.278788
H379	H	0.066748	-0.698343	0.231164
C380	C	-0.100078	-0.513211	0.290078
C381	C	-0.150538	-0.513385	0.306497
C382	C	-0.181907	-0.477827	0.274982
C383	C	-0.162817	-0.442095	0.227047
C384	C	-0.112355	-0.441919	0.210626
C385	C	-0.080986	-0.477478	0.242141
H386	H	-0.164672	-0.539838	0.341983
H387	H	-0.219263	-0.477957	0.287138
H388	H	-0.186039	-0.415772	0.203718
H389	H	-0.098222	-0.415467	0.175140
H390	H	-0.043630	-0.477348	0.229985
C391	C	-0.065337	-0.478462	0.324997
C392	C	-0.096702	-0.442901	0.293481
C393	C	-0.109872	-0.389139	0.280256
C394	C	-0.091676	-0.370939	0.298547
C395	C	-0.060309	-0.406501	0.330064
C396	C	-0.047139	-0.460263	0.343289
H397	H	-0.110174	-0.456373	0.279939
H398	H	-0.133092	-0.362813	0.256924
H399	H	-0.101425	-0.331141	0.288757
H400	H	-0.046838	-0.393029	0.343606
H401	H	-0.023919	-0.486588	0.366621
H402	H	-0.018458	-0.669769	0.372051
C403	C	0.019708	-0.648993	0.410391
C404	C	0.067655	-0.684798	0.391421
C405	C	0.099034	-0.720372	0.422925
C406	C	0.082466	-0.720139	0.473399
C407	C	0.034516	-0.684333	0.492371
C408	C	0.003138	-0.648759	0.460867
H409	H	0.079922	-0.684972	0.354054
H410	H	0.134529	-0.746878	0.408880
H411	H	0.105694	-0.746473	0.496720
H412	H	0.022249	-0.684159	0.529738
H413	H	-0.032358	-0.622253	0.474912
H414	H	0.017768	-0.675232	0.307405
H415	H	0.047765	-0.765423	0.337508
H416	H	-0.128170	-0.675084	0.362831
C417	C	-0.107301	-0.772366	0.399664
C418	C	-0.160635	-0.744980	0.407344
C419	C	-0.195781	-0.772279	0.433273
C420	C	-0.177594	-0.826965	0.451523
C421	C	-0.124257	-0.854354	0.443843
C422	C	-0.089110	-0.827055	0.417913
H423	H	-0.174101	-0.704495	0.393835
H424	H	-0.235265	-0.752003	0.438958
H425	H	-0.203611	-0.847173	0.470717
H426	H	-0.110790	-0.894839	0.457352
H427	H	-0.049627	-0.847331	0.412228
H428	H	-0.224299	-0.529059	0.291228
C429	C	-0.231658	-0.606087	0.452566
C430	C	-0.265847	-0.566762	0.475088
C431	C	-0.293263	-0.579933	0.528836
C432	C	-0.286491	-0.632430	0.560061
C433	C	-0.252301	-0.671759	0.537539
C434	C	-0.224884	-0.658588	0.483792
H435	H	-0.270861	-0.527897	0.451973
H436	H	-0.318573	-0.550819	0.545508
H437	H	-0.306786	-0.642180	0.599848
H438	H	-0.247286	-0.710623	0.560655
H439	H	-0.199574	-0.687702	0.467120
H440	H	-0.134111	-0.559208	0.261309
