data_functionalizedCrystal
_audit_creation_method	'MofGen! by Chris Wilmer'
_symmetry_space_group_name_H-M	'P1'
_symmetry_Int_Tables_number	1
_symmetry_cell_setting	triclinic
loop_
_symmetry_equiv_pos_as_xyz
  x,y,z
_cell_length_a	11.026607
_cell_length_b	10.654550
_cell_length_c	9.130313
_cell_angle_alpha	90.000042
_cell_angle_beta	90.000037
_cell_angle_gamma	96.535460
loop_
_atom_site_label
_atom_site_type_symbol
_atom_site_fract_x
_atom_site_fract_y
_atom_site_fract_z
O1	O	0.170762	1.704901	-0.121785
O2	O	0.187032	1.342954	-0.121790
O3	O	0.001991	1.493930	-0.121783
O4	O	0.355802	1.553926	-0.121793
O5	O	0.001996	1.493929	0.121816
O6	O	0.187037	1.342953	0.121809
O7	O	0.170767	1.704900	0.121813
Cu8	Cu	0.178902	1.523927	0.144054
Cu9	Cu	0.178896	1.523928	-0.144030
O10	O	0.355807	1.553924	0.121806
C11	C	-0.043310	1.482861	0.000015
C12	C	-0.178302	1.449867	0.000009
C13	C	0.171959	1.751958	0.000011
C14	C	0.175533	1.892177	0.000004
C15	C	0.185839	1.295897	0.000009
C16	C	0.182265	1.155677	0.000007
C17	C	-0.251341	1.540970	0.000008
C18	C	-0.390862	1.506871	0.000002
C19	C	0.401109	1.564993	0.000005
C20	C	0.536100	1.597988	0.000001
N21	N	0.178906	1.523934	0.346676
C22	C	0.066584	1.948013	0.000001
C23	C	0.069950	2.079765	0.000008
C24	C	0.291222	2.099833	0.000014
C25	C	0.287856	1.968084	0.000017
C26	C	-0.061166	1.936428	-0.000009
C27	C	-0.057800	2.068179	-0.000002
N28	N	0.178883	1.523928	-0.346653
C29	C	0.096998	1.590814	0.423331
C30	C	0.096983	1.590808	0.576668
C31	C	0.260795	1.457040	0.576681
C32	C	0.260803	1.457040	0.423347
C33	C	0.002426	1.668049	0.423325
C34	C	0.002411	1.668043	0.576662
H35	H	-0.210581	1.644212	0.000019
H36	H	0.327472	1.402575	0.639123
H37	H	-0.431617	1.403623	-0.000009
Br38	Br	0.443653	2.202856	0.000035
Br39	Br	-0.395987	1.770078	-0.000009
H40	H	-0.219062	1.346625	-0.000002
H41	H	-0.105928	2.099488	-0.101951
H42	H	0.376573	1.922628	0.000037
H43	H	-0.111131	1.896228	0.101932
Br44	Br	-0.144765	1.585223	0.655930
H45	H	0.032038	1.765661	0.375767
H46	H	-0.101848	1.891966	-0.105188
H47	H	-0.096401	2.105447	0.105180
Br48	Br	0.371944	1.366246	0.319311
H49	H	-0.091025	1.626321	0.381707
Br50	Br	0.037115	1.836432	0.646041
