data_functionalizedCrystal
_audit_creation_method	'MofGen! by Chris Wilmer'
_symmetry_space_group_name_H-M	'P1'
_symmetry_Int_Tables_number	1
_symmetry_cell_setting	triclinic
loop_
_symmetry_equiv_pos_as_xyz
  x,y,z
_cell_length_a	12.594516
_cell_length_b	12.594517
_cell_length_c	11.169409
_cell_angle_alpha	89.985625
_cell_angle_beta	89.968704
_cell_angle_gamma	90.011939
loop_
_atom_site_label
_atom_site_type_symbol
_atom_site_fract_x
_atom_site_fract_y
_atom_site_fract_z
Zn1	Zn	-0.423773	1.627297	-0.678353
Zn2	Zn	-0.601800	1.627179	-0.477673
Zn3	Zn	-0.423823	1.449292	-0.477709
Zn4	Zn	-0.601698	1.449283	-0.678340
O5	O	-0.512773	1.538263	-0.578018
O6	O	-0.447411	1.776227	-0.651723
O7	O	-0.578254	1.603536	-0.309728
O8	O	-0.274870	1.472958	-0.504345
O9	O	-0.578206	1.776141	-0.504284
O10	O	-0.274834	1.603738	-0.651757
O11	O	-0.447495	1.472844	-0.309754
O12	O	-0.447396	1.300345	-0.504332
O13	O	-0.578032	1.472943	-0.846291
O14	O	-0.578080	1.300339	-0.651735
O15	O	-0.447312	1.603729	-0.846301
O16	O	-0.750732	1.603528	-0.504271
O17	O	-0.750657	1.472829	-0.651700
C18	C	-0.512733	1.261722	-0.578037
C19	C	-0.512741	1.143417	-0.578073
C20	C	-0.583960	1.074191	-0.658090
C21	C	-0.486911	1.003384	-0.687605
C22	C	-0.609870	1.003425	-0.548532
C23	C	-0.415641	1.074168	-0.607645
C24	C	-0.538665	1.074215	-0.468521
C25	C	-0.441550	1.003440	-0.497994
C26	C	-0.789314	1.538193	-0.578007
C27	C	-0.907620	1.538261	-0.578042
C28	C	-0.976871	1.467167	-0.658172
C29	C	-1.047743	1.441228	-0.548662
C30	C	-1.047547	1.564296	-0.687571
C31	C	-0.976934	1.512271	-0.468474
C32	C	-0.976731	1.635384	-0.607456
C33	C	-1.047571	1.609483	-0.497871
C34	C	-0.235152	1.538362	-0.578057
C35	C	-0.116847	1.538404	-0.578073
C36	C	-0.512655	1.538348	-0.891061
C37	C	-0.512605	1.538385	-1.024461
C38	C	-0.512814	1.815884	-0.578001
C39	C	-0.512832	1.934189	-0.577993
C40	C	-0.512814	1.538239	-0.266194
C41	C	-0.512564	1.538409	-0.132794
H42	H	-0.691972	0.972345	-0.523583
H43	H	-0.465016	0.972271	-0.780216
H44	H	-0.333515	1.105112	-0.632702
H45	H	-0.945827	1.406937	-0.725837
H46	H	-0.381293	0.972571	-0.430292
H47	H	-0.560589	1.105351	-0.375936
H48	H	-1.078958	1.359160	-0.523808
C49	C	-0.935548	1.482820	-0.345045
C50	C	-0.824386	1.483018	-0.346491
C51	C	-0.786222	1.455875	-0.232819
H52	H	-0.960207	1.533013	-0.287988
H53	H	-0.960395	1.414066	-0.324022
H54	H	-0.799549	1.551762	-0.367498
H55	H	-0.799698	1.432824	-0.403524
H56	H	-0.811070	1.387120	-0.211796
H57	H	-0.810889	1.506071	-0.175771
H58	H	-0.710796	1.455996	-0.233788
H59	H	-0.644070	1.105259	-0.725845
C60	C	-1.088657	1.689591	-0.407245
C61	C	-1.052707	1.661916	-0.292822
C62	C	-1.090548	1.735673	-0.209304
H63	H	-1.063291	1.758368	-0.427306
H64	H	-1.164086	1.689605	-0.408135
H65	H	-0.977293	1.661913	-0.291935
H66	H	-1.078070	1.593151	-0.272724
H67	H	-1.165977	1.735687	-0.210194
H68	H	-1.065180	1.804445	-0.229376
H69	H	-1.066170	1.716900	-0.131657
C70	C	-0.935159	1.744750	-0.640907
C71	C	-0.970850	1.771525	-0.755705
C72	C	-0.932561	1.872259	-0.786581
H73	H	-0.960394	1.795591	-0.584908
H74	H	-0.859733	1.744073	-0.639999
H75	H	-1.046260	1.772211	-0.756605
H76	H	-0.945618	1.720712	-0.811730
H77	H	-0.857135	1.871581	-0.785672
H78	H	-0.957798	1.923090	-0.730574
H79	H	-0.956763	1.890434	-0.864478
H80	H	-1.078565	1.586259	-0.780185
