data_functionalizedCrystal
_audit_creation_method	'MofGen! by Chris Wilmer'
_symmetry_space_group_name_H-M	'P1'
_symmetry_Int_Tables_number	1
_symmetry_cell_setting	triclinic
loop_
_symmetry_equiv_pos_as_xyz
  x,y,z
_cell_length_a	8.634740
_cell_length_b	8.559649
_cell_length_c	9.730223
_cell_angle_alpha	89.996892
_cell_angle_beta	89.997377
_cell_angle_gamma	85.174486
loop_
_atom_site_label
_atom_site_type_symbol
_atom_site_fract_x
_atom_site_fract_y
_atom_site_fract_z
O1	O	1.985468	0.511629	-0.114276
O2	O	2.485468	1.011629	0.385724
O3	O	1.541597	0.468727	-0.114280
O4	O	2.041597	0.968727	0.385720
O5	O	1.802638	0.263597	-0.114275
O6	O	2.302638	0.763597	0.385725
O7	O	1.724427	0.716760	-0.114282
O8	O	2.224427	1.216760	0.385718
O9	O	1.802624	0.263588	0.114305
O10	O	2.302624	0.763588	0.614305
O11	O	1.541583	0.468718	0.114300
O12	O	2.041583	0.968718	0.614300
O13	O	1.985454	0.511621	0.114304
O14	O	2.485454	1.011621	0.614304
Zn15	Zn	1.763516	0.490168	0.150594
Zn16	Zn	2.263516	0.990168	0.650594
Zn17	Zn	1.763535	0.490180	-0.150570
Zn18	Zn	2.263535	0.990180	0.349430
O19	O	1.724413	0.716751	0.114298
O20	O	2.224413	1.216751	0.614298
C21	C	1.485291	0.459004	0.000009
C22	C	1.985291	0.959004	0.500009
C23	C	1.317539	0.430026	0.000007
C24	C	1.817539	0.930026	0.500007
C25	C	1.808558	0.204975	0.000013
C26	C	2.308558	0.704975	0.500013
C27	C	1.826201	0.030311	0.000007
C28	C	2.326201	0.530311	0.500007
C29	C	2.041761	0.521344	0.000011
C30	C	2.541761	1.021344	0.500011
C31	C	2.209512	0.550322	0.000004
C32	C	2.709512	1.050322	0.500004
C33	C	1.718493	0.775373	0.000007
C34	C	2.218493	1.275373	0.500007
C35	C	1.700851	0.950037	0.000004
C36	C	2.200851	1.450037	0.500004
N37	N	1.763515	0.490161	0.356130
N38	N	2.263515	0.990161	0.856130
N39	N	1.763550	0.490176	-0.356107
N40	N	2.263550	0.990176	0.143893
C41	C	1.879133	0.399379	0.428058
C42	C	2.379133	0.899379	0.928058
C43	C	1.879148	0.399382	0.571941
C44	C	2.379148	0.899382	1.071941
C45	C	1.647920	0.580961	0.571955
C46	C	2.147920	1.080961	1.071955
C47	C	1.647900	0.580949	0.428074
C48	C	2.147900	1.080949	0.928074
H49	H	1.245366	0.675491	0.000011
H50	H	1.745366	1.175491	0.500011
H51	H	1.553742	0.654874	0.369506
H52	H	2.053742	1.154874	0.869506
H53	H	1.281691	0.304865	-0.000026
H54	H	1.781691	0.804865	0.499974
Br55	Br	2.036059	0.276165	0.669556
Br56	Br	2.536059	0.776165	1.169556
Br57	Br	2.027576	-0.077849	0.000023
Br58	Br	2.527576	0.422151	0.500023
Br59	Br	1.499467	0.058202	0.000021
Br60	Br	1.999467	0.558202	0.500021
Br61	Br	2.036036	0.276164	0.330424
Br62	Br	2.536036	0.776164	0.830424
Br63	Br	1.491022	0.704172	0.669598
Br64	Br	1.991022	1.204172	1.169598
