data_functionalizedCrystal
_audit_creation_method	'MofGen! by Chris Wilmer'
_symmetry_space_group_name_H-M	'P1'
_symmetry_Int_Tables_number	1
_symmetry_cell_setting	triclinic
loop_
_symmetry_equiv_pos_as_xyz
  x,y,z
_cell_length_a	10.723022
_cell_length_b	15.186229
_cell_length_c	16.109302
_cell_angle_alpha	89.994701
_cell_angle_beta	83.964504
_cell_angle_gamma	89.997422
loop_
_atom_site_label
_atom_site_type_symbol
_atom_site_fract_x
_atom_site_fract_y
_atom_site_fract_z
O1	O	0.160395	-0.073266	1.104073
O2	O	0.180355	-0.073259	0.862129
O3	O	-0.011275	-0.073259	0.988683
O4	O	0.352025	-0.073265	0.977520
O5	O	-0.011278	0.073198	0.988674
O6	O	0.180352	0.073199	0.862120
O7	O	0.160392	0.073191	1.104065
Zn8	Zn	0.170372	0.096448	0.983091
Zn9	Zn	0.170375	-0.096516	0.983103
O10	O	0.352022	0.073192	0.977511
C11	C	0.179545	-0.000029	0.831145
C12	C	0.177120	-0.000026	0.738835
C13	C	-0.057766	-0.000032	0.987866
C14	C	-0.196288	-0.000035	0.985437
N15	N	0.170368	0.228141	0.983090
C16	C	-0.243882	-0.000034	0.912457
C17	C	-0.387051	-0.000037	0.909945
C18	C	0.398513	-0.000038	0.978327
C19	C	0.537035	-0.000040	0.980757
N20	N	0.170369	-0.228208	0.983111
C21	C	0.085543	0.453864	1.039147
C22	C	0.085540	0.546053	1.039150
C23	C	0.255198	0.546063	0.927047
C24	C	0.255194	0.453875	0.927041
C25	C	0.170368	0.407778	0.983096
C26	C	0.170369	0.592155	0.983104
C27	C	0.170367	0.692111	0.983107
C28	C	0.170369	0.307815	0.983093
C29	C	0.171513	0.079799	0.526457
C30	C	0.169221	0.079796	0.439723
C31	C	0.169231	-0.079880	0.439743
C32	C	0.171513	-0.079876	0.526476
C33	C	0.172660	-0.000034	0.569830
C34	C	0.168087	-0.000041	0.396364
C35	C	0.165602	-0.000045	0.302323
C36	C	0.175143	-0.000030	0.663877
C37	C	0.161202	-0.000040	1.135049
C38	C	0.163627	-0.000049	1.227358
H39	H	-0.178636	-0.000027	0.851838
Br40	Br	0.167662	0.188145	0.380863
Br41	Br	0.173055	-0.188229	0.585346
H42	H	0.016471	0.416333	1.084789
H43	H	-0.421990	-0.000074	1.043245
Br44	Br	-0.455350	-0.000047	0.805793
Br45	Br	0.167636	-0.188232	0.380904
H46	H	0.172447	0.144811	0.561753
H47	H	-0.261533	-0.000034	1.046056
H48	H	0.324263	0.583604	0.881410
H49	H	0.016467	0.583574	1.084791
Br50	Br	0.370311	0.391322	0.850960
