data_functionalizedCrystal
_audit_creation_method	'MofGen! by Chris Wilmer'
_symmetry_space_group_name_H-M	'P1'
_symmetry_Int_Tables_number	1
_symmetry_cell_setting	triclinic
loop_
_symmetry_equiv_pos_as_xyz
  x,y,z
_cell_length_a	12.811445
_cell_length_b	12.837942
_cell_length_c	11.892095
_cell_angle_alpha	94.302569
_cell_angle_beta	80.666316
_cell_angle_gamma	89.412982
loop_
_atom_site_label
_atom_site_type_symbol
_atom_site_fract_x
_atom_site_fract_y
_atom_site_fract_z
O1	O	1.422082	0.122881	-0.239776
O2	O	1.922082	0.622881	0.260224
O3	O	1.115997	0.140266	-0.208402
O4	O	1.615997	0.640266	0.291598
O5	O	1.262252	-0.019309	-0.223386
O6	O	1.762252	0.480691	0.276614
O7	O	1.275827	0.282456	-0.224791
O8	O	1.775827	0.782456	0.275209
O9	O	1.250056	-0.006025	-0.034129
O10	O	1.750056	0.493975	0.465871
O11	O	1.103800	0.153550	-0.019145
O12	O	1.603800	0.653550	0.480855
O13	O	1.409886	0.136166	-0.050519
O14	O	1.909886	0.636166	0.449481
Zn15	Zn	1.254907	0.146967	-0.004783
Zn16	Zn	1.754907	0.646967	0.495217
Zn17	Zn	1.270976	0.129464	-0.254137
Zn18	Zn	1.770976	0.629464	0.245863
O19	O	1.263631	0.295741	-0.035534
O20	O	1.763631	0.795741	0.464466
C21	C	1.070449	0.146340	-0.109730
C22	C	1.570449	0.646340	0.390270
C23	C	0.952901	0.144634	-0.097681
C24	C	1.452901	0.644634	0.402319
C25	C	0.745309	0.126965	-0.281389
C26	C	1.245309	0.626965	0.218611
C27	C	0.634862	0.125363	-0.270073
C28	C	1.134862	0.625363	0.229927
C29	C	0.621557	0.139835	-0.063734
C30	C	1.121557	0.639835	0.436266
C31	C	0.732004	0.141437	-0.075050
C32	C	1.232004	0.641437	0.424950
C33	C	0.793877	0.135000	-0.183881
C34	C	1.293877	0.635000	0.316119
C35	C	0.904326	0.136595	-0.195196
C36	C	1.404326	0.636595	0.304804
C37	C	0.891019	0.151075	0.011142
C38	C	1.391019	0.651075	0.511142
C39	C	0.780572	0.149473	0.022458
C40	C	1.280572	0.649473	0.522458
C41	C	1.251568	-0.051274	-0.128288
C42	C	1.751568	0.448726	0.371712
C43	C	1.237892	-0.166312	-0.126888
C44	C	1.737892	0.333688	0.373112
C45	C	1.402308	-0.407747	-0.143764
C46	C	1.902308	0.092253	0.356236
C47	C	1.389463	-0.515836	-0.142450
C48	C	1.889463	-0.015836	0.357550
C49	C	1.199358	-0.490581	-0.122952
C50	C	1.699358	0.009419	0.377048
C51	C	1.212203	-0.382493	-0.124267
C52	C	1.712203	0.117507	0.375733
C53	C	1.313681	-0.341080	-0.134672
C54	C	1.813681	0.158920	0.365328
C55	C	1.326525	-0.232988	-0.135978
C56	C	1.826525	0.267012	0.364022
C57	C	1.136421	-0.207736	-0.116489
C58	C	1.636421	0.292264	0.383511
C59	C	1.123576	-0.315825	-0.115174
C60	C	1.623576	0.184175	0.384826
C61	C	1.455434	0.130091	-0.149193
C62	C	1.955434	0.630091	0.350807
C63	C	1.572983	0.131796	-0.161249
C64	C	2.072983	0.631796	0.338751
C65	C	1.274315	0.327705	-0.130635
C66	C	1.774315	0.827705	0.369365
C67	C	1.287991	0.442743	-0.132042
C68	C	1.787991	0.942743	0.367958
N69	N	1.243947	0.158912	0.165394
N70	N	1.743947	0.658912	0.665394
N71	N	1.281943	0.117511	-0.424315
N72	N	1.781943	0.617511	0.075685
C73	C	1.358197	0.034335	0.390337
C74	C	1.858197	0.534335	0.890337
C75	C	1.350545	0.042692	0.509462
C76	C	1.850545	0.542692	1.009462
C77	C	1.220986	0.183977	0.522774
C78	C	1.720986	0.683977	1.022774
C79	C	1.228638	0.175620	0.403648
C80	C	1.728638	0.675620	0.903648
C81	C	1.297247	0.100798	0.337433
C82	C	1.797247	0.600798	0.837433
C83	C	1.304904	0.092446	0.218305
C84	C	1.804904	0.592446	0.718305
C85	C	1.175340	0.233726	0.231619
C86	C	1.675340	0.733726	0.731619
C87	C	1.167688	0.242083	0.350745
C88	C	1.667688	0.742083	0.850745
H89	H	0.795687	0.121719	-0.370004
H90	H	1.295687	0.621719	0.129996
H91	H	1.409153	-0.199272	-0.144446
H92	H	1.909153	0.300728	0.355554
H93	H	1.461633	-0.570114	-0.149858
H94	H	1.961633	-0.070114	0.350142
F95	F	0.555691	0.146701	0.052082
F96	F	1.055691	0.646701	0.552082
F97	F	1.415414	-0.028049	0.565762
F98	F	1.915414	0.471951	1.065762
H99	H	1.165119	0.244888	0.576702
H100	H	1.665119	0.744888	1.076702
F101	F	1.042091	-0.136774	-0.106800
F102	F	1.542091	0.363226	0.393200
F103	F	0.970174	0.129741	-0.311022
F104	F	1.470174	0.629741	0.188978
F105	F	0.714712	0.156327	0.138277
F106	F	1.214712	0.656327	0.638277
H107	H	1.111825	0.302999	0.404671
H108	H	1.611825	0.802999	0.904671
H109	H	0.595323	0.118822	-0.349475
H110	H	1.095323	0.618822	0.150525
F111	F	0.942715	0.159614	0.114924
F112	F	1.442715	0.659614	0.614924
H113	H	1.116740	-0.524320	-0.114493
H114	H	1.616740	-0.024320	0.385507
H115	H	1.125714	0.287847	0.188532
H116	H	1.625714	0.787847	0.688532
H117	H	1.484935	-0.374028	-0.152225
H118	H	1.984935	0.125972	0.347775
H119	H	1.040956	-0.349559	-0.106708
H120	H	1.540956	0.150441	0.393292
F121	F	1.431225	-0.045287	0.319864
F122	F	1.931225	0.454713	0.819864
F123	F	1.377926	0.012817	0.147836
F124	F	1.877926	0.512817	0.647836
