data_functionalizedCrystal
_audit_creation_method	'MofGen! by Chris Wilmer'
_symmetry_space_group_name_H-M	'P1'
_symmetry_Int_Tables_number	1
_symmetry_cell_setting	triclinic
loop_
_symmetry_equiv_pos_as_xyz
  x,y,z
_cell_length_a	18.215407
_cell_length_b	19.120786
_cell_length_c	18.215399
_cell_angle_alpha	87.529807
_cell_angle_beta	89.980167
_cell_angle_gamma	92.465561
loop_
_atom_site_label
_atom_site_type_symbol
_atom_site_fract_x
_atom_site_fract_y
_atom_site_fract_z
Zn1	Zn	1.112570	-0.279629	-0.403604
Zn2	Zn	1.107227	-0.397091	-0.275281
Zn3	Zn	0.989501	-0.279652	-0.280550
Zn4	Zn	0.984218	-0.397052	-0.398308
O5	O	1.048379	-0.338356	-0.339436
O6	O	1.214845	-0.295217	-0.386593
O7	O	1.091585	-0.381538	-0.172995
O8	O	1.010274	-0.181359	-0.301294
O9	O	1.210919	-0.381516	-0.292315
O10	O	1.100692	-0.181342	-0.391701
O11	O	1.005093	-0.295257	-0.176865
O12	O	0.885817	-0.295219	-0.296159
O13	O	1.001270	-0.381450	-0.501996
O14	O	0.881935	-0.381472	-0.382676
O15	O	1.095569	-0.295180	-0.505887
O16	O	1.086462	-0.495376	-0.287180
O17	O	0.996089	-0.495347	-0.377567
C18	C	0.857173	-0.338344	-0.339415
C19	C	0.775374	-0.338356	-0.339423
C20	C	1.040142	-0.520847	-0.331243
C21	C	1.036686	-0.598918	-0.327763
C22	C	0.585175	-0.383338	-0.384410
C23	C	0.508316	-0.383341	-0.384419
C24	C	0.512335	-0.293386	-0.294477
C25	C	0.589192	-0.293381	-0.294472
C26	C	0.625610	-0.338361	-0.339437
C27	C	0.471894	-0.338369	-0.339451
C28	C	0.388560	-0.338371	-0.339461
C29	C	0.708949	-0.338358	-0.339429
C30	C	1.082103	-0.635526	-0.373236
C31	C	1.078852	-0.708882	-0.369968
C32	C	1.030188	-0.745628	-0.321221
C33	C	0.984766	-0.709014	-0.275746
C34	C	0.988014	-0.635660	-0.279019
C35	C	1.018026	-0.967114	-0.308986
C36	C	1.014784	-1.040473	-0.305715
C37	C	1.108869	-1.040336	-0.399937
C38	C	1.112115	-0.966980	-0.403203
C39	C	1.066691	-0.930373	-0.357731
C40	C	1.026866	-0.820609	-0.317877
C41	C	1.070010	-0.855393	-0.361079
C42	C	1.240331	-0.338369	-0.339457
C43	C	1.322130	-0.338374	-0.339466
C44	C	1.048426	-0.338308	-0.531391
C45	C	1.048446	-0.338287	-0.613191
C46	C	1.056668	-0.155152	-0.347676
C47	C	1.060200	-0.077081	-0.351188
C48	C	1.097567	-0.293324	-0.803414
C49	C	1.097576	-0.293304	-0.880273
C50	C	0.999383	-0.383141	-0.876211
C51	C	0.999370	-0.383158	-0.799352
C52	C	1.048466	-0.338250	-0.762956
C53	C	1.048488	-0.338213	-0.916674
C54	C	1.048499	-0.338191	-1.000008
C55	C	1.048455	-0.338271	-0.679616
C56	C	1.048377	-0.338354	-0.148229
C57	C	1.048508	-0.338176	-0.066439
H58	H	0.475397	-0.419965	-0.421041
C59	C	0.396301	-0.253452	-0.254548
C60	C	0.472301	-0.243949	-0.245050
H61	H	0.371588	-0.222933	-0.224029
H62	H	0.384191	-0.243233	-0.304466
H63	H	0.381580	-0.300635	-0.241577
H64	H	0.487022	-0.196767	-0.258026
H65	H	0.484416	-0.254163	-0.195121
C66	C	0.899919	-0.392933	-0.712463
C67	C	0.945394	-0.432545	-0.754876
H68	H	0.866595	-0.423421	-0.685009
H69	H	0.929154	-0.366195	-0.679790
H70	H	0.873160	-0.362326	-0.743827
H71	H	0.972157	-0.463148	-0.723511
H72	H	0.916156	-0.459294	-0.787552
H73	H	0.622116	-0.256751	-0.257851
C74	C	1.194620	-0.204516	-0.815153
C75	C	1.151525	-0.243956	-0.763406
H76	H	1.227928	-0.174033	-0.790454
H77	H	1.221393	-0.235112	-0.843755
H78	H	1.163765	-0.177646	-0.846335
H79	H	1.182380	-0.270830	-0.732227
H80	H	1.124751	-0.213356	-0.734791
H81	H	1.121734	-0.605613	-0.412927
H82	H	1.151742	-0.937063	-0.442896
C83	C	1.172203	-0.701378	-0.463403
C84	C	1.128792	-0.749122	-0.419937
H85	H	1.203041	-0.726222	-0.494246
H86	H	1.141396	-0.672785	-0.492811
H87	H	1.201623	-0.672757	-0.432625
H88	H	1.099368	-0.777741	-0.450714
H89	H	1.159603	-0.777728	-0.390526
C90	C	0.882128	-0.791602	-0.261744
C91	C	0.931275	-0.749406	-0.222163
H92	H	0.849109	-0.816540	-0.228659
H93	H	0.855225	-0.762992	-0.295050
H94	H	0.908721	-0.823901	-0.288355
H95	H	0.904682	-0.717103	-0.195555
H96	H	0.958180	-0.778019	-0.188843
H97	H	0.975152	-1.070389	-0.266019
H98	H	1.145850	-1.070149	-0.436959
H99	H	0.981041	-0.937314	-0.271959
C100	C	1.112084	-0.198796	-0.970948
C101	C	1.151548	-0.243916	-0.924741
H102	H	1.145406	-0.168301	-0.998396
H103	H	1.082859	-0.225537	-1.003626
H104	H	1.081231	-0.171942	-0.942156
H105	H	1.182398	-0.270775	-0.953534
H106	H	1.180786	-0.217172	-0.892060
C107	C	0.894691	-0.643159	-0.185554
C108	C	0.938090	-0.595417	-0.229033
H109	H	0.863870	-0.618313	-0.154695
H110	H	0.865260	-0.671774	-0.216316
H111	H	0.925512	-0.671759	-0.156156
H112	H	0.907268	-0.566820	-0.258436
H113	H	0.967523	-0.566789	-0.198268
H114	H	1.109630	-0.825473	-0.400771
H115	H	0.987245	-0.850535	-0.278186
C116	C	0.955805	-0.423010	-0.992225
C117	C	0.945424	-0.432507	-0.916220
H118	H	0.922495	-0.453492	-1.016922
H119	H	0.947168	-0.375820	-1.006940
H120	H	1.004792	-0.433289	-1.004359
H121	H	0.896438	-0.422223	-0.904086
H122	H	0.954055	-0.479708	-0.901499
H123	H	0.614824	-0.419962	-0.421025
