data_functionalizedCrystal
_audit_creation_method	'MofGen! by Chris Wilmer'
_symmetry_space_group_name_H-M	'P1'
_symmetry_Int_Tables_number	1
_symmetry_cell_setting	triclinic
loop_
_symmetry_equiv_pos_as_xyz
  x,y,z
_cell_length_a	19.805407
_cell_length_b	29.839131
_cell_length_c	19.805399
_cell_angle_alpha	89.969027
_cell_angle_beta	89.983114
_cell_angle_gamma	90.041420
loop_
_atom_site_label
_atom_site_type_symbol
_atom_site_fract_x
_atom_site_fract_y
_atom_site_fract_z
Zn1	Zn	1.034647	-0.178858	-0.382710
Zn2	Zn	1.034538	-0.253987	-0.269518
Zn3	Zn	0.921467	-0.178872	-0.269535
Zn4	Zn	0.921396	-0.253961	-0.382665
O5	O	0.978012	-0.216419	-0.326107
O6	O	1.129349	-0.188828	-0.367707
O7	O	1.019523	-0.244039	-0.174804
O8	O	0.936556	-0.116003	-0.284574
O9	O	1.129269	-0.244026	-0.284545
O10	O	1.019709	-0.115992	-0.367723
O11	O	0.936450	-0.188853	-0.174816
O12	O	0.826741	-0.188828	-0.284530
O13	O	0.936435	-0.243982	-0.477388
O14	O	0.826689	-0.243996	-0.367646
O15	O	1.019640	-0.188803	-0.477421
O16	O	1.019453	-0.316851	-0.284501
O17	O	0.936328	-0.316832	-0.367630
C18	C	0.802156	-0.216411	-0.326085
C19	C	0.726924	-0.216418	-0.326092
C20	C	0.691570	-0.245187	-0.369300
C21	C	0.620882	-0.245188	-0.369310
C22	C	0.585548	-0.216421	-0.326107
C23	C	0.620907	-0.187649	-0.282897
C24	C	0.691594	-0.187646	-0.282891
C25	C	0.335834	-0.187659	-0.282919
C26	C	0.265142	-0.187665	-0.282927
C27	C	0.265121	-0.245201	-0.369338
C28	C	0.335808	-0.245198	-0.369332
C29	C	0.371161	-0.216424	-0.326125
C30	C	0.447809	-0.216423	-0.326116
C31	C	0.508901	-0.216424	-0.326112
C32	C	0.977890	-0.333142	-0.326073
C33	C	0.977899	-0.383076	-0.326082
C34	C	1.021374	-0.692717	-0.282885
C35	C	1.021457	-0.880390	-0.282912
O36	O	1.058324	-0.904652	-0.246159
N37	N	0.978152	-0.903861	-0.326158
C38	C	0.934826	-0.880412	-0.369404
O39	O	0.898000	-0.904682	-0.406194
C40	C	0.934747	-0.692740	-0.369381
C41	C	0.978050	-0.669271	-0.326127
C42	C	1.064674	-0.669248	-0.239635
C43	C	1.064650	-0.622332	-0.239626
C44	C	1.021326	-0.598886	-0.282868
C45	C	0.978026	-0.622355	-0.326118
C46	C	0.891425	-0.669291	-0.412630
C47	C	0.891410	-0.622370	-0.412621
C48	C	0.934713	-0.598901	-0.369367
C49	C	0.934678	-0.551993	-0.369351
N50	N	0.977983	-0.528522	-0.326104
C51	C	1.021307	-0.551968	-0.282863
C52	C	0.934870	-0.978942	-0.369412
C53	C	0.934889	-1.025860	-0.369418
C54	C	1.021521	-1.025835	-0.282926
C55	C	1.021498	-0.978916	-0.282918
C56	C	0.978175	-0.955471	-0.326166
C57	C	1.021253	-0.453442	-0.282847
C58	C	1.021223	-0.406523	-0.282840
C59	C	0.934594	-0.406552	-0.369334
C60	C	0.934621	-0.453467	-0.369339
C61	C	0.977956	-0.476911	-0.326093
O62	O	0.897836	-0.527702	-0.406090
O63	O	1.058139	-0.527690	-0.246090
C64	C	1.021398	-0.739632	-0.282894
C65	C	0.978098	-0.763101	-0.326144
C66	C	0.934774	-0.739655	-0.369386
C67	C	0.978117	-0.810019	-0.326149
C68	C	1.021440	-0.833466	-0.282908
C69	C	1.064746	-0.809994	-0.239661
C70	C	1.064722	-0.763079	-0.239653
C71	C	0.891469	-0.763126	-0.412632
C72	C	0.891496	-0.810042	-0.412637
C73	C	0.934819	-0.833488	-0.369395
C74	C	1.154555	-0.216428	-0.326129
C75	C	1.229787	-0.216432	-0.326139
C76	C	0.978042	-0.216388	-0.502650
C77	C	0.978054	-0.216375	-0.577882
C78	C	0.978153	-0.099241	-0.326156
C79	C	0.978213	-0.049307	-0.326176
C80	C	0.934811	-0.187636	-0.613232
C81	C	0.934820	-0.187628	-0.683920
C82	C	0.978077	-0.216355	-0.719258
C83	C	1.021322	-0.245097	-0.683903
C84	C	1.021309	-0.245108	-0.613215
C85	C	1.021376	-0.245055	-0.968976
C86	C	1.021387	-0.245041	-1.039668
C87	C	0.934887	-0.187575	-1.039681
C88	C	0.934874	-0.187586	-0.968994
C89	C	0.978116	-0.216329	-0.933645
C90	C	0.978105	-0.216339	-0.856997
C91	C	0.978092	-0.216344	-0.795905
C92	C	0.978021	-0.216418	-0.150251
C93	C	0.978140	-0.216305	-0.075019
H94	H	0.364573	-0.268624	-0.404510
N95	N	1.111398	-0.694534	-0.192987
H96	H	1.142761	-0.713970	-0.220515
H97	H	1.138776	-0.672513	-0.165599
N98	N	0.227031	-0.156637	-0.236326
H99	H	0.239361	-0.124546	-0.246927
H100	H	0.176899	-0.161048	-0.242907
N101	N	0.887871	-0.381261	-0.415978
H102	H	0.839518	-0.389461	-0.405428
H103	H	0.894489	-0.347986	-0.409390
H104	H	0.899652	-0.164191	-0.940226
N105	N	1.111479	-0.835285	-0.193023
H106	H	1.100998	-0.827151	-0.144650
H107	H	1.104900	-0.868560	-0.199652
N108	N	0.887910	-0.478784	-0.415983
H109	H	0.860459	-0.456809	-0.443372
H110	H	0.915453	-0.498215	-0.447338
H111	H	0.856132	-0.603282	-0.447842
N112	N	1.067938	-0.381212	-0.236192
H113	H	1.061352	-0.347931	-0.242744
H114	H	1.057441	-0.389442	-0.187843
N115	N	0.844780	-0.835348	-0.459290
H116	H	0.855261	-0.827151	-0.507657
H117	H	0.851383	-0.868622	-0.452685
H118	H	1.056760	-0.959811	-0.247697
N119	N	1.068018	-0.276048	-0.930848
H120	H	1.040481	-0.296871	-0.901508
H121	H	1.095419	-0.294215	-0.963998
H122	H	0.899675	-0.164172	-1.068471
H123	H	1.099983	-0.743974	-0.204431
N124	N	1.068039	-0.276029	-1.077789
H125	H	1.116408	-0.269061	-1.065497
H126	H	1.057423	-0.308117	-1.065461
H127	H	1.056539	-0.268490	-0.712680
N128	N	0.226991	-0.276236	-0.415943
H129	H	0.176850	-0.271874	-0.409395
H130	H	0.239374	-0.269287	-0.464302
H131	H	0.364609	-0.164233	-0.247732
N132	N	0.582753	-0.276224	-0.415906
H133	H	0.553455	-0.258000	-0.447333
H134	H	0.615908	-0.294442	-0.443222
H135	H	1.056527	-0.268506	-0.584434
N136	N	0.888176	-1.051166	-0.416068
H137	H	0.915668	-1.070601	-0.447465
H138	H	0.856840	-1.070638	-0.388491
H139	H	0.592133	-0.164225	-0.247723
N140	N	0.729729	-0.156614	-0.236293
H141	H	0.696621	-0.138390	-0.208924
H142	H	0.759031	-0.174870	-0.204916
H143	H	0.899590	-0.164240	-0.584465
N144	N	1.067992	-0.478725	-0.236205
H145	H	1.095414	-0.456732	-0.208808
H146	H	1.040471	-0.498223	-0.204858
N147	N	1.111365	-0.597023	-0.192984
H148	H	1.138815	-0.619001	-0.165600
H149	H	1.142662	-0.577528	-0.220569
H150	H	0.720333	-0.268614	-0.404479
H151	H	0.899590	-0.959856	-0.404631
N152	N	1.068248	-1.051128	-0.236284
H153	H	1.061685	-1.084411	-0.242854
H154	H	1.116578	-1.042893	-0.246867
H155	H	0.856159	-0.688391	-0.447849
H156	H	0.856190	-0.744040	-0.447845
H157	H	0.899604	-0.164228	-0.712699
