data_functionalizedCrystal
_audit_creation_method	'MofGen! by Chris Wilmer'
_symmetry_space_group_name_H-M	'P1'
_symmetry_Int_Tables_number	1
_symmetry_cell_setting	triclinic
loop_
_symmetry_equiv_pos_as_xyz
  x,y,z
_cell_length_a	17.000371
_cell_length_b	19.188930
_cell_length_c	15.500373
_cell_angle_alpha	86.822813
_cell_angle_beta	86.645620
_cell_angle_gamma	79.372014
loop_
_atom_site_label
_atom_site_type_symbol
_atom_site_fract_x
_atom_site_fract_y
_atom_site_fract_z
O1	O	1.052732	0.022469	0.071948
O2	O	0.820911	0.047815	0.071952
O3	O	0.943512	-0.066906	0.071933
O4	O	0.930131	0.137190	0.071967
O5	O	0.950067	-0.061520	-0.071951
O6	O	0.827466	0.053201	-0.071932
O7	O	1.059287	0.027856	-0.071936
Cu8	Cu	0.943975	0.041020	-0.085072
Cu9	Cu	0.936223	0.034650	0.085088
O10	O	0.936686	0.142576	-0.071917
C11	C	0.794530	0.051869	0.000010
C12	C	0.706157	0.055917	0.000011
C13	C	0.674349	-0.006378	-0.000001
C14	C	0.591312	-0.002570	0.000006
C15	C	0.540086	0.063533	0.000019
C16	C	0.571899	0.125833	0.000033
C17	C	0.654934	0.122025	0.000032
C18	C	0.288888	0.078244	0.000027
C19	C	0.205848	0.082048	0.000025
C20	C	0.225268	-0.046356	-0.000001
C21	C	0.308304	-0.050159	-0.000006
C22	C	0.340109	0.012141	0.000013
C23	C	0.455209	0.067427	0.000023
C24	C	0.424984	0.008246	0.000015
C25	C	0.946356	-0.090198	-0.000011
C26	C	0.945056	-0.167626	-0.000019
C27	C	1.016994	-0.216774	-0.000024
C28	C	1.015772	-0.289526	-0.000010
C29	C	0.942608	-0.313127	-0.000008
C30	C	0.870660	-0.263969	0.000002
C31	C	0.871884	-0.191219	-0.000003
N32	N	0.888913	-0.416015	-0.048974
N33	N	0.887755	-0.485126	-0.048971
C34	C	0.938915	-0.532320	0.000009
N35	N	0.991288	-0.507793	0.048975
N36	N	0.992449	-0.438676	0.048968
C37	C	0.941272	-0.392011	-0.000002
C38	C	1.009532	-0.660355	0.000020
C39	C	1.008306	-0.733108	0.000039
C40	C	0.863193	-0.707549	0.000043
C41	C	0.864420	-0.634798	0.000032
C42	C	0.937592	-0.611205	0.000017
C43	C	1.085668	0.023801	0.000008
C44	C	1.174040	0.019753	0.000013
C45	C	0.933841	0.165868	0.000030
C46	C	0.935141	0.243296	0.000043
N47	N	0.949433	0.045499	-0.204753
C48	C	0.903380	0.007778	-0.250061
C49	C	0.907528	0.011173	-0.340631
C50	C	0.957733	0.052285	-0.385891
C51	C	1.003787	0.090011	-0.340577
C52	C	0.999635	0.086620	-0.250009
C53	C	0.972673	0.064499	-0.659348
C54	C	0.976824	0.067886	-0.749923
C55	C	0.880563	-0.010951	-0.749970
C56	C	0.876419	-0.014342	-0.659400
C57	C	0.922470	0.023387	-0.614094
C58	C	0.961975	0.055754	-0.478468
C59	C	0.918223	0.019921	-0.521518
N60	N	0.930771	0.030165	0.204769
H61	H	0.164140	0.135881	0.000031
H62	H	0.565419	-0.053298	-0.000003
O63	O	1.044330	0.123366	-0.206089
C64	C	1.023019	0.196424	-0.228196
H65	H	0.995151	0.203762	-0.293965
H66	H	1.078794	0.221750	-0.231267
H67	H	0.977883	0.222837	-0.177232
H68	H	1.074354	-0.329550	-0.000011
O69	O	1.078239	-0.780789	0.000151
C70	C	1.119279	-0.773571	0.074672
H71	H	1.098406	-0.718041	0.099511
H72	H	1.186457	-0.782145	0.057903
H73	H	1.106161	-0.814689	0.126860
H74	H	0.811089	-0.283190	0.000005
H75	H	1.044662	0.123488	-0.377435
O76	O	1.025611	0.107883	-0.793756
C77	C	1.065383	0.140442	-0.734348
H78	H	1.029454	0.144113	-0.669798
H79	H	1.071326	0.196034	-0.760510
H80	H	1.127529	0.107508	-0.724698
O81	O	0.801928	-0.143566	-0.000041
C82	C	0.737085	-0.179994	-0.000010
H83	H	0.758721	-0.234585	-0.027244
H84	H	0.688598	-0.148480	-0.041783
H85	H	0.711503	-0.186372	0.069021
H86	H	0.862501	-0.025702	-0.213216
H87	H	0.716053	-0.060207	-0.000015
H88	H	1.069113	-0.641145	0.000012
H89	H	1.002855	0.089225	-0.515330
O90	O	0.792191	-0.730585	0.000010
C91	C	0.806534	-0.805337	0.000042
H92	H	0.869960	-0.825241	-0.027203
H93	H	0.761632	-0.823270	-0.041723
H94	H	0.799606	-0.827947	0.069074
H95	H	0.350008	-0.103987	-0.000021
H96	H	0.413491	0.121249	0.000032
O97	O	0.794597	-0.586978	-0.000087
C98	C	0.794350	-0.541365	-0.074619
H99	H	0.858660	-0.540636	-0.099467
H100	H	0.763743	-0.485423	-0.057862
H101	H	0.760449	-0.561150	-0.126797
O102	O	0.827572	-0.054162	-0.615356
C103	C	0.770689	-0.010212	-0.563010
H104	H	0.794678	0.039575	-0.549409
H105	H	0.758967	-0.040123	-0.499337
H106	H	0.712428	0.005451	-0.597955
O107	O	0.862769	-0.025539	-0.384513
C108	C	0.817554	-0.062545	-0.325151
H109	H	0.847561	-0.071046	-0.260580
H110	H	0.814016	-0.116179	-0.351340
H111	H	0.754522	-0.030336	-0.315532
O112	O	1.017445	0.101040	-0.615245
C113	C	1.069527	0.053194	-0.562857
H114	H	1.044321	0.002375	-0.549310
H115	H	1.075365	0.078348	-0.499160
H116	H	1.131007	0.040170	-0.597738
O117	O	0.474817	-0.055928	0.000117
C118	C	0.520019	-0.064769	0.074647
H119	H	0.522890	-0.010529	0.099506
H120	H	0.583285	-0.093984	0.057880
H121	H	0.490437	-0.096945	0.126819
O122	O	1.088139	-0.193979	0.000005
C123	C	1.151373	-0.252964	-0.000019
H124	H	1.127988	-0.302092	0.027226
H125	H	1.200571	-0.242440	0.041748
H126	H	1.176692	-0.262056	-0.069050
O127	O	0.194324	-0.106856	0.000142
C128	C	0.143465	-0.111275	0.074651
H129	H	0.160607	-0.077937	0.126739
H130	H	0.149970	-0.168949	0.099658
H131	H	0.078694	-0.090511	0.057807
O132	O	0.319667	0.138810	0.000159
C133	C	0.290075	0.175990	0.074697
H134	H	0.231422	0.159552	0.099532
H135	H	0.279098	0.235481	0.057951
H136	H	0.335774	0.163004	0.126879
O137	O	0.522053	0.190001	0.000161
C138	C	0.470057	0.193263	0.074690
H139	H	0.464914	0.137162	0.099524
H140	H	0.408323	0.223739	0.057932
H141	H	0.494889	0.221525	0.126877
O142	O	0.685704	0.182609	0.000004
C143	C	0.622686	0.241770	0.000036
H144	H	0.567583	0.226685	-0.027210
H145	H	0.641793	0.287137	-0.041726
H146	H	0.607724	0.259329	0.069069
O147	O	0.869403	-0.019914	-0.477463
C148	C	0.812519	0.024018	-0.425100
H149	H	0.836483	0.073821	-0.411518
H150	H	0.800836	-0.005897	-0.361418
H151	H	0.754240	0.039654	-0.460020
H152	H	0.843069	-0.041666	-0.786868
