data_functionalizedCrystal
_audit_creation_method	'MofGen! by Chris Wilmer'
_symmetry_space_group_name_H-M	'P1'
_symmetry_Int_Tables_number	1
_symmetry_cell_setting	triclinic
loop_
_symmetry_equiv_pos_as_xyz
  x,y,z
_cell_length_a	16.109301
_cell_length_b	15.944551
_cell_length_c	15.186229
_cell_angle_alpha	89.995303
_cell_angle_beta	89.999362
_cell_angle_gamma	83.480109
loop_
_atom_site_label
_atom_site_type_symbol
_atom_site_fract_x
_atom_site_fract_y
_atom_site_fract_z
O1	O	1.103166	0.107966	-0.073175
O2	O	1.353166	0.357966	0.176825
O3	O	1.603166	0.607966	0.426825
O4	O	1.853166	0.857966	0.676825
O5	O	0.861108	0.121402	-0.073189
O6	O	1.111108	0.371402	0.176811
O7	O	1.361108	0.621402	0.426811
O8	O	1.611108	0.871402	0.676811
O9	O	0.988747	-0.007593	-0.073174
O10	O	1.238747	0.242407	0.176826
O11	O	1.488747	0.492407	0.426826
O12	O	1.738747	0.742407	0.676826
O13	O	0.975527	0.236961	-0.073190
O14	O	1.225527	0.486961	0.176810
O15	O	1.475527	0.736961	0.426810
O16	O	1.725527	0.986961	0.676810
O17	O	0.988738	-0.007594	0.073284
O18	O	1.238738	0.242406	0.323284
O19	O	1.488738	0.492406	0.573284
O20	O	1.738738	0.742406	0.823284
O21	O	0.861099	0.121401	0.073268
O22	O	1.111099	0.371401	0.323268
O23	O	1.361099	0.621401	0.573268
O24	O	1.611099	0.871401	0.823268
O25	O	1.103157	0.107964	0.073282
O26	O	1.353157	0.357964	0.323282
O27	O	1.603157	0.607964	0.573282
O28	O	1.853157	0.857964	0.823282
Zn29	Zn	0.982127	0.114682	0.096529
Zn30	Zn	1.232127	0.364682	0.346529
Zn31	Zn	1.482127	0.614682	0.596529
Zn32	Zn	1.732127	0.864682	0.846529
Zn33	Zn	0.982138	0.114685	-0.096435
Zn34	Zn	1.232138	0.364685	0.153565
Zn35	Zn	1.482138	0.614685	0.403565
Zn36	Zn	1.732138	0.864685	0.653565
O37	O	0.975518	0.236960	0.073267
O38	O	1.225518	0.486960	0.323267
O39	O	1.475518	0.736960	0.573267
O40	O	1.725518	0.986960	0.823267
C41	C	0.830129	0.120857	0.000038
C42	C	1.080129	0.370857	0.250038
C43	C	1.330129	0.620857	0.500038
C44	C	1.580129	0.870857	0.750038
C45	C	0.737833	0.119226	0.000033
C46	C	0.987833	0.369226	0.250033
C47	C	1.237833	0.619226	0.500033
C48	C	1.487833	0.869226	0.750033
C49	C	0.515584	0.191975	0.000038
C50	C	0.765584	0.441975	0.250038
C51	C	1.015584	0.691975	0.500038
C52	C	1.265584	0.941975	0.750038
C53	C	0.428863	0.190435	0.000044
C54	C	0.678863	0.440435	0.250044
C55	C	0.928863	0.690435	0.500044
C56	C	1.178863	0.940435	0.750044
C57	C	0.448688	0.037387	0.000050
C58	C	0.698688	0.287387	0.250050
C59	C	0.948688	0.537387	0.500050
C60	C	1.198688	0.787387	0.750050
C61	C	0.535407	0.038927	0.000051
C62	C	0.785407	0.288927	0.250051
C63	C	1.035407	0.538927	0.500051
C64	C	1.285407	0.788927	0.750051
C65	C	0.568853	0.116224	0.000040
C66	C	0.818853	0.366224	0.250040
C67	C	1.068853	0.616224	0.500040
C68	C	1.318853	0.866224	0.750040
C69	C	0.395412	0.113143	0.000045
C70	C	0.645412	0.363143	0.250045
C71	C	0.895412	0.613143	0.500045
C72	C	1.145412	0.863143	0.750045
C73	C	0.301386	0.111473	0.000052
C74	C	0.551386	0.361473	0.250052
C75	C	0.801386	0.611473	0.500052
C76	C	1.051386	0.861473	0.750052
C77	C	0.662885	0.117894	0.000036
C78	C	0.912885	0.367894	0.250036
C79	C	1.162885	0.617894	0.500036
C80	C	1.412885	0.867894	0.750036
C81	C	0.988194	-0.038887	0.000055
C82	C	1.238194	0.211113	0.250055
C83	C	1.488194	0.461113	0.500055
C84	C	1.738194	0.711113	0.750055
C85	C	0.986548	-0.132133	0.000056
C86	C	1.236548	0.117867	0.250056
C87	C	1.486548	0.367867	0.500056
C88	C	1.736548	0.617867	0.750056
C89	C	0.903499	-0.346962	0.000039
C90	C	1.153499	-0.096962	0.250039
C91	C	1.403499	0.153038	0.500039
C92	C	1.653499	0.403038	0.750039
C93	C	0.942060	-0.407993	0.072253
C94	C	1.192060	-0.157993	0.322253
C95	C	1.442060	0.092007	0.572253
C96	C	1.692060	0.342007	0.822253
C97	C	0.983572	-0.302858	0.000049
C98	C	1.233572	-0.052858	0.250049
C99	C	1.483572	0.197142	0.500049
C100	C	1.733572	0.447142	0.750049
C101	C	0.942087	-0.407975	-0.072142
C102	C	1.192087	-0.157975	0.177858
C103	C	1.442087	0.092025	0.427858
C104	C	1.692087	0.342025	0.677858
C105	C	0.980691	-0.467769	0.000038
C106	C	1.230691	-0.217769	0.250038
C107	C	1.480691	0.032231	0.500038
C108	C	1.730691	0.282231	0.750038
C109	C	1.022155	-0.362660	0.072323
C110	C	1.272155	-0.112660	0.322323
C111	C	1.522155	0.137340	0.572323
C112	C	1.772155	0.387340	0.822323
C113	C	1.022171	-0.362636	-0.072137
C114	C	1.272171	-0.112636	0.177863
C115	C	1.522171	0.137364	0.427863
C116	C	1.772171	0.387364	0.677863
C117	C	1.060790	-0.423649	0.000095
C118	C	1.310790	-0.173649	0.250095
C119	C	1.560790	0.076351	0.500095
C120	C	1.810790	0.326351	0.750095
C121	C	0.985229	-0.207856	0.000055
C122	C	1.235229	0.042144	0.250055
C123	C	1.485229	0.292144	0.500055
C124	C	1.735229	0.542144	0.750055
C125	C	0.979039	-0.562770	0.000038
C126	C	1.229039	-0.312770	0.250038
C127	C	1.479039	-0.062770	0.500038
C128	C	1.729039	0.187230	0.750038
C129	C	1.134136	0.108510	0.000054
C130	C	1.384136	0.358510	0.250054
C131	C	1.634136	0.608510	0.500054
C132	C	1.884136	0.858510	0.750054
C133	C	1.226432	0.110141	0.000053
C134	C	1.476432	0.360141	0.250053
C135	C	1.726432	0.610141	0.500053
C136	C	1.976432	0.860141	0.750053
C137	C	0.976071	0.268254	0.000036
C138	C	1.226071	0.518254	0.250036
C139	C	1.476071	0.768254	0.500036
C140	C	1.726071	1.018254	0.750036
C141	C	0.977717	0.361500	0.000030
C142	C	1.227717	0.611500	0.250030
C143	C	1.477717	0.861500	0.500030
C144	C	1.727717	1.111500	0.750030
N145	N	0.982125	0.114680	0.228221
N146	N	1.232125	0.364680	0.478221
N147	N	1.482125	0.614680	0.728221
N148	N	1.732125	0.864680	0.978221
N149	N	0.982146	0.114680	-0.228128
N150	N	1.232146	0.364680	0.021872
N151	N	1.482146	0.614680	0.271872
N152	N	1.732146	0.864680	0.521872
C153	C	1.038663	0.057580	0.453951
C154	C	1.288663	0.307580	0.703951
C155	C	1.538663	0.557580	0.953951
C156	C	1.788663	0.807580	1.203951
C157	C	1.038666	0.057578	0.546141
C158	C	1.288666	0.307578	0.796141
C159	C	1.538666	0.557578	1.046141
C160	C	1.788666	0.807578	1.296141
C161	C	0.925603	0.171783	0.546136
C162	C	1.175603	0.421783	0.796136
C163	C	1.425603	0.671783	1.046136
C164	C	1.675603	0.921783	1.296136
C165	C	0.925597	0.171780	0.453948
C166	C	1.175597	0.421780	0.703948
C167	C	1.425597	0.671780	0.953948
C168	C	1.675597	0.921780	1.203948
C169	C	0.982132	0.114680	0.407858
C170	C	1.232132	0.364680	0.657858
C171	C	1.482132	0.614680	0.907858
C172	C	1.732132	0.864680	1.157858
C173	C	0.982140	0.114680	0.592236
C174	C	1.232140	0.364680	0.842236
C175	C	1.482140	0.614680	1.092236
C176	C	1.732140	0.864680	1.342236
C177	C	0.982143	0.114679	0.692192
C178	C	1.232143	0.364679	0.942192
C179	C	1.482143	0.614679	1.192192
C180	C	1.732143	0.864679	1.442192
C181	C	0.982128	0.114680	0.307895
C182	C	1.232128	0.364680	0.557895
C183	C	1.482128	0.614680	0.807895
C184	C	1.732128	0.864680	1.057895
H185	H	0.542812	0.254914	0.000036
H186	H	0.792812	0.504914	0.250036
H187	H	1.042812	0.754914	0.500036
H188	H	1.292812	1.004914	0.750036
F189	F	1.098831	-0.003193	0.404902
F190	F	1.348831	0.246807	0.654902
F191	F	1.598831	0.496807	0.904902
F192	F	1.848831	0.746807	1.154902
H193	H	0.908213	-0.428040	-0.133198
H194	H	1.158213	-0.178040	0.116802
H195	H	1.408213	0.071960	0.366802
H196	H	1.658213	0.321960	0.616802
H197	H	1.084698	0.011082	0.583667
H198	H	1.334698	0.261082	0.833667
H199	H	1.584698	0.511082	1.083667
H200	H	1.834698	0.761082	1.333667
F201	F	0.865422	0.232553	0.404889
F202	F	1.115422	0.482553	0.654889
F203	F	1.365422	0.732553	0.904889
F204	F	1.615422	0.982553	1.154889
H205	H	0.385495	0.252119	0.000044
H206	H	0.635495	0.502119	0.250044
H207	H	0.885495	0.752119	0.500044
H208	H	1.135495	1.002119	0.750044
H209	H	0.879574	0.218274	0.583672
H210	H	1.129574	0.468274	0.833672
H211	H	1.379574	0.718274	1.083672
H212	H	1.629574	0.968274	1.333672
H213	H	0.421446	-0.025546	0.000064
H214	H	0.671446	0.224454	0.250064
H215	H	0.921446	0.474454	0.500064
H216	H	1.171446	0.724454	0.750064
H217	H	0.837035	-0.313632	0.000107
H218	H	1.087035	-0.063632	0.250107
H219	H	1.337035	0.186368	0.500107
H220	H	1.587035	0.436368	0.750107
F221	F	0.592103	-0.041702	0.000059
F222	F	0.842103	0.208298	0.250059
F223	F	1.092103	0.458298	0.500059
F224	F	1.342103	0.708298	0.750059
F225	F	1.066383	-0.336551	0.152209
F226	F	1.316383	-0.086551	0.402209
F227	F	1.566383	0.163449	0.652209
F228	F	1.816383	0.413449	0.902209
F229	F	0.897790	-0.434263	0.152048
F230	F	1.147790	-0.184263	0.402048
F231	F	1.397790	0.065737	0.652048
F232	F	1.647790	0.315737	0.902048
H233	H	1.056013	-0.342516	-0.133188
H234	H	1.306013	-0.092516	0.116812
H235	H	1.556013	0.157484	0.366812
H236	H	1.806013	0.407484	0.616812
F237	F	1.147739	-0.467021	0.000150
F238	F	1.397739	-0.217021	0.250150
F239	F	1.647739	0.032979	0.500150
F240	F	1.897739	0.282979	0.750150
