data_functionalizedCrystal
_audit_creation_method	'MofGen! by Chris Wilmer'
_symmetry_space_group_name_H-M	'P1'
_symmetry_Int_Tables_number	1
_symmetry_cell_setting	triclinic
loop_
_symmetry_equiv_pos_as_xyz
  x,y,z
_cell_length_a	14.853569
_cell_length_b	10.654541
_cell_length_c	9.730217
_cell_angle_alpha	89.993975
_cell_angle_beta	89.996601
_cell_angle_gamma	95.940253
loop_
_atom_site_label
_atom_site_type_symbol
_atom_site_fract_x
_atom_site_fract_y
_atom_site_fract_z
O1	O	1.197233	-0.163974	0.114226
O2	O	0.934878	-0.183504	0.114243
O3	O	1.072088	0.009063	0.114226
O4	O	1.060022	-0.356541	0.114243
O5	O	1.072092	0.009077	-0.114354
O6	O	0.934882	-0.183490	-0.114337
O7	O	1.197237	-0.163961	-0.114354
Zn8	Zn	1.066060	-0.173723	-0.150637
Zn9	Zn	1.066055	-0.173741	0.150527
O10	O	1.060026	-0.356528	-0.114337
C11	C	0.901286	-0.182612	-0.000045
C12	C	0.801189	-0.179959	-0.000039
C13	C	0.764194	-0.064326	-0.000040
C14	C	0.744128	-0.293100	-0.000044
C15	C	0.650080	-0.290612	-0.000046
C16	C	0.613085	-0.174978	-0.000046
C17	C	0.670138	-0.061833	-0.000045
C18	C	0.593021	-0.403755	-0.000061
C19	C	0.498967	-0.401271	-0.000064
C20	C	0.461971	-0.285636	-0.000055
C21	C	0.519029	-0.172486	-0.000052
C22	C	0.482034	-0.056853	-0.000053
C23	C	0.539092	0.056298	-0.000041
C24	C	0.633141	0.053802	-0.000036
C25	C	0.367921	-0.283139	-0.000059
C26	C	0.387979	-0.054360	-0.000059
C27	C	1.071205	0.055859	-0.000063
C28	C	1.068556	0.195275	-0.000061
C29	C	1.230828	-0.164853	-0.000063
C30	C	1.330926	-0.167506	-0.000060
C31	C	1.060910	-0.403323	-0.000044
C32	C	1.063559	-0.542739	-0.000038
N33	N	1.066070	-0.173710	-0.356174
C34	C	1.232628	0.224949	-0.000089
C35	C	1.313416	0.305282	-0.000105
C36	C	1.310921	0.436274	-0.000101
C37	C	1.227629	0.486934	-0.000076
C38	C	1.146842	0.406602	-0.000059
C39	C	1.149345	0.275608	-0.000068
C40	C	0.982771	0.376928	-0.000021
C41	C	0.985264	0.245935	-0.000036
C42	C	0.899479	0.427588	0.000004
C43	C	0.818690	0.347255	0.000010
C44	C	0.821188	0.216256	0.000004
C45	C	0.904476	0.165602	-0.000019
N46	N	1.066051	-0.173745	0.356063
C47	C	0.955973	-0.020816	0.356052
C48	C	0.900933	0.055652	0.427986
C49	C	0.900937	0.055668	0.571866
C50	C	0.955988	-0.020790	0.643815
C51	C	1.011027	-0.097258	0.571880
C52	C	1.011016	-0.097268	0.427997
C53	C	1.121109	-0.250178	0.571892
C54	C	1.121102	-0.250202	0.428012
C55	C	1.176160	-0.326636	0.643841
C56	C	1.231196	-0.403112	0.571906
C57	C	1.231189	-0.403126	0.428018
C58	C	1.176142	-0.326670	0.356078
H59	H	0.452518	-0.493406	-0.000072
H60	H	0.810654	0.027799	-0.000024
H61	H	1.276018	-0.465352	0.630499
C62	C	0.840372	0.139736	0.348833
C63	C	0.883200	0.241821	0.249873
C64	C	0.822638	0.325900	0.170722
C65	C	0.719247	0.307894	0.190532
C66	C	0.676413	0.205805	0.289497
C67	C	0.736975	0.121726	0.368648
H68	H	0.959741	0.255153	0.235205
H69	H	0.854347	0.401473	0.097462
H70	H	0.674415	0.370135	0.131940
H71	H	0.599871	0.192473	0.304166
H72	H	0.705266	0.046153	0.441908
C73	C	0.840396	0.139782	0.651004
C74	C	0.852970	0.283930	0.631198
C75	C	0.792430	0.368044	0.710337
C76	C	0.719317	0.308009	0.809282
C77	C	0.706740	0.163852	0.829092
C78	C	0.767280	0.079739	0.749953
H79	H	0.907095	0.328379	0.557949
H80	H	0.801741	0.474759	0.695671
H81	H	0.674502	0.370275	0.867865
H82	H	0.652615	0.119403	0.902341
H83	H	0.757969	-0.026976	0.764618
H84	H	1.276013	-0.465391	0.369458
H85	H	0.357865	0.039804	-0.000052
H86	H	1.225605	0.593596	-0.000055
H87	H	0.508958	0.150448	-0.000032
H88	H	0.679605	0.145923	-0.000029
H89	H	0.774255	-0.387244	-0.000053
H90	H	0.897454	0.534250	0.000016
H91	H	0.623149	-0.497898	-0.000069
H92	H	1.376706	0.501682	-0.000103
H93	H	0.321469	-0.375265	-0.000081
H94	H	0.955994	-0.020759	0.760969
H95	H	1.234668	0.118290	-0.000111
H96	H	0.750880	0.388514	0.000040
H97	H	1.381231	0.264019	-0.000138
H98	H	0.755400	0.150854	0.000024
H99	H	0.906518	0.058944	-0.000032
H100	H	0.955958	-0.020830	0.238897
H101	H	1.176164	-0.326611	0.760995
H102	H	1.176128	-0.326677	0.238923
