data_functionalizedCrystal
_audit_creation_method	'MofGen! by Chris Wilmer'
_symmetry_space_group_name_H-M	'P1'
_symmetry_Int_Tables_number	1
_symmetry_cell_setting	triclinic
loop_
_symmetry_equiv_pos_as_xyz
  x,y,z
_cell_length_a	27.731996
_cell_length_b	14.853567
_cell_length_c	13.330367
_cell_angle_alpha	89.995281
_cell_angle_beta	90.008387
_cell_angle_gamma	96.871841
loop_
_atom_site_label
_atom_site_type_symbol
_atom_site_fract_x
_atom_site_fract_y
_atom_site_fract_z
O1	O	0.063106	-1.195321	0.083368
O2	O	0.563106	-0.695321	0.583368
O3	O	0.070624	-0.932736	0.083387
O4	O	0.570624	-0.432736	0.583387
O5	O	-0.003495	-1.072208	0.083355
O6	O	0.496505	-0.572208	0.583355
O7	O	0.137226	-1.055849	0.083400
O8	O	0.637226	-0.555849	0.583400
O9	O	-0.003493	-1.072187	-0.083492
O10	O	0.496507	-0.572187	0.416508
O11	O	0.070626	-0.932715	-0.083460
O12	O	0.570626	-0.432715	0.416540
O13	O	0.063108	-1.195300	-0.083479
O14	O	0.563108	-0.695300	0.416521
Cu15	Cu	0.066867	-1.064006	-0.098704
Cu16	Cu	0.566867	-0.564006	0.401296
Cu17	Cu	0.066865	-1.064030	0.098612
Cu18	Cu	0.566865	-0.564030	0.598612
O19	O	0.137227	-1.055828	-0.083447
O20	O	0.637227	-0.555828	0.416553
C21	C	0.070284	-0.899143	-0.000035
C22	C	0.570284	-0.399143	0.499965
C23	C	0.069264	-0.799076	-0.000028
C24	C	0.569264	-0.299076	0.499972
N25	N	0.066868	-1.063995	-0.237486
N26	N	0.566868	-0.563995	0.262514
C27	C	-0.021503	-1.071862	-0.000072
C28	C	0.478497	-0.571862	0.499928
C29	C	-0.075164	-1.070849	-0.000082
C30	C	0.424836	-0.570849	0.499918
C31	C	-0.407911	-1.064492	0.090916
C32	C	0.092089	-0.564492	0.590916
C33	C	-0.609587	-1.060649	0.090934
C34	C	-0.109587	-0.560649	0.590934
O35	O	-0.635661	-1.060123	0.168282
O36	O	-0.135661	-0.560123	0.668282
N37	N	-0.634806	-1.060160	-0.000014
N38	N	-0.134806	-0.560160	0.499986
C39	C	-0.609602	-1.060626	-0.090972
C40	C	-0.109602	-0.560626	0.409028
O41	O	-0.635679	-1.060112	-0.168328
O42	O	-0.135679	-0.560112	0.331672
C43	C	-0.407926	-1.064463	-0.090989
C44	C	0.092074	-0.564463	0.409011
C45	C	-0.382711	-1.064961	-0.000036
C46	C	0.117289	-0.564961	0.499964
C47	C	-0.382696	-1.064990	0.181862
C48	C	0.117304	-0.564990	0.681862
C49	C	-0.332280	-1.065955	0.181856
C50	C	0.167720	-0.565955	0.681856
C51	C	-0.307080	-1.066424	0.090905
C52	C	0.192920	-0.566424	0.590905
C53	C	-0.332295	-1.065927	-0.000041
C54	C	0.167705	-0.565927	0.499959
C55	C	-0.382722	-1.064923	-0.181946
C56	C	0.117278	-0.564923	0.318054
C57	C	-0.332300	-1.065880	-0.181943
C58	C	0.167700	-0.565880	0.318057
C59	C	-0.307085	-1.066378	-0.090989
C60	C	0.192915	-0.566378	0.409011
C61	C	-0.256679	-1.067362	-0.090998
C62	C	0.243321	-0.567362	0.409002
N63	N	-0.231461	-1.067851	-0.000050
N64	N	0.268539	-0.567851	0.499950
C65	C	-0.256661	-1.067382	0.090901
C66	C	0.243339	-0.567382	0.590901
C67	C	-0.715485	-1.058613	-0.090957
C68	C	-0.215485	-0.558613	0.409043
C69	C	-0.765903	-1.057655	-0.090953
C70	C	-0.265903	-0.557655	0.409047
C71	C	-0.765885	-1.057676	0.090953
C72	C	-0.265885	-0.557676	0.590953
C73	C	-0.715466	-1.058641	0.090948
C74	C	-0.215466	-0.558641	0.590948
C75	C	-0.690266	-1.059102	-0.000009
C76	C	-0.190266	-0.559102	0.499991
C77	C	-0.150784	-1.069411	0.090883
C78	C	0.349216	-0.569411	0.590883
C79	C	-0.100364	-1.070381	0.090869
C80	C	0.399636	-0.570381	0.590869
C81	C	-0.100387	-1.070355	-0.091036
C82	C	0.399613	-0.570355	0.408964
C83	C	-0.150802	-1.069390	-0.091023
C84	C	0.349198	-0.569390	0.408977
C85	C	-0.176000	-1.068915	-0.000056
C86	C	0.324000	-0.568915	0.499944
O87	O	-0.230573	-1.067878	-0.168306
O88	O	0.269427	-0.567878	0.331694
O89	O	-0.230574	-1.067875	0.168246
O90	O	0.269426	-0.567875	0.668246
C91	C	-0.458327	-1.063527	0.090921
C92	C	0.041673	-0.563527	0.590921
C93	C	-0.483542	-1.063030	-0.000025
C94	C	0.016458	-0.563030	0.499975
C95	C	-0.458342	-1.063498	-0.090976
C96	C	0.041658	-0.563498	0.409024
C97	C	-0.533961	-1.062072	-0.000021
C98	C	-0.033961	-0.562072	0.499979
C99	C	-0.559161	-1.061603	0.090931
C100	C	-0.059161	-0.561603	0.590931
C101	C	-0.533943	-1.062092	0.181878
C102	C	-0.033943	-0.562092	0.681878
C103	C	-0.483527	-1.063058	0.181873
C104	C	0.016473	-0.563058	0.681873
C105	C	-0.483560	-1.063009	-0.181924
C106	C	0.016440	-0.563009	0.318076
C107	C	-0.533976	-1.062045	-0.181911
C108	C	-0.033976	-0.562045	0.318089
C109	C	-0.559176	-1.061576	-0.090959
C110	C	-0.059176	-0.561576	0.409041
C111	C	0.155235	-1.056174	-0.000018
C112	C	0.655235	-0.556174	0.499982
C113	C	0.208896	-1.057187	-0.000002
C114	C	0.708896	-0.557187	0.499998
C115	C	0.063448	-1.228893	-0.000055
C116	C	0.563448	-0.728893	0.499945
C117	C	0.064469	-1.328960	-0.000055
C118	C	0.564469	-0.828960	0.499945
C119	C	0.020920	-0.387345	-0.000066
C120	C	0.520920	0.112655	0.499934
C121	C	0.108976	-0.364601	-0.000037
C122	C	0.608976	0.135399	0.499963
C123	C	0.109935	-0.458619	-0.000034
C124	C	0.609935	0.041381	0.499966
C125	C	0.066387	-0.517005	-0.000045
C126	C	0.566387	-0.017005	0.499955
C127	C	0.021879	-0.481372	-0.000060
C128	C	0.521879	0.018628	0.499940
C129	C	0.154443	-0.494259	-0.000009
C130	C	0.654443	0.005741	0.499991
C131	C	0.155404	-0.588282	-0.000004
C132	C	0.655404	-0.088282	0.499996
C133	C	0.111855	-0.646669	-0.000023
C134	C	0.611855	-0.146669	0.499977
C135	C	0.067345	-0.611031	-0.000039
C136	C	0.567345	-0.111031	0.499961
C137	C	0.023797	-0.669417	-0.000050
C138	C	0.523797	-0.169417	0.499950
C139	C	-0.020714	-0.633781	-0.000073
C140	C	0.479286	-0.133781	0.499927
C141	C	-0.021670	-0.539760	-0.000078
C142	C	0.478330	-0.039760	0.499922
C143	C	0.112812	-0.740691	-0.000017
C144	C	0.612812	-0.240691	0.499983
C145	C	0.024755	-0.763444	-0.000043
C146	C	0.524755	-0.263444	0.499957
C147	C	0.037497	-1.009742	-0.290016
C148	C	0.537497	-0.509742	0.209984
C149	C	0.096236	-1.118258	-0.289983
C150	C	0.596236	-0.618258	0.210017
C151	C	0.096236	-1.118269	-0.395001
C152	C	0.596236	-0.618269	0.104999
C153	C	0.066865	-1.064016	-0.447532
C154	C	0.566865	-0.564016	0.052468
C155	C	0.037495	-1.009753	-0.395045
C156	C	0.537495	-0.509753	0.104955
C157	C	0.125602	-1.172537	-0.447497
C158	C	0.625602	-0.672537	0.052503
C159	C	0.125603	-1.172551	-0.552522
C160	C	0.625603	-0.672551	-0.052522
C161	C	0.096234	-1.118293	-0.605054
C162	C	0.596234	-0.618293	-0.105054
C163	C	0.066863	-1.064027	-0.552560
C164	C	0.566863	-0.564027	-0.052560
C165	C	0.037492	-1.009775	-0.605091
C166	C	0.537492	-0.509775	-0.105091
C167	C	0.008124	-0.955503	-0.552599
C168	C	0.508124	-0.455503	-0.052599
C169	C	0.008127	-0.955495	-0.447577
C170	C	0.508127	-0.455495	0.052423
C171	C	0.096231	-1.118301	-0.710076
C172	C	0.596231	-0.618301	-0.210076
C173	C	0.037490	-1.009786	-0.710119
C174	C	0.537490	-0.509786	-0.210119
N175	N	0.066860	-1.064049	0.237393
N176	N	0.566860	-0.564049	0.737393
H177	H	-0.079837	-1.070788	0.164938
H178	H	0.420163	-0.570788	0.664938
Br179	Br	0.213540	-0.415019	0.000028
Br180	Br	0.713540	0.084981	0.500028
Br181	Br	-0.002355	-0.936085	-0.218782
Br182	Br	0.497645	-0.436085	0.281218
H183	H	-0.056170	-0.681331	-0.000075
H184	H	0.443830	-0.181331	0.499925
H185	H	0.191647	-0.617288	0.000014
H186	H	0.691647	-0.117288	0.500014
Br187	Br	0.173214	-0.789051	0.000025
Br188	Br	0.673214	-0.289051	0.500025
Br189	Br	0.165461	-1.246200	-0.623752
Br190	Br	0.665461	-0.746200	-0.123752
Br191	Br	-0.568191	-1.061376	-0.305360
Br192	Br	-0.068191	-0.561376	0.194640
Br193	Br	-0.002368	-0.936145	-0.781403
Br194	Br	0.497632	-0.436145	-0.281403
Br195	Br	-0.082072	-0.491391	-0.000106
Br196	Br	0.417928	0.008609	0.499894
Br197	Br	-0.568154	-1.061463	0.305311
Br198	Br	-0.068154	-0.561463	0.805311
Br199	Br	-0.298067	-1.066625	0.305300
Br200	Br	0.201933	-0.566625	0.805300
H201	H	-0.015319	-0.358326	-0.000089
H202	H	0.484681	0.141674	0.499911
Br203	Br	-0.031739	-0.881886	-0.623903
Br204	Br	0.468261	-0.381886	-0.123903
Br205	Br	-0.031728	-0.881849	-0.376333
Br206	Br	0.468272	-0.381849	0.123667
Br207	Br	0.136080	-1.191959	-0.781311
Br208	Br	0.636080	-0.691959	-0.281311
H209	H	-0.171294	-1.069020	0.164957
H210	H	0.328706	-0.569020	0.664957
H211	H	-0.403208	-1.064604	0.255930
H212	H	0.096792	-0.564604	0.755930
Br213	Br	0.165455	-1.246170	-0.376202
Br214	Br	0.665455	-0.746170	0.123798
Br215	Br	-0.681251	-1.059316	0.214389
Br216	Br	-0.181251	-0.559316	0.714389
Br217	Br	-0.800095	-1.057037	0.214387
Br218	Br	-0.300095	-0.557037	0.714387
Br219	Br	-0.416930	-1.064243	-0.305391
Br220	Br	0.083070	-0.564243	0.194609
H221	H	-0.010708	-0.810976	-0.000056
H222	H	0.489292	-0.310976	0.499944
H223	H	0.144431	-0.317059	-0.000020
H224	H	0.644431	0.182941	0.499980
Br225	Br	0.136090	-1.191891	-0.218691
Br226	Br	0.636090	-0.691891	0.281309
H227	H	-0.463001	-1.063463	0.255936
H228	H	0.036999	-0.563463	0.755936
H229	H	-0.694972	-1.058993	-0.165030
H230	H	-0.194972	-0.558993	0.334970
Br231	Br	-0.800119	-1.057001	-0.214395
Br232	Br	-0.300119	-0.557001	0.285605
H233	H	-0.171334	-1.068993	-0.165085
H234	H	0.328666	-0.568993	0.334915
Br235	Br	-0.298103	-1.066504	-0.305393
Br236	Br	0.201897	-0.566504	0.194607
H237	H	-0.079860	-1.070741	-0.165087
H238	H	0.420140	-0.570741	0.334913
H239	H	-0.463047	-1.063393	-0.255989
H240	H	0.036953	-0.563393	0.244011
