data_functionalizedCrystal
_audit_creation_method	'MofGen! by Chris Wilmer'
_symmetry_space_group_name_H-M	'P1'
_symmetry_Int_Tables_number	1
_symmetry_cell_setting	triclinic
loop_
_symmetry_equiv_pos_as_xyz
  x,y,z
_cell_length_a	15.944499
_cell_length_b	10.268362
_cell_length_c	11.792241
_cell_angle_alpha	89.999626
_cell_angle_beta	83.835512
_cell_angle_gamma	89.997962
loop_
_atom_site_label
_atom_site_type_symbol
_atom_site_fract_x
_atom_site_fract_y
_atom_site_fract_z
O1	O	0.115131	-0.108164	1.505931
O2	O	0.448464	0.225170	1.839265
O3	O	0.781798	0.558503	2.172598
O4	O	0.126996	-0.108193	1.175490
O5	O	0.460330	0.225140	1.508823
O6	O	0.793663	0.558474	1.842156
O7	O	-0.001173	-0.108180	1.349765
O8	O	0.332160	0.225154	1.683098
O9	O	0.665493	0.558487	2.016431
O10	O	0.243301	-0.108177	1.331656
O11	O	0.576634	0.225156	1.664990
O12	O	0.909967	0.558490	1.998323
O13	O	-0.001179	0.108421	1.349750
O14	O	0.332155	0.441754	1.683083
O15	O	0.665488	0.775088	2.016416
O16	O	0.126991	0.108408	1.175474
O17	O	0.460324	0.441741	1.508808
O18	O	0.793658	0.775074	1.842141
O19	O	0.115126	0.108437	1.505916
O20	O	0.448459	0.441770	1.839250
O21	O	0.781792	0.775104	2.172583
Cu22	Cu	0.121058	0.128200	1.340694
Cu23	Cu	0.454391	0.461533	1.674027
Cu24	Cu	0.787724	0.794866	2.007361
Cu25	Cu	0.121064	-0.127956	1.340712
Cu26	Cu	0.454397	0.205378	1.674045
Cu27	Cu	0.787731	0.538711	2.007379
O28	O	0.243295	0.108424	1.331641
O29	O	0.576629	0.441757	1.664974
O30	O	0.909962	0.775090	1.998308
C31	C	0.126248	0.000103	1.133197
C32	C	0.459582	0.333437	1.466531
C33	C	0.792915	0.666770	1.799864
C34	C	0.124017	0.000092	1.007203
C35	C	0.457351	0.333425	1.340536
C36	C	0.790684	0.666758	1.673869
C37	C	-0.032474	0.000117	1.349016
C38	C	0.300859	0.333451	1.682349
C39	C	0.634193	0.666784	2.015682
C40	C	-0.125732	0.000107	1.346793
C41	C	0.207601	0.333440	1.680126
C42	C	0.540934	0.666774	2.013460
N43	N	0.121053	0.308365	1.340690
N44	N	0.454386	0.641699	1.674023
N45	N	0.787720	0.975032	2.007356
C46	C	-0.416811	0.000123	1.448042
C47	C	-0.083478	0.333457	1.781376
C48	C	0.249855	0.666790	2.114709
C49	C	-0.356026	0.106919	1.395403
C50	C	-0.022693	0.440252	1.728736
C51	C	0.310640	0.773585	2.062070
C52	C	-0.461405	0.000122	1.338718
C53	C	-0.128072	0.333455	1.672051
C54	C	0.205261	0.666788	2.005385
C55	C	-0.356027	-0.106632	1.395389
C56	C	-0.022694	0.226701	1.728722
C57	C	0.310639	0.560034	2.062055
C58	C	-0.296479	0.000112	1.342691
C59	C	0.036855	0.333446	1.676025
C60	C	0.370188	0.666779	2.009358
C61	C	-0.401848	0.107005	1.286048
C62	C	-0.068515	0.440339	1.619381
C63	C	0.264818	0.773672	1.952715
C64	C	-0.401856	-0.106642	1.286049
C65	C	-0.068523	0.226691	1.619382
C66	C	0.264811	0.560025	1.952716
C67	C	-0.341089	0.000180	1.233330
C68	C	-0.007755	0.333513	1.566663
C69	C	0.325578	0.666846	1.899997
C70	C	-0.556416	0.000128	1.336432
C71	C	-0.223082	0.333461	1.669765
C72	C	0.110251	0.666795	2.003099
C73	C	-0.201469	0.000115	1.344969
C74	C	0.131864	0.333448	1.678302
C75	C	0.465197	0.666782	2.011635
C76	C	0.274596	0.000124	1.332390
C77	C	0.607929	0.333457	1.665723
C78	C	0.941263	0.666790	1.999057
C79	C	0.367854	0.000125	1.334613
C80	C	0.701188	0.333459	1.667946
C81	C	1.034521	0.666792	2.001279
N82	N	0.121062	-0.308122	1.340725
N83	N	0.454396	0.025212	1.674058
N84	N	0.787729	0.358545	2.007392
C85	C	0.121062	0.574036	1.340706
C86	C	0.454396	0.907369	1.674039
C87	C	0.787729	1.240703	2.007373
C88	C	0.121060	0.426198	1.340693
C89	C	0.454393	0.759531	1.674027
C90	C	0.787726	1.092865	2.007360
C91	C	0.119915	0.000129	0.776525
C92	C	0.453249	0.333463	1.109859
C93	C	0.786582	0.666796	1.443192
C94	C	0.122195	0.000109	0.904891
C95	C	0.455528	0.333442	1.238224
C96	C	0.788861	0.666775	1.571558
C97	C	0.115874	0.000138	1.548208
C98	C	0.449207	0.333471	1.881542
C99	C	0.782540	0.666804	2.214875
C100	C	0.118104	0.000141	1.674203
C101	C	0.451438	0.333474	2.007537
C102	C	0.784771	0.666807	2.340870
H103	H	-0.449732	0.000234	1.538771
H104	H	-0.116398	0.333567	1.872104
H105	H	0.216935	0.666900	2.205437
H106	H	-0.308316	0.000234	1.142523
H107	H	0.025017	0.333567	1.475856
H108	H	0.358351	0.666901	1.809190
H109	H	-0.335729	0.197212	1.441638
H110	H	-0.002396	0.530545	1.774971
H111	H	0.330937	0.863878	2.108305
H112	H	-0.422175	-0.196939	1.239853
H113	H	-0.088841	0.136394	1.573186
H114	H	0.244492	0.469727	1.906520
H115	H	-0.335736	-0.196911	1.441654
H116	H	-0.002403	0.136422	1.774987
H117	H	0.330931	0.469755	2.108321
H118	H	-0.422041	0.197387	1.239839
H119	H	-0.088708	0.530720	1.573173
H120	H	0.244626	0.864053	1.906506
