data_functionalizedCrystal
_audit_creation_method	'MofGen! by Chris Wilmer'
_symmetry_space_group_name_H-M	'P1'
_symmetry_Int_Tables_number	1
_symmetry_cell_setting	triclinic
loop_
_symmetry_equiv_pos_as_xyz
  x,y,z
_cell_length_a	13.262533
_cell_length_b	11.804365
_cell_length_c	10.654550
_cell_angle_alpha	101.948153
_cell_angle_beta	95.539506
_cell_angle_gamma	86.417682
loop_
_atom_site_label
_atom_site_type_symbol
_atom_site_fract_x
_atom_site_fract_y
_atom_site_fract_z
O1	O	1.323858	-0.329746	-0.253242
O2	O	1.038067	-0.237182	-0.248033
O3	O	1.187533	-0.285596	-0.068406
O4	O	1.174393	-0.281332	-0.432870
O5	O	1.148184	-0.470907	-0.115643
O6	O	0.998719	-0.422493	-0.295271
O7	O	1.284509	-0.515056	-0.300480
Cu8	Cu	1.138021	-0.485695	-0.302189
Cu9	Cu	1.184555	-0.266544	-0.246324
O10	O	1.135044	-0.466642	-0.480107
C11	C	0.981799	-0.317985	-0.267599
C12	C	0.872759	-0.282669	-0.255507
C13	C	0.479591	-0.587169	-0.324437
C14	C	0.582037	-0.620356	-0.335805
C15	C	0.654722	-0.535937	-0.315731
C16	C	0.624952	-0.418326	-0.284288
C17	C	0.522495	-0.385135	-0.272929
C18	C	0.697626	-0.333903	-0.264223
C19	C	0.667856	-0.216292	-0.232779
C20	C	0.565409	-0.183107	-0.221421
C21	C	0.492723	-0.267526	-0.241495
C22	C	0.800084	-0.367093	-0.275582
C23	C	0.842988	-0.165059	-0.224073
C24	C	0.740542	-0.131873	-0.212705
N25	N	1.105298	-0.639836	-0.341480
C26	C	1.295865	-1.075512	-0.112646
C27	C	1.320618	-0.958868	-0.082916
C28	C	1.266790	-0.879105	-0.147554
C29	C	1.188205	-0.915996	-0.241928
C30	C	1.163454	-1.032652	-0.271667
C31	C	1.134379	-0.836245	-0.306576
C32	C	1.055794	-0.873136	-0.400950
C33	C	1.031047	-0.989782	-0.430684
C34	C	1.084875	-1.069545	-0.366045
C35	C	1.159130	-0.719588	-0.276836
C36	C	1.026719	-0.676729	-0.435858
C37	C	1.001966	-0.793372	-0.465588
C38	C	1.340778	-0.434251	-0.280914
C39	C	1.449819	-0.469560	-0.293004
C40	C	1.166894	-0.377938	-0.045152
C41	C	1.164007	-0.376999	0.094515
N42	N	1.217286	-0.112405	-0.207023
C43	C	1.155683	-0.374298	-0.503361
C44	C	1.158571	-0.375230	-0.643025
C45	C	1.252010	-0.405505	0.167220
C46	C	1.249293	-0.404617	0.298453
C47	C	1.070563	-0.346718	0.284260
C48	C	1.073282	-0.347599	0.153032
C49	C	1.342735	-0.434905	0.108703
C50	C	1.430745	-0.463415	0.181409
C51	C	1.428028	-0.462527	0.312641
C52	C	1.337302	-0.433129	0.371167
H53	H	0.606268	-0.716115	-0.361405
H54	H	1.223115	-0.689563	-0.199998
H55	H	0.902169	-0.096318	-0.207732
H56	H	0.738137	-0.562965	-0.324990
H57	H	1.504617	-0.487322	0.133755
C58	C	0.303486	-0.625980	-0.329900
C59	C	0.399696	-0.679952	-0.346507
H60	H	0.254163	-0.683267	-0.343522
H61	H	0.288536	-0.576775	-0.390022
H62	H	0.302509	-0.581308	-0.244882
H63	H	0.400675	-0.724617	-0.431528
H64	H	0.414650	-0.729177	-0.286382
H65	H	1.499692	-0.485730	0.371838
C66	C	1.375059	-0.547205	-0.099687
C67	C	1.345731	-0.435885	-0.035548
H68	H	1.376913	-0.547808	-0.188740
H69	H	1.327709	-0.600914	-0.089088
H70	H	1.440453	-0.568378	-0.064743
H71	H	1.280333	-0.414715	-0.070486
H72	H	1.393083	-0.382158	-0.046155
C73	C	1.374329	-0.735346	-0.018378
C74	C	1.293990	-0.750885	-0.114866
H75	H	1.391115	-0.656183	0.001812
H76	H	1.431606	-0.782075	-0.047894
H77	H	1.354741	-0.757225	0.056394
H78	H	1.313580	-0.729013	-0.189642
H79	H	1.236701	-0.704140	-0.085354
C80	C	0.324024	-0.271755	-0.346304
C81	C	0.380091	-0.231107	-0.229061
H82	H	0.254485	-0.249285	-0.338645
H83	H	0.331409	-0.353867	-0.367870
H84	H	0.348147	-0.239662	-0.411908
H85	H	0.355973	-0.263207	-0.163459
H86	H	0.372700	-0.148978	-0.207480
C87	C	0.893350	-0.646079	-0.596045
C88	C	0.967543	-0.589064	-0.506920
H89	H	0.856828	-0.591954	-0.639917
H90	H	0.848018	-0.680029	-0.552199
H91	H	0.924892	-0.704910	-0.656476
H92	H	0.936000	-0.530238	-0.446482
H93	H	1.012882	-0.555096	-0.550767
C94	C	1.449005	-1.012957	0.071283
C95	C	1.406989	-0.918318	0.020821
H96	H	1.502324	-0.987918	0.135336
H97	H	1.475031	-1.069997	0.004240
H98	H	1.398155	-1.045126	0.108515
H99	H	1.457837	-0.886155	-0.016420
H100	H	1.380965	-0.861258	0.087876
H101	H	1.339690	-1.140463	-0.060032
C102	C	0.987035	-0.319673	0.479122
C103	C	0.970838	-0.314419	0.348587
H104	H	0.925465	-0.299743	0.518828
H105	H	1.037021	-0.266801	0.520007
H106	H	1.009588	-0.396049	0.487055
H107	H	0.948292	-0.238041	0.340654
H108	H	0.920836	-0.367293	0.307690
H109	H	1.064718	-1.164526	-0.390247
H110	H	0.967066	-1.019820	-0.507538
C111	C	0.905243	-0.953165	-0.581779
C112	C	0.915592	-0.833935	-0.569332
H113	H	0.851924	-0.978205	-0.645831
H114	H	0.889954	-0.968640	-0.501846
H115	H	0.966830	-0.993512	-0.606122
H116	H	0.854008	-0.793587	-0.544979
H117	H	0.930875	-0.818450	-0.649281
C118	C	0.896339	-0.290287	0.152173
C119	C	0.976549	-0.316266	0.073104
H120	H	0.836620	-0.270945	0.102825
H121	H	0.912718	-0.226532	0.220121
H122	H	0.885274	-0.355776	0.187179
H123	H	0.987620	-0.250774	0.038105
H124	H	0.960168	-0.380027	0.005133
H125	H	0.824312	-0.462853	-0.301186
H126	H	0.716287	-0.036112	-0.187105
C127	C	0.618112	0.013262	-0.171631
C128	C	0.532683	-0.053828	-0.186860
H129	H	0.597909	0.093072	-0.150285
H130	H	0.650189	-0.001610	-0.249698
H131	H	0.664169	-0.006165	-0.104563
H132	H	0.486629	-0.034407	-0.253935
H133	H	0.500591	-0.038949	-0.108783
H134	H	1.335099	-0.432396	0.478029
