data_functionalizedCrystal
_audit_creation_method	'MofGen! by Chris Wilmer'
_symmetry_space_group_name_H-M	'P1'
_symmetry_Int_Tables_number	1
_symmetry_cell_setting	triclinic
loop_
_symmetry_equiv_pos_as_xyz
  x,y,z
_cell_length_a	6.394989
_cell_length_b	17.699083
_cell_length_c	16.176319
_cell_angle_alpha	90.001389
_cell_angle_beta	90.003737
_cell_angle_gamma	84.890363
loop_
_atom_site_label
_atom_site_type_symbol
_atom_site_fract_x
_atom_site_fract_y
_atom_site_fract_z
O1	O	-0.264132	-1.006774	-0.068625
O2	O	-0.298496	-0.786747	-0.068651
O3	O	0.022766	-0.899883	-0.068638
O4	O	-0.585394	-0.893637	-0.068638
O5	O	0.022787	-0.899867	0.068855
O6	O	-0.298475	-0.786730	0.068842
O7	O	-0.264111	-1.006758	0.068868
Cu8	Cu	-0.281291	-0.896743	0.081409
Cu9	Cu	-0.281315	-0.896762	-0.081193
O10	O	-0.585373	-0.893621	0.068855
C11	C	-0.297254	-0.758529	0.000092
C12	C	-0.293560	-0.674473	0.000081
C13	C	-0.265353	-1.034976	0.000123
C14	C	-0.269047	-1.119031	0.000128
N15	N	-0.281273	-0.896735	0.195774
C16	C	0.100592	-0.898640	0.000105
C17	C	0.336808	-0.894866	0.000104
N18	N	-0.281317	-0.896776	-0.195558
C19	C	-0.482134	-0.627777	0.000082
C20	C	-0.478651	-0.548798	0.000092
C21	C	-0.286591	-0.516517	0.000097
C22	C	-0.098003	-0.563220	0.000099
C23	C	-0.101488	-0.642197	0.000094
C24	C	-0.083942	-0.244713	0.000119
C25	C	-0.080470	-0.165730	0.000122
C26	C	-0.461104	-0.151314	0.000118
C27	C	-0.464590	-0.230291	0.000113
C28	C	-0.276002	-0.276987	0.000119
C29	C	-0.279782	-0.362625	0.000109
C30	C	-0.282810	-0.430881	0.000101
C31	C	-0.139076	-0.946848	0.239044
C32	C	-0.139074	-0.946852	0.325591
C33	C	-0.281280	-0.896746	0.368867
C34	C	-0.423484	-0.846627	0.325591
C35	C	-0.423474	-0.846620	0.239045
C36	C	-0.423523	-0.846653	0.674619
C37	C	-0.423526	-0.846666	0.761171
C38	C	-0.139123	-0.946885	0.761165
C39	C	-0.139113	-0.946878	0.674620
C40	C	-0.281308	-0.896757	0.631351
C41	C	-0.281306	-0.896753	0.537507
C42	C	-0.281294	-0.896753	0.462710
H43	H	-0.638531	-0.654053	0.000078
O44	O	-0.000606	-0.995444	0.197066
C45	C	0.206078	-0.981166	0.218268
H46	H	0.206827	-0.920561	0.242054
H47	H	0.310999	-0.988874	0.161374
H48	H	0.267538	-1.022519	0.268520
H49	H	0.075937	-0.139450	0.000126
H50	H	-0.620984	-0.256569	0.000106
H51	H	0.069618	-0.282724	0.000125
H52	H	-0.539263	-0.805812	0.203816
H53	H	0.058376	-0.536930	0.000114
H54	H	0.052069	-0.680217	0.000093
H55	H	-0.023285	-0.987657	0.360821
H56	H	-0.023323	-0.987682	0.639387
O57	O	-0.561954	-0.798050	0.632637
C58	C	-0.768666	-0.812316	0.653797
H59	H	-0.769465	-0.872922	0.677572
H60	H	-0.873535	-0.804599	0.596884
H61	H	-0.830154	-0.770964	0.704044
O62	O	-0.561545	-0.798025	0.367754
C63	C	-0.531036	-0.808765	0.453421
H64	H	-0.452765	-0.868191	0.465237
H65	H	-0.689248	-0.801854	0.486305
H66	H	-0.426429	-0.764935	0.477993
O67	O	-0.000683	-0.995531	0.803108
C68	C	0.206037	-0.981246	0.781982
H69	H	0.205674	-0.952074	0.719146
H70	H	0.309098	-1.037152	0.779019
H71	H	0.270497	-0.942962	0.830695
O72	O	-0.561453	-0.797879	0.803174
C73	C	-0.527764	-0.722639	0.782027
H74	H	-0.360536	-0.720682	0.758241
H75	H	-0.551904	-0.684895	0.838950
H76	H	-0.643607	-0.701499	0.731793
H77	H	-0.614661	-0.113284	0.000117
O78	O	-0.661893	-0.503471	-0.000057
C79	C	-0.778542	-0.518397	-0.071261
H80	H	-0.668133	-0.544320	-0.121031
H81	H	-0.862593	-0.463188	-0.095161
H82	H	-0.899224	-0.559749	-0.055171
