data_functionalizedCrystal
_audit_creation_method	'MofGen! by Chris Wilmer'
_symmetry_space_group_name_H-M	'P1'
_symmetry_Int_Tables_number	1
_symmetry_cell_setting	triclinic
loop_
_symmetry_equiv_pos_as_xyz
  x,y,z
_cell_length_a	18.101398
_cell_length_b	18.101397
_cell_length_c	15.296720
_cell_angle_alpha	99.641375
_cell_angle_beta	99.671158
_cell_angle_gamma	90.016023
loop_
_atom_site_label
_atom_site_type_symbol
_atom_site_fract_x
_atom_site_fract_y
_atom_site_fract_z
Zn1	Zn	1.059706	-0.367326	-0.509833
Zn2	Zn	1.393040	-0.033993	-0.176499
Zn3	Zn	1.726373	0.299341	0.156834
Zn4	Zn	1.081069	-0.469749	-0.358971
Zn5	Zn	1.414403	-0.136415	-0.025637
Zn6	Zn	1.747736	0.196918	0.307696
Zn7	Zn	0.957302	-0.345923	-0.359019
Zn8	Zn	1.290636	-0.012590	-0.025686
Zn9	Zn	1.623969	0.320744	0.307648
Zn10	Zn	0.935844	-0.491116	-0.509800
Zn11	Zn	1.269177	-0.157783	-0.176466
Zn12	Zn	1.602510	0.175551	0.156867
O13	O	1.008481	-0.418528	-0.434405
O14	O	1.341814	-0.085195	-0.101072
O15	O	1.675147	0.248138	0.232261
O16	O	1.166174	-0.380928	-0.489814
O17	O	1.499507	-0.047594	-0.156481
O18	O	1.832841	0.285739	0.176853
O19	O	1.082572	-0.435423	-0.232739
O20	O	1.415906	-0.102090	0.100595
O21	O	1.749239	0.231243	0.433928
O22	O	0.970927	-0.245134	-0.379059
O23	O	1.304260	0.088199	-0.045726
O24	O	1.637593	0.421533	0.287608
O25	O	1.181869	-0.456177	-0.378976
O26	O	1.515203	-0.122844	-0.045643
O27	O	1.848536	0.210490	0.287690
O28	O	1.046162	-0.260859	-0.489861
O29	O	1.379496	0.072474	-0.156528
O30	O	1.712829	0.405808	0.176806
O31	O	0.991641	-0.344449	-0.232774
O32	O	1.324975	-0.011116	0.100559
O33	O	1.658308	0.322218	0.433892
O34	O	0.850822	-0.365168	-0.379027
O35	O	1.184155	-0.031835	-0.045694
O36	O	1.517489	0.301499	0.287640
O37	O	0.934353	-0.492595	-0.636042
O38	O	1.267687	-0.159261	-0.302709
O39	O	1.601020	0.174072	0.030624
O40	O	0.835057	-0.471841	-0.489805
O41	O	1.168390	-0.138507	-0.156471
O42	O	1.501723	0.194826	0.176862
O43	O	1.025355	-0.401647	-0.636067
O44	O	1.358688	-0.068313	-0.302733
O45	O	1.692022	0.265020	0.030600
O46	O	1.061765	-0.576211	-0.378944
O47	O	1.395098	-0.242878	-0.045611
O48	O	1.728431	0.090456	0.287722
O49	O	0.955068	-0.591910	-0.489758
O50	O	1.288402	-0.258576	-0.156424
O51	O	1.621735	0.074757	0.176909
C52	C	0.816068	-0.418501	-0.434418
C53	C	1.149402	-0.085168	-0.101085
C54	C	1.482735	0.248166	0.232249
C55	C	0.733750	-0.418510	-0.434445
C56	C	1.067084	-0.085177	-0.101111
C57	C	1.400417	0.248156	0.232222
C58	C	0.434665	-0.418549	-0.434407
C59	C	0.767998	-0.085215	-0.101074
C60	C	1.101331	0.248118	0.232260
C61	C	0.456144	-0.485892	-0.503761
C62	C	0.789478	-0.152559	-0.170428
C63	C	1.122811	0.180775	0.162905
C64	C	0.541722	-0.485752	-0.504046
C65	C	0.875055	-0.152419	-0.170713
C66	C	1.208389	0.180914	0.162620
C67	C	0.583045	-0.418530	-0.434426
C68	C	0.916378	-0.085197	-0.101093
C69	C	1.249711	0.248136	0.232241
C70	C	0.548282	-0.344218	-0.460410
C71	C	0.881615	-0.010885	-0.127077
C72	C	1.214949	0.322449	0.206257
C73	C	0.462567	-0.344633	-0.460903
C74	C	0.795900	-0.011300	-0.127570
C75	C	1.129234	0.322033	0.205763
C76	C	0.479791	-0.424806	-0.338901
C77	C	0.813125	-0.091472	-0.005568
C78	C	1.146458	0.241861	0.327765
C79	C	0.565369	-0.426590	-0.339412
C80	C	0.898702	-0.093256	-0.006078
C81	C	1.232036	0.240077	0.327255
C82	C	0.666903	-0.418515	-0.434435
C83	C	1.000236	-0.085181	-0.101102
C84	C	1.333569	0.248152	0.232232
C85	C	0.350806	-0.418559	-0.434400
C86	C	0.684139	-0.085226	-0.101067
C87	C	1.017473	0.248108	0.232266
C88	C	1.008423	-0.610933	-0.434362
C89	C	1.341757	-0.277599	-0.101028
C90	C	1.675090	0.055734	0.232305
C91	C	1.008462	-0.693248	-0.434373
C92	C	1.341796	-0.359915	-0.101040
C93	C	1.675129	-0.026582	0.232293
C94	C	1.008545	-0.992351	-0.434455
C95	C	1.341879	-0.659018	-0.101122
C96	C	1.675212	-0.325684	0.232211
C97	C	1.075543	-0.951091	-0.364548
C98	C	1.408876	-0.617758	-0.031215
C99	C	1.742209	-0.284425	0.302119
C100	C	1.075715	-0.865499	-0.364729
C101	C	1.409048	-0.532165	-0.031396
C102	C	1.742381	-0.198832	0.301938
C103	C	1.008504	-0.843963	-0.434414
C104	C	1.341838	-0.510629	-0.101081
C105	C	1.675171	-0.177296	0.232253
C106	C	1.016145	-0.888474	-0.529498
C107	C	1.349478	-0.555141	-0.196164
C108	C	1.682811	-0.221808	0.137169
C109	C	1.016640	-0.974065	-0.529117
C110	C	1.349974	-0.640732	-0.195784
C111	C	1.683307	-0.307399	0.137550
C112	C	0.933638	-0.957396	-0.410102
C113	C	1.266971	-0.624062	-0.076769
C114	C	1.600305	-0.290729	0.256565
C115	C	0.934327	-0.871445	-0.407979
C116	C	1.267660	-0.538111	-0.074646
C117	C	1.600994	-0.204778	0.258687
C118	C	1.008479	-0.760101	-0.434396
C119	C	1.341812	-0.426767	-0.101063
C120	C	1.675146	-0.093434	0.232270
C121	C	1.008571	-1.076214	-0.434480
C122	C	1.341905	-0.742881	-0.101146
C123	C	1.675238	-0.409547	0.232187
C124	C	1.201644	-0.418556	-0.434393
C125	C	1.534977	-0.085223	-0.101060
C126	C	1.868311	0.248110	0.232273
C127	C	1.283959	-0.418568	-0.434388
C128	C	1.617292	-0.085235	-0.101055
C129	C	1.950626	0.248098	0.232278
C130	C	0.975078	-0.451892	-0.669702
C131	C	1.308411	-0.118558	-0.336369
C132	C	1.641744	0.214775	-0.003035
C133	C	0.960843	-0.466109	-0.769971
C134	C	1.294177	-0.132776	-0.436638
C135	C	1.627510	0.200558	-0.103304
C136	C	1.008555	-0.225376	-0.434469
C137	C	1.341889	0.107958	-0.101136
C138	C	1.675222	0.441291	0.232198
C139	C	1.008587	-0.143065	-0.434496
C140	C	1.341920	0.190268	-0.101163
C141	C	1.675254	0.523601	0.232170
C142	C	1.110243	-0.316784	-1.052664
C143	C	1.443577	0.016549	-0.719331
C144	C	1.776910	0.349882	-0.385998
C145	C	1.123622	-0.303428	-0.958456
C146	C	1.456955	0.029906	-0.625123
C147	C	1.790288	0.363239	-0.291790
C148	C	1.082928	-0.344097	-0.911330
C149	C	1.416262	-0.010763	-0.577997
C150	C	1.749595	0.322570	-0.244664
C151	C	1.028854	-0.398125	-0.958422
C152	C	1.362187	-0.064792	-0.625088
C153	C	1.695521	0.268542	-0.291755
C154	C	1.015478	-0.411487	-1.052639
C155	C	1.348812	-0.078154	-0.719306
C156	C	1.682145	0.255179	-0.385972
C157	C	0.988163	-0.438800	-0.911305
C158	C	1.321496	-0.105466	-0.577972
C159	C	1.654830	0.227867	-0.244638
C160	C	0.934089	-0.492828	-0.958396
C161	C	1.267422	-0.159495	-0.625063
C162	C	1.600756	0.173839	-0.291730
C163	C	0.920715	-0.506187	-1.052604
C164	C	1.254049	-0.172854	-0.719271
C165	C	1.587382	0.160479	-0.385938
C166	C	0.961409	-0.465518	-1.099730
C167	C	1.294742	-0.132185	-0.766397
C168	C	1.628076	0.201148	-0.433064
C169	C	1.001539	-0.425437	-0.817088
C170	C	1.334872	-0.092104	-0.483754
C171	C	1.668206	0.241229	-0.150421
C172	C	0.906774	-0.520140	-0.817062
C173	C	1.240107	-0.186807	-0.483729
C174	C	1.573440	0.146526	-0.150396
C175	C	0.893395	-0.533497	-0.911270
C176	C	1.226729	-0.200164	-0.577937
C177	C	1.560062	0.133170	-0.244604
C178	C	1.041796	-0.385242	-0.200024
C179	C	1.375130	-0.051908	0.133309
C180	C	1.708463	0.281425	0.466642
C181	C	1.056174	-0.370816	-0.099756
C182	C	1.389507	-0.037482	0.233578
C183	C	1.722841	0.295851	0.566911
H184	H	0.432678	-0.337737	-0.530722
H185	H	0.766012	-0.004404	-0.197389
H186	H	1.099345	0.328929	0.135944
H187	H	0.969242	-1.002440	-0.582998
H188	H	1.302575	-0.669107	-0.249664
H189	H	1.635908	-0.335774	0.083669
F190	F	0.926472	-0.831973	-0.316521
F191	F	1.259805	-0.498639	0.016813
F192	F	1.593139	-0.165306	0.350146
H193	H	1.093824	-0.333218	-0.834622
H194	H	1.427158	0.000115	-0.501289
H195	H	1.760491	0.333448	-0.167955
F196	F	0.953542	-0.871796	-0.599410
F197	F	1.286876	-0.538463	-0.266076
F198	F	1.620209	-0.205129	0.067257
F199	F	0.835848	-0.590997	-0.961399
F200	F	1.169181	-0.257664	-0.628066
F201	F	1.502514	0.075669	-0.294733
F202	F	0.947176	-0.479734	-1.199999
F203	F	1.280509	-0.146401	-0.866665
F204	F	1.613842	0.186933	-0.533332
H205	H	1.143374	-0.283682	-1.091043
H206	H	1.476708	0.049651	-0.757710
H207	H	1.810041	0.382985	-0.424376
H208	H	1.069805	-0.869951	-0.550478
H209	H	1.403138	-0.536617	-0.217144
H210	H	1.736472	-0.203284	0.116189
H211	H	1.167651	-0.259439	-0.920121
H212	H	1.500984	0.073894	-0.586788
H213	H	1.834318	0.407227	-0.253455
H214	H	0.924076	-0.969379	-0.341970
H215	H	1.257410	-0.636046	-0.008637
H216	H	1.590743	-0.302713	0.324697
F217	F	0.863465	-0.563430	-0.766912
F218	F	1.196798	-0.230096	-0.433579
F219	F	1.530132	0.103237	-0.100246
F220	F	1.059087	-0.367938	-0.766980
F221	F	1.392420	-0.034605	-0.433647
F222	F	1.725754	0.298729	-0.100314
H223	H	0.882818	-0.856757	-0.455169
H224	H	1.216151	-0.523424	-0.121836
H225	H	1.549485	-0.190091	0.211498
H226	H	1.072519	-0.961691	-0.293833
H227	H	1.405852	-0.628358	0.039500
H228	H	1.739185	-0.295025	0.372834
F229	F	0.572202	-0.558344	-0.482789
F230	F	0.905535	-0.225011	-0.149456
F231	F	1.238869	0.108323	0.183878
H232	H	0.461545	-0.477359	-0.315288
H233	H	0.794878	-0.144025	0.018045
H234	H	1.128211	0.189308	0.351378
H235	H	0.466870	-0.375589	-0.287226
H236	H	0.800204	-0.042255	0.046107
H237	H	1.133537	0.291078	0.379441
F238	F	0.863175	-0.563700	-1.102720
F239	F	1.196508	-0.230367	-0.769387
F240	F	1.529842	0.102967	-0.436053
H241	H	0.437829	-0.541637	-0.487657
H242	H	0.771162	-0.208303	-0.154324
H243	H	1.104496	0.125030	0.179009
F244	F	0.868608	-0.993332	-0.476651
F245	F	1.201942	-0.659998	-0.143318
F246	F	1.535275	-0.326665	0.190015
H247	H	0.424631	-0.482936	-0.574116
H248	H	0.757964	-0.149602	-0.240782
H249	H	1.091298	0.183731	0.092551
H250	H	0.552164	-0.482687	-0.574810
H251	H	0.885497	-0.149354	-0.241477
H252	H	1.218830	0.183979	0.091857
H253	H	0.448688	-0.293416	-0.412705
H254	H	0.782021	0.039917	-0.079372
H255	H	1.115355	0.373251	0.253961
H256	H	0.559927	-0.336911	-0.529470
H257	H	0.893261	-0.003577	-0.196137
H258	H	1.226594	0.329756	0.137196
F259	F	0.583982	-0.277622	-0.396448
F260	F	0.917315	0.055711	-0.063115
F261	F	1.250648	0.389044	0.270218
H262	H	1.131476	-0.847248	-0.380841
H263	H	1.464809	-0.513914	-0.047508
H264	H	1.798142	-0.180581	0.285826
H265	H	1.131013	-0.974826	-0.380475
H266	H	1.464346	-0.641492	-0.047141
H267	H	1.797680	-0.308159	0.286192
F268	F	0.595551	-0.497982	-0.313801
F269	F	0.928884	-0.164648	0.019533
F270	F	1.262217	0.168685	0.352866
H271	H	0.594502	-0.380022	-0.284962
H272	H	0.927835	-0.046688	0.048372
H273	H	1.261168	0.286645	0.381705
H274	H	1.072501	-0.834524	-0.294225
H275	H	1.405834	-0.501191	0.039108
H276	H	1.739167	-0.167857	0.372441
H277	H	1.070992	-0.996918	-0.549748
H278	H	1.404325	-0.663585	-0.216415
H279	H	1.737658	-0.330252	0.116919
