data_functionalizedCrystal
_audit_creation_method	'MofGen! by Chris Wilmer'
_symmetry_space_group_name_H-M	'P1'
_symmetry_Int_Tables_number	1
_symmetry_cell_setting	triclinic
loop_
_symmetry_equiv_pos_as_xyz
  x,y,z
_cell_length_a	8.559649
_cell_length_b	11.026607
_cell_length_c	7.681481
_cell_angle_alpha	82.996689
_cell_angle_beta	94.913240
_cell_angle_gamma	89.182341
loop_
_atom_site_label
_atom_site_type_symbol
_atom_site_fract_x
_atom_site_fract_y
_atom_site_fract_z
O1	O	2.097103	-0.027535	-0.146401
O2	O	2.597103	0.472465	0.353599
O3	O	1.649454	0.033500	-0.146409
O4	O	2.149454	0.533500	0.353591
O5	O	1.836178	-0.170213	-0.146399
O6	O	2.336178	0.329787	0.353601
O7	O	1.910379	0.176178	-0.146411
O8	O	2.410379	0.676178	0.353589
O9	O	1.859146	-0.195338	0.146460
O10	O	2.359146	0.304662	0.646460
O11	O	1.672422	0.008376	0.146450
O12	O	2.172422	0.508376	0.646450
O13	O	2.120071	-0.052659	0.146458
O14	O	2.620071	0.447341	0.646458
Zn15	Zn	1.899893	-0.026131	0.192952
Zn16	Zn	2.399893	0.473869	0.692952
Zn17	Zn	1.869632	0.006971	-0.192903
Zn18	Zn	2.369632	0.506971	0.307097
O19	O	1.933347	0.151054	0.146448
O20	O	2.433347	0.651054	0.646448
C21	C	1.602739	0.025563	0.000020
C22	C	2.102739	0.525563	0.500020
C23	C	1.429318	0.039332	0.000016
C24	C	1.929318	0.539332	0.500016
C25	C	1.833973	-0.226711	0.000028
C26	C	2.333973	0.273289	0.500028
C27	C	1.793166	-0.357621	0.000021
C28	C	2.293166	0.142379	0.500021
C29	C	1.905841	-0.441927	0.000020
C30	C	2.405841	0.058073	0.500020
C31	C	1.863667	-0.577231	0.000013
C32	C	2.363667	-0.077231	0.500013
C33	C	2.166786	-0.044722	0.000026
C34	C	2.666786	0.455278	0.500026
C35	C	2.340205	-0.058490	0.000017
C36	C	2.840205	0.441510	0.500017
C37	C	1.935551	0.207552	0.000017
C38	C	2.435551	0.707552	0.500017
C39	C	1.976358	0.338463	0.000013
C40	C	2.476358	0.838463	0.500013
N41	N	1.920557	-0.048724	0.456287
N42	N	2.420557	0.451276	0.956287
N43	N	1.848978	0.029554	-0.456238
N44	N	2.348978	0.529554	0.043762
H45	H	2.033528	-0.413937	0.000034
H46	H	2.533528	0.086063	0.500034
O47	O	1.694520	-0.614295	0.000018
O48	O	2.194520	-0.114295	0.500018
H49	H	1.626419	-0.567420	-0.119350
H50	H	2.126419	-0.067420	0.380650
O51	O	1.414874	-0.183386	0.000043
O52	O	1.914874	0.316614	0.500043
H53	H	1.479187	-0.184205	-0.119309
H54	H	1.979187	0.315795	0.380691
H55	H	1.372932	0.133621	0.000004
H56	H	1.872932	0.633621	0.500004
H57	H	1.665478	-0.385611	0.000007
H58	H	2.165478	0.114389	0.500007
O59	O	2.145513	-0.624490	0.000025
O60	O	2.645513	-0.124490	0.500025
H61	H	2.152099	-0.524034	0.000043
H62	H	2.652099	-0.024034	0.500043
H63	H	1.775907	0.109454	0.468561
H64	H	2.275907	0.609454	0.968561
O65	O	2.017363	-0.154568	0.555888
O66	O	2.517363	0.345432	1.055888
H67	H	2.014682	-0.151634	0.699526
H68	H	2.514682	0.348366	1.199526
