data_functionalizedCrystal
_audit_creation_method	'MofGen! by Chris Wilmer'
_symmetry_space_group_name_H-M	'P1'
_symmetry_Int_Tables_number	1
_symmetry_cell_setting	triclinic
loop_
_symmetry_equiv_pos_as_xyz
  x,y,z
_cell_length_a	23.532407
_cell_length_b	15.500227
_cell_length_c	17.038272
_cell_angle_alpha	86.966746
_cell_angle_beta	93.019883
_cell_angle_gamma	87.178713
loop_
_atom_site_label
_atom_site_type_symbol
_atom_site_fract_x
_atom_site_fract_y
_atom_site_fract_z
O1	O	0.762716	-0.071836	-0.091231
O2	O	1.262716	0.428164	0.408769
O3	O	0.597575	-0.071862	-0.104957
O4	O	1.097575	0.428138	0.395043
O5	O	0.679164	-0.071842	0.015714
O6	O	1.179164	0.428158	0.515714
O7	O	0.681127	-0.071856	-0.211902
O8	O	1.181127	0.428144	0.288098
O9	O	0.674211	0.072045	0.008420
O10	O	1.174211	0.572045	0.508420
O11	O	0.592623	0.072026	-0.112251
O12	O	1.092623	0.572026	0.387749
O13	O	0.757763	0.072051	-0.098525
O14	O	1.257763	0.572051	0.401475
Cu15	Cu	0.674741	0.085177	-0.106054
Cu16	Cu	1.174741	0.585177	0.393946
Cu17	Cu	0.680598	-0.084987	-0.097428
Cu18	Cu	1.180598	0.415013	0.402572
O19	O	0.676175	0.072032	-0.219196
O20	O	1.176175	0.572032	0.280804
C21	C	0.573865	0.000079	-0.108255
C22	C	1.073865	0.500079	0.391745
C23	C	0.510593	0.000069	-0.107203
C24	C	1.010593	0.500069	0.392797
N25	N	0.670626	0.204861	-0.112121
N26	N	1.170626	0.704861	0.387879
C27	C	0.674902	0.000101	0.041182
C28	C	1.174902	0.500101	0.541182
C29	C	0.669576	0.000100	0.127935
C30	C	1.169576	0.500100	0.627935
C31	C	0.114896	0.000105	-0.172024
C32	C	0.614896	0.500105	0.327976
C33	C	0.055444	0.000110	-0.171048
C34	C	0.555444	0.500110	0.328952
O35	O	0.021858	0.000138	-0.231137
O36	O	0.521858	0.500138	0.268863
N37	N	0.029046	0.000113	-0.099309
N38	N	0.529046	0.500113	0.400691
C39	C	0.062103	0.000119	-0.028541
C40	C	0.562103	0.500119	0.471459
O41	O	0.034191	0.000123	0.032568
O42	O	0.534191	0.500123	0.532568
C43	C	0.121554	0.000120	-0.029518
C44	C	0.621554	0.500120	0.470482
C45	C	0.147949	0.000108	-0.101262
C46	C	0.647949	0.500108	0.398738
C47	C	0.141291	0.000094	-0.243762
C48	C	0.641291	0.500094	0.256238
C49	C	0.200739	0.000087	-0.244737
C50	C	0.700739	0.500087	0.255263
C51	C	0.233791	0.000091	-0.173975
C52	C	0.733791	0.500091	0.326025
C53	C	0.207396	0.000101	-0.102238
C54	C	0.707396	0.500101	0.397762
C55	C	0.154610	0.000132	0.041248
C56	C	0.654610	0.500132	0.541248
C57	C	0.214064	0.000134	0.040264
C58	C	0.714064	0.500134	0.540264
C59	C	0.240458	0.000122	-0.031479
C60	C	0.740458	0.500122	0.468521
C61	C	0.299897	0.000098	-0.032451
C62	C	0.799897	0.500098	0.467549
N63	N	0.326294	0.000095	-0.104190
N64	N	0.826294	0.500095	0.395810
C65	C	0.293242	0.000092	-0.174952
C66	C	0.793242	0.500092	0.325048
C67	C	-0.062747	0.000119	-0.026495
C68	C	0.437253	0.500119	0.473505
C69	C	-0.122196	0.000112	-0.025516
C70	C	0.377804	0.500112	0.474484
C71	C	-0.128851	0.000104	-0.168023
C72	C	0.371149	0.500104	0.331977
C73	C	-0.069401	0.000105	-0.169000
C74	C	0.430599	0.500105	0.331000
C75	C	-0.036349	0.000116	-0.098234
C76	C	0.463651	0.500116	0.401766
C77	C	0.418087	0.000076	-0.176996
C78	C	0.918087	0.500076	0.323004
C79	C	0.477540	0.000066	-0.177965
C80	C	0.977540	0.500066	0.322035
C81	C	0.484190	0.000078	-0.035459
C82	C	0.984190	0.500078	0.464541
C83	C	0.424742	0.000084	-0.034489
C84	C	0.924742	0.500084	0.465511
C85	C	0.391691	0.000086	-0.105264
C86	C	0.891691	0.500086	0.394736
O87	O	0.333519	0.000074	0.027606
O88	O	0.833519	0.500074	0.527606
O89	O	0.321162	0.000099	-0.236052
O90	O	0.821162	0.500099	0.263948
C91	C	0.781474	0.000109	-0.095228
C92	C	1.281474	0.500109	0.404772
C93	C	0.844746	0.000113	-0.096279
C94	C	1.344746	0.500113	0.403721
N95	N	0.684717	-0.204671	-0.091355
N96	N	1.184717	0.295329	0.408645
C97	C	0.705211	0.250146	-0.061007
C98	C	1.205211	0.750146	0.438993
C99	C	0.702105	0.340718	-0.065602
C100	C	1.202105	0.840718	0.434398
C101	C	0.664415	0.386003	-0.121316
C102	C	1.164415	0.886003	0.378684
C103	C	0.629825	0.340712	-0.172432
C104	C	1.129825	0.840712	0.327568
C105	C	0.632929	0.250142	-0.167832
C106	C	1.132929	0.750142	0.332168
C107	C	0.653232	0.659467	-0.137872
C108	C	1.153232	1.159467	0.362128
C109	C	0.650131	0.750044	-0.142469
C110	C	1.150131	1.250044	0.357531
C111	C	0.722410	0.750044	-0.035638
C112	C	1.222410	1.250044	0.464362
C113	C	0.725514	0.659471	-0.031047
C114	C	1.225514	1.159471	0.468953
C115	C	0.690922	0.614188	-0.082160
C116	C	1.190922	1.114188	0.417840
C117	C	0.661240	0.478582	-0.126016
C118	C	1.161240	0.978582	0.373984
C119	C	0.694095	0.521611	-0.077456
C120	C	1.194095	1.021611	0.422544
C121	C	0.680436	0.000087	-0.244664
C122	C	1.180436	0.500087	0.255336
C123	C	0.685763	0.000082	-0.331417
C124	C	1.185763	0.500082	0.168583
C125	C	0.718480	0.000109	0.178411
C126	C	1.218480	0.500109	0.678411
C127	C	0.713472	0.000100	0.259925
C128	C	1.213472	0.500100	0.759925
C129	C	0.659559	0.000088	0.290961
C130	C	1.159559	0.500088	0.790961
C131	C	0.610651	0.000077	0.240479
C132	C	1.110651	0.500077	0.740479
C133	C	0.615660	0.000080	0.158967
C134	C	1.115660	0.500080	0.658967
C135	C	0.641864	0.000074	0.536589
C136	C	1.141864	0.500074	1.036589
C137	C	0.636859	0.000074	0.618107
C138	C	1.136859	0.500074	1.118107
C139	C	0.739681	0.000094	0.637548
C140	C	1.239681	0.500094	1.137548
C141	C	0.744684	0.000102	0.556033
C142	C	1.244684	0.500102	1.056033
C143	C	0.695777	0.000087	0.505558
C144	C	1.195777	0.500087	1.005558
C145	C	0.654438	0.000082	0.374281
C146	C	1.154438	0.500082	0.874281
C147	C	0.700898	0.000087	0.422240
C148	C	1.200898	0.500087	0.922240
H149	H	0.499027	0.000056	-0.236390
H150	H	0.999027	0.500056	0.263610
H151	H	0.599134	0.377589	-0.217792
H152	H	1.099134	0.877589	0.282208
H153	H	0.730267	0.377588	-0.023981
H154	H	1.230267	0.877588	0.476019
F155	F	0.589811	0.000055	0.482880
F156	F	1.089811	0.500055	0.982880
H157	H	0.750573	0.786922	0.005977
H158	H	1.250573	1.286922	0.505977
F159	F	-0.150280	0.000105	0.050844
F160	F	0.349720	0.500105	0.550844
H161	H	0.114385	0.000094	-0.301388
H162	H	0.614385	0.500094	0.198612
F163	F	0.596116	0.201947	-0.222233
F164	F	1.096116	0.701947	0.277767
H165	H	0.744794	0.000077	0.396968
H166	H	1.244794	0.500077	0.896968
F167	F	0.791728	0.000110	0.691272
F168	F	1.291728	0.500110	1.191272
H169	H	0.610542	0.000075	0.399560
H170	H	1.110542	0.500075	0.899560
F171	F	0.228822	0.000079	-0.321097
F172	F	0.728822	0.500079	0.178903
H173	H	0.403251	0.000080	0.023931
H174	H	0.903251	0.500080	0.523931
F175	F	0.126532	0.000133	0.117609
F176	F	0.626532	0.500133	0.617609
H177	H	-0.035839	0.000120	0.031136
H178	H	0.464161	0.500120	0.531136
F179	F	0.734204	0.473413	-0.018160
F180	F	1.234204	0.973413	0.481840
H181	H	0.575836	0.000073	0.117869
H182	H	1.075836	0.500073	0.617869
F183	F	0.519377	0.000083	0.039847
F184	F	1.019377	0.500083	0.539847
F185	F	0.745329	0.201958	-0.001712
F186	F	1.245329	0.701958	0.498288
F187	F	0.765628	0.611276	0.028248
F188	F	1.265628	1.111276	0.528248
H189	H	0.619438	0.786912	-0.187841
H190	H	1.119438	1.286912	0.312159
H191	H	0.630553	0.515461	-0.171380
H192	H	1.130553	1.015461	0.328620
F193	F	0.382920	0.000079	-0.252323
F194	F	0.882920	0.500079	0.247677
H195	H	0.625067	0.622605	-0.179492
H196	H	1.125067	1.122605	0.320508
H197	H	0.753295	0.000108	0.301020
H198	H	1.253295	0.500108	0.801020
H199	H	0.762382	0.000123	0.153148
H200	H	1.262382	0.500123	0.653148
F201	F	0.802067	0.000092	0.523010
F202	F	1.302067	0.500092	1.023010
H203	H	-0.047914	0.000101	-0.227420
H204	H	0.452086	0.500101	0.272580
F205	F	-0.164039	0.000104	-0.243335
F206	F	0.335961	0.500104	0.256665
F207	F	0.579474	0.000066	0.651135
F208	F	1.079474	0.500066	1.151135
F209	F	0.553272	0.000056	0.273512
F210	F	1.053272	0.500056	0.773512
F211	F	0.249236	0.000148	0.115586
F212	F	0.749236	0.500148	0.615586
