data_functionalizedCrystal
_audit_creation_method	'MofGen! by Chris Wilmer'
_symmetry_space_group_name_H-M	'P1'
_symmetry_Int_Tables_number	1
_symmetry_cell_setting	triclinic
loop_
_symmetry_equiv_pos_as_xyz
  x,y,z
_cell_length_a	10.654546
_cell_length_b	9.565339
_cell_length_c	10.654551
_cell_angle_alpha	89.996937
_cell_angle_beta	95.515557
_cell_angle_gamma	89.989187
loop_
_atom_site_label
_atom_site_type_symbol
_atom_site_fract_x
_atom_site_fract_y
_atom_site_fract_z
O1	O	-1.667844	0.116485	0.176369
O2	O	-1.302365	0.116436	0.193180
O3	O	-1.493507	0.116462	0.002035
O4	O	-1.476702	0.116459	0.367514
O5	O	-1.493491	-0.116058	0.002047
O6	O	-1.302350	-0.116084	0.193192
O7	O	-1.667829	-0.116035	0.176381
Zn8	Zn	-1.485087	-0.152977	0.184788
Zn9	Zn	-1.485107	0.153378	0.184773
O10	O	-1.476687	-0.116061	0.367526
C11	C	-1.255559	0.000170	0.191952
C12	C	-1.116116	0.000151	0.188262
N13	N	-1.485082	-0.362056	0.184798
C14	C	-1.036630	0.000165	0.300805
C15	C	-0.905609	0.000180	0.297330
C16	C	-0.933572	0.000172	0.068760
C17	C	-1.064590	0.000148	0.072236
C18	C	-1.088156	0.000168	0.416831
C19	C	-1.008669	0.000184	0.529382
C20	C	-0.877648	0.000198	0.525907
C21	C	-0.826114	0.000198	0.409881
C22	C	-1.396658	-0.453272	0.273167
C23	C	-1.510362	-0.546436	0.298524
C24	C	-1.371428	-0.546448	0.159452
C25	C	-1.598844	-0.453168	0.210212
C26	C	-1.459834	-0.453173	0.071091
C27	C	-1.573619	-0.546294	0.096400
C28	C	-0.714634	0.000217	0.177612
C29	C	-0.854076	0.000191	0.181311
C30	C	-1.492265	0.000205	-0.044757
C31	C	-1.488572	0.000214	-0.184200
N32	N	-1.485121	0.362458	0.184753
C33	C	-1.486848	0.126958	-0.249718
C34	C	-1.483368	0.126951	-0.380738
C35	C	-1.483341	-0.126555	-0.380711
C36	C	-1.486812	-0.126546	-0.249692
C37	C	-1.488608	0.253719	-0.184226
C38	C	-1.486886	0.380473	-0.249745
C39	C	-1.483405	0.380466	-0.380765
C40	C	-1.481648	0.253705	-0.446267
C41	C	-1.477928	0.000199	0.414318
C42	C	-1.481621	0.000199	0.553761
H43	H	-1.194838	0.000162	0.419673
H44	H	-1.488305	0.483677	-0.196403
F45	F	-1.245778	-0.600006	0.131453
F46	F	-1.481472	-0.261453	-0.450427
H47	H	-1.050637	0.000172	0.623847
F48	F	-0.686667	0.000195	0.406188
F49	F	-0.793056	0.000201	0.645692
F50	F	-0.878720	0.000176	-0.054715
F51	F	-1.724526	-0.399844	0.238355
F52	F	-1.671485	-0.599354	-0.001307
H53	H	-1.438417	-0.412175	-0.025020
F54	F	-1.492318	0.253737	-0.044784
H55	H	-1.488189	-0.229753	-0.196342
F56	F	-1.481559	0.515367	-0.450490
H57	H	-1.129310	0.000140	-0.019406
H58	H	-1.478796	0.253710	-0.552950
H59	H	-1.321950	-0.412427	0.347966
F60	F	-1.538311	-0.599981	0.424184
