data_functionalizedCrystal
_audit_creation_method	'MofGen! by Chris Wilmer'
_symmetry_space_group_name_H-M	'P1'
_symmetry_Int_Tables_number	1
_symmetry_cell_setting	triclinic
loop_
_symmetry_equiv_pos_as_xyz
  x,y,z
_cell_length_a	29.839134
_cell_length_b	18.101396
_cell_length_c	18.101389
_cell_angle_alpha	89.983791
_cell_angle_beta	90.018940
_cell_angle_gamma	89.982405
loop_
_atom_site_label
_atom_site_type_symbol
_atom_site_fract_x
_atom_site_fract_y
_atom_site_fract_z
Zn1	Zn	0.686763	0.295291	0.418744
Zn2	Zn	0.686692	0.419117	0.294907
Zn3	Zn	0.611637	0.295252	0.294916
Zn4	Zn	0.611599	0.419053	0.418707
O5	O	0.649173	0.357178	0.356818
O6	O	0.749621	0.311760	0.402328
O7	O	0.676722	0.402696	0.191275
O8	O	0.621648	0.191624	0.311362
O9	O	0.749569	0.402734	0.311345
O10	O	0.676843	0.191653	0.402337
O11	O	0.621579	0.311693	0.191282
O12	O	0.548765	0.311631	0.311326
O13	O	0.621584	0.402626	0.522345
O14	O	0.548737	0.402588	0.402275
O15	O	0.676806	0.311698	0.522372
O16	O	0.676686	0.522741	0.311310
O17	O	0.621515	0.522695	0.402265
C18	C	0.532450	0.357099	0.356798
C19	C	0.482516	0.357083	0.356807
C20	C	0.649101	0.549589	0.356799
C21	C	0.649111	0.631903	0.356815
C22	C	0.649199	0.357160	0.549980
C23	C	0.649210	0.357152	0.632295
C24	C	0.125952	0.309907	0.404286
C25	C	0.313625	0.309847	0.404269
O26	O	0.337909	0.269642	0.444634
N27	N	0.337071	0.357131	0.356824
C28	C	0.313596	0.404437	0.309383
O29	O	0.337844	0.444659	0.269034
C30	C	0.125923	0.404500	0.309405
C31	C	0.102480	0.357207	0.356848
C32	C	0.102508	0.262619	0.451726
C33	C	0.055593	0.262631	0.451727
C34	C	0.032121	0.309932	0.404288
C35	C	0.055564	0.357220	0.356849
C36	C	0.102449	0.451809	0.261968
C37	C	0.055528	0.451822	0.261979
C38	C	0.032085	0.404529	0.309422
C39	C	-0.014823	0.404533	0.309411
N40	N	-0.038269	0.357249	0.356856
C41	C	-0.014797	0.309948	0.404294
C42	C	0.412126	0.404400	0.309375
C43	C	0.459044	0.404383	0.309368
C44	C	0.459070	0.309794	0.404255
C45	C	0.412151	0.309808	0.404257
C46	C	0.388680	0.357116	0.356820
C47	C	-0.113323	0.309978	0.404292
C48	C	-0.160242	0.309992	0.404287
C49	C	-0.160264	0.404584	0.309403
C50	C	-0.113349	0.404567	0.309406
C51	C	-0.089879	0.357261	0.356856
O52	O	-0.039136	0.444723	0.269073
O53	O	-0.039053	0.269744	0.444650
C54	C	0.172867	0.309894	0.404285
C55	C	0.196311	0.357182	0.356846
C56	C	0.172839	0.404483	0.309407
C57	C	0.243229	0.357166	0.356839
C58	C	0.266701	0.309865	0.404278
C59	C	0.243255	0.262581	0.451723
C60	C	0.196339	0.262594	0.451724
C61	C	0.196285	0.451767	0.261962
C62	C	0.243200	0.451750	0.261965
C63	C	0.266672	0.404449	0.309403
C64	C	0.766351	0.357259	0.356839
C65	C	0.816286	0.357293	0.356848
C66	C	0.649191	0.930994	0.356858
C67	C	0.614562	0.899670	0.414227
C68	C	0.614402	0.814052	0.414046
C69	C	0.649151	0.782611	0.356838
C70	C	0.636332	0.813741	0.278788
C71	C	0.636103	0.899386	0.279133
C72	C	0.696718	0.899368	0.376852
C73	C	0.696443	0.813717	0.378562
C74	C	0.649130	0.698752	0.356821
C75	C	0.649211	1.014853	0.356870
C76	C	0.649242	1.164016	0.356857
C77	C	0.649231	1.081702	0.356881
C78	C	0.649173	0.357143	0.164408
C79	C	0.649249	0.356943	0.082094
C80	C	0.649236	0.357013	0.931386
C81	C	0.614372	0.414040	0.900044
C82	C	0.614466	0.414305	0.814425
C83	C	0.649223	0.357082	0.783003
C84	C	0.696554	0.378292	0.814102
C85	C	0.696360	0.378667	0.899747
C86	C	0.637180	0.278648	0.899809
C87	C	0.636127	0.279101	0.814158
C88	C	0.649218	0.357119	0.699144
C89	C	0.649244	0.356977	1.015245
H90	H	-0.179328	0.271477	0.442920
O91	O	-0.090598	0.263955	0.450408
C92	C	-0.095537	0.170165	0.544548
C93	C	-0.121327	0.222238	0.492353
H94	H	-0.120370	0.136435	0.578486
H95	H	-0.073588	0.131335	0.510652
H96	H	-0.073553	0.204221	0.583186
H97	H	-0.143335	0.188243	0.453704
H98	H	-0.143248	0.261071	0.526296
O99	O	0.708629	0.446958	0.923627
C100	C	0.761554	0.518694	0.994060
C101	C	0.747714	0.441314	0.967062
H102	H	0.793150	0.514155	1.029196
H103	H	0.768398	0.555809	0.944440
H104	H	0.733335	0.543402	1.028576
H105	H	0.775915	0.416540	0.932560
H106	H	0.740854	0.404250	1.016715
H107	H	0.660763	0.793377	0.234879
O108	O	0.572820	0.925516	0.398612
C109	C	0.525485	1.032493	0.384629
C110	C	0.572779	1.003321	0.402313
H111	H	0.525434	1.095400	0.387630
H112	H	0.515371	1.014232	0.326706
H113	H	0.500627	1.009431	0.426513
H114	H	0.597669	1.026369	0.360476
H115	H	0.582855	1.021574	0.460255
H116	H	0.708402	0.920933	0.432796
H117	H	0.660231	0.920109	0.234931
O118	O	0.173549	0.216579	0.497709
C119	C	0.120573	0.116647	0.507866
C120	C	0.146359	0.168701	0.455699
H121	H	0.098576	0.077934	0.473923
H122	H	0.145394	0.082789	0.541756
H123	H	0.098635	0.150724	0.546551
H124	H	0.168297	0.134681	0.416969
H125	H	0.121513	0.202561	0.421862
H126	H	0.603267	0.259329	0.921399
H127	H	0.722518	0.919624	0.335068
O128	O	0.572570	0.398588	0.789373
C129	C	0.494787	0.434349	0.787147
C130	C	0.542216	0.452241	0.815546
H131	H	0.470232	0.477708	0.808309
H132	H	0.494741	0.434551	0.724166
H133	H	0.484273	0.377500	0.807983
H134	H	0.552759	0.509092	0.794764
H135	H	0.542237	0.451990	0.878526
H136	H	0.601296	0.263106	0.793831
O137	O	0.623955	0.483556	0.789859
C138	C	0.634889	0.562584	0.684249
C139	C	0.624126	0.484124	0.711968
H140	H	0.635039	0.563065	0.621271
H141	H	0.608391	0.602745	0.705358
H142	H	0.669240	0.580016	0.705604
H143	H	0.589787	0.466623	0.690623
H144	H	0.650651	0.444009	0.690866
H145	H	0.177179	0.490286	0.223332
H146	H	0.659668	0.234355	0.792769
H147	H	0.706111	0.793370	0.436002
O148	O	0.481835	0.450212	0.263199
C149	C	0.534797	0.460031	0.163215
C150	C	0.509010	0.408040	0.215441
H151	H	0.556782	0.425956	0.124600
H152	H	0.509978	0.493827	0.129261
H153	H	0.556748	0.498811	0.197162
H154	H	0.487058	0.369215	0.181551
H155	H	0.533854	0.374296	0.249398
H156	H	0.723612	0.792313	0.339823
H157	H	0.393020	0.442925	0.270742
H158	H	0.723217	0.338935	0.920482
O159	O	0.572370	0.789620	0.398372
C160	C	0.508810	0.718686	0.439672
C161	C	0.556407	0.746316	0.457528
H162	H	0.495892	0.683656	0.487482
H163	H	0.485611	0.768001	0.431082
H164	H	0.509702	0.683901	0.387201
H165	H	0.555557	0.781088	0.510007
H166	H	0.579585	0.696969	0.466072
O167	O	0.125145	0.497821	0.215860
C168	C	0.120147	0.591621	0.121728
C169	C	0.094389	0.539558	0.173922
H170	H	0.095292	0.625367	0.087796
H171	H	0.142104	0.630438	0.155624
H172	H	0.142119	0.557558	0.083084
H173	H	0.072393	0.573561	0.212577
H174	H	0.072461	0.500739	0.139980
O175	O	-0.183090	0.450609	0.263431
C176	C	-0.236099	0.550559	0.253325
C177	C	-0.210267	0.498489	0.305466
H178	H	-0.258084	0.589273	0.287288
H179	H	-0.211308	0.584416	0.219425
H180	H	-0.258052	0.516496	0.214647
H181	H	-0.188313	0.532495	0.344188
H182	H	-0.235082	0.464630	0.339313
H183	H	0.579168	0.400900	0.920634
H184	H	0.601362	0.919407	0.262196
H185	H	0.601961	0.792334	0.261548
O186	O	0.623782	0.482864	0.925844
C187	C	0.632209	0.560911	1.032766
C188	C	0.621552	0.482932	1.003649
H189	H	0.630400	0.560995	1.095674
H190	H	0.667327	0.577639	1.014479
H191	H	0.606756	0.601847	1.009690
H192	H	0.646975	0.441944	1.026712
H193	H	0.586422	0.466266	1.021929
O194	O	0.728376	0.330362	0.789698
C195	C	0.766004	0.277773	0.684329
C196	C	0.729961	0.332093	0.711868
H197	H	0.767291	0.279143	0.621401
H198	H	0.800045	0.294377	0.707614
H199	H	0.757336	0.219539	0.703593
H200	H	0.738587	0.390344	0.692615
H201	H	0.695931	0.315426	0.688590
O202	O	0.624058	0.924079	0.483527
C203	C	0.643248	0.890930	0.608536
C204	C	0.632510	0.863181	0.530082
H205	H	0.650075	0.841708	0.646201
H206	H	0.674091	0.928039	0.606750
H207	H	0.613492	0.923593	0.630750
H208	H	0.662238	0.830487	0.507821
H209	H	0.601650	0.826110	0.531915
O210	O	0.032709	0.497856	0.216001
C211	C	-0.020291	0.597817	0.205870
C212	C	0.005531	0.545744	0.258024
H213	H	-0.042277	0.636537	0.239823
H214	H	0.004507	0.631666	0.171977
H215	H	-0.042242	0.563756	0.167187
H216	H	0.027483	0.579748	0.296751
H217	H	-0.019291	0.511893	0.291865
H218	H	0.622423	0.793003	0.471919
O219	O	0.266129	0.216703	0.497782
C220	C	0.338427	0.174748	0.539790
C221	C	0.312575	0.226746	0.487602
H222	H	0.375983	0.182839	0.531566
H223	H	0.329251	0.187844	0.599501
H224	H	0.329182	0.115023	0.526901
H225	H	0.321807	0.286489	0.500425
H226	H	0.321754	0.213588	0.427907
O227	O	0.709038	0.445887	0.788573
C228	C	0.765671	0.540756	0.788098
C229	C	0.751597	0.464189	0.817046
H230	H	0.800077	0.555583	0.811118
H231	H	0.767193	0.539592	0.725179
H232	H	0.740141	0.583802	0.806606
H233	H	0.777112	0.421100	0.798592
H234	H	0.750062	0.465414	0.879962
O235	O	0.032844	0.216775	0.497926
C236	C	0.018559	0.180988	0.623965
C237	C	0.044336	0.232978	0.571723
H238	H	0.027847	0.194058	0.683641
H239	H	-0.019014	0.189116	0.615895
H240	H	0.027783	0.121257	0.611025
H241	H	0.035150	0.292728	0.584631
H242	H	0.081902	0.224785	0.579803
O243	O	0.125324	0.216771	0.497889
C244	C	0.178333	0.206902	0.597865
C245	C	0.152518	0.258918	0.545645
H246	H	0.200332	0.240956	0.636478
H247	H	0.153530	0.173126	0.631821
H248	H	0.200270	0.168104	0.563913
H249	H	0.130580	0.297761	0.579539
H250	H	0.177345	0.292642	0.511686
H251	H	-0.094260	0.443069	0.270767
H252	H	0.262284	0.490260	0.223324
O253	O	0.667409	0.227870	0.924022
C254	C	0.679387	0.115316	0.992356
C255	C	0.645103	0.172749	0.964963
H256	H	0.661368	0.070745	1.025474
H257	H	0.696909	0.089023	0.942962
H258	H	0.705276	0.143697	1.028955
H259	H	0.619188	0.144425	0.928377
H260	H	0.627616	0.199039	1.014390
O261	O	0.481895	0.263955	0.450420
C262	C	0.534917	0.254142	0.550381
C263	C	0.509086	0.306130	0.498156
H264	H	0.556914	0.288219	0.588978
H265	H	0.510126	0.220361	0.584355
H266	H	0.556859	0.215348	0.516433
H267	H	0.487144	0.344969	0.532047
H268	H	0.533902	0.339859	0.464180
H269	H	0.393067	0.271297	0.442888
