data_functionalizedCrystal
_audit_creation_method	'MofGen! by Chris Wilmer'
_symmetry_space_group_name_H-M	'P1'
_symmetry_Int_Tables_number	1
_symmetry_cell_setting	triclinic
loop_
_symmetry_equiv_pos_as_xyz
  x,y,z
_cell_length_a	8.559649
_cell_length_b	14.044190
_cell_length_c	7.681481
_cell_angle_alpha	83.728840
_cell_angle_beta	94.913240
_cell_angle_gamma	81.485221
loop_
_atom_site_label
_atom_site_type_symbol
_atom_site_fract_x
_atom_site_fract_y
_atom_site_fract_z
O1	O	2.101907	-0.021858	-0.146396
O2	O	1.643609	0.026593	-0.146414
O3	O	1.865876	-0.135118	-0.146371
O4	O	1.879640	0.139853	-0.146440
O5	O	1.893228	-0.155063	0.146492
O6	O	1.670961	0.006649	0.146449
O7	O	2.129259	-0.041802	0.146467
Zn8	Zn	1.904452	-0.020743	0.192956
Zn9	Zn	1.868415	0.005534	-0.192904
O10	O	1.906991	0.119909	0.146423
C11	C	1.598278	0.020293	0.000015
C12	C	1.422456	0.031222	0.000010
C13	C	1.873529	-0.179967	0.000065
C14	C	1.855562	-0.283886	0.000080
C15	C	1.950141	-0.541053	0.000015
C16	C	1.822733	-0.474150	0.000022
C17	C	1.841003	-0.368277	0.000054
C18	C	1.931873	-0.646936	-0.000018
C19	C	2.174589	-0.035501	0.000033
C20	C	2.350410	-0.046430	0.000027
C21	C	1.899339	0.164758	-0.000017
C22	C	1.917304	0.268678	-0.000043
N23	N	1.929058	-0.038678	0.456295
N24	N	1.843821	0.023461	-0.456243
H25	H	1.423238	-0.121273	0.000037
H26	H	2.016087	-0.102102	0.531518
H27	H	1.699934	-0.496385	0.000007
O28	O	1.335346	0.120443	0.000059
C29	C	1.173295	0.111868	0.000005
H30	H	1.161791	0.034839	0.055470
H31	H	1.114079	0.165401	0.085010
H32	H	1.112978	0.128430	-0.140501
O33	O	2.096526	-0.514376	0.000129
C34	C	2.082404	-0.413069	0.000116
H35	H	1.967375	-0.385012	0.055543
H36	H	2.187652	-0.395497	0.085174
H37	H	2.080769	-0.376779	-0.140373
O38	O	1.740191	0.099239	0.454119
C39	C	1.783490	0.187162	0.499048
H40	H	1.914885	0.174911	0.549824
H41	H	1.760863	0.243759	0.377716
H42	H	1.709736	0.213911	0.605932
