data_functionalizedCrystal
_audit_creation_method	'MofGen! by Chris Wilmer'
_symmetry_space_group_name_H-M	'P1'
_symmetry_Int_Tables_number	1
_symmetry_cell_setting	triclinic
loop_
_symmetry_equiv_pos_as_xyz
  x,y,z
_cell_length_a	18.101398
_cell_length_b	25.639239
_cell_length_c	18.101389
_cell_angle_alpha	90.026369
_cell_angle_beta	90.008593
_cell_angle_gamma	90.034689
loop_
_atom_site_label
_atom_site_type_symbol
_atom_site_fract_x
_atom_site_fract_y
_atom_site_fract_z
Zn1	Zn	-1.132076	0.208278	-0.418487
Zn2	Zn	-0.632076	0.708278	0.081513
Zn3	Zn	-1.131953	0.295700	-0.294628
Zn4	Zn	-0.631953	0.795700	0.205372
Zn5	Zn	-1.008235	0.208272	-0.294682
Zn6	Zn	-0.508235	0.708272	0.205318
Zn7	Zn	-1.008166	0.295676	-0.418451
Zn8	Zn	-0.508166	0.795676	0.081549
O9	O	-1.070107	0.251982	-0.356562
O10	O	-0.570107	0.751982	0.143438
O11	O	-1.235692	0.219887	-0.402049
O12	O	-0.735692	0.719887	0.097951
O13	O	-1.115518	0.284109	-0.191002
O14	O	-0.615518	0.784109	0.308998
O15	O	-1.024742	0.135108	-0.311143
O16	O	-0.524742	0.635108	0.188857
O17	O	-1.235602	0.284115	-0.311051
O18	O	-0.735602	0.784115	0.188949
O19	O	-1.115728	0.135112	-0.402102
O20	O	-0.615728	0.635112	0.097898
O21	O	-1.024623	0.219877	-0.191042
O22	O	-0.524623	0.719877	0.308958
O23	O	-0.904593	0.219854	-0.311108
O24	O	-0.404593	0.719854	0.188892
O25	O	-1.024626	0.284076	-0.522088
O26	O	-0.524626	0.784076	-0.022088
O27	O	-0.904543	0.284070	-0.402040
O28	O	-0.404543	0.784070	0.097960
O29	O	-1.115662	0.219865	-0.522115
O30	O	-0.615662	0.719865	-0.022115
O31	O	-1.115452	0.368862	-0.311016
O32	O	-0.615452	0.868862	0.188984
O33	O	-1.024507	0.368845	-0.401988
O34	O	-0.524507	0.868845	0.098012
C35	C	-0.877697	0.251959	-0.356576
C36	C	-0.377697	0.751959	0.143424
C37	C	-0.795383	0.251962	-0.356600
C38	C	-0.295383	0.751962	0.143400
C39	C	-0.496292	0.251990	-0.356575
C40	C	0.003708	0.751990	0.143425
C41	C	-0.527610	0.292589	-0.413504
C42	C	-0.027610	0.792589	0.086496
C43	C	-0.613228	0.292462	-0.413736
C44	C	-0.113228	0.792462	0.086264
C45	C	-0.644674	0.251977	-0.356587
C46	C	-0.144674	0.751977	0.143413
C47	C	-0.613632	0.196909	-0.377926
C48	C	-0.113632	0.696909	0.122074
C49	C	-0.527987	0.197152	-0.378333
C50	C	-0.027987	0.697152	0.121667
C51	C	-0.527836	0.265974	-0.278169
C52	C	-0.027836	0.765974	0.221831
C53	C	-0.613486	0.267183	-0.278586
C54	C	-0.113486	0.767183	0.221414
C55	C	-0.728534	0.251966	-0.356593
C56	C	-0.228534	0.751966	0.143407
C57	C	-0.412432	0.251998	-0.356571
C58	C	0.087568	0.751998	0.143429
C59	C	-1.069979	0.387824	-0.356508
C60	C	-0.569979	0.887824	0.143492
C61	C	-1.069991	0.445938	-0.356510
C62	C	-0.569991	0.945938	0.143490
C63	C	-1.070150	0.251968	-0.549724
C64	C	-0.570150	0.751968	-0.049724
C65	C	-1.070168	0.251963	-0.632038
C66	C	-0.570168	0.751963	-0.132038
C67	C	-0.263269	0.252002	-0.356553
C68	C	0.236731	0.752002	0.143447
C69	C	-0.345583	0.252005	-0.356562
C70	C	0.154417	0.752005	0.143438
C71	C	-1.117409	0.806265	-0.404027
C72	C	-0.617409	1.306265	0.095973
C73	C	-1.117422	0.860869	-0.404044
C74	C	-0.617422	1.360869	0.095956
O75	O	-1.157662	0.889075	-0.444376
O76	O	-0.657662	1.389075	0.055624
N77	N	-1.070098	0.888221	-0.356653
N78	N	-0.570098	1.388221	0.143347
C79	C	-1.022754	0.860965	-0.309248
C80	C	-0.522754	1.360965	0.190752
O81	O	-0.982502	0.889243	-0.268941
O82	O	-0.482502	1.389243	0.231059
C83	C	-1.022738	0.806361	-0.309236
C84	C	-0.522738	1.306361	0.190764
C85	C	-1.070070	0.779013	-0.356624
C86	C	-0.570070	1.279013	0.143376
C87	C	-1.164737	0.778917	-0.451412
C88	C	-0.664737	1.278917	0.048588
C89	C	-1.164725	0.724316	-0.451394
C90	C	-0.664725	1.224316	0.048606
C91	C	-1.117386	0.697064	-0.403991
C92	C	-0.617386	1.197064	0.096009
C93	C	-1.070059	0.724412	-0.356606
C94	C	-0.570059	1.224412	0.143394
C95	C	-0.975391	0.779106	-0.261835
C96	C	-0.475391	1.279106	0.238165
C97	C	-0.975379	0.724499	-0.261827
C98	C	-0.475379	1.224499	0.238173
C99	C	-1.022711	0.697151	-0.309216
C100	C	-0.522711	1.197151	0.190784
C101	C	-1.022709	0.642560	-0.309186
C102	C	-0.522709	1.142560	0.190814
N103	N	-1.070032	0.615209	-0.356576
N104	N	-0.570032	1.115209	0.143424
C105	C	-1.117371	0.642461	-0.403979
C106	C	-0.617371	1.142461	0.096021
C107	C	-1.022789	0.975635	-0.309279
C108	C	-0.522789	1.475635	0.190721
C109	C	-1.022807	1.030238	-0.309287
C110	C	-0.522807	1.530238	0.190713
C111	C	-1.117474	1.030139	-0.404084
C112	C	-0.617474	1.530139	0.095916
C113	C	-1.117459	0.975535	-0.404071
C114	C	-0.617459	1.475535	0.095929
C115	C	-1.070112	0.948284	-0.356670
C116	C	-0.570112	1.448284	0.143330
C117	C	-1.117344	0.527796	-0.403937
C118	C	-0.617344	1.027796	0.096063
C119	C	-1.117330	0.473190	-0.403913
C120	C	-0.617330	0.973190	0.096087
C121	C	-1.022661	0.473294	-0.309119
C122	C	-0.522661	0.973294	0.190881
C123	C	-1.022677	0.527895	-0.309141
C124	C	-0.522677	1.027895	0.190859
C125	C	-1.070021	0.555144	-0.356555
C126	C	-0.570021	1.055144	0.143445
O127	O	-0.982486	0.614319	-0.268876
O128	O	-0.482486	1.114319	0.231124
O129	O	-1.157609	0.614176	-0.444286
O130	O	-0.657609	1.114176	0.055714
C131	C	-1.070212	1.115609	-0.356640
C132	C	-0.570212	1.615609	0.143360
C133	C	-1.070144	1.057494	-0.356693
C134	C	-0.570144	1.557494	0.143307
C135	C	-1.070212	0.251865	-0.931129
C136	C	-0.570212	0.751865	-0.431129
C137	C	-1.012737	0.292136	-0.899787
C138	C	-0.512737	0.792136	-0.399787
C139	C	-1.012892	0.292323	-0.814169
C140	C	-0.512892	0.792323	-0.314169
C141	C	-1.070189	0.251913	-0.782747
C142	C	-0.570189	0.751913	-0.282747
C143	C	-1.148212	0.266874	-0.813828
C144	C	-0.648212	0.766874	-0.313828
C145	C	-1.147891	0.267139	-0.899473
C146	C	-0.647891	0.767139	-0.399473
C147	C	-1.050342	0.196543	-0.899570
C148	C	-0.550342	0.696543	-0.399570
C149	C	-1.048606	0.196862	-0.813919
C150	C	-0.548606	0.696862	-0.313919
C151	C	-1.070182	0.251940	-0.698887
C152	C	-0.570182	0.751940	-0.198887
C153	C	-1.070224	0.251839	-1.014989
C154	C	-0.570224	0.751839	-0.514989
C155	C	-1.070107	0.251957	-0.164151
C156	C	-0.570107	0.751957	0.335849
C157	C	-1.070233	0.251815	-0.081838
C158	C	-0.570233	0.751815	0.418162
H159	H	-0.634892	0.239760	-0.233889
H160	H	-0.134892	0.739760	0.266111
H161	H	-0.634003	0.165841	-0.337755
H162	H	-0.134003	0.665841	0.162245
Cl163	Cl	-0.963312	1.064612	-0.249701
Cl164	Cl	-0.463312	1.564612	0.250299
Cl165	Cl	-1.032743	0.355054	-0.933056
Cl166	Cl	-0.532743	0.855054	-0.433056
H167	H	-0.984120	0.451097	-0.270522
H168	H	-0.484120	0.951097	0.229478
Cl169	Cl	-0.494388	0.278498	-0.502676
Cl170	Cl	0.005612	0.778498	-0.002676
H171	H	-1.203286	0.801100	-0.490017
H172	H	-0.703286	1.301100	0.009983
Cl173	Cl	-0.646771	0.178263	-0.465460
Cl174	Cl	-0.146771	0.678263	0.034540
H175	H	-0.955036	0.282960	-0.793154
H176	H	-0.455036	0.782960	-0.293154
Cl177	Cl	-1.033186	0.355627	-0.782522
Cl178	Cl	-0.533186	0.855627	-0.282522
H179	H	-0.507584	0.236403	-0.235751
H180	H	-0.007584	0.736403	0.264249
Cl181	Cl	-0.644891	0.278178	-0.503427
Cl182	Cl	-0.144891	0.778178	-0.003427
Cl183	Cl	-1.176839	0.438813	-0.463490
Cl184	Cl	-0.676839	0.938813	0.036510
Cl185	Cl	-0.494442	0.326904	-0.248226
Cl186	Cl	0.005558	0.826904	0.251774
H187	H	-0.633781	0.307705	-0.262492
H188	H	-0.133781	0.807705	0.237508
Cl189	Cl	-0.495762	0.355843	-0.393093
Cl190	Cl	0.004238	0.855843	0.106907
H191	H	-0.507272	0.165820	-0.338770
H192	H	-0.007272	0.665820	0.161230
Cl193	Cl	-0.923137	0.277828	-0.931590
Cl194	Cl	-0.423137	0.777828	-0.431590
Cl195	Cl	-1.173897	0.329577	-0.930310
Cl196	Cl	-0.673897	0.829577	-0.430310
H197	H	-1.156000	0.953271	-0.442659
H198	H	-0.656000	1.453271	0.057341
Cl199	Cl	-0.915881	0.813474	-0.202261
Cl200	Cl	-0.415881	1.313474	0.297739
Cl201	Cl	-1.216206	0.223790	-0.931488
Cl202	Cl	-0.716206	0.723790	-0.431488
H203	H	-1.155891	0.549976	-0.442552
H204	H	-0.655891	1.049976	0.057448
H205	H	-0.994438	0.182913	-0.921174
H206	H	-0.494438	0.682913	-0.421174
Cl207	Cl	-1.224226	0.689943	-0.510977
Cl208	Cl	-0.724226	1.189943	-0.010977
Cl209	Cl	-0.915854	0.690244	-0.202232
Cl210	Cl	-0.415854	1.190244	0.297768
Cl211	Cl	-0.963267	0.941382	-0.249677
Cl212	Cl	-0.463267	1.441382	0.250323
H213	H	-1.156019	1.052337	-0.442683
H214	H	-0.656019	1.552337	0.057317
H215	H	-1.192184	0.238464	-0.793476
H216	H	-0.692184	0.738464	-0.293476
Cl217	Cl	-1.174673	0.328649	-0.780707
Cl218	Cl	-0.674673	0.828649	-0.280707
H219	H	-0.984141	0.550163	-0.270547
H220	H	-0.484141	1.050163	0.229453
H221	H	-0.991189	0.185580	-0.793605
H222	H	-0.491189	0.685580	-0.293605
Cl223	Cl	-1.108531	0.148077	-0.780910
Cl224	Cl	-0.608531	0.648077	-0.280910
H225	H	-1.092204	0.166538	-0.919840
H226	H	-0.592204	0.666538	-0.419840
H227	H	-0.634215	0.333298	-0.400361
H228	H	-0.134215	0.833298	0.099639
H229	H	-0.508028	0.185290	-0.435652
H230	H	-0.008028	0.685290	0.064348
