data_functionalizedCrystal
_audit_creation_method	'MofGen! by Chris Wilmer'
_symmetry_space_group_name_H-M	'P1'
_symmetry_Int_Tables_number	1
_symmetry_cell_setting	triclinic
loop_
_symmetry_equiv_pos_as_xyz
  x,y,z
_cell_length_a	10.654556
_cell_length_b	13.448316
_cell_length_c	10.654550
_cell_angle_alpha	89.993571
_cell_angle_beta	95.513766
_cell_angle_gamma	90.005086
loop_
_atom_site_label
_atom_site_type_symbol
_atom_site_fract_x
_atom_site_fract_y
_atom_site_fract_z
O1	O	1.667840	0.082654	-0.176440
O2	O	1.302363	0.082664	-0.193238
O3	O	1.493505	0.082653	-0.002100
O4	O	1.476699	0.082666	-0.367578
O5	O	1.493480	-0.082731	-0.002088
O6	O	1.302339	-0.082720	-0.193226
O7	O	1.667816	-0.082730	-0.176428
Cu8	Cu	1.485075	-0.097826	-0.184826
Cu9	Cu	1.485104	0.097760	-0.184840
O10	O	1.476674	-0.082718	-0.367566
C11	C	1.255553	-0.000026	-0.191997
C12	C	1.116110	-0.000023	-0.188302
N13	N	1.485064	-0.235390	-0.184815
C14	C	0.919578	0.090120	-0.183106
C15	C	1.050600	0.090126	-0.186570
C16	C	1.050592	-0.090184	-0.186556
C17	C	0.919574	-0.090189	-0.183083
C18	C	1.569728	-0.287435	-0.100215
C19	C	1.569736	-0.391539	-0.100214
C20	C	1.485085	-0.443594	-0.184820
C21	C	1.400411	-0.391542	-0.269425
C22	C	1.400398	-0.287440	-0.269419
C23	C	1.400446	-0.608522	-0.269433
C24	C	1.400460	-0.712630	-0.269442
C25	C	1.569784	-0.712620	-0.100228
C26	C	1.569771	-0.608519	-0.100222
C27	C	1.485099	-0.556473	-0.184829
C28	C	1.714626	-0.000037	-0.177669
C29	C	1.854069	-0.000034	-0.181364
C30	C	1.492258	-0.000039	0.044704
C31	C	1.488567	-0.000037	0.184147
N32	N	1.485125	0.235324	-0.184841
C33	C	1.477920	-0.000025	-0.414370
C34	C	1.481612	-0.000020	-0.553813
C35	C	1.601108	-0.000040	0.263630
C36	C	1.597631	-0.000028	0.394651
C37	C	1.369063	-0.000014	0.366693
C38	C	1.372540	-0.000019	0.235675
H39	H	1.103932	0.163539	-0.187986
C40	C	1.662848	-0.230179	-0.007143
C41	C	1.759315	-0.158594	-0.057104
C42	C	1.852434	-0.101341	0.035973
C43	C	1.849088	-0.115675	0.179011
C44	C	1.752618	-0.187263	0.228979
C45	C	1.659498	-0.244516	0.135902
H46	H	1.761795	-0.147980	-0.162996
H47	H	1.923848	-0.048346	-0.001017
H48	H	1.918021	-0.073293	0.247912
H49	H	1.750137	-0.197877	0.334870
H50	H	1.588084	-0.297511	0.172892
H51	H	1.103942	-0.163585	-0.187959
H52	H	1.638675	-0.433914	-0.031325
C53	C	1.662887	-0.551252	-0.007158
C54	C	1.659546	-0.565574	0.135882
C55	C	1.752659	-0.508306	0.228949
C56	C	1.849113	-0.436715	0.178975
C57	C	1.852457	-0.422390	0.035927
C58	C	1.759344	-0.479658	-0.057139
H59	H	1.588143	-0.618572	0.172882
H60	H	1.750183	-0.518910	0.334842
H61	H	1.918040	-0.394322	0.247868
H62	H	1.923860	-0.369391	-0.001073
H63	H	1.761820	-0.469053	-0.163033
H64	H	1.331493	-0.566150	-0.338325
H65	H	1.689274	-0.000028	0.459362
C66	C	1.241441	0.000001	0.423383
C67	C	1.207600	-0.085872	0.509626
C68	C	1.079977	-0.085858	0.566313
C69	C	0.986194	0.000030	0.536758
C70	C	1.020032	0.085910	0.450511
C71	C	1.147656	0.085896	0.393823
H72	H	1.277026	-0.149458	0.531508
H73	H	1.054928	-0.149432	0.630160
H74	H	0.891720	0.000041	0.578722
H75	H	0.950607	0.149496	0.428628
H76	H	1.172705	0.149470	0.329977
H77	H	1.638726	-0.755002	-0.031339
H78	H	1.331455	-0.245066	-0.338307
H79	H	0.866235	-0.163608	-0.181664
H80	H	1.331527	-0.755009	-0.338336
C81	C	0.847522	0.189287	-0.181199
C82	C	0.878852	0.263654	-0.072810
C83	C	0.806801	0.362824	-0.070899
C84	C	0.703420	0.387627	-0.177376
C85	C	0.672085	0.313259	-0.285773
C86	C	0.744136	0.214089	-0.287685
H87	H	0.955386	0.245294	0.006018
H88	H	0.829998	0.417875	0.009344
H89	H	0.650084	0.461039	-0.175961
H90	H	0.595552	0.331619	-0.364601
H91	H	0.720940	0.159037	-0.367928
H92	H	1.331480	-0.433932	-0.338309
C93	C	1.248736	-0.000019	0.148234
C94	C	1.153989	0.085865	0.154698
C95	C	1.030191	0.085869	0.067258
C96	C	1.001140	-0.000010	-0.026647
C97	C	1.095889	-0.085900	-0.033116
C98	C	1.219687	-0.085904	0.054325
H99	H	1.175492	0.149443	0.224216
H100	H	0.960052	0.149451	0.072047
H101	H	0.909497	-0.000007	-0.091376
H102	H	1.074386	-0.149478	-0.102634
H103	H	1.289826	-0.149486	0.049536
H104	H	1.695584	-0.000052	0.221681
