data_functionalizedCrystal
_audit_creation_method	'MofGen! by Chris Wilmer'
_symmetry_space_group_name_H-M	'P1'
_symmetry_Int_Tables_number	1
_symmetry_cell_setting	triclinic
loop_
_symmetry_equiv_pos_as_xyz
  x,y,z
_cell_length_a	14.853569
_cell_length_b	14.853567
_cell_length_c	13.448316
_cell_angle_alpha	89.997194
_cell_angle_beta	89.995215
_cell_angle_gamma	83.635248
loop_
_atom_site_label
_atom_site_type_symbol
_atom_site_fract_x
_atom_site_fract_y
_atom_site_fract_z
O1	O	1.196367	0.117713	-0.082638
O2	O	1.696367	0.617713	0.417362
O3	O	0.933907	0.131733	-0.082649
O4	O	1.433907	0.631733	0.417351
O5	O	1.072148	-0.006507	-0.082646
O6	O	1.572148	0.493493	0.417354
O7	O	1.058126	0.255953	-0.082640
O8	O	1.558126	0.755953	0.417360
O9	O	1.072130	-0.006515	0.082738
O10	O	1.572130	0.493485	0.582738
O11	O	0.933890	0.131724	0.082735
O12	O	1.433890	0.631724	0.582735
O13	O	1.196349	0.117704	0.082746
O14	O	1.696349	0.617704	0.582746
Cu15	Cu	1.065118	0.124714	0.097841
Cu16	Cu	1.565118	0.624714	0.597841
Cu17	Cu	1.065139	0.124724	-0.097744
Cu18	Cu	1.565139	0.624724	0.402256
O19	O	1.058109	0.255944	0.082743
O20	O	1.558109	0.755944	0.582743
C21	C	0.900310	0.131093	0.000042
C22	C	1.400310	0.631093	0.500042
C23	C	0.800226	0.129189	0.000037
C24	C	1.300226	0.629189	0.500037
C25	C	0.763850	0.046178	0.000032
C26	C	1.263850	0.546178	0.500032
C27	C	0.742560	0.210410	0.000046
C28	C	1.242560	0.710410	0.500046
C29	C	0.648526	0.208624	0.000048
C30	C	1.148526	0.708624	0.500048
C31	C	0.612150	0.125613	0.000042
C32	C	1.112150	0.625613	0.500042
C33	C	0.669807	0.044389	0.000036
C34	C	1.169807	0.544389	0.500036
C35	C	0.590862	0.289847	0.000064
C36	C	1.090862	0.789847	0.500064
C37	C	0.496821	0.288064	0.000066
C38	C	0.996821	0.788064	0.500066
C39	C	0.460443	0.205052	0.000054
C40	C	0.960443	0.705052	0.500054
C41	C	0.518107	0.123824	0.000046
C42	C	1.018107	0.623824	0.500046
C43	C	0.481730	0.040813	0.000041
C44	C	0.981730	0.540813	0.500041
C45	C	0.539393	-0.040415	0.000027
C46	C	1.039393	0.459585	0.500027
C47	C	0.633429	-0.038623	0.000024
C48	C	1.133429	0.461377	0.500024
C49	C	0.366407	0.203259	0.000057
C50	C	0.866407	0.703259	0.500057
C51	C	0.387688	0.039024	0.000045
C52	C	0.887688	0.539024	0.500045
C53	C	1.071504	-0.040100	0.000043
C54	C	1.571504	0.459900	0.500043
C55	C	1.069600	-0.140183	0.000034
C56	C	1.569600	0.359817	0.500034
C57	C	0.979434	-0.552718	0.000050
C58	C	1.479434	-0.052718	0.500050
C59	C	1.143667	-0.573998	0.000056
C60	C	1.643667	-0.073998	0.500056
C61	C	1.145457	-0.479964	0.000051
C62	C	1.645457	0.020036	0.500051
C63	C	1.064234	-0.422303	0.000046
C64	C	1.564234	0.077697	0.500046
C65	C	0.981222	-0.458675	0.000047
C66	C	1.481222	0.041325	0.500047
C67	C	1.228468	-0.443585	0.000060
C68	C	1.728468	0.056415	0.500060
C69	C	1.230262	-0.349545	0.000055
C70	C	1.730262	0.150455	0.500055
C71	C	1.149038	-0.291882	0.000043
C72	C	1.649038	0.208118	0.500043
C73	C	1.066022	-0.328260	0.000043
C74	C	1.566022	0.171740	0.500043
C75	C	0.984800	-0.270599	0.000038
C76	C	1.484800	0.229401	0.500038
C77	C	0.901783	-0.306974	0.000031
C78	C	1.401783	0.193026	0.500031
C79	C	0.899998	-0.401012	0.000035
C80	C	1.399998	0.098988	0.500035
C81	C	1.150822	-0.197845	0.000039
C82	C	1.650822	0.302155	0.500039
C83	C	0.986587	-0.176556	0.000035
C84	C	1.486587	0.323444	0.500035
C85	C	1.229947	0.118344	0.000054
C86	C	1.729947	0.618344	0.500054
C87	C	1.330030	0.120249	0.000052
C88	C	1.830030	0.620249	0.500052
C89	C	1.058753	0.289537	0.000052
C90	C	1.558753	0.789537	0.500052
C91	C	1.060657	0.389621	0.000054
C92	C	1.560657	0.889621	0.500054
N93	N	1.065110	0.124706	0.235406
N94	N	1.565110	0.624706	0.735406
N95	N	1.065154	0.124724	-0.235308
N96	N	1.565154	0.624724	0.264692
C97	C	1.126342	0.063519	0.287447
C98	C	1.626342	0.563519	0.787447
C99	C	1.126348	0.063518	0.391551
C100	C	1.626348	0.563518	0.891551
C101	C	1.065125	0.124710	0.443610
C102	C	1.565125	0.624710	0.943610
C103	C	1.003887	0.185900	0.391561
C104	C	1.503887	0.685900	0.891561
C105	C	1.003877	0.185895	0.287460
C106	C	1.503877	0.685895	0.787460
C107	C	1.003912	0.185906	0.608542
C108	C	1.503912	0.685906	1.108542
C109	C	1.003922	0.185912	0.712650
C110	C	1.503922	0.685912	1.212650
C111	C	1.126382	0.063528	0.712632
C112	C	1.626382	0.563528	1.212632
C113	C	1.126373	0.063524	0.608531
C114	C	1.626373	0.563524	1.108531
C115	C	1.065135	0.124716	0.556489
C116	C	1.565135	0.624716	1.056489
H117	H	0.509763	-0.108003	0.000016
H118	H	1.009763	0.391997	0.500016
Br119	Br	0.920797	0.268949	0.537917
Br120	Br	1.420797	0.768949	1.037917
H121	H	1.176229	0.013702	0.566144
H122	H	1.676229	0.513702	1.066144
Br123	Br	0.791929	0.323063	0.000058
Br124	Br	1.291929	0.823063	0.500058
Br125	Br	1.263478	-0.148480	0.000073
Br126	Br	1.763478	0.351520	0.500073
Br127	Br	0.876350	-0.098307	0.000017
Br128	Br	1.376350	0.401693	0.500017
Br129	Br	0.920830	0.268961	0.783295
Br130	Br	1.420830	0.768961	1.283295
Br131	Br	1.209492	-0.019512	0.783263
Br132	Br	1.709492	0.480488	1.283263
Br133	Br	0.338328	-0.073640	0.000026
Br134	Br	0.838328	0.426360	0.500026
Br135	Br	0.920790	0.268941	0.462210
Br136	Br	1.420790	0.768941	0.962210
H137	H	0.620487	0.357430	0.000075
H138	H	1.120487	0.857430	0.500075
H139	H	0.449880	0.354205	0.000076
H140	H	0.949880	0.854205	0.500076
Br141	Br	0.711688	-0.148851	0.000013
Br142	Br	1.211688	0.351149	0.500013
H143	H	0.810802	-0.019956	0.000016
H144	H	1.310802	0.480044	0.500016
H145	H	0.319463	0.269395	0.000077
H146	H	0.819463	0.769395	0.500077
H147	H	0.835651	-0.260014	0.000034
H148	H	1.335651	0.239986	0.500034
H149	H	1.176200	0.013693	0.245067
H150	H	1.676200	0.513693	0.745067
Br151	Br	0.787343	-0.450385	0.000019
Br152	Br	1.287343	0.049615	0.500019
Br153	Br	0.866774	-0.602081	0.000026
Br154	Br	1.366774	-0.102081	0.500026
H155	H	1.209794	-0.620951	0.000068
H156	H	1.709794	-0.120951	0.500068
H157	H	1.294595	-0.490539	0.000073
H158	H	1.794595	0.009461	0.500073
Br159	Br	1.209446	-0.019526	0.462182
Br160	Br	1.709446	0.480474	0.962182
H161	H	1.297859	-0.319937	0.000060
H162	H	1.797859	0.180063	0.500060
Br163	Br	0.920767	0.268933	0.216832
Br164	Br	1.420767	0.768933	0.716832
