data_functionalizedCrystal
_audit_creation_method	'MofGen! by Chris Wilmer'
_symmetry_space_group_name_H-M	'P1'
_symmetry_Int_Tables_number	1
_symmetry_cell_setting	triclinic
loop_
_symmetry_equiv_pos_as_xyz
  x,y,z
_cell_length_a	19.188930
_cell_length_b	19.188905
_cell_length_c	18.266242
_cell_angle_alpha	90.016065
_cell_angle_beta	90.010255
_cell_angle_gamma	83.139668
loop_
_atom_site_label
_atom_site_type_symbol
_atom_site_fract_x
_atom_site_fract_y
_atom_site_fract_z
O1	O	0.087084	0.926160	0.061010
O2	O	0.098837	0.722847	0.060986
O3	O	-0.008696	0.830371	0.060984
O4	O	0.194617	0.818636	0.061011
O5	O	-0.008699	0.830353	-0.060778
O6	O	0.098834	0.722828	-0.060776
O7	O	0.087081	0.926142	-0.060752
Zn8	Zn	0.092957	0.824482	-0.080097
Zn9	Zn	0.092961	0.824506	0.080330
O10	O	0.194614	0.818618	-0.060751
C11	C	0.098458	0.696826	0.000102
C12	C	0.097324	0.619321	0.000092
C13	C	0.096781	0.582939	0.066466
C14	C	0.095708	0.510115	0.066475
C15	C	0.095164	0.473678	0.000106
C16	C	0.095711	0.510068	-0.066277
C17	C	0.096791	0.582890	-0.066284
N18	N	0.053734	0.364651	-0.049292
N19	N	0.052706	0.295474	-0.049280
C20	C	0.091911	0.254272	0.000123
N21	N	0.132173	0.284861	0.049526
N22	N	0.133198	0.354045	0.049517
C23	C	0.093993	0.394716	0.000106
C24	C	0.090206	0.138926	0.066512
C25	C	0.089137	0.066100	0.066518
C26	C	0.089133	0.066056	-0.066236
C27	C	0.090209	0.138879	-0.066240
C28	C	0.090742	0.175310	0.000136
C29	C	-0.034708	0.829982	0.000101
C30	C	-0.112213	0.828841	0.000095
C31	C	-0.157142	0.891933	0.000099
C32	C	-0.229966	0.890861	0.000110
C33	C	-0.257857	0.826694	0.000103
C34	C	-0.212917	0.763594	0.000103
C35	C	-0.140095	0.764668	0.000099
N36	N	-0.365858	0.777640	-0.041341
N37	N	-0.435037	0.776624	-0.041338
C38	C	-0.477265	0.823456	0.000118
N39	N	-0.447703	0.871352	0.041561
N40	N	-0.378518	0.872369	0.041556
C41	C	-0.336819	0.825523	0.000108
C42	C	-0.601159	0.885390	0.000135
C43	C	-0.673984	0.884315	0.000151
C44	C	-0.656933	0.757047	0.000137
C45	C	-0.584110	0.758123	0.000128
C46	C	-0.556228	0.822296	0.000124
C47	C	0.220626	0.819007	0.000134
C48	C	0.298131	0.820148	0.000145
C49	C	0.087460	0.952163	0.000134
C50	C	0.088594	1.029668	0.000148
N51	N	0.092954	0.824471	-0.189583
C52	C	0.135196	0.866681	-0.227875
C53	C	0.135194	0.866692	-0.304520
C54	C	0.092958	0.824481	-0.342870
C55	C	0.050708	0.782269	-0.304570
C56	C	0.050706	0.782264	-0.227926
N57	N	0.091244	0.763333	-0.463231
N58	N	0.091250	0.763339	-0.536039
C59	C	0.092961	0.824495	-0.573793
N60	N	0.094679	0.885645	-0.535988
N61	N	0.094677	0.885637	-0.463173
C62	C	0.092955	0.824482	-0.425977
C63	C	0.135202	0.866721	-0.695191
C64	C	0.135195	0.866734	-0.771838
C65	C	0.050714	0.782304	-0.771886
C66	C	0.050717	0.782298	-0.695241
C67	C	0.092965	0.824505	-0.656898
N68	N	0.092959	0.824523	0.189817
H69	H	0.088699	0.036479	0.120570
Cl70	Cl	-0.083609	0.685346	0.000094
H71	H	0.169595	0.901052	-0.196661
H72	H	-0.710565	0.935694	0.000158
Cl73	Cl	0.088456	0.020255	-0.149673
Cl74	Cl	0.090887	0.184619	-0.149687
Cl75	Cl	-0.122094	0.972607	0.000114
H76	H	-0.266555	0.942239	0.000116
Cl77	Cl	-0.002398	0.729191	-0.179786
H78	H	-0.235631	0.711349	0.000099
H79	H	-0.578456	0.937644	0.000135
H80	H	0.016322	0.747923	-0.664064
H81	H	-0.679641	0.704801	0.000135
Cl82	Cl	-0.527624	0.678803	0.000120
Cl83	Cl	0.188297	0.919796	-0.646986
H84	H	0.097215	0.612597	0.120515
H85	H	0.169594	0.901065	-0.335703
Cl86	Cl	-0.002391	0.729206	-0.352781
Cl87	Cl	0.188301	0.919806	-0.819976
Cl88	Cl	-0.002391	0.729246	-0.820091
H89	H	0.095267	0.480487	0.120527
H90	H	0.095269	0.480396	-0.120315
H91	H	0.090647	0.168589	0.120559
Cl92	Cl	0.097473	0.628629	-0.149733
