data_functionalizedCrystal
_audit_creation_method	'MofGen! by Chris Wilmer'
_symmetry_space_group_name_H-M	'P1'
_symmetry_Int_Tables_number	1
_symmetry_cell_setting	triclinic
loop_
_symmetry_equiv_pos_as_xyz
  x,y,z
_cell_length_a	16.109301
_cell_length_b	13.101039
_cell_length_c	16.109301
_cell_angle_alpha	86.640098
_cell_angle_beta	83.461481
_cell_angle_gamma	93.353949
loop_
_atom_site_label
_atom_site_type_symbol
_atom_site_fract_x
_atom_site_fract_y
_atom_site_fract_z
O1	O	1.107703	0.085153	0.102280
O2	O	1.607703	0.585153	0.602280
O3	O	0.865642	0.085169	0.115579
O4	O	1.365642	0.585169	0.615579
O5	O	0.993322	0.085150	-0.012101
O6	O	1.493322	0.585150	0.487899
O7	O	0.980024	0.085172	0.229960
O8	O	1.480024	0.585172	0.729960
O9	O	0.984161	-0.085278	-0.002925
O10	O	1.484161	0.414722	0.497075
O11	O	0.856482	-0.085259	0.124755
O12	O	1.356482	0.414741	0.624755
O13	O	1.098543	-0.085276	0.111456
O14	O	1.598543	0.414724	0.611456
Zn15	Zn	0.976058	-0.112327	0.119563
Zn16	Zn	1.476058	0.387673	0.619563
Zn17	Zn	0.988127	0.112220	0.107473
Zn18	Zn	1.488127	0.612220	0.607473
O19	O	0.970863	-0.085257	0.239136
O20	O	1.470863	0.414743	0.739136
C21	C	0.830087	-0.000043	0.119628
C22	C	1.330087	0.499957	0.619628
C23	C	0.737792	-0.000037	0.118013
C24	C	1.237792	0.499963	0.618013
N25	N	0.967826	-0.265574	0.127813
N26	N	1.467826	0.234426	0.627813
C27	C	0.515520	-0.000042	0.190021
C28	C	1.015520	0.499958	0.690021
C29	C	0.428799	-0.000049	0.188497
C30	C	0.928799	0.499951	0.688497
C31	C	0.448673	-0.000058	0.037009
C32	C	0.948673	0.499942	0.537009
C33	C	0.535391	-0.000059	0.038534
C34	C	1.035391	0.499941	0.538534
C35	C	0.568812	-0.000046	0.115042
C36	C	1.068812	0.499954	0.615042
C37	C	0.395373	-0.000052	0.111993
C38	C	0.895373	0.499948	0.611993
C39	C	0.301347	-0.000059	0.110340
C40	C	0.801347	0.499941	0.610340
C41	C	0.662845	-0.000040	0.116695
C42	C	1.162845	0.499960	0.616695
C43	C	0.956627	-0.474615	0.139046
C44	C	1.456627	0.025385	0.639046
C45	C	1.007562	-0.525498	0.087986
C46	C	1.507562	-0.025498	0.587986
C47	C	1.001330	-0.641816	0.094236
C48	C	1.501330	-0.141816	0.594236
C49	C	0.962858	-0.358287	0.132797
C50	C	1.462858	0.141713	0.632797
C51	C	1.134098	-0.000061	0.107407
C52	C	1.634098	0.499939	0.607407
C53	C	1.226393	-0.000061	0.109022
C54	C	1.726393	0.499939	0.609022
C55	C	0.988203	-0.000065	-0.038488
C56	C	1.488203	0.499935	0.461512
C57	C	0.986588	-0.000066	-0.130783
C58	C	1.486588	0.499934	0.369217
N59	N	0.996365	0.265467	0.099216
N60	N	1.496365	0.765467	0.599216
C61	C	1.058596	-0.000055	-0.353056
C62	C	1.558596	0.499945	0.146944
C63	C	1.057072	-0.000046	-0.439777
C64	C	1.557072	0.499954	0.060223
C65	C	0.905584	-0.000040	-0.419903
C66	C	1.405584	0.499960	0.080097
C67	C	0.907109	-0.000041	-0.333184
C68	C	1.407109	0.499959	0.166816
C69	C	0.983617	-0.000054	-0.299763
C70	C	1.483617	0.499946	0.200237
C71	C	0.980569	-0.000044	-0.473202
C72	C	1.480569	0.499956	0.026798
C73	C	0.978916	-0.000035	-0.567229
C74	C	1.478916	0.499965	-0.067229
C75	C	0.985270	-0.000061	-0.205730
C76	C	1.485270	0.499939	0.294270
C77	C	0.975982	-0.000040	0.265523
C78	C	1.475982	0.499960	0.765523
C79	C	0.977598	-0.000032	0.357818
C80	C	1.477598	0.499968	0.857818
H81	H	0.385410	-0.000048	0.249552
H82	H	0.885410	0.499952	0.749552
C83	C	0.891408	-0.533770	0.204443
C84	C	1.391408	-0.033770	0.704443
H85	H	0.895732	-0.605320	0.200122
H86	H	1.395732	-0.105320	0.700122
H87	H	0.836819	-0.516261	0.194579
H88	H	1.336819	-0.016261	0.694579
H89	H	0.901454	-0.516244	0.258982
H90	H	1.401454	-0.016244	0.758982
H91	H	0.421450	-0.000075	-0.025281
H92	H	0.921450	0.499925	0.474719
H93	H	0.843293	-0.000031	-0.447125
H94	H	1.343293	0.499969	0.052875
H95	H	1.055848	-0.481703	0.039579
H96	H	1.555848	0.018297	0.539579
H97	H	0.542727	-0.000039	0.252319
H98	H	1.042727	0.499961	0.752319
C99	C	0.594018	-0.000058	-0.043947
C100	C	1.094018	0.499942	0.456053
H101	H	0.561695	-0.000051	-0.089732
H102	H	1.061695	0.499949	0.410268
H103	H	0.625069	-0.059490	-0.043303
H104	H	1.125069	0.440510	0.456697
H105	H	0.631450	0.059382	-0.049696
H106	H	1.131450	0.559382	0.450304
H107	H	1.120894	-0.000063	-0.325848
H108	H	1.620894	0.499937	0.174152
C109	C	1.139547	-0.000043	-0.498399
C110	C	1.639547	0.499957	0.001601
H111	H	1.127686	-0.000028	-0.554834
H112	H	1.627686	0.499972	-0.054834
H113	H	1.167729	-0.059476	-0.485079
H114	H	1.667729	0.440524	0.014921
H115	H	1.174107	0.059396	-0.491461
H116	H	1.674107	0.559396	0.008539
H117	H	0.846048	-0.000037	-0.289790
H118	H	1.346048	0.499963	0.210210
