data_functionalizedCrystal
_audit_creation_method	'MofGen! by Chris Wilmer'
_symmetry_space_group_name_H-M	'P1'
_symmetry_Int_Tables_number	1
_symmetry_cell_setting	triclinic
loop_
_symmetry_equiv_pos_as_xyz
  x,y,z
_cell_length_a	15.995350
_cell_length_b	14.472310
_cell_length_c	15.995350
_cell_angle_alpha	90.001162
_cell_angle_beta	96.507625
_cell_angle_gamma	90.009379
loop_
_atom_site_label
_atom_site_type_symbol
_atom_site_fract_x
_atom_site_fract_y
_atom_site_fract_z
O1	O	-1.110997	-0.076758	0.107921
O2	O	-0.867221	-0.076776	0.121248
O3	O	-0.995773	-0.076766	-0.007303
O4	O	-0.982445	-0.076769	0.236472
O5	O	-0.995740	0.076916	-0.007296
O6	O	-0.867188	0.076906	0.121256
O7	O	-1.110963	0.076924	0.107928
Cu8	Cu	-0.989073	0.090947	0.114593
Cu9	Cu	-0.989112	-0.090800	0.114584
O10	O	-0.982412	0.076913	0.236480
C11	C	-0.836010	0.000062	0.120701
C12	C	-0.743060	0.000055	0.119049
C13	C	-0.995205	0.000073	-0.038494
C14	C	-0.993553	0.000068	-0.131444
C15	C	-1.142175	0.000083	0.108476
C16	C	-1.235125	0.000084	0.110127
N17	N	-0.989051	0.218778	0.114598
C18	C	-0.405312	0.000074	0.113117
C19	C	-0.452746	0.000418	0.021565
C20	C	-0.549436	0.000065	0.023217
C21	C	-0.572873	0.000065	0.116060
C22	C	-0.531804	-0.087692	0.161212
C23	C	-0.435169	-0.087759	0.158912
C24	C	-0.434792	0.087007	0.160812
C25	C	-0.531737	0.088160	0.160790
C26	C	-0.667570	0.000057	0.117727
C27	C	-0.310614	0.000076	0.111452
N28	N	-0.989140	-0.218631	0.114572
C29	C	-0.989111	0.592869	0.114581
C30	C	-0.920095	0.553698	0.183135
C31	C	-0.920254	0.446610	0.183385
C32	C	-0.989081	0.407278	0.114590
C33	C	-1.076445	0.446122	0.133671
C34	C	-1.076057	0.553243	0.134159
C35	C	-0.971542	0.553398	0.026741
C36	C	-0.969538	0.446270	0.027327
C37	C	-0.989069	0.302390	0.114593
C38	C	-0.989128	0.697757	0.114579
C39	C	-0.987621	0.000071	-0.469192
C40	C	-0.896069	-0.000281	-0.421758
C41	C	-0.897721	0.000066	-0.325068
C42	C	-0.990564	0.000069	-0.301631
C43	C	-1.035701	0.087831	-0.342705
C44	C	-1.033401	0.087904	-0.439340
C45	C	-1.035330	-0.086861	-0.439707
C46	C	-1.035309	-0.088021	-0.342762
C47	C	-0.992231	0.000071	-0.206934
C48	C	-0.985956	0.000075	-0.563890
C49	C	-0.982980	0.000072	0.267671
C50	C	-0.984631	0.000071	0.360621
H51	H	-0.577852	0.062973	-0.012275
H52	H	-1.102831	-0.087449	-0.471468
H53	H	-0.545930	-0.090955	0.229421
H54	H	-0.854945	0.579481	0.171953
H55	H	-0.416874	-0.153359	0.125979
H56	H	-1.000459	0.153505	-0.457639
H57	H	-0.560193	-0.153002	0.129845
H58	H	-1.129029	0.420643	0.085068
H59	H	-0.855314	0.420349	0.172016
H60	H	-0.434210	0.063352	-0.015027
H61	H	-1.129018	0.579154	0.086196
H62	H	-1.092297	0.419285	0.197002
H63	H	-0.862239	-0.062846	-0.296649
H64	H	-0.433166	-0.062168	-0.014865
H65	H	-0.909219	0.580461	0.008392
H66	H	-0.414242	0.153524	0.130885
H67	H	-0.403031	0.087600	0.228313
H68	H	-0.931159	0.580608	0.247952
H69	H	-0.402921	-0.091741	0.226128
H70	H	-1.004324	0.153137	-0.314320
H71	H	-1.091540	0.578220	0.198219
H72	H	-1.002307	-0.152945	-0.315516
H73	H	-0.559040	0.153082	0.127830
H74	H	-1.005412	-0.153379	-0.460250
H75	H	-0.931473	0.420976	0.248569
H76	H	-0.577308	-0.062951	-0.012521
H77	H	-0.905272	0.420883	0.012845
H78	H	-0.859626	0.062299	-0.441349
H79	H	-0.861973	0.063079	-0.297200
H80	H	-1.103014	-0.093317	-0.327400
H81	H	-1.100617	0.091888	-0.471588
H82	H	-1.021872	0.578728	-0.024275
H83	H	-0.547101	0.093461	0.228494
H84	H	-0.859490	-0.063217	-0.440293
H85	H	-1.103909	0.091097	-0.328579
H86	H	-1.016541	0.419500	-0.026079
