data_functionalizedCrystal
_audit_creation_method	'MofGen! by Chris Wilmer'
_symmetry_space_group_name_H-M	'P1'
_symmetry_Int_Tables_number	1
_symmetry_cell_setting	triclinic
loop_
_symmetry_equiv_pos_as_xyz
  x,y,z
_cell_length_a	9.065215
_cell_length_b	15.944551
_cell_length_c	7.540329
_cell_angle_alpha	89.995457
_cell_angle_beta	89.997574
_cell_angle_gamma	84.256718
loop_
_atom_site_label
_atom_site_type_symbol
_atom_site_fract_x
_atom_site_fract_y
_atom_site_fract_z
O1	O	1.957522	0.123149	-0.147466
O2	O	1.528001	0.133254	-0.147475
O3	O	1.754491	0.006015	-0.147454
O4	O	1.731032	0.250388	-0.147487
O5	O	1.754477	0.006014	0.147511
O6	O	1.527987	0.133252	0.147490
O7	O	1.957509	0.123147	0.147499
Cu8	Cu	1.742747	0.128200	0.174427
Cu9	Cu	1.742763	0.128202	-0.174403
O10	O	1.731019	0.250386	0.147478
C11	C	1.473030	0.132282	0.000007
C12	C	1.309255	0.129380	0.000004
C13	C	1.753510	-0.025287	0.000028
C14	C	1.750591	-0.118555	0.000029
C15	C	1.603223	-0.334527	0.000002
C16	C	1.671649	-0.395027	0.145439
C17	C	1.745309	-0.289321	0.000016
C18	C	1.671696	-0.395009	-0.145373
C19	C	1.740196	-0.454272	-0.000005
C20	C	1.813774	-0.348592	0.145573
C21	C	1.813801	-0.348568	-0.145370
C22	C	1.882330	-0.409049	0.000102
C23	C	1.748250	-0.194296	0.000029
C24	C	1.737266	-0.549295	-0.000006
C25	C	2.012480	0.124119	0.000013
C26	C	2.176255	0.127021	0.000004
C27	C	1.731999	0.281688	-0.000008
C28	C	1.734919	0.374956	-0.000021
N29	N	1.742746	0.128198	0.419776
N30	N	1.742775	0.128197	-0.419752
H31	H	1.611547	-0.415591	0.268392
C32	C	1.894929	-0.320749	-0.311473
C33	C	1.913705	-0.226842	-0.340999
C34	C	1.994821	-0.199021	-0.507118
C35	C	2.057159	-0.265105	-0.643712
C36	C	2.038384	-0.359018	-0.614190
C37	C	1.957269	-0.386840	-0.448071
H38	H	1.867557	-0.177917	-0.239880
H39	H	2.008719	-0.129500	-0.528971
H40	H	2.117205	-0.244510	-0.766683
H41	H	2.084532	-0.407943	-0.715309
H42	H	1.943371	-0.456360	-0.426218
H43	H	2.000371	-0.441314	0.000186
C44	C	1.590494	-0.422761	-0.311477
C45	C	1.427141	-0.389785	-0.343386
C46	C	1.345928	-0.417533	-0.509479
C47	C	1.428068	-0.478256	-0.643662
C48	C	1.591431	-0.511235	-0.611756
C49	C	1.672644	-0.483487	-0.445664
H50	H	1.366327	-0.344831	-0.244053
H51	H	1.224995	-0.393120	-0.533097
H52	H	1.367950	-0.498797	-0.766614
H53	H	1.652245	-0.556189	-0.711090
H54	H	1.793576	-0.507901	-0.422046
H55	H	1.873814	-0.328148	0.268663
C56	C	1.443903	-0.290729	0.000184
C57	C	1.311077	-0.343846	0.001915
C58	C	1.151763	-0.300047	0.002107
C59	C	1.125275	-0.203132	0.000569
C60	C	1.258106	-0.150010	-0.001162
C61	C	1.417420	-0.193808	-0.001354
H62	H	1.330681	-0.415593	0.003053
H63	H	1.053434	-0.339372	0.003388
H64	H	1.007342	-0.170709	0.000711
H65	H	1.238502	-0.078262	-0.002300
H66	H	1.515749	-0.154484	-0.002635
