data_functionalizedCrystal
_audit_creation_method	'MofGen! by Chris Wilmer'
_symmetry_space_group_name_H-M	'P1'
_symmetry_Int_Tables_number	1
_symmetry_cell_setting	triclinic
loop_
_symmetry_equiv_pos_as_xyz
  x,y,z
_cell_length_a	27.732048
_cell_length_b	27.732064
_cell_length_c	10.868271
_cell_angle_alpha	89.998962
_cell_angle_beta	90.001179
_cell_angle_gamma	82.646039
loop_
_atom_site_label
_atom_site_type_symbol
_atom_site_fract_x
_atom_site_fract_y
_atom_site_fract_z
O1	O	0.640930	0.057517	-0.102154
O2	O	1.140930	0.557517	0.397846
O3	O	0.500137	0.066262	-0.102189
O4	O	1.000137	0.566262	0.397811
O5	O	0.574902	-0.008507	-0.102175
O6	O	1.074902	0.491493	0.397825
O7	O	0.566165	0.132286	-0.102168
O8	O	1.066165	0.632286	0.397832
O9	O	0.574896	-0.008509	0.102470
O10	O	1.074896	0.491491	0.602470
O11	O	0.500131	0.066259	0.102455
O12	O	1.000131	0.566259	0.602455
O13	O	0.640924	0.057514	0.102491
O14	O	1.140924	0.557514	0.602491
Zn15	Zn	0.570527	0.061886	0.134965
Zn16	Zn	1.070527	0.561886	0.634965
Zn17	Zn	0.570535	0.061890	-0.134663
Zn18	Zn	1.070535	0.561890	0.365337
O19	O	0.566159	0.132283	0.102477
O20	O	1.066159	0.632283	0.602477
C21	C	0.482127	0.066077	0.000128
C22	C	0.982127	0.566077	0.500128
C23	C	0.428473	0.065524	0.000114
C24	C	0.928473	0.565524	0.500114
C25	C	0.089660	0.106228	0.000170
C26	C	0.589660	0.606228	0.500170
C27	C	-0.112000	0.104177	0.000181
C28	C	0.388000	0.604177	0.500181
O29	O	-0.143253	0.141397	0.000236
O30	O	0.356747	0.641397	0.500236
N31	N	-0.131126	0.059842	0.000176
N32	N	0.368874	0.559842	0.500176
C33	C	-0.099834	0.016017	0.000177
C34	C	0.400166	0.516017	0.500177
O35	O	-0.120729	-0.021740	0.000186
O36	O	0.379271	0.478260	0.500186
C37	C	0.101825	0.018068	0.000175
C38	C	0.601825	0.518068	0.500175
C39	C	0.120948	0.062406	0.000167
C40	C	0.620948	0.562406	0.500167
C41	C	0.108784	0.150562	0.000163
C42	C	0.608784	0.650562	0.500163
C43	C	0.159196	0.151074	0.000154
C44	C	0.659196	0.651074	0.500154
C45	C	0.190484	0.107252	0.000151
C46	C	0.690484	0.607252	0.500151
C47	C	0.171360	0.062918	0.000157
C48	C	0.671360	0.562918	0.500157
C49	C	0.133116	-0.025756	0.000184
C50	C	0.633116	0.474244	0.500184
C51	C	0.183533	-0.025240	0.000187
C52	C	0.683533	0.474760	0.500187
C53	C	0.202656	0.019098	0.000179
C54	C	0.702656	0.519098	0.500179
C55	C	0.253060	0.019609	0.000145
C56	C	0.753060	0.519609	0.500145
N57	N	0.272186	0.063944	0.000150
N58	N	0.772186	0.563944	0.500150
C59	C	0.240898	0.107765	0.000152
C60	C	0.740898	0.607765	0.500152
C61	C	-0.205708	0.014943	0.000176
C62	C	0.294292	0.514943	0.500176
C63	C	-0.256123	0.014430	0.000174
C64	C	0.243877	0.514430	0.500174
C65	C	-0.268285	0.102590	0.000180
C66	C	0.231715	0.602590	0.500180
C67	C	-0.217870	0.103103	0.000173
C68	C	0.282130	0.603103	0.500173
C69	C	-0.186582	0.059278	0.000180
C70	C	0.313418	0.559278	0.500180
C71	C	0.346768	0.108838	0.000132
C72	C	0.846768	0.608838	0.500132
C73	C	0.397185	0.109346	0.000117
C74	C	0.897185	0.609346	0.500117
C75	C	0.409342	0.021186	0.000118
C76	C	0.909342	0.521186	0.500118
C77	C	0.358930	0.020678	0.000126
C78	C	0.858930	0.520678	0.500126
C79	C	0.327643	0.064507	0.000137
C80	C	0.827643	0.564507	0.500137
O81	O	0.284342	-0.017592	0.000104
O82	O	0.784342	0.482408	0.500104
O83	O	0.261803	0.145516	0.000171
O84	O	0.761803	0.645516	0.500171
C85	C	0.039248	0.105716	0.000179
C86	C	0.539248	0.605716	0.500179
C87	C	0.020124	0.061381	0.000186
C88	C	0.520124	0.561381	0.500186
C89	C	0.051412	0.017560	0.000183
C90	C	0.551412	0.517560	0.500183
C91	C	-0.030290	0.060868	0.000184
C92	C	0.469710	0.560868	0.500184
C93	C	-0.061578	0.104690	0.000187
C94	C	0.438422	0.604690	0.500187
C95	C	-0.042452	0.149025	0.000191
C96	C	0.457548	0.649025	0.500191
C97	C	0.007960	0.149537	0.000182
C98	C	0.507960	0.649537	0.500182
C99	C	0.032286	-0.026775	0.000178
C100	C	0.532286	0.473225	0.500178
C101	C	-0.018127	-0.027284	0.000186
C102	C	0.481873	0.472716	0.500186
C103	C	-0.049415	0.016538	0.000189
C104	C	0.450585	0.516538	0.500189
C105	C	0.574715	-0.026515	0.000143
C106	C	1.074715	0.473485	0.500143
C107	C	0.574159	-0.080169	0.000132
C108	C	1.074159	0.419831	0.500132
C109	C	0.526192	-0.457242	0.000115
C110	C	1.026192	0.042758	0.500115
C111	C	0.528238	-0.255582	0.000114
C112	C	1.028238	0.244418	0.500114
O113	O	0.491017	-0.224329	0.000055
O114	O	0.991017	0.275671	0.500055
N115	N	0.572572	-0.236454	0.000125
N116	N	1.072572	0.263546	0.500125
C117	C	0.616398	-0.267745	0.000128
C118	C	1.116398	0.232255	0.500128
O119	O	0.654154	-0.246849	0.000125
O120	O	1.154154	0.253151	0.500125
C121	C	0.614351	-0.469405	0.000120
C122	C	1.114351	0.030595	0.500120
C123	C	0.570014	-0.488529	0.000122
C124	C	1.070014	0.011471	0.500122
C125	C	0.481858	-0.476367	0.000115
C126	C	0.981858	0.023633	0.500115
C127	C	0.481347	-0.526779	0.000122
C128	C	0.981347	-0.026779	0.500122
C129	C	0.525169	-0.558066	0.000129
C130	C	1.025169	-0.058066	0.500129
C131	C	0.569503	-0.538941	0.000129
C132	C	1.069503	-0.038941	0.500129
C133	C	0.658177	-0.500695	0.000115
C134	C	1.158177	-0.000695	0.500115
C135	C	0.657661	-0.551112	0.000110
C136	C	1.157661	-0.051112	0.500110
C137	C	0.613324	-0.570237	0.000111
C138	C	1.113324	-0.070237	0.500111
C139	C	0.612814	-0.620640	0.000143
C140	C	1.112814	-0.120640	0.500143
N141	N	0.568480	-0.639768	0.000131
N142	N	1.068480	-0.139768	0.500131
C143	C	0.524658	-0.608481	0.000125
C144	C	1.024658	-0.108481	0.500125
C145	C	0.617469	-0.161871	0.000134
C146	C	1.117469	0.338129	0.500134
C147	C	0.617981	-0.111456	0.000139
C148	C	1.117981	0.388544	0.500139
C149	C	0.529821	-0.099296	0.000122
C150	C	1.029821	0.400704	0.500122
C151	C	0.529310	-0.149712	0.000127
C152	C	1.029310	0.350288	0.500127
C153	C	0.573135	-0.180998	0.000123
C154	C	1.073135	0.319002	0.500123
C155	C	0.523588	-0.714350	0.000140
C156	C	1.023588	-0.214350	0.500140
C157	C	0.523080	-0.764767	0.000152
C158	C	1.023080	-0.264767	0.500152
C159	C	0.611241	-0.776923	0.000163
C160	C	1.111241	-0.276923	0.500163
C161	C	0.611748	-0.726511	0.000157
C162	C	1.111748	-0.226511	0.500157
C163	C	0.567918	-0.695225	0.000142
C164	C	1.067918	-0.195225	0.500142
O165	O	0.650016	-0.651921	0.000187
O166	O	1.150016	-0.151921	0.500187
O167	O	0.486907	-0.629387	0.000101
O168	O	0.986907	-0.129387	0.500101
C169	C	0.526703	-0.406830	0.000108
C170	C	1.026703	0.093170	0.500108
C171	C	0.571036	-0.387705	0.000108
C172	C	1.071036	0.112295	0.500108
C173	C	0.614859	-0.418992	0.000115
C174	C	1.114859	0.081008	0.500115
C175	C	0.571548	-0.337290	0.000112
C176	C	1.071548	0.162710	0.500112
C177	C	0.527726	-0.306003	0.000105
C178	C	1.027726	0.193997	0.500105
C179	C	0.483391	-0.325131	0.000094
C180	C	0.983391	0.174869	0.500094
C181	C	0.482880	-0.375543	0.000101
C182	C	0.982880	0.124457	0.500101
C183	C	0.659193	-0.399865	0.000126
C184	C	1.159193	0.100135	0.500126
C185	C	0.659701	-0.349452	0.000120
C186	C	1.159701	0.150548	0.500120
C187	C	0.615878	-0.318165	0.000113
C188	C	1.115878	0.181835	0.500113
C189	C	0.658934	0.057699	0.000171
C190	C	1.158934	0.557699	0.500171
C191	C	0.712589	0.058252	0.000177
C192	C	1.212589	0.558252	0.500177
C193	C	0.566347	0.150291	0.000156
C194	C	1.066347	0.650291	0.500156
C195	C	0.566903	0.203945	0.000159
C196	C	1.066903	0.703945	0.500159
N197	N	0.570525	0.061883	0.318979
N198	N	1.070525	0.561883	0.818979
N199	N	0.570541	0.061889	-0.318677
N200	N	1.070541	0.561889	0.181323
C201	C	0.570532	0.061889	0.569985
C202	C	1.070532	0.561889	1.069985
C203	C	0.570527	0.061887	0.430308
C204	C	1.070527	0.561887	0.930308
H205	H	0.057756	-0.062461	0.000179
H206	H	0.557756	0.437539	0.500179
H207	H	0.446171	-0.450897	0.000105
H208	H	0.946171	0.049103	0.500105
H209	H	0.486974	-0.780335	0.000159
H210	H	0.986974	-0.280335	0.500159
H211	H	0.493206	-0.165279	0.000133
H212	H	0.993206	0.334721	0.500133
O213	O	0.340294	-0.022361	0.000288
O214	O	0.840294	0.477639	0.500288
C215	C	0.311515	-0.025303	0.106303
C216	C	0.811515	0.474697	0.606303
H217	H	0.298681	0.012890	0.141640
H218	H	0.798681	0.512890	0.641640
H219	H	0.278638	-0.044323	0.082482
H220	H	0.778638	0.455677	0.582482
H221	H	0.333953	-0.046857	0.180512
H222	H	0.833953	0.453143	0.680512
H223	H	0.695808	-0.333886	0.000129
H224	H	1.195808	0.166114	0.500129
O225	O	0.439768	-0.394036	0.000039
O226	O	0.939768	0.105964	0.500039
C227	C	0.401205	-0.355603	0.000062
C228	C	0.901205	0.144397	0.500062
H229	H	0.414499	-0.321451	-0.038678
H230	H	0.914499	0.178549	0.461322
H231	H	0.370227	-0.365910	-0.059359
H232	H	0.870227	0.134090	0.440641
H233	H	0.387704	-0.348370	0.098237
H234	H	0.887704	0.151630	0.598237
O235	O	0.480967	-0.684033	0.000184
O236	O	0.980967	-0.184033	0.500184
C237	C	0.441733	-0.711733	0.000155
C238	C	0.941733	-0.211733	0.500155
H239	H	0.454297	-0.749451	0.038901
H240	H	0.954297	-0.249451	0.538901
H241	H	0.411049	-0.692918	0.059567
H242	H	0.911049	-0.192918	0.559567
H243	H	0.428125	-0.715227	-0.098024
H244	H	0.928125	-0.215227	0.401976
O245	O	0.661008	-0.092801	0.000203
O246	O	1.161008	0.407199	0.500203
C247	C	0.652069	-0.041595	0.000171
C248	C	1.152069	0.458405	0.500171
H249	H	0.614258	-0.029478	0.038913
H250	H	1.114258	0.470522	0.538913
H251	H	0.680418	-0.026322	0.059585
H252	H	1.180418	0.473678	0.559585
H253	H	0.654305	-0.027576	-0.098008
H254	H	1.154305	0.472424	0.401992
O255	O	0.487295	-0.068831	0.000052
O256	O	0.987295	0.431169	0.500052
C257	C	0.497260	-0.020234	0.000084
C258	C	0.997260	0.479766	0.500084
H259	H	0.535217	-0.018582	-0.038636
H260	H	1.035217	0.481418	0.461364
H261	H	0.469312	0.002813	-0.059349
H262	H	0.969312	0.502813	0.440651
H263	H	0.495310	-0.005638	0.098260
H264	H	0.995310	0.494362	0.598260
O265	O	0.440834	-0.294713	-0.000134
O266	O	0.940834	0.205287	0.499866
C267	C	0.438508	-0.265182	-0.106111
C268	C	0.938508	0.234818	0.393889
H269	H	0.463368	-0.283831	-0.180179
H270	H	0.963368	0.216169	0.319821
H271	H	0.399529	-0.259225	-0.141700
H272	H	0.899529	0.240775	0.358300
H273	H	0.450743	-0.228610	-0.082150
H274	H	0.950743	0.271390	0.417850
O275	O	0.653821	-0.807300	0.000381
O276	O	1.153821	-0.307300	0.500381
C277	C	0.680773	-0.798678	0.106347
C278	C	1.180773	-0.298678	0.606347
H279	H	0.655128	-0.781260	0.180434
H280	H	1.155128	-0.281260	0.680434
H281	H	0.700429	-0.834594	0.141915
H282	H	1.200429	-0.334594	0.641915
H283	H	0.708557	-0.773209	0.082381
H284	H	1.208557	-0.273209	0.582381
H285	H	0.321299	0.144528	0.000145
H286	H	0.821299	0.644528	0.500145
H287	H	-0.271688	-0.021674	0.000161
H288	H	0.228312	0.478326	0.500161
H289	H	-0.067936	0.184706	0.000189
H290	H	0.432064	0.684706	0.500189
O291	O	0.439721	-0.021392	-0.000103
O292	O	0.939721	0.478608	0.499897
C293	C	0.431098	-0.048343	-0.106069
C294	C	0.931098	0.451657	0.393931
H295	H	0.413675	-0.022697	-0.180153
H296	H	0.913675	0.477303	0.319847
H297	H	0.467013	-0.067995	-0.141644
H298	H	0.967013	0.432005	0.358356
H299	H	0.405633	-0.076130	-0.082100
H300	H	0.905633	0.423870	0.417900
H301	H	0.083313	0.186249	0.000170
H302	H	0.583313	0.686249	0.500170
O303	O	-0.036619	-0.070400	0.000247
O304	O	0.463381	0.429600	0.500247
C305	C	0.001813	-0.108964	0.000214
C306	C	0.501813	0.391036	0.500214
H307	H	0.035967	-0.095671	0.038942
H308	H	0.535967	0.404329	0.538942
H309	H	-0.008492	-0.139941	0.059640
H310	H	0.491508	0.360059	0.559640
H311	H	0.009041	-0.122466	-0.097963
H312	H	0.509041	0.377534	0.402037
H313	H	0.209006	-0.060928	0.000194
H314	H	0.709006	0.439072	0.500194
H315	H	0.694879	-0.425334	0.000130
H316	H	1.194879	0.074666	0.500130
H317	H	-0.293769	0.138272	0.000182
H318	H	0.206231	0.638272	0.500182
O319	O	0.660089	-0.192191	0.000197
O320	O	1.160089	0.307809	0.500197
C321	C	0.699324	-0.164491	0.000180
C322	C	1.199324	0.335509	0.500180
H323	H	0.686758	-0.126773	0.038920
H324	H	1.186758	0.373227	0.538920
H325	H	0.730005	-0.183306	0.059605
H326	H	1.230005	0.316694	0.559605
H327	H	0.712935	-0.160997	-0.097993
H328	H	1.212935	0.339003	0.402007
H329	H	0.445243	-0.542345	0.000112
H330	H	0.945243	-0.042345	0.500112
H331	H	0.023525	0.185642	0.000177
H332	H	0.523525	0.685642	0.500177
H333	H	0.694281	-0.485133	0.000113
H334	H	1.194281	0.014867	0.500113
O335	O	-0.199376	0.146214	0.000228
O336	O	0.300624	0.646214	0.500228
C337	C	-0.237808	0.184779	0.000193
C338	C	0.262192	0.684779	0.500193
H339	H	-0.271960	0.171487	0.038932
H340	H	0.228040	0.671487	0.538932
H341	H	-0.227500	0.215757	0.059609
H342	H	0.272500	0.715757	0.559609
H343	H	-0.245040	0.198278	-0.097986
H344	H	0.254960	0.698278	0.402014
H345	H	0.412752	0.145453	0.000110
H346	H	0.912752	0.645453	0.500110
O347	O	0.700266	-0.581455	-0.000055
O348	O	1.200266	-0.081455	0.499945
C349	C	0.727200	-0.572842	-0.106058
C350	C	1.227200	-0.072842	0.393942
H351	H	0.715035	-0.534510	-0.141398
H352	H	1.215035	-0.034510	0.358602
H353	H	0.767542	-0.576678	-0.082221
H354	H	1.267542	-0.076678	0.417779
H355	H	0.720803	-0.600375	-0.180272
H356	H	1.220803	-0.100375	0.319728
O357	O	0.177688	0.194187	0.000215
O358	O	0.677688	0.694187	0.500215
C359	C	0.139254	0.232750	0.000193
C360	C	0.639254	0.732750	0.500193
H361	H	0.105103	0.219453	0.038930
H362	H	0.605103	0.719453	0.538930
H363	H	0.149561	0.263726	0.059617
H364	H	0.649561	0.763726	0.559617
H365	H	0.132019	0.246253	-0.097982
H366	H	0.632019	0.746253	0.402018
H367	H	-0.180238	-0.020747	0.000182
H368	H	0.319762	0.479253	0.500182
H369	H	0.117555	-0.061861	0.000192
H370	H	0.617555	0.438139	0.500192
H371	H	0.647851	-0.710939	0.000173
H372	H	1.147851	-0.210939	0.500173
