data_functionalizedCrystal
_audit_creation_method	'MofGen! by Chris Wilmer'
_symmetry_space_group_name_H-M	'P1'
_symmetry_Int_Tables_number	1
_symmetry_cell_setting	triclinic
loop_
_symmetry_equiv_pos_as_xyz
  x,y,z
_cell_length_a	12.759401
_cell_length_b	19.077068
_cell_length_c	12.759393
_cell_angle_alpha	87.737818
_cell_angle_beta	90.018364
_cell_angle_gamma	92.327081
loop_
_atom_site_label
_atom_site_type_symbol
_atom_site_fract_x
_atom_site_fract_y
_atom_site_fract_z
Zn1	Zn	1.589360	-0.280162	0.610734
Zn2	Zn	1.582156	-0.397876	0.442092
Zn3	Zn	1.413660	-0.280197	0.435075
Zn4	Zn	1.406555	-0.397824	0.617731
O5	O	1.497933	-0.339015	0.526408
O6	O	1.735425	-0.295785	0.588371
O7	O	1.559763	-0.382302	0.294143
O8	O	1.442955	-0.181702	0.452511
O9	O	1.730132	-0.382268	0.464471
O10	O	1.572041	-0.181676	0.581567
O11	O	1.435970	-0.295844	0.288987
O12	O	1.265697	-0.295793	0.459296
O13	O	1.430846	-0.382179	0.763821
O14	O	1.260477	-0.382213	0.593493
O15	O	1.565151	-0.295734	0.758681
O16	O	1.552874	-0.496360	0.471256
O17	O	1.423861	-0.496322	0.600297
C18	C	1.224966	-0.339002	0.526393
C19	C	1.108189	-0.339013	0.526412
C20	C	1.050632	-0.384084	0.596182
C21	C	0.940907	-0.384093	0.596194
C22	C	0.946306	-0.293958	0.456658
C23	C	1.056029	-0.293947	0.456652
C24	C	1.047514	-0.436125	0.676738
C25	C	0.937789	-0.436134	0.676750
C26	C	1.486843	-0.521878	0.537320
C27	C	1.482195	-0.600108	0.542024
C28	C	1.547234	-0.636857	0.477105
C29	C	1.542868	-0.710362	0.481535
C30	C	1.473458	-0.747117	0.550879
C31	C	1.408417	-0.710363	0.615805
C32	C	1.412788	-0.636859	0.611380
C33	C	1.453180	-0.966950	0.571318
C34	C	1.448811	-1.040459	0.575737
C35	C	1.583265	-1.040453	0.441467
C36	C	1.587626	-0.966948	0.437043
C37	C	1.522589	-0.930200	0.501973
N38	N	1.468992	-0.822251	0.555407
N39	N	1.527061	-0.855068	0.497450
C40	C	1.771965	-0.339028	0.526424
C41	C	1.888741	-0.339034	0.526430
C42	C	1.498010	-0.338947	0.800437
C43	C	1.498042	-0.338918	0.917212
C44	C	1.509094	-0.155438	0.515476
C45	C	1.513850	-0.077208	0.510817
C46	C	1.497919	-0.339032	0.253442
C47	C	1.498102	-0.338863	0.136655
C48	C	1.568010	-0.293868	1.079122
C49	C	1.567983	-0.293897	0.969400
C50	C	1.428131	-0.383918	0.974754
C51	C	1.428164	-0.383891	1.084474
C52	C	1.648749	-0.241893	1.076030
C53	C	1.648723	-0.241922	0.966307
H54	H	1.078198	-0.421589	0.757276
H55	H	0.904964	-0.416678	0.752939
C56	C	1.613527	-0.750134	0.410923
C57	C	1.675223	-0.702214	0.349223
C58	C	1.740319	-0.738826	0.284151
H59	H	1.657677	-0.778763	0.452755
H60	H	1.571675	-0.778841	0.366787
H61	H	1.717071	-0.673519	0.393354
H62	H	1.631100	-0.673584	0.307369
H63	H	1.698468	-0.767532	0.240015
H64	H	1.784463	-0.767453	0.325992
H65	H	1.782181	-0.706318	0.242273
H66	H	1.102888	-0.257241	0.399846
C67	C	1.624276	-0.169228	0.922203
C68	C	1.708118	-0.142709	0.859738
C69	C	1.685641	-0.075745	0.819105
H70	H	1.562386	-0.172116	0.880941
H71	H	1.614063	-0.138898	0.978281
H72	H	1.718319	-0.173032	0.803667
H73	H	1.770018	-0.139805	0.900976
H74	H	1.675428	-0.045415	0.875183
H75	H	1.623749	-0.078639	0.777848
H76	H	1.742527	-0.057741	0.776726
H77	H	0.903824	-0.257266	0.399862
H78	H	1.078407	-0.487876	0.650548
C79	C	1.333025	-0.750138	0.691205
C80	C	1.277024	-0.702220	0.747133
C81	C	1.207571	-0.738833	0.816610
H82	H	1.285467	-0.778861	0.652824
H83	H	1.371467	-0.778750	0.738794
H84	H	1.238584	-0.673620	0.699550
H85	H	1.324554	-0.673495	0.785535
H86	H	1.246013	-0.767445	0.864199
H87	H	1.160020	-0.767555	0.778221
H88	H	1.169573	-0.706326	0.854572
C89	C	1.342352	-0.596918	0.681991
C90	C	1.404324	-0.554666	0.746853
C91	C	1.339478	-0.517870	0.811928
H92	H	1.298283	-0.568231	0.640159
H93	H	1.300404	-0.629310	0.723985
H94	H	1.446253	-0.522278	0.704863
H95	H	1.448391	-0.583335	0.788707
H96	H	1.297531	-0.550262	0.853922
H97	H	1.295412	-0.489187	0.770088
H98	H	1.381516	-0.489203	0.855951
H99	H	1.371191	-0.420579	0.932254
C100	C	1.373480	-1.080493	0.650924
C101	C	1.383551	-1.152729	0.640873
C102	C	1.314165	-1.189630	0.710100
H103	H	1.389466	-1.068491	0.720850
H104	H	1.303586	-1.068533	0.634759
H105	H	1.453430	-1.164684	0.657045
H106	H	1.367557	-1.164752	0.570962
H107	H	1.244271	-1.177670	0.693936
H108	H	1.330157	-1.177622	0.780022
H109	H	1.320982	-1.238646	0.703284
H110	H	0.904707	-0.490630	0.658077
H111	H	1.603750	-0.606936	0.420632
C112	C	1.663105	-0.927172	0.361731
C113	C	1.719154	-0.975089	0.305847
C114	C	1.788704	-0.938473	0.236470
H115	H	1.624766	-0.898540	0.314101
H116	H	1.710620	-0.898469	0.400217
H117	H	1.671645	-1.003780	0.267363
H118	H	1.757514	-1.003722	0.353449
H119	H	1.836220	-0.909769	0.274956
H120	H	1.750357	-0.909842	0.188847
H121	H	1.826748	-0.970978	0.198551
H122	H	1.636217	-1.070381	0.388606
C123	C	1.756008	-0.261325	1.117111
C124	C	1.755764	-0.261235	1.226838
C125	C	1.854549	-0.279130	1.264719
H126	H	1.771498	-0.306760	1.095112
H127	H	1.807697	-0.228079	1.090385
H128	H	1.704092	-0.294480	1.253554
H129	H	1.740293	-0.215806	1.248866
H130	H	1.906237	-0.245884	1.237993
H131	H	1.870031	-0.324564	1.242712
H132	H	1.854399	-0.279065	1.339171
H133	H	1.622756	-0.190106	1.106978
C134	C	1.382429	-0.927185	0.641841
C135	C	1.320682	-0.975109	0.703486
C136	C	1.255475	-0.938501	0.768451
H137	H	1.424172	-0.898459	0.686024
H138	H	1.338322	-0.898577	0.599904
H139	H	1.364784	-1.003705	0.745420
H140	H	1.278918	-1.003836	0.659331
H141	H	1.211368	-0.909892	0.726514
H142	H	1.297226	-0.909776	0.812627
H143	H	1.213565	-0.971011	0.810278
C144	C	1.352154	-0.432775	1.146753
C145	C	1.290882	-0.472199	1.077566
C146	C	1.220839	-0.517233	1.134899
H147	H	1.390376	-0.463492	1.191389
H148	H	1.307964	-0.405858	1.187929
H149	H	1.335067	-0.499113	1.036408
H150	H	1.252638	-0.441500	1.032929
H151	H	1.176649	-0.490316	1.176075
H152	H	1.259070	-0.547946	1.179533
H153	H	1.179252	-0.543983	1.087964
C154	C	1.750087	-0.268097	0.922428
C155	C	1.727768	-0.327608	0.864292
C156	C	1.821114	-0.351747	0.823867
H157	H	1.782737	-0.232341	0.878323
H158	H	1.795894	-0.279870	0.978555
H159	H	1.681978	-0.315832	0.808173
H160	H	1.695131	-0.363378	0.908374
H161	H	1.866921	-0.363520	0.879993
H162	H	1.853758	-0.315986	0.779767
H163	H	1.805985	-0.392131	0.784425
