data_functionalizedCrystal
_audit_creation_method	'MofGen! by Chris Wilmer'
_symmetry_space_group_name_H-M	'P1'
_symmetry_Int_Tables_number	1
_symmetry_cell_setting	triclinic
loop_
_symmetry_equiv_pos_as_xyz
  x,y,z
_cell_length_a	10.540539
_cell_length_b	14.853567
_cell_length_c	13.930277
_cell_angle_alpha	90.004245
_cell_angle_beta	89.997612
_cell_angle_gamma	95.919789
loop_
_atom_site_label
_atom_site_type_symbol
_atom_site_fract_x
_atom_site_fract_y
_atom_site_fract_z
O1	O	0.165727	-1.197288	-0.079760
O2	O	0.185470	-0.934938	-0.079776
O3	O	-0.009174	-1.072098	-0.079766
O4	O	0.360371	-1.060128	-0.079770
O5	O	-0.009178	-1.072079	0.079895
O6	O	0.185465	-0.934919	0.079886
O7	O	0.165723	-1.197269	0.079902
Zn8	Zn	0.175594	-1.066091	0.105244
Zn9	Zn	0.175599	-1.066116	-0.105118
O10	O	0.360367	-1.060108	0.079892
C11	C	0.184573	-0.901335	0.000053
C12	C	0.181892	-0.801236	0.000047
C13	C	-0.056469	-1.071191	0.000063
C14	C	-0.197388	-1.068505	0.000057
C15	C	0.166620	-1.230872	0.000071
C16	C	0.169300	-1.330971	0.000071
C17	C	-0.379682	-0.965588	-0.000307
C18	C	-0.233094	-0.968311	0.000052
C19	C	-0.259578	-1.116712	0.091235
C20	C	-0.406085	-1.113293	0.091312
C21	C	-0.406621	-1.115353	-0.090254
C22	C	-0.259649	-1.116276	-0.091459
C23	C	0.407662	-1.061016	0.000061
C24	C	0.548580	-1.063702	0.000060
N25	N	0.175589	-1.066080	0.248810
C26	C	0.054938	-0.387998	0.000069
C27	C	0.286179	-0.368000	0.000066
C28	C	0.288700	-0.462048	0.000063
C29	C	0.174338	-0.519075	0.000062
C30	C	0.057455	-0.482055	0.000063
C31	C	0.405580	-0.499075	0.000052
C32	C	0.408105	-0.593129	0.000048
C33	C	0.293742	-0.650158	0.000053
C34	C	0.176855	-0.613132	0.000056
C35	C	0.062493	-0.670159	0.000054
C36	C	-0.054396	-0.633135	0.000064
C37	C	-0.056908	-0.539084	0.000069
C38	C	0.296254	-0.744209	0.000048
C39	C	0.065010	-0.764216	0.000048
N40	N	0.175594	-1.066134	-0.248684
C41	C	0.261753	-1.005379	0.701075
C42	C	0.089435	-1.126878	0.701053
C43	C	0.089431	-1.126867	0.600557
C44	C	0.175591	-1.066112	0.550315
C45	C	0.261755	-1.005368	0.600570
C46	C	0.003277	-1.187617	0.550295
C47	C	0.003271	-1.187609	0.449793
C48	C	0.089426	-1.126849	0.399550
C49	C	0.175592	-1.066102	0.449810
C50	C	0.261752	-1.005347	0.399569
C51	C	0.347913	-0.944594	0.449828
C52	C	0.347909	-0.944608	0.550327
C53	C	0.089429	-1.126835	0.299051
C54	C	0.261753	-1.005336	0.299064
H55	H	-0.407845	-0.926017	-0.065692
C56	C	0.402785	-0.879503	0.000034
C57	C	0.424724	-0.784908	0.000036
H58	H	0.482103	-0.904625	0.000022
H59	H	0.355705	-0.899015	0.055711
H60	H	0.355686	-0.899019	-0.055645
H61	H	0.471815	-0.765391	0.055719
H62	H	0.471824	-0.765387	-0.055646
C63	C	0.634406	-0.488748	0.000025
C64	C	0.531281	-0.436393	0.000043
H65	H	0.712010	-0.450046	0.000012
H66	H	0.630590	-0.525844	0.055697
H67	H	0.630564	-0.525852	-0.055659
H68	H	0.535118	-0.399294	0.055730
H69	H	0.535099	-0.399282	-0.055635
H70	H	0.331901	-0.955913	0.741998
H71	H	-0.190072	-0.930378	-0.065308
C72	C	-0.250729	-0.679155	0.082135
C73	C	-0.180104	-0.695822	0.000057
H74	H	-0.328336	-0.717854	0.082125
H75	H	-0.202811	-0.690466	0.137799
H76	H	-0.268954	-0.617842	0.082136
H77	H	-0.161871	-0.757134	0.000060
H78	H	-0.228032	-0.684518	-0.055621
C79	C	-0.163437	-0.403790	0.000065
C80	C	-0.185383	-0.498385	0.000068
H81	H	-0.242752	-0.378664	0.000056
H82	H	-0.116356	-0.384272	0.055740
H83	H	-0.116336	-0.384283	-0.055616
H84	H	-0.232476	-0.517892	0.055753
H85	H	-0.232484	-0.517911	-0.055612
H86	H	0.418070	-0.895131	0.408910
C87	C	-0.083258	-1.145333	0.814077
C88	C	-0.005269	-1.193653	0.756280
H89	H	-0.141732	-1.186559	0.848171
H90	H	-0.031936	-1.109167	0.858382
H91	H	-0.129013	-1.107514	0.774870
H92	H	0.040493	-1.231467	0.795488
H93	H	-0.056597	-1.229834	0.711970
H94	H	0.379287	-0.321563	0.000060
C95	C	-0.312526	-0.885801	0.143851
C96	C	-0.419861	-0.912353	0.087457
H97	H	-0.337334	-0.852931	0.198028
H98	H	-0.275240	-0.937929	0.164824
H99	H	-0.252219	-0.848520	0.106946
H100	H	-0.480164	-0.949639	0.124359
H101	H	-0.457166	-0.860216	0.066484
H102	H	-0.040229	-0.357849	0.000081
H103	H	0.331910	-0.955858	0.258163
C104	C	0.375138	-0.822120	0.663385
C105	C	0.442616	-0.877842	0.605578
H106	H	0.433609	-0.780908	0.697502
H107	H	0.322233	-0.789344	0.624190
H108	H	0.323825	-0.858319	0.707679
H109	H	0.493922	-0.841643	0.561279
H110	H	0.495543	-0.910620	0.644776
H111	H	-0.190919	-0.930096	0.065517
C112	C	-0.169418	-1.206063	0.663316
C113	C	-0.091425	-1.254388	0.605528
H114	H	-0.227891	-1.247285	0.697415
H115	H	-0.118099	-1.169890	0.707616
H116	H	-0.215175	-1.168251	0.624102
H117	H	-0.045661	-1.292195	0.644743
H118	H	-0.142750	-1.290577	0.561223
H119	H	0.503283	-0.623265	0.000040
H120	H	-0.066887	-1.237076	0.408879
C121	C	-0.334207	-1.039677	0.237835
C122	C	-0.443635	-1.065165	0.183307
H123	H	-0.357385	-1.009958	0.294626
H124	H	-0.294309	-1.092000	0.254492
H125	H	-0.276722	-0.999775	0.201369
H126	H	-0.501116	-1.105072	0.219770
H127	H	-0.483552	-1.012835	0.166651
C128	C	-0.543879	-1.227542	-0.174967
C129	C	-0.471448	-1.213049	-0.091088
H130	H	-0.583897	-1.287855	-0.175478
H131	H	-0.607113	-1.186416	-0.176962
H132	H	-0.489743	-1.218199	-0.229349
H133	H	-0.525586	-1.222386	-0.036707
H134	H	-0.408207	-1.254188	-0.089085
C135	C	-0.379337	-1.271660	0.100198
C136	C	-0.471921	-1.210564	0.096919
H137	H	-0.419980	-1.331708	0.103670
H138	H	-0.328216	-1.265167	0.043982
H139	H	-0.327038	-1.259545	0.155178
H140	H	-0.524214	-1.222674	0.041935
H141	H	-0.523063	-1.217060	0.153141
C142	C	-0.395085	-0.981416	-0.187666
C143	C	-0.448718	-1.071589	-0.183550
H144	H	-0.421068	-0.954395	-0.245263
H145	H	-0.423078	-0.949248	-0.134053
H146	H	-0.304732	-0.979454	-0.186489
H147	H	-0.539071	-1.073551	-0.184720
H148	H	-0.420732	-1.103766	-0.237178
C149	C	-0.130172	-1.178384	0.268074
C150	C	-0.005253	-1.193606	0.243791
H151	H	-0.188622	-1.219604	0.233950
H152	H	-0.142509	-1.187099	0.335107
H153	H	-0.144109	-1.118125	0.251618
H154	H	0.008687	-1.253862	0.260254
H155	H	0.007089	-1.184897	0.176743
C156	C	-0.131316	-0.810220	-0.082030
C157	C	-0.060702	-0.826900	0.000043
H158	H	-0.208919	-0.848923	-0.082035
H159	H	-0.149539	-0.748915	-0.082014
H160	H	-0.083382	-0.821525	-0.137704
H161	H	-0.108632	-0.815588	0.055717
H162	H	-0.042482	-0.888219	0.000035
H163	H	-0.238034	-1.190292	0.094629
H164	H	-0.216612	-1.083209	0.159082
H165	H	-0.218401	-1.081003	-0.158910
H166	H	-0.236231	-1.189326	-0.096960
