data_functionalizedCrystal
_audit_creation_method	'MofGen! by Chris Wilmer'
_symmetry_space_group_name_H-M	'P1'
_symmetry_Int_Tables_number	1
_symmetry_cell_setting	triclinic
loop_
_symmetry_equiv_pos_as_xyz
  x,y,z
_cell_length_a	15.944493
_cell_length_b	15.944551
_cell_length_c	9.730217
_cell_angle_alpha	89.995798
_cell_angle_beta	89.999156
_cell_angle_gamma	83.486891
loop_
_atom_site_label
_atom_site_type_symbol
_atom_site_fract_x
_atom_site_fract_y
_atom_site_fract_z
O1	O	1.114551	0.108099	-0.114275
O2	O	0.869995	0.121506	-0.114282
O3	O	0.998951	-0.007474	-0.114266
O4	O	0.985594	0.237078	-0.114291
O5	O	0.998947	-0.007475	0.114314
O6	O	0.869991	0.121505	0.114298
O7	O	1.114547	0.108098	0.114305
Zn8	Zn	0.992268	0.114801	0.150594
Zn9	Zn	0.992273	0.114802	-0.150570
O10	O	0.985591	0.237077	0.114289
C11	C	0.838698	0.120957	0.000007
C12	C	0.745449	0.119314	0.000005
C13	C	0.509689	0.195235	-0.000004
C14	C	0.459129	0.154293	0.112708
C15	C	0.574728	0.116270	0.000008
C16	C	0.459137	0.154276	-0.112654
C17	C	0.409819	0.113336	0.000005
C18	C	0.525396	0.075350	0.112813
C19	C	0.525408	0.075344	-0.112650
C20	C	0.474880	0.034345	0.000089
C21	C	0.669728	0.117963	0.000011
C22	C	0.314821	0.111637	0.000012
C23	C	0.998395	-0.038768	0.000025
C24	C	0.996732	-0.132014	0.000025
C25	C	0.912826	-0.346853	0.000004
C26	C	0.951787	-0.407879	0.112709
C27	C	0.993725	-0.302739	0.000015
C28	C	0.951810	-0.407862	-0.112653
C29	C	0.990814	-0.467651	-0.000002
C30	C	1.032709	-0.362537	0.112813
C31	C	1.032720	-0.362513	-0.112651
C32	C	1.071741	-0.423521	0.000082
C33	C	0.995399	-0.207737	0.000025
C34	C	0.989146	-0.562652	-0.000002
C35	C	1.145844	0.108646	0.000013
C36	C	1.239092	0.110289	0.000006
C37	C	0.986147	0.268372	-0.000004
C38	C	0.987809	0.361617	-0.000014
N39	N	0.992271	0.114799	0.356130
N40	N	0.992277	0.114797	-0.356107
C41	C	1.106508	0.000621	0.356135
C42	C	1.163632	-0.056466	0.428078
C43	C	1.163641	-0.056467	0.571957
C44	C	1.106517	0.000624	0.643898
C45	C	1.049393	0.057711	0.571956
C46	C	1.049392	0.057707	0.428073
C47	C	0.935153	0.171884	0.571951
C48	C	0.935147	0.171890	0.428071
C49	C	0.878030	0.228975	0.643892
C50	C	0.820908	0.286068	0.571949
C51	C	0.820902	0.286066	0.428061
C52	C	0.878023	0.228977	0.356129
H53	H	0.430201	0.187640	-0.207929
Cl54	Cl	0.878035	0.228973	0.824770
Cl55	Cl	1.085507	-0.331440	-0.259766
H56	H	1.138950	-0.456694	0.000147
H57	H	0.878026	0.228974	0.238974
H58	H	0.525313	0.263254	0.000095
H59	H	1.210153	-0.102955	0.630533
Cl60	Cl	0.450992	-0.070748	0.000200
Cl61	Cl	0.898962	-0.438869	-0.259752
Cl62	Cl	1.106514	0.000626	0.175257
H63	H	0.554356	0.042022	-0.207936
Cl64	Cl	0.569896	0.023896	0.260083
H65	H	1.210140	-0.102951	0.369491
H66	H	0.845675	-0.313532	0.000114
H67	H	1.066895	-0.342554	0.208200
Cl68	Cl	0.414447	0.205777	0.259814
H69	H	0.774398	0.332543	0.630532
H70	H	0.917568	-0.427981	0.207990
H71	H	0.774382	0.332550	0.369493
Cl72	Cl	1.106518	0.000612	0.824777
