data_functionalizedCrystal
_audit_creation_method	'MofGen! by Chris Wilmer'
_symmetry_space_group_name_H-M	'P1'
_symmetry_Int_Tables_number	1
_symmetry_cell_setting	triclinic
loop_
_symmetry_equiv_pos_as_xyz
  x,y,z
_cell_length_a	17.699083
_cell_length_b	17.699083
_cell_length_c	16.776229
_cell_angle_alpha	89.992455
_cell_angle_beta	89.998886
_cell_angle_gamma	83.283015
loop_
_atom_site_label
_atom_site_type_symbol
_atom_site_fract_x
_atom_site_fract_y
_atom_site_fract_z
O1	O	1.004078	0.095713	-0.066178
O2	O	0.783700	0.108165	-0.066204
O3	O	0.900116	-0.008250	-0.066183
O4	O	0.887663	0.212128	-0.066199
O5	O	0.900100	-0.008257	0.066393
O6	O	0.783685	0.108158	0.066372
O7	O	1.004063	0.095706	0.066398
Zn8	Zn	0.893871	0.101931	0.087435
Zn9	Zn	0.893892	0.101940	-0.087241
O10	O	0.887648	0.212121	0.066378
C11	C	0.755495	0.107716	0.000081
C12	C	0.671477	0.106377	0.000071
C13	C	0.622856	0.174710	0.000066
C14	C	0.543913	0.173448	0.000077
C15	C	0.513592	0.103852	0.000086
C16	C	0.562219	0.035513	0.000093
C17	C	0.641161	0.036776	0.000088
C18	C	0.243856	0.030418	0.000113
C19	C	0.164908	0.029160	0.000115
C20	C	0.146608	0.167090	0.000101
C21	C	0.225550	0.168353	0.000097
C22	C	0.274170	0.100015	0.000108
C23	C	0.359769	0.101384	0.000098
C24	C	0.427995	0.102481	0.000090
C25	C	0.899662	-0.036451	0.000105
C26	C	0.898323	-0.120469	0.000105
C27	C	0.966656	-0.169090	0.000114
C28	C	0.965394	-0.248033	0.000107
C29	C	0.895798	-0.278354	0.000096
C30	C	0.827459	-0.229727	0.000085
C31	C	0.828722	-0.150785	0.000086
C32	C	0.822364	-0.548090	0.000078
C33	C	0.821106	-0.627038	0.000078
C34	C	0.959036	-0.645338	0.000099
C35	C	0.960299	-0.566396	0.000100
C36	C	0.891961	-0.517776	0.000084
C37	C	0.893330	-0.432177	0.000090
C38	C	0.894427	-0.363951	0.000096
C39	C	1.032268	0.096156	0.000112
C40	C	1.116286	0.097494	0.000116
C41	C	0.888102	0.240322	0.000087
C42	C	0.889440	0.324340	0.000082
N43	N	0.893863	0.101924	0.206646
N44	N	0.893906	0.101941	-0.206452
C45	C	0.945428	0.050396	0.248372
C46	C	0.945432	0.050396	0.331824
C47	C	0.893875	0.101927	0.373549
C48	C	0.842305	0.153457	0.331817
C49	C	0.842297	0.153454	0.248366
C50	C	0.842332	0.153472	0.668364
C51	C	0.842345	0.153473	0.751820
C52	C	0.945466	0.050414	0.751822
C53	C	0.945459	0.050411	0.668372
C54	C	0.893887	0.101938	0.626647
C55	C	0.893882	0.101937	0.536158
C56	C	0.893882	0.101932	0.464036
H57	H	0.680748	-0.018868	0.000091
O58	O	0.748656	-0.495660	0.000080
H59	H	0.715342	-0.506424	-0.053953
O60	O	0.094162	0.240798	0.000103
H61	H	0.104915	0.274110	-0.053941
O62	O	0.786674	0.209018	0.203351
H63	H	0.818450	0.245759	0.165306
H64	H	0.987419	0.008438	0.365798
O65	O	0.655559	0.249776	0.000064
H66	H	0.608484	0.297079	0.000073
O67	O	0.752391	-0.262423	0.000081
H68	H	0.762991	-0.325485	0.000094
H69	H	0.764429	-0.651721	0.000071
H70	H	0.773078	-0.111198	0.000078
O71	O	0.132205	-0.045910	0.000141
H72	H	0.151747	-0.078749	-0.053884
H73	H	0.987414	0.008437	0.214406
H74	H	0.283434	-0.025228	0.000123
O75	O	0.529522	-0.039555	0.000106
H76	H	0.466461	-0.028955	0.000101
H77	H	0.504328	0.229092	0.000072
O78	O	1.001062	-0.005173	0.623367
H79	H	1.036914	-0.041010	0.666402
O80	O	1.001087	-0.005172	0.796824
H81	H	0.992428	0.003478	0.861862
H82	H	0.800358	0.195437	0.785791
O83	O	0.786718	0.209051	0.623364
H84	H	0.750877	0.244890	0.666400
O85	O	0.786697	0.209043	0.376813
H86	H	0.795370	0.200396	0.441852
H87	H	1.023330	-0.144409	0.000128
H88	H	1.021038	-0.287618	0.000116
O89	O	0.258256	0.243417	0.000098
H90	H	0.211183	0.290723	0.000108
H91	H	1.016971	-0.541714	0.000113
H92	H	1.014680	-0.684934	0.000107
