data_functionalizedCrystal
_audit_creation_method	'MofGen! by Chris Wilmer'
_symmetry_space_group_name_H-M	'P1'
_symmetry_Int_Tables_number	1
_symmetry_cell_setting	triclinic
loop_
_symmetry_equiv_pos_as_xyz
  x,y,z
_cell_length_a	16.120530
_cell_length_b	12.827892
_cell_length_c	12.827885
_cell_angle_alpha	90.029976
_cell_angle_beta	92.918515
_cell_angle_gamma	87.111094
loop_
_atom_site_label
_atom_site_type_symbol
_atom_site_fract_x
_atom_site_fract_y
_atom_site_fract_z
Zn1	Zn	1.274617	-0.497098	0.671823
Zn2	Zn	1.607950	-0.163765	1.005157
Zn3	Zn	1.941284	0.169568	1.338490
Zn4	Zn	1.274533	-0.671870	0.497078
Zn5	Zn	1.607866	-0.338537	0.830411
Zn6	Zn	1.941199	-0.005204	1.163744
Zn7	Zn	1.135195	-0.488277	0.488240
Zn8	Zn	1.468528	-0.154943	0.821573
Zn9	Zn	1.801862	0.178390	1.154906
Zn10	Zn	1.135183	-0.662925	0.662925
Zn11	Zn	1.468517	-0.329591	0.996258
Zn12	Zn	1.801850	0.003742	1.329592
O13	O	1.204882	-0.580043	0.580016
O14	O	1.538215	-0.246709	0.913350
O15	O	1.871549	0.086624	1.246683
O16	O	1.391273	-0.527718	0.656066
O17	O	1.724606	-0.194385	0.989399
O18	O	2.057939	0.138949	1.322733
O19	O	1.256019	-0.647568	0.349667
O20	O	1.589352	-0.314235	0.683001
O21	O	1.922685	0.019098	1.016334
O22	O	1.153730	-0.343213	0.512618
O23	O	1.487063	-0.009880	0.845951
O24	O	1.820397	0.323453	1.179284
O25	O	1.391211	-0.656122	0.527681
O26	O	1.724544	-0.322789	0.861014
O27	O	2.057877	0.010544	1.194348
O28	O	1.256163	-0.349695	0.647496
O29	O	1.589496	-0.016361	0.980829
O30	O	1.922829	0.316972	1.314162
O31	O	1.153648	-0.512683	0.343174
O32	O	1.486981	-0.179349	0.676507
O33	O	1.820315	0.153984	1.009841
O34	O	1.018527	-0.504008	0.503989
O35	O	1.351860	-0.170675	0.837322
O36	O	1.685193	0.162658	1.170656
O37	O	1.153710	-0.640876	0.810343
O38	O	1.487043	-0.307542	1.143677
O39	O	1.820377	0.025791	1.477010
O40	O	1.018518	-0.632321	0.632330
O41	O	1.351851	-0.298988	0.965663
O42	O	1.685185	0.034345	1.298996
O43	O	1.256151	-0.519044	0.816881
O44	O	1.589485	-0.185710	1.150214
O45	O	1.922818	0.147623	1.483548
O46	O	1.256007	-0.816917	0.519052
O47	O	1.589341	-0.483584	0.852386
O48	O	1.922674	-0.150251	1.185719
O49	O	1.153628	-0.810345	0.640900
O50	O	1.486961	-0.477011	0.974233
O51	O	1.820295	-0.143678	1.307566
C52	C	0.988272	-0.566238	0.566235
C53	C	1.321605	-0.232904	0.899569
C54	C	1.654939	0.100429	1.232902
C55	C	0.895605	-0.560357	0.560364
C56	C	1.228939	-0.227024	0.893698
C57	C	1.562272	0.106310	1.227031
C58	C	1.204830	-0.851549	0.579994
C59	C	1.538163	-0.518216	0.913327
C60	C	1.871497	-0.184882	1.246660
C61	C	1.204884	-0.967706	0.580024
C62	C	1.538217	-0.634372	0.913357
C63	C	1.871551	-0.301039	1.246690
C64	C	1.154325	-1.136419	0.513286
C65	C	1.487658	-0.803086	0.846619
C66	C	1.820991	-0.469752	1.179953
C67	C	1.154268	-1.016365	0.513253
C68	C	1.487601	-0.683032	0.846587
C69	C	1.820934	-0.349698	1.179920
C70	C	0.725942	-0.549596	0.549655
C71	C	1.059276	-0.216263	0.882988
C72	C	1.392609	0.117071	1.216322
C73	C	0.684662	-0.610566	0.610454
C74	C	1.017996	-0.277233	0.943787
C75	C	1.351329	0.056101	1.277121
C76	C	0.590256	-0.604579	0.604495
C77	C	0.923589	-0.271245	0.937829
C78	C	1.256923	0.062088	1.271162
C79	C	0.820357	-0.555582	0.555612
C80	C	1.153690	-0.222249	0.888946
C81	C	1.487024	0.111085	1.222279
C82	C	1.422338	-0.593902	0.593852
C83	C	1.755671	-0.260569	0.927185
C84	C	2.089004	0.072765	1.260519
C85	C	1.515005	-0.599808	0.599748
C86	C	1.848338	-0.266475	0.933081
C87	C	2.181671	0.066858	1.266414
C88	C	1.204939	-0.579946	0.852590
C89	C	1.538272	-0.246612	1.185924
C90	C	1.871605	0.086721	1.519257
C91	C	1.204963	-0.579905	0.968745
C92	C	1.538296	-0.246571	1.302078
C93	C	1.871630	0.086762	1.635412
C94	C	1.204957	-0.307477	0.580063
C95	C	1.538290	0.025856	0.913397
C96	C	1.871624	0.359190	1.246730
C97	C	1.204989	-0.191326	0.580084
C98	C	1.538322	0.142007	0.913417
C99	C	1.871656	0.475341	1.246750
C100	C	1.204873	-0.580067	0.308506
C101	C	1.538207	-0.246733	0.641839
C102	C	1.871540	0.086600	0.975173
C103	C	1.205011	-0.579824	0.192362
C104	C	1.538344	-0.246490	0.525695
C105	C	1.871677	0.086843	0.859029
C106	C	1.255660	-0.519606	1.023765
C107	C	1.588993	-0.186273	1.357099
C108	C	1.922326	0.147060	1.690432
C109	C	1.255686	-0.519562	1.143817
C110	C	1.589019	-0.186229	1.477151
C111	C	1.922353	0.147104	1.810484
H112	H	1.110988	-1.178290	0.456126
H113	H	1.444322	-0.844957	0.789459
H114	H	1.777655	-0.511623	1.122792
F115	F	1.261627	-1.136602	0.654809
F116	F	1.594960	-0.803269	0.988142
F117	F	1.928294	-0.469936	1.321475
H118	H	0.720223	-0.667260	0.666983
H119	H	1.053556	-0.333926	1.000316
H120	H	1.386890	-0.000593	1.333649
F121	F	0.679465	-0.475497	0.475774
F122	F	1.012798	-0.142164	0.809107
F123	F	1.346132	0.191169	1.142440
H124	H	1.299041	-0.468011	0.981992
H125	H	1.632374	-0.134678	1.315325
H126	H	1.965707	0.198655	1.648658
F127	F	1.097575	-0.954666	0.438496
F128	F	1.430908	-0.621333	0.771830
F129	F	1.764241	-0.288000	1.105163
H130	H	1.161574	-0.631488	1.010518
H131	H	1.494907	-0.298155	1.343851
H132	H	1.828240	0.035178	1.677185
H133	H	1.299092	-0.467942	1.191121
H134	H	1.632425	-0.134609	1.524454
H135	H	1.965759	0.198724	1.857788
F136	F	1.261588	-1.029398	0.654774
F137	F	1.594921	-0.696065	0.988107
F138	F	1.928254	-0.362732	1.321440
F139	F	1.148279	-0.647311	1.130543
F140	F	1.481613	-0.313977	1.463877
F141	F	1.814946	0.019356	1.797210
