data_functionalizedCrystal
_audit_creation_method	'MofGen! by Chris Wilmer'
_symmetry_space_group_name_H-M	'P1'
_symmetry_Int_Tables_number	1
_symmetry_cell_setting	triclinic
loop_
_symmetry_equiv_pos_as_xyz
  x,y,z
_cell_length_a	10.540539
_cell_length_b	8.559649
_cell_length_c	7.088929
_cell_angle_alpha	84.655815
_cell_angle_beta	96.268640
_cell_angle_gamma	77.152078
loop_
_atom_site_label
_atom_site_type_symbol
_atom_site_fract_x
_atom_site_fract_y
_atom_site_fract_z
O1	O	1.647732	0.241177	-0.158890
O2	O	1.276098	0.262372	-0.158912
O3	O	1.494656	0.019546	-0.158897
O4	O	1.429173	0.484003	-0.158905
O5	O	1.523872	-0.012979	0.159080
O6	O	1.305313	0.229847	0.159065
O7	O	1.676947	0.208652	0.159088
Cu8	Cu	1.493798	0.216279	0.188110
Cu9	Cu	1.459247	0.254744	-0.187935
O10	O	1.458389	0.451478	0.159072
C11	C	1.514226	-0.056190	0.000088
C12	C	1.528996	-0.233400	0.000079
C13	C	1.243569	0.244520	0.000073
C14	C	1.103118	0.239766	0.000064
C15	C	0.938835	0.057488	0.000810
C16	C	1.084881	0.062384	0.000073
C17	C	1.015825	0.343703	-0.181510
C18	C	0.869902	0.337663	-0.181643
C19	C	0.902259	0.304284	0.179957
C20	C	1.049289	0.305674	0.182337
C21	C	1.709476	0.226504	0.000098
C22	C	1.849926	0.231259	0.000094
C23	C	1.438819	0.527214	0.000083
C24	C	1.424047	0.704426	0.000080
N25	N	1.518108	0.189224	0.452600
N26	N	1.434948	0.281787	-0.452424
H27	H	1.322895	-0.213232	0.000080
O28	O	1.663003	-0.342465	0.000100
H29	H	1.653972	-0.469210	0.000102
H30	H	1.146486	-0.018098	0.130235
O31	O	0.824762	0.272474	-0.361422
H32	H	0.720300	0.267528	-0.363306
H33	H	0.889369	0.232800	0.317589
H34	H	1.348764	0.377708	0.465923
H35	H	0.929550	-0.025907	0.131028
O36	O	0.892742	-0.017427	-0.170691
H37	H	0.806788	0.068568	-0.256442
O38	O	1.133705	-0.009529	-0.172640
H39	H	1.052969	-0.047927	-0.255974
H40	H	1.604307	0.093308	0.534262
O41	O	0.787648	0.507752	-0.192602
H42	H	0.852175	0.593954	-0.197799
H43	H	1.109122	0.229573	0.316666
H44	H	1.023919	0.474659	-0.188269
O45	O	1.063989	0.283464	-0.360521
H46	H	1.150037	0.179563	-0.320627
H47	H	0.841731	0.432280	0.181181
O48	O	1.064781	0.475489	0.196887
H49	H	1.111283	0.515751	0.073872
