data_functionalizedCrystal
_audit_creation_method	'MofGen! by Chris Wilmer'
_symmetry_space_group_name_H-M	'P1'
_symmetry_Int_Tables_number	1
_symmetry_cell_setting	triclinic
loop_
_symmetry_equiv_pos_as_xyz
  x,y,z
_cell_length_a	6.817900
_cell_length_b	17.982959
_cell_length_c	16.255661
_cell_angle_alpha	95.649314
_cell_angle_beta	103.488922
_cell_angle_gamma	102.451857
loop_
_atom_site_label
_atom_site_type_symbol
_atom_site_fract_x
_atom_site_fract_y
_atom_site_fract_z
V1	V	-4.021547	-0.106029	-0.264227
O2	O	-4.014408	0.004462	-0.258833
O3	O	-3.968052	-0.209628	-0.262769
O4	O	-3.973175	-0.104676	-0.379305
O5	O	-4.009250	-0.101217	-0.141490
V6	V	-4.505831	-0.092780	-0.249504
O7	O	-4.281135	-0.135091	-0.296522
O8	O	-4.696441	-0.063718	-0.217208
O9	O	-4.336120	0.010819	-0.250961
O10	O	-4.630368	-0.203271	-0.254897
O11	O	-4.635526	-0.097592	-0.372240
O12	O	-4.330997	-0.094133	-0.134425
C13	C	-3.811813	-0.234875	-0.258691
C14	C	-3.849361	-0.319570	-0.258267
C15	C	-4.048920	-0.363251	-0.262302
C16	C	-4.084191	-0.442832	-0.261908
C17	C	-3.919899	-0.478730	-0.257473
C18	C	-3.720325	-0.435044	-0.253440
C19	C	-3.685060	-0.355465	-0.253840
C20	C	-3.862545	-0.755976	-0.251828
C21	C	-3.897826	-0.835560	-0.251426
C22	C	-4.261677	-0.843343	-0.259896
C23	C	-4.226411	-0.763764	-0.260296
C24	C	-4.026844	-0.720086	-0.256267
C25	C	-3.988602	-0.633795	-0.256696
C26	C	-3.958136	-0.565018	-0.257038
C27	C	-3.818346	-0.100997	-0.407343
C28	C	-3.860046	-0.100576	-0.501423
C29	C	-3.770848	-0.095550	-0.724225
C30	C	-3.924104	-0.160420	-0.793919
C31	C	-3.936469	-0.099787	-0.673669
C32	C	-3.857540	-0.034174	-0.771610
C33	C	-4.010275	-0.099021	-0.840050
C34	C	-4.089204	-0.164715	-0.742133
C35	C	-4.022581	-0.038412	-0.719809
C36	C	-4.175973	-0.103301	-0.789483
C37	C	-3.893947	-0.100229	-0.577821
C38	C	-4.052814	-0.098585	-0.935897
C39	C	-4.155701	0.036062	-0.255037
C40	C	-4.097391	0.120757	-0.255467
C41	C	-4.149168	-0.097815	-0.106382
C42	C	-4.086706	-0.098232	-0.012302
H43	H	-4.424178	-0.878916	-0.263177
H44	H	-3.764031	-0.864786	-0.247820
C45	C	-3.868982	-0.229098	-0.837038
C46	C	-3.715994	-0.202873	-0.879049
C47	C	-3.665168	-0.266113	-0.918785
H48	H	-3.817653	-0.258314	-0.795075
H49	H	-3.989619	-0.260566	-0.877473
H50	H	-3.595380	-0.171418	-0.838618
H51	H	-3.767278	-0.173665	-0.921025
H52	H	-3.785805	-0.297582	-0.959220
H53	H	-3.613848	-0.295325	-0.876816
H54	H	-3.561375	-0.248329	-0.947300
C55	C	-3.541936	-0.474034	-0.248449
C56	C	-3.514061	-0.509033	-0.174775
C57	C	-3.349725	-0.544947	-0.170140
H58	H	-3.573323	-0.512044	-0.297658
H59	H	-3.417961	-0.436637	-0.246057
H60	H	-3.638008	-0.546426	-0.177175
H61	H	-3.482641	-0.471040	-0.125554
H62	H	-3.225750	-0.507550	-0.167748
H63	H	-3.381128	-0.582953	-0.219352
H64	H	-3.330778	-0.568692	-0.120149
H65	H	-3.522563	-0.319902	-0.250558
C66	C	-4.219493	-0.238391	-0.724607
C67	C	-4.339746	-0.283704	-0.802389
C68	C	-4.459803	-0.351574	-0.786276
H69	H	-4.130439	-0.266259	-0.694338
H70	H	-4.308450	-0.225823	-0.691192
H71	H	-4.250799	-0.296274	-0.835791
H72	H	-4.428840	-0.255860	-0.832670
H73	H	-4.548760	-0.339006	-0.752861
H74	H	-4.370733	-0.379435	-0.756005
H75	H	-4.541423	-0.382324	-0.839047
H76	H	-3.599249	-0.092357	-0.695734
C77	C	-3.645737	-0.708577	-0.247266
C78	C	-3.507128	-0.715135	-0.171416
C79	C	-3.307379	-0.671472	-0.167176
H80	H	-3.601870	-0.727054	-0.294999
H81	H	-3.648127	-0.656024	-0.248093
H82	H	-3.504731	-0.767677	-0.170597
H83	H	-3.550927	-0.696654	-0.123670
H84	H	-3.309768	-0.618920	-0.168003
H85	H	-3.263532	-0.689953	-0.214913
H86	H	-3.213312	-0.675911	-0.115709
C87	C	-4.404822	-0.107528	-0.827320
C88	C	-4.423589	-0.041788	-0.864998
C89	C	-4.634371	-0.045655	-0.899853
H90	H	-4.464835	-0.152219	-0.869501
H91	H	-4.475058	-0.110040	-0.783214
H92	H	-4.353381	-0.039284	-0.909099
H93	H	-4.363622	0.002913	-0.822834
H94	H	-4.704608	-0.048167	-0.855748
H95	H	-4.694366	-0.090348	-0.942031
H96	H	-4.647134	-0.001048	-0.925415
H97	H	-4.063689	0.013174	-0.687528
C98	C	-4.227182	-0.324200	-0.267246
C99	C	-4.254995	-0.289163	-0.340894
C100	C	-4.419180	-0.253177	-0.345473
H101	H	-4.351233	-0.361539	-0.269642
H102	H	-4.195614	-0.286202	-0.217998
H103	H	-4.286575	-0.327156	-0.390129
H104	H	-4.130987	-0.251813	-0.338514
H105	H	-4.387612	-0.215180	-0.296226
H106	H	-4.543218	-0.290521	-0.347867
H107	H	-4.438060	-0.229395	-0.395439
H108	H	-3.759992	0.020981	-0.785035
H109	H	-4.246689	-0.478394	-0.265195
H110	H	-4.360196	-0.734539	-0.263903
