data_functionalizedCrystal
_audit_creation_method	'MofGen! by Chris Wilmer'
_symmetry_space_group_name_H-M	'P1'
_symmetry_Int_Tables_number	1
_symmetry_cell_setting	triclinic
loop_
_symmetry_equiv_pos_as_xyz
  x,y,z
_cell_length_a	14.971482
_cell_length_b	19.188930
_cell_length_c	13.448316
_cell_angle_alpha	89.988273
_cell_angle_beta	89.993798
_cell_angle_gamma	83.378695
loop_
_atom_site_label
_atom_site_type_symbol
_atom_site_fract_x
_atom_site_fract_y
_atom_site_fract_z
O1	O	1.186469	0.090976	-0.082691
O2	O	1.519802	0.424309	0.250643
O3	O	1.853136	0.757642	0.583976
O4	O	0.926011	0.101874	-0.082697
O5	O	1.259344	0.435208	0.250637
O6	O	1.592677	0.768541	0.583970
O7	O	1.063756	-0.005207	-0.082674
O8	O	1.397089	0.328127	0.250659
O9	O	1.730423	0.661460	0.583993
O10	O	1.048724	0.198057	-0.082713
O11	O	1.382057	0.531390	0.250620
O12	O	1.715390	0.864723	0.583953
O13	O	1.063739	-0.005213	0.082710
O14	O	1.397072	0.328120	0.416043
O15	O	1.730405	0.661454	0.749376
O16	O	0.925993	0.101868	0.082687
O17	O	1.259327	0.435201	0.416020
O18	O	1.592660	0.768534	0.749354
O19	O	1.186452	0.090969	0.082693
O20	O	1.519785	0.424302	0.416027
O21	O	1.853118	0.757636	0.749360
Cu22	Cu	1.056221	0.096418	0.097791
Cu23	Cu	1.389554	0.429751	0.431124
Cu24	Cu	1.722888	0.763084	0.764458
Cu25	Cu	1.056241	0.096426	-0.097795
Cu26	Cu	1.389575	0.429759	0.235539
Cu27	Cu	1.722908	0.763092	0.568872
O28	O	1.048706	0.198050	0.082671
O29	O	1.382040	0.531383	0.416004
O30	O	1.715373	0.864717	0.749337
C31	C	0.892680	0.101384	-0.000005
C32	C	1.226013	0.434717	0.333328
C33	C	1.559347	0.768051	0.666661
C34	C	0.793390	0.099925	-0.000007
C35	C	1.126724	0.433258	0.333326
C36	C	1.460057	0.766592	0.666660
C37	C	0.746740	0.099234	0.090145
C38	C	1.080073	0.432567	0.423478
C39	C	1.413407	0.765901	0.756812
C40	C	0.653449	0.097852	0.090146
C41	C	0.986782	0.431185	0.423480
C42	C	1.320115	0.764518	0.756813
C43	C	0.606809	0.097165	-0.000005
C44	C	0.940142	0.430499	0.333328
C45	C	1.273476	0.763832	0.666661
C46	C	0.653466	0.097854	-0.090164
C47	C	0.986799	0.431188	0.243169
C48	C	1.320133	0.764521	0.576503
C49	C	0.746756	0.099231	-0.090164
C50	C	1.080090	0.432565	0.243169
C51	C	1.413423	0.765898	0.576502
C52	C	0.459019	0.094985	-0.090157
C53	C	0.792353	0.428319	0.243176
C54	C	1.125686	0.761652	0.576509
C55	C	0.365722	0.093609	-0.090157
C56	C	0.699056	0.426943	0.243176
C57	C	1.032389	0.760276	0.576509
C58	C	0.365712	0.093606	0.090154
C59	C	0.699045	0.426939	0.423487
C60	C	1.032378	0.760272	0.756820
C61	C	0.459002	0.094983	0.090153
C62	C	0.792335	0.428316	0.423487
C63	C	1.125669	0.761650	0.756820
C64	C	0.505653	0.095673	-0.000006
C65	C	0.838986	0.429006	0.333327
C66	C	1.172319	0.762340	0.666661
C67	C	1.063261	-0.031222	0.000021
C68	C	1.396594	0.302111	0.333354
C69	C	1.729927	0.635444	0.666687
C70	C	1.061799	-0.108732	0.000029
C71	C	1.395133	0.224602	0.333363
C72	C	1.728466	0.557935	0.666696
C73	C	1.142624	-0.153396	0.000036
C74	C	1.475957	0.179937	0.333369
C75	C	1.809290	0.513270	0.666703
C76	C	1.141251	-0.226224	0.000020
C77	C	1.474584	0.107109	0.333353
C78	C	1.807918	0.440442	0.666687
C79	C	1.059049	-0.254385	0.000017
C80	C	1.392382	0.078949	0.333351
C81	C	1.725716	0.412282	0.666684
C82	C	0.978214	-0.209710	0.000005
C83	C	1.311547	0.123623	0.333338
C84	C	1.644881	0.456956	0.666672
C85	C	0.979589	-0.136884	0.000011
C86	C	1.312922	0.196450	0.333344
C87	C	1.646256	0.529783	0.666678
N88	N	0.996209	-0.362594	0.056299
N89	N	1.329543	-0.029260	0.389632
N90	N	1.662876	0.304073	0.722966
N91	N	0.994909	-0.431776	0.056295
N92	N	1.328242	-0.098443	0.389629
N93	N	1.661575	0.234890	0.722962
C94	C	1.054901	-0.473807	-0.000003
C95	C	1.388234	-0.140473	0.333330
C96	C	1.721567	0.192860	0.666664
N97	N	1.116256	-0.444042	-0.056285
N98	N	1.449590	-0.110709	0.277048
N99	N	1.782923	0.222625	0.610381
N100	N	1.117560	-0.374853	-0.056277
N101	N	1.450893	-0.041520	0.277056
N102	N	1.784226	0.291813	0.610389
C103	C	1.057549	-0.333352	0.000010
C104	C	1.390882	-0.000019	0.333343
C105	C	1.724215	0.333315	0.666677
C106	C	1.134242	-0.597441	-0.000015
C107	C	1.467575	-0.264107	0.333318
C108	C	1.800909	0.069226	0.666652
C109	C	1.132866	-0.670270	-0.000037
C110	C	1.466199	-0.336936	0.333296
C111	C	1.799532	-0.003603	0.666630
C112	C	0.969826	-0.653754	-0.000042
C113	C	1.303160	-0.320421	0.333291
C114	C	1.636493	0.012913	0.666625
C115	C	0.971205	-0.580926	-0.000030
C116	C	1.304538	-0.247593	0.333303
C117	C	1.637872	0.085740	0.666637
C118	C	1.053415	-0.552774	-0.000012
C119	C	1.386749	-0.219441	0.333322
C120	C	1.720082	0.113892	0.666655
C121	C	1.219782	0.091459	-0.000000
C122	C	1.553116	0.424793	0.333333
C123	C	1.886449	0.758126	0.666666
C124	C	1.319072	0.092919	-0.000005
C125	C	1.652405	0.426252	0.333328
C126	C	1.985739	0.759585	0.666661
C127	C	1.049202	0.224066	-0.000026
C128	C	1.382535	0.557399	0.333307
C129	C	1.715868	0.890732	0.666640
C130	C	1.050663	0.301575	-0.000041
C131	C	1.383996	0.634908	0.333292
C132	C	1.717330	0.968242	0.666625
N133	N	1.056213	0.096412	0.235355
N134	N	1.389547	0.429745	0.568689
N135	N	1.722880	0.763079	0.902022
N136	N	1.056256	0.096426	-0.235359
N137	N	1.389590	0.429759	0.097975
N138	N	1.722923	0.763093	0.431308
C139	C	1.117226	0.049016	0.287406
C140	C	1.450559	0.382349	0.620739
C141	C	1.783892	0.715683	0.954072
C142	C	1.117231	0.049015	0.391509
C143	C	1.450565	0.382349	0.724842
C144	C	1.783898	0.715682	1.058176
C145	C	1.056228	0.096415	0.443560
C146	C	1.389561	0.429748	0.776893
C147	C	1.722895	0.763081	1.110227
C148	C	0.995209	0.143813	0.391502
C149	C	1.328542	0.477146	0.724836
C150	C	1.661876	0.810479	1.058169
C151	C	0.995200	0.143809	0.287401
C152	C	1.328533	0.477143	0.620734
C153	C	1.661867	0.810476	0.954068
C154	C	0.995234	0.143817	0.608482
C155	C	1.328567	0.477151	0.941816
C156	C	1.661901	0.810484	1.275149
C157	C	0.995244	0.143822	0.712591
C158	C	1.328577	0.477155	1.045924
C159	C	1.661911	0.810489	1.379257
C160	C	1.117265	0.049023	0.712590
C161	C	1.450599	0.382357	1.045924
C162	C	1.783932	0.715690	1.379257
C163	C	1.117256	0.049020	0.608489
C164	C	1.450589	0.382353	0.941822
C165	C	1.783923	0.715687	1.275156
C166	C	1.056238	0.096419	0.556439
C167	C	1.389571	0.429753	0.889772
C168	C	1.722905	0.763086	1.223105
H169	H	0.327724	0.093044	0.163565
H170	H	0.661058	0.426377	0.496898
H171	H	0.994391	0.759711	0.830231
H172	H	1.207070	-0.262597	0.000021
H173	H	1.540403	0.070736	0.333355
H174	H	1.873737	0.404069	0.666688
Br175	Br	0.590175	0.096892	-0.212515
Br176	Br	0.923509	0.430225	0.120819
Br177	Br	1.256842	0.763559	0.454152
Br178	Br	0.810027	0.100173	0.212501
Br179	Br	1.143360	0.433506	0.545834
Br180	Br	1.476693	0.766839	0.879167
H181	H	0.911284	-0.232643	0.000001
H182	H	1.244618	0.100690	0.333334
H183	H	1.577951	0.434024	0.666667
Br184	Br	0.810070	0.100163	-0.212518
Br185	Br	1.143404	0.433496	0.120815
Br186	Br	1.476737	0.766829	0.454148
Br187	Br	1.245810	-0.559230	0.000020
Br188	Br	1.579143	-0.225896	0.333353
Br189	Br	1.912477	0.107437	0.666687
Br190	Br	1.254194	-0.115193	0.000033
Br191	Br	1.587527	0.218141	0.333366
Br192	Br	1.920861	0.551474	0.666700
H193	H	0.615472	0.097278	0.163557
H194	H	0.948806	0.430611	0.496890
H195	H	1.282139	0.763944	0.830224
Br196	Br	0.912418	0.208143	0.537845
Br197	Br	1.245751	0.541476	0.871179
Br198	Br	1.579084	0.874810	1.204512
H199	H	0.913770	-0.100517	0.000006
H200	H	1.247103	0.232816	0.333339
H201	H	1.580437	0.566150	0.666673
Br202	Br	1.200053	-0.015301	0.537845
Br203	Br	1.533387	0.318032	0.871178
Br204	Br	1.866720	0.651366	1.204512
Br205	Br	1.242566	-0.730889	-0.000039
Br206	Br	1.575900	-0.397556	0.333295
Br207	Br	1.909233	-0.064222	0.666628
H208	H	0.905389	-0.544559	-0.000030
H209	H	1.238722	-0.211226	0.333304
H210	H	1.572055	0.122107	0.666637
Br211	Br	1.200078	-0.015300	0.783233
Br212	Br	1.533411	0.318033	1.116566
Br213	Br	1.866744	0.651367	1.449900
H214	H	0.496999	0.095548	-0.163574
H215	H	0.830333	0.428881	0.169759
H216	H	1.163666	0.762214	0.503092
H217	H	1.166911	0.010422	0.433888
H218	H	1.500245	0.343755	0.767221
H219	H	1.833578	0.677088	1.100555
H220	H	0.902896	-0.676681	-0.000049
H221	H	1.236229	-0.343348	0.333284
H222	H	1.569563	-0.010015	0.666617
Br223	Br	1.200027	-0.015310	0.216776
Br224	Br	1.533361	0.318023	0.550109
Br225	Br	1.866694	0.651356	0.883443
H226	H	0.945568	0.182419	0.754965
H227	H	1.278901	0.515752	1.088299
H228	H	1.612234	0.849085	1.421632
H229	H	0.945535	0.182404	0.433888
H230	H	1.278868	0.515737	0.767221
H231	H	1.612201	0.849070	1.100555
Br232	Br	0.912388	0.208131	0.216761
Br233	Br	1.245721	0.541464	0.550094
Br234	Br	1.579054	0.874797	0.883427
H235	H	0.496973	0.095546	0.163563
H236	H	0.830306	0.428879	0.496896
H237	H	1.163640	0.762213	0.830229
H238	H	0.327751	0.093051	-0.163567
H239	H	0.661084	0.426384	0.169767
H240	H	0.994417	0.759718	0.503100
