data_functionalizedCrystal
_audit_creation_method	'MofGen! by Chris Wilmer'
_symmetry_space_group_name_H-M	'P1'
_symmetry_Int_Tables_number	1
_symmetry_cell_setting	triclinic
loop_
_symmetry_equiv_pos_as_xyz
  x,y,z
_cell_length_a	19.188905
_cell_length_b	19.188930
_cell_length_c	14.586319
_cell_angle_alpha	89.991095
_cell_angle_beta	89.989373
_cell_angle_gamma	83.139668
loop_
_atom_site_label
_atom_site_type_symbol
_atom_site_fract_x
_atom_site_fract_y
_atom_site_fract_z
O1	O	0.926155	0.087084	-0.076402
O2	O	0.722841	0.098836	-0.076372
O3	O	0.830365	-0.008696	-0.076370
O4	O	0.818631	0.194616	-0.076404
O5	O	0.830358	-0.008698	0.076111
O6	O	0.722834	0.098834	0.076109
O7	O	0.926148	0.087082	0.076079
Cu8	Cu	0.824490	0.092958	0.090017
Cu9	Cu	0.824499	0.092960	-0.090309
O10	O	0.818624	0.194614	0.076077
C11	C	0.696826	0.098458	-0.000127
C12	C	0.619321	0.097324	-0.000115
C13	C	0.582933	0.096780	-0.083235
C14	C	0.510109	0.095707	-0.083246
C15	C	0.473678	0.095164	-0.000133
C16	C	0.510074	0.095712	0.082998
C17	C	0.582895	0.096792	0.083007
N18	N	0.364655	0.053735	0.061727
N19	N	0.295478	0.052707	0.061713
C20	C	0.254272	0.091911	-0.000154
N21	N	0.284857	0.132173	-0.062021
N22	N	0.354040	0.133197	-0.062010
C23	C	0.394716	0.093993	-0.000133
C24	C	0.138920	0.090205	-0.083292
C25	C	0.066094	0.089136	-0.083300
C26	C	0.066062	0.089134	0.082947
C27	C	0.138885	0.090209	0.082952
C28	C	0.175310	0.090742	-0.000170
C29	C	0.829982	-0.034708	-0.000127
C30	C	0.828841	-0.112213	-0.000118
C31	C	0.891933	-0.157142	-0.000123
C32	C	0.890861	-0.229966	-0.000138
C33	C	0.826694	-0.257857	-0.000129
C34	C	0.763594	-0.212917	-0.000129
C35	C	0.764668	-0.140095	-0.000124
N36	N	0.777644	-0.365858	0.051770
N37	N	0.776628	-0.435036	0.051767
C38	C	0.823456	-0.477265	-0.000147
N39	N	0.871348	-0.447703	-0.052047
N40	N	0.872366	-0.378519	-0.052040
C41	C	0.825523	-0.336819	-0.000135
C42	C	0.885390	-0.601159	-0.000169
C43	C	0.884315	-0.673984	-0.000189
C44	C	0.757047	-0.656933	-0.000172
C45	C	0.758123	-0.584110	-0.000161
C46	C	0.822296	-0.556228	-0.000155
C47	C	0.952163	0.087460	-0.000167
C48	C	1.029668	0.088594	-0.000186
C49	C	0.819007	0.220626	-0.000168
C50	C	0.820148	0.298131	-0.000182
N51	N	0.824489	0.092956	0.216849
N52	N	0.824505	0.092956	-0.217141
C53	C	0.872116	0.045357	0.451856
C54	C	0.872118	0.045355	0.547837
C55	C	0.776873	0.140558	0.547845
C56	C	0.776868	0.140556	0.451865
C57	C	0.824494	0.092956	0.403873
C58	C	0.824501	0.092956	0.595834
C59	C	0.824502	0.092955	0.699901
C60	C	0.824491	0.092956	0.299800
H61	H	0.480407	0.095271	0.150669
H62	H	0.036468	0.088698	-0.150988
N63	N	0.920755	-0.003281	0.596841
N64	N	0.919990	-0.067812	0.586122
H65	H	0.954340	-0.102168	0.620727
H66	H	0.036399	0.088696	0.150619
N67	N	0.728232	0.189172	0.596883
N68	N	0.728242	0.189169	0.682579
H69	H	0.693888	0.223504	0.717212
N70	N	0.691495	-0.685402	-0.000155
N71	N	0.635166	-0.645274	-0.000143
H72	H	0.588867	-0.665381	-0.000134
H73	H	0.168513	0.090648	0.150637
N74	N	0.957476	-0.128652	-0.000116
N75	N	0.972269	-0.089928	0.064160
H76	H	1.018560	-0.069805	0.064165
N77	N	0.955310	-0.275872	-0.000117
N78	N	0.968894	-0.318414	0.064161
H79	H	1.014411	-0.350834	0.064179
N80	N	0.728222	0.189172	0.402830
N81	N	0.684954	0.167126	0.349291
H82	H	0.650598	0.201457	0.314657
N83	N	0.920748	-0.003268	0.402819
N84	N	0.920737	-0.003267	0.317123
H85	H	0.955083	-0.037612	0.282491
N86	N	0.620128	0.097324	-0.168147
N87	N	0.587624	0.096840	-0.242356
H88	H	0.613894	0.097225	-0.302327
H89	H	0.711349	-0.235631	-0.000124
N90	N	0.620068	0.097359	0.167915
N91	N	0.605332	0.146447	0.223556
H92	H	0.631587	0.146848	0.283523
N93	N	0.472942	0.095137	-0.168162
N94	N	0.487685	0.046046	-0.223796
H95	H	0.461437	0.045641	-0.283769
N96	N	0.176122	0.090749	-0.168202
N97	N	0.143619	0.090269	-0.242413
H98	H	0.169891	0.090653	-0.302383
H99	H	0.713289	-0.103513	-0.000120
H100	H	0.937644	-0.578456	-0.000169
N101	N	0.948772	-0.719871	-0.000207
N102	N	1.006061	-0.694963	-0.000205
H103	H	1.051585	-0.727371	-0.000219
H104	H	0.706747	-0.547527	-0.000151
