data_functionalizedCrystal
_audit_creation_method	'MofGen! by Chris Wilmer'
_symmetry_space_group_name_H-M	'P1'
_symmetry_Int_Tables_number	1
_symmetry_cell_setting	triclinic
loop_
_symmetry_equiv_pos_as_xyz
  x,y,z
_cell_length_a	17.699083
_cell_length_b	22.610064
_cell_length_c	17.699083
_cell_angle_alpha	89.994649
_cell_angle_beta	96.716985
_cell_angle_gamma	90.009251
loop_
_atom_site_label
_atom_site_type_symbol
_atom_site_fract_x
_atom_site_fract_y
_atom_site_fract_z
O1	O	1.004088	0.049103	-0.095709
O2	O	0.783709	0.049122	-0.108162
O3	O	0.900125	0.049107	0.008253
O4	O	0.887672	0.049118	-0.212125
O5	O	0.900091	-0.049262	0.008254
O6	O	0.783675	-0.049247	-0.108162
O7	O	1.004054	-0.049266	-0.095709
Zn8	Zn	0.893859	-0.064875	-0.101936
Zn9	Zn	0.893904	0.064731	-0.101936
O10	O	0.887638	-0.049251	-0.212125
C11	C	0.755495	-0.000060	-0.107716
C12	C	0.671477	-0.000053	-0.106377
N13	N	0.893834	-0.153327	-0.101935
C14	C	0.622856	-0.000049	-0.174710
C15	C	0.543913	-0.000057	-0.173448
C16	C	0.513592	-0.000064	-0.103852
C17	C	0.562219	-0.000069	-0.035513
C18	C	0.641161	-0.000065	-0.036776
C19	C	0.243856	-0.000084	-0.030418
C20	C	0.164908	-0.000085	-0.029160
C21	C	0.146608	-0.000075	-0.167090
C22	C	0.225550	-0.000072	-0.168353
C23	C	0.274170	-0.000080	-0.100015
C24	C	0.359769	-0.000073	-0.101384
C25	C	0.427995	-0.000067	-0.102481
C26	C	0.939722	-0.561971	-0.147774
C27	C	0.939731	-0.623890	-0.147773
O28	O	0.978717	-0.655911	-0.186742
N29	N	0.893919	-0.654864	-0.101927
C30	C	0.848099	-0.623915	-0.056075
O31	O	0.809133	-0.655947	-0.017079
C32	C	0.848094	-0.561997	-0.056073
C33	C	0.893904	-0.531026	-0.101927
C34	C	0.985529	-0.531000	-0.193624
C35	C	0.985518	-0.469084	-0.193627
C36	C	0.939700	-0.438139	-0.147780
C37	C	0.893893	-0.469110	-0.101930
C38	C	0.802279	-0.531049	-0.010217
C39	C	0.802279	-0.469126	-0.010219
C40	C	0.848089	-0.438155	-0.056073
C41	C	0.848065	-0.376250	-0.056086
N42	N	0.893878	-0.345276	-0.101931
C43	C	0.939695	-0.376220	-0.147778
C44	C	0.848114	-0.753949	-0.056081
C45	C	0.848114	-0.815867	-0.056086
C46	C	0.939748	-0.815837	-0.147783
C47	C	0.939743	-0.753919	-0.147781
C48	C	0.893927	-0.722975	-0.101926
C49	C	0.939669	-0.246193	-0.147781
C50	C	0.939652	-0.184272	-0.147782
C51	C	0.848022	-0.184307	-0.056082
C52	C	0.848035	-0.246222	-0.056084
C53	C	0.893865	-0.277164	-0.101936
O54	O	0.809102	-0.344190	-0.017134
O55	O	0.978662	-0.344181	-0.186760
C56	C	1.032268	-0.000083	-0.096156
C57	C	1.116286	-0.000086	-0.097494
C58	C	0.899662	-0.000078	0.036451
C59	C	0.898323	-0.000078	0.120469
N60	N	0.893935	0.153183	-0.101930
C61	C	0.888102	-0.000065	-0.240322
C62	C	0.889440	-0.000061	-0.324340
C63	C	0.966656	-0.000085	0.169090
C64	C	0.965394	-0.000079	0.248033
C65	C	0.895798	-0.000071	0.278354
C66	C	0.827459	-0.000063	0.229727
C67	C	0.828722	-0.000064	0.150785
C68	C	0.822364	-0.000058	0.548090
C69	C	0.821106	-0.000058	0.627038
C70	C	0.959036	-0.000073	0.645338
C71	C	0.960299	-0.000074	0.566396
C72	C	0.891961	-0.000062	0.517776
C73	C	0.893330	-0.000067	0.432177
C74	C	0.894427	-0.000071	0.363951
H75	H	0.647537	-0.000043	-0.231384
F76	F	0.988514	-0.848782	-0.196575
F77	F	0.492170	-0.000051	-0.246178
H78	H	0.250232	-0.000063	-0.225025
H79	H	0.283434	-0.000091	0.025228
H80	H	1.021038	-0.000086	0.287618
F81	F	0.799346	-0.848821	-0.007292
F82	F	0.755992	-0.000055	0.099039
H83	H	1.022843	-0.556188	-0.230959
F84	F	1.040732	-0.000099	0.136828
F85	F	1.034373	-0.000082	0.534131
H86	H	0.107012	-0.000072	-0.222734
H87	H	1.014680	-0.000080	0.684934
F88	F	0.132641	-0.000093	0.044918
H89	H	0.764977	-0.556254	0.027123
H90	H	0.977045	-0.728706	-0.185120
H91	H	0.810716	-0.159100	-0.018757
H92	H	0.764429	-0.000053	0.651721
H93	H	0.766718	-0.000048	0.508512
H94	H	0.537526	-0.000083	0.021154
F95	F	0.692907	-0.000071	0.035954
H96	H	0.976955	-0.159058	-0.185126
H97	H	0.770792	-0.000053	0.254420
F98	F	0.988446	-0.279115	-0.196581
H99	H	1.022824	-0.443873	-0.230963
F100	F	0.799339	-0.721022	-0.007280
H101	H	0.764970	-0.443934	0.027123
F102	F	0.799272	-0.279185	-0.007289
