data_functionalizedCrystal
_audit_creation_method	'MofGen! by Chris Wilmer'
_symmetry_space_group_name_H-M	'P1'
_symmetry_Int_Tables_number	1
_symmetry_cell_setting	triclinic
loop_
_symmetry_equiv_pos_as_xyz
  x,y,z
_cell_length_a	18.050589
_cell_length_b	18.050591
_cell_length_c	21.395355
_cell_angle_alpha	89.970606
_cell_angle_beta	89.987098
_cell_angle_gamma	90.024669
loop_
_atom_site_label
_atom_site_type_symbol
_atom_site_fract_x
_atom_site_fract_y
_atom_site_fract_z
Zn1	Zn	-0.295816	1.135363	-0.354367
Zn2	Zn	0.204184	1.635363	0.145633
Zn3	Zn	-0.419988	1.135253	-0.249600
Zn4	Zn	0.080012	1.635253	0.250400
Zn5	Zn	-0.295808	1.011161	-0.249595
Zn6	Zn	0.204192	1.511161	0.250405
Zn7	Zn	-0.419961	1.011130	-0.354331
Zn8	Zn	0.080039	1.511130	0.145669
O9	O	-0.357893	1.073227	-0.301973
O10	O	0.142107	1.573227	0.198027
O11	O	-0.312302	1.239273	-0.340486
O12	O	0.187698	1.739273	0.159514
O13	O	-0.403523	1.118759	-0.161921
O14	O	0.096477	1.618759	0.338079
O15	O	-0.191885	1.027696	-0.263506
O16	O	0.308115	1.527696	0.236494
O17	O	-0.403530	1.239192	-0.263514
O18	O	0.096470	1.739192	0.236486
O19	O	-0.191890	1.118947	-0.340481
O20	O	0.308110	1.618947	0.159519
O21	O	-0.312289	1.027589	-0.161917
O22	O	0.187711	1.527589	0.338083
O23	O	-0.312263	0.907233	-0.263471
O24	O	0.187737	1.407233	0.236529
O25	O	-0.403485	1.027643	-0.442014
O26	O	0.096515	1.527643	0.057986
O27	O	-0.403477	0.907210	-0.340420
O28	O	0.096523	1.407210	0.159580
O29	O	-0.312276	1.118916	-0.442040
O30	O	0.187724	1.618916	0.057960
O31	O	-0.523909	1.118729	-0.263479
O32	O	-0.023909	1.618729	0.236521
O33	O	-0.523889	1.027536	-0.340425
O34	O	-0.023889	1.527536	0.159575
C35	C	-0.357867	0.880275	-0.301942
C36	C	0.142133	1.380275	0.198058
C37	C	-0.357874	0.797729	-0.301943
C38	C	0.142126	1.297729	0.198057
C39	C	-0.308220	0.548894	-0.260197
C40	C	0.191780	1.048894	0.239803
C41	C	-0.290145	0.598338	-0.317376
C42	C	0.209855	1.098338	0.182624
C43	C	-0.357912	0.500609	-0.301994
C44	C	0.142088	1.000609	0.198006
C45	C	-0.375933	0.598247	-0.244793
C46	C	0.124067	1.098247	0.255207
C47	C	-0.357891	0.646594	-0.301966
C48	C	0.142109	1.146594	0.198034
C49	C	-0.339802	0.548965	-0.359204
C50	C	0.160198	1.048965	0.140796
C51	C	-0.425621	0.548870	-0.286582
C52	C	0.074379	1.048870	0.213418
C53	C	-0.407572	0.598291	-0.343801
C54	C	0.092428	1.098291	0.156199
C55	C	-0.357922	0.416510	-0.302010
C56	C	0.142078	0.916510	0.197990
C57	C	-0.357881	0.730690	-0.301957
C58	C	0.142119	1.230690	0.198043
C59	C	-0.550845	1.073137	-0.301963
C60	C	-0.050845	1.573137	0.198037
C61	C	-0.633391	1.073167	-0.301979
C62	C	-0.133391	1.573167	0.198021
C63	C	-0.832858	1.023625	-0.343807
C64	C	-0.332858	1.523625	0.156193
C65	C	-0.882285	1.005516	-0.286633
C66	C	-0.382285	1.505516	0.213367
C67	C	-0.784521	1.073240	-0.301987
C68	C	-0.284521	1.573240	0.198013
C69	C	-0.882177	1.091386	-0.359168
C70	C	-0.382177	1.591386	0.140832
C71	C	-0.930506	1.073309	-0.302000
C72	C	-0.430506	1.573309	0.198000
C73	C	-0.832861	1.055095	-0.244783
C74	C	-0.332861	1.555095	0.255217
C75	C	-0.832748	1.140996	-0.317356
C76	C	-0.332748	1.640996	0.182644
C77	C	-0.882153	1.122913	-0.260142
C78	C	-0.382153	1.622913	0.239858
C79	C	-0.700423	1.073198	-0.301981
C80	C	-0.200423	1.573198	0.198019
C81	C	-1.014603	1.073351	-0.302000
C82	C	-0.514603	1.573351	0.198000
C83	C	-0.164188	1.073337	-0.301997
C84	C	0.335812	1.573337	0.198003
C85	C	-0.081642	1.073384	-0.302007
C86	C	0.418358	1.573384	0.197993
C87	C	-0.357878	1.073289	-0.465396
C88	C	0.142122	1.573289	0.034604
C89	C	-0.357872	1.073315	-0.535038
C90	C	0.142128	1.573315	-0.035038
C91	C	-0.357920	1.266933	-0.302005
C92	C	0.142080	1.766933	0.197995
C93	C	-0.357931	1.349478	-0.302018
C94	C	0.142069	1.849478	0.197982
C95	C	-0.310377	1.120839	-0.567765
C96	C	0.189623	1.620839	-0.067765
C97	C	-0.310345	1.120838	-0.633201
C98	C	0.189655	1.620838	-0.133201
C99	C	-0.357821	1.073321	-0.665906
C100	C	0.142179	1.573321	-0.165906
C101	C	-0.405319	1.025787	-0.633170
C102	C	0.094681	1.525787	-0.133170
C103	C	-0.405344	1.025785	-0.567736
C104	C	0.094656	1.525785	-0.067736
C105	C	-0.424690	1.067426	-0.769577
C106	C	0.075310	1.567426	-0.269577
C107	C	-0.424666	1.067434	-0.835010
C108	C	0.075334	1.567434	-0.335010
C109	C	-0.357743	1.073325	-0.867727
C110	C	0.142257	1.573325	-0.367727
C111	C	-0.290842	1.079224	-0.835003
C112	C	0.209158	1.579224	-0.335003
C113	C	-0.290867	1.079221	-0.769569
C114	C	0.209133	1.579221	-0.269569
C115	C	-0.357799	1.073318	-0.736858
C116	C	0.142201	1.573318	-0.236858
C117	C	-0.310210	1.120851	-0.971407
C118	C	0.189790	1.620851	-0.471407
C119	C	-0.310176	1.120844	-1.036844
C120	C	0.189824	1.620844	-0.536844
C121	C	-0.405157	1.025798	-1.036812
C122	C	0.094843	1.525798	-0.536812
C123	C	-0.405183	1.025800	-0.971377
C124	C	0.094817	1.525800	-0.471377
C125	C	-0.357711	1.073331	-0.938678
C126	C	0.142289	1.573331	-0.438678
C127	C	-0.357855	1.073208	-0.139185
C128	C	0.142145	1.573208	0.360815
C129	C	-0.357652	1.073326	-0.069544
C130	C	0.142348	1.573326	0.430456
H131	H	-0.391183	0.619897	-0.196430
H132	H	0.108817	1.119897	0.303570
H133	H	-0.482873	0.527126	-0.273537
H134	H	0.017127	1.027126	0.226463
H135	H	-0.811212	0.981606	-0.379123
H136	H	-0.311212	1.481606	0.120877
Br137	Br	-0.918547	0.910063	-0.264966
Br138	Br	-0.418547	1.410063	0.235034
Br139	Br	-0.796911	1.029453	-0.164168
Br140	Br	-0.296911	1.529453	0.335832
Br141	Br	-0.245782	1.185352	-0.927027
Br142	Br	0.254218	1.685352	-0.427027
H143	H	-0.903661	1.164900	-0.224741
H144	H	-0.403661	1.664900	0.275259
H145	H	-0.232874	0.620053	-0.330412
H146	H	0.267126	1.120053	0.169588
Br147	Br	-0.515459	1.059438	-0.879414
Br148	Br	-0.015459	1.559438	-0.379414
Br149	Br	-0.245725	1.185359	-1.081262
Br150	Br	0.254275	1.685359	-0.581262
Br151	Br	-0.477602	0.634212	-0.402758
Br152	Br	0.022398	1.134212	0.097242
Br153	Br	-0.314271	0.513039	-0.439836
Br154	Br	0.185729	1.013039	0.060164
H155	H	-0.903839	1.106706	-0.407520
H156	H	-0.403839	1.606706	0.092480
H157	H	-0.810975	1.198250	-0.330371
H158	H	-0.310975	1.698250	0.169629
H159	H	-0.479173	1.062429	-0.742944
H160	H	0.020827	1.562429	-0.242944
Br161	Br	-0.469580	0.961300	-1.081190
Br162	Br	0.030420	1.461300	-0.581190
Br163	Br	-0.245948	1.185341	-0.523392
Br164	Br	0.254052	1.685341	-0.023392
H165	H	-0.271666	1.159536	-0.659853
H166	H	0.228334	1.659536	-0.159853
Br167	Br	-0.469746	0.961294	-0.677554
Br168	Br	0.030254	1.461294	-0.177554
H169	H	-0.443863	0.987106	-0.944729
H170	H	0.056137	1.487106	-0.444729
H171	H	-0.444019	0.987081	-0.541089
H172	H	0.055981	1.487081	-0.041089
Br173	Br	-0.200078	1.087223	-0.725159
Br174	Br	0.299922	1.587223	-0.225159
H175	H	-0.266174	0.527208	-0.224906
H176	H	0.233826	1.027208	0.275094
Br177	Br	-0.200011	1.087227	-0.879396
Br178	Br	0.299989	1.587227	-0.379396
