data_functionalizedCrystal
_audit_creation_method	'MofGen! by Chris Wilmer'
_symmetry_space_group_name_H-M	'P1'
_symmetry_Int_Tables_number	1
_symmetry_cell_setting	triclinic
loop_
_symmetry_equiv_pos_as_xyz
  x,y,z
_cell_length_a	19.805407
_cell_length_b	18.101395
_cell_length_c	19.805398
_cell_angle_alpha	89.976545
_cell_angle_beta	89.984135
_cell_angle_gamma	90.031104
loop_
_atom_site_label
_atom_site_type_symbol
_atom_site_fract_x
_atom_site_fract_y
_atom_site_fract_z
Zn1	Zn	1.034689	-0.294859	-0.382731
Zn2	Zn	1.034602	-0.418699	-0.269548
Zn3	Zn	0.921511	-0.294876	-0.269556
Zn4	Zn	0.921458	-0.418663	-0.382695
O5	O	0.978065	-0.356774	-0.326132
O6	O	1.129394	-0.311295	-0.367729
O7	O	1.019586	-0.402296	-0.174832
O8	O	0.936583	-0.191241	-0.284587
O9	O	1.129330	-0.402279	-0.284574
O10	O	1.019734	-0.191228	-0.367737
O11	O	0.936498	-0.311323	-0.174838
O12	O	0.826787	-0.311289	-0.284552
O13	O	0.936492	-0.402218	-0.477416
O14	O	0.826748	-0.402235	-0.367674
O15	O	1.019683	-0.311260	-0.477443
O16	O	1.019534	-0.522327	-0.284538
O17	O	0.936408	-0.522301	-0.367667
C18	C	0.802209	-0.356760	-0.326110
C19	C	0.726977	-0.356772	-0.326117
C20	C	0.977974	-0.549185	-0.326112
C21	C	0.977997	-0.631499	-0.326127
C22	C	0.691630	-0.404199	-0.369329
C23	C	0.620942	-0.404200	-0.369339
C24	C	0.585601	-0.356778	-0.326132
C25	C	0.620953	-0.309345	-0.282919
C26	C	0.691640	-0.309341	-0.282913
C27	C	0.335880	-0.309362	-0.282941
C28	C	0.265187	-0.309372	-0.282948
C29	C	0.265181	-0.404221	-0.369367
C30	C	0.335868	-0.404216	-0.369361
C31	C	0.371214	-0.356782	-0.326150
C32	C	0.447862	-0.356780	-0.326141
C33	C	0.508954	-0.356783	-0.326137
C34	C	0.978146	-0.930590	-0.326163
C35	C	0.925966	-0.899279	-0.378595
C36	C	0.925718	-0.813661	-0.378431
C37	C	0.978072	-0.782207	-0.326146
C38	C	0.958766	-0.813353	-0.254811
C39	C	0.958430	-0.898999	-0.255125
C40	C	1.049746	-0.898935	-0.344438
C41	C	1.049325	-0.813284	-0.346002
C42	C	0.978032	-0.698348	-0.326131
C43	C	0.978185	-1.014449	-0.326173
C44	C	1.154607	-0.356789	-0.326155
C45	C	1.229839	-0.356795	-0.326164
C46	C	0.978091	-0.356733	-0.502675
C47	C	0.978103	-0.356716	-0.577907
C48	C	0.978174	-0.163612	-0.326167
C49	C	0.978221	-0.081298	-0.326182
C50	C	1.021501	-0.309223	-1.039714
C51	C	1.021491	-0.309245	-0.969025
C52	C	0.978172	-0.356613	-0.933669
C53	C	0.934866	-0.403966	-0.969005
C54	C	0.934880	-0.403946	-1.039692
C55	C	0.934807	-0.404046	-0.683932
C56	C	0.934794	-0.404060	-0.613240
C57	C	1.021417	-0.309345	-0.613264
C58	C	1.021432	-0.309326	-0.683952
C59	C	0.978129	-0.356681	-0.719282
C60	C	0.978142	-0.356657	-0.795930
C61	C	0.978155	-0.356634	-0.857022
C62	C	0.978077	-0.356762	-0.150276
C63	C	0.978197	-0.356570	-0.075045
H64	H	0.720399	-0.442818	-0.404510
F65	F	0.729258	-0.258861	-0.236922
H66	H	1.056772	-0.270646	-1.068495
H67	H	1.067349	-0.920487	-0.395569
H68	H	0.236415	-0.270750	-0.247765
H69	H	1.063884	-0.792925	-0.398501
H70	H	0.937797	-0.792601	-0.431325
H71	H	0.899618	-0.442503	-1.068458
F72	F	0.227558	-0.454705	-0.415357
H73	H	0.995576	-0.792980	-0.214680
F74	F	0.890019	-0.925197	-0.234891
F75	F	1.067582	-0.258851	-0.931426
F76	F	0.583326	-0.454678	-0.415331
F77	F	1.102830	-0.785288	-0.299729
F78	F	0.888722	-0.454449	-0.721524
H79	H	0.899598	-0.442537	-0.940213
H80	H	0.937925	-0.919830	-0.431660
F81	F	1.067542	-0.258916	-0.721576
F82	F	0.888687	-0.454479	-0.575613
F83	F	0.373488	-0.258876	-0.236954
F84	F	0.857021	-0.927506	-0.362984
F85	F	1.100562	-0.925411	-0.294532
F86	F	0.373476	-0.454692	-0.415344
F87	F	0.891078	-0.785405	-0.234214
H88	H	0.592173	-0.270730	-0.247742
H89	H	0.872647	-0.793237	-0.366326
F90	F	1.067504	-0.258943	-0.575658
H91	H	0.994787	-0.919713	-0.214727
