data_functionalizedCrystal
_audit_creation_method	'MofGen! by Chris Wilmer'
_symmetry_space_group_name_H-M	'P1'
_symmetry_Int_Tables_number	1
_symmetry_cell_setting	triclinic
loop_
_symmetry_equiv_pos_as_xyz
  x,y,z
_cell_length_a	18.101398
_cell_length_b	10.686285
_cell_length_c	10.685880
_cell_angle_alpha	89.638885
_cell_angle_beta	85.613058
_cell_angle_gamma	85.627855
loop_
_atom_site_label
_atom_site_type_symbol
_atom_site_fract_x
_atom_site_fract_y
_atom_site_fract_z
Zn1	Zn	1.187402	-0.553838	-0.670769
Zn2	Zn	1.185898	-0.747575	-0.444941
Zn3	Zn	1.053390	-0.537813	-0.461047
Zn4	Zn	1.072281	-0.763536	-0.654689
O5	O	1.124743	-0.650690	-0.557862
O6	O	1.290836	-0.579564	-0.640801
O7	O	1.159786	-0.706364	-0.271528
O8	O	1.063891	-0.364394	-0.502337
O9	O	1.289731	-0.721902	-0.474887
O10	O	1.162349	-0.376166	-0.656419
O11	O	1.062433	-0.552253	-0.283362
O12	O	0.952263	-0.567730	-0.486746
O13	O	1.096086	-0.749105	-0.832371
O14	O	0.966141	-0.733567	-0.629013
O15	O	1.180665	-0.595041	-0.844185
O16	O	1.178103	-0.925238	-0.459295
O17	O	1.094628	-0.936964	-0.613395
C18	C	1.138274	-0.976620	-0.532880
C19	C	1.144132	-1.116057	-0.522234
C20	C	0.932331	-0.650643	-0.557883
C21	C	0.850019	-0.650654	-0.557919
C22	C	0.550929	-0.650724	-0.557861
C23	C	0.591007	-0.755497	-0.646858
C24	C	0.676632	-0.755222	-0.647278
C25	C	0.699311	-0.650691	-0.557890
C26	C	0.664482	-0.521324	-0.604126
C27	C	0.578895	-0.521961	-0.604768
C28	C	0.577439	-0.674136	-0.422485
C29	C	0.663245	-0.677090	-0.422973
C30	C	0.783170	-0.650664	-0.557905
C31	C	0.467069	-0.650743	-0.557850
C32	C	1.317906	-0.650740	-0.557841
C33	C	1.400220	-0.650761	-0.557832
C34	C	1.140651	-0.675641	-0.885069
C35	C	1.147430	-0.686273	-1.024505
C36	C	1.111180	-0.323490	-0.582968
C37	C	1.105401	-0.184057	-0.593667
C38	C	1.108935	-0.625747	-0.231934
C39	C	1.102285	-0.614761	-0.092526
H40	H	1.067760	-1.135602	-0.662970
Cl41	Cl	0.702936	-0.487905	-0.755821
Cl42	Cl	0.686016	-0.398206	-0.507865
H43	H	1.191273	-0.755639	-1.072948
H44	H	0.558194	-0.766326	-0.382408
H45	H	1.181770	-1.164519	-0.452919
Cl46	Cl	0.698819	-0.823996	-0.369424
H47	H	0.678221	-0.605510	-0.352285
Cl48	Cl	0.553504	-0.489470	-0.758028
Cl49	Cl	0.713685	-0.903842	-0.600798
Cl50	Cl	0.563845	-0.904629	-0.600692
H51	H	1.058442	-0.545405	-1.044088
H52	H	0.573324	-0.741051	-0.746369
Cl53	Cl	0.714225	-0.732548	-0.801827
Cl54	Cl	0.536198	-0.556126	-0.319912
H55	H	0.551779	-0.441667	-0.543491
