data_functionalizedCrystal
_audit_creation_method	'MofGen! by Chris Wilmer'
_symmetry_space_group_name_H-M	'P1'
_symmetry_Int_Tables_number	1
_symmetry_cell_setting	triclinic
loop_
_symmetry_equiv_pos_as_xyz
  x,y,z
_cell_length_a	10.685940
_cell_length_b	10.686285
_cell_length_c	10.686551
_cell_angle_alpha	80.915481
_cell_angle_beta	98.400210
_cell_angle_gamma	90.326116
loop_
_atom_site_label
_atom_site_type_symbol
_atom_site_fract_x
_atom_site_fract_y
_atom_site_fract_z
Zn1	Zn	2.015951	0.282571	0.846355
Zn2	Zn	2.015849	0.511160	0.617845
Zn3	Zn	1.789889	0.317718	0.615351
Zn4	Zn	1.819967	0.511061	0.813788
O5	O	1.910414	0.405628	0.723335
O6	O	2.192523	0.298226	0.830716
O7	O	1.973244	0.500250	0.438835
O8	O	1.807331	0.136476	0.658581
O9	O	2.192448	0.466169	0.662830
O10	O	1.973418	0.110654	0.828299
O11	O	1.807232	0.358129	0.437003
O12	O	1.617293	0.358034	0.627001
O13	O	1.858595	0.466001	0.996787
O14	O	1.639392	0.500082	0.772791
O15	O	2.002584	0.298131	1.020714
O16	O	2.002410	0.687726	0.631251
O17	O	1.858496	0.687654	0.775209
C18	C	1.582556	0.432862	0.696092
C19	C	1.442301	0.444541	0.684466
C20	C	1.933742	0.733470	0.699997
C21	C	1.943840	0.873709	0.690065
C22	C	1.933956	0.378134	1.056375
C23	C	1.943988	0.366418	1.198297
C24	C	2.239552	0.378288	0.750684
C25	C	2.379811	0.366637	0.762339
C26	C	1.887031	0.076500	0.746795
C27	C	1.877067	-0.063755	0.756792
C28	C	1.887029	0.432917	0.391603
C29	C	1.877216	0.444257	0.249727
H30	H	2.388499	0.520147	0.608877
C31	C	2.452498	0.264483	0.864460
N32	N	2.507247	0.187543	0.941378
C33	C	1.789614	0.546396	1.162533
N34	N	1.723628	0.623326	1.096850
H35	H	2.008839	0.290814	1.262848
H36	H	1.812174	0.882498	0.821519
C37	C	2.031503	0.946326	0.602604
N38	N	2.097530	1.001022	0.536730
