data_functionalizedCrystal
_audit_creation_method	'MofGen! by Chris Wilmer'
_symmetry_space_group_name_H-M	'P1'
_symmetry_Int_Tables_number	1
_symmetry_cell_setting	triclinic
loop_
_symmetry_equiv_pos_as_xyz
  x,y,z
_cell_length_a	17.699083
_cell_length_b	19.188930
_cell_length_c	16.176319
_cell_angle_alpha	89.988074
_cell_angle_beta	89.998611
_cell_angle_gamma	83.213899
loop_
_atom_site_label
_atom_site_type_symbol
_atom_site_fract_x
_atom_site_fract_y
_atom_site_fract_z
O1	O	1.003963	0.088294	-0.068640
O2	O	0.783569	0.099782	-0.068668
O3	O	0.900126	-0.007610	-0.068637
O4	O	0.887406	0.195687	-0.068671
O5	O	0.900110	-0.007617	0.068856
O6	O	0.783553	0.099775	0.068825
O7	O	1.003947	0.088288	0.068853
Cu8	Cu	0.893748	0.094031	0.081393
Cu9	Cu	0.893767	0.094039	-0.081208
O10	O	0.887390	0.195680	0.068822
C11	C	0.755365	0.099367	0.000075
C12	C	0.671348	0.098132	0.000065
C13	C	0.622644	0.161169	0.000055
C14	C	0.543702	0.160004	0.000065
C15	C	0.513466	0.095802	0.000081
C16	C	0.562176	0.032761	0.000093
C17	C	0.641117	0.033926	0.000088
C18	C	0.243819	0.028060	0.000115
C19	C	0.164873	0.026900	0.000117
C20	C	0.146405	0.154139	0.000092
C21	C	0.225345	0.155304	0.000087
C22	C	0.274049	0.092263	0.000104
C23	C	0.359646	0.093526	0.000094
C24	C	0.427870	0.094538	0.000085
C25	C	0.899706	-0.033625	0.000112
C26	C	0.898469	-0.111131	0.000119
C27	C	0.966861	-0.155978	0.000131
C28	C	0.965699	-0.228804	0.000118
C29	C	0.896142	-0.256778	0.000108
C30	C	0.827741	-0.211921	0.000091
C31	C	0.828905	-0.139098	0.000096
N32	N	0.842968	-0.364845	0.046893
N33	N	0.841868	-0.434025	0.046890
C34	C	0.892632	-0.476191	0.000091
N35	N	0.944550	-0.446565	-0.046694
N36	N	0.945653	-0.377379	-0.046687
C37	C	0.894873	-0.335742	0.000102
C38	C	0.959769	-0.600004	0.000088
C39	C	0.958604	-0.672830	0.000070
C40	C	0.820644	-0.655946	0.000051
C41	C	0.821811	-0.583121	0.000061
C42	C	0.891375	-0.555155	0.000084
C43	C	1.032151	0.088703	0.000108
C44	C	1.116167	0.089938	0.000113
C45	C	0.887810	0.221695	0.000071
C46	C	0.889046	0.299201	0.000059
N47	N	0.893741	0.094025	0.195758
N48	N	0.893781	0.094039	-0.195574
C49	C	0.945367	0.046491	0.239036
C50	C	0.945371	0.046490	0.325584
C51	C	0.893751	0.094027	0.368851
C52	C	0.842119	0.141563	0.325567
C53	C	0.842112	0.141560	0.239022
C54	C	0.842145	0.141576	0.674595
C55	C	0.842157	0.141577	0.761147
C56	C	0.945404	0.046506	0.761157
C57	C	0.945397	0.046503	0.674612
C58	C	0.893763	0.094036	0.631335
C59	C	0.893758	0.094036	0.537491
C60	C	0.893759	0.094031	0.462694
H61	H	0.504050	0.211335	0.000056
H62	H	0.106741	0.205470	0.000082
C63	C	0.528918	-0.037860	0.000109
H64	H	0.474929	-0.029527	0.000101
H65	H	0.545651	-0.063814	0.048059
H66	H	0.545651	-0.063805	-0.047841
H67	H	0.140258	-0.025384	0.000131
H68	H	0.766119	-0.546605	0.000056
H69	H	0.249959	0.207584	0.000070
H70	H	1.023506	-0.133213	0.000147
C71	C	0.655901	0.231790	0.000035
H72	H	0.709891	0.223458	0.000026
H73	H	0.639170	0.257739	0.047977
H74	H	0.639165	0.257740	-0.047922
C75	C	1.002196	-0.005788	0.808760
H76	H	1.032943	-0.034094	0.770595
H77	H	0.975074	-0.034823	0.842532
H78	H	1.033621	0.019296	0.842510
C79	C	0.785359	0.193858	0.808740
H80	H	0.754598	0.222159	0.770572
H81	H	0.812477	0.222897	0.842494
H82	H	0.753949	0.168760	0.842508
H83	H	0.987405	0.007784	0.203814
C84	C	0.785326	0.193850	0.191416
H85	H	0.754588	0.222167	0.229578
H86	H	0.753904	0.168769	0.157665
H87	H	0.812455	0.222884	0.157643
C88	C	0.297383	-0.041282	0.000128
H89	H	0.268067	-0.079683	0.000129
H90	H	0.328562	-0.043477	0.048074
H91	H	0.328560	-0.043472	-0.047826
H92	H	0.800085	0.180266	0.360800
H93	H	0.680771	-0.017406	0.000096
C94	C	1.040933	-0.278144	0.000138
H95	H	1.082529	-0.251058	0.000157
H96	H	1.043357	-0.306897	-0.047808
H97	H	1.043332	-0.306910	0.048092
C98	C	0.751230	-0.242690	0.000084
H99	H	0.760332	-0.292485	0.000091
H100	H	0.723084	-0.227279	-0.047866
H101	H	0.723076	-0.227296	0.048033
C102	C	0.785370	0.193877	0.626998
H103	H	0.792754	0.187070	0.569257
H104	H	0.793449	0.240460	0.641176
H105	H	0.734879	0.186362	0.641185
C106	C	0.753671	-0.089763	0.000090
H107	H	0.712077	-0.116851	0.000086
H108	H	0.751263	-0.060990	-0.047852
H109	H	0.751254	-0.061019	0.048048
C110	C	1.036285	-0.569237	0.000104
H111	H	1.076851	-0.606380	0.000097
H112	H	1.039602	-0.541192	0.048054
H113	H	1.039610	-0.541168	-0.047845
H114	H	0.764009	-0.678722	0.000039
C115	C	1.033839	-0.722163	0.000085
H116	H	1.075432	-0.695074	0.000108
H117	H	1.036265	-0.750912	-0.047863
H118	H	1.036240	-0.750931	0.048037
H119	H	0.987409	0.007784	0.360820
H120	H	0.987433	0.007796	0.639386
