data_functionalizedCrystal
_audit_creation_method	'MofGen! by Chris Wilmer'
_symmetry_space_group_name_H-M	'P1'
_symmetry_Int_Tables_number	1
_symmetry_cell_setting	triclinic
loop_
_symmetry_equiv_pos_as_xyz
  x,y,z
_cell_length_a	14.044191
_cell_length_b	16.992695
_cell_length_c	15.455313
_cell_angle_alpha	92.847427
_cell_angle_beta	87.077556
_cell_angle_gamma	91.930000
loop_
_atom_site_label
_atom_site_type_symbol
_atom_site_fract_x
_atom_site_fract_y
_atom_site_fract_z
O1	O	1.276020	0.186916	-0.072090
O2	O	1.776020	0.686916	0.427910
O3	O	0.999531	0.180052	-0.072101
O4	O	1.499531	0.680052	0.427899
O5	O	1.136667	0.069264	-0.072089
O6	O	1.636667	0.569264	0.427911
O7	O	1.138884	0.297704	-0.072102
O8	O	1.638884	0.797704	0.427898
O9	O	1.128822	0.075571	0.072173
O10	O	1.628822	0.575571	0.572173
O11	O	0.991687	0.186359	0.072161
O12	O	1.491687	0.686359	0.572161
O13	O	1.268176	0.193223	0.072171
O14	O	1.768176	0.693223	0.572171
Cu15	Cu	1.129215	0.190367	0.085338
Cu16	Cu	1.629215	0.690367	0.585338
Cu17	Cu	1.138492	0.182908	-0.085268
Cu18	Cu	1.638492	0.682908	0.414732
O19	O	1.131040	0.304011	0.072159
O20	O	1.631040	0.804011	0.572159
C21	C	1.129893	0.043005	0.000042
C22	C	1.629893	0.543005	0.500042
C23	C	1.121384	-0.044634	0.000041
C24	C	1.621384	0.455366	0.500041
C25	C	0.960067	0.180203	0.000028
C26	C	1.460067	0.680203	0.500028
C27	C	0.854163	0.171246	0.000024
C28	C	1.354163	0.671246	0.500024
C29	C	1.203481	-0.089131	0.000045
C30	C	1.703481	0.410869	0.500045
C31	C	1.195481	-0.171477	0.000037
C32	C	1.695481	0.328523	0.500037
C33	C	1.105383	-0.209326	0.000030
C34	C	1.605383	0.290674	0.500030
C35	C	1.023280	-0.164823	0.000024
C36	C	1.523280	0.335177	0.500024
C37	C	1.031281	-0.082478	0.000026
C38	C	1.531281	0.417522	0.500026
C39	C	1.072221	-0.455244	0.000017
C40	C	1.572221	0.044756	0.500017
C41	C	1.064226	-0.537595	0.000017
C42	C	1.564226	-0.037595	0.500017
C43	C	1.236428	-0.544243	0.000029
C44	C	1.736428	-0.044243	0.500029
C45	C	1.244421	-0.461896	0.000037
C46	C	1.744421	0.038104	0.500037
C47	C	1.162318	-0.417401	0.000025
C48	C	1.662318	0.082599	0.500025
N49	N	1.097203	-0.293497	0.000024
N50	N	1.597203	0.206503	0.500024
N51	N	1.170499	-0.333232	0.000025
N52	N	1.670499	0.166768	0.500025
C53	C	0.607447	0.218393	0.000030
C54	C	1.107447	0.718393	0.500030
C55	C	0.660265	0.154885	0.000033
C56	C	1.160265	0.654885	0.500033
C57	C	0.768160	0.163991	0.000028
C58	C	1.268160	0.663991	0.500028
C59	C	0.499543	0.209288	0.000035
C60	C	0.999543	0.709288	0.500035
C61	C	1.307640	0.193072	0.000040
C62	C	1.807640	0.693072	0.500040
C63	C	1.413544	0.202028	0.000038
C64	C	1.913544	0.702028	0.500038
C65	C	1.137814	0.330269	0.000027
C66	C	1.637814	0.830269	0.500027
C67	C	1.146323	0.417908	0.000022
C68	C	1.646323	0.917908	0.500022
N69	N	1.122697	0.195613	0.205333
N70	N	1.622697	0.695613	0.705333
N71	N	1.145016	0.177656	-0.205263
N72	N	1.645016	0.677656	0.294737
C73	C	1.180980	0.148566	0.250733
C74	C	1.680980	0.648566	0.750733
C75	C	1.176060	0.152542	0.341540
C76	C	1.676060	0.652542	0.841540
C77	C	1.112862	0.203568	0.386946
C78	C	1.612862	0.703568	0.886946
C79	C	1.054572	0.250616	0.341541
C80	C	1.554572	0.750616	0.841541
C81	C	1.059488	0.246636	0.250735
C82	C	1.559488	0.746636	0.750735
C83	C	1.091643	0.220725	0.658526
C84	C	1.591643	0.720725	1.158526
C85	C	1.086733	0.224703	0.749338
C86	C	1.586733	0.724703	1.249338
C87	C	1.208221	0.126627	0.749331
C88	C	1.708221	0.626627	1.249331
C89	C	1.213135	0.122655	0.658524
C90	C	1.713135	0.622655	1.158524
C91	C	1.154842	0.169700	0.613126
C92	C	1.654842	0.669700	1.113126
N93	N	1.107833	0.207634	0.479766
N94	N	1.607833	0.707634	0.979766
N95	N	1.159866	0.165629	0.520308
N96	N	1.659866	0.665629	1.020308
H97	H	1.276848	-0.058320	0.000056
H98	H	1.776848	0.441680	0.500056
F99	F	0.654254	0.298392	0.000018
F100	F	1.154254	0.798392	0.500018
F101	F	1.340316	-0.421622	0.000022
F102	F	1.840316	0.078378	0.500022
H103	H	1.264596	0.081106	0.621555
H104	H	1.764596	0.581106	1.121555
F105	F	1.248250	0.094261	0.202416
F106	F	1.748250	0.594261	0.702416
F107	F	1.282860	-0.218830	0.000043
F108	F	1.782860	0.281170	0.500043
F109	F	1.029606	0.270795	0.610217
F110	F	1.529606	0.770795	1.110217
H111	H	1.223518	0.114232	0.378504
H112	H	1.723518	0.614232	0.878504
H113	H	1.303271	-0.580480	0.000037
H114	H	1.803271	-0.080480	0.500037
F115	F	0.927391	-0.205107	0.000007
F116	F	1.427391	0.294893	0.500007
F117	F	0.987305	0.304918	0.389866
F118	F	1.487305	0.804918	0.889866
F119	F	0.997451	0.296707	0.202419
F120	F	1.497451	0.796707	0.702419
F121	F	0.968327	-0.577874	0.000015
F122	F	1.468327	-0.077874	0.500015
H123	H	1.005367	-0.419026	0.000008
H124	H	1.505367	0.080974	0.500008
H125	H	0.624457	0.093673	-0.000025
H126	H	1.124457	0.593673	0.499975
F127	F	1.270254	0.076560	0.797652
F128	F	1.770254	0.576560	1.297652
H129	H	0.964429	-0.046250	0.000022
H130	H	1.464429	0.453750	0.500022
H131	H	1.035267	0.266257	0.786304
H132	H	1.535267	0.766257	1.286304
