data_functionalizedCrystal
_audit_creation_method	'MofGen! by Chris Wilmer'
_symmetry_space_group_name_H-M	'P1'
_symmetry_Int_Tables_number	1
_symmetry_cell_setting	triclinic
loop_
_symmetry_equiv_pos_as_xyz
  x,y,z
_cell_length_a	10.540535
_cell_length_b	9.616153
_cell_length_c	16.109301
_cell_angle_alpha	90.003684
_cell_angle_beta	83.992562
_cell_angle_gamma	90.004501
loop_
_atom_site_label
_atom_site_type_symbol
_atom_site_fract_x
_atom_site_fract_y
_atom_site_fract_z
O1	O	1.684226	0.115575	0.117145
O2	O	1.314654	0.115594	0.128188
O3	O	1.509592	0.115570	0.001698
O4	O	1.489287	0.115599	0.243636
O5	O	1.509566	-0.115722	0.001700
O6	O	1.314628	-0.115697	0.128191
O7	O	1.684199	-0.115717	0.117148
Zn8	Zn	1.499409	-0.152429	0.122670
Zn9	Zn	1.499444	0.152307	0.122666
O10	O	1.489261	-0.115692	0.243638
C11	C	1.267350	-0.000049	0.127362
C12	C	1.126437	-0.000042	0.124887
C13	C	1.091083	-0.000059	0.032533
C14	C	0.944519	-0.000597	0.029928
C15	C	0.916484	-0.131875	0.167046
C16	C	1.063222	-0.131972	0.169011
C17	C	1.063117	0.131059	0.170352
C18	C	0.916832	0.132778	0.166081
N19	N	1.499394	-0.360404	0.122672
C20	C	1.394803	-0.580761	0.190109
C21	C	1.395028	-0.419593	0.190361
C22	C	1.631837	-0.418858	0.142405
C23	C	1.631265	-0.580076	0.142883
C24	C	1.472868	-0.580324	0.035280
C25	C	1.469813	-0.419097	0.035846
C26	C	1.731503	-0.000070	0.117974
C27	C	1.872416	-0.000068	0.120449
C28	C	1.508757	-0.000077	-0.029281
C29	C	1.506291	-0.000078	-0.121591
N30	N	1.499469	0.360282	0.122658
C31	C	1.616229	-0.000062	-0.343192
C32	C	1.613902	-0.000051	-0.429927
C33	C	1.382615	-0.000044	-0.411465
C34	C	1.384943	-0.000045	-0.324732
C35	C	1.501754	-0.000062	-0.290598
C36	C	1.497099	-0.000048	-0.464066
C37	C	1.494575	-0.000036	-0.558107
C38	C	1.504279	-0.000072	-0.196551
C39	C	1.490097	-0.000043	0.274617
C40	C	1.492563	-0.000032	0.366927
H41	H	0.916572	-0.095649	-0.006333
H42	H	1.287512	-0.000033	-0.439267
C43	C	0.875354	-0.264916	0.123866
H44	H	0.902455	-0.344122	0.152525
H45	H	0.913120	-0.266430	0.067684
H46	H	0.785101	-0.266279	0.124760
C47	C	1.121030	0.266075	0.131422
H48	H	1.081503	0.343922	0.159761
H49	H	1.107288	0.269798	0.074120
H50	H	1.210037	0.267804	0.136377
C51	C	0.878849	0.264513	0.120282
H52	H	0.836094	0.238676	0.073549
H53	H	0.953253	0.316270	0.101819
H54	H	0.823734	0.319854	0.157226
H55	H	0.866842	0.141155	0.232145
C56	C	1.091779	0.132811	0.262143
H57	H	1.053262	0.212257	0.289291
H58	H	1.181416	0.136217	0.264423
H59	H	1.058320	0.051032	0.289347
H60	H	1.291718	-0.000041	-0.281907
H61	H	1.411551	-0.621252	0.254569
C62	C	1.148506	0.127587	-0.015390
H63	H	1.194561	0.182035	0.020491
H64	H	1.081900	0.181880	-0.034240
H65	H	1.204521	0.097584	-0.061985
H66	H	1.711344	-0.000073	-0.315404
C67	C	1.118095	-0.265584	0.126500
H68	H	1.208078	-0.266825	0.127327
H69	H	1.098187	-0.267966	0.070354
H70	H	1.081879	-0.344399	0.155606
H71	H	0.915712	0.093867	-0.006513
C72	C	1.664260	-0.364301	0.227552
H73	H	1.597265	-0.305917	0.251184
H74	H	1.741513	-0.312776	0.220177
H75	H	1.673977	-0.440564	0.263833
H76	H	1.296580	-0.380075	0.178488
C77	C	1.566108	-0.364696	-0.035220
H78	H	1.625885	-0.305218	-0.012768
H79	H	1.522077	-0.314369	-0.074079
H80	H	1.609802	-0.440956	-0.062647
C81	C	1.417965	-0.367456	0.277934
H82	H	1.427195	-0.444806	0.313491
H83	H	1.347458	-0.312625	0.300104
H84	H	1.493421	-0.312786	0.274233
C85	C	1.662922	-0.630853	0.229002
H86	H	1.676003	-0.552952	0.263368
H87	H	1.738165	-0.685847	0.222443
H88	H	1.594102	-0.685065	0.254335
C89	C	1.345220	-0.635292	0.009924
H90	H	1.306951	-0.694984	0.052396
H91	H	1.360076	-0.685509	-0.040947
H92	H	1.289864	-0.559283	0.002702
H93	H	1.372388	-0.380894	0.020888
H94	H	1.711573	-0.380515	0.094619
C95	C	1.150433	-0.127573	-0.014575
H96	H	1.196661	-0.180803	0.021796
H97	H	1.206556	-0.097476	-0.061088
H98	H	1.084686	-0.183126	-0.033482
C99	C	1.093038	-0.139551	0.260467
H100	H	1.015501	-0.142569	0.296256
H101	H	1.140587	-0.059833	0.273202
H102	H	1.141403	-0.220955	0.268367
H103	H	0.868177	-0.136397	0.233695
H104	H	1.296044	-0.619568	0.178418
H105	H	1.711580	-0.619073	0.095734
C106	C	1.575967	-0.631837	-0.032544
H107	H	1.634943	-0.689263	-0.007777
H108	H	1.619606	-0.554311	-0.058536
H109	H	1.536951	-0.683752	-0.073152
C110	C	1.739825	-0.000060	-0.487777
H111	H	1.809721	-0.000080	-0.455023
H112	H	1.743739	0.080597	-0.521993
H113	H	1.743713	-0.080726	-0.521998
