data_functionalizedCrystal
_audit_creation_method	'MofGen! by Chris Wilmer'
_symmetry_space_group_name_H-M	'P1'
_symmetry_Int_Tables_number	1
_symmetry_cell_setting	triclinic
loop_
_symmetry_equiv_pos_as_xyz
  x,y,z
_cell_length_a	14.519709
_cell_length_b	22.610064
_cell_length_c	14.519709
_cell_angle_alpha	89.995658
_cell_angle_beta	83.680146
_cell_angle_gamma	89.997894
loop_
_atom_site_label
_atom_site_type_symbol
_atom_site_fract_x
_atom_site_fract_y
_atom_site_fract_z
O1	O	-1.223874	0.049112	-0.120879
O2	O	-0.973874	0.299112	0.129121
O3	O	-0.723874	0.549112	0.379121
O4	O	-0.473874	0.799112	0.629121
O5	O	-0.955397	0.049133	-0.135115
O6	O	-0.705397	0.299133	0.114885
O7	O	-0.455397	0.549133	0.364885
O8	O	-0.205397	0.799133	0.614885
O9	O	-1.096754	0.049105	0.006241
O10	O	-0.846754	0.299105	0.256241
O11	O	-0.596754	0.549105	0.506241
O12	O	-0.346754	0.799105	0.756241
O13	O	-1.082517	0.049139	-0.262235
O14	O	-0.832517	0.299139	-0.012235
O15	O	-0.582517	0.549139	0.237765
O16	O	-0.332517	0.799139	0.487765
O17	O	-1.096729	-0.049264	0.006221
O18	O	-0.846729	0.200736	0.256221
O19	O	-0.596729	0.450736	0.506221
O20	O	-0.346729	0.700736	0.756221
O21	O	-0.955372	-0.049236	-0.135136
O22	O	-0.705372	0.200764	0.114864
O23	O	-0.455372	0.450764	0.364864
O24	O	-0.205372	0.700764	0.614864
O25	O	-1.223849	-0.049257	-0.120899
O26	O	-0.973849	0.200743	0.129101
O27	O	-0.723849	0.450743	0.379101
O28	O	-0.473849	0.700743	0.629101
Zn29	Zn	-1.089606	-0.064865	-0.128021
Zn30	Zn	-0.839606	0.185135	0.121979
Zn31	Zn	-0.589606	0.435135	0.371979
Zn32	Zn	-0.339606	0.685135	0.621979
Zn33	Zn	-1.089639	0.064740	-0.127994
Zn34	Zn	-0.839639	0.314740	0.122006
Zn35	Zn	-0.589639	0.564740	0.372006
Zn36	Zn	-0.339639	0.814740	0.622006
O37	O	-1.082492	-0.049230	-0.262256
O38	O	-0.832492	0.200770	-0.012256
O39	O	-0.582492	0.450770	0.237744
O40	O	-0.332492	0.700770	0.487744
C41	C	-0.921025	-0.000049	-0.134462
C42	C	-0.671025	0.249951	0.115538
C43	C	-0.421025	0.499951	0.365538
C44	C	-0.171025	0.749951	0.615538
C45	C	-0.818643	-0.000042	-0.132474
C46	C	-0.568643	0.249958	0.117526
C47	C	-0.318643	0.499958	0.367526
C48	C	-0.068643	0.749958	0.617526
N49	N	-1.089591	-0.153318	-0.128039
N50	N	-0.839591	0.096682	0.121961
N51	N	-0.589591	0.346682	0.371961
N52	N	-0.339591	0.596682	0.621961
C53	C	-0.443748	-0.000068	-0.125154
C54	C	-0.193748	0.249932	0.124846
C55	C	0.056252	0.499932	0.374846
C56	C	0.306252	0.749932	0.624846
C57	C	-0.548056	-0.000060	-0.127187
C58	C	-0.298056	0.249940	0.122813
C59	C	-0.048056	0.499940	0.372813
C60	C	0.201944	0.749940	0.622813
C61	C	-0.631192	-0.000054	-0.128814
C62	C	-0.381192	0.249946	0.121186
C63	C	-0.131192	0.499946	0.371186
C64	C	0.118808	0.749946	0.621186
C65	C	-0.735507	-0.000048	-0.130847
C66	C	-0.485507	0.249952	0.119153
C67	C	-0.235507	0.499952	0.369153
C68	C	0.014493	0.749952	0.619153
C69	C	-1.152235	-0.561971	-0.065411
C70	C	-0.902235	-0.311971	0.184589
C71	C	-0.652235	-0.061971	0.434589
C72	C	-0.402235	0.188029	0.684589
C73	C	-1.152240	-0.623891	-0.065404
C74	C	-0.902240	-0.373891	0.184596
C75	C	-0.652240	-0.123891	0.434596
C76	C	-0.402240	0.126109	0.684596
O77	O	-1.205463	-0.655920	-0.012169
O78	O	-0.955463	-0.405920	0.237831
O79	O	-0.705463	-0.155920	0.487831
O80	O	-0.455463	0.094080	0.737831
N81	N	-1.089639	-0.654855	-0.127975
N82	N	-0.839639	-0.404855	0.122025
N83	N	-0.589639	-0.154855	0.372025
N84	N	-0.339639	0.095145	0.622025
C85	C	-1.027022	-0.623895	-0.190550
C86	C	-0.777022	-0.373895	0.059450
C87	C	-0.527022	-0.123895	0.309450
C88	C	-0.277022	0.126105	0.559450
O89	O	-0.973775	-0.655918	-0.243770
O90	O	-0.723775	-0.405918	0.006230
O91	O	-0.473775	-0.155918	0.256230
O92	O	-0.223775	0.094082	0.506230
C93	C	-1.027014	-0.561976	-0.190551
C94	C	-0.777014	-0.311976	0.059449
C95	C	-0.527014	-0.061976	0.309449
C96	C	-0.277014	0.188024	0.559449
C97	C	-1.089626	-0.531016	-0.127983
C98	C	-0.839626	-0.281016	0.122017
C99	C	-0.589626	-0.031016	0.372017
C100	C	-0.339626	0.218984	0.622017
C101	C	-1.214841	-0.531011	-0.002846
C102	C	-0.964841	-0.281011	0.247154
C103	C	-0.714841	-0.031011	0.497154
C104	C	-0.464841	0.218989	0.747154
C105	C	-1.214837	-0.469095	-0.002855
C106	C	-0.964837	-0.219095	0.247145
C107	C	-0.714837	0.030905	0.497145
C108	C	-0.464837	0.280905	0.747145
C109	C	-1.152227	-0.438140	-0.065427
C110	C	-0.902227	-0.188140	0.184573
C111	C	-0.652227	0.061860	0.434573
C112	C	-0.402227	0.311860	0.684573
C113	C	-1.089622	-0.469100	-0.127991
C114	C	-0.839622	-0.219100	0.122009
C115	C	-0.589622	0.030900	0.372009
C116	C	-0.339622	0.280900	0.622009
C117	C	-0.964394	-0.531018	-0.253121
C118	C	-0.714394	-0.281018	-0.003121
C119	C	-0.464394	-0.031018	0.246879
C120	C	-0.214394	0.218982	0.496879
C121	C	-0.964391	-0.469095	-0.253117
C122	C	-0.714391	-0.219095	-0.003117
C123	C	-0.464391	0.030905	0.246883
C124	C	-0.214391	0.280905	0.496883
C125	C	-1.027002	-0.438135	-0.190548
C126	C	-0.777002	-0.188135	0.059452
C127	C	-0.527002	0.061865	0.309452
C128	C	-0.277002	0.311865	0.559452
C129	C	-1.027009	-0.376230	-0.190571
C130	C	-0.777009	-0.126230	0.059429
C131	C	-0.527009	0.123770	0.309429
C132	C	-0.277009	0.373770	0.559429
N133	N	-1.089610	-0.345266	-0.128000
N134	N	-0.839610	-0.095266	0.122000
N135	N	-0.589610	0.154734	0.372000
N136	N	-0.339610	0.404734	0.622000
C137	C	-1.152219	-0.376221	-0.065428
C138	C	-0.902219	-0.126221	0.184572
C139	C	-0.652219	0.123779	0.434572
C140	C	-0.402219	0.373779	0.684572
C141	C	-1.027044	-0.753929	-0.190541
C142	C	-0.777044	-0.503929	0.059459
C143	C	-0.527044	-0.253929	0.309459
C144	C	-0.277044	-0.003929	0.559459
C145	C	-1.027056	-0.815847	-0.190544
C146	C	-0.777056	-0.565847	0.059456
C147	C	-0.527056	-0.315847	0.309456
C148	C	-0.277056	-0.065847	0.559456
C149	C	-1.152272	-0.815838	-0.065397
C150	C	-0.902272	-0.565838	0.184603
C151	C	-0.652272	-0.315838	0.434603
C152	C	-0.402272	-0.065838	0.684603
C153	C	-1.152264	-0.753919	-0.065399
C154	C	-0.902264	-0.503919	0.184601
C155	C	-0.652264	-0.253919	0.434601
C156	C	-0.402264	-0.003919	0.684601
C157	C	-1.089645	-0.722965	-0.127970
C158	C	-0.839645	-0.472965	0.122030
C159	C	-0.589645	-0.222965	0.372030
C160	C	-0.339645	0.027035	0.622030
C161	C	-1.152207	-0.246194	-0.065450
C162	C	-0.902207	0.003806	0.184550
C163	C	-0.652207	0.253806	0.434550
C164	C	-0.402207	0.503806	0.684550
C165	C	-1.152200	-0.184273	-0.065467
C166	C	-0.902200	0.065727	0.184533
C167	C	-0.652200	0.315727	0.434533
C168	C	-0.402200	0.565727	0.684533
C169	C	-1.026981	-0.184287	-0.190610
C170	C	-0.776981	0.065713	0.059390
C171	C	-0.526981	0.315713	0.309390
C172	C	-0.276981	0.565713	0.559390
C173	C	-1.026991	-0.246202	-0.190598
C174	C	-0.776991	0.003798	0.059402
C175	C	-0.526991	0.253798	0.309402
C176	C	-0.276991	0.503798	0.559402
C177	C	-1.089607	-0.277154	-0.128010
C178	C	-0.839607	-0.027154	0.121990
C179	C	-0.589607	0.222846	0.371990
C180	C	-0.339607	0.472846	0.621990
O181	O	-0.973810	-0.344161	-0.243777
O182	O	-0.723810	-0.094161	0.006223
O183	O	-0.473810	0.155839	0.256223
O184	O	-0.223810	0.405839	0.506223
O185	O	-1.205449	-0.344191	-0.012209
O186	O	-0.955449	-0.094191	0.237791
O187	O	-0.705449	0.155809	0.487791
O188	O	-0.455449	0.405809	0.737791
C189	C	-0.258221	-0.000072	-0.121553
C190	C	-0.008221	0.249928	0.128447
C191	C	0.241779	0.499928	0.378447
C192	C	0.491779	0.749928	0.628447
C193	C	-0.360602	-0.000071	-0.123541
C194	C	-0.110602	0.249929	0.126459
C195	C	0.139398	0.499929	0.376459
C196	C	0.389398	0.749929	0.626459
C197	C	-1.096078	-0.000082	0.040591
C198	C	-0.846078	0.249918	0.290591
C199	C	-0.596078	0.499918	0.540591
C200	C	-0.346078	0.749918	0.790591
C201	C	-1.094089	-0.000091	0.142972
C202	C	-0.844089	0.249909	0.392972
C203	C	-0.594089	0.499909	0.642972
C204	C	-0.344089	0.749909	0.892972
N205	N	-1.089662	0.153193	-0.127968
N206	N	-0.839662	0.403193	0.122032
N207	N	-0.589662	0.653193	0.372032
N208	N	-0.339662	0.903193	0.622032
C209	C	-1.086770	-0.000107	0.517868
C210	C	-0.836770	0.249893	0.767868
C211	C	-0.586770	0.499893	1.017868
C212	C	-0.336770	0.749893	1.267868
C213	C	-1.088803	-0.000102	0.413560
C214	C	-0.838803	0.249898	0.663560
C215	C	-0.588803	0.499898	0.913560
C216	C	-0.338803	0.749898	1.163560
C217	C	-1.090430	-0.000099	0.330423
C218	C	-0.840430	0.249901	0.580423
C219	C	-0.590430	0.499901	0.830423
C220	C	-0.340430	0.749901	1.080423
C221	C	-1.092463	-0.000094	0.226109
C222	C	-0.842463	0.249906	0.476109
C223	C	-0.592463	0.499906	0.726109
C224	C	-0.342463	0.749906	0.976109
C225	C	-1.083168	-0.000062	0.703394
C226	C	-0.833168	0.249938	0.953394
C227	C	-0.583168	0.499938	1.203394
C228	C	-0.333168	0.749938	1.453394
C229	C	-1.085156	-0.000112	0.601013
C230	C	-0.835156	0.249888	0.851013
C231	C	-0.585156	0.499888	1.101013
C232	C	-0.335156	0.749888	1.351013
H233	H	-1.203194	-0.271388	-0.014485
H234	H	-0.953194	-0.021388	0.235515
H235	H	-0.703194	0.228612	0.485515
H236	H	-0.453194	0.478612	0.735515
H237	H	-0.913410	-0.556217	-0.304070
H238	H	-0.663410	-0.306217	-0.054070
H239	H	-0.413410	-0.056217	0.195930
H240	H	-0.163410	0.193783	0.445930
O241	O	-0.959440	-0.150885	-0.258072
O242	O	-0.709440	0.099115	-0.008072
O243	O	-0.459440	0.349115	0.241928
O244	O	-0.209440	0.599115	0.491928
H245	H	-0.998314	-0.122660	-0.302980
H246	H	-0.748314	0.127340	-0.052980
H247	H	-0.498314	0.377340	0.197020
H248	H	-0.248314	0.627340	0.447020
O249	O	-0.896856	-0.435708	-0.320611
O250	O	-0.646856	-0.185708	-0.070611
O251	O	-0.396856	0.064292	0.179389
O252	O	-0.146856	0.314292	0.429389
H253	H	-0.853330	-0.467643	-0.364118
H254	H	-0.603330	-0.217643	-0.114118
H255	H	-0.353330	0.032357	0.135882
H256	H	-0.103330	0.282357	0.385882
H257	H	-0.976016	-0.271411	-0.241556
H258	H	-0.726016	-0.021411	0.008444
H259	H	-0.476016	0.228589	0.258444
H260	H	-0.226016	0.478589	0.508444
H261	H	-1.265818	-0.443891	0.048097
H262	H	-1.015818	-0.193891	0.298097
H263	H	-0.765818	0.056109	0.548097
H264	H	-0.515818	0.306109	0.798097
H265	H	-1.203247	-0.728715	-0.014450
H266	H	-0.953247	-0.478715	0.235550
H267	H	-0.703247	-0.228715	0.485550
H268	H	-0.453247	0.021285	0.735550
O269	O	-1.282387	-0.564394	0.064635
O270	O	-1.032387	-0.314394	0.314635
O271	O	-0.782387	-0.064394	0.564635
O272	O	-0.532387	0.185606	0.814635
H273	H	-1.325920	-0.532453	0.108124
H274	H	-1.075920	-0.282453	0.358124
H275	H	-0.825920	-0.032453	0.608124
H276	H	-0.575920	0.217547	0.858124
H277	H	-0.976082	-0.841050	-0.241503
H278	H	-0.726082	-0.591050	0.008497
H279	H	-0.476082	-0.341050	0.258497
H280	H	-0.226082	-0.091050	0.508497
O281	O	-0.959502	-0.720542	-0.258031
O282	O	-0.709502	-0.470542	-0.008031
O283	O	-0.459502	-0.220542	0.241969
O284	O	-0.209502	0.029458	0.491969
H285	H	-0.998382	-0.692321	-0.302941
H286	H	-0.748382	-0.442321	-0.052941
H287	H	-0.498382	-0.192321	0.197059
H288	H	-0.248382	0.057679	0.447059
H289	H	-1.203189	-0.159067	-0.014516
H290	H	-0.953189	0.090933	0.235484
H291	H	-0.703189	0.340933	0.485484
H292	H	-0.453189	0.590933	0.735484
H293	H	-1.203251	-0.841053	-0.014446
H294	H	-0.953251	-0.591053	0.235554
H295	H	-0.703251	-0.341053	0.485554
H296	H	-0.453251	-0.091053	0.735554
