data_functionalizedCrystal
_audit_creation_method	'MofGen! by Chris Wilmer'
_symmetry_space_group_name_H-M	'P1'
_symmetry_Int_Tables_number	1
_symmetry_cell_setting	triclinic
loop_
_symmetry_equiv_pos_as_xyz
  x,y,z
_cell_length_a	23.532407
_cell_length_b	23.532409
_cell_length_c	12.996460
_cell_angle_alpha	89.996917
_cell_angle_beta	89.999749
_cell_angle_gamma	82.849119
loop_
_atom_site_label
_atom_site_type_symbol
_atom_site_fract_x
_atom_site_fract_y
_atom_site_fract_z
O1	O	0.755261	0.069136	-0.085432
O2	O	0.589398	0.079139	-0.085461
O3	O	0.677330	-0.008794	-0.085447
O4	O	0.667328	0.157069	-0.085446
O5	O	0.677321	-0.008799	0.085687
O6	O	0.589388	0.079134	0.085673
O7	O	0.755252	0.069131	0.085702
Cu8	Cu	0.672319	0.074132	0.101313
Cu9	Cu	0.672330	0.074138	-0.101072
O10	O	0.667319	0.157064	0.085688
C11	C	0.568177	0.078882	0.000102
C12	C	0.504960	0.078116	0.000090
C13	C	0.677071	-0.030013	0.000117
C14	C	0.676304	-0.093230	0.000110
C15	C	0.673050	-0.366472	-0.093180
C16	C	0.673762	-0.307072	-0.093180
O17	O	0.674154	-0.276345	-0.172513
N18	N	0.674109	-0.277372	0.000106
C19	C	0.673751	-0.307077	0.093399
O20	O	0.674112	-0.276361	0.172747
C21	C	0.673043	-0.366477	0.093398
C22	C	0.672690	-0.396172	0.000105
C23	C	0.672698	-0.396168	-0.186466
C24	C	0.671985	-0.455564	-0.186465
C25	C	0.671625	-0.485264	-0.093179
C26	C	0.671977	-0.455568	0.000106
C27	C	0.672689	-0.396181	0.186690
C28	C	0.671982	-0.455584	0.186681
C29	C	0.671628	-0.485280	0.093388
C30	C	0.670904	-0.544664	0.093392
N31	N	0.670557	-0.574364	0.000105
C32	C	0.670917	-0.544664	-0.093180
C33	C	0.675238	-0.182334	0.093394
C34	C	0.675941	-0.122935	0.093396
C35	C	0.675953	-0.122934	-0.093184
C36	C	0.675246	-0.182333	-0.093185
C37	C	0.674890	-0.212033	0.000107
C38	C	0.669420	-0.669399	-0.093172
C39	C	0.668705	-0.728800	-0.093164
C40	C	0.668696	-0.728796	0.093416
C41	C	0.669408	-0.669400	0.093407
C42	C	0.669772	-0.639703	0.000105
O43	O	0.670514	-0.575429	0.172684
O44	O	0.670564	-0.575388	-0.172515
C45	C	0.105857	0.125349	0.000137
C46	C	0.046457	0.124638	0.000144
O47	O	0.009713	0.168424	0.000181
N48	N	0.023830	0.072362	0.000142
C49	C	0.060608	0.020794	0.000144
O50	O	0.035908	-0.023737	0.000144
C51	C	0.120007	0.021506	0.000145
C52	C	0.142630	0.073785	0.000136
C53	C	0.128481	0.177625	0.000130
C54	C	0.187877	0.178336	0.000122
C55	C	0.224649	0.126772	0.000121
C56	C	0.202026	0.074496	0.000128
C57	C	0.156783	-0.030062	0.000154
C58	C	0.216185	-0.029345	0.000156
C59	C	0.238808	0.022934	0.000148
C60	C	0.298195	0.023643	0.000119
N61	N	0.320821	0.075920	0.000121
C62	C	0.284049	0.127484	0.000122
C63	C	-0.064135	0.019302	0.000143
C64	C	-0.123533	0.018589	0.000135
C65	C	-0.137679	0.122434	0.000137
C66	C	-0.078280	0.123146	0.000138
C67	C	-0.041508	0.071578	0.000145
C68	C	0.408785	0.128974	0.000104
C69	C	0.468187	0.129680	0.000091
C70	C	0.482329	0.025836	0.000095
C71	C	0.422932	0.025129	0.000102
C72	C	0.386161	0.076702	0.000110
O73	O	0.334973	-0.020119	0.000086
O74	O	0.308757	0.172007	0.000136
C75	C	0.776472	0.069388	0.000137
C76	C	0.839689	0.070154	0.000141
C77	C	0.667579	0.178283	0.000121
C78	C	0.668345	0.241500	0.000122
N79	N	0.672316	0.074128	0.243660
N80	N	0.672338	0.074138	-0.243420
C81	C	0.672329	0.074138	0.663475
C82	C	0.672324	0.074137	0.546669
C83	C	0.672323	0.074134	0.453571
C84	C	0.672317	0.074132	0.336759
H85	H	0.668416	-0.752976	-0.169137
H86	H	0.668400	-0.752989	0.169366
Br87	Br	-0.187597	0.192415	0.000140
H88	H	-0.141947	-0.023982	0.000126
Br89	Br	0.669914	-0.629106	-0.219798
Br90	Br	-0.014235	-0.050690	0.000145
Br91	Br	0.673188	-0.355872	-0.313085
H92	H	0.671702	-0.479737	-0.262434
Br93	Br	0.498886	0.200636	0.000073
H94	H	0.138374	-0.072634	0.000162
Br95	Br	0.671503	-0.495888	0.313299
H96	H	0.669673	-0.645218	0.169374
H97	H	0.676218	-0.098760	0.169364
H98	H	0.674943	-0.206511	0.169368
Br99	Br	0.674767	-0.222628	-0.219800
Br100	Br	0.392228	-0.045822	0.000117
H101	H	0.512279	-0.016146	0.000090
H102	H	0.246123	-0.071339	0.000163
H103	H	0.378853	0.170970	0.000113
Br104	Br	0.218570	0.249291	0.000115
Br105	Br	0.078585	0.247615	0.000131
Br106	Br	0.676428	-0.082613	-0.219787
H107	H	0.672982	-0.372013	0.262659
H108	H	-0.059865	0.165717	0.000137
