data_functionalizedCrystal
_audit_creation_method	'MofGen! by Chris Wilmer'
_symmetry_space_group_name_H-M	'P1'
_symmetry_Int_Tables_number	1
_symmetry_cell_setting	triclinic
loop_
_symmetry_equiv_pos_as_xyz
  x,y,z
_cell_length_a	6.817900
_cell_length_b	11.102288
_cell_length_c	11.102291
_cell_angle_alpha	91.949285
_cell_angle_beta	108.605752
_cell_angle_gamma	108.605689
loop_
_atom_site_label
_atom_site_type_symbol
_atom_site_fract_x
_atom_site_fract_y
_atom_site_fract_z
V1	V	-4.111539	-0.175855	-0.396259
O2	O	-4.070571	0.008434	-0.388716
O3	O	-4.088316	-0.348675	-0.393549
O4	O	-4.088324	-0.173157	-0.569081
O5	O	-4.070563	-0.168299	-0.211968
V6	V	-4.588641	-0.153811	-0.374216
O7	O	-4.386882	-0.224210	-0.444611
O8	O	-4.763495	-0.105456	-0.325864
O9	O	-4.388657	0.019009	-0.376926
O10	O	-4.747006	-0.338100	-0.381760
O11	O	-4.747013	-0.161367	-0.558507
O12	O	-4.388650	-0.156509	-0.201394
C13	C	-3.938627	-0.390805	-0.387298
C14	C	-4.001094	-0.532088	-0.386234
C15	C	-4.214449	-0.604936	-0.392075
C16	C	-4.273137	-0.737688	-0.391086
C17	C	-3.905090	-0.724729	-0.378409
C18	C	-3.846410	-0.591981	-0.379407
C19	C	-3.938635	-0.166913	-0.611205
C20	C	-4.001104	-0.165850	-0.752488
C21	C	-4.214459	-0.171690	-0.825336
C22	C	-4.273130	-0.170667	-0.958082
C23	C	-3.905073	-0.157970	-0.945121
C24	C	-3.846401	-0.158984	-0.812376
C25	C	-4.426957	-0.179026	-0.832821
C26	C	-4.485628	-0.178003	-0.965567
C27	C	-4.201689	0.061132	-0.383174
C28	C	-4.118462	0.202414	-0.384246
C29	C	-4.201680	-0.162758	-0.159264
C30	C	-4.118448	-0.163813	-0.017979
H31	H	-3.672673	-0.154230	-0.753068
O32	O	-3.754912	-0.151138	-1.003419
C33	C	-3.720626	-0.039570	-1.062523
H34	H	-3.870132	-0.008062	-1.082279
H35	H	-3.696857	-0.061035	-1.157010
H36	H	-3.567168	0.040602	-0.996078
O37	O	-4.364606	-0.546640	-0.398884
C38	C	-4.398894	-0.487514	-0.510438
H39	H	-4.249388	-0.467745	-0.541948
H40	H	-4.422666	-0.393033	-0.488953
H41	H	-4.552351	-0.553951	-0.590617
H42	H	-3.672667	-0.532666	-0.374656
H43	H	-4.522353	-0.273804	-0.808358
H44	H	-3.779159	-0.773510	-0.372848
O45	O	-4.450147	-0.076217	-0.776425
C46	C	-4.390935	-0.077421	-0.642759
H47	H	-4.408299	-0.179489	-0.622187
H48	H	-4.504110	-0.042506	-0.605554
H49	H	-4.212521	-0.011242	-0.592450
O50	O	-4.480298	-0.808355	-0.396526
C51	C	-4.520730	-0.762585	-0.290056
H52	H	-4.356955	-0.710256	-0.209335
H53	H	-4.623607	-0.847031	-0.255156
H54	H	-4.614321	-0.693461	-0.319582
O55	O	-4.528810	-0.070284	-1.000343
C56	C	-4.382327	-0.003379	-1.060798
H57	H	-4.228007	-0.030852	-1.029323
H58	H	-4.334141	0.104524	-1.032382
H59	H	-4.466381	-0.029706	-1.169570
H60	H	-4.629325	-0.269897	-1.018414
