data_functionalizedCrystal
_audit_creation_method	'MofGen! by Chris Wilmer'
_symmetry_space_group_name_H-M	'P1'
_symmetry_Int_Tables_number	1
_symmetry_cell_setting	triclinic
loop_
_symmetry_equiv_pos_as_xyz
  x,y,z
_cell_length_a	19.121102
_cell_length_b	19.121063
_cell_length_c	19.120904
_cell_angle_alpha	94.741613
_cell_angle_beta	89.911827
_cell_angle_gamma	89.873098
loop_
_atom_site_label
_atom_site_type_symbol
_atom_site_fract_x
_atom_site_fract_y
_atom_site_fract_z
Zn1	Zn	1.039579	0.343506	0.456040
Zn2	Zn	1.372913	0.676839	0.789373
Zn3	Zn	1.706246	1.010172	1.122706
Zn4	Zn	1.039493	0.456149	0.343386
Zn5	Zn	1.372826	0.789482	0.676720
Zn6	Zn	1.706159	1.122815	1.010053
Zn7	Zn	0.927792	0.333518	0.333417
Zn8	Zn	1.261125	0.666851	0.666750
Zn9	Zn	1.594459	1.000184	1.000084
Zn10	Zn	0.917325	0.455677	0.455570
Zn11	Zn	1.250658	0.789010	0.788903
Zn12	Zn	1.583992	1.122343	1.122236
O13	O	0.981047	0.397212	0.397103
O14	O	1.314381	0.730546	0.730436
O15	O	1.647714	1.063879	1.063770
O16	O	1.137479	0.362826	0.445465
O17	O	1.470812	0.696159	0.778798
O18	O	1.804145	1.029492	1.112131
O19	O	1.029020	0.435899	0.243797
O20	O	1.362353	0.769232	0.577130
O21	O	1.695686	1.102566	0.910464
O22	O	0.947038	0.236577	0.345708
O23	O	1.280371	0.569910	0.679041
O24	O	1.613704	0.903244	1.012374
O25	O	1.137415	0.445584	0.362699
O26	O	1.470748	0.778917	0.696032
O27	O	1.804082	1.112251	1.029366
O28	O	1.029167	0.243915	0.435798
O29	O	1.362501	0.577248	0.769131
O30	O	1.695834	0.910582	1.102465
O31	O	0.946954	0.345802	0.236473
O32	O	1.280287	0.679136	0.569806
O33	O	1.613620	1.012469	0.903139
O34	O	0.828493	0.345345	0.345252
O35	O	1.161826	0.678678	0.678585
O36	O	1.495159	1.012011	1.011919
O37	O	0.929198	0.444780	0.553899
O38	O	1.262532	0.778113	0.887232
O39	O	1.595865	1.111446	1.220566
O40	O	0.820803	0.435094	0.434997
O41	O	1.154136	0.768428	0.768330
O42	O	1.487469	1.101761	1.101663
O43	O	1.019018	0.362368	0.554244
O44	O	1.352351	0.695701	0.887577
O45	O	1.685684	1.029035	1.220911
O46	O	1.018870	0.554352	0.362243
O47	O	1.352204	0.887685	0.695577
O48	O	1.685537	1.221018	1.028910
O49	O	0.929114	0.554005	0.444664
O50	O	1.262448	0.887338	0.777997
O51	O	1.595781	1.220672	1.111330
C52	C	0.799261	0.389085	0.388992
C53	C	1.132594	0.722418	0.722325
C54	C	1.465927	1.055752	1.055659
C55	C	0.721490	0.385626	0.385539
C56	C	1.054823	0.718959	0.718873
C57	C	1.388157	1.052292	1.052206
C58	C	0.972865	0.579659	0.404501
C59	C	1.306199	0.912992	0.737834
C60	C	1.639532	1.246326	1.071167
C61	C	0.969428	0.657714	0.407691
C62	C	1.302761	0.991048	0.741025
C63	C	1.636095	1.324381	1.074358
C64	C	0.680968	0.430793	0.430575
C65	C	1.014301	0.764127	0.763908
C66	C	1.347634	1.097460	1.097242
C67	C	0.607894	0.427534	0.427334
C68	C	0.941228	0.760867	0.760667
C69	C	1.274561	1.094201	1.094000
C70	C	0.575344	0.379110	0.379053
C71	C	0.908677	0.712443	0.712386
C72	C	1.242011	1.045776	1.045720
C73	C	0.615872	0.333937	0.334016
C74	C	0.949205	0.667271	0.667349
C75	C	1.282538	1.000604	1.000682
C76	C	0.688944	0.337194	0.337261
C77	C	1.022277	0.670527	0.670594
C78	C	1.355611	1.003860	1.003927
C79	C	0.354913	0.366933	0.366924
C80	C	0.688246	0.700266	0.700257
C81	C	1.021579	1.033599	1.033591
C82	C	0.281835	0.363681	0.363681
C83	C	0.615169	0.697014	0.697014
C84	C	0.948502	1.030348	1.030348
C85	C	0.273863	0.457277	0.457000
C86	C	0.607196	0.790611	0.790334
C87	C	0.940529	1.123944	1.123667
C88	C	0.346937	0.460532	0.460238
C89	C	0.680270	0.793866	0.793572
C90	C	1.013603	1.127199	1.126905
C91	C	0.387458	0.415357	0.415203
C92	C	0.720791	0.748691	0.748537
C93	C	1.054124	1.082024	1.081870
C94	C	0.500651	0.375778	0.375738
C95	C	0.833985	0.709112	0.709071
C96	C	1.167318	1.042445	1.042404
C97	C	0.462149	0.418686	0.418523
C98	C	0.795483	0.752019	0.751856
C99	C	1.128816	1.085353	1.085190
C100	C	0.972950	0.404635	0.580263
C101	C	1.306283	0.737969	0.913597
C102	C	1.639617	1.071302	1.246930
C103	C	0.969500	0.407799	0.658315
C104	C	1.302833	0.741132	0.991649
C105	C	1.636166	1.074465	1.324982
C106	C	1.163544	0.405372	0.405246
C107	C	1.496877	0.738705	0.738580
C108	C	1.830211	1.072038	1.071913
C109	C	1.241313	0.408849	0.408717
C110	C	1.574646	0.742182	0.742050
C111	C	1.907980	1.075515	1.075383
C112	C	0.989280	0.214054	0.389693
C113	C	1.322613	0.547388	0.723026
C114	C	1.655946	0.880721	1.056360
C115	C	0.992788	0.136003	0.386535
C116	C	1.326121	0.469337	0.719869
C117	C	1.659454	0.802670	1.053202
C118	C	1.014577	0.694545	0.366317
C119	C	1.347911	1.027879	0.699651
C120	C	1.681244	1.361212	1.032984
C121	C	1.011348	0.767887	0.369323
C122	C	1.344682	1.101220	0.702656
C123	C	1.678015	1.434554	1.035990
C124	C	0.962966	0.804396	0.413699
C125	C	1.296300	1.137729	0.747032
C126	C	1.629633	1.471063	1.080366
C127	C	0.917815	0.767560	0.455078
C128	C	1.251148	1.100893	0.788411
C129	C	1.584482	1.434227	1.121744
C130	C	0.921048	0.694220	0.452076
C131	C	1.254381	1.027553	0.785409
C132	C	1.587714	1.360887	1.118742
C133	C	0.950869	1.025828	0.424912
C134	C	1.284202	1.359161	0.758245
C135	C	1.617536	1.692494	1.091579
C136	C	0.947638	1.099173	0.427909
C137	C	1.280972	1.432506	0.761243
C138	C	1.614305	1.765839	1.094576
C139	C	1.041173	1.099494	0.342155
C140	C	1.374507	1.432828	0.675488
C141	C	1.707840	1.766161	1.008822
C142	C	1.044399	1.026153	0.339154
C143	C	1.377732	1.359486	0.672487
C144	C	1.711065	1.692819	1.005820
C145	C	0.999250	0.989323	0.380535
C146	C	1.332583	1.322657	0.713869
C147	C	1.665917	1.655990	1.047202
C148	C	0.959663	0.879363	0.416770
C149	C	1.292997	1.212696	0.750104
C150	C	1.626330	1.546029	1.083437
C151	C	1.002557	0.914358	0.377467
C152	C	1.335890	1.247692	0.710800
C153	C	1.669224	1.581025	1.044134
C154	C	0.989156	0.389769	0.214655
C155	C	1.322489	0.723102	0.547988
C156	C	1.655822	1.056436	0.881322
C157	C	0.992751	0.386414	0.136602
C158	C	1.326084	0.719747	0.469935
C159	C	1.659417	1.053081	0.803268
C160	C	1.014640	0.366379	0.695165
C161	C	1.347974	0.699713	1.028499
C162	C	1.681307	1.033046	1.361832
C163	C	1.011390	0.369348	0.768503
C164	C	1.344723	0.702682	1.101836
C165	C	1.678056	1.036015	1.435170
C166	C	0.963001	0.413741	0.804990
C167	C	1.296335	0.747074	1.138323
C168	C	1.629668	1.080408	1.471656
C169	C	0.917856	0.455162	0.768135
C170	C	1.251189	0.788495	1.101468
C171	C	1.584522	1.121828	1.434801
C172	C	0.921103	0.452188	0.694798
C173	C	1.254437	0.785522	1.028131
C174	C	1.587770	1.118855	1.361465
C175	C	0.950853	0.424862	1.026410
C176	C	1.284186	0.758195	1.359743
C177	C	1.617519	1.091528	1.693076
C178	C	0.947610	0.427833	1.099752
C179	C	1.280943	0.761167	1.433085
C180	C	1.614276	1.094500	1.766418
C181	C	1.041143	0.342019	1.100115
C182	C	1.374477	0.675352	1.433448
C183	C	1.707810	1.008685	1.766782
C184	C	1.044390	0.339052	1.026777
C185	C	1.377723	0.672386	1.360110
C186	C	1.711056	1.005719	1.693444
C187	C	0.999242	0.380470	0.989928
C188	C	1.332575	0.713804	1.323261
C189	C	1.665908	1.047137	1.656595
C190	C	0.959679	0.416779	0.879953
C191	C	1.293012	0.750112	1.213286
C192	C	1.626346	1.083445	1.546619
C193	C	1.002561	0.377429	0.914966
C194	C	1.335894	0.710762	1.248299
C195	C	1.669228	1.044095	1.581633
H196	H	0.707464	0.470228	0.469888
H197	H	1.040798	0.803561	0.803221
H198	H	1.374131	1.136895	1.136555
H199	H	0.574904	0.464315	0.464006
H200	H	0.908237	0.797648	0.797339
H201	H	1.241571	1.130982	1.130672
H202	H	0.920284	0.452927	0.909669
H203	H	1.253617	0.786260	1.243002
H204	H	1.586951	1.119593	1.576335
H205	H	1.041952	0.884631	0.341339
H206	H	1.375286	1.217964	0.674672
H207	H	1.708619	1.551297	1.008005
H208	H	0.255336	0.324240	0.324369
H209	H	0.588669	0.657574	0.657703
H210	H	0.922002	0.990907	0.991036
O211	O	0.865658	0.503037	0.807485
O212	O	1.198991	0.836371	1.140818
O213	O	1.532325	1.169704	1.474151
H214	H	0.893885	0.541525	0.843738
H215	H	1.227218	0.874858	1.177071
H216	H	1.560551	1.208192	1.510405
O217	O	0.902163	0.469520	0.986652
O218	O	1.235497	0.802853	1.319985
O219	O	1.568830	1.136187	1.653319
H220	H	0.869466	0.435124	0.950389
H221	H	1.202800	0.768457	1.283722
H222	H	1.536133	1.101790	1.617056
H223	H	0.589364	0.294506	0.294708
H224	H	0.922697	0.627840	0.628041
H225	H	1.256030	0.961173	0.961374
O226	O	0.382045	0.512755	0.512318
O227	O	0.715378	0.846088	0.845651
O228	O	1.048712	1.179422	1.178985
H229	H	0.341590	0.543611	0.543096
H230	H	0.674923	0.876945	0.876429
H231	H	1.008257	1.210278	1.209763
H232	H	0.721937	0.300410	0.300591
H233	H	1.055270	0.633743	0.633925
H234	H	1.388603	0.967077	0.967258
O235	O	1.096583	0.291175	0.987423
O236	O	1.429916	0.624509	1.320756
O237	O	1.763249	0.957842	1.654090
H238	H	1.127425	0.262870	1.025368
H239	H	1.460758	0.596203	1.358702
H240	H	1.794092	0.929536	1.692035
H241	H	1.077899	0.308298	1.130125
H242	H	1.411233	0.641631	1.463458
H243	H	1.744566	0.974964	1.796792
O244	O	0.465553	0.323552	0.323654
O245	O	0.798886	0.656885	0.656988
O246	O	1.132220	0.990219	0.990321
H247	H	0.481477	0.333906	0.269633
H248	H	0.814810	0.667240	0.602966
H249	H	1.148144	1.000573	0.936300
O250	O	1.066837	0.318503	0.655815
O251	O	1.400170	0.651836	0.989148
O252	O	1.733503	0.985170	1.322482
H253	H	1.038610	0.280025	0.619552
H254	H	1.371943	0.613358	0.952885
H255	H	1.705277	0.946691	1.286219
H256	H	0.884338	0.485909	0.664795
H257	H	1.217671	0.819242	0.998128
H258	H	1.551005	1.152576	1.331462
H259	H	0.240863	0.494055	0.493666
H260	H	0.574196	0.827388	0.827000
H261	H	0.907529	1.160722	1.160333
O262	O	1.089880	1.139227	0.297547
O263	O	1.423214	1.472561	0.630880
O264	O	1.756547	1.805894	0.964214
H265	H	1.058710	1.169850	0.261770
H266	H	1.392043	1.503183	0.595104
H267	H	1.725376	1.836516	0.928437
O268	O	1.066771	0.655169	0.318465
O269	O	1.400105	0.988503	0.651798
O270	O	1.733438	1.321836	0.985132
H271	H	1.038546	0.618950	0.279944
H272	H	1.371879	0.952284	0.613277
H273	H	1.705212	1.285617	0.946610
H274	H	0.387897	0.330153	0.330248
H275	H	0.721230	0.663487	0.663582
H276	H	1.054563	0.996820	0.996915
O277	O	1.060081	0.324680	0.808252
O278	O	1.393414	0.658013	1.141585
O279	O	1.726747	0.991346	1.474918
H280	H	1.094281	0.293319	0.770560
H281	H	1.427614	0.626653	1.103893
H282	H	1.760947	0.959986	1.437227
H283	H	0.920269	0.909097	0.452900
H284	H	1.253602	1.242430	0.786234
H285	H	1.586936	1.575763	1.119567
H286	H	0.488655	0.458110	0.457836
H287	H	0.821988	0.791443	0.791169
H288	H	1.155321	1.124776	1.124502
H289	H	1.048113	0.797871	0.335631
H290	H	1.381447	1.131205	0.668964
H291	H	1.714780	1.464538	1.002298
O292	O	1.096588	0.986775	0.291298
O293	O	1.429922	1.320108	0.624631
O294	O	1.763255	1.653442	0.957965
H295	H	1.127447	1.024708	0.263037
H296	H	1.460781	1.358042	0.596371
H297	H	1.794114	1.691375	0.929704
O298	O	0.895410	0.475707	1.139110
O299	O	1.228743	0.809040	1.472444
O300	O	1.562077	1.142374	1.805777
H301	H	0.905542	0.530788	1.127799
H302	H	1.238875	0.864121	1.461133
H303	H	1.572208	1.197454	1.794466
O304	O	0.895458	1.138555	0.475780
O305	O	1.228791	1.471889	0.809113
O306	O	1.562124	1.805222	1.142446
H307	H	0.864611	1.100626	0.504057
H308	H	1.197944	1.433959	0.837390
H309	H	1.531277	1.767292	1.170723
O310	O	0.902155	0.986106	0.469520
O311	O	1.235488	1.319439	0.802853
O312	O	1.568822	1.652773	1.136186
H313	H	0.867959	1.023816	0.500867
H314	H	1.201292	1.357149	0.834201
H315	H	1.534626	1.690482	1.167534
H316	H	0.878424	0.797292	0.491213
H317	H	1.211757	1.130625	0.824546
H318	H	1.545091	1.463959	1.157880
H319	H	0.884283	0.664233	0.485768
H320	H	1.217617	0.997566	0.819101
H321	H	1.550950	1.330900	1.152434
H322	H	1.041956	0.341281	0.885255
H323	H	1.375289	0.674615	1.218589
H324	H	1.708622	1.007948	1.551922
