data_functionalizedCrystal
_audit_creation_method	'MofGen! by Chris Wilmer'
_symmetry_space_group_name_H-M	'P1'
_symmetry_Int_Tables_number	1
_symmetry_cell_setting	triclinic
loop_
_symmetry_equiv_pos_as_xyz
  x,y,z
_cell_length_a	14.908571
_cell_length_b	14.909028
_cell_length_c	14.908308
_cell_angle_alpha	90.161781
_cell_angle_beta	90.175053
_cell_angle_gamma	83.236222
loop_
_atom_site_label
_atom_site_type_symbol
_atom_site_fract_x
_atom_site_fract_y
_atom_site_fract_z
Zn1	Zn	1.373969	-0.470975	-0.562081
Zn2	Zn	1.873969	0.029025	-0.062081
Zn3	Zn	1.391241	-0.613724	-0.403992
Zn4	Zn	1.891241	-0.113724	0.096008
Zn5	Zn	1.231229	-0.453641	-0.404017
Zn6	Zn	1.731229	0.046359	0.095983
Zn7	Zn	1.232203	-0.612652	-0.545702
Zn8	Zn	1.732203	-0.112652	-0.045702
O9	O	1.307161	-0.537748	-0.478948
O10	O	1.807161	-0.037748	0.021052
O11	O	1.502555	-0.497615	-0.547954
O12	O	2.002555	0.002385	-0.047954
O13	O	1.376835	-0.585683	-0.278539
O14	O	1.876835	-0.085683	0.221461
O15	O	1.242529	-0.329653	-0.431850
O16	O	1.742529	0.170347	0.068150
O17	O	1.515244	-0.602492	-0.431807
O18	O	2.015244	-0.102492	0.068193
O19	O	1.347399	-0.342388	-0.547979
O20	O	1.847399	0.157612	-0.047979
O21	O	1.259276	-0.468070	-0.278558
O22	O	1.759276	0.031930	0.221442
O23	O	1.105063	-0.467031	-0.415968
O24	O	1.605063	0.032969	0.084032
O25	O	1.244188	-0.600664	-0.673331
O26	O	1.744188	-0.100664	-0.173331
O27	O	1.105779	-0.583856	-0.520063
O28	O	1.605779	-0.083856	-0.020063
O29	O	1.348343	-0.496575	-0.685364
O30	O	1.848343	0.003425	-0.185364
O31	O	1.377779	-0.739870	-0.415925
O32	O	1.877779	-0.239870	0.084075
O33	O	1.260935	-0.739082	-0.520038
O34	O	1.760935	-0.239082	-0.020038
C35	C	1.072674	-0.523446	-0.466241
C36	C	1.572674	-0.023446	0.033759
C37	C	0.972360	-0.517351	-0.460825
C38	C	1.472360	-0.017351	0.039175
C39	C	0.784672	-0.627717	-0.558879
C40	C	1.284672	-0.127717	-0.058879
C41	C	0.690418	-0.621993	-0.553793
C42	C	1.190418	-0.121993	-0.053793
C43	C	0.689596	-0.500175	-0.445573
C44	C	1.189596	-0.000175	0.054427
C45	C	0.783850	-0.505899	-0.450659
C46	C	1.283850	-0.005899	0.049341
C47	C	0.831385	-0.569673	-0.507313
C48	C	1.331385	-0.069673	-0.007313
C49	C	0.925641	-0.575401	-0.512393
C50	C	1.425641	-0.075401	-0.012393
C51	C	0.924817	-0.453579	-0.404179
C52	C	1.424817	0.046421	0.095821
C53	C	0.830563	-0.447855	-0.399093
C54	C	1.330563	0.052145	0.100907
C55	C	1.321361	-0.772223	-0.466223
C56	C	1.821361	-0.272223	0.033777
C57	C	1.327516	-0.872539	-0.460813
C58	C	1.827516	-0.372539	0.039187
C59	C	1.397061	-1.014316	-0.399037
C60	C	1.897061	-0.514316	0.100963
C61	C	1.391282	-0.920060	-0.404117
C62	C	1.891282	-0.420060	0.095883
C63	C	1.269523	-0.919281	-0.512431
C64	C	1.769523	-0.419281	-0.012431
C65	C	1.275302	-1.013537	-0.507351
C66	C	1.775302	-0.513537	-0.007351
C67	C	1.339074	-1.061051	-0.450654
C68	C	1.839074	-0.561051	0.049346
C69	C	1.344857	-1.155309	-0.445579
C70	C	1.844857	-0.655309	0.054421
C71	C	1.223094	-1.154529	-0.553888
C72	C	1.723094	-0.654529	-0.053888
C73	C	1.217315	-1.060273	-0.558968
C74	C	1.717315	-0.560273	-0.058968
C75	C	1.542562	-0.552106	-0.491705
C76	C	2.042562	-0.052106	0.008295
C77	C	1.642877	-0.558225	-0.497141
C78	C	2.142877	-0.058225	0.002859
C79	C	1.294448	-0.550434	-0.712787
C80	C	1.794448	-0.050434	-0.212787
C81	C	1.289030	-0.555839	-0.812435
C82	C	1.789030	-0.055839	-0.312435
C83	C	1.292929	-0.302360	-0.491744
C84	C	1.792929	0.197640	0.008256
C85	C	1.286864	-0.202051	-0.497197
C86	C	1.786864	0.297949	0.002803
C87	C	1.387303	-0.457588	-1.012217
C88	C	1.887303	0.042412	-0.512217
C89	C	1.382216	-0.462664	-1.105846
C90	C	1.882216	0.037336	-0.605846
C91	C	1.273763	-0.571063	-1.093322
C92	C	1.773763	-0.071063	-0.593322
C93	C	1.278851	-0.565986	-0.999693
C94	C	1.778851	-0.065986	-0.499693
C95	C	1.335624	-0.509248	-0.959144
C96	C	1.835624	-0.009248	-0.459144
C97	C	1.340716	-0.504177	-0.865514
C98	C	1.840716	-0.004177	-0.365514
C99	C	1.232259	-0.612570	-0.852992
C100	C	1.732259	-0.112570	-0.352992
C101	C	1.227172	-0.617647	-0.946621
C102	C	1.727172	-0.117647	-0.446621
C103	C	1.319872	-0.525050	-0.246026
C104	C	1.819872	-0.025050	0.253974
C105	C	1.325449	-0.519401	-0.146401
C106	C	1.825449	-0.019401	0.353599
H107	H	0.823376	-0.679650	-0.605003
H108	H	1.323376	-0.179650	-0.105003
Br109	Br	0.766043	-0.361303	-0.322217
Br110	Br	1.266043	0.138697	0.177783
Br111	Br	1.182984	-0.854783	-0.589372
Br112	Br	1.682984	-0.354783	-0.089372
Br113	Br	1.144400	-1.217961	-0.623951
Br114	Br	1.644400	-0.717961	-0.123951
H115	H	1.165391	-1.021576	-0.605127
H116	H	1.665391	-0.521576	-0.105127
H117	H	1.386944	-0.457979	-0.832501
H118	H	1.886944	0.042021	-0.332501
H119	H	0.962860	-0.406317	-0.362188
H120	H	1.462860	0.093683	0.137812
Br121	Br	1.464363	-0.380603	-0.957182
Br122	Br	1.964363	0.119397	-0.457182
H123	H	1.396786	-1.193994	-0.399417
H124	H	1.896786	-0.693994	0.100583
H125	H	1.424296	-0.420595	-1.149054
H126	H	1.924296	0.079405	-0.649054
H127	H	1.448994	-1.053003	-0.352880
H128	H	1.948994	-0.553003	0.147120
H129	H	0.650876	-0.448247	-0.399455
H130	H	1.150876	0.051753	0.100545
Br131	Br	1.150124	-0.694641	-1.001660
Br132	Br	1.650124	-0.194641	-0.501660
H133	H	1.227542	-0.617256	-1.126353
H134	H	1.727542	-0.117256	-0.626353
H135	H	0.652388	-0.669257	-0.595785
H136	H	1.152388	-0.169257	-0.095785
Br137	Br	0.990153	-0.661955	-0.589274
Br138	Br	1.490153	-0.161955	-0.089274
Br139	Br	1.469978	-0.856634	-0.334059
Br140	Br	1.969978	-0.356634	0.165941
Br141	Br	1.162132	-0.682699	-0.780960
Br142	Br	1.662132	-0.182699	-0.280960
