data_functionalizedCrystal
_audit_creation_method	'MofGen! by Chris Wilmer'
_symmetry_space_group_name_H-M	'P1'
_symmetry_Int_Tables_number	1
_symmetry_cell_setting	triclinic
loop_
_symmetry_equiv_pos_as_xyz
  x,y,z
_cell_length_a	17.077404
_cell_length_b	19.121063
_cell_length_c	17.077396
_cell_angle_alpha	87.592130
_cell_angle_beta	90.017244
_cell_angle_gamma	92.469213
loop_
_atom_site_label
_atom_site_type_symbol
_atom_site_fract_x
_atom_site_fract_y
_atom_site_fract_z
Zn1	Zn	1.186680	-0.279604	0.457151
Zn2	Zn	1.180980	-0.397062	0.331476
Zn3	Zn	1.055415	-0.279630	0.325901
Zn4	Zn	1.049770	-0.397019	0.462698
O5	O	1.118211	-0.338329	0.394306
O6	O	1.295770	-0.295192	0.440492
O7	O	1.164301	-0.381514	0.220891
O8	O	1.077575	-0.181342	0.338657
O9	O	1.291583	-0.381488	0.348159
O10	O	1.174015	-0.181323	0.435086
O11	O	1.072049	-0.295237	0.216795
O12	O	0.944820	-0.295195	0.344035
O13	O	1.067954	-0.381414	0.571807
O14	O	0.940672	-0.381440	0.444539
O15	O	1.168541	-0.295150	0.567733
O16	O	1.158828	-0.495341	0.353537
O17	O	1.062428	-0.495309	0.449945
C18	C	0.914264	-0.338316	0.394284
C19	C	0.827014	-0.338328	0.394294
C20	C	1.109418	-0.520809	0.402965
C21	C	1.105728	-0.598875	0.406696
C22	C	0.783881	-0.383303	0.446549
C23	C	0.701901	-0.383305	0.446562
C24	C	0.663054	-0.338334	0.394315
C25	C	0.706193	-0.293353	0.342057
C26	C	0.788172	-0.293349	0.342049
C27	C	0.535322	-0.293367	0.342077
C28	C	0.453337	-0.293372	0.342084
C29	C	0.449051	-0.383323	0.446590
C30	C	0.531030	-0.383319	0.446581
C31	C	0.574163	-0.338339	0.394323
C32	C	1.154223	-0.635544	0.358296
C33	C	1.150758	-0.708895	0.361809
C34	C	1.098792	-0.745576	0.413719
C35	C	1.050294	-0.708902	0.462125
C36	C	1.053764	-0.635553	0.458615
C37	C	1.085804	-0.967046	0.426829
C38	C	1.082336	-1.040401	0.430334
C39	C	1.182801	-1.040389	0.330019
C40	C	1.186263	-0.967038	0.326510
C41	C	1.137769	-0.930370	0.374919
C42	C	1.095246	-0.820553	0.417310
C43	C	1.141319	-0.855395	0.371332
C44	C	1.322955	-0.338342	0.394329
C45	C	1.410205	-0.338348	0.394339
C46	C	1.118253	-0.338274	0.599048
C47	C	1.118271	-0.338251	0.686297
C48	C	1.127061	-0.155136	0.385631
C49	C	1.130832	-0.077070	0.381934
C50	C	1.118217	-0.338332	0.190359
C51	C	1.118361	-0.338158	0.103101
C52	C	1.070251	-0.293321	0.725153
C53	C	1.070265	-0.293305	0.807133
C54	C	1.118303	-0.338216	0.850255
C55	C	1.166325	-0.383151	0.811393
C56	C	1.166307	-0.383170	0.729415
C57	C	1.166361	-0.383107	0.982261
C58	C	1.166381	-0.383087	1.064245
C59	C	1.070319	-0.293243	1.059979
C60	C	1.070301	-0.293262	0.978001
C61	C	1.118324	-0.338196	0.939145
H62	H	0.815504	-0.419926	0.489093
C63	C	0.410607	-0.243899	0.284612
N64	N	0.378424	-0.206635	0.241324
C65	C	1.204102	-0.749228	0.308560
N66	N	1.244282	-0.779606	0.268448
C67	C	1.038076	-0.860910	0.474401
N68	N	0.995014	-0.891309	0.517400
H69	H	1.031187	-0.256688	0.942893
H70	H	1.031218	-0.256655	1.091620
C71	C	0.582766	-0.243888	0.284587
N72	N	0.618501	-0.206625	0.241283
H73	H	1.031137	-0.256746	0.690049
H74	H	1.205498	-0.419658	1.099352
H75	H	1.205474	-0.419691	0.950627
C76	C	1.243410	-0.926694	0.269385
N77	N	1.286444	-0.896307	0.226348
H78	H	0.674557	-0.256734	0.299520
H79	H	0.823290	-0.256721	0.299501
C80	C	0.654458	-0.432795	0.504032
N81	N	0.618724	-0.470078	0.547317
C82	C	1.219137	-0.432593	0.686673
N83	N	1.258929	-0.469821	0.654482
H84	H	1.205435	-0.419722	0.846509
C85	C	0.401604	-0.432798	0.504079
N86	N	0.365863	-0.470062	0.547377
C87	C	1.211389	-0.595202	0.301188
N88	N	1.254449	-0.564818	0.258175
C89	C	0.993128	-0.749254	0.519224
N90	N	0.950066	-0.779647	0.562229
C91	C	1.236144	-1.080729	0.276776
N92	N	1.276325	-1.111114	0.236673
H93	H	1.040028	-1.070265	0.472619
C94	C	1.000416	-0.595217	0.511859
N95	N	0.960234	-0.564838	0.551967
C96	C	1.017447	-0.243872	0.849871
N97	N	0.977665	-0.206634	0.882060
H98	H	1.046317	-0.937197	0.466244
H99	H	1.183633	-0.825527	0.329069
H100	H	0.562657	-0.419942	0.489121
