data_functionalizedCrystal
_audit_creation_method	'MofGen! by Chris Wilmer'
_symmetry_space_group_name_H-M	'P1'
_symmetry_Int_Tables_number	1
_symmetry_cell_setting	triclinic
loop_
_symmetry_equiv_pos_as_xyz
  x,y,z
_cell_length_a	19.077105
_cell_length_b	19.077068
_cell_length_c	11.169409
_cell_angle_alpha	92.259152
_cell_angle_beta	87.678611
_cell_angle_gamma	90.115316
loop_
_atom_site_label
_atom_site_type_symbol
_atom_site_fract_x
_atom_site_fract_y
_atom_site_fract_z
Zn1	Zn	1.063029	-0.322913	-0.773436
Zn2	Zn	1.563029	0.177087	-0.273436
Zn3	Zn	1.058206	-0.440439	-0.580445
Zn4	Zn	1.558206	0.059561	-0.080445
Zn5	Zn	0.945511	-0.318226	-0.564397
Zn6	Zn	1.445511	0.181774	-0.064397
Zn7	Zn	0.940764	-0.435654	-0.772715
Zn8	Zn	1.440764	0.064346	-0.272715
O9	O	1.001878	-0.379308	-0.672748
O10	O	1.501878	0.120692	-0.172748
O11	O	1.160721	-0.342467	-0.754853
O12	O	1.660721	0.157533	-0.254853
O13	O	1.043225	-0.424267	-0.410367
O14	O	1.543225	0.075733	0.089633
O15	O	0.965105	-0.220518	-0.585712
O16	O	1.465105	0.279482	-0.085712
O17	O	1.157178	-0.428812	-0.613064
O18	O	1.657178	0.071188	-0.113064
O19	O	1.051445	-0.223962	-0.739292
O20	O	1.551445	0.276038	-0.239292
O21	O	0.960428	-0.334478	-0.398576
O22	O	1.460428	0.165522	0.101424
O23	O	0.846549	-0.329839	-0.585013
O24	O	1.346549	0.170161	-0.085013
O25	O	0.957015	-0.420658	-0.940760
O26	O	1.457015	0.079342	-0.440760
O27	O	0.843062	-0.416113	-0.738063
O28	O	1.343062	0.083887	-0.238063
O29	O	1.046842	-0.337828	-0.941290
O30	O	1.546842	0.162172	-0.441290
O31	O	1.038622	-0.538133	-0.612365
O32	O	1.538622	-0.038133	-0.112365
O33	O	0.952338	-0.534618	-0.753624
O34	O	1.452338	-0.034618	-0.253624
C35	C	0.819309	-0.371949	-0.659719
C36	C	1.319309	0.128051	-0.159719
C37	C	0.741205	-0.368818	-0.654174
C38	C	1.241205	0.131182	-0.154174
C39	C	0.702712	-0.412333	-0.731139
C40	C	1.202712	0.087667	-0.231139
C41	C	0.629325	-0.409382	-0.725934
C42	C	1.129325	0.090618	-0.225934
C43	C	0.594433	-0.362918	-0.643759
C44	C	1.094433	0.137082	-0.143759
C45	C	0.632932	-0.319398	-0.566791
C46	C	1.132932	0.180602	-0.066791
C47	C	0.706317	-0.322346	-0.572002
C48	C	1.206317	0.177654	-0.072002
C49	C	0.375147	-0.349273	-0.619647
C50	C	0.875147	0.150727	-0.119647
C51	C	0.301756	-0.346329	-0.614439
C52	C	0.801756	0.153671	-0.114439
C53	C	0.298154	-0.436312	-0.773584
C54	C	0.798154	0.063688	-0.273584
C55	C	0.371541	-0.439259	-0.778783
C56	C	0.871541	0.060741	-0.278783
C57	C	0.410034	-0.395737	-0.701820
C58	C	0.910034	0.104263	-0.201820
N59	N	0.519420	-0.359902	-0.638435
N60	N	1.019420	0.140098	-0.138435
N61	N	0.485045	-0.398750	-0.707151
N62	N	0.985045	0.101250	-0.207151
C63	C	0.994461	-0.561872	-0.684685
C64	C	1.494461	-0.061872	-0.184685
C65	C	0.991352	-0.639977	-0.689837
C66	C	1.491352	-0.139977	-0.189837
C67	C	1.034850	-0.678478	-0.618777
C68	C	1.534850	-0.178478	-0.118777
C69	C	1.031931	-0.751866	-0.623629
C70	C	1.531931	-0.251866	-0.123629
C71	C	0.985509	-0.786750	-0.699536
C72	C	1.485509	-0.286750	-0.199536
C73	C	0.942009	-0.748243	-0.770604
C74	C	1.442009	-0.248243	-0.270604
C75	C	0.944933	-0.674857	-0.765757
C76	C	1.444933	-0.174857	-0.265757
C77	C	0.971947	-1.006037	-0.721918
C78	C	1.471947	-0.506037	-0.221918
C79	C	0.969025	-1.079428	-0.726757
C80	C	1.469025	-0.579428	-0.226757
C81	C	1.058948	-1.083046	-0.579783
C82	C	1.558948	-0.583046	-0.079783
C83	C	1.061865	-1.009658	-0.574937
C84	C	1.561865	-0.509658	-0.074937
C85	C	1.018368	-0.971158	-0.646010
C86	C	1.518368	-0.471158	-0.146010
N87	N	0.982522	-0.861764	-0.704495
N88	N	1.482522	-0.361764	-0.204495
N89	N	1.021359	-0.896145	-0.641056
N90	N	1.521359	-0.396145	-0.141056
C91	C	1.185159	-0.386696	-0.685829
C92	C	1.685159	0.113304	-0.185829
C93	C	1.263262	-0.389844	-0.691403
C94	C	1.763262	0.110156	-0.191403
C95	C	1.001937	-0.379232	-0.985790
C96	C	1.501937	0.120768	-0.485790
C97	C	1.001962	-0.379200	-1.119189
C98	C	1.501962	0.120800	-0.619189
C99	C	1.009342	-0.196031	-0.660792
C100	C	1.509342	0.303969	-0.160792
C101	C	1.012523	-0.117930	-0.655697
C102	C	1.512523	0.382070	-0.155697
C103	C	1.001861	-0.379334	-0.360924
C104	C	1.501861	0.120666	0.139076
C105	C	1.001980	-0.379174	-0.227522
C106	C	1.501980	0.120826	0.272478
H107	H	0.266806	-0.471745	-0.836245
H108	H	0.766806	0.028255	-0.336245
H109	H	1.094362	-1.114400	-0.521921
H110	H	1.594362	-0.614400	-0.021921
F111	F	1.078230	-0.792839	-0.548000
F112	F	1.578230	-0.292839	-0.048000
F113	F	1.111281	-0.972537	-0.494160
F114	F	1.611281	-0.472537	0.005840
H115	H	0.909513	-0.643510	-0.823624
H116	H	1.409513	-0.143510	-0.323624
F117	F	1.084255	-0.641358	-0.537977
F118	F	1.584255	-0.141358	-0.037977
H119	H	0.931232	-1.107829	-0.788592
H120	H	1.431232	-0.607829	-0.288592
F121	F	0.264622	-0.296878	-0.526966
F122	F	0.764622	0.203122	-0.026966
F123	F	0.739840	-0.461790	-0.818596
F124	F	1.239840	0.038210	-0.318596
H125	H	0.597986	-0.444817	-0.788606
H126	H	1.097986	0.055183	-0.288606
H127	H	0.406478	-0.313839	-0.556969
H128	H	0.906478	0.186161	-0.056969
F129	F	0.925652	-0.965071	-0.797559
F130	F	1.425652	-0.465071	-0.297559
H131	H	0.604517	-0.281563	-0.499887
H132	H	1.104517	0.218437	0.000113
H133	H	0.904215	-0.776652	-0.832415
H134	H	1.404215	-0.276652	-0.332415
H135	H	0.399945	-0.477096	-0.845696
H136	H	0.899945	0.022904	-0.345696
H137	H	0.737658	-0.286908	-0.509336
H138	H	1.237658	0.213092	-0.009336
