data_functionalizedCrystal
_audit_creation_method	'MofGen! by Chris Wilmer'
_symmetry_space_group_name_H-M	'P1'
_symmetry_Int_Tables_number	1
_symmetry_cell_setting	triclinic
loop_
_symmetry_equiv_pos_as_xyz
  x,y,z
_cell_length_a	16.959455
_cell_length_b	16.959453
_cell_length_c	12.827885
_cell_angle_alpha	89.965838
_cell_angle_beta	89.977469
_cell_angle_gamma	90.018936
loop_
_atom_site_label
_atom_site_type_symbol
_atom_site_fract_x
_atom_site_fract_y
_atom_site_fract_z
Zn1	Zn	1.208430	-0.314664	-0.590909
Zn2	Zn	1.208339	-0.446864	-0.416157
Zn3	Zn	1.076245	-0.314701	-0.416173
Zn4	Zn	1.076223	-0.446802	-0.590847
O5	O	1.142309	-0.380757	-0.503521
O6	O	1.319028	-0.332211	-0.567747
O7	O	1.190787	-0.429373	-0.269923
O8	O	1.093826	-0.204085	-0.439385
O9	O	1.318962	-0.429337	-0.439357
O10	O	1.190942	-0.204058	-0.567763
O11	O	1.093738	-0.332273	-0.269935
O12	O	0.965631	-0.332214	-0.439324
O13	O	1.093789	-0.429232	-0.737091
O14	O	0.965615	-0.429268	-0.567656
O15	O	1.190921	-0.332151	-0.737137
O16	O	1.190766	-0.557466	-0.439297
O17	O	1.093701	-0.557421	-0.567641
C18	C	0.936943	-0.380739	-0.503486
C19	C	0.849086	-0.380750	-0.503496
C20	C	0.807797	-0.330146	-0.436786
C21	C	0.807822	-0.431359	-0.570221
C22	C	0.725276	-0.431368	-0.570236
C23	C	0.683987	-0.380765	-0.503526
C24	C	0.725243	-0.330152	-0.436802
C25	C	0.684013	-0.481975	-0.636967
C26	C	0.601462	-0.481985	-0.636986
C27	C	0.560171	-0.431385	-0.570270
C28	C	0.601433	-0.380770	-0.503542
C29	C	0.560144	-0.330166	-0.436832
C30	C	0.601404	-0.279555	-0.370098
C31	C	0.683953	-0.279551	-0.370086
C32	C	0.477623	-0.431389	-0.570282
C33	C	0.477591	-0.330172	-0.436848
C34	C	1.142243	-0.586124	-0.503483
C35	C	1.142287	-0.673980	-0.503502
C36	C	1.192942	-1.045383	-0.570494
C37	C	1.091897	-1.045528	-0.436704
C38	C	1.091868	-0.962982	-0.436680
C39	C	1.142375	-0.921633	-0.503565
C40	C	1.192912	-0.962830	-0.570474
C41	C	1.041326	-0.921780	-0.369780
C42	C	1.041294	-0.839229	-0.369754
C43	C	1.091806	-0.797878	-0.436634
C44	C	1.142346	-0.839080	-0.503545
C45	C	1.192854	-0.797730	-0.570430
C46	C	1.243398	-0.838931	-0.637337
C47	C	1.243425	-0.921479	-0.637355
C48	C	1.091779	-0.715330	-0.436616
C49	C	1.192824	-0.715177	-0.570411
C50	C	1.348477	-0.380777	-0.503557
C51	C	1.436334	-0.380785	-0.503573
C52	C	1.142363	-0.380681	-0.776092
C53	C	1.142386	-0.380648	-0.892245
C54	C	1.142397	-0.174589	-0.503583
C55	C	1.142434	-0.086733	-0.503609
C56	C	1.190414	-0.428677	-0.944024
C57	C	1.190439	-0.428644	-1.064074
C58	C	1.142301	-0.380777	-0.232011
C59	C	1.142431	-0.380587	-0.115859
H60	H	0.567776	-0.238350	-0.315788
H61	H	1.231557	-0.469764	-1.108603
H62	H	1.101289	-0.339502	-0.936792
Br63	Br	1.261539	-1.101294	-0.661285
Br64	Br	0.421561	-0.261498	-0.346300
H65	H	0.717554	-0.238346	-0.315755
Br66	Br	1.258931	-0.497246	-0.869787
Br67	Br	0.863857	-0.500038	-0.660744
H68	H	0.567875	-0.523197	-0.691324
Br69	Br	0.863789	-0.261467	-0.346217
Br70	Br	0.740051	-0.550661	-0.727477
Br71	Br	0.972696	-0.783321	-0.278959
Br72	Br	0.421630	-0.500062	-0.660852
Br73	Br	1.073883	-0.312053	-1.041656
Br74	Br	1.261381	-0.659066	-0.661180
Br75	Br	1.023186	-0.659418	-0.345828
Br76	Br	1.311932	-0.782804	-0.728119
H77	H	1.284575	-0.955032	-0.691827
Br78	Br	1.023340	-1.101645	-0.345954
H79	H	1.000203	-0.955452	-0.315328
