data_functionalizedCrystal
_audit_creation_method	'MofGen! by Chris Wilmer'
_symmetry_space_group_name_H-M	'P1'
_symmetry_Int_Tables_number	1
_symmetry_cell_setting	triclinic
loop_
_symmetry_equiv_pos_as_xyz
  x,y,z
_cell_length_a	10.654545
_cell_length_b	16.109304
_cell_length_c	9.130313
_cell_angle_alpha	90.005669
_cell_angle_beta	89.998651
_cell_angle_gamma	83.972858
loop_
_atom_site_label
_atom_site_type_symbol
_atom_site_fract_x
_atom_site_fract_y
_atom_site_fract_z
O1	O	1.666252	0.116761	0.121775
O2	O	1.300622	0.127891	0.121780
O3	O	1.493479	0.001355	0.121778
O4	O	1.473394	0.243297	0.121777
O5	O	1.493484	0.001340	-0.121821
O6	O	1.300626	0.127876	-0.121819
O7	O	1.666256	0.116747	-0.121824
Cu8	Cu	1.483442	0.122310	-0.144064
Cu9	Cu	1.483436	0.122327	0.144020
O10	O	1.473399	0.243283	-0.121822
C11	C	1.253837	0.127067	-0.000019
C12	C	1.114427	0.124624	-0.000016
C13	C	1.048940	0.123467	-0.132803
C14	C	0.917952	0.121158	-0.132803
C15	C	0.917948	0.121168	0.132782
C16	C	1.048934	0.123471	0.132780
C17	C	1.492667	-0.029632	-0.000018
C18	C	1.490226	-0.121942	-0.000008
C19	C	1.484584	-0.334305	0.132772
C20	C	1.482279	-0.421039	0.132771
C21	C	1.482290	-0.421051	-0.132814
C22	C	1.484586	-0.334318	-0.132811
C23	C	1.485740	-0.290948	-0.000014
C24	C	1.481138	-0.464415	-0.000018
C25	C	1.478639	-0.558455	-0.000020
C26	C	1.488237	-0.196901	-0.000011
C27	C	1.713041	0.117570	-0.000022
C28	C	1.852451	0.120013	-0.000015
C29	C	1.474211	0.274270	-0.000023
C30	C	1.476652	0.366579	-0.000023
N31	N	1.483455	0.122298	-0.346687
N32	N	1.483433	0.122333	0.346642
C33	C	1.407459	0.071328	0.423286
C34	C	1.407473	0.071308	0.576623
C35	C	1.559438	0.173305	0.576659
C36	C	1.559430	0.173320	0.423325
H37	H	0.864608	0.120230	0.240900
H38	H	1.102260	0.124406	-0.240935
O39	O	1.112671	0.124711	0.261685
C40	C	1.174156	0.197931	0.269645
H41	H	1.189022	0.222234	0.154352
H42	H	1.269475	0.183386	0.325838
H43	H	1.113692	0.247378	0.335182
O44	O	1.481016	-0.463264	-0.261712
C45	C	1.370980	-0.504631	-0.269686
H46	H	1.334385	-0.514687	-0.154397
H47	H	1.393825	-0.567603	-0.325883
H48	H	1.295755	-0.465057	-0.335226
O49	O	1.333551	0.021740	0.650846
C50	C	1.266504	-0.023272	0.550277
H51	H	1.259058	0.011113	0.440995
H52	H	1.167798	-0.029162	0.594586
H53	H	1.318436	-0.088163	0.533929
H54	H	0.864639	0.120216	-0.240931
O55	O	1.480994	-0.463051	0.261852
C56	C	1.372841	-0.433072	0.342620
H57	H	1.338275	-0.367169	0.304863
H58	H	1.397363	-0.432076	0.464100
H59	H	1.295431	-0.475729	0.324212
H60	H	1.621310	0.214818	0.639113
O61	O	1.485506	-0.292073	0.261679
C62	C	1.378109	-0.233134	0.269623
H63	H	1.342243	-0.217209	0.154323
H64	H	1.404144	-0.174119	0.325852
H65	H	1.301098	-0.260413	0.335117
H66	H	1.485520	-0.299016	-0.240948
H67	H	1.345578	0.029811	0.360855
H68	H	1.621304	0.214855	0.360921
