data_functionalizedCrystal
_audit_creation_method	'MofGen! by Chris Wilmer'
_symmetry_space_group_name_H-M	'P1'
_symmetry_Int_Tables_number	1
_symmetry_cell_setting	triclinic
loop_
_symmetry_equiv_pos_as_xyz
  x,y,z
_cell_length_a	15.995343
_cell_length_b	6.394984
_cell_length_c	15.072220
_cell_angle_alpha	89.999353
_cell_angle_beta	90.008177
_cell_angle_gamma	84.992268
loop_
_atom_site_label
_atom_site_type_symbol
_atom_site_fract_x
_atom_site_fract_y
_atom_site_fract_z
O1	O	1.113838	0.269146	0.073690
O2	O	0.870412	0.302410	0.073711
O3	O	0.995583	-0.018288	0.073698
O4	O	0.988667	0.589843	0.073704
O5	O	0.995551	-0.018270	-0.073867
O6	O	0.870381	0.302428	-0.073854
O7	O	1.113806	0.269163	-0.073875
Zn8	Zn	0.992088	0.285798	-0.097293
Zn9	Zn	0.992130	0.285775	0.097130
O10	O	0.988636	0.589861	-0.073861
C11	C	0.839187	0.301046	-0.000069
C12	C	0.746193	0.296932	-0.000061
N13	N	0.992066	0.285813	-0.229982
C14	C	0.575928	0.289464	-0.000072
C15	C	0.550142	0.057970	-0.000074
C16	C	0.453418	0.053615	-0.000415
C17	C	0.408291	0.282109	-0.000083
C18	C	0.438591	0.398518	-0.084181
C19	C	0.535413	0.401264	-0.084247
C20	C	0.535395	0.404633	0.083568
C21	C	0.438810	0.396087	0.084668
C22	C	0.313549	0.277964	-0.000092
C23	C	0.670670	0.293616	-0.000069
C24	C	0.992128	0.285767	-0.589184
C25	C	0.924915	0.456790	-0.551570
C26	C	0.925080	0.457415	-0.448744
C27	C	0.992097	0.285790	-0.410980
C28	C	1.079964	0.333386	-0.448278
C29	C	1.079590	0.334601	-0.551136
C30	C	0.972248	0.066641	-0.551284
C31	C	0.970259	0.068102	-0.448421
C32	C	0.992084	0.285799	-0.310266
C33	C	0.992147	0.285762	-0.689897
C34	C	1.145031	0.270527	-0.000093
C35	C	1.238025	0.274641	-0.000095
C36	C	0.994192	0.903903	-0.000087
C37	C	0.990025	0.667666	-0.000085
N38	N	0.992159	0.285744	0.229819
H39	H	0.433450	-0.037509	0.059858
C40	C	1.103626	0.546832	-0.413478
N41	N	1.121442	0.707611	-0.387271
C42	C	0.942558	0.677092	-0.415487
N43	N	0.955728	0.842559	-0.390439
H44	H	0.551205	0.575027	0.084381
H45	H	0.909443	0.020872	-0.577270
H46	H	0.419372	0.311313	0.146885
C47	C	1.149279	0.169588	-0.415228
N48	N	1.201485	0.046212	-0.390332
H49	H	1.015857	-0.065127	-0.422717
C50	C	1.149366	0.172774	-0.584751
N51	N	1.201930	0.050913	-0.610065
H52	H	0.561345	0.321602	-0.147352
C53	C	0.396687	0.621352	0.091867
N54	N	0.364962	0.791033	0.097281
H55	H	1.021237	-0.060629	-0.575608
H56	H	0.577216	-0.031766	0.060224
C57	C	0.410299	0.290629	-0.169057
N58	N	0.388992	0.209353	-0.232984
C59	C	0.588014	-0.061264	-0.081434
N60	N	0.616537	-0.151063	-0.142718
H61	H	0.551776	0.571025	-0.087841
C62	C	0.427196	-0.068852	-0.082347
N63	N	0.407445	-0.161082	-0.144067
C64	C	0.836940	0.419143	-0.414676
N65	N	0.770549	0.390331	-0.389020
H66	H	0.408518	0.566683	-0.087071
C67	C	0.572559	0.305940	0.169711
N68	N	0.600551	0.231581	0.234589
C69	C	0.882920	0.019307	-0.415494
N70	N	0.817134	-0.017438	-0.390690
H71	H	0.859471	0.428900	-0.576326
C72	C	0.942164	0.675236	-0.586474
N73	N	0.955159	0.839768	-0.612765
H74	H	1.096757	0.494408	-0.575117
