data_functionalizedCrystal
_audit_creation_method	'MofGen! by Chris Wilmer'
_symmetry_space_group_name_H-M	'P1'
_symmetry_Int_Tables_number	1
_symmetry_cell_setting	triclinic
loop_
_symmetry_equiv_pos_as_xyz
  x,y,z
_cell_length_a	23.532407
_cell_length_b	23.532407
_cell_length_c	22.610064
_cell_angle_alpha	89.999397
_cell_angle_beta	89.997161
_cell_angle_gamma	82.848678
loop_
_atom_site_label
_atom_site_type_symbol
_atom_site_fract_x
_atom_site_fract_y
_atom_site_fract_z
O1	O	0.755263	0.069127	-0.049117
O2	O	1.255263	0.569127	0.450883
O3	O	0.589400	0.079130	-0.049135
O4	O	1.089400	0.579130	0.450865
O5	O	0.677333	-0.008803	-0.049114
O6	O	1.177333	0.491197	0.450886
O7	O	0.667330	0.157060	-0.049137
O8	O	1.167330	0.657060	0.450863
O9	O	0.677318	-0.008790	0.049255
O10	O	1.177318	0.491210	0.549255
O11	O	0.589385	0.079143	0.049234
O12	O	1.089385	0.579143	0.549234
O13	O	0.755248	0.069140	0.049252
O14	O	1.255248	0.569140	0.549252
Zn15	Zn	0.672314	0.074144	0.064862
Zn16	Zn	1.172314	0.574144	0.564862
Zn17	Zn	0.672334	0.074127	-0.064744
Zn18	Zn	1.172334	0.574127	0.435256
O19	O	0.667315	0.157073	0.049232
O20	O	1.167315	0.657073	0.549232
C21	C	0.568176	0.078882	0.000048
C22	C	1.068176	0.578882	0.500048
C23	C	0.504959	0.078116	0.000041
C24	C	1.004959	0.578116	0.500041
C25	C	0.677071	-0.030013	0.000072
C26	C	1.177071	0.469987	0.500072
C27	C	0.676305	-0.093230	0.000076
C28	C	1.176305	0.406770	0.500076
C29	C	0.105856	0.125350	0.000061
C30	C	0.605856	0.625350	0.500061
C31	C	0.046456	0.124638	0.000065
C32	C	0.546456	0.624638	0.500065
O33	O	0.009711	0.168424	0.000081
O34	O	0.509711	0.668424	0.500081
N35	N	0.023830	0.072362	0.000071
N36	N	0.523830	0.572362	0.500071
C37	C	0.060607	0.020794	0.000080
C38	C	0.560607	0.520794	0.500080
O39	O	0.035908	-0.023737	0.000086
O40	O	0.535908	0.476263	0.500086
C41	C	0.120006	0.021506	0.000080
C42	C	0.620006	0.521506	0.500080
C43	C	0.142629	0.073785	0.000068
C44	C	0.642629	0.573785	0.500068
C45	C	0.128479	0.177625	0.000050
C46	C	0.628479	0.677625	0.500050
C47	C	0.187876	0.178336	0.000045
C48	C	0.687876	0.678336	0.500045
C49	C	0.224649	0.126772	0.000052
C50	C	0.724649	0.626772	0.500052
C51	C	0.202025	0.074497	0.000063
C52	C	0.702025	0.574497	0.500063
C53	C	0.156783	-0.030062	0.000093
C54	C	0.656783	0.469938	0.500093
C55	C	0.216185	-0.029345	0.000094
C56	C	0.716185	0.470655	0.500094
C57	C	0.238808	0.022934	0.000082
C58	C	0.738808	0.522934	0.500082
C59	C	0.298194	0.023643	0.000065
C60	C	0.798194	0.523643	0.500065
N61	N	0.320820	0.075920	0.000059
N62	N	0.820820	0.575920	0.500059
C63	C	0.284048	0.127484	0.000052
C64	C	0.784048	0.627484	0.500052
C65	C	-0.064135	0.019302	0.000080
C66	C	0.435865	0.519302	0.500080
C67	C	-0.123533	0.018589	0.000075
C68	C	0.376467	0.518589	0.500075
C69	C	-0.137680	0.122434	0.000061
C70	C	0.362320	0.622434	0.500061
C71	C	-0.078281	0.123146	0.000062
C72	C	0.421719	0.623146	0.500062
C73	C	-0.041509	0.071578	0.000074
C74	C	0.458491	0.571578	0.500074
C75	C	0.408784	0.128974	0.000042
C76	C	0.908784	0.628974	0.500042
C77	C	0.468186	0.129680	0.000034
C78	C	0.968186	0.629680	0.500034
C79	C	0.482329	0.025836	0.000051
C80	C	0.982329	0.525836	0.500051
C81	C	0.422932	0.025129	0.000055
C82	C	0.922932	0.525129	0.500055
C83	C	0.386160	0.076702	0.000052
C84	C	0.886160	0.576702	0.500052
O85	O	0.334974	-0.020119	0.000052
O86	O	0.834974	0.479881	0.500052
O87	O	0.308755	0.172007	0.000054
O88	O	0.808755	0.672007	0.500054
C89	C	0.723539	-0.492333	0.000049
C90	C	1.223539	0.007667	0.500049
C91	C	0.722827	-0.551733	0.000044
C92	C	1.222827	-0.051733	0.500044
O93	O	0.766613	-0.588478	0.000027
O94	O	1.266613	-0.088478	0.500027
N95	N	0.670551	-0.574359	0.000039
N96	N	1.170551	-0.074359	0.500039
C97	C	0.618983	-0.537582	0.000032
C98	C	1.118983	-0.037582	0.500032
O99	O	0.574452	-0.562281	0.000027
O100	O	1.074452	-0.062281	0.500027
C101	C	0.619695	-0.478182	0.000033
C102	C	1.119695	0.021818	0.500033
C103	C	0.671974	-0.455560	0.000044
C104	C	1.171974	0.044440	0.500044
C105	C	0.775814	-0.469710	0.000060
C106	C	1.275814	0.030290	0.500060
C107	C	0.776525	-0.410313	0.000065
C108	C	1.276525	0.089687	0.500065
C109	C	0.724961	-0.373540	0.000060
C110	C	1.224961	0.126460	0.500060
C111	C	0.672685	-0.396164	0.000050
C112	C	1.172685	0.103836	0.500050
C113	C	0.568127	-0.441406	0.000022
C114	C	1.068127	0.058594	0.500022
C115	C	0.568844	-0.382004	0.000021
C116	C	1.068844	0.117996	0.500021
C117	C	0.621123	-0.359381	0.000033
C118	C	1.121123	0.140619	0.500033
C119	C	0.621832	-0.299995	0.000050
C120	C	1.121832	0.200005	0.500050
N121	N	0.674109	-0.277368	0.000056
N122	N	1.174109	0.222632	0.500056
C123	C	0.725673	-0.314141	0.000061
C124	C	1.225673	0.185859	0.500061
C125	C	0.617491	-0.662324	0.000031
C126	C	1.117491	-0.162324	0.500031
C127	C	0.616778	-0.721722	0.000034
C128	C	1.116778	-0.221722	0.500034
C129	C	0.720623	-0.735869	0.000045
C130	C	1.220623	-0.235869	0.500045
C131	C	0.721335	-0.676470	0.000046
C132	C	1.221335	-0.176470	0.500046
C133	C	0.669767	-0.639698	0.000036
C134	C	1.169767	-0.139698	0.500036
C135	C	0.727163	-0.189405	0.000073
C136	C	1.227163	0.310595	0.500073
C137	C	0.727869	-0.130003	0.000081
C138	C	1.227869	0.369997	0.500081
C139	C	0.624025	-0.115860	0.000067
C140	C	1.124025	0.384140	0.500067
C141	C	0.623318	-0.175257	0.000062
C142	C	1.123318	0.324743	0.500062
C143	C	0.674891	-0.212029	0.000063
C144	C	1.174891	0.287971	0.500063
O145	O	0.578070	-0.263215	0.000065
O146	O	1.078070	0.236785	0.500065
O147	O	0.770196	-0.289433	0.000058
O148	O	1.270196	0.210567	0.500058
C149	C	0.776472	0.069388	0.000069
C150	C	1.276472	0.569388	0.500069
C151	C	0.839689	0.070154	0.000071
C152	C	1.339689	0.570154	0.500071
C153	C	0.667577	0.178283	0.000045
C154	C	1.167577	0.678283	0.500045
C155	C	0.668343	0.241500	0.000036
C156	C	1.168343	0.741500	0.500036
N157	N	0.672304	0.074155	0.153314
N158	N	1.172304	0.574155	0.653314
N159	N	0.672349	0.074111	-0.153196
N160	N	1.172349	0.574111	0.346804
C161	C	0.711273	0.035196	0.561965
C162	C	1.211273	0.535196	1.061965
C163	C	0.711276	0.035192	0.623884
C164	C	1.211276	0.535192	1.123884
O165	O	0.744384	0.002076	0.655911
O166	O	1.244384	0.502076	1.155911
N167	N	0.672334	0.074115	0.654851
N168	N	1.172334	0.574115	1.154851
C169	C	0.633383	0.113041	0.623895
C170	C	1.133383	0.613041	1.123895
O171	O	0.600259	0.146147	0.655920
O172	O	1.100259	0.646147	1.155920
C173	C	0.633377	0.113042	0.561976
C174	C	1.133377	0.613042	1.061976
C175	C	0.672326	0.074120	0.531013
C176	C	1.172326	0.574120	1.031013
C177	C	0.750218	-0.003724	0.531001
C178	C	1.250218	0.496276	1.031001
C179	C	0.750215	-0.003719	0.469085
C180	C	1.250215	0.496281	0.969085
C181	C	0.711268	0.035206	0.438133
C182	C	1.211268	0.535206	0.938133
C183	C	0.672323	0.074125	0.469097
C184	C	1.172323	0.574125	0.969097
C185	C	0.594424	0.151965	0.531021
C186	C	1.094424	0.651965	1.031021
C187	C	0.594422	0.151962	0.469098
C188	C	1.094422	0.651962	0.969098
C189	C	0.633370	0.113040	0.438134
C190	C	1.133370	0.613040	0.938134
C191	C	0.633374	0.113054	0.376229
C192	C	1.133374	0.613054	0.876229
N193	N	0.672316	0.074131	0.345262
N194	N	1.172316	0.574131	0.845262
C195	C	0.711263	0.035207	0.376214
C196	C	1.211263	0.535207	0.876214
C197	C	0.633396	0.113035	0.753928
C198	C	1.133396	0.613035	1.253928
C199	C	0.633403	0.113037	0.815846
C200	C	1.133403	0.613037	1.315846
C201	C	0.711296	0.035187	0.815831
C202	C	1.211296	0.535187	1.315831
C203	C	0.711291	0.035188	0.753913
C204	C	1.211291	0.535188	1.253913
C205	C	0.672338	0.074112	0.722962
C206	C	1.172338	0.574112	1.222962
C207	C	0.711255	0.035220	0.246187
C208	C	1.211255	0.535220	0.746187
C209	C	0.711251	0.035230	0.184266
C210	C	1.211251	0.535230	0.684266
C211	C	0.633357	0.113078	0.184286
C212	C	1.133357	0.613078	0.684286
C213	C	0.633363	0.113071	0.246202
C214	C	1.133363	0.613071	0.746202
C215	C	0.672314	0.074137	0.277151
C216	C	1.172314	0.574137	0.777151
O217	O	0.600281	0.146152	0.344163
O218	O	1.100281	0.646152	0.844163
O219	O	0.744376	0.002101	0.344182
O220	O	1.244376	0.502101	0.844182
H221	H	0.486602	0.172255	0.000024
H222	H	0.986602	0.672255	0.500024
H223	H	0.601653	0.144770	0.271413
H224	H	1.101653	0.644770	0.771413
O225	O	0.827295	-0.388313	0.000173
O226	O	1.327295	0.111687	0.500173
C227	C	0.830810	-0.354366	0.051111
C228	C	1.330810	0.145634	0.551111
H229	H	0.801128	-0.368247	0.086720
H230	H	1.301128	0.131753	0.586720
H231	H	0.876739	-0.359956	0.068211
H232	H	1.376739	0.140044	0.568211
H233	H	0.817407	-0.307447	0.039591
H234	H	1.317407	0.192553	0.539591
O235	O	0.749143	-0.002678	0.723929
O236	O	1.249143	0.497322	1.223929
C237	C	0.783528	-0.037019	0.764533
C238	C	1.283528	0.462981	1.264533
H239	H	0.760185	-0.037540	0.808673
H240	H	1.260185	0.462460	1.308673
H241	H	0.792476	-0.082548	0.746648
H242	H	1.292476	0.417452	1.246648
H243	H	0.825728	-0.018740	0.771112
H244	H	1.325728	0.481260	1.271112
H245	H	0.525555	-0.459814	0.000009
H246	H	1.025555	0.040186	0.500009
O247	O	0.373151	0.179124	0.000009
O248	O	0.873151	0.679124	0.500009
C249	C	0.405867	0.225410	0.000011
C250	C	0.905867	0.725410	0.500011
H251	H	0.450282	0.210684	-0.018610
H252	H	0.950282	0.710684	0.481390
H253	H	0.383764	0.261514	-0.028557
H254	H	0.883764	0.761514	0.471443
H255	H	0.410009	0.241460	0.047199
H256	H	0.910009	0.741460	0.547199
O257	O	0.595518	0.150872	0.845829
O258	O	1.095518	0.650872	1.345829
C259	C	0.561155	0.185236	0.805224
C260	C	1.061155	0.685236	1.305224
H261	H	0.560648	0.161888	0.761087
H262	H	1.060648	0.661888	1.261087
H263	H	0.515625	0.194155	0.823114
H264	H	1.015625	0.694155	1.323114
H265	H	0.579405	0.227450	0.798638
H266	H	1.079405	0.727450	1.298638
O267	O	0.595545	0.150831	0.154122
O268	O	1.095545	0.650831	0.654122
C269	C	0.603907	0.142491	0.092832
C270	C	1.103907	0.642491	0.592832
H271	H	0.625457	0.097105	0.084379
H272	H	1.125457	0.597105	0.584379
H273	H	0.560743	0.149037	0.069301
H274	H	1.060743	0.649037	0.569301
H275	H	0.632280	0.174586	0.075256
H276	H	1.132280	0.674586	0.575256
H277	H	0.138375	-0.072634	0.000103
H278	H	0.638375	0.427366	0.500103
H279	H	-0.141947	-0.023982	0.000076
H280	H	0.358053	0.476018	0.500076
O281	O	0.209752	0.229171	0.000067
O282	O	0.709752	0.729171	0.500067
C283	C	0.164549	0.274524	0.000049
C284	C	0.664549	0.774524	0.500049
H285	H	0.124283	0.258788	0.018672
H286	H	0.624283	0.758788	0.518672
H287	H	0.176754	0.311047	0.028607
H288	H	0.676754	0.811047	0.528607
H289	H	0.156057	0.290410	-0.047145
H290	H	0.656057	0.790410	0.452855
H291	H	0.770443	-0.111587	0.000092
H292	H	1.270443	0.388413	0.500092
O293	O	0.825960	-0.505345	0.000093
O294	O	1.325960	-0.005345	0.500093
C295	C	0.872245	-0.472627	0.000086
C296	C	1.372245	0.027373	0.500086
H297	H	0.857517	-0.428212	0.018704
H298	H	1.357517	0.071788	0.518704
H299	H	0.908350	-0.494728	0.028654
H300	H	1.408350	0.005272	0.528654
H301	H	0.888296	-0.468485	-0.047103
H302	H	1.388296	0.031515	0.452897
H303	H	0.404512	-0.017441	0.000056
H304	H	0.904512	0.482559	0.500056
O305	O	0.517974	-0.024304	0.000031
O306	O	1.017974	0.475696	0.500031
C307	C	0.485275	-0.070602	0.000057
C308	C	0.985275	0.429398	0.500057
H309	H	0.440858	-0.055898	-0.018568
H310	H	0.940858	0.444102	0.481432
H311	H	0.507391	-0.106713	-0.028496
H312	H	1.007391	0.393287	0.471504
H313	H	0.481134	-0.086634	0.047253
H314	H	0.981134	0.413366	0.547253
O315	O	0.777313	-0.225038	0.000102
O316	O	1.277313	0.274962	0.500102
C317	C	0.823599	-0.192322	0.000099
C318	C	1.323599	0.307678	0.500099
H319	H	0.808873	-0.147908	0.018722
H320	H	1.308873	0.352092	0.518722
H321	H	0.859704	-0.214428	0.028663
H322	H	1.359704	0.285572	0.528663
H323	H	0.839648	-0.188175	-0.047091
H324	H	1.339648	0.311825	0.452909
O325	O	0.092706	0.227682	-0.000039
O326	O	0.592706	0.727682	0.499961
C327	C	0.057942	0.230379	-0.050997
C328	C	0.557942	0.730379	0.449003
H329	H	0.055177	0.185191	-0.067970
H330	H	0.555177	0.685191	0.432030
H331	H	0.013180	0.251867	-0.039548
H332	H	0.513180	0.751867	0.460452
H333	H	0.077355	0.256261	-0.086677
H334	H	0.577355	0.756261	0.413323
H335	H	0.763906	-0.658056	0.000054
H336	H	1.263906	-0.158056	0.500054
O337	O	0.788111	-0.041558	0.560970
O338	O	1.288111	0.458442	1.060970
C339	C	0.822467	-0.075913	0.520351
C340	C	1.322467	0.424087	1.020351
H341	H	0.822962	-0.052560	0.476216
H342	H	1.322962	0.447440	0.976216
H343	H	0.868002	-0.084831	0.538225
H344	H	1.368002	0.415169	1.038225
H345	H	0.804220	-0.118129	0.513768
H346	H	1.304220	0.381871	1.013768
O347	O	0.770662	-0.771678	0.000017
O348	O	1.270662	-0.271678	0.500017
C349	C	0.758817	-0.828954	0.000025
C350	C	1.258817	-0.328954	0.500025
H351	H	0.714098	-0.830978	-0.018599
H352	H	1.214098	-0.330978	0.481401
H353	H	0.791705	-0.856049	-0.028537
H354	H	1.291705	-0.356049	0.471463
H355	H	0.761072	-0.846150	0.047216
H356	H	1.261072	-0.346150	0.547216
H357	H	0.574207	-0.740136	0.000035
H358	H	1.074207	-0.240136	0.500035
H359	H	0.582043	-0.085909	0.000065
H360	H	1.082043	0.414091	0.500065
O361	O	0.567342	-0.626686	0.000056
O362	O	1.067342	-0.126686	0.500056
C363	C	0.521054	-0.659400	0.000036
C364	C	1.021054	-0.159400	0.500036
H365	H	0.535773	-0.703815	0.018659
H366	H	1.035773	-0.203815	0.518659
H367	H	0.484941	-0.637295	0.028594
H368	H	0.984941	-0.137295	0.528594
H369	H	0.505020	-0.663543	-0.047158
H370	H	1.005020	-0.163543	0.452842
O371	O	0.518696	-0.346365	0.000038
O372	O	1.018696	0.153635	0.500038
C373	C	0.472406	-0.379075	0.000012
C374	C	0.972406	0.120925	0.500012
H375	H	0.487119	-0.423491	0.018635
H376	H	0.987119	0.076509	0.518635
H377	H	0.436290	-0.356968	0.028565
H378	H	0.936290	0.143032	0.528565
H379	H	0.456378	-0.383216	-0.047185
H380	H	0.956378	0.116784	0.452815
O381	O	0.572571	-0.197306	-0.000023
O382	O	1.072571	0.302694	0.499977
C383	C	0.569056	-0.231222	-0.050983
C384	C	1.069056	0.268778	0.449017
H385	H	0.614032	-0.246260	-0.067964
H386	H	1.114032	0.253740	0.432036
H387	H	0.546579	-0.269999	-0.039535
H388	H	1.046579	0.230001	0.460465
H389	H	0.543713	-0.204833	-0.086657
H390	H	1.043713	0.295167	0.413343
H391	H	0.742969	0.003535	0.159057
H392	H	1.242969	0.503535	0.659057
O393	O	0.749147	-0.002621	0.276154
O394	O	1.249147	0.497379	0.776154
C395	C	0.783505	-0.036977	0.235537
C396	C	1.283505	0.463023	0.735537
H397	H	0.784008	-0.013621	0.191403
H398	H	1.284008	0.486379	0.691403
H399	H	0.829037	-0.045901	0.253416
H400	H	1.329037	0.454099	0.753416
H401	H	0.765254	-0.079190	0.228946
H402	H	1.265254	0.420810	0.728946
H403	H	0.781929	-0.035414	0.443878
H404	H	1.281929	0.464586	0.943878
H405	H	0.743008	0.003492	0.841044
H406	H	1.243008	0.503492	1.341044
H407	H	0.601677	0.144736	0.728731
H408	H	1.101677	0.644736	1.228731
H409	H	0.562709	0.183658	0.556223
H410	H	1.062709	0.683658	1.056223
O411	O	0.556639	0.189854	0.439060
O412	O	1.056639	0.689854	0.939060
C413	C	0.565564	0.246184	0.454207
C414	C	1.065564	0.746184	0.954207
H415	H	0.611159	0.246231	0.471222
H416	H	1.111159	0.746231	0.971222
H417	H	0.558846	0.274805	0.413491
H418	H	1.058846	0.774805	0.913491
H419	H	0.533906	0.263066	0.490154
H420	H	1.033906	0.763066	0.990154
O421	O	-0.056377	0.173966	-0.000025
O422	O	0.443623	0.673966	0.499975
C423	C	-0.075183	0.205363	-0.050984
C424	C	0.424817	0.705363	0.449016
H425	H	-0.116294	0.190074	-0.067969
H426	H	0.383706	0.690074	0.432031
H427	H	-0.083696	0.252839	-0.039534
H428	H	0.416304	0.752839	0.460466
H429	H	-0.040767	0.198566	-0.086656
H430	H	0.459233	0.698566	0.413344
O431	O	-0.173351	0.172562	0.000138
O432	O	0.326649	0.672562	0.500138
C433	C	-0.163156	0.204323	0.051088
C434	C	0.336844	0.704323	0.551088
H435	H	-0.118016	0.190085	0.068072
H436	H	0.381984	0.690085	0.568072
H437	H	-0.167604	0.251845	0.039626
H438	H	0.332396	0.751845	0.539626
H439	H	-0.195604	0.196722	0.086765
H440	H	0.304396	0.696722	0.586765
H441	H	-0.034198	-0.022693	0.000084
H442	H	0.465802	0.477307	0.500084
H443	H	0.246123	-0.071339	0.000104
H444	H	0.746123	0.428661	0.500104
