data_functionalizedCrystal
_audit_creation_method	'MofGen! by Chris Wilmer'
_symmetry_space_group_name_H-M	'P1'
_symmetry_Int_Tables_number	1
_symmetry_cell_setting	triclinic
loop_
_symmetry_equiv_pos_as_xyz
  x,y,z
_cell_length_a	29.019771
_cell_length_b	29.019011
_cell_length_c	29.015668
_cell_angle_alpha	60.004890
_cell_angle_beta	60.009825
_cell_angle_gamma	59.993818
loop_
_atom_site_label
_atom_site_type_symbol
_atom_site_fract_x
_atom_site_fract_y
_atom_site_fract_z
O1	O	0.063866	-0.673289	0.563007
O2	O	0.024059	-0.524205	0.453633
O3	O	0.118464	-0.618532	0.453552
O4	O	-0.030540	-0.578962	0.563088
O5	O	0.149785	-0.587215	0.484789
O6	O	0.055379	-0.492888	0.484869
O7	O	0.095186	-0.641972	0.594244
Cu8	Cu	0.078143	-0.564571	0.542409
Cu9	Cu	0.041102	-0.601606	0.505468
O10	O	0.000781	-0.547645	0.594325
N11	N	0.104196	-0.538525	0.568394
N12	N	0.015054	-0.627656	0.479483
C13	C	0.143783	-0.499167	0.850823
C14	C	0.386758	-0.499111	0.607645
C15	C	0.143618	-0.499136	0.607763
C16	C	0.143598	-0.256029	0.607770
C17	C	0.182748	-0.373362	0.646852
C18	C	0.182758	-0.460025	0.646847
C19	C	0.204440	-0.438361	0.668500
C20	C	0.298958	-0.422064	0.618723
C21	C	0.358043	-0.441753	0.599006
C22	C	0.358069	-0.537354	0.635461
C23	C	0.298985	-0.517664	0.655180
C24	C	0.196983	-0.343808	0.588767
C25	C	0.177262	-0.284720	0.569090
C26	C	0.129075	-0.284743	0.665586
C27	C	0.148797	-0.343831	0.685263
C28	C	0.124666	-0.445760	0.661149
C29	C	0.104961	-0.465454	0.641458
C30	C	0.201435	-0.513678	0.593176
C31	C	0.221143	-0.493984	0.612860
C32	C	0.124738	-0.445777	0.763064
C33	C	0.105085	-0.465488	0.822151
C34	C	0.201594	-0.513722	0.822097
C35	C	0.221247	-0.494012	0.763009
C36	C	0.182817	-0.460038	0.733494
C37	C	0.269432	-0.460018	0.646809
C38	C	0.121399	-0.520450	0.915812
C39	C	0.451745	-0.520012	0.585655
C40	C	0.121177	-0.520429	0.586502
C41	C	0.121544	-0.191035	0.586883
C42	C	-0.110592	-0.666601	0.440035
C43	C	-0.023978	-0.666709	0.440231
C44	C	-0.045598	-0.688342	0.418486
C45	C	-0.061967	-0.782825	0.468184
C46	C	-0.042323	-0.841914	0.487907
C47	C	0.053280	-0.842025	0.451623
C48	C	0.033634	-0.782937	0.431899
C49	C	-0.140218	-0.680832	0.498102
C50	C	-0.199302	-0.661065	0.517690
C51	C	-0.199129	-0.612843	0.421140
C52	C	-0.140045	-0.632610	0.401552
C53	C	-0.038209	-0.608622	0.425941
C54	C	-0.018555	-0.588961	0.445716
C55	C	0.029562	-0.685470	0.494059
C56	C	0.009908	-0.705133	0.474291
C57	C	-0.038037	-0.608631	0.323917
C58	C	-0.018247	-0.588973	0.264830
C59	C	0.029955	-0.685489	0.264893
C60	C	0.010165	-0.705145	0.323981
C61	C	-0.023833	-0.666715	0.353492
C62	C	-0.023990	-0.753339	0.440182
N63	N	0.504925	-0.538487	0.568205
O64	O	0.685342	-0.543679	0.433426
O65	O	0.685533	-0.653395	0.582361
O66	O	0.685457	-0.653145	0.487904
O67	O	0.685418	-0.543929	0.527882
O68	O	0.591592	-0.621921	0.519268
O69	O	0.591667	-0.622171	0.613725
O70	O	0.591477	-0.512455	0.464790
Cu71	Cu	0.583001	-0.564462	0.542121
Cu72	Cu	0.694008	-0.601388	0.505029
O73	O	0.591553	-0.512705	0.559246
N74	N	0.772084	-0.627363	0.478939
N75	N	0.104168	-0.137853	0.568408
O76	O	-0.030538	0.042663	0.563097
O77	O	0.118403	0.042683	0.453379
O78	O	0.023918	0.042657	0.453664
O79	O	0.063947	0.042689	0.562813
O80	O	0.055242	-0.051215	0.484950
O81	O	0.149727	-0.051189	0.484666
O82	O	0.000787	-0.051210	0.594384
Cu83	Cu	0.078117	-0.059771	0.542381
Cu84	Cu	0.041072	0.051244	0.505382
O85	O	0.095272	-0.051184	0.594099
N86	N	0.015015	0.129326	0.479356
N87	N	0.104469	-0.538576	0.968995
O88	O	0.099171	-0.673268	1.149499
O89	O	-0.010519	-0.524279	1.149527
O90	O	-0.010265	-0.618748	1.149494
O91	O	0.098916	-0.578799	1.149533
O92	O	0.021008	-0.587443	1.055625
O93	O	0.020753	-0.492974	1.055659
O94	O	0.130444	-0.641963	1.055630
Cu95	Cu	0.078454	-0.564610	1.047074
Cu96	Cu	0.041470	-0.601632	1.158084
O97	O	0.130189	-0.547494	1.055664
N98	N	0.015455	-0.627672	1.236163
C99	C	0.035988	-0.489761	0.454182
C100	C	0.152897	-0.606574	0.454082
C101	C	0.083257	-0.676417	0.593694
C102	C	-0.033653	-0.559604	0.593794
C103	C	0.638623	-0.652892	0.616806
C104	C	0.638531	-0.652583	0.499833
C105	C	0.638384	-0.512957	0.430345
C106	C	0.638480	-0.513267	0.547317
C107	C	0.152789	-0.004135	0.453875
C108	C	0.035820	-0.004282	0.454266
C109	C	-0.033639	-0.004275	0.593849
C110	C	0.083370	-0.004245	0.593498
C111	C	-0.009989	-0.489856	1.102597
C112	C	-0.009667	-0.606839	1.102536
C113	C	0.129914	-0.676386	1.102561
C114	C	0.129599	-0.559396	1.102601
H115	H	0.093440	-0.418108	0.739036
C116	C	-0.055987	-0.618360	1.102466
C117	C	-0.078054	-0.666441	1.151168
C118	C	-0.124375	-0.677962	1.151097
C119	C	-0.148628	-0.641402	1.102324
C120	C	-0.126561	-0.593318	1.053618
C121	C	-0.080240	-0.581796	1.053689
H122	H	-0.060101	-0.693507	1.187276
H123	H	-0.140710	-0.713557	1.187153
H124	H	-0.182917	-0.649931	1.102272
H125	H	-0.144514	-0.566251	1.017510
H126	H	-0.063905	-0.546201	1.017633
C127	C	0.024246	-0.004293	0.407938
C128	C	0.060775	-0.053040	0.383653
C129	C	0.049202	-0.053050	0.337325
C130	C	0.001099	-0.004314	0.315283
C131	C	-0.035434	0.044436	0.339569
C132	C	-0.023860	0.044447	0.385896
H133	H	0.096387	-0.089121	0.399970
H134	H	0.076246	-0.089139	0.319348
H135	H	-0.007469	-0.004322	0.280989
H136	H	-0.071045	0.080517	0.323252
H137	H	-0.050904	0.080536	0.403874
C138	C	0.638462	-0.466914	0.558869
C139	C	0.638389	-0.409006	0.512548
C140	C	0.638371	-0.362653	0.524100
C141	C	0.638426	-0.374209	0.581973
C142	C	0.638499	-0.432120	0.628298
C143	C	0.638517	-0.478473	0.616746
H144	H	0.638348	-0.400449	0.469703
H145	H	0.638317	-0.319783	0.489807
H146	H	0.638413	-0.339896	0.590524
H147	H	0.638540	-0.440677	0.671143
H148	H	0.638571	-0.521343	0.651039
C149	C	0.094739	-0.734271	0.640104
C150	C	0.142802	-0.755680	0.662198
C151	C	0.154284	-0.813534	0.708608
C152	C	0.117703	-0.849979	0.732924
C153	C	0.069636	-0.828571	0.710830
C154	C	0.058154	-0.770717	0.664420
H155	H	0.169885	-0.728700	0.644198
H156	H	0.189867	-0.829381	0.724963
H157	H	0.126203	-0.892806	0.767279
H158	H	0.042554	-0.855550	0.728830
H159	H	0.022572	-0.754869	0.648064
C160	C	-0.056515	-0.432052	1.102608
C161	C	-0.046272	-0.378089	1.053877
C162	C	-0.092798	-0.320284	1.053888
C163	C	-0.149568	-0.316443	1.102630
C164	C	-0.159814	-0.370408	1.151364
C165	C	-0.113288	-0.428212	1.151353
H166	H	-0.004245	-0.380931	1.017792
H167	H	-0.085213	-0.280336	1.017812
H168	H	-0.184010	-0.273653	1.102638
H169	H	-0.201841	-0.367566	1.187449
H170	H	-0.120873	-0.468161	1.187430
C171	C	0.210711	-0.617962	0.407610
C172	C	0.264664	-0.633464	0.417896
C173	C	0.322478	-0.644852	0.371424
C174	C	0.326337	-0.640739	0.314667
C175	C	0.272381	-0.625237	0.304378
C176	C	0.214568	-0.613848	0.350850
H177	H	0.261809	-0.636509	0.459914
H178	H	0.362419	-0.656328	0.379041
H179	H	0.369134	-0.649170	0.280265
H180	H	0.275237	-0.622192	0.262360
H181	H	0.174627	-0.602373	0.343233
C182	C	-0.091422	-0.004281	0.640385
C183	C	-0.137951	-0.004295	0.629128
C184	C	-0.195734	-0.004301	0.675663
C185	C	-0.206990	-0.004292	0.733456
C186	C	-0.160460	-0.004278	0.744715
C187	C	-0.102677	-0.004273	0.698180
H188	H	-0.129620	-0.004301	0.586344
H189	H	-0.230178	-0.004311	0.667328
H190	H	-0.249764	-0.004297	0.767904
H191	H	-0.168791	-0.004272	0.787499
H192	H	-0.068233	-0.004262	0.706515
H193	H	-0.076451	-0.551170	0.628189
C194	C	0.094945	-0.004237	0.639826
C195	C	0.090947	-0.052982	0.696602
C196	C	0.102522	-0.052974	0.742930
C197	C	0.118094	-0.004221	0.732482
C198	C	0.122092	0.044528	0.675704
C199	C	0.110517	0.044520	0.629376
H200	H	0.079419	-0.089076	0.704338
H201	H	0.099562	-0.089062	0.784961
H202	H	0.126662	-0.004215	0.766777
H203	H	0.133620	0.080622	0.667968
H204	H	0.113477	0.080608	0.587345
C205	C	0.176440	-0.734190	1.102550
C206	C	0.165167	-0.780702	1.102531
C207	C	0.211693	-0.838507	1.102520
C208	C	0.269492	-0.849799	1.102529
C209	C	0.280768	-0.803286	1.102548
C210	C	0.234242	-0.745481	1.102559
H211	H	0.122378	-0.772344	1.102524
H212	H	0.203346	-0.872939	1.102506
H213	H	0.303934	-0.892589	1.102521
H214	H	0.323557	-0.811644	1.102555
H215	H	0.242589	-0.711049	1.102574
C216	C	0.175940	-0.547854	1.102607
C217	C	0.164387	-0.489968	1.102621
C218	C	0.210728	-0.478425	1.102628
C219	C	0.268623	-0.524769	1.102620
C220	C	0.280180	-0.582659	1.102606
C221	C	0.233838	-0.594201	1.102599
H222	H	0.121527	-0.455658	1.102627
H223	H	0.202173	-0.435571	1.102638
H224	H	0.302928	-0.516224	1.102625
H225	H	0.323039	-0.616969	1.102600
H226	H	0.242393	-0.637056	1.102589
C227	C	0.638304	-0.466419	0.372564
C228	C	0.589519	-0.409664	0.368770
C229	C	0.589440	-0.363125	0.310989
C230	C	0.638146	-0.373342	0.257001
C231	C	0.686935	-0.430100	0.260792
C232	C	0.687014	-0.476638	0.318574
H233	H	0.553460	-0.402098	0.408737
H234	H	0.553322	-0.321109	0.308183
H235	H	0.638087	-0.338892	0.214228
H236	H	0.722994	-0.437666	0.220825
H237	H	0.723132	-0.518654	0.321380
C238	C	0.638550	-0.698936	0.488280
C239	C	0.589850	-0.723264	0.524839
C240	C	0.589870	-0.769618	0.513287
C241	C	0.638589	-0.791643	0.465175
C242	C	0.687293	-0.767315	0.428613
C243	C	0.687273	-0.720961	0.440166
H244	H	0.553782	-0.706960	0.560457
H245	H	0.553816	-0.787627	0.540353
H246	H	0.638604	-0.825956	0.456624
H247	H	0.723361	-0.783619	0.392995
H248	H	0.723327	-0.702952	0.413100
C249	C	0.210453	-0.003771	0.407221
C250	C	0.256921	-0.003578	0.418419
C251	C	0.314584	-0.003215	0.371765
C252	C	0.325779	-0.003044	0.313913
C253	C	0.279310	-0.003237	0.302713
C254	C	0.221647	-0.003601	0.349367
H255	H	0.248634	-0.003705	0.461246
H256	H	0.348983	-0.003072	0.380056
H257	H	0.368465	-0.002775	0.279377
H258	H	0.287596	-0.003111	0.259885
H259	H	0.187247	-0.003743	0.341075
H260	H	0.057789	-0.453866	0.846219
H261	H	0.232890	-0.541375	0.846122
H262	H	0.268542	-0.505632	0.738936
C263	C	0.082441	-0.408403	0.698529
C264	C	0.039963	-0.431023	0.755527
C265	C	-0.002264	-0.393665	0.792909
C266	C	-0.002012	-0.333688	0.773294
C267	C	0.040468	-0.311065	0.716294
C268	C	0.082695	-0.348422	0.678912
H269	H	0.039775	-0.475424	0.770049
H270	H	-0.033711	-0.410413	0.835104
H271	H	-0.033271	-0.306034	0.800967
H272	H	0.040656	-0.266663	0.701771
H273	H	0.114141	-0.331675	0.636716
C274	C	0.638693	-0.699427	0.674591
C275	C	0.687466	-0.721638	0.696010
C276	C	0.687536	-0.768173	0.753794
C277	C	0.638834	-0.792497	0.790159
C278	C	0.590057	-0.770287	0.768741
C279	C	0.589987	-0.723751	0.710956
H280	H	0.723522	-0.703632	0.669090
H281	H	0.723644	-0.784615	0.769650
H282	H	0.638886	-0.826946	0.832935
H283	H	0.554002	-0.788293	0.795661
H284	H	0.553879	-0.707310	0.695101
C285	C	0.041059	-0.449769	0.657190
C286	C	-0.001165	-0.412421	0.694578
C287	C	-0.065066	-0.396736	0.710310
C288	C	-0.086742	-0.418400	0.688653
C289	C	-0.044517	-0.455750	0.651263
C290	C	0.019384	-0.471435	0.635531
H291	H	0.014880	-0.396382	0.710611
H292	H	-0.096324	-0.369087	0.737989
H293	H	-0.134045	-0.406789	0.700299
H294	H	-0.060562	-0.471789	0.635230
H295	H	0.050642	-0.499084	0.607852
H296	H	0.232695	-0.541333	0.565509
C297	C	-0.107456	-0.616963	0.337673
C298	C	-0.066826	-0.663707	0.310911
C299	C	-0.034239	-0.648060	0.247032
C300	C	-0.042283	-0.585669	0.209915
C301	C	-0.082914	-0.538921	0.236676
C302	C	-0.115501	-0.554568	0.300555
H303	H	-0.060870	-0.709896	0.338388
H304	H	-0.004161	-0.682667	0.227222
H305	H	-0.018160	-0.574087	0.162628
H306	H	-0.088870	-0.492732	0.209200
H307	H	-0.145579	-0.519961	0.320365
C308	C	0.285037	-0.509636	0.597137
C309	C	0.322196	-0.572026	0.614297
C310	C	0.386086	-0.587662	0.598577
C311	C	0.412817	-0.540907	0.565699
C312	C	0.375657	-0.478513	0.548537
C313	C	0.311767	-0.462877	0.564257
H314	H	0.302409	-0.606641	0.638637
H315	H	0.413594	-0.633851	0.611282
H316	H	0.460112	-0.552481	0.554062
H317	H	0.395445	-0.443898	0.524197
H318	H	0.284259	-0.416688	0.551552
H319	H	0.274946	-0.548573	0.678050
H320	H	0.382132	-0.584293	0.642268
H321	H	0.274901	-0.375125	0.611905
C322	C	0.390524	-0.400003	0.568106
C323	C	0.358017	-0.336593	0.558892
C324	C	0.390500	-0.294842	0.527990
C325	C	0.455490	-0.316501	0.506300
C326	C	0.488001	-0.379914	0.515513
C327	C	0.455518	-0.421665	0.546416
H328	H	0.309904	-0.320558	0.574949
H329	H	0.366433	-0.247900	0.521170
H330	H	0.479536	-0.285594	0.483424
H331	H	0.536113	-0.395949	0.499456
H332	H	0.479585	-0.468607	0.553235
H333	H	0.027485	-0.446933	0.419832
H334	H	0.224626	-0.367851	0.557490
H335	H	0.188851	-0.260656	0.521790
H336	H	0.101438	-0.260698	0.696864
H337	H	0.137197	-0.367895	0.732563
H338	H	-0.029822	-0.541673	0.240758
H339	H	-0.065723	-0.577332	0.347941
H340	H	0.057627	-0.716785	0.240872
C341	C	0.025793	-0.769042	0.356513
C342	C	0.088173	-0.806199	0.348503
C343	C	0.103802	-0.870094	0.381033
C344	C	0.057049	-0.896833	0.421573
C345	C	-0.005336	-0.859676	0.429585
C346	C	-0.020964	-0.795780	0.397055
H347	H	0.122786	-0.786406	0.318491
H348	H	0.149983	-0.897600	0.375102
H349	H	0.068618	-0.944132	0.445654
H350	H	-0.039948	-0.879469	0.459597
H351	H	-0.067145	-0.768274	0.402986
C352	C	0.075411	-0.750501	0.401098
C353	C	0.111243	-0.758660	0.431419
C354	C	0.153020	-0.726224	0.400617
C355	C	0.158965	-0.685628	0.339493
C356	C	0.123132	-0.677467	0.309169
C357	C	0.081355	-0.709904	0.339971
H358	H	0.106843	-0.788713	0.476670
H359	H	0.179546	-0.732265	0.423065
H360	H	0.189891	-0.661617	0.316691
H361	H	0.127532	-0.647414	0.263918
H362	H	0.054829	-0.703862	0.317522
C363	C	-0.034203	-0.525065	0.430001
C364	C	-0.016902	-0.488010	0.367596
C365	C	-0.032548	-0.424115	0.351882
C366	C	-0.065497	-0.397275	0.398572
C367	C	-0.082800	-0.434331	0.460981
C368	C	-0.067153	-0.498226	0.476695
H369	H	0.007490	-0.507878	0.333030
H370	H	-0.019739	-0.396684	0.305683
H371	H	-0.077079	-0.349977	0.386940
H372	H	-0.107192	-0.414463	0.495547
H373	H	-0.079962	-0.525656	0.522894
H374	H	0.057158	-0.716762	0.521784
C375	C	-0.084106	-0.874342	0.518717
C376	C	-0.132537	-0.866153	0.573545
C377	C	-0.174325	-0.898579	0.604358
C378	C	-0.167682	-0.939193	0.580343
C379	C	-0.119248	-0.947384	0.525511
C380	C	-0.077460	-0.914958	0.494698
H381	H	-0.137457	-0.836086	0.591325
H382	H	-0.210179	-0.892515	0.644948
H383	H	-0.198616	-0.963197	0.603153
H384	H	-0.114329	-0.977451	0.507731
H385	H	-0.041607	-0.921022	0.454108
C386	C	-0.107817	-0.718219	0.540431
C387	C	-0.140407	-0.733863	0.604306
C388	C	-0.108007	-0.771250	0.646637
C389	C	-0.043017	-0.792993	0.625093
C390	C	-0.010424	-0.777349	0.561215
C391	C	-0.042824	-0.739962	0.518884
H392	H	-0.188520	-0.717767	0.620257
H393	H	-0.132135	-0.782830	0.693924
H394	H	-0.019033	-0.820669	0.656429
H395	H	0.037689	-0.793445	0.545264
H396	H	-0.018695	-0.728382	0.471597
C397	C	0.116668	-0.874590	0.442518
C398	C	0.137018	-0.915219	0.493662
C399	C	0.200404	-0.947783	0.484556
C400	C	0.243441	-0.939719	0.424304
C401	C	0.223092	-0.899088	0.373155
C402	C	0.159705	-0.866523	0.382262
H403	H	0.105158	-0.921190	0.538268
H404	H	0.215467	-0.977861	0.522420
H405	H	0.290363	-0.963825	0.417563
H406	H	0.254951	-0.893116	0.328550
H407	H	0.144642	-0.836445	0.344398
H408	H	0.021495	-0.752433	0.485928
H409	H	-0.108889	-0.758731	0.474933
H410	H	-0.065797	-0.577331	0.398207
H411	H	-0.223425	-0.672650	0.564976
H412	H	-0.223112	-0.585171	0.389803
