data_functionalizedCrystal
_audit_creation_method	'MofGen! by Chris Wilmer'
_symmetry_space_group_name_H-M	'P1'
_symmetry_Int_Tables_number	1
_symmetry_cell_setting	triclinic
loop_
_symmetry_equiv_pos_as_xyz
  x,y,z
_cell_length_a	14.971486
_cell_length_b	9.065218
_cell_length_c	14.048226
_cell_angle_alpha	89.995444
_cell_angle_beta	89.998499
_cell_angle_gamma	84.315007
loop_
_atom_site_label
_atom_site_type_symbol
_atom_site_fract_x
_atom_site_fract_y
_atom_site_fract_z
O1	O	1.188380	0.192261	-0.079047
O2	O	0.928151	0.215285	-0.079073
O3	O	1.063645	-0.010979	-0.079057
O4	O	1.052887	0.418524	-0.079062
O5	O	1.063628	-0.010992	0.079264
O6	O	0.928135	0.215271	0.079249
O7	O	1.188363	0.192248	0.079274
Zn8	Zn	1.058246	0.203758	0.104398
Zn9	Zn	1.058268	0.203775	-0.104197
O10	O	1.052870	0.418511	0.079259
C11	C	0.894811	0.214248	0.000085
C12	C	0.795491	0.211163	0.000075
C13	C	1.062602	-0.065951	0.000102
C14	C	1.059511	-0.229731	0.000097
C15	C	0.739256	0.344086	0.000075
C16	C	0.645935	0.341178	0.000089
C17	C	0.608850	0.205345	0.000097
C18	C	0.665092	0.072412	0.000100
C19	C	0.758411	0.075321	0.000092
C20	C	0.470584	0.066357	0.000113
C21	C	0.377259	0.063446	0.000118
C22	C	0.358108	0.332214	0.000110
C23	C	0.451427	0.335123	0.000102
C24	C	0.507663	0.202189	0.000103
C25	C	1.221704	0.193284	0.000115
C26	C	1.321024	0.196370	0.000118
C27	C	1.053912	0.473483	0.000098
C28	C	1.057004	0.637264	0.000097
N29	N	1.058238	0.203745	0.246759
N30	N	1.058284	0.203776	-0.246557
C31	C	1.118254	0.103597	0.296584
C32	C	1.118260	0.103596	0.396242
C33	C	1.058254	0.203751	0.446073
C34	C	0.998231	0.303904	0.396241
C35	C	0.998222	0.303896	0.296585
C36	C	0.998257	0.303915	0.603955
C37	C	0.998268	0.303924	0.703618
C38	C	1.118295	0.103614	0.703612
C39	C	1.118286	0.103607	0.603956
C40	C	1.058264	0.203762	0.554131
H41	H	0.769442	0.454697	0.000068
O42	O	1.176688	0.006267	0.751859
C43	C	1.295713	-0.192452	0.741336
C44	C	1.229643	-0.082281	0.686573
H45	H	1.338532	-0.264092	0.688576
H46	H	1.340970	-0.128696	0.787953
H47	H	1.256498	-0.266202	0.788030
H48	H	1.268785	-0.008503	0.639827
H49	H	1.184387	-0.146129	0.640015
O50	O	1.176655	0.006273	0.444493
C51	C	1.295691	-0.192429	0.433970
C52	C	1.229614	-0.082270	0.379208
H53	H	1.338512	-0.264065	0.381211
H54	H	1.340945	-0.128661	0.480585
H55	H	1.256483	-0.266183	0.480669
H56	H	1.268749	-0.008488	0.332458
H57	H	1.184360	-0.146129	0.332654
H58	H	1.167151	0.022060	0.563383
O59	O	0.939881	0.401248	0.751878
C60	C	0.820835	0.599938	0.741374
C61	C	0.886902	0.489786	0.686601
H62	H	0.777997	0.671571	0.688621
H63	H	0.775596	0.536166	0.788011
H64	H	0.860053	0.673697	0.788049
H65	H	0.847757	0.416000	0.639873
H66	H	0.932141	0.553651	0.640023
O67	O	0.940077	0.401266	0.555448
C68	C	0.922660	0.602753	0.442961
C69	C	0.988640	0.492563	0.497820
H70	H	0.961897	0.676615	0.396371
H71	H	0.877471	0.539012	0.396252
H72	H	0.879756	0.674278	0.495710
H73	H	1.031602	0.421010	0.445140
H74	H	1.033767	0.556394	0.544544
O75	O	0.939815	0.401043	0.444604
C76	C	0.784991	0.487114	0.475072
C77	C	0.851048	0.376996	0.420261
H78	H	0.713209	0.467731	0.455397
H79	H	0.795231	0.469918	0.554869
H80	H	0.797639	0.605301	0.455478
H81	H	0.838440	0.258765	0.439775
H82	H	0.840793	0.394321	0.340478
O83	O	0.813133	-0.053703	-0.000038
C84	C	0.929572	-0.206431	-0.082090
C85	C	0.867668	-0.060239	-0.082055
H86	H	0.973666	-0.211778	-0.148404
H87	H	0.973805	-0.211810	-0.015880
H88	H	0.887022	-0.303993	-0.082039
H89	H	0.910148	0.037405	-0.082140
H90	H	0.823431	-0.054990	-0.148259
O91	O	0.940015	0.401388	0.248224
C92	C	0.889631	0.657772	0.217758
C93	C	0.955620	0.547530	0.272566
H94	H	0.902212	0.775952	0.237433
H95	H	0.899929	0.640690	0.137961
H96	H	0.817847	0.638273	0.237354
H97	H	1.027430	0.566962	0.253050
H98	H	0.945244	0.564639	0.352350
H99	H	1.167121	0.022045	0.256018
H100	H	0.481618	0.445730	0.000087
O101	O	0.591438	0.470437	0.000045
C102	C	0.582291	0.737324	0.000090
C103	C	0.644111	0.591043	0.000114
H104	H	0.624852	0.834871	0.000166
H105	H	0.538132	0.742787	-0.066176
H106	H	0.538110	0.742599	0.066338
H107	H	0.688348	0.585669	-0.066089
H108	H	0.688209	0.585640	0.066425
O109	O	0.303575	0.461444	0.000240
C110	C	0.258614	0.690228	0.082281
C111	C	0.320444	0.543956	0.082247
H112	H	0.272217	0.756966	0.148586
H113	H	0.272243	0.757170	0.016062
H114	H	0.185554	0.664779	0.082246
H115	H	0.393525	0.569270	0.082315
H116	H	0.306738	0.477057	0.148459
O117	O	0.341186	-0.068459	-0.000032
C118	C	0.246881	-0.227676	-0.081996
C119	C	0.287693	-0.078259	-0.081958
H120	H	0.203608	-0.235634	-0.148216
H121	H	0.303062	-0.322254	-0.082048
H122	H	0.203709	-0.235711	-0.015704
H123	H	0.330856	-0.070079	-0.148238
H124	H	0.231469	0.016248	-0.081856
O125	O	0.525306	-0.062676	-0.000015
C126	C	0.641742	-0.215393	-0.082080
C127	C	0.579836	-0.069202	-0.082035
H128	H	0.685833	-0.220731	-0.148396
H129	H	0.685978	-0.220778	-0.015872
H130	H	0.599192	-0.312956	-0.082031
H131	H	0.622316	0.028443	-0.082117
H132	H	0.535597	-0.063946	-0.148237
H133	H	0.634890	-0.038186	0.000119
