data_functionalizedCrystal
_audit_creation_method	'MofGen! by Chris Wilmer'
_symmetry_space_group_name_H-M	'P1'
_symmetry_Int_Tables_number	1
_symmetry_cell_setting	triclinic
loop_
_symmetry_equiv_pos_as_xyz
  x,y,z
_cell_length_a	21.395362
_cell_length_b	19.805405
_cell_length_c	21.395355
_cell_angle_alpha	90.017223
_cell_angle_beta	90.043940
_cell_angle_gamma	90.042604
loop_
_atom_site_label
_atom_site_type_symbol
_atom_site_fract_x
_atom_site_fract_y
_atom_site_fract_z
Zn1	Zn	0.957877	-0.269255	0.354591
Zn2	Zn	0.957787	-0.382425	0.249816
Zn3	Zn	0.853092	-0.269286	0.249793
Zn4	Zn	0.853068	-0.382438	0.354521
O5	O	0.905456	-0.325851	0.302180
O6	O	1.045543	-0.284248	0.340732
O7	O	0.943871	-0.367424	0.162135
O8	O	0.867039	-0.174565	0.263714
O9	O	1.045476	-0.367393	0.263754
O10	O	0.944024	-0.174542	0.340709
O11	O	0.866952	-0.284302	0.162118
O12	O	0.765411	-0.284315	0.263646
O13	O	0.866999	-0.367417	0.442208
O14	O	0.765393	-0.367448	0.340589
O15	O	0.944002	-0.284261	0.442260
O16	O	0.943848	-0.477143	0.263686
O17	O	0.866912	-0.477153	0.340612
C18	C	0.742668	-0.325887	0.302107
C19	C	0.673027	-0.325918	0.302091
C20	C	0.640321	-0.369263	0.342096
C21	C	0.574886	-0.369246	0.342124
C22	C	0.542159	-0.325892	0.302136
C23	C	0.574872	-0.282539	0.262129
C24	C	0.640306	-0.282553	0.262106
C25	C	0.438434	-0.320440	0.245731
C26	C	0.373001	-0.320431	0.245752
C27	C	0.340338	-0.325848	0.302205
C28	C	0.373116	-0.331287	0.358639
C29	C	0.438550	-0.331301	0.358616
C30	C	0.471206	-0.325873	0.302156
C31	C	0.236680	-0.369177	0.342243
C32	C	0.171243	-0.369156	0.342272
C33	C	0.171231	-0.282452	0.262272
C34	C	0.236666	-0.282470	0.262248
C35	C	0.269387	-0.325836	0.302233
C36	C	0.905384	-0.501707	0.302157
C37	C	0.905411	-0.576939	0.302169
C38	C	0.945474	-0.612213	0.342292
C39	C	0.945496	-0.682901	0.342303
C40	C	0.905459	-0.718315	0.302188
C41	C	0.865392	-0.683036	0.262064
C42	C	0.865367	-0.612349	0.262056
C43	C	0.865493	-0.968109	0.262096
C44	C	0.865523	-1.038801	0.262106
C45	C	0.945622	-1.038662	0.342343
C46	C	0.945597	-0.967975	0.342335
C47	C	0.905528	-0.932702	0.302213
C48	C	0.905503	-0.856053	0.302202
C49	C	0.905487	-0.794962	0.302196
C50	C	1.068879	-0.325816	0.302253
C51	C	1.138520	-0.325800	0.302285
C52	C	0.905508	-0.325837	0.465604
C53	C	0.905530	-0.325831	0.535245
C54	C	0.905545	-0.149308	0.302217
C55	C	0.905582	-0.074076	0.302232
C56	C	0.905440	-0.325816	0.139393
C57	C	0.905539	-0.325631	0.069752
C58	C	0.945623	-0.282530	0.567986
C59	C	0.945623	-0.282501	0.633421
C60	C	0.905535	-0.325785	0.666113
C61	C	0.865434	-0.369089	0.633364
C62	C	0.865431	-0.369112	0.567930
C63	C	0.900563	-0.386731	0.769778
C64	C	0.900570	-0.386709	0.835211
C65	C	0.905539	-0.325714	0.867934
C66	C	0.910514	-0.264738	0.835216
C67	C	0.910512	-0.264762	0.769782
C68	C	0.905533	-0.325765	0.737066
C69	C	0.945633	-0.282378	0.971628
C70	C	0.945628	-0.282347	1.037064
C71	C	0.865443	-0.368941	1.037006
C72	C	0.865445	-0.368966	0.971571
C73	C	0.905543	-0.325685	0.938885
H74	H	0.263295	-0.247178	0.229669
O75	O	0.543111	-0.240332	0.223350
C76	C	0.559180	-0.172896	0.237137
H77	H	0.577226	-0.169560	0.287191
H78	H	0.516169	-0.139444	0.231809
H79	H	0.597139	-0.155156	0.203562
O80	O	0.139467	-0.240248	0.223494
C81	C	0.155532	-0.172810	0.237272
H82	H	0.173584	-0.169466	0.287323
H83	H	0.112516	-0.139363	0.231948
H84	H	0.193484	-0.155068	0.203690
H85	H	0.978274	-0.247287	0.541378
H86	H	0.914561	-0.215070	0.861857
O87	O	0.984450	-1.072960	0.381391
C88	C	0.948772	-1.113883	0.421810
H89	H	0.899417	-1.092636	0.425615
H90	H	0.971410	-1.114635	0.470056
H91	H	0.946640	-1.167467	0.402442
H92	H	0.346524	-0.335697	0.404609
H93	H	0.832917	-1.067633	0.229439
H94	H	0.346318	-0.316007	0.199800
O95	O	0.984632	-0.240418	0.665138
C96	C	1.020010	-0.202209	0.622258
H97	H	1.022162	-0.229945	0.575614
H98	H	1.069381	-0.194979	0.641201
H99	H	0.997098	-0.150807	0.615284
O100	O	0.895807	-0.445965	0.737949
C101	C	0.949135	-0.454737	0.700143
H102	H	0.971342	-0.403492	0.690319
H103	H	0.934950	-0.479454	0.654138
H104	H	0.984235	-0.488359	0.725399
H105	H	0.465022	-0.316026	0.199756
H106	H	0.832869	-0.939395	0.229426
O107	O	0.672052	-0.240522	0.223151
C108	C	0.655966	-0.255199	0.160687
H109	H	0.637924	-0.309261	0.157442
H110	H	0.698968	-0.249332	0.129727
H111	H	0.618000	-0.218874	0.144383
H112	H	0.978201	-0.939143	0.374998
H113	H	0.832791	-0.711875	0.229404
H114	H	0.978281	-0.247132	0.945014
O115	O	0.984385	-0.577920	0.381320
C116	C	1.019759	-0.624216	0.416727
H117	H	0.994112	-0.674634	0.418866
H118	H	1.026407	-0.603763	0.466099
H119	H	1.067360	-0.631685	0.393846
H120	H	0.978276	-0.247083	1.063721
O121	O	0.984329	-0.717191	0.381343
C122	C	0.948663	-0.758117	0.421769
H123	H	0.899305	-0.736879	0.425580
H124	H	0.971307	-0.758860	0.470013
H125	H	0.946537	-0.811703	0.402407
H126	H	0.832743	-0.583629	0.229385
O127	O	0.915315	-0.205472	0.738096
C128	C	0.919719	-0.151628	0.781002
H129	H	0.898661	-0.167638	0.827633
H130	H	0.893127	-0.106150	0.762073
H131	H	0.970927	-0.137557	0.787995
O132	O	0.826565	-0.410972	1.068852
C133	C	0.835153	-0.401656	1.133627
H134	H	0.883514	-0.379467	1.142599
H135	H	0.830886	-0.452349	1.158492
H136	H	0.798003	-0.365620	1.152171
H137	H	0.832800	-0.404230	0.944913
O138	O	0.895705	-0.445995	0.866894
C139	C	0.891324	-0.499836	0.823983
H140	H	0.873175	-0.480123	0.777326
H141	H	0.857780	-0.539642	0.842866
H142	H	0.939473	-0.523282	0.817058
O143	O	0.826524	-0.411231	0.665049
C144	C	0.840192	-0.478694	0.649080
H145	H	0.864274	-0.480107	0.601588
H146	H	0.794958	-0.509054	0.646809
H147	H	0.872395	-0.501473	0.685930
O148	O	0.826419	-0.411084	0.536095
C149	C	0.785981	-0.372575	0.498199
H150	H	0.782137	-0.319259	0.517911
H151	H	0.737751	-0.397067	0.497420
H152	H	0.805356	-0.370259	0.448623
O153	O	0.672172	-0.411287	0.380974
C154	C	0.710083	-0.372820	0.421505
H155	H	0.719909	-0.321495	0.399487
H156	H	0.756081	-0.400413	0.429847
H157	H	0.684918	-0.365450	0.467954
O158	O	0.543203	-0.411414	0.381009
C159	C	0.586115	-0.449675	0.416310
H160	H	0.632728	-0.451992	0.390628
H161	H	0.567166	-0.503008	0.422914
H162	H	0.593149	-0.424964	0.463933
O163	O	0.139444	-0.411166	0.381203
C164	C	0.101663	-0.372693	0.421742
H165	H	0.121434	-0.319395	0.425698
H166	H	0.100956	-0.397255	0.469918
H167	H	0.052052	-0.370317	0.402394
H168	H	0.263322	-0.404485	0.374805
O169	O	0.470295	-0.336553	0.413490
C170	C	0.427441	-0.341349	0.463324
H171	H	0.380798	-0.318575	0.448547
H172	H	0.446421	-0.312670	0.505475
H173	H	0.420452	-0.396680	0.476249
