data_functionalizedCrystal
_audit_creation_method	'MofGen! by Chris Wilmer'
_symmetry_space_group_name_H-M	'P1'
_symmetry_Int_Tables_number	1
_symmetry_cell_setting	triclinic
loop_
_symmetry_equiv_pos_as_xyz
  x,y,z
_cell_length_a	14.908783
_cell_length_b	16.959453
_cell_length_c	16.959447
_cell_angle_alpha	89.968853
_cell_angle_beta	86.681925
_cell_angle_gamma	93.310818
loop_
_atom_site_label
_atom_site_type_symbol
_atom_site_fract_x
_atom_site_fract_y
_atom_site_fract_z
Zn1	Zn	1.379239	-0.245026	-0.516761
Zn2	Zn	1.379144	-0.377223	-0.384576
Zn3	Zn	1.228375	-0.252675	-0.376958
Zn4	Zn	1.228342	-0.384785	-0.509077
O5	O	1.303775	-0.314927	-0.446843
O6	O	1.505474	-0.256196	-0.505631
O7	O	1.359118	-0.360738	-0.272954
O8	O	1.248441	-0.141047	-0.395531
O9	O	1.505404	-0.353321	-0.408515
O10	O	1.359280	-0.135427	-0.498244
O11	O	1.248349	-0.269233	-0.267356
O12	O	1.102122	-0.276566	-0.388079
O13	O	1.248384	-0.366209	-0.620709
O14	O	1.102098	-0.373627	-0.485147
O15	O	1.359248	-0.263529	-0.626354
O16	O	1.359086	-0.488840	-0.401064
O17	O	1.248292	-0.494396	-0.492534
C18	C	1.069376	-0.326747	-0.434953
C19	C	0.969099	-0.331823	-0.429885
C20	C	0.780738	-0.240363	-0.521643
C21	C	0.686519	-0.245129	-0.516884
C22	C	0.686439	-0.346117	-0.415604
C23	C	0.780658	-0.341351	-0.420363
C24	C	0.827805	-0.288473	-0.473385
C25	C	0.922026	-0.283711	-0.478148
C26	C	0.921944	-0.384695	-0.376865
C27	C	0.827725	-0.389461	-0.372106
C28	C	1.303700	-0.520298	-0.446810
C29	C	1.303750	-0.608152	-0.446827
C30	C	1.361562	-0.976637	-0.500425
C31	C	1.246239	-0.982602	-0.393391
C32	C	1.246206	-0.900057	-0.393372
C33	C	1.303850	-0.855799	-0.446880
C34	C	1.361529	-0.894085	-0.500408
C35	C	1.188522	-0.861765	-0.339850
C36	C	1.188485	-0.779216	-0.339828
C37	C	1.246135	-0.734957	-0.393334
C38	C	1.303817	-0.773248	-0.446863
C39	C	1.361462	-0.728989	-0.500372
C40	C	1.419149	-0.767279	-0.553899
C41	C	1.419179	-0.849826	-0.553914
C42	C	1.246105	-0.652410	-0.393319
C43	C	1.361428	-0.646438	-0.500355
C44	C	1.539089	-0.303062	-0.458780
C45	C	1.639366	-0.298005	-0.463867
C46	C	1.303823	-0.314859	-0.653014
C47	C	1.303844	-0.314830	-0.740872
C48	C	1.303875	-0.108754	-0.446895
C49	C	1.303918	-0.020895	-0.446917
C50	C	1.246251	-0.267100	-1.109444
C51	C	1.361595	-0.362385	-1.115259
C52	C	1.361580	-0.362405	-1.032713
C53	C	1.303898	-0.314772	-0.988528
C54	C	1.246231	-0.267120	-1.026889
C55	C	1.419239	-0.410062	-0.994345
C56	C	1.419225	-0.410084	-0.911793
C57	C	1.361546	-0.362446	-0.867606
C58	C	1.303879	-0.314791	-0.905973
C59	C	1.246197	-0.267159	-0.861788
C60	C	1.188532	-0.219499	-0.900153
C61	C	1.188553	-0.219482	-0.982702
C62	C	1.361526	-0.362463	-0.785057
C63	C	1.246177	-0.267178	-0.779233
C64	C	1.303779	-0.314936	-0.241477
C65	C	1.303933	-0.314733	-0.153629
H66	H	0.648201	-0.205951	-0.556179
C67	C	1.481735	-0.461795	-0.869996
C68	C	1.469363	-0.451631	-0.788244
C69	C	1.526926	-0.499261	-0.749714
H70	H	1.542397	-0.447215	-0.886514
H71	H	1.468500	-0.515586	-0.882788
H72	H	1.482605	-0.397852	-0.775458
H73	H	1.408714	-0.466216	-0.771704
H74	H	1.513691	-0.553052	-0.762506
H75	H	1.587583	-0.484677	-0.766238
H76	H	1.518533	-0.492377	-0.694242
H77	H	1.408481	-0.401261	-0.753824
H78	H	1.408532	-1.007816	-0.544003
H79	H	1.466079	-0.731235	-0.597469
H80	H	1.141564	-0.180720	-0.864166
C81	C	1.481701	-0.891545	-0.611994
C82	C	1.469369	-0.973310	-0.600571
C83	C	1.526936	-1.011770	-0.654069
H84	H	1.542359	-0.875025	-0.603597
H85	H	1.468444	-0.878700	-0.664435
H86	H	1.482632	-0.986149	-0.548143
H87	H	1.408723	-0.989852	-0.608975
H88	H	1.513680	-0.998925	-0.706509
H89	H	1.587591	-0.995244	-0.645667
H90	H	1.518572	-1.067251	-0.646330
C91	C	0.832094	-0.183037	-0.579188
C92	C	0.924682	-0.189174	-0.573040
C93	C	0.972017	-0.136385	-0.626047
H94	H	0.816772	-0.130656	-0.566993
H95	H	0.816730	-0.195457	-0.631517
H96	H	0.940039	-0.176749	-0.520723
H97	H	0.940031	-0.241543	-0.585242
H98	H	0.956653	-0.148805	-0.678376
H99	H	0.956687	-0.084008	-0.613847
H100	H	1.034842	-0.140547	-0.621888
H101	H	0.960411	-0.240656	-0.521322
H102	H	0.648037	-0.389159	-0.372427
H103	H	0.789326	-0.432510	-0.328934
C104	C	1.424106	-0.414239	-1.163179
C105	C	1.404406	-0.493443	-1.142085
C106	C	1.461968	-0.541236	-1.186222
H107	H	1.484758	-0.399719	-1.152767
H108	H	1.415852	-0.407460	-1.217845
H109	H	1.412668	-0.500218	-1.087432
H110	H	1.343765	-0.507987	-1.152500
H111	H	1.453713	-0.534457	-1.240887
H112	H	1.522617	-0.526709	-1.175806
H113	H	1.448604	-0.594982	-1.171921
C114	C	1.125984	-0.167829	-1.024501
C115	C	1.138329	-0.178026	-1.106250
C116	C	1.080698	-0.130465	-1.144782
H117	H	1.139153	-0.114026	-1.011756
H118	H	1.065338	-0.182464	-1.007938
H119	H	1.198961	-0.163386	-1.122807
H120	H	1.125153	-0.231818	-1.119018
H121	H	1.020052	-0.145100	-1.128219
H122	H	1.093872	-0.076665	-1.132031
H123	H	1.089060	-0.137383	-1.200252
H124	H	0.960275	-0.423876	-0.337576
H125	H	1.199303	-1.018642	-0.349830
H126	H	1.408373	-0.610407	-0.543926
H127	H	1.141588	-0.897806	-0.296288
C128	C	1.125718	-0.737758	-0.281748
C129	C	1.036450	-0.762399	-0.294354
C130	C	0.978608	-0.724232	-0.240856
H131	H	1.133831	-0.682251	-0.289339
H132	H	1.138913	-0.750673	-0.229309
H133	H	1.023260	-0.749478	-0.346781
H134	H	1.028309	-0.817900	-0.286757
H135	H	0.991803	-0.737147	-0.188418
H136	H	0.986729	-0.668727	-0.248452
H137	H	0.918035	-0.740951	-0.249398
C138	C	1.183332	-0.610944	-0.335254
C139	C	1.094069	-0.635587	-0.347874
C140	C	1.036215	-0.597414	-0.294390
H141	H	1.191447	-0.555438	-0.342850
H142	H	1.196515	-0.623854	-0.282810
H143	H	1.080890	-0.622672	-0.400304
H144	H	1.085925	-0.691088	-0.340270
H145	H	1.049398	-0.610324	-0.241947
H146	H	1.044337	-0.541910	-0.301992
H147	H	0.975644	-0.614134	-0.302941
C148	C	1.481749	-0.461917	-1.042262
C149	C	1.462038	-0.541122	-1.021173
C150	C	1.519600	-0.588917	-1.065307
H151	H	1.542401	-0.447403	-1.031845
H152	H	1.473500	-0.455135	-1.096929
H153	H	1.470294	-0.547900	-0.966520
H154	H	1.401397	-0.555660	-1.031593
H155	H	1.511351	-0.582135	-1.119974
H156	H	1.580248	-0.574395	-1.054886
H157	H	1.506229	-0.642663	-1.051010
H158	H	1.199305	-0.228295	-1.140684
C159	C	1.183449	-0.215437	-0.731401
C160	C	1.132942	-0.173714	-0.782669
C161	C	1.075139	-0.126051	-0.738635
H162	H	1.217866	-0.179200	-0.700949
H163	H	1.144066	-0.247651	-0.697211
H164	H	1.172320	-0.141503	-0.816845
H165	H	1.098507	-0.209931	-0.813122
H166	H	1.035757	-0.158265	-0.704445
H167	H	1.109564	-0.089820	-0.708184
H168	H	1.040858	-0.097742	-0.773413
