data_functionalizedCrystal
_audit_creation_method	'MofGen! by Chris Wilmer'
_symmetry_space_group_name_H-M	'P1'
_symmetry_Int_Tables_number	1
_symmetry_cell_setting	triclinic
loop_
_symmetry_equiv_pos_as_xyz
  x,y,z
_cell_length_a	11.792241
_cell_length_b	9.065215
_cell_length_c	10.868271
_cell_angle_alpha	89.996443
_cell_angle_beta	90.005281
_cell_angle_gamma	95.395910
loop_
_atom_site_label
_atom_site_type_symbol
_atom_site_fract_x
_atom_site_fract_y
_atom_site_fract_z
O1	O	0.166417	-1.958844	0.102303
O2	O	0.180072	-1.529430	0.102310
O3	O	0.008132	-1.754558	0.102297
O4	O	0.338358	-1.733716	0.102315
O5	O	0.008125	-1.754539	-0.102347
O6	O	0.180065	-1.529412	-0.102335
O7	O	0.166410	-1.958825	-0.102342
Zn8	Zn	0.173237	-1.744115	-0.134830
Zn9	Zn	0.173246	-1.744140	0.134798
O10	O	0.338351	-1.733698	-0.102330
C11	C	0.178757	-1.474447	-0.000012
C12	C	0.174835	-1.310640	-0.000009
C13	C	-0.034170	-1.753239	-0.000025
C14	C	-0.160205	-1.749321	-0.000023
C15	C	-0.390957	-1.742115	-0.000003
C16	C	-0.262550	-1.746119	-0.000014
C17	C	0.380652	-1.735016	-0.000005
C18	C	0.506688	-1.738935	0.000002
C19	C	0.167725	-1.013809	-0.000017
C20	C	0.171647	-1.177615	-0.000009
N21	N	0.173230	-1.744109	-0.318844
C22	C	0.173243	-1.744132	-0.569850
C23	C	0.173239	-1.744115	-0.430173
N24	N	0.173244	-1.744158	0.318812
