data_functionalizedCrystal
_audit_creation_method	'MofGen! by Chris Wilmer'
_symmetry_space_group_name_H-M	'P1'
_symmetry_Int_Tables_number	1
_symmetry_cell_setting	triclinic
loop_
_symmetry_equiv_pos_as_xyz
  x,y,z
_cell_length_a	6.817900
_cell_length_b	12.000032
_cell_length_c	12.200875
_cell_angle_alpha	89.605781
_cell_angle_beta	107.143593
_cell_angle_gamma	119.142083
loop_
_atom_site_label
_atom_site_type_symbol
_atom_site_fract_x
_atom_site_fract_y
_atom_site_fract_z
V1	V	-4.155829	-0.177158	-0.359598
V2	V	-3.822496	0.156176	-0.026265
V3	V	-3.489163	0.489509	0.307068
O4	O	-4.050982	0.008214	-0.350763
O5	O	-3.717648	0.341548	-0.017429
O6	O	-3.384315	0.674881	0.315904
O7	O	-4.192930	-0.350986	-0.359053
O8	O	-3.859597	-0.017653	-0.025720
O9	O	-3.526264	0.315680	0.307613
O10	O	-4.124271	-0.174564	-0.515558
O11	O	-3.790938	0.158770	-0.182225
O12	O	-3.457605	0.492103	0.151108
O13	O	-4.120116	-0.169430	-0.193174
O14	O	-3.786783	0.163904	0.140159
O15	O	-3.453449	0.497237	0.473492
V16	V	-4.626196	-0.154969	-0.339460
V17	V	-4.292863	0.178364	-0.006127
V18	V	-3.959529	0.511697	0.327207
O19	O	-4.445947	-0.225829	-0.403773
O20	O	-4.112614	0.107504	-0.070440
O21	O	-3.779281	0.440838	0.262894
O22	O	-4.786276	-0.106298	-0.295285
O23	O	-4.452942	0.227035	0.038048
O24	O	-4.119609	0.560369	0.371381
O25	O	-4.365889	0.018859	-0.340005
O26	O	-4.032555	0.352193	-0.006672
O27	O	-3.699222	0.685526	0.326661
O28	O	-4.848441	-0.340341	-0.348296
O29	O	-4.515107	-0.007008	-0.014962
O30	O	-4.181774	0.326325	0.318371
O31	O	-4.779306	-0.162697	-0.505884
O32	O	-4.445973	0.170636	-0.172551
O33	O	-4.112640	0.503969	0.160782
O34	O	-4.434548	-0.157563	-0.183500
O35	O	-4.101214	0.175770	0.149833
O36	O	-3.767881	0.509103	0.483166
C37	C	-4.058186	-0.393358	-0.353874
C38	C	-3.724853	-0.060025	-0.020541
C39	C	-3.391519	0.273309	0.312792
C40	C	-4.169919	-0.535466	-0.354468
C41	C	-3.836586	-0.202133	-0.021135
C42	C	-3.503253	0.131201	0.312198
C43	C	-4.042975	-0.592632	-0.349225
C44	C	-3.709641	-0.259298	-0.015892
C45	C	-3.376308	0.074035	0.317442
C46	C	-4.158453	-0.739508	-0.349839
C47	C	-3.825119	-0.406174	-0.016505
C48	C	-3.491786	-0.072841	0.316828
C49	C	-3.970603	-0.168312	-0.553511
C50	C	-3.637269	0.165022	-0.220177
C51	C	-3.303936	0.498355	0.113156
C52	C	-4.026650	-0.167341	-0.681021
C53	C	-3.693316	0.165992	-0.347688
C54	C	-3.359983	0.499326	-0.014355
C55	C	-4.129224	-0.165565	-0.914476
C56	C	-3.795891	0.167768	-0.581143
C57	C	-3.462557	0.501101	-0.247809
C58	C	-4.072136	-0.166553	-0.784565
C59	C	-3.738802	0.166780	-0.451232
C60	C	-3.405469	0.500114	-0.117898
C61	C	-4.163978	0.061224	-0.345181
C62	C	-3.830645	0.394558	-0.011848
C63	C	-3.497311	0.727891	0.321486
C64	C	-4.031484	0.203331	-0.344595
C65	C	-3.698151	0.536664	-0.011261
C66	C	-3.364818	0.869998	0.322072
C67	C	-4.251560	-0.163820	-0.145542
C68	C	-3.918226	0.169514	0.187791
C69	C	-3.584893	0.502847	0.521125
C70	C	-4.174748	-0.164784	-0.018030
C71	C	-3.841415	0.168550	0.315303
C72	C	-3.508081	0.501883	0.648637
H73	H	-4.364086	-0.595259	-0.359400
H74	H	-4.030753	-0.261926	-0.026066
H75	H	-3.697419	0.071408	0.307267
Cl76	Cl	-3.743170	-0.500320	-0.341574
Cl77	Cl	-3.409837	-0.166987	-0.008240
Cl78	Cl	-3.076503	0.166347	0.325093
H79	H	-3.837299	-0.736880	-0.339647
H80	H	-3.503966	-0.403546	-0.006314
H81	H	-3.170633	-0.070213	0.327019
Cl82	Cl	-4.458250	-0.831810	-0.357462
Cl83	Cl	-4.124917	-0.498477	-0.024129
Cl84	Cl	-3.791583	-0.165143	0.309204
