data_functionalizedCrystal
_audit_creation_method	'MofGen! by Chris Wilmer'
_symmetry_space_group_name_H-M	'P1'
_symmetry_Int_Tables_number	1
_symmetry_cell_setting	triclinic
loop_
_symmetry_equiv_pos_as_xyz
  x,y,z
_cell_length_a	25.639239
_cell_length_b	16.625547
_cell_length_c	16.625539
_cell_angle_alpha	89.972942
_cell_angle_beta	90.031255
_cell_angle_gamma	89.962128
loop_
_atom_site_label
_atom_site_type_symbol
_atom_site_fract_x
_atom_site_fract_y
_atom_site_fract_z
Zn1	Zn	-0.208161	-1.232590	0.456032
Zn2	Zn	0.291839	-0.732590	0.956032
Zn3	Zn	-0.295599	-1.232455	0.321193
Zn4	Zn	0.204401	-0.732455	0.821193
Zn5	Zn	-0.208178	-1.097751	0.321198
Zn6	Zn	0.291822	-0.597751	0.821198
Zn7	Zn	-0.295566	-1.097684	0.455967
Zn8	Zn	0.204434	-0.597684	0.955967
O9	O	-0.251876	-1.165120	0.388597
O10	O	0.248124	-0.665120	0.888597
O11	O	-0.219767	-1.345404	0.438171
O12	O	0.280233	-0.845404	0.938171
O13	O	-0.284023	-1.214558	0.208361
O14	O	0.215977	-0.714558	0.708361
O15	O	-0.135011	-1.115723	0.339113
O16	O	0.364989	-0.615723	0.839113
O17	O	-0.284007	-1.345305	0.339105
O18	O	0.215993	-0.845305	0.839105
O19	O	-0.134998	-1.214788	0.438176
O20	O	0.365002	-0.714788	0.938176
O21	O	-0.219796	-1.115592	0.208365
O22	O	0.280204	-0.615592	0.708365
O23	O	-0.219764	-0.984910	0.339050
O24	O	0.280236	-0.484910	0.839050
O25	O	-0.283951	-1.115607	0.568808
O26	O	0.216049	-0.615607	1.068808
O27	O	-0.283967	-0.984860	0.438065
O28	O	0.216033	-0.484860	0.938065
O29	O	-0.219735	-1.214722	0.568856
O30	O	0.280265	-0.714722	1.068856
O31	O	-0.368760	-1.214492	0.339041
O32	O	0.131240	-0.714492	0.839041
O33	O	-0.368736	-1.115477	0.438060
O34	O	0.131264	-0.615477	0.938060
C35	C	-0.251864	-0.955629	0.388551
C36	C	0.248136	-0.455629	0.888551
C37	C	-0.251872	-0.866008	0.388551
C38	C	0.248128	-0.366008	0.888551
C39	C	-0.251872	-0.793225	0.388558
C40	C	0.248128	-0.293225	0.888558
C41	C	-0.251874	-0.701917	0.388574
C42	C	0.248126	-0.201917	0.888574
C43	C	-0.251878	-0.629141	0.388592
C44	C	0.248122	-0.129141	0.888592
C45	C	-0.251881	-0.537826	0.388608
C46	C	0.248119	-0.037826	0.888608
C47	C	-0.387719	-1.164984	0.388561
C48	C	0.112281	-0.664984	0.888561
C49	C	-0.445833	-1.165000	0.388572
C50	C	0.054167	-0.665000	0.888572
C51	C	-0.806196	-1.216812	0.337127
C52	C	-0.306196	-0.716812	0.837127
C53	C	-0.860800	-1.216843	0.337137
C54	C	-0.360800	-0.716843	0.837137
O55	O	-0.889037	-1.260755	0.293356
O56	O	-0.389037	-0.760755	0.793356
N57	N	-0.888115	-1.165262	0.388651
N58	N	-0.388115	-0.665262	0.888651
C59	C	-0.860823	-1.113651	0.440163
C60	C	-0.360823	-0.613651	0.940163
O61	O	-0.889071	-1.069781	0.483981
O62	O	-0.389071	-0.569781	0.983981
C63	C	-0.806220	-1.113625	0.440156
C64	C	-0.306220	-0.613625	0.940156
C65	C	-0.778908	-1.165204	0.388633
C66	C	-0.278908	-0.665204	0.888633
C67	C	-0.778883	-1.268387	0.285609
C68	C	-0.278883	-0.768387	0.785609
C69	C	-0.724283	-1.268355	0.285597
C70	C	-0.224283	-0.768355	0.785597
C71	C	-0.696995	-1.216747	0.337103
C72	C	-0.196995	-0.716747	0.837103
C73	C	-0.724307	-1.165171	0.388621
C74	C	-0.224307	-0.665171	0.888621
C75	C	-0.778929	-1.062019	0.491671
C76	C	-0.278929	-0.562019	0.991671
C77	C	-0.724322	-1.061997	0.491660
C78	C	-0.224322	-0.561997	0.991660
C79	C	-0.697009	-1.113576	0.440137
C80	C	-0.197009	-0.613576	0.940137
C81	C	-0.642418	-1.113531	0.440116
C82	C	-0.142418	-0.613531	0.940116
N83	N	-0.615103	-1.165112	0.388602
N84	N	-0.115103	-0.665112	0.888602
C85	C	-0.642391	-1.216720	0.337096
C86	C	-0.142391	-0.716720	0.837096
C87	C	-0.975494	-1.113712	0.440175
C88	C	-0.475494	-0.613712	0.940175
C89	C	-1.030096	-1.113734	0.440179
C90	C	-0.530096	-0.613734	0.940179
C91	C	-1.030069	-1.216927	0.337154
C92	C	-0.530069	-0.716927	0.837154
C93	C	-0.975466	-1.216900	0.337147
C94	C	-0.475466	-0.716900	0.837147
C95	C	-0.948179	-1.165294	0.388662
C96	C	-0.448179	-0.665294	0.888662
C97	C	-0.527726	-1.216648	0.337075
C98	C	-0.027726	-0.716648	0.837075
C99	C	-0.473121	-1.216608	0.337065
C100	C	0.026879	-0.716608	0.837065
C101	C	-0.473153	-1.113418	0.440093
C102	C	0.026847	-0.613418	0.940093
C103	C	-0.527753	-1.113454	0.440100
C104	C	-0.027753	-0.613454	0.940100
C105	C	-0.555039	-1.165076	0.388588
C106	C	-0.055039	-0.665076	0.888588
O107	O	-0.614147	-1.069644	0.483877
O108	O	-0.114147	-0.569644	0.983877
O109	O	-0.614137	-1.260591	0.293293
O110	O	-0.114137	-0.760591	0.793293
C111	C	-0.115503	-1.165278	0.388652
C112	C	0.384497	-0.665278	0.888652
C113	C	-0.057389	-1.165345	0.388676
C114	C	0.442611	-0.665345	0.888676
C115	C	-0.251837	-1.165172	0.598906
C116	C	0.248163	-0.665172	1.098906
C117	C	-0.251821	-1.165195	0.688528
C118	C	0.248179	-0.665195	1.188528
C119	C	-0.251886	-0.375429	0.388635
C120	C	0.248114	0.124571	0.888635
C121	C	-0.251885	-0.465050	0.388625
C122	C	0.248115	0.034950	0.888625
C123	C	-0.251877	-1.165114	0.179107
C124	C	0.248123	-0.665114	0.679107
C125	C	-0.251747	-1.165248	0.089486
C126	C	0.248253	-0.665248	0.589486
C127	C	-0.251762	-1.165232	1.016704
C128	C	0.248238	-0.665232	1.516704
C129	C	-0.251780	-1.165219	0.925395
C130	C	0.248220	-0.665219	1.425395
C131	C	-0.251792	-1.165214	0.852618
C132	C	0.248208	-0.665214	1.352618
C133	C	-0.251809	-1.165200	0.761304
C134	C	0.248191	-0.665200	1.261304
H135	H	-0.450885	-1.258610	0.295107
H136	H	0.049115	-0.758610	0.795107
F137	F	-1.059121	-1.271852	0.282335
F138	F	-0.559121	-0.771852	0.782335
F139	F	-0.444101	-1.058498	0.494909
F140	F	0.055899	-0.558498	0.994909
F141	F	-0.556822	-1.058544	0.494921
F142	F	-0.056822	-0.558544	0.994921
H143	H	-0.702048	-1.310357	0.243645
H144	H	-0.202048	-0.810357	0.743645
F145	F	-0.946457	-1.058776	0.495002
F146	F	-0.446457	-0.558776	0.995002
H147	H	-1.052329	-1.071725	0.482127
H148	H	-0.552329	-0.571725	0.982127
F149	F	-0.946403	-1.271798	0.282311
F150	F	-0.446403	-0.771798	0.782311
H151	H	-0.549936	-1.258684	0.295131
H152	H	-0.049936	-0.758684	0.795131
H153	H	-0.801096	-1.310417	0.243666
H154	H	-0.301096	-0.810417	0.743666
F155	F	-0.807985	-1.007127	0.546517
F156	F	-0.307985	-0.507127	1.046517
F157	F	-0.695284	-1.007070	0.546492
F158	F	-0.195284	-0.507070	1.046492
