data_functionalizedCrystal
_audit_creation_method	'MofGen! by Chris Wilmer'
_symmetry_space_group_name_H-M	'P1'
_symmetry_Int_Tables_number	1
_symmetry_cell_setting	triclinic
loop_
_symmetry_equiv_pos_as_xyz
  x,y,z
_cell_length_a	21.295417
_cell_length_b	21.295419
_cell_length_c	12.759393
_cell_angle_alpha	90.021637
_cell_angle_beta	90.039220
_cell_angle_gamma	90.045308
loop_
_atom_site_label
_atom_site_type_symbol
_atom_site_fract_x
_atom_site_fract_y
_atom_site_fract_z
Zn1	Zn	-0.250323	0.962338	0.594015
Zn2	Zn	0.249677	1.462338	1.094015
Zn3	Zn	-0.355607	0.962245	0.418312
Zn4	Zn	0.144393	1.462245	0.918312
Zn5	Zn	-0.250383	0.857066	0.418345
Zn6	Zn	0.249617	1.357066	0.918345
Zn7	Zn	-0.355586	0.857030	0.593944
Zn8	Zn	0.144414	1.357030	1.093944
O9	O	-0.302975	0.909670	0.506154
O10	O	0.197025	1.409670	1.006154
O11	O	-0.264273	1.050415	0.570724
O12	O	0.235727	1.550415	1.070724
O13	O	-0.341683	0.948269	0.271295
O14	O	0.158317	1.448269	0.771295
O15	O	-0.162286	0.871084	0.441692
O16	O	0.337714	1.371084	0.941692
O17	O	-0.341625	1.050347	0.441636
O18	O	0.158375	1.550347	0.941636
O19	O	-0.162242	0.948427	0.570756
O20	O	0.337758	1.448427	1.070756
O21	O	-0.264375	0.870995	0.271319
O22	O	0.235625	1.370995	0.771319
O23	O	-0.264354	0.768972	0.441622
O24	O	0.235646	1.268972	0.941622
O25	O	-0.341588	0.871023	0.740974
O26	O	0.158412	1.371023	1.240974
O27	O	-0.341646	0.768946	0.570634
O28	O	0.158354	1.268946	1.070634
O29	O	-0.264252	0.948392	0.741027
O30	O	0.235748	1.448392	1.241027
O31	O	-0.443694	0.948235	0.441566
O32	O	0.056306	1.448235	0.941566
O33	O	-0.443678	0.870934	0.570602
O34	O	0.056322	1.370934	1.070602
C35	C	-0.303005	0.746118	0.506125
C36	C	0.196995	1.246118	1.006125
C37	C	-0.303033	0.676150	0.506137
C38	C	0.196967	1.176150	1.006137
C39	C	-0.262822	0.643341	0.573457
C40	C	0.237178	1.143341	1.073457
C41	C	-0.262805	0.577599	0.573461
C42	C	0.237195	1.077599	1.073461
C43	C	-0.303011	0.544668	0.506156
C44	C	0.196989	1.044668	1.006156
C45	C	-0.343225	0.577484	0.438823
C46	C	0.156775	1.077484	0.938823
C47	C	-0.343236	0.643226	0.438813
C48	C	0.156764	1.143226	0.938813
N49	N	-0.358089	0.441392	0.497945
N50	N	0.141911	0.941392	0.997945
N51	N	-0.358077	0.378941	0.497960
N52	N	0.141923	0.878941	0.997960
C53	C	-0.302978	0.346593	0.506179
C54	C	0.197022	0.846593	1.006179
N55	N	-0.247891	0.379055	0.514403
N56	N	0.252109	0.879055	1.014403
N57	N	-0.247904	0.441513	0.514393
N58	N	0.252096	0.941513	1.014393
C59	C	-0.303002	0.473382	0.506158
C60	C	0.196998	0.973382	1.006158
C61	C	-0.262745	0.242498	0.573507
C62	C	0.237255	0.742498	1.073507
C63	C	-0.262727	0.176755	0.573504
C64	C	0.237273	0.676755	1.073504
C65	C	-0.343152	0.176642	0.438871
C66	C	0.156848	0.676642	0.938871
C67	C	-0.343165	0.242384	0.438869
C68	C	0.156835	0.742384	0.938869
C69	C	-0.302962	0.275309	0.506193
C70	C	0.197038	0.775309	1.006193
C71	C	-0.466526	0.909587	0.506096
C72	C	0.033474	1.409587	1.006096
C73	C	-0.536495	0.909610	0.506106
C74	C	-0.036495	1.409610	1.006106
C75	C	-0.569349	0.949896	0.438986
C76	C	-0.069349	1.449896	0.938986
C77	C	-0.635091	0.949925	0.439010
C78	C	-0.135091	1.449925	0.939010
C79	C	-0.667977	0.909657	0.506142
C80	C	-0.167977	1.409657	1.006142
C81	C	-0.635115	0.869368	0.573276
C82	C	-0.135115	1.369368	1.073276
C83	C	-0.569374	0.869344	0.573257
C84	C	-0.069374	1.369344	1.073257
N85	N	-0.771256	0.854590	0.514142
N86	N	-0.271256	1.354590	1.014142
N87	N	-0.833708	0.854615	0.514153
N88	N	-0.333708	1.354615	1.014153
C89	C	-0.866052	0.909728	0.506203
C90	C	-0.366052	1.409728	1.006203
N91	N	-0.833585	0.964817	0.498220
N92	N	-0.333585	1.464817	0.998220
N93	N	-0.771128	0.964792	0.498204
N94	N	-0.271128	1.464792	0.998204
C95	C	-0.739262	0.909679	0.506170
C96	C	-0.239262	1.409679	1.006170
C97	C	-0.970191	0.950050	0.439104
C98	C	-0.470191	1.450050	0.939104
C99	C	-1.035935	0.950080	0.439136
C100	C	-0.535935	1.450080	0.939136
C101	C	-1.035958	0.869517	0.573396
C102	C	-0.535958	1.369517	1.073396
C103	C	-0.970215	0.869492	0.573370
C104	C	-0.470215	1.369492	1.073370
C105	C	-0.937336	0.909758	0.506219
C106	C	-0.437336	1.409758	1.006219
C107	C	-0.138784	0.909770	0.506235
C108	C	0.361216	1.409770	1.006235
C109	C	-0.068816	0.909812	0.506270
C110	C	0.431184	1.409812	1.006270
C111	C	-0.302911	0.909714	0.780188
C112	C	0.197089	1.409714	1.280188
C113	C	-0.302884	0.909732	0.896964
C114	C	0.197116	1.409732	1.396964
C115	C	-0.302945	1.073860	0.506184
C116	C	0.197055	1.573860	1.006184
C117	C	-0.302932	1.143828	0.506197
C118	C	0.197068	1.643828	1.006197
C119	C	-0.302993	0.909662	0.233187
C120	C	0.197007	1.409662	0.733187
C121	C	-0.302843	0.909765	0.116411
C122	C	0.197157	1.409765	0.616411
C123	C	-0.262622	0.869510	0.951838
C124	C	0.237378	1.369510	1.451838
C125	C	-0.262603	0.869525	1.061562
C126	C	0.237397	1.369525	1.561562
C127	C	-0.343109	0.949990	1.061529
C128	C	0.156891	1.449990	1.561529
C129	C	-0.343131	0.949971	0.951807
C130	C	0.156869	1.449971	1.451807
C131	C	-0.240094	0.795324	1.211514
C132	C	0.259906	1.295324	1.711514
C133	C	-0.199822	0.755107	1.266391
C134	C	0.300178	1.255107	1.766391
C135	C	-0.138408	0.745475	1.230815
C136	C	0.361592	1.245475	1.730815
C137	C	-0.117253	0.776069	1.140362
C138	C	0.382747	1.276069	1.640362
C139	C	-0.157521	0.816291	1.085490
C140	C	0.342479	1.316291	1.585490
C141	C	-0.218944	0.825911	1.121065
C142	C	0.281056	1.325911	1.621065
C143	C	-0.365634	1.024173	0.801854
C144	C	0.134366	1.524173	1.301854
C145	C	-0.405899	1.064398	0.746979
C146	C	0.094101	1.564398	1.246979
C147	C	-0.467314	1.074036	0.782554
C148	C	0.032686	1.574036	1.282554
C149	C	-0.488467	1.043453	0.873010
C150	C	0.011533	1.543453	1.373010
C151	C	-0.448201	1.003228	0.927884
C152	C	0.051799	1.503228	1.427884
C153	C	-0.386787	0.993589	0.892302
C154	C	0.113213	1.493589	1.392302
H155	H	-0.375912	0.269097	0.384054
H156	H	0.124088	0.769097	0.884054
O157	O	-0.934781	0.826022	0.645744
O158	O	-0.434781	1.326022	1.145744
H159	H	-0.947346	0.836785	0.728225
H160	H	-0.447346	1.336785	1.228225
H161	H	-0.140296	0.841203	1.011848
H162	H	0.359704	1.341203	1.511848
H163	H	-0.229851	0.836745	0.907189
H164	H	0.270149	1.336745	1.407189
H165	H	-0.500095	1.106797	0.737871
H166	H	-0.000095	1.606797	1.237871
O167	O	-0.306339	0.805702	1.249882
O168	O	0.193661	1.305702	1.749882
H169	H	-0.330791	0.838801	1.196523
H170	H	0.169209	1.338801	1.696523
O171	O	-0.934726	0.993498	0.366713
O172	O	-0.434726	1.493498	0.866713
H173	H	-0.883492	0.986712	0.377974
H174	H	-0.383492	1.486712	0.877974
H175	H	-1.062684	0.982890	0.384480
H176	H	-0.562684	1.482890	0.884480
O177	O	-0.219457	0.678849	0.646065
O178	O	0.280543	1.178849	1.146065
H179	H	-0.226222	0.730076	0.634757
H180	H	0.273778	1.230076	1.134757
H181	H	-0.661846	0.982734	0.384353
H182	H	-0.161846	1.482734	0.884353
H183	H	-1.062733	0.836733	0.628061
H184	H	-0.562733	1.336733	1.128061
H185	H	-0.375960	0.550668	0.384022
H186	H	0.124040	1.050668	0.884022
H187	H	-0.230005	0.269307	0.628320
H188	H	0.269995	0.769307	1.128320
H189	H	-0.067241	0.768229	1.111410
H190	H	0.432759	1.268229	1.611410
H191	H	-0.105619	0.712730	1.275504
H192	H	0.394381	1.212730	1.775504
O193	O	-0.386608	0.678618	0.366199
O194	O	0.113392	1.178618	0.866199
H195	H	-0.436024	0.665962	0.384066
H196	H	0.063976	1.165962	0.884066
O197	O	-0.219438	0.542199	0.646081
O198	O	0.280562	1.042199	1.146081
H199	H	-0.191488	0.576139	0.692897
H200	H	0.308512	1.076139	1.192897
H201	H	-0.217053	0.730198	1.340038
H202	H	0.282947	1.230198	1.840038
O203	O	-0.386511	0.993395	1.120678
O204	O	0.113489	1.493395	1.620678
H205	H	-0.379727	0.986657	1.206195
H206	H	0.120273	1.486657	1.706195
H207	H	-0.542580	0.982684	0.384310
H208	H	-0.042580	1.482684	0.884310
O209	O	-0.471018	0.970239	1.025447
O210	O	0.028982	1.470239	1.525447
H211	H	-0.432700	0.940654	1.057630
H212	H	0.067300	1.440654	1.557630
O213	O	-0.670579	0.825927	0.645674
O214	O	-0.170579	1.325927	1.145674
H215	H	-0.721813	0.832705	0.634400
H216	H	-0.221813	1.332705	1.134400
H217	H	-0.542624	0.836538	0.627916
H218	H	-0.042624	1.336538	1.127916
O219	O	-0.554710	1.053839	0.911386
O220	O	-0.054710	1.553839	1.411386
H221	H	-0.579158	1.086941	0.858026
H222	H	-0.079158	1.586941	1.358026
O223	O	-0.383090	1.097383	0.649409
O224	O	0.116910	1.597383	1.149409
H225	H	-0.333622	1.083916	0.633876
H226	H	0.166378	1.583916	1.133876
H227	H	-0.315631	1.016310	0.772859
H228	H	0.184369	1.516310	1.272859
H229	H	-0.229978	0.150043	0.628323
H230	H	0.270022	0.650043	1.128323
H231	H	-0.375888	0.149830	0.384070
H232	H	0.124112	0.649830	0.884070
