data_functionalizedCrystal
_audit_creation_method	'MofGen! by Chris Wilmer'
_symmetry_space_group_name_H-M	'P1'
_symmetry_Int_Tables_number	1
_symmetry_cell_setting	triclinic
loop_
_symmetry_equiv_pos_as_xyz
  x,y,z
_cell_length_a	11.169417
_cell_length_b	16.625539
_cell_length_c	11.169416
_cell_angle_alpha	89.979018
_cell_angle_beta	90.011589
_cell_angle_gamma	89.986584
loop_
_atom_site_label
_atom_site_type_symbol
_atom_site_fract_x
_atom_site_fract_y
_atom_site_fract_z
Zn1	Zn	1.834890	-0.455862	-0.477787
Zn2	Zn	1.834801	-0.321042	-0.678493
Zn3	Zn	1.634197	-0.321051	-0.477827
Zn4	Zn	1.634183	-0.455840	-0.678431
O5	O	1.734518	-0.388449	-0.578135
O6	O	2.002828	-0.437983	-0.504420
O7	O	1.808159	-0.208210	-0.651917
O8	O	1.660863	-0.338946	-0.309872
O9	O	2.002762	-0.338931	-0.651878
O10	O	1.808311	-0.437991	-0.309843
O11	O	1.660776	-0.208217	-0.504488
O12	O	1.466246	-0.338926	-0.504428
O13	O	1.660839	-0.568675	-0.651773
O14	O	1.466236	-0.437955	-0.651811
O15	O	1.808297	-0.568691	-0.504360
O16	O	1.808145	-0.338910	-0.846434
O17	O	1.660753	-0.437946	-0.846389
C18	C	1.422693	-0.388439	-0.578118
C19	C	1.289293	-0.388455	-0.578140
C20	C	1.734577	-0.598758	-0.578055
C21	C	1.734602	-0.688379	-0.578022
C22	C	1.734621	-0.761161	-0.577995
C23	C	1.734649	-0.852470	-0.577950
C24	C	1.734678	-0.925246	-0.577908
C25	C	1.734708	-1.016561	-0.577865
C26	C	2.047560	-0.388458	-0.578152
C27	C	2.180960	-0.388462	-0.578159
C28	C	1.734470	-0.388442	-0.889959
C29	C	1.734560	-0.388467	-1.023359
C30	C	1.734528	-0.178958	-0.578127
C31	C	1.734736	-0.089337	-0.577823
C32	C	1.734598	-0.388472	-0.265092
C33	C	1.734633	-0.388483	-0.131692
