data_functionalizedCrystal
_audit_creation_method	'MofGen! by Chris Wilmer'
_symmetry_space_group_name_H-M	'P1'
_symmetry_Int_Tables_number	1
_symmetry_cell_setting	triclinic
loop_
_symmetry_equiv_pos_as_xyz
  x,y,z
_cell_length_a	14.908571
_cell_length_b	21.295417
_cell_length_c	14.908694
_cell_angle_alpha	93.263731
_cell_angle_beta	83.592472
_cell_angle_gamma	86.726349
loop_
_atom_site_label
_atom_site_type_symbol
_atom_site_fract_x
_atom_site_fract_y
_atom_site_fract_z
Zn1	Zn	1.413254	-0.331401	-0.591454
Zn2	Zn	1.746587	0.001932	-0.258121
Zn3	Zn	2.079920	0.335266	0.075212
Zn4	Zn	1.404396	-0.430225	-0.440074
Zn5	Zn	1.737729	-0.096892	-0.106740
Zn6	Zn	2.071063	0.236441	0.226593
Zn7	Zn	1.253159	-0.318526	-0.431392
Zn8	Zn	1.586493	0.014808	-0.098058
Zn9	Zn	1.919826	0.348141	0.235275
Zn10	Zn	1.261828	-0.430176	-0.582672
Zn11	Zn	1.595161	-0.096843	-0.249339
Zn12	Zn	1.928494	0.236490	0.083995
O13	O	1.333159	-0.377582	-0.511398
O14	O	1.666492	-0.044249	-0.178065
O15	O	1.999826	0.289085	0.155269
O16	O	1.538744	-0.349919	-0.578682
O17	O	1.872078	-0.016586	-0.245349
O18	O	2.205411	0.316748	0.087984
O19	O	1.376999	-0.410040	-0.312257
O20	O	1.710332	-0.076707	0.021076
O21	O	2.043666	0.256627	0.354409
O22	O	1.274475	-0.232149	-0.452666
O23	O	1.607809	0.101184	-0.119333
O24	O	1.941142	0.434518	0.214000
O25	O	1.532236	-0.422525	-0.467464
O26	O	1.865570	-0.089192	-0.134130
O27	O	2.198903	0.244142	0.199203
O28	O	1.392096	-0.241609	-0.570264
O29	O	1.725430	0.091725	-0.236931
O30	O	2.058763	0.425058	0.096403
O31	O	1.265886	-0.327975	-0.305879
O32	O	1.599220	0.005358	0.027455
O33	O	1.932553	0.338692	0.360788
O34	O	1.127644	-0.327928	-0.444151
O35	O	1.460977	0.005406	-0.110817
O36	O	1.794310	0.338739	0.222516
O37	O	1.289249	-0.422442	-0.710502
O38	O	1.622583	-0.089108	-0.377168
O39	O	1.955916	0.244225	-0.043835
O40	O	1.134012	-0.409957	-0.555295
O41	O	1.467346	-0.076624	-0.221962
O42	O	1.800679	0.256710	0.111371
O43	O	1.400502	-0.349872	-0.716954
O44	O	1.733835	-0.016538	-0.383621
O45	O	2.067168	0.316795	-0.050287
O46	O	1.385405	-0.518303	-0.458948
O47	O	1.718738	-0.184970	-0.125614
O48	O	2.052071	0.148363	0.207719
O49	O	1.280660	-0.518267	-0.563714
O50	O	1.613994	-0.184934	-0.230381
O51	O	1.947327	0.148399	0.102953
C52	C	1.097985	-0.367540	-0.497828
C53	C	1.431318	-0.034207	-0.164495
C54	C	1.764652	0.299126	0.168838
C55	C	0.997378	-0.363260	-0.492045
C56	C	1.330711	-0.029927	-0.158711
C57	C	1.664044	0.303406	0.174622
C58	C	0.814997	-0.440754	-0.596756
C59	C	1.148330	-0.107420	-0.263423
C60	C	1.481664	0.225913	0.069910
C61	C	0.720468	-0.436734	-0.591325
C62	C	1.053801	-0.103401	-0.257992
C63	C	1.387134	0.229932	0.075341
C64	C	0.713788	-0.351200	-0.475757
C65	C	1.047122	-0.017867	-0.142423
C66	C	1.380455	0.315466	0.190910
C67	C	0.808318	-0.355219	-0.481188
C68	C	1.141651	-0.021886	-0.147854
C69	C	1.474984	0.311447	0.185479
C70	C	0.858919	-0.399998	-0.541689
C71	C	1.192252	-0.066665	-0.208355
C72	C	1.525585	0.266668	0.124978
C73	C	0.953449	-0.404020	-0.547115
C74	C	1.286783	-0.070687	-0.213781
C75	C	1.620116	0.262647	0.119552
C76	C	0.946769	-0.318483	-0.431551
C77	C	1.280102	0.014850	-0.098218
C78	C	1.613435	0.348183	0.235116
C79	C	0.852239	-0.314464	-0.426120
C80	C	1.185573	0.018869	-0.092787
C81	C	1.518906	0.352203	0.240547
C82	C	1.333038	-0.541127	-0.511341
C83	C	1.666371	-0.207793	-0.178008
C84	C	1.999704	0.125540	0.155326
C85	C	1.333070	-0.611096	-0.511352
C86	C	1.666403	-0.277763	-0.178018
C87	C	1.999737	0.055570	0.155315
C88	C	1.387665	-0.643966	-0.456862
C89	C	1.720999	-0.310632	-0.123529
C90	C	2.054332	0.022701	0.209805
C91	C	1.387709	-0.709711	-0.456885
C92	C	1.721042	-0.376377	-0.123552
C93	C	2.054376	-0.043044	0.209782
C94	C	1.333141	-0.742583	-0.511387
C95	C	1.666474	-0.409250	-0.178054
C96	C	1.999807	-0.075916	0.155280
C97	C	1.278542	-0.709706	-0.565887
C98	C	1.611875	-0.376373	-0.232554
C99	C	1.945209	-0.043040	0.100779
C100	C	1.278507	-0.643963	-0.565870
C101	C	1.611840	-0.310630	-0.232537
C102	C	1.945173	0.022704	0.100797
N103	N	1.254356	-0.842766	-0.513718
N104	N	1.587689	-0.509432	-0.180385
N105	N	1.921023	-0.176099	0.152948
N106	N	1.254392	-0.905219	-0.513730
N107	N	1.587725	-0.571886	-0.180397
N108	N	1.921058	-0.238552	0.152937
C109	C	1.333245	-0.940664	-0.511445
C110	C	1.666578	-0.607331	-0.178111
C111	C	1.999912	-0.273998	0.155222
N112	N	1.412062	-0.911297	-0.509130
N113	N	1.745395	-0.577963	-0.175796
N114	N	2.078729	-0.244630	0.157537
N115	N	1.412025	-0.848837	-0.509113
N116	N	1.745358	-0.515504	-0.175780
N117	N	2.078691	-0.182171	0.157553
C118	C	1.333173	-0.813871	-0.511412
C119	C	1.666507	-0.480538	-0.178079
C120	C	1.999840	-0.147204	0.155254
C121	C	1.387892	-1.044822	-0.456977
C122	C	1.721226	-0.711489	-0.123644
C123	C	2.054559	-0.378155	0.209690
C124	C	1.387938	-1.110569	-0.457006
C125	C	1.721271	-0.777235	-0.123673
C126	C	2.054604	-0.443902	0.209660
C127	C	1.278762	-1.110563	-0.566003
C128	C	1.612096	-0.777229	-0.232670
C129	C	1.945429	-0.443896	0.100663
C130	C	1.278725	-1.044818	-0.565979
C131	C	1.612059	-0.711484	-0.232646
C132	C	1.945392	-0.378151	0.100687
C133	C	1.333289	-1.011951	-0.511461
C134	C	1.666622	-0.678618	-0.178128
C135	C	1.999955	-0.345284	0.155205
C136	C	1.569252	-0.387664	-0.525021
C137	C	1.902585	-0.054330	-0.191688
C138	C	2.235918	0.279003	0.141646
C139	C	1.669860	-0.391960	-0.530826
C140	C	2.003193	-0.058626	-0.197493
C141	C	2.336527	0.274707	0.135840
C142	C	1.346831	-0.387587	-0.747489
C143	C	1.680164	-0.054254	-0.414156
C144	C	2.013497	0.279079	-0.080822
C145	C	1.352657	-0.391851	-0.848097
C146	C	1.685990	-0.058518	-0.514764
C147	C	2.019323	0.274816	-0.181430
C148	C	1.333307	-0.213401	-0.511476
C149	C	1.666640	0.119932	-0.178143
C150	C	1.999974	0.453266	0.155190
C151	C	1.333370	-0.143437	-0.511510
C152	C	1.666703	0.189897	-0.178176
C153	C	2.000037	0.523230	0.155157
C154	C	1.247881	-0.314409	-1.030508
C155	C	1.581214	0.018924	-0.697175
C156	C	1.914548	0.352257	-0.363841
C157	C	1.253352	-0.318413	-1.125038
C158	C	1.586685	0.014920	-0.791705
C159	C	1.920019	0.348254	-0.458371
C160	C	1.369064	-0.403865	-1.131688
C161	C	1.702397	-0.070532	-0.798355
C162	C	2.035731	0.262801	-0.465021
C163	C	1.363593	-0.399861	-1.037158
C164	C	1.696927	-0.066528	-0.703825
C165	C	2.030260	0.266805	-0.370491
C166	C	1.303001	-0.355131	-0.986571
C167	C	1.636334	-0.021798	-0.653238
C168	C	1.969667	0.311535	-0.319905
C169	C	1.297535	-0.351125	-0.892040
C170	C	1.630868	-0.017791	-0.558707
C171	C	1.964202	0.315542	-0.225373
C172	C	1.413242	-0.436580	-0.898691
C173	C	1.746575	-0.103246	-0.565358
C174	C	2.079908	0.230087	-0.232025
C175	C	1.418713	-0.440583	-0.993221
C176	C	1.752046	-0.107250	-0.659888
C177	C	2.085379	0.226083	-0.326555
C178	C	1.319593	-0.367573	-0.276228
C179	C	1.652926	-0.034239	0.057105
C180	C	1.986260	0.299094	0.390438
C181	C	1.313942	-0.363139	-0.175631
C182	C	1.647276	-0.029806	0.157702
C183	C	1.980609	0.303528	0.491035
H184	H	0.672573	-0.314740	-0.426506
H185	H	1.005906	0.018593	-0.093172
H186	H	1.339240	0.351927	0.240161
Br187	Br	1.165664	-0.253698	-0.961851
Br188	Br	1.498998	0.079635	-0.628518
Br189	Br	1.832331	0.412969	-0.295184
Br190	Br	1.204714	-1.155169	-0.639982
Br191	Br	1.538047	-0.821835	-0.306649
Br192	Br	1.871380	-0.488502	0.026685
Br193	Br	1.500935	-0.501289	-1.061882
Br194	Br	1.834269	-0.167956	-0.728549
Br195	Br	2.167602	0.165378	-0.395215
Br196	Br	1.204625	-1.000206	-0.639932
Br197	Br	1.537959	-0.666873	-0.306598
Br198	Br	1.871292	-0.333539	0.026735
H199	H	1.432401	-1.137330	-0.412636
H200	H	1.765735	-0.803997	-0.079303
H201	H	2.099068	-0.470663	0.254030
Br202	Br	1.215308	-0.290418	-0.823387
Br203	Br	1.548641	0.042915	-0.490054
Br204	Br	1.881975	0.376249	-0.156720
Br205	Br	0.783559	-0.253692	-0.344022
Br206	Br	1.116893	0.079641	-0.010689
Br207	Br	1.450226	0.412974	0.322645
Br208	Br	1.178538	-0.263149	-1.184664
Br209	Br	1.511872	0.070184	-0.851331
Br210	Br	1.845205	0.403518	-0.517998
Br211	Br	1.451273	-0.464576	-1.200355
Br212	Br	1.784607	-0.131243	-0.867022
Br213	Br	2.117940	0.202091	-0.533689
Br214	Br	1.461937	-1.000213	-0.382987
Br215	Br	1.795270	-0.666880	-0.049654
Br216	Br	2.128604	-0.333547	0.283680
H217	H	1.458127	-0.469737	-0.862909
H218	H	1.791461	-0.136403	-0.529575
H219	H	2.124794	0.196930	-0.196242
Br220	Br	1.204492	-0.754318	-0.639863
Br221	Br	1.537825	-0.420984	-0.306529
Br222	Br	1.871158	-0.087651	0.026804
H223	H	0.982539	-0.285299	-0.386709
H224	H	1.315873	0.048035	-0.053376
H225	H	1.649206	0.381368	0.279958
H226	H	0.994648	-0.440482	-0.596376
H227	H	1.327981	-0.107149	-0.263043
H228	H	1.661314	0.226185	0.070291
Br229	Br	1.461728	-0.599365	-0.382887
Br230	Br	1.795062	-0.266031	-0.049554
Br231	Br	2.128395	0.067302	0.283780
H232	H	0.684711	-0.469920	-0.636169
H233	H	1.018044	-0.136587	-0.302835
H234	H	1.351377	0.196746	0.030498
Br235	Br	0.883674	-0.501530	-0.678849
Br236	Br	1.217007	-0.168197	-0.345516
Br237	Br	1.550340	0.165136	-0.012182
H238	H	1.432170	-0.736478	-0.412513
H239	H	1.765503	-0.403145	-0.079180
H240	H	2.098837	-0.069811	0.254153
H241	H	1.234048	-0.617200	-0.610243
H242	H	1.567381	-0.283867	-0.276910
H243	H	1.900715	0.049466	0.056424
