data_functionalizedCrystal
_audit_creation_method	'MofGen! by Chris Wilmer'
_symmetry_space_group_name_H-M	'P1'
_symmetry_Int_Tables_number	1
_symmetry_cell_setting	triclinic
loop_
_symmetry_equiv_pos_as_xyz
  x,y,z
_cell_length_a	12.759401
_cell_length_b	12.594516
_cell_length_c	12.759393
_cell_angle_alpha	89.970563
_cell_angle_beta	89.982961
_cell_angle_gamma	90.016214
loop_
_atom_site_label
_atom_site_type_symbol
_atom_site_fract_x
_atom_site_fract_y
_atom_site_fract_z
Zn1	Zn	1.606230	-0.423671	-0.593999
Zn2	Zn	1.606125	-0.601692	-0.418327
Zn3	Zn	1.430537	-0.423728	-0.418339
Zn4	Zn	1.430517	-0.601609	-0.593968
O5	O	1.518352	-0.512675	-0.506158
O6	O	1.753237	-0.447297	-0.570704
O7	O	1.582797	-0.578143	-0.271307
O8	O	1.453895	-0.274775	-0.441658
O9	O	1.753160	-0.578088	-0.441638
O10	O	1.582977	-0.274733	-0.570715
O11	O	1.453793	-0.447394	-0.271316
O12	O	1.283513	-0.447313	-0.441628
O13	O	1.453861	-0.577947	-0.740993
O14	O	1.283499	-0.578002	-0.570663
O15	O	1.582957	-0.447217	-0.741016
O16	O	1.582778	-0.750627	-0.441608
O17	O	1.453759	-0.750566	-0.570651
C18	C	1.245385	-0.512655	-0.506144
C19	C	1.128608	-0.512673	-0.506163
C20	C	1.073766	-0.580831	-0.573240
C21	C	0.964042	-0.580844	-0.573251
C22	C	0.964012	-0.444538	-0.439099
C23	C	1.073734	-0.444520	-0.439094
C24	C	1.073783	-0.659530	-0.650688
C25	C	0.964059	-0.659543	-0.650700
C26	C	1.518283	-0.789216	-0.506148
C27	C	1.518350	-0.907521	-0.506179
C28	C	1.448170	-0.976780	-0.576316
C29	C	1.422573	-1.047651	-0.480449
C30	C	1.544043	-1.047450	-0.602062
C31	C	1.492702	-0.976834	-0.410261
C32	C	1.614217	-0.976626	-0.531938
C33	C	1.588656	-1.047465	-0.436006
C34	C	1.792386	-0.512696	-0.506173
C35	C	1.909162	-0.512704	-0.506179
C36	C	1.518419	-0.512566	-0.780192
C37	C	1.518447	-0.512520	-0.896968
C38	C	1.518450	-0.235054	-0.506192
C39	C	1.518492	-0.116749	-0.506206
C40	C	1.451293	-0.580535	-1.061545
C41	C	1.451252	-0.580566	-0.951821
C42	C	1.585679	-0.444430	-0.951846
C43	C	1.585713	-0.444395	-1.061568
C44	C	1.373686	-0.659136	-1.061530
C45	C	1.373645	-0.659167	-0.951806
C46	C	1.518346	-0.512707	-0.233191
C47	C	1.518522	-0.512453	-0.116415
H48	H	0.930060	-0.630118	-0.728050
H49	H	1.695205	-0.945409	-0.553750
H50	H	1.565717	-1.078469	-0.683138
H51	H	1.402817	-0.737431	-1.095547
C52	C	1.658813	-0.370428	-1.120952
C53	C	1.717666	-0.310857	-1.049432
C54	C	1.785028	-0.242716	-1.104097
H55	H	1.618765	-0.323945	-1.163768
H56	H	1.704650	-0.411105	-1.163724
H57	H	1.671834	-0.270184	-1.006678
H58	H	1.757735	-0.357312	-1.006613
H59	H	1.830865	-0.283392	-1.146869
H60	H	1.744971	-0.196240	-1.146911
H61	H	1.824974	-0.202296	-1.055580
H62	H	1.640383	-0.389018	-0.907176
H63	H	1.292332	-0.637045	-1.091311
C64	C	1.270485	-0.619827	-0.906631
C65	C	1.202185	-0.593725	-0.988548
C66	C	1.107145	-0.557490	-0.946971
H67	H	1.282834	-0.558756	-0.864758
H68	H	1.239985	-0.674039	-0.864744
H69	H	1.232678	-0.539518	-1.030417
H70	H	1.189805	-0.654780	-1.030428
H71	H	1.076645	-0.611702	-0.905084
H72	H	1.119505	-0.496422	-0.905098
H73	H	1.060788	-0.539785	-1.002545
H74	H	1.395457	-0.741598	-0.922010
H75	H	1.107796	-0.737793	-0.621407
C76	C	0.924522	-0.769484	-0.621386
C77	C	1.010032	-0.836719	-0.603443
C78	C	0.973653	-0.937995	-0.576425
H79	H	0.883206	-0.797085	-0.676979
H80	H	0.883167	-0.764975	-0.559617
H81	H	1.051370	-0.841231	-0.665204
H82	H	1.051358	-0.809153	-0.547845
H83	H	0.932298	-0.933487	-0.514657
H84	H	0.932336	-0.965586	-0.632023
H85	H	1.031664	-0.983624	-0.564239
H86	H	1.118382	-0.389012	-0.384480
H87	H	0.919320	-0.389050	-0.384496
H88	H	1.103589	-0.637546	-0.732094
C89	C	1.368809	-0.935592	-0.655302
C90	C	1.318875	-1.021518	-0.703788
C91	C	1.245751	-0.983616	-0.776540
H92	H	1.403686	-0.894040	-0.706757
H93	H	1.318185	-0.893157	-0.620298
H94	H	1.369491	-1.063935	-0.738791
H95	H	1.283977	-1.063079	-0.652360
H96	H	1.195127	-0.941181	-0.741536
H97	H	1.280636	-0.942064	-0.827988
H98	H	1.211855	-1.041910	-0.809440
C99	C	1.314644	-1.089463	-0.451370
C100	C	1.316417	-1.200617	-0.450823
C101	C	1.217015	-1.239167	-0.424036
H102	H	1.264718	-1.065382	-0.501206
H103	H	1.295948	-1.064307	-0.383718
H104	H	1.335101	-1.225763	-0.518466
H105	H	1.366323	-1.224726	-0.400986
H106	H	1.198318	-1.214010	-0.356384
H107	H	1.167096	-1.215078	-0.473875
H108	H	1.218207	-1.314587	-0.423652
H109	H	1.470935	-0.945943	-0.329163
H110	H	1.648066	-1.078306	-0.376636
