data_functionalizedCrystal
_audit_creation_method	'MofGen! by Chris Wilmer'
_symmetry_space_group_name_H-M	'P1'
_symmetry_Int_Tables_number	1
_symmetry_cell_setting	triclinic
loop_
_symmetry_equiv_pos_as_xyz
  x,y,z
_cell_length_a	12.837932
_cell_length_b	12.811415
_cell_length_c	9.130313
_cell_angle_alpha	84.567879
_cell_angle_beta	89.999771
_cell_angle_gamma	89.412215
loop_
_atom_site_label
_atom_site_type_symbol
_atom_site_fract_x
_atom_site_fract_y
_atom_site_fract_z
O1	O	1.376626	0.272980	-0.158056
O2	O	1.074762	0.259494	-0.156267
O3	O	1.233288	0.114205	-0.136961
O4	O	1.218099	0.418269	-0.177361
O5	O	1.233286	0.114209	0.106637
O6	O	1.074760	0.259498	0.087332
O7	O	1.376624	0.272984	0.085543
Cu8	Cu	1.225691	0.266241	0.108680
Cu9	Cu	1.225694	0.266237	-0.179404
O10	O	1.218097	0.418273	0.066237
C11	C	1.036120	0.254940	-0.033863
C12	C	0.920985	0.241353	-0.032059
C13	C	0.770652	0.127793	-0.016968
C14	C	0.878834	0.140552	-0.018664
C15	C	0.854946	0.329402	-0.043755
C16	C	0.746765	0.316642	-0.042059
C17	C	0.704622	0.215835	-0.028667
C18	C	0.596439	0.203076	-0.026982
C19	C	0.572554	0.391925	-0.052063
C20	C	0.680735	0.404684	-0.053758
C21	C	1.232436	0.075018	-0.009958
C22	C	1.229888	-0.041755	0.005548
C23	C	1.225083	-0.261178	-0.230917
C24	C	1.222688	-0.370896	-0.216354
C25	C	1.222697	-0.370912	0.049232
C26	C	1.225092	-0.261193	0.034670
C27	C	1.226286	-0.206330	-0.105409
C28	C	1.228688	-0.096610	-0.119969
C29	C	1.228689	-0.096627	0.145616
C30	C	1.226295	-0.206346	0.160178
C31	C	1.415265	0.277538	-0.036865
C32	C	1.530401	0.291125	-0.038678
C33	C	1.218949	0.457460	-0.060769
C34	C	1.221497	0.574233	-0.076285
N35	N	1.225697	0.266245	0.311302
N36	N	1.225696	0.266226	-0.382025
C37	C	1.295911	0.201937	0.396499
C38	C	1.295908	0.201924	0.549837
C39	C	1.155475	0.330536	0.532767
C40	C	1.155473	0.330543	0.379432
C41	C	1.376992	0.127687	0.406355
C42	C	1.376990	0.127674	0.559693
H43	H	0.932592	0.068859	-0.009136
O44	O	1.079735	0.399891	0.287533
H45	H	1.093290	0.483081	0.305905
H46	H	1.098300	0.382885	0.588256
H47	H	1.352120	0.049166	0.617671
O48	O	1.354047	0.018715	0.365694
H49	H	1.354092	0.018785	0.244117
O50	O	1.226378	-0.201998	-0.381993
H51	H	1.156873	-0.149712	-0.395278
H52	H	1.229663	-0.051943	-0.234029
O53	O	1.221373	-0.430058	-0.351721
H54	H	1.222604	-0.373471	-0.451566
H55	H	0.736340	0.045711	-0.006078
H56	H	0.889278	0.411475	-0.054645
H57	H	1.225319	-0.251030	0.274226
O58	O	0.550981	0.094353	-0.012535
H59	H	0.502259	0.084032	0.088119
H60	H	1.452180	0.160109	0.354490
H61	H	1.456609	0.152920	0.597957
O62	O	1.221426	-0.430107	0.200299
H63	H	1.149743	-0.477813	0.212983
O64	O	0.726189	0.513410	-0.068207
H65	H	0.812508	0.507493	-0.067429
O66	O	0.501338	0.486896	-0.064674
H67	H	0.419031	0.461092	-0.061237
O68	O	1.229983	-0.037474	0.281001
H69	H	1.231843	0.048039	0.247347
