data_functionalizedCrystal
_audit_creation_method	'MofGen! by Chris Wilmer'
_symmetry_space_group_name_H-M	'P1'
_symmetry_Int_Tables_number	1
_symmetry_cell_setting	triclinic
loop_
_symmetry_equiv_pos_as_xyz
  x,y,z
_cell_length_a	17.000371
_cell_length_b	10.654541
_cell_length_c	9.730217
_cell_angle_alpha	90.000068
_cell_angle_beta	89.996471
_cell_angle_gamma	99.958412
loop_
_atom_site_label
_atom_site_type_symbol
_atom_site_fract_x
_atom_site_fract_y
_atom_site_fract_z
O1	O	0.111714	-1.653966	-0.114249
O2	O	0.122361	-1.287165	-0.114261
O3	O	0.001297	-1.493341	-0.114245
O4	O	0.232778	-1.447790	-0.114265
O5	O	0.001296	-1.493335	0.114336
O6	O	0.122360	-1.287159	0.114319
O7	O	0.111713	-1.653960	0.114331
Zn8	Zn	0.117036	-1.470559	0.150617
Zn9	Zn	0.117038	-1.470566	-0.150547
O10	O	0.232777	-1.447784	0.114315
C11	C	0.121579	-1.240461	0.000028
C12	C	0.119241	-1.101308	0.000023
C13	C	-0.028344	-1.495785	0.000045
C14	C	-0.116662	-1.503060	0.000044
C15	C	0.112495	-1.700664	0.000040
C16	C	0.114833	-1.839817	0.000035
C17	C	-0.149305	-1.391103	0.000034
C18	C	-0.232291	-1.397946	0.000038
C19	C	-0.282631	-1.516748	0.000042
C20	C	-0.249983	-1.628714	0.000056
C21	C	-0.167000	-1.621869	0.000062
C22	C	-0.533632	-1.543187	0.000034
C23	C	-0.616621	-1.550023	0.000024
C24	C	-0.598922	-1.319254	0.000009
C25	C	-0.515937	-1.312420	0.000006
C26	C	-0.483297	-1.424386	0.000027
C27	C	-0.367456	-1.523746	0.000042
C28	C	-0.398473	-1.417386	0.000037
C29	C	0.262418	-1.445341	0.000022
C30	C	0.350737	-1.438065	0.000014
N31	N	0.117035	-1.470563	0.356154
C32	C	0.264006	-1.055361	-0.000007
C33	C	0.335287	-0.967015	-0.000028
C34	C	0.333086	-0.836270	-0.000029
C35	C	0.259596	-0.793871	-0.000005
C36	C	0.188315	-0.882216	0.000015
C37	C	0.190524	-1.012962	0.000012
C38	C	0.043552	-0.928163	0.000055
C39	C	0.045751	-1.058908	0.000047
C40	C	-0.029938	-0.885764	0.000079
C41	C	-0.101221	-0.974110	0.000090
C42	C	-0.099017	-1.104862	0.000089
C43	C	-0.025530	-1.147254	0.000067
N44	N	0.117033	-1.470573	-0.356084
C45	C	0.009864	-1.653198	0.356159
C46	C	-0.043719	-1.744523	0.428101
C47	C	-0.043719	-1.744536	0.571981
C48	C	0.009867	-1.653211	0.643922
C49	C	0.063450	-1.561886	0.571979
C50	C	0.063447	-1.561885	0.428096
C51	C	0.170616	-1.379248	0.571974
C52	C	0.170622	-1.379238	0.428094
C53	C	0.224203	-1.287923	0.643915
C54	C	0.277791	-1.196601	0.571972
C55	C	0.277790	-1.196593	0.428083
C56	C	0.224205	-1.287913	0.356152
H57	H	-0.108323	-1.294361	0.000025
F58	F	0.009856	-1.653215	0.797052
H59	H	-0.290978	-1.725445	0.000068
F60	F	-0.174885	-1.198878	0.000121
H61	H	-0.087354	-1.818897	0.630557
F62	F	-0.421039	-1.650180	0.000050
H63	H	-0.357483	-1.320659	0.000043
F64	F	0.266355	-1.194509	-0.000028
F65	F	0.224202	-1.287917	0.203022
H66	H	-0.258864	-1.306779	0.000020
H67	H	0.009866	-1.653206	0.239004
H68	H	-0.023728	-1.253710	0.000051
F69	F	-0.462366	-1.185975	-0.000010
F70	F	0.413497	-1.012149	-0.000053
H71	H	-0.140424	-1.713037	0.000072
H72	H	0.224197	-1.287932	0.761069
H73	H	-0.625508	-1.228098	-0.000006
F74	F	-0.100750	-1.841710	0.351531
F75	F	-0.179425	-0.928977	0.000126
F76	F	0.408950	-0.742244	-0.000039
H77	H	0.257810	-0.687409	0.000010
H78	H	-0.657607	-1.646771	0.000018
H79	H	-0.031726	-0.779303	0.000086
H80	H	0.321414	-1.122245	0.630555
H81	H	-0.507066	-1.634357	0.000047
F82	F	0.334817	-1.099383	0.351528
