data_functionalizedCrystal
_audit_creation_method	'MofGen! by Chris Wilmer'
_symmetry_space_group_name_H-M	'P1'
_symmetry_Int_Tables_number	1
_symmetry_cell_setting	triclinic
loop_
_symmetry_equiv_pos_as_xyz
  x,y,z
_cell_length_a	19.188930
_cell_length_b	15.944551
_cell_length_c	14.421503
_cell_angle_alpha	90.003340
_cell_angle_beta	90.021481
_cell_angle_gamma	96.678241
loop_
_atom_site_label
_atom_site_type_symbol
_atom_site_fract_x
_atom_site_fract_y
_atom_site_fract_z
O1	O	0.926420	-0.104854	0.077412
O2	O	0.723145	-0.118971	0.077348
O3	O	0.830334	0.010383	0.077374
O4	O	0.819232	-0.234208	0.077387
O5	O	0.830316	0.010364	-0.076850
O6	O	0.723128	-0.118990	-0.076875
O7	O	0.926402	-0.104874	-0.076812
Cu8	Cu	0.824763	-0.111934	-0.090925
Cu9	Cu	0.824784	-0.111911	0.091462
O10	O	0.819214	-0.234228	-0.076837
C11	C	0.697124	-0.118524	0.000229
C12	C	0.619616	-0.117151	0.000204
N13	N	0.824754	-0.111949	-0.219206
C14	C	0.829864	0.041666	0.000261
C15	C	0.828482	0.134906	0.000261
C16	C	0.574889	-0.193052	0.000223
C17	C	0.502061	-0.191763	0.000233
C18	C	0.473965	-0.114568	0.000243
C19	C	0.518703	-0.038658	0.000219
C20	C	0.591528	-0.039949	0.000200
N21	N	0.365839	-0.055556	0.052766
N22	N	0.296657	-0.054335	0.052787
C23	C	0.254547	-0.110673	0.000300
N24	N	0.284230	-0.168291	-0.052197
N25	N	0.353418	-0.169515	-0.052213
C26	C	0.394999	-0.113160	0.000263
C27	C	0.130851	-0.185181	0.000328
C28	C	0.058023	-0.183888	0.000332
C29	C	0.074666	-0.030781	0.000328
C30	C	0.147492	-0.032076	0.000314
C31	C	0.175580	-0.109278	0.000319
C32	C	0.952423	-0.105321	0.000310
C33	C	1.029932	-0.106693	0.000341
C34	C	0.819684	-0.265510	0.000277
C35	C	0.821066	-0.358751	0.000284
C36	C	0.758739	0.349502	0.000252
C37	C	0.791117	0.410631	-0.075780
C38	C	0.825983	0.305623	0.000267
C39	C	0.791150	0.410634	0.076272
C40	C	0.823563	0.470527	0.000277
C41	C	0.858379	0.365524	-0.075827
C42	C	0.858403	0.365520	0.076293
C43	C	0.890829	0.426631	0.000243
C44	C	0.827374	0.210626	0.000260
C45	C	0.822176	0.565522	0.000277
C46	C	0.775181	-0.171736	-0.468872
C47	C	0.838271	-0.187807	-0.530653
C48	C	0.824771	-0.111929	-0.408368
C49	C	0.761697	-0.095877	-0.530680
C50	C	0.824781	-0.111912	-0.591089
C51	C	0.887892	-0.128038	-0.468789
C52	C	0.811277	-0.036076	-0.468810
C53	C	0.874413	-0.052114	-0.530564
C54	C	0.824764	-0.111941	-0.303107
C55	C	0.824796	-0.111899	-0.696348
N56	N	0.824800	-0.111889	0.219743
H57	H	0.465637	-0.253572	0.000246
H58	H	0.051791	0.032072	0.000393
C59	C	0.488067	0.045069	0.000280
C60	C	0.414715	0.029955	0.000328
C61	C	0.386471	0.107066	0.000392
H62	H	0.503317	0.076368	-0.053492
H63	H	0.503407	0.076325	0.054077
H64	H	0.399382	-0.001288	-0.053464
H65	H	0.399446	-0.001331	0.054096
H66	H	0.401811	0.138322	0.054190
H67	H	0.401726	0.138360	-0.053381
H68	H	0.336699	0.096822	0.000433
H69	H	0.708353	-0.082309	-0.557868
C70	C	0.195943	0.050423	0.000352
C71	C	0.155753	0.118305	0.000387
C72	C	0.200361	0.194319	0.000431
H73	H	0.224690	0.053216	-0.053421
H74	H	0.224711	0.053153	0.054148
H75	H	0.126997	0.115576	-0.053403
H76	H	0.127007	0.115541	0.054157
H77	H	0.229130	0.197049	0.054227
H78	H	0.229107	0.197103	-0.053343
H79	H	0.173100	0.240386	0.000463
C80	C	0.896422	0.338792	0.161914
C81	C	0.954954	0.299949	0.134776
C82	C	0.989993	0.275324	0.213632
H83	H	0.865633	0.300154	0.197141
H84	H	0.911287	0.387083	0.198581
H85	H	0.940088	0.251665	0.098124
H86	H	0.985759	0.338572	0.099559
H87	H	1.004858	0.323615	0.250299
H88	H	0.959199	0.236689	0.248854
H89	H	1.029714	0.248973	0.195230
C90	C	0.639979	0.042553	0.000234
C91	C	0.599790	0.110435	0.000265
C92	C	0.644400	0.186449	0.000312
H93	H	0.668729	0.045344	-0.053537
H94	H	0.668744	0.045282	0.054032
H95	H	0.571037	0.107707	-0.053528
H96	H	0.571042	0.107672	0.054032
H97	H	0.673166	0.189178	0.054110
H98	H	0.673148	0.189232	-0.053460
H99	H	0.617139	0.232516	0.000341
H100	H	0.702924	0.315986	0.000158
C101	C	0.161259	-0.269056	0.000464
C102	C	0.138543	-0.314930	0.079798
C103	C	0.166532	-0.392203	0.079947
H104	H	0.211035	-0.259072	0.000502
H105	H	0.145864	-0.300347	-0.053289
H106	H	0.153942	-0.283645	0.133536
H107	H	0.088771	-0.324936	0.079776
H108	H	0.151138	-0.423495	0.026195
H109	H	0.216307	-0.382211	0.079983
H110	H	0.151119	-0.423342	0.133770
C111	C	0.605248	-0.276955	0.000169
C112	C	0.550483	-0.343150	0.000162
C113	C	0.578425	-0.420453	0.000096
H114	H	0.633327	-0.280757	0.053926
H115	H	0.633265	-0.280694	-0.053644
H116	H	0.522478	-0.339414	0.053968
H117	H	0.522400	-0.339377	-0.053591
H118	H	0.606442	-0.424192	-0.053716
H119	H	0.606503	-0.424246	0.053854
H120	H	0.541272	-0.465376	0.000083
C121	C	0.853365	-0.273397	-0.566832
C122	C	0.801280	-0.335782	-0.535602
C123	C	0.815151	-0.414637	-0.568917
H124	H	0.897806	-0.285322	-0.544752
H125	H	0.853652	-0.272648	-0.632704
H126	H	0.800999	-0.336532	-0.469744
H127	H	0.756833	-0.323885	-0.557679
H128	H	0.815438	-0.413888	-0.634789
H129	H	0.859593	-0.426553	-0.546835
H130	H	0.779810	-0.456973	-0.547740
H131	H	0.762708	0.430612	0.140555
C132	C	0.753056	0.437230	-0.161431
C133	C	0.683933	0.397821	-0.161094
C134	C	0.648844	0.422308	-0.239971
H135	H	0.776402	0.421034	-0.215489
H136	H	0.752786	0.496776	-0.161098
H137	H	0.684206	0.338288	-0.161437
H138	H	0.660568	0.414012	-0.107054
H139	H	0.648574	0.481854	-0.239638
H140	H	0.672195	0.406110	-0.294023
H141	H	0.601939	0.395579	-0.239749
C142	C	0.896205	0.338835	-0.161599
C143	C	0.897014	0.251146	-0.160635
C144	C	0.931842	0.226527	-0.239638
H145	H	0.943011	0.365855	-0.161887
H146	H	0.872466	0.354587	-0.215563
H147	H	0.920754	0.235402	-0.106685
H148	H	0.850218	0.224105	-0.160361
H149	H	0.908103	0.242278	-0.293602
H150	H	0.978645	0.253552	-0.239919
H151	H	0.932390	0.167027	-0.238999
C152	C	0.958962	-0.146332	-0.432520
C153	C	0.958103	-0.146214	-0.335441
C154	C	1.023546	-0.163107	-0.301997
H155	H	0.994296	-0.104151	-0.454018
H156	H	0.968597	-0.200066	-0.454177
H157	H	0.948477	-0.092489	-0.313793
H158	H	0.922783	-0.188395	-0.313919
H159	H	1.033181	-0.216841	-0.323654
H160	H	1.058875	-0.120924	-0.323501
H161	H	1.022970	-0.163037	-0.236127
H162	H	0.733287	-0.222352	-0.441784
C163	C	0.930330	0.015324	-0.566647
C164	C	0.929351	0.015083	-0.663725
C165	C	0.980846	0.077200	-0.696999
H166	H	0.975130	0.003867	-0.545439
H167	H	0.921116	0.069088	-0.544585
H168	H	0.938570	-0.038668	-0.685778
H169	H	0.884563	0.026550	-0.684958
H170	H	0.971632	0.130963	-0.674937
H171	H	1.025643	0.065737	-0.675784
H172	H	0.980184	0.077050	-0.762868
H173	H	0.021605	-0.245698	0.000342
H174	H	0.946693	0.459999	0.000218
H175	H	0.799834	0.028044	-0.441624
