data_functionalizedCrystal
_audit_creation_method	'MofGen! by Chris Wilmer'
_symmetry_space_group_name_H-M	'P1'
_symmetry_Int_Tables_number	1
_symmetry_cell_setting	triclinic
loop_
_symmetry_equiv_pos_as_xyz
  x,y,z
_cell_length_a	25.639242
_cell_length_b	29.839131
_cell_length_c	25.639233
_cell_angle_alpha	90.027239
_cell_angle_beta	90.022166
_cell_angle_gamma	90.030754
loop_
_atom_site_label
_atom_site_type_symbol
_atom_site_fract_x
_atom_site_fract_y
_atom_site_fract_z
Zn1	Zn	0.799238	-0.178962	0.295711
Zn2	Zn	1.299238	0.321038	0.795711
Zn3	Zn	0.799166	-0.254076	0.208263
Zn4	Zn	1.299166	0.245924	0.708263
Zn5	Zn	0.711814	-0.178955	0.208275
Zn6	Zn	1.211814	0.321045	0.708275
Zn7	Zn	0.711764	-0.254059	0.295653
Zn8	Zn	1.211764	0.245941	0.795653
O9	O	0.755496	-0.216513	0.251976
O10	O	1.255496	0.283487	0.751976
O11	O	0.872393	-0.188935	0.284130
O12	O	1.372393	0.311065	0.784130
O13	O	0.787570	-0.244115	0.135099
O14	O	1.287570	0.255885	0.635099
O15	O	0.723461	-0.116089	0.219904
O16	O	1.223461	0.383911	0.719904
O17	O	0.872341	-0.244122	0.219882
O18	O	1.372341	0.255878	0.719882
O19	O	0.787691	-0.116094	0.284143
O20	O	1.287691	0.383906	0.784143
O21	O	0.723392	-0.188924	0.135109
O22	O	1.223392	0.311076	0.635109
O23	O	0.638642	-0.188908	0.219847
O24	O	1.138642	0.311092	0.719847
O25	O	0.723377	-0.244093	0.368826
O26	O	1.223377	0.255907	0.868826
O27	O	0.638606	-0.244087	0.284043
O28	O	1.138606	0.255913	0.784043
O29	O	0.787643	-0.188919	0.368869
O30	O	1.287643	0.311081	0.868869
O31	O	0.787522	-0.316941	0.219825
O32	O	1.287522	0.183059	0.719825
O33	O	0.723308	-0.316929	0.284030
O34	O	1.223308	0.183071	0.784030
C35	C	0.619653	-0.216495	0.251940
C36	C	1.119653	0.283505	0.751940
C37	C	0.561539	-0.216499	0.251937
C38	C	1.061539	0.283501	0.751937
C39	C	0.201166	-0.245293	0.285371
C40	C	0.701166	0.254707	0.785371
C41	C	0.146561	-0.245295	0.285379
C42	C	0.646561	0.254705	0.785379
O43	O	0.118316	-0.269755	0.313775
O44	O	0.618316	0.230245	0.813775
N45	N	0.119256	-0.216525	0.252010
N46	N	0.619256	0.283475	0.752010
C47	C	0.146559	-0.187748	0.218634
C48	C	0.646559	0.312252	0.718634
O49	O	0.118320	-0.163276	0.190252
O50	O	0.618320	0.336724	0.690252
C51	C	0.201162	-0.187743	0.218629
C52	C	0.701162	0.312257	0.718629
C53	C	0.228464	-0.216518	0.251996
C54	C	0.728464	0.283482	0.751996
C55	C	0.228468	-0.274065	0.318736
C56	C	0.728468	0.225935	0.818736
C57	C	0.283069	-0.274063	0.318727
C58	C	0.783069	0.225937	0.818727
C59	C	0.310367	-0.245288	0.285352
C60	C	0.810367	0.254712	0.785352
C61	C	0.283065	-0.216516	0.251987
C62	C	0.783065	0.283484	0.751987
C63	C	0.228463	-0.158963	0.185256
C64	C	0.728463	0.341037	0.685256
C65	C	0.283070	-0.158961	0.185254
C66	C	0.783070	0.341039	0.685254
C67	C	0.310372	-0.187736	0.218621
C68	C	0.810372	0.312264	0.718621
C69	C	0.364964	-0.187739	0.218604
C70	C	0.864964	0.312261	0.718604
N71	N	0.392269	-0.216509	0.251973
N72	N	0.892269	0.283491	0.751973
C73	C	0.364970	-0.245283	0.285347
C74	C	0.864970	0.254717	0.785347
C75	C	0.031888	-0.187759	0.218648
C76	C	0.531888	0.312241	0.718648
C77	C	-0.022714	-0.187766	0.218650
C78	C	0.477286	0.312234	0.718650
C79	C	-0.022708	-0.245313	0.285396
C80	C	0.477292	0.254687	0.785396
C81	C	0.031896	-0.245308	0.285391
C82	C	0.531896	0.254692	0.785391
C83	C	0.059193	-0.216529	0.252017
C84	C	0.559193	0.283471	0.752017
C85	C	0.479635	-0.245277	0.285325
C86	C	0.979635	0.254723	0.785325
C87	C	0.534241	-0.245273	0.285312
C88	C	1.034241	0.254727	0.785312
C89	C	0.534229	-0.187724	0.218568
C90	C	1.034229	0.312276	0.718568
C91	C	0.479629	-0.187729	0.218580
C92	C	0.979629	0.312271	0.718580
C93	C	0.452333	-0.216507	0.251962
C94	C	0.952333	0.283493	0.751962
O95	O	0.393244	-0.163290	0.190224
O96	O	0.893244	0.336710	0.690224
O97	O	0.393216	-0.269746	0.313729
O98	O	0.893216	0.230254	0.813729
C99	C	0.755416	-0.333236	0.251931
C100	C	1.255416	0.166764	0.751931
C101	C	0.755430	-0.383170	0.251930
C102	C	1.255430	0.116830	0.751930
C103	C	0.788933	-0.692781	0.285472
C104	C	1.288933	-0.192781	0.785472
C105	C	0.788989	-0.880454	0.285504
C106	C	1.288989	-0.380454	0.785504
O107	O	0.817397	-0.904691	0.313990
O108	O	1.317397	-0.404691	0.813990
N109	N	0.755584	-0.903955	0.252034
N110	N	1.255584	-0.403955	0.752034
C111	C	0.722160	-0.880535	0.218556
C112	C	1.222160	-0.380535	0.718556
O113	O	0.693745	-0.904830	0.190092
O114	O	1.193745	-0.404830	0.690092
C115	C	0.722101	-0.692863	0.218527
C116	C	1.222101	-0.192863	0.718527
C117	C	0.755512	-0.669364	0.251996
C118	C	1.255512	-0.169364	0.751996
C119	C	0.822341	-0.669282	0.318939
C120	C	1.322341	-0.169282	0.818939
C121	C	0.822328	-0.622367	0.318928
C122	C	1.322328	-0.122367	0.818928
C123	C	0.788908	-0.598950	0.285452
C124	C	1.288908	-0.098950	0.785452
C125	C	0.755500	-0.622449	0.251986
C126	C	1.255500	-0.122449	0.751986
C127	C	0.688675	-0.669444	0.185052
C128	C	1.188675	-0.169444	0.685052
C129	C	0.688662	-0.622522	0.185049
C130	C	1.188662	-0.122522	0.685049
C131	C	0.722073	-0.599024	0.218518
C132	C	1.222073	-0.099024	0.718518
C133	C	0.722067	-0.552116	0.218499
C134	C	1.222067	-0.052116	0.718499
N135	N	0.755472	-0.528615	0.251969
N136	N	1.255472	-0.028615	0.751969
C137	C	0.788892	-0.552032	0.285446
C138	C	1.288892	-0.052032	0.785446
C139	C	0.722194	-0.979066	0.218572
C140	C	1.222194	-0.479066	0.718572
C141	C	0.722210	-1.025983	0.218578
C142	C	1.222210	-0.525983	0.718578
C143	C	0.789038	-1.025899	0.285527
C144	C	1.289038	-0.525899	0.785527
C145	C	0.789025	-0.978981	0.285518
C146	C	1.289025	-0.478981	0.785518
C147	C	0.755599	-0.955565	0.252042
C148	C	1.255599	-0.455565	0.752042
C149	C	0.788864	-0.453506	0.285421
C150	C	1.288864	0.046494	0.785421
C151	C	0.788850	-0.406587	0.285407
C152	C	1.288850	0.093413	0.785407
C153	C	0.722020	-0.406675	0.218460
C154	C	1.222020	0.093325	0.718460
C155	C	0.722035	-0.453591	0.218472
C156	C	1.222035	0.046409	0.718472
C157	C	0.755459	-0.477005	0.251957
C158	C	1.255459	0.022995	0.751957
O159	O	0.693670	-0.527850	0.190032
O160	O	1.193670	-0.027850	0.690032
O161	O	0.817296	-0.527729	0.313913
O162	O	1.317296	-0.027729	0.813913
C163	C	0.788945	-0.739696	0.285483
C164	C	1.288945	-0.239696	0.785483
C165	C	0.755537	-0.763195	0.252016
C166	C	1.255537	-0.263195	0.752016
C167	C	0.722117	-0.739778	0.218540
C168	C	1.222117	-0.239778	0.718540
C169	C	0.755553	-0.810113	0.252023
C170	C	1.255553	-0.310113	0.752023
C171	C	0.788973	-0.833530	0.285499
C172	C	1.288973	-0.333530	0.785499
C173	C	0.822378	-0.810029	0.318969
C174	C	1.322378	-0.310029	0.818969
C175	C	0.822366	-0.763113	0.318959
C176	C	1.322366	-0.263113	0.818959
C177	C	0.688712	-0.763279	0.185070
C178	C	1.188712	-0.263279	0.685070
C179	C	0.688727	-0.810195	0.185082
C180	C	1.188727	-0.310195	0.685082
C181	C	0.722148	-0.833612	0.218559
C182	C	1.222148	-0.333612	0.718559
C183	C	0.891869	-0.216531	0.252011
C184	C	1.391869	0.283469	0.752011
C185	C	0.949983	-0.216539	0.252027
C186	C	1.449983	0.283461	0.752027
C187	C	0.755512	-0.216505	0.388349
C188	C	1.255512	0.283495	0.888349
C189	C	0.755520	-0.216502	0.446463
C190	C	1.255520	0.283498	0.946463
C191	C	0.755590	-0.099335	0.252031
C192	C	1.255590	0.400665	0.752031
C193	C	0.755630	-0.049400	0.252055
C194	C	1.255630	0.450600	0.752055
C195	C	0.755509	-0.216488	0.116133
C196	C	1.255509	0.283512	0.616133
C197	C	0.755603	-0.216365	0.058019
C198	C	1.255603	0.283635	0.558019
C199	C	0.789025	-0.187687	0.806854
C200	C	1.289025	0.312313	1.306854
C201	C	0.789032	-0.187675	0.861458
C202	C	1.289032	0.312325	1.361458
O203	O	0.817478	-0.163229	0.889719
O204	O	1.317478	0.336771	1.389719
N205	N	0.755577	-0.216396	0.888745
N206	N	1.255577	0.283604	1.388745
C207	C	0.722110	-0.245129	0.861425
C208	C	1.222110	0.254871	1.361425
O209	O	0.693655	-0.269558	0.889649
O210	O	1.193655	0.230442	1.389649
C211	C	0.722101	-0.245139	0.806822
C212	C	1.222101	0.254861	1.306822
C213	C	0.755562	-0.216419	0.779538
C214	C	1.255562	0.283581	1.279538
C215	C	0.822483	-0.158969	0.779570
C216	C	1.322483	0.341031	1.279570
C217	C	0.822477	-0.158982	0.724969
C218	C	1.322477	0.341018	1.224969
C219	C	0.789014	-0.187714	0.697653
C220	C	1.289014	0.312286	1.197653
C221	C	0.755556	-0.216432	0.724937
C222	C	1.255556	0.283568	1.224937
C223	C	0.688632	-0.273869	0.779503
C224	C	1.188632	0.226131	1.279503
C225	C	0.688626	-0.273876	0.724896
C226	C	1.188626	0.226124	1.224896
C227	C	0.722087	-0.245156	0.697611
C228	C	1.222087	0.254844	1.197611
C229	C	0.722087	-0.245176	0.643020
C230	C	1.222087	0.254824	1.143020
N231	N	0.755542	-0.216455	0.615733
N232	N	1.255542	0.283545	1.115733
C233	C	0.789005	-0.187723	0.643050
C234	C	1.289005	0.312277	1.143050
C235	C	0.722130	-0.245106	0.976096
C236	C	1.222130	0.254894	1.476096
C237	C	0.722141	-0.245099	1.030698
C238	C	1.222141	0.254901	1.530698
C239	C	0.789063	-0.187644	1.030728
C240	C	1.289063	0.312356	1.530728
C241	C	0.789054	-0.187653	0.976124
C242	C	1.289054	0.312347	1.476124
C243	C	0.755585	-0.216384	0.948809
C244	C	1.255585	0.283616	1.448809
C245	C	0.788990	-0.187753	0.528384
C246	C	1.288990	0.312247	1.028384
C247	C	0.788983	-0.187770	0.473779
C248	C	1.288983	0.312230	0.973779
C249	C	0.722060	-0.245223	0.473754
C250	C	1.222060	0.254777	0.973754
C251	C	0.722069	-0.245208	0.528355
C252	C	1.222069	0.254792	1.028355
C253	C	0.755536	-0.216470	0.555669
C254	C	1.255536	0.283530	1.055669
O255	O	0.693654	-0.269609	0.614725
O256	O	1.193654	0.230391	1.114725
O257	O	0.817451	-0.163295	0.614819
O258	O	1.317451	0.336705	1.114819
H259	H	0.457418	-0.268709	0.312510
H260	H	0.957418	0.231291	0.812510
C261	C	0.825809	-0.156142	0.558421
C262	C	1.325809	0.343858	1.058421
N263	N	0.853543	-0.132334	0.581045
N264	N	1.353543	0.367666	1.081045
H265	H	0.206243	-0.135532	0.158083
H266	H	0.706243	0.364468	0.658083
C267	C	0.825798	-1.051666	0.322355
C268	C	1.325798	-0.551666	0.822355
N269	N	0.853481	-1.071076	0.350095
N270	N	1.353481	-0.571076	0.850095
H271	H	0.305293	-0.135522	0.158079
H272	H	0.805293	0.364478	0.658079
C273	C	0.061910	-0.156103	0.181926
C274	C	0.561910	0.343897	0.681926
N275	N	0.084520	-0.132260	0.154266
N276	N	0.584520	0.367740	0.654266
C277	C	0.685249	-0.276824	0.443696
C278	C	1.185249	0.223176	0.943696
N279	N	0.657520	-0.300623	0.421054
N280	N	1.157520	0.199377	0.921054
H281	H	0.849723	-0.135594	0.702759
H282	H	1.349723	0.364406	1.202759
C283	C	0.825791	-0.156172	0.443770
C284	C	1.325791	0.343828	0.943770
N285	N	0.853513	-0.132372	0.421168
N286	N	1.353513	0.367628	0.921168
H287	H	0.694828	-0.268599	0.550571
H288	H	1.194828	0.231401	1.050571
C289	C	0.564270	-0.276929	0.322021
C290	C	1.064270	0.223071	0.822021
N291	N	0.586886	-0.300771	0.349670
N292	N	1.086886	0.199229	0.849670
H293	H	0.457398	-0.164299	0.191408
H294	H	0.957398	0.335701	0.691408
C295	C	0.564268	-0.156068	0.181864
C296	C	1.064268	0.343932	0.681864
N297	N	0.586895	-0.132221	0.154223
N298	N	1.086895	0.367779	0.654223
H299	H	0.661385	-0.297256	0.801708
H300	H	1.161385	0.202744	1.301708
C301	C	0.859121	-0.737271	0.355777
C302	C	1.359121	-0.237271	0.855777
N303	N	0.886808	-0.717809	0.383510
N304	N	1.386808	-0.217809	0.883510
C305	C	0.825608	-0.380741	0.322225
C306	C	1.325608	0.119259	0.822225
N307	N	0.853293	-0.361276	0.349956
N308	N	1.353293	0.138724	0.849956
H309	H	0.849592	-0.829103	0.346225
H310	H	1.349592	-0.329103	0.846225
H311	H	0.305293	-0.297494	0.345899
H312	H	0.805293	0.202506	0.845899
H313	H	0.816300	-0.164266	0.953913
H314	H	1.316300	0.335734	1.453913
C315	C	0.651970	-0.836038	0.148261
C316	C	1.151970	-0.336038	0.648261
N317	N	0.624281	-0.855501	0.120532
N318	N	1.124281	-0.355501	0.620532
C319	C	0.651938	-0.737527	0.148247
C320	C	1.151938	-0.237527	0.648247
N321	N	0.624238	-0.718133	0.120510
N322	N	1.124238	-0.218133	0.620510
C323	C	0.198448	-0.305727	0.355448
C324	C	0.698448	0.194273	0.855448
N325	N	0.175841	-0.329581	0.383097
N326	N	0.675841	0.170419	0.883097
C327	C	0.825777	-0.953137	0.322338
C328	C	1.325777	-0.453137	0.822338
N329	N	0.853460	-0.933673	0.350073
N330	N	1.353460	-0.433673	0.850073
H331	H	0.816077	-0.472565	0.312692
H332	H	1.316077	0.027435	0.812692
C333	C	-0.052741	-0.156113	0.181940
C334	C	0.447259	0.343887	0.681940
N335	N	-0.075354	-0.132269	0.154292
N336	N	0.424646	0.367731	0.654292
C337	C	0.685315	-0.276718	0.946054
C338	C	1.185315	0.223282	1.446054
N339	N	0.657585	-0.300529	0.923429
N340	N	1.157585	0.199471	1.423429
C341	C	0.651808	-0.305484	0.694852
C342	C	1.151808	0.194516	1.194852
N343	N	0.624078	-0.329293	0.672225
N344	N	1.124078	0.170707	1.172225
C345	C	0.685285	-0.479440	0.181652
C346	C	1.185285	0.020560	0.681652
N347	N	0.657599	-0.498906	0.153923
N348	N	1.157599	0.001094	0.653923
H349	H	0.849533	-0.603237	0.346183
H350	H	1.349533	-0.103237	0.846183
C351	C	0.859301	-0.127361	0.809609
C352	C	1.359301	0.372639	1.309609
N353	N	0.887037	-0.103554	0.832231
N354	N	1.387037	0.396446	1.332231
C355	C	0.825870	-0.156035	1.060786
C356	C	1.325870	0.343965	1.560786
N357	N	0.853591	-0.132229	1.083428
N358	N	1.353591	0.367771	1.583428
H359	H	0.054121	-0.268739	0.312562
H360	H	0.554121	0.231261	0.812562
C361	C	0.685459	-1.051827	0.181756
C362	C	1.185459	-0.551827	0.681756
N363	N	0.657774	-1.071290	0.154023
N364	N	1.157774	-0.571290	0.654023
C365	C	0.685415	-0.953314	0.181749
C366	C	1.185415	-0.453314	0.681749
N367	N	0.657712	-0.933920	0.154014
N368	N	1.157712	-0.433920	0.654014
C369	C	0.651891	-0.596768	0.148221
C370	C	1.151891	-0.096768	0.648221
N371	N	0.624196	-0.577370	0.120481
N372	N	1.124196	-0.077370	0.620481
H373	H	-0.044944	-0.268742	0.312573
H374	H	0.455056	0.231258	0.812573
C375	C	0.685257	-0.380908	0.181640
C376	C	1.185257	0.119092	0.681640
N377	N	0.657563	-0.361498	0.153910
N378	N	1.157563	0.138502	0.653910
H379	H	0.849555	-0.688343	0.346202
H380	H	1.349555	-0.188343	0.846202
C381	C	0.685336	-0.276696	1.060705
C382	C	1.185336	0.223304	1.560705
N383	N	0.657610	-0.300495	1.083304
N384	N	1.157610	0.199505	1.583304
H385	H	0.661468	-0.688568	0.157798
H386	H	1.161468	-0.188568	0.657798
