data_functionalizedCrystal
_audit_creation_method	'MofGen! by Chris Wilmer'
_symmetry_space_group_name_H-M	'P1'
_symmetry_Int_Tables_number	1
_symmetry_cell_setting	triclinic
loop_
_symmetry_equiv_pos_as_xyz
  x,y,z
_cell_length_a	6.817900
_cell_length_b	11.102193
_cell_length_c	11.102291
_cell_angle_alpha	91.949712
_cell_angle_beta	108.605752
_cell_angle_gamma	108.603963
loop_
_atom_site_label
_atom_site_type_symbol
_atom_site_fract_x
_atom_site_fract_y
_atom_site_fract_z
V1	V	-4.111529	-0.175855	-0.396258
O2	O	-4.070572	0.008434	-0.388716
O3	O	-4.088297	-0.348674	-0.393548
O4	O	-4.088314	-0.173157	-0.569081
O5	O	-4.070554	-0.168299	-0.211968
V6	V	-4.588633	-0.153811	-0.374216
O7	O	-4.386870	-0.224210	-0.444611
O8	O	-4.763490	-0.105456	-0.325864
O9	O	-4.388658	0.019009	-0.376926
O10	O	-4.746987	-0.338100	-0.381759
O11	O	-4.747005	-0.161367	-0.558507
O12	O	-4.388641	-0.156509	-0.201394
C13	C	-3.938606	-0.390804	-0.387297
C14	C	-4.001065	-0.532087	-0.386232
C15	C	-3.846407	-0.591993	-0.379399
C16	C	-3.905108	-0.724744	-0.378402
C17	C	-4.273139	-0.737671	-0.391077
C18	C	-4.214432	-0.604921	-0.392065
C19	C	-3.633931	-0.584532	-0.372087
C20	C	-3.692631	-0.717282	-0.371090
C21	C	-3.938626	-0.166912	-0.611205
C22	C	-4.001095	-0.165850	-0.752488
C23	C	-4.214449	-0.171689	-0.825336
C24	C	-4.273121	-0.170666	-0.958082
C25	C	-3.905065	-0.157969	-0.945121
C26	C	-3.846392	-0.158983	-0.812375
C27	C	-4.426947	-0.179026	-0.832821
C28	C	-4.485619	-0.178003	-0.965567
C29	C	-4.201692	0.061132	-0.383174
C30	C	-4.118472	0.202413	-0.384247
C31	C	-4.201671	-0.162757	-0.159263
C32	C	-4.118440	-0.163813	-0.017979
H33	H	-3.673173	-0.764375	-0.457362
H34	H	-4.522338	-0.273804	-0.808357
C35	C	-3.584627	-0.545185	-0.493970
N36	N	-3.547488	-0.515548	-0.585771
H37	H	-3.490217	-0.531712	-0.280195
C38	C	-4.534906	-0.056105	-1.004891
N39	N	-4.572022	0.035709	-1.034511
C40	C	-3.734870	-0.150342	-1.010998
N41	N	-3.606660	-0.144571	-1.060612
C42	C	-4.453238	-0.062486	-0.769189
N43	N	-4.473033	0.025292	-0.721261
H44	H	-4.629311	-0.269897	-1.018414
C45	C	-3.611689	-0.152555	-0.732246
N46	N	-3.434904	-0.147718	-0.671893
C47	C	-4.384591	-0.539035	-0.399620
N48	N	-4.512775	-0.489413	-0.405331
H49	H	-4.446860	-0.796988	-0.395820
H50	H	-3.597237	-0.741765	-0.276318
