data_functionalizedCrystal
_audit_creation_method	'MofGen! by Chris Wilmer'
_symmetry_space_group_name_H-M	'P1'
_symmetry_Int_Tables_number	1
_symmetry_cell_setting	triclinic
loop_
_symmetry_equiv_pos_as_xyz
  x,y,z
_cell_length_a	16.625548
_cell_length_b	11.169416
_cell_length_c	11.169409
_cell_angle_alpha	90.029517
_cell_angle_beta	90.023153
_cell_angle_gamma	90.005306
loop_
_atom_site_label
_atom_site_type_symbol
_atom_site_fract_x
_atom_site_fract_y
_atom_site_fract_z
Zn1	Zn	1.232803	-0.477676	0.678673
Zn2	Zn	1.232743	-0.678416	0.478000
Zn3	Zn	1.097959	-0.477749	0.477996
Zn4	Zn	1.097978	-0.678319	0.678633
O5	O	1.165371	-0.578040	0.578325
O6	O	1.345628	-0.504314	0.652072
O7	O	1.214831	-0.651869	0.310049
O8	O	1.115863	-0.309790	0.504631
O9	O	1.345584	-0.651797	0.504638
O10	O	1.214933	-0.309736	0.652068
O11	O	1.115805	-0.504440	0.310046
O12	O	0.985129	-0.504346	0.504592
O13	O	1.115896	-0.651632	0.846588
O14	O	0.985143	-0.651703	0.651999
O15	O	1.214952	-0.504220	0.846617
O16	O	1.214849	-0.846353	0.504599
O17	O	1.115838	-0.846282	0.652003
C18	C	1.165361	-0.889865	0.578324
C19	C	1.165431	-1.023265	0.578363
C20	C	0.955880	-0.578023	0.578292
C21	C	0.866259	-0.578045	0.578306
C22	C	1.165433	-0.577907	0.891368
C23	C	1.165459	-0.577850	1.024768
C24	C	0.538083	-0.578052	0.578357
C25	C	0.629392	-0.578047	0.578339
C26	C	0.702168	-0.578049	0.578331
C27	C	0.793482	-0.578042	0.578314
C28	C	1.375680	-0.578058	0.578360
C29	C	1.465301	-0.578066	0.578374
C30	C	1.165403	-0.264998	0.578353
C31	C	1.165416	-0.131598	0.578365
C32	C	1.165356	-0.578086	0.266501
C33	C	1.165485	-0.577805	0.133101
