data_functionalizedCrystal
_audit_creation_method	'MofGen! by Chris Wilmer'
_symmetry_space_group_name_H-M	'P1'
_symmetry_Int_Tables_number	1
_symmetry_cell_setting	triclinic
loop_
_symmetry_equiv_pos_as_xyz
  x,y,z
_cell_length_a	6.817900
_cell_length_b	10.992421
_cell_length_c	10.992743
_cell_angle_alpha	91.824027
_cell_angle_beta	108.770538
_cell_angle_gamma	108.764763
loop_
_atom_site_label
_atom_site_type_symbol
_atom_site_fract_x
_atom_site_fract_y
_atom_site_fract_z
V1	V	-4.114295	-0.177721	-0.400571
O2	O	-4.072422	0.008581	-0.392964
O3	O	-4.091873	-0.352430	-0.397814
O4	O	-4.091907	-0.174970	-0.575282
O5	O	-4.072388	-0.170108	-0.214267
V6	V	-4.591186	-0.155440	-0.378290
O7	O	-4.390101	-0.226598	-0.449447
O8	O	-4.765577	-0.106563	-0.329414
O9	O	-4.390401	0.019270	-0.381047
O10	O	-4.750456	-0.341742	-0.385897
O11	O	-4.750490	-0.163052	-0.564594
O12	O	-4.390367	-0.158191	-0.203579
C13	C	-3.942352	-0.395021	-0.391490
C14	C	-4.005480	-0.537848	-0.390400
C15	C	-3.873143	-0.733136	-0.381614
C16	C	-3.807061	-0.584492	-0.382239
C17	C	-4.076075	-0.576495	-0.270585
C18	C	-4.140311	-0.725039	-0.269317
C19	C	-4.271845	-0.763596	-0.514930
C20	C	-4.202791	-0.615083	-0.517530
C21	C	-3.942394	-0.168651	-0.617867
C22	C	-4.005545	-0.167557	-0.760694
C23	C	-4.317984	-0.174249	-0.971787
C24	C	-4.252199	-0.174894	-0.823154
C25	C	-3.855212	-0.040045	-0.791481
C26	C	-3.922274	-0.038864	-0.940124
C27	C	-4.044619	-0.284157	-0.978370
C28	C	-3.983944	-0.287059	-0.830156
C29	C	-4.203264	0.061854	-0.387367
C30	C	-4.119376	0.204679	-0.388466
C31	C	-4.203222	-0.164514	-0.160987
C32	C	-4.119308	-0.165601	-0.018159
H33	H	-4.451695	-0.804713	-0.521210
H34	H	-4.466781	-0.265406	-1.024414
C35	C	-3.844815	-0.277214	-1.018175
N36	N	-3.694332	-0.271977	-1.048164
C37	C	-3.886128	-0.503244	-0.143434
N38	N	-3.743048	-0.448075	-0.047666
C39	C	-4.378354	-0.780271	-0.269048
N40	N	-4.557637	-0.821865	-0.268834
C41	C	-3.606185	-0.513651	-0.258925
N42	N	-3.454881	-0.460294	-0.166037
C43	C	-3.872595	0.079882	-0.725579
N44	N	-3.885697	0.170208	-0.675941
C45	C	-4.272806	-0.535639	-0.272442
N46	N	-4.420980	-0.504862	-0.273841
C47	C	-4.228413	-0.413332	-1.052095
N48	N	-4.366867	-0.510621	-1.107624
C49	C	-4.263296	-0.830479	-0.637409
N50	N	-4.256831	-0.880852	-0.729653
C51	C	-3.837682	-0.796818	-0.495767
N52	N	-3.810768	-0.845148	-0.581467
H53	H	-3.757340	-0.753705	-0.290412
H54	H	-4.029499	-0.742563	-0.174186
H55	H	-3.968498	0.050797	-0.963222
C56	C	-4.136613	-0.582790	-0.637287
N57	N	-4.086761	-0.558456	-0.727487
C58	C	-4.135374	-0.414398	-0.805610
N59	N	-4.249430	-0.510309	-0.787113
H60	H	-3.809020	-0.289132	-0.788409
H61	H	-4.375951	-0.089097	-0.998526
H62	H	-4.277971	-0.089697	-0.776916
C63	C	-4.405154	-0.574281	-0.535604
N64	N	-4.557578	-0.543550	-0.549208
C65	C	-4.409226	-0.298700	-0.796663
N66	N	-4.527519	-0.391951	-0.776716
C67	C	-3.719346	-0.023235	-0.979684
N68	N	-3.566495	-0.011452	-1.009473
H69	H	-3.749948	-0.558719	-0.467851
C70	C	-3.609853	-0.026507	-0.734915
N71	N	-3.425048	-0.016312	-0.692305
