data_functionalizedCrystal
_audit_creation_method	'MofGen! by Chris Wilmer'
_symmetry_space_group_name_H-M	'P1'
_symmetry_Int_Tables_number	1
_symmetry_cell_setting	triclinic
loop_
_symmetry_equiv_pos_as_xyz
  x,y,z
_cell_length_a	11.792241
_cell_length_b	10.654550
_cell_length_c	9.130313
_cell_angle_alpha	89.998468
_cell_angle_beta	90.003954
_cell_angle_gamma	84.339159
loop_
_atom_site_label
_atom_site_type_symbol
_atom_site_fract_x
_atom_site_fract_y
_atom_site_fract_z
O1	O	1.507300	0.172130	-0.121658
O2	O	1.177000	0.189870	-0.121692
O3	O	1.349744	-0.001761	-0.121664
O4	O	1.334556	0.363761	-0.121687
O5	O	1.349742	-0.001756	0.121935
O6	O	1.176998	0.189875	0.121907
O7	O	1.507298	0.172135	0.121941
Cu8	Cu	1.342148	0.181006	0.144166
Cu9	Cu	1.342150	0.180999	-0.143918
O10	O	1.334554	0.363766	0.121912
C11	C	1.134705	0.188758	0.000103
C12	C	1.008684	0.185423	0.000090
N13	N	1.342154	0.181009	0.346789
C14	C	1.348628	-0.048553	0.000135
C15	C	1.345291	-0.187987	0.000134
C16	C	0.777958	0.179290	0.000133
C17	C	0.906351	0.182697	0.000109
C18	C	1.549592	0.173247	0.000142
C19	C	1.675614	0.176582	0.000146
C20	C	1.335670	0.410558	0.000110
C21	C	1.339006	0.549992	0.000102
C22	C	1.237297	0.629765	0.000105
C23	C	1.240439	0.760777	0.000116
C24	C	1.447008	0.732229	0.000126
C25	C	1.443865	0.601220	0.000105
C26	C	1.132439	0.578537	0.000102
C27	C	1.030721	0.658312	0.000107
C28	C	1.033863	0.789324	0.000118
C29	C	1.138722	0.840561	0.000124
N30	N	1.342152	0.180986	-0.346540
C31	C	1.418665	0.096184	0.423453
C32	C	1.418662	0.096169	0.576790
C33	C	1.265633	0.265815	0.576784
C34	C	1.265632	0.265823	0.423450
C35	C	1.495187	0.011370	0.346792
C36	C	1.571705	-0.073461	0.423457
C37	C	1.571702	-0.073476	0.576794
C38	C	1.495181	0.011340	0.653466
H39	H	1.129869	0.471862	0.000095
H40	H	0.951040	0.854273	0.000108
O41	O	1.183090	0.357308	0.340774
H42	H	1.127511	0.304012	0.270936
H43	H	1.495177	0.011312	0.778323
H44	H	0.945348	0.616585	0.000091
H45	H	1.495199	0.011377	0.221938
H46	H	1.141272	0.947241	0.000126
O47	O	1.560102	0.787484	0.000148
H48	H	1.545200	0.891985	0.000178
O49	O	1.183128	0.357319	0.659470
H50	H	1.094518	0.340670	0.630053
H51	H	1.526686	0.536266	0.000094
H52	H	1.634000	-0.142523	0.361022
H53	H	1.633998	-0.142557	0.639213
