data_functionalizedCrystal
_audit_creation_method	'MofGen! by Chris Wilmer'
_symmetry_space_group_name_H-M	'P1'
_symmetry_Int_Tables_number	1
_symmetry_cell_setting	triclinic
loop_
_symmetry_equiv_pos_as_xyz
  x,y,z
_cell_length_a	31.640172
_cell_length_b	14.628931
_cell_length_c	14.628931
_cell_angle_alpha	60.000164
_cell_angle_beta	89.994754
_cell_angle_gamma	59.993640
loop_
_atom_site_label
_atom_site_type_symbol
_atom_site_fract_x
_atom_site_fract_y
_atom_site_fract_z
Zr1	Zr	0.407178	1.000486	-0.119994
O2	O	0.339690	1.191205	-0.265948
O3	O	0.427867	0.809776	-0.075251
O4	O	0.427867	1.000481	-0.265956
O5	O	0.339689	1.000501	0.075188
O6	O	0.497424	1.000465	-0.265962
O7	O	0.339689	1.000501	-0.075243
O8	O	0.497423	0.659329	0.075174
O9	O	0.339690	1.341637	-0.265948
O10	O	0.488600	0.888202	-0.056173
O11	O	0.436691	0.888214	0.056097
O12	O	0.436691	1.112744	-0.168434
O13	O	0.384782	1.112756	-0.056164
Zr14	Zr	0.518112	1.000462	0.119918
Zr15	Zr	0.518112	1.000461	-0.120004
Zr16	Zr	0.407178	1.000486	0.119927
Zr17	Zr	0.407178	1.240407	-0.119993
Zr18	Zr	0.518112	0.760541	0.119917
O19	O	0.497423	1.191171	0.075175
O20	O	0.497424	1.191170	-0.265962
O21	O	0.339689	1.191206	0.075189
O22	O	0.585601	0.809742	0.265872
O23	O	0.585601	0.809741	-0.075265
O24	O	0.427867	0.809777	0.265886
O25	O	0.585601	1.000446	-0.075265
O26	O	0.497423	1.000467	0.265880
O27	O	0.427867	1.000482	0.265886
O28	O	0.585601	1.000446	0.075167
O29	O	0.427868	1.341617	-0.265956
O30	O	0.497423	0.659330	0.265879
O31	O	0.585601	0.659310	0.265872
O32	O	0.585601	0.659310	0.075166
O33	O	0.339690	1.341637	-0.075243
O34	O	0.427868	1.341618	-0.075250
O35	O	0.488600	0.888203	0.168358
O36	O	0.540509	0.888191	0.056088
O37	O	0.488600	1.112733	-0.056173
O38	O	0.436691	1.112745	0.056097
C39	C	0.462645	0.700369	-0.000039
C40	C	0.462645	0.598516	-0.000039
C41	C	0.499061	0.474340	0.078717
C42	C	0.499062	0.369068	0.078719
C43	C	0.323884	1.000504	-0.000026
C44	C	0.276789	1.000515	-0.000022
C45	C	-0.015216	1.000450	-0.082910
C46	C	-0.192203	1.000434	-0.082918
O47	O	-0.215075	1.000376	-0.153372
N48	N	-0.214334	1.000437	-0.000045
C49	C	-0.192213	1.000435	0.082840
O50	O	-0.215094	1.000424	0.153335
C51	C	-0.015225	1.000442	0.082852
C52	C	0.006900	1.000452	-0.000033
C53	C	0.006909	1.000459	-0.165787
C54	C	0.051152	1.000470	-0.165788
C55	C	0.073268	1.000472	-0.082911
C56	C	0.051143	1.000463	-0.000034
C57	C	0.006897	1.000431	0.165741
C58	C	0.051147	1.000430	0.165738
C59	C	0.073273	1.000440	0.082853
C60	C	0.117502	1.000477	0.082842
N61	N	0.139632	1.000474	-0.000030
C62	C	0.117516	1.000472	-0.082907
C63	C	-0.285135	1.000434	0.082826
C64	C	-0.329382	1.000435	0.082823
C65	C	-0.329368	1.000431	-0.082935
C66	C	-0.285122	1.000440	-0.082934
C67	C	-0.263004	1.000431	-0.000047
C68	C	0.210428	1.000496	-0.082903
C69	C	0.254673	1.000513	-0.082899
C70	C	0.254656	1.000509	0.082861
C71	C	0.210414	1.000500	0.082854
C72	C	0.188301	1.000489	-0.000033
O73	O	0.140405	1.000520	0.153267
O74	O	0.140411	1.000454	-0.153377
C75	C	-0.059459	1.000439	-0.082909
C76	C	-0.081584	1.000430	-0.000032
C77	C	-0.059468	1.000432	0.082845
C78	C	-0.125832	1.000431	-0.000036
C79	C	-0.147948	1.000428	-0.082913
C80	C	-0.125818	1.000426	-0.165786
C81	C	-0.081575	1.000437	-0.165786
C82	C	-0.081599	1.000435	0.165718
C83	C	-0.125841	1.000426	0.165711
C84	C	-0.147958	1.000423	0.082834
C85	C	0.601407	1.000443	-0.000050
C86	C	0.648501	1.000432	-0.000054
C87	C	0.462645	1.000473	-0.300143
C88	C	0.462646	1.000472	-0.401996
C89	C	0.462646	1.300578	-0.000038
C90	C	0.462646	1.402431	-0.000037
C91	C	0.436895	1.111860	-0.503094
C92	C	0.436895	1.111863	-0.608365
C93	C	0.462645	1.000474	0.300067
C94	C	0.462645	1.000475	0.401919
C95	C	0.601407	0.700338	-0.000051
C96	C	0.648501	0.598475	-0.000055
C97	C	0.462645	0.700370	0.300066
C98	C	0.462645	0.598517	0.401919
C99	C	0.601406	0.700339	0.300054
C100	C	0.648501	0.598476	0.401902
C101	C	0.323884	1.300608	-0.300130
C102	C	0.276790	1.402471	-0.401979
C103	C	0.323884	1.300609	-0.000025
C104	C	0.276789	1.402472	-0.000021
C105	C	0.462646	1.300577	-0.300142
C106	C	0.462646	1.402430	-0.401995
C107	C	0.643521	0.550645	-0.058666
C108	C	0.687767	0.454947	-0.058693
C109	C	0.736992	0.407074	-0.000101
C110	C	0.741971	0.454914	0.058512
C111	C	0.697726	0.550617	0.058531
C112	C	0.697717	0.550634	0.391128
C113	C	0.741972	0.454936	0.486816
C114	C	0.737008	0.407076	0.593278
C115	C	0.687786	0.454927	0.604051
C116	C	0.643533	0.550630	0.508363
C117	C	0.227573	1.450325	-0.391204
C118	C	0.183319	1.546052	-0.486892
C119	C	0.188282	1.593918	-0.593354
C120	C	0.237504	1.546060	-0.604127
C121	C	0.281757	1.450341	-0.508440
C122	C	0.281769	1.450312	0.058580
C123	C	0.237524	1.546037	0.058580
C124	C	0.188298	1.593913	-0.000015
C125	C	0.183319	1.546069	-0.058624
C126	C	0.227565	1.450353	-0.058630
C127	C	0.488395	0.553103	0.503017
C128	C	0.488395	0.447833	0.608288
H129	H	0.431468	0.508915	-0.067470
H130	H	0.431467	0.626892	-0.067461
H131	H	0.152275	1.671851	-0.000001
H132	H	0.603460	0.589571	0.517152
O133	O	0.682387	0.403363	-0.121913
H134	H	0.721420	0.328784	-0.112105
H135	H	0.069165	1.000473	-0.233277
O136	O	0.140550	1.697172	-0.696558
H137	H	0.105494	1.722397	-0.671169
O138	O	0.590432	0.602272	-0.121877
H139	H	0.568978	0.707847	-0.186635
O140	O	0.703077	0.602260	0.276307
H141	H	0.744739	0.552917	0.284909
H142	H	0.773046	0.329149	0.671184
H143	H	0.440597	0.559469	0.393300
O144	O	0.222186	1.398757	-0.121835
H145	H	0.261219	1.324161	-0.112011
O146	O	0.334860	1.398688	0.121780
H147	H	0.356315	1.417038	0.062608
O148	O	0.682436	0.403285	0.718880
H149	H	0.721479	0.328685	0.783597
O150	O	0.130224	1.597709	-0.121813
H151	H	0.125714	1.641325	-0.211887
H152	H	0.241539	1.585045	-0.690819
O153	O	0.491862	0.874138	-0.390552
H154	H	0.476220	0.817885	-0.344103
O155	O	0.242899	1.597614	0.121812
H156	H	0.284562	1.548216	0.162572
O157	O	0.334841	1.398712	-0.520066
H158	H	0.330853	1.448073	-0.610174
H159	H	0.782046	0.415985	0.478025
H160	H	0.510438	0.592161	0.511635
O161	O	0.517603	0.396109	0.723162
H162	H	0.490230	0.414483	0.769536
O163	O	0.540368	0.436730	0.168025
H164	H	0.533890	0.525317	0.153999
O165	O	0.540363	0.228019	0.168042
H166	H	0.533880	0.167469	0.154031
H167	H	-0.011111	1.000422	0.233233
H168	H	0.440601	0.441478	0.511278
H169	H	0.272685	1.000524	-0.150397
H170	H	0.192429	1.000485	-0.150396
O171	O	-0.149680	1.000428	-0.255176
H172	H	-0.126866	1.000442	-0.312819
O173	O	-0.016946	1.000473	-0.255191
H174	H	0.005878	1.000491	-0.312817
O175	O	-0.261256	1.000438	-0.172323
H176	H	-0.284072	1.000430	-0.229945
H177	H	-0.347384	1.000432	-0.150418
O178	O	-0.353244	1.000418	0.172221
H179	H	-0.330422	1.000400	0.229856
H180	H	0.782056	0.415922	0.106215
O181	O	-0.261281	1.000428	0.172231
H182	H	-0.284110	1.000440	0.229843
H183	H	0.223522	1.411358	-0.304526
H184	H	0.069155	1.000419	0.233239
O185	O	0.703101	0.602177	0.121774
H186	H	0.724594	0.645758	0.087922
H187	H	0.192395	1.000510	0.150337
H188	H	-0.063564	1.000445	-0.233279
O189	O	0.278518	1.000495	0.172257
H190	H	0.313006	1.000483	0.158334
O191	O	0.130233	1.597637	-0.475262
H192	H	0.134221	1.548244	-0.385155
O193	O	-0.149699	1.000394	0.255124
H194	H	-0.126878	1.000376	0.312759
H195	H	0.414852	1.207222	-0.511712
O196	O	-0.057746	1.000437	0.255111
H197	H	-0.080574	1.000443	0.312727
H198	H	0.414846	1.207226	-0.695093
O199	O	0.784714	0.303848	-0.000120
H200	H	0.784680	0.216651	0.036552
O201	O	0.491865	0.874156	-0.483196
H202	H	0.464502	0.868616	-0.436793
