data_functionalizedCrystal
_audit_creation_method	'MofGen! by Chris Wilmer'
_symmetry_space_group_name_H-M	'P1'
_symmetry_Int_Tables_number	1
_symmetry_cell_setting	triclinic
loop_
_symmetry_equiv_pos_as_xyz
  x,y,z
_cell_length_a	19.288864
_cell_length_b	16.109301
_cell_length_c	18.366186
_cell_angle_alpha	89.992337
_cell_angle_beta	89.977106
_cell_angle_gamma	83.298863
loop_
_atom_site_label
_atom_site_type_symbol
_atom_site_fract_x
_atom_site_fract_y
_atom_site_fract_z
O1	O	0.921600	0.103716	-0.060785
O2	O	1.421600	0.603716	0.439215
O3	O	0.719373	0.117707	-0.060736
O4	O	1.219373	0.617707	0.439264
O5	O	0.826042	-0.010339	-0.060755
O6	O	1.326042	0.489661	0.439245
O7	O	0.814931	0.231761	-0.060767
O8	O	1.314931	0.731761	0.439233
O9	O	0.826024	-0.010345	0.060345
O10	O	1.326024	0.489655	0.560345
O11	O	0.719355	0.117701	0.060363
O12	O	1.219355	0.617701	0.560363
O13	O	0.921582	0.103710	0.060314
O14	O	1.421582	0.603710	0.560314
Zn15	Zn	0.820466	0.110704	0.079566
Zn16	Zn	1.320466	0.610704	0.579566
Zn17	Zn	0.820490	0.110712	-0.079988
Zn18	Zn	1.320490	0.610712	0.420012
O19	O	0.814913	0.231755	0.060333
O20	O	1.314913	0.731755	0.560333
C21	C	0.693487	0.117254	-0.000180
C22	C	1.193487	0.617254	0.499820
C23	C	0.616380	0.115902	-0.000161
C24	C	1.116380	0.615902	0.499839
C25	C	0.571863	0.191034	-0.000176
C26	C	1.071863	0.691034	0.499824
C27	C	0.499413	0.189764	-0.000184
C28	C	0.999413	0.689764	0.499816
C29	C	0.471483	0.113359	-0.000191
C30	C	0.971483	0.613359	0.499809
C31	C	0.516009	0.038218	-0.000172
C32	C	1.016009	0.538218	0.499828
C33	C	0.588458	0.039489	-0.000157
C34	C	1.088458	0.539489	0.499843
C35	C	0.363084	0.053298	-0.042639
C36	C	0.863084	0.553298	0.457361
C37	C	0.290636	0.052029	-0.042659
C38	C	0.790636	0.552029	0.457341
C39	C	0.248028	0.109433	-0.000235
C40	C	0.748028	0.609433	0.499765
C41	C	0.277874	0.168120	0.042199
C42	C	0.777874	0.668120	0.542199
C43	C	0.350323	0.169391	0.042214
C44	C	0.850323	0.669391	0.542214
C45	C	0.392925	0.111971	-0.000207
C46	C	0.892925	0.611971	0.499793
C47	C	0.124952	0.183193	-0.000258
C48	C	0.624952	0.683193	0.499742
C49	C	0.052501	0.181920	-0.000262
C50	C	0.552501	0.681920	0.499738
C51	C	0.069099	0.030372	-0.000257
C52	C	0.569099	0.530372	0.499743
C53	C	0.141548	0.031647	-0.000246
C54	C	0.641548	0.531647	0.499754
C55	C	0.169470	0.108060	-0.000250
C56	C	0.669470	0.608060	0.499750
C57	C	0.825583	-0.041315	-0.000205
C58	C	1.325583	0.458685	0.499795
C59	C	0.824234	-0.133606	-0.000203
C60	C	1.324234	0.366394	0.499797
C61	C	0.884391	-0.356084	-0.000229
C62	C	1.384391	0.143916	0.499771
C63	C	0.883118	-0.442800	-0.000235
C64	C	1.383118	0.057200	0.499765
C65	C	0.756559	-0.422493	-0.000201
C66	C	1.256559	0.077507	0.499799
C67	C	0.757833	-0.335778	-0.000201
C68	C	1.257833	0.164222	0.499799
C69	C	0.821751	-0.302577	-0.000211
C70	C	1.321751	0.197423	0.499789
C71	C	0.819204	-0.476007	-0.000217
C72	C	1.319204	0.023993	0.499783
C73	C	0.817823	-0.570028	-0.000223
C74	C	1.317823	-0.070028	0.499777
C75	C	0.823133	-0.208549	-0.000206
C76	C	1.323133	0.291451	0.499794
C77	C	0.947469	0.104163	-0.000244
C78	C	1.447469	0.604163	0.499756
C79	C	1.024576	0.105514	-0.000268
C80	C	1.524576	0.605514	0.499732
C81	C	0.815372	0.262732	-0.000219
C82	C	1.315372	0.762732	0.499781
C83	C	0.816722	0.355022	-0.000225
C84	C	1.316722	0.855022	0.499775
N85	N	0.820455	0.110698	0.188457
N86	N	1.320455	0.610698	0.688457
N87	N	0.820506	0.110712	-0.188879
N88	N	1.320506	0.610712	0.311121
C89	C	0.867703	0.054027	0.226549
C90	C	1.367703	0.554027	0.726549
C91	C	0.867707	0.054023	0.302777
C92	C	1.367707	0.554023	0.802777
C93	C	0.820470	0.110705	0.340910
C94	C	1.320470	0.610705	0.840910
C95	C	0.773213	0.167380	0.302808
C96	C	1.273213	0.667380	0.802808
C97	C	0.773205	0.167377	0.226582
C98	C	1.273205	0.667377	0.726582
C99	C	0.811353	0.186459	0.461668
C100	C	1.311353	0.686459	0.961668
C101	C	0.811365	0.186463	0.537893
C102	C	1.311365	0.686463	1.037893
C103	C	0.820490	0.110715	0.576017
C104	C	1.320490	0.610715	1.076017
C105	C	0.829616	0.034960	0.537908
C106	C	1.329616	0.534960	1.037908
C107	C	0.829609	0.034956	0.461681
C108	C	1.329609	0.534956	0.961681
C109	C	0.820473	0.110715	0.423564
C110	C	1.320473	0.610715	0.923564
C111	C	0.867746	0.054036	0.696764
C112	C	1.367746	0.554036	1.196764
C113	C	0.867745	0.054031	0.772993
C114	C	1.367745	0.554031	1.272993
C115	C	0.773254	0.167395	0.773023
C116	C	1.273254	0.667395	1.273023
C117	C	0.773251	0.167392	0.696796
C118	C	1.273251	0.667392	1.196796
C119	C	0.820500	0.110714	0.658671
C120	C	1.320500	0.610714	1.158671
H121	H	0.463160	0.250947	-0.000194
H122	H	0.963160	0.750947	0.499806
H123	H	0.704519	-0.449537	-0.000191
H124	H	1.204519	0.050463	0.499809
H125	H	0.734729	0.213526	0.195567
H126	H	1.234729	0.713526	0.695567
H127	H	0.934126	-0.486363	-0.000251
H128	H	1.434126	0.013637	0.499749
H129	H	0.906217	0.007882	0.665722
H130	H	1.406217	0.507882	1.165722
C131	C	0.954703	-0.319565	-0.000249
C132	C	1.454703	0.180435	0.499751
N133	N	1.007664	-0.292062	-0.000267
N134	N	1.507664	0.207938	0.499733
C135	C	0.257813	-0.012531	-0.089332
C136	C	0.757813	0.487469	0.410668
N137	N	0.233092	-0.061163	-0.124485
N138	N	0.733092	0.438837	0.375515
H139	H	0.803938	0.248148	0.568916
H140	H	1.303938	0.748148	1.068916
H141	H	0.374621	0.217173	0.076768
H142	H	0.874621	0.717173	0.576768
C143	C	0.688920	-0.276916	-0.000184
C144	C	1.188920	0.223084	0.499816
N145	N	0.637017	-0.232581	-0.000175
N146	N	1.137017	0.267419	0.499825
C147	C	0.919673	-0.008329	0.184616
C148	C	1.419673	0.491671	0.684616
N149	N	0.958814	-0.055299	0.153031
N150	N	1.458814	0.444701	0.653031
C151	C	0.919693	-0.008313	0.344687
C152	C	1.419693	0.491687	0.844687
N153	N	0.958852	-0.055262	0.376251
N154	N	1.458852	0.444738	0.876251
C155	C	0.839639	-0.048373	0.419763
C156	C	1.339639	0.451627	0.919763
N157	N	0.847189	-0.111139	0.388191
N158	N	1.347189	0.388861	0.888191
H159	H	0.837046	-0.026722	0.568947
H160	H	1.337046	0.473278	1.068947
H161	H	0.906218	0.007878	0.804009
H162	H	1.406218	0.507878	1.304009
C163	C	0.721292	0.229746	0.814965
C164	C	1.221292	0.729746	1.314965
N165	N	0.682153	0.276710	0.846559
N166	N	1.182153	0.776710	1.346559
C167	C	0.721323	0.229795	0.654893
C168	C	1.221323	0.729795	1.154893
N169	N	0.682224	0.276819	0.623332
N170	N	1.182224	0.776819	1.123332
H171	H	0.147687	0.245413	-0.000251
H172	H	0.647687	0.745413	0.499749
C173	C	0.721248	0.229726	0.344756
C174	C	1.221248	0.729726	0.844756
N175	N	0.682104	0.276684	0.376351
N176	N	1.182104	0.776684	0.876351
C177	C	0.602572	0.275090	-0.000166
C178	C	1.102572	0.775090	0.499834
N179	N	0.625704	0.338403	-0.000153
N180	N	1.125704	0.838403	0.499847
C181	C	0.231010	0.231267	0.088872
C182	C	0.731010	0.731267	0.588872
N183	N	0.195709	0.278827	0.124024
N184	N	0.695709	0.778827	0.624024
C185	C	0.801315	0.269793	0.419738
C186	C	1.301315	0.769793	0.919738
N187	N	0.793754	0.332558	0.388158
N188	N	1.293754	0.832558	0.888158
H189	H	0.046359	-0.031839	-0.000308
H190	H	0.546359	0.468161	0.499692
C191	C	0.003531	0.264575	-0.000268
C192	C	0.503531	0.764575	0.499732
N193	N	-0.033354	0.326833	-0.000270
N194	N	0.466646	0.826833	0.499730
H195	H	0.177795	-0.029534	-0.000238
H196	H	0.677795	0.470466	0.499762
C197	C	0.485285	-0.045828	-0.000181
C198	C	0.985285	0.454172	0.499819
N199	N	0.462144	-0.109135	-0.000186
N200	N	0.962144	0.390865	0.499814
C201	C	0.637429	-0.043165	-0.000145
C202	C	1.137429	0.456835	0.499855
N203	N	0.674315	-0.105421	-0.000138
N204	N	1.174315	0.394579	0.499862
C205	C	0.409946	-0.009852	-0.089315
C206	C	0.909946	0.490148	0.410685
N207	N	0.445242	-0.057413	-0.124472
N208	N	0.945242	0.442587	0.375528
