data_functionalizedCrystal
_audit_creation_method	'MofGen! by Chris Wilmer'
_symmetry_space_group_name_H-M	'P1'
_symmetry_Int_Tables_number	1
_symmetry_cell_setting	triclinic
loop_
_symmetry_equiv_pos_as_xyz
  x,y,z
_cell_length_a	18.101395
_cell_length_b	14.908571
_cell_length_c	14.908308
_cell_angle_alpha	89.824947
_cell_angle_beta	93.266316
_cell_angle_gamma	93.272726
loop_
_atom_site_label
_atom_site_type_symbol
_atom_site_fract_x
_atom_site_fract_y
_atom_site_fract_z
Zn1	Zn	-0.386468	-1.345208	-0.587575
Zn2	Zn	0.113532	-0.845208	-0.087575
Zn3	Zn	-0.503604	-1.353762	-0.437213
Zn4	Zn	-0.003604	-0.853762	0.062787
Zn5	Zn	-0.372244	-1.203527	-0.428573
Zn6	Zn	0.127756	-0.703527	0.071427
Zn7	Zn	-0.502724	-1.194790	-0.578865
Zn8	Zn	-0.002724	-0.694790	-0.078865
O9	O	-0.441260	-1.274322	-0.508057
O10	O	0.058740	-0.774322	-0.008057
O11	O	-0.408328	-1.472167	-0.574890
O12	O	0.091672	-0.972167	-0.074890
O13	O	-0.480594	-1.341069	-0.310243
O14	O	0.019406	-0.841069	0.189757
O15	O	-0.270503	-1.222397	-0.449694
O16	O	0.229497	-0.722397	0.050306
O17	O	-0.494387	-1.478452	-0.464420
O18	O	0.005613	-0.978452	0.035580
O19	O	-0.280953	-1.326490	-0.566512
O20	O	0.219047	-0.826490	-0.066512
O21	O	-0.384085	-1.230692	-0.303895
O22	O	0.115915	-0.730692	0.196105
O23	O	-0.383231	-1.076543	-0.441249
O24	O	0.116769	-0.576543	0.058751
O25	O	-0.492887	-1.207507	-0.705845
O26	O	0.007113	-0.707507	-0.205845
O27	O	-0.479094	-1.070124	-0.551667
O28	O	0.020906	-0.570124	-0.051667
O29	O	-0.407474	-1.318019	-0.712244
O30	O	0.092526	-0.818019	-0.212244
O31	O	-0.607115	-1.332598	-0.455974
O32	O	-0.107115	-0.832598	0.044026
O33	O	-0.606469	-1.215801	-0.560045
O34	O	-0.106469	-0.715801	-0.060045
C35	C	-0.429524	-1.040709	-0.494576
C36	C	0.070476	-0.540709	0.005424
C37	C	-0.424523	-0.940767	-0.488830
C38	C	0.075477	-0.440767	0.011170
C39	C	-0.633663	-1.274203	-0.508023
C40	C	-0.133663	-0.774203	-0.008023
C41	C	-0.715980	-1.274233	-0.508044
C42	C	-0.215980	-0.774233	-0.008044
C43	C	-0.451669	-1.260834	-0.742582
C44	C	0.048331	-0.760834	-0.242582
C45	C	-0.456105	-1.255087	-0.842522
C46	C	0.043895	-0.755087	-0.342522
C47	C	-1.015083	-1.274427	-0.508104
C48	C	-0.515083	-0.774427	-0.008104
C49	C	-0.983397	-1.201093	-0.573764
C50	C	-0.483397	-0.701093	-0.073764
C51	C	-0.897753	-1.200777	-0.573527
C52	C	-0.397753	-0.700777	-0.073527
C53	C	-0.866694	-1.274331	-0.508075
C54	C	-0.366694	-0.774331	-0.008075
C55	C	-0.892332	-1.254147	-0.411835
C56	C	-0.392332	-0.754147	0.088165
C57	C	-0.977973	-1.253677	-0.412227
C58	C	-0.477973	-0.753677	0.087773
C59	C	-0.989281	-1.368144	-0.537857
C60	C	-0.489281	-0.868144	-0.037857
C61	C	-0.903695	-1.367465	-0.539903
C62	C	-0.403695	-0.867465	-0.039903
C63	C	-0.782831	-1.274278	-0.508053
C64	C	-0.282831	-0.774278	-0.008053
C65	C	-1.098945	-1.274478	-0.508119
C66	C	-0.598945	-0.774478	-0.008119
C67	C	-0.248107	-1.274464	-0.508111
C68	C	0.251893	-0.774464	-0.008111
C69	C	-0.165797	-1.274525	-0.508134
C70	C	0.334203	-0.774525	-0.008134
C71	C	-0.453042	-1.508847	-0.521591
C72	C	0.046958	-1.008847	-0.021591
C73	C	-0.458063	-1.608787	-0.527358
C74	C	0.041937	-1.108787	-0.027358
C75	C	-0.515086	-0.746339	-0.592857
C76	C	-0.015086	-0.246339	-0.092857
C77	C	-0.510389	-0.652434	-0.587462
C78	C	-0.010389	-0.152434	-0.087462
C79	C	-0.410428	-0.659052	-0.472648
C80	C	0.089572	-0.159052	0.027352
C81	C	-0.415125	-0.752956	-0.478044
C82	C	0.084875	-0.252956	0.021956
C83	C	-0.467457	-0.796596	-0.538149
C84	C	0.032543	-0.296596	-0.038149
C85	C	-0.472157	-0.890503	-0.543540
C86	C	0.027843	-0.390503	-0.043540
C87	C	-0.372193	-0.897118	-0.428731
C88	C	0.127807	-0.397118	0.071269
C89	C	-0.367496	-0.803213	-0.423336
C90	C	0.132504	-0.303213	0.076664
C91	C	-0.375483	-1.359359	-1.036986
C92	C	0.124517	-0.859359	-0.536986
C93	C	-0.379648	-1.353962	-1.130890
C94	C	0.120352	-0.853962	-0.630890
C95	C	-0.468597	-1.238890	-1.124234
C96	C	0.031403	-0.738890	-0.624234
C97	C	-0.464432	-1.244288	-1.030330
C98	C	0.035568	-0.744288	-0.530330
C99	C	-0.417874	-1.304525	-0.986710
C100	C	0.082126	-0.804525	-0.486710
C101	C	-0.413713	-1.309927	-0.892805
C102	C	0.086287	-0.809927	-0.392805
C103	C	-0.502657	-1.194851	-0.886151
C104	C	-0.002657	-0.694851	-0.386151
C105	C	-0.506822	-1.189453	-0.980054
C106	C	-0.006822	-0.689453	-0.480054
C107	C	-0.430840	-1.287808	-0.274447
C108	C	0.069160	-0.787808	0.225553
C109	C	-0.426205	-1.293730	-0.174517
C110	C	0.073795	-0.793730	0.325483
H111	H	-0.880629	-1.212770	-0.644716
H112	H	-0.380629	-0.712770	-0.144716
H113	H	-0.506502	-1.189847	-1.159766
H114	H	-0.006502	-0.689847	-0.659766
H115	H	-0.345127	-1.398611	-1.171821
H116	H	0.154873	-0.898611	-0.671821
H117	H	-0.887413	-1.382784	-0.610757
H118	H	-0.387413	-0.882784	-0.110757
H119	H	-1.009859	-1.422713	-0.490101
H120	H	-0.509859	-0.922713	0.009899
H121	H	-0.324888	-0.767668	-0.374402
H122	H	0.175112	-0.267668	0.125598
H123	H	-0.873076	-1.131201	-0.553387
H124	H	-0.373076	-0.631201	-0.053387
H125	H	-0.544727	-1.140408	-1.015582
H126	H	-0.044727	-0.640408	-0.515582
H127	H	-0.367818	-0.623503	-0.423719
H128	H	0.132182	-0.123503	0.076281
H129	H	-0.993611	-1.185333	-0.387659
H130	H	-0.493611	-0.685333	0.112341
H131	H	-0.337578	-1.408412	-1.001471
H132	H	0.162422	-0.908412	-0.501471
H133	H	-0.514769	-0.926033	-0.592479
H134	H	-0.014769	-0.426033	-0.092479
H135	H	-0.866562	-1.186561	-0.386941
H136	H	-0.366562	-0.686561	0.113059
H137	H	-0.333411	-0.938048	-0.384182
H138	H	0.166589	-0.438048	0.115818
H139	H	-0.557700	-0.781872	-0.641793
H140	H	-0.057700	-0.281872	-0.141793
H141	H	-0.549172	-0.611518	-0.632012
H142	H	-0.049172	-0.111518	-0.132012
H143	H	-0.882912	-1.424553	-0.496001
H144	H	-0.382912	-0.924553	0.003999
H145	H	-0.998720	-1.305069	-0.361342
H146	H	-0.498720	-0.805069	0.138658
H147	H	-0.872037	-1.306121	-0.361340
H148	H	-0.372037	-0.806121	0.138660
H149	H	-0.375804	-1.358977	-0.857292
H150	H	0.124196	-0.858977	-0.357292
H151	H	-0.537177	-1.150203	-0.845206
H152	H	-0.037177	-0.650203	-0.345206
H153	H	-1.007887	-1.212915	-0.645171
H154	H	-0.507887	-0.712915	-0.145171
H155	H	-1.000760	-1.131935	-0.553850
H156	H	-0.500760	-0.631935	-0.053850
H157	H	-1.015032	-1.387612	-0.607127
H158	H	-0.515032	-0.887612	-0.107127
