data_functionalizedCrystal
_audit_creation_method	'MofGen! by Chris Wilmer'
_symmetry_space_group_name_H-M	'P1'
_symmetry_Int_Tables_number	1
_symmetry_cell_setting	triclinic
loop_
_symmetry_equiv_pos_as_xyz
  x,y,z
_cell_length_a	27.731993
_cell_length_b	27.732048
_cell_length_c	9.130313
_cell_angle_alpha	89.993840
_cell_angle_beta	90.011328
_cell_angle_gamma	82.631525
loop_
_atom_site_label
_atom_site_type_symbol
_atom_site_fract_x
_atom_site_fract_y
_atom_site_fract_z
O1	O	0.640942	0.057389	-0.121421
O2	O	0.500144	0.066162	-0.121513
O3	O	0.574916	-0.008622	-0.121436
O4	O	0.566170	0.132173	-0.121497
O5	O	0.574915	-0.008620	0.122163
O6	O	0.500144	0.066164	0.122086
O7	O	0.640941	0.057391	0.122178
Cu8	Cu	0.570542	0.061778	0.144375
Cu9	Cu	0.570543	0.061776	-0.143709
O10	O	0.566169	0.132175	0.122101
C11	C	0.482137	0.065983	0.000276
C12	C	0.428480	0.065441	0.000242
C13	C	0.045321	0.061509	-0.132471
C14	C	0.246978	0.063576	-0.132512
O15	O	0.273052	0.063823	-0.245444
N16	N	0.272198	0.063836	0.000271
C17	C	0.247001	0.063576	0.133073
O18	O	0.273079	0.063839	0.246012
C19	C	0.045345	0.061505	0.133112
C20	C	0.020127	0.061251	0.000321
C21	C	0.020103	0.061254	-0.265252
C22	C	-0.030309	0.060740	-0.265240
C23	C	-0.055503	0.060481	-0.132448
C24	C	-0.030285	0.060736	0.000332
C25	C	0.020149	0.061242	0.265913
C26	C	-0.030268	0.060723	0.265911
C27	C	-0.055486	0.060468	0.133120
C28	C	-0.105891	0.059964	0.133136
N29	N	-0.131110	0.059704	0.000353
C30	C	-0.105916	0.059963	-0.132439
C31	C	0.352873	0.064664	0.133043
C32	C	0.403286	0.065182	0.133034
C33	C	0.403261	0.065182	-0.132552
C34	C	0.352845	0.064667	-0.132541
C35	C	0.327653	0.064404	0.000261
C36	C	-0.211785	0.058883	-0.132405
C37	C	-0.262201	0.058371	-0.132381
C38	C	-0.262170	0.058369	0.133203
C39	C	-0.211759	0.058884	0.133181
C40	C	-0.186567	0.059139	0.000365
O41	O	-0.131994	0.059711	0.246009
O42	O	-0.132002	0.059688	-0.245361
C43	C	0.095732	0.062023	-0.132483
C44	C	0.120950	0.062279	0.000298
C45	C	0.095756	0.062020	0.133090
C46	C	0.171364	0.062797	0.000289
C47	C	0.196558	0.063056	-0.132503
C48	C	0.171338	0.062796	-0.265286
C49	C	0.120926	0.062282	-0.265275
C50	C	0.120976	0.062280	0.265872
C51	C	0.171388	0.062794	0.265850
C52	C	0.196582	0.063053	0.133058
C53	C	0.574732	-0.026628	0.000367
C54	C	0.574179	-0.080282	0.000379
C55	C	0.614884	-0.419105	0.000330
C56	C	0.612833	-0.620765	0.000309
O57	O	0.650055	-0.652028	0.000269
N58	N	0.568497	-0.639880	0.000281
C59	C	0.524670	-0.608576	0.000249
O60	O	0.486912	-0.629462	0.000211
C61	C	0.526721	-0.406918	0.000261
C62	C	0.571061	-0.387806	0.000303
C63	C	0.659220	-0.399993	0.000371
C64	C	0.659732	-0.349581	0.000384
C65	C	0.615909	-0.318282	0.000357
C66	C	0.571573	-0.337394	0.000316
C67	C	0.482895	-0.375616	0.000219
C68	C	0.483412	-0.325199	0.000218
C69	C	0.527751	-0.306087	0.000260
C70	C	0.528262	-0.255683	0.000303
N71	N	0.572598	-0.236568	0.000330
C72	C	0.616422	-0.267867	0.000357
C73	C	0.523596	-0.714450	0.000246
C74	C	0.523083	-0.764865	0.000246
C75	C	0.611246	-0.777049	0.000303
C76	C	0.611759	-0.726634	0.000313
C77	C	0.567932	-0.695335	0.000274
C78	C	0.617494	-0.161998	0.000387
C79	C	0.618003	-0.111582	0.000406
C80	C	0.529839	-0.099401	0.000342
C81	C	0.529331	-0.149814	0.000330
C82	C	0.573162	-0.181112	0.000348
O83	O	0.491060	-0.224392	0.000326
O84	O	0.654174	-0.246972	0.000364
C85	C	0.614372	-0.469517	0.000317
C86	C	0.570036	-0.488630	0.000276
C87	C	0.526213	-0.457331	0.000249
C88	C	0.569523	-0.539044	0.000276
C89	C	0.613346	-0.570343	0.000303
C90	C	0.657683	-0.551228	0.000331
C91	C	0.658195	-0.500817	0.000344
C92	C	0.481876	-0.476446	0.000221
C93	C	0.481368	-0.526858	0.000210
C94	C	0.525191	-0.558157	0.000237
C95	C	0.658949	0.057570	0.000387
C96	C	0.712605	0.058113	0.000411
C97	C	0.566353	0.150181	0.000295
C98	C	0.566906	0.203836	0.000274
N99	N	0.570545	0.061779	0.346997
N100	N	0.570544	0.061770	-0.346332
C101	C	0.603662	0.028676	0.423683
C102	C	0.603661	0.028670	0.577020
C103	C	0.537424	0.094875	0.576972
C104	C	0.537423	0.094879	0.423638
C105	C	0.641905	-0.009546	0.423712
C106	C	0.641904	-0.009552	0.577049
H107	H	-0.191279	0.059092	-0.240556
Cl108	Cl	-0.293852	0.058045	0.300133
H109	H	0.678922	-0.001876	0.618686
H110	H	0.445259	-0.542414	0.000188
Cl111	Cl	0.630088	-0.066707	0.359458
H112	H	-0.282731	0.058165	-0.240521
Cl113	Cl	0.495787	0.136484	0.673328
Cl114	Cl	-0.062003	0.060415	-0.432187
H115	H	0.446789	-0.391168	0.000175
H116	H	0.040611	0.061463	-0.373393
H117	H	0.423782	0.065394	-0.240676
Cl118	Cl	-0.061935	0.060389	0.432872
H119	H	0.510452	0.121830	0.361201
H120	H	0.100398	0.062075	-0.373407
H121	H	0.676816	0.001654	0.376171
Cl122	Cl	0.624642	-0.063467	0.650481
Cl123	Cl	0.474750	-0.060045	0.000305
H124	H	0.191859	0.063010	-0.373410
H125	H	0.332316	0.064459	-0.240671
H126	H	0.694301	-0.485261	0.000378
H127	H	0.694908	-0.425472	0.000388
H128	H	-0.191227	0.059101	0.241310
Cl129	Cl	0.434981	0.065513	0.299979
Cl130	Cl	0.321208	0.064341	0.300011
H131	H	0.040673	0.061448	0.374046
Cl132	Cl	0.203083	0.063118	0.432806
H133	H	0.100469	0.062066	0.374010
H134	H	0.654110	-0.096024	0.000445
Cl135	Cl	0.672597	-0.201337	0.000411
H136	H	0.695838	-0.334025	0.000413
Cl137	Cl	0.667501	-0.702613	0.000365
H138	H	0.446189	-0.450966	0.000196
Cl139	Cl	0.468494	-0.675110	0.000199
H140	H	0.646929	-0.802542	0.000326
H141	H	0.486977	-0.780421	0.000237
H142	H	0.447722	-0.299717	0.000183
H143	H	0.493226	-0.165375	0.000337
Cl144	Cl	0.712774	-0.590586	0.000372
