data_functionalizedCrystal
_audit_creation_method	'MofGen! by Chris Wilmer'
_symmetry_space_group_name_H-M	'P1'
_symmetry_Int_Tables_number	1
_symmetry_cell_setting	triclinic
loop_
_symmetry_equiv_pos_as_xyz
  x,y,z
_cell_length_a	19.188925
_cell_length_b	15.455304
_cell_length_c	16.992695
_cell_angle_alpha	87.173346
_cell_angle_beta	86.905386
_cell_angle_gamma	86.990267
loop_
_atom_site_label
_atom_site_type_symbol
_atom_site_fract_x
_atom_site_fract_y
_atom_site_fract_z
O1	O	0.934773	-0.072151	0.100906
O2	O	0.732232	-0.072149	0.114085
O3	O	0.832690	-0.072143	-0.006645
O4	O	0.834315	-0.072157	0.221636
O5	O	0.826883	0.072120	-0.012754
O6	O	0.726425	0.072114	0.107976
O7	O	0.928966	0.072112	0.094796
Cu8	Cu	0.827165	0.085285	0.100828
Cu9	Cu	0.834033	-0.085322	0.108053
O10	O	0.828507	0.072106	0.215526
C11	C	0.703293	-0.000017	0.110605
C12	C	0.625713	-0.000016	0.109326
C13	C	0.067587	-0.000022	0.171601
C14	C	0.140481	-0.000027	0.172810
C15	C	0.181270	-0.000021	0.101969
C16	C	0.149160	-0.000033	0.029916
C17	C	0.076268	-0.000036	0.028709
N18	N	0.296969	0.049090	0.048604
N19	N	0.366214	0.049096	0.049755
C20	C	0.400891	-0.000011	0.105600
N21	N	0.363708	-0.049113	0.160263
N22	N	0.294457	-0.049114	0.159114
C23	C	0.260310	-0.000017	0.103270
C24	C	0.512033	-0.000010	0.178961
C25	C	0.584929	-0.000021	0.180167
C26	C	0.593606	-0.000018	0.037270
C27	C	0.520712	-0.000016	0.036066
C28	C	0.479930	-0.000008	0.106914
N29	N	0.822340	0.205282	0.095746
C30	C	0.865504	0.250669	0.141255
C31	C	0.861864	0.341477	0.137406
C32	C	0.815055	0.386897	0.088053
C33	C	0.771888	0.341503	0.042539
C34	C	0.775533	0.250697	0.046384
C35	C	0.799335	0.658481	0.071464
C36	C	0.795693	0.749294	0.067625
C37	C	0.885670	0.749262	0.162491
C38	C	0.889307	0.658453	0.166335
C39	C	0.846143	0.613067	0.120818
N40	N	0.811331	0.479718	0.084120
N41	N	0.849871	0.520248	0.124748
C42	C	0.957905	-0.000022	0.098277
C43	C	1.035485	-0.000029	0.099557
N44	N	0.838858	0.794681	0.113133
C45	C	0.827698	-0.000012	-0.038905
C46	C	0.821465	-0.000012	-0.125927
C47	C	0.881604	-0.000012	-0.176375
C48	C	0.875744	-0.000020	-0.258141
C49	C	0.809743	-0.000022	-0.289458
C50	C	0.749599	-0.000025	-0.239003
C51	C	0.755460	-0.000023	-0.157239
C52	C	0.785451	-0.000034	-0.532971
C53	C	0.779594	-0.000033	-0.614743
C54	C	0.905739	-0.000030	-0.633875
C55	C	0.911595	-0.000023	-0.552108
C56	C	0.851451	-0.000030	-0.501660
N57	N	0.803751	-0.000028	-0.373036
N58	N	0.857444	-0.000031	-0.418084
C59	C	0.833500	-0.000027	0.247786
C60	C	0.839733	-0.000033	0.334809
H61	H	0.494575	-0.000017	-0.022601
H62	H	0.725845	-0.000021	-0.640237
N63	N	0.949018	-0.000000	-0.144376
N64	N	0.963911	0.060812	-0.103465
H65	H	1.011523	0.060819	-0.080866
H66	H	0.757571	0.786272	0.027435
H67	H	0.706488	-0.000023	-0.116164
H68	H	0.903618	0.213694	0.181448
H69	H	0.626816	-0.000020	-0.020410
N70	N	0.967179	-0.000039	-0.685394
N71	N	1.026103	-0.000042	-0.657422
H72	H	1.069499	-0.000051	-0.693806
N73	N	0.905965	0.387825	0.183893
N74	N	0.947754	0.347262	0.227957
H75	H	0.978904	0.379994	0.260790
H76	H	0.965339	-0.000021	-0.526617
H77	H	0.478826	-0.000006	0.236649
H78	H	0.034386	-0.000020	0.229291
N79	N	0.617736	-0.000021	0.253755
N80	N	0.659892	-0.060830	0.272950
H81	H	0.683065	-0.060831	0.324923
H82	H	0.733779	0.378491	0.002351
H83	H	0.182375	-0.000030	-0.027763
H84	H	0.927426	0.621478	0.206521
H85	H	0.740383	0.213744	0.009326
N86	N	0.682174	-0.000011	-0.270977
N87	N	0.628483	-0.000005	-0.225923
H88	H	0.580862	0.000010	-0.248502
H89	H	0.736477	-0.000040	-0.491906
N90	N	0.043484	-0.000047	-0.044893
N91	N	0.079907	-0.000050	-0.108140
H92	H	0.056753	-0.000056	-0.160123
N93	N	0.755240	0.612115	0.024989
N94	N	0.758495	0.531038	0.028424
H95	H	0.727350	0.498288	-0.004399
H96	H	0.924716	-0.000018	-0.299214
N97	N	0.173272	-0.000019	0.246412
N98	N	0.136851	-0.000014	0.309660
H99	H	0.160007	-0.000007	0.361643
N100	N	0.929752	0.795636	0.208978
N101	N	0.926494	0.876712	0.205543
H102	H	0.957629	0.909465	0.238376
