data_functionalizedCrystal
_audit_creation_method	'MofGen! by Chris Wilmer'
_symmetry_space_group_name_H-M	'P1'
_symmetry_Int_Tables_number	1
_symmetry_cell_setting	triclinic
loop_
_symmetry_equiv_pos_as_xyz
  x,y,z
_cell_length_a	14.908520
_cell_length_b	14.908571
_cell_length_c	14.908308
_cell_angle_alpha	90.175053
_cell_angle_beta	96.360765
_cell_angle_gamma	90.205961
loop_
_atom_site_label
_atom_site_type_symbol
_atom_site_fract_x
_atom_site_fract_y
_atom_site_fract_z
Zn1	Zn	-0.470613	1.316651	-0.613065
Zn2	Zn	-0.613252	1.316549	-0.470429
Zn3	Zn	-0.453291	1.176020	-0.453125
Zn4	Zn	-0.612180	1.157642	-0.612023
O5	O	-0.537334	1.241715	-0.537161
O6	O	-0.497231	1.441995	-0.601822
O7	O	-0.585232	1.305556	-0.341941
O8	O	-0.329399	1.202409	-0.467536
O9	O	-0.602028	1.441920	-0.497029
O10	O	-0.342124	1.305730	-0.585043
O11	O	-0.467710	1.202310	-0.329228
O12	O	-0.466671	1.048225	-0.466525
O13	O	-0.600202	1.171086	-0.738354
O14	O	-0.583406	1.034722	-0.583267
O15	O	-0.496192	1.287909	-0.739120
O16	O	-0.739300	1.287736	-0.496018
O17	O	-0.738513	1.170987	-0.600046
C18	C	-0.523043	1.008970	-0.522906
C19	C	-0.516953	0.909397	-0.516830
C20	C	-0.771629	1.227379	-0.549818
C21	C	-0.871868	1.221326	-0.555268
C22	C	-0.627234	0.708277	-0.626831
C23	C	-0.621514	0.614720	-0.621125
C24	C	-0.499789	0.628723	-0.499719
C25	C	-0.505509	0.722281	-0.505424
C26	C	-0.569235	0.762054	-0.568981
C27	C	-0.574958	0.855613	-0.574682
C28	C	-0.453230	0.869615	-0.453280
C29	C	-0.447510	0.776058	-0.447575
C30	C	-1.060998	1.331634	-0.457284
C31	C	-1.155181	1.325950	-0.462402
C32	C	-1.154420	1.204279	-0.570626
C33	C	-1.060237	1.209963	-0.565508
C34	C	-1.013529	1.273642	-0.508834
C35	C	-0.919343	1.279321	-0.503712
C36	C	-0.918584	1.157655	-0.611940
C37	C	-1.012768	1.151970	-0.617058
C38	C	-0.302127	1.256131	-0.524476
C39	C	-0.201896	1.262274	-0.519070
C40	C	-0.550010	1.227459	-0.772372
C41	C	-0.555411	1.221383	-0.872606
C42	C	-0.551681	1.475370	-0.551472
C43	C	-0.557795	1.574939	-0.557571
C44	C	-0.457236	1.331614	-1.061752
C45	C	-0.462308	1.325908	-1.155930
C46	C	-0.570623	1.204264	-1.155141
C47	C	-0.565551	1.209969	-1.060963
C48	C	-0.508856	1.273647	-1.014272
C49	C	-0.503789	1.279356	-0.920093
C50	C	-0.612099	1.157708	-0.919305
C51	C	-0.617171	1.152002	-1.013483
C52	C	-0.524646	1.255972	-0.302864
C53	C	-0.519001	1.262236	-0.202628
H54	H	-0.626848	0.887995	-0.626432
O55	O	-0.412032	1.382189	-1.201943
C56	C	-0.262855	1.433281	-1.225177
C57	C	-0.319689	1.369511	-1.172989
H58	H	-0.188184	1.423040	-1.201801
H59	H	-0.282049	1.505687	-1.211914
H60	H	-0.276263	1.418282	-1.300509
H61	H	-0.306311	1.384429	-1.097643
H62	H	-0.300484	1.297125	-1.186327
H63	H	-0.411077	1.383467	-1.023736
H64	H	-0.654134	1.110509	-0.880636
H65	H	-0.395624	0.743661	-0.395831
H66	H	-1.050810	1.100127	-0.663202
H67	H	-1.193828	1.373175	-0.420427
O68	O	-0.625705	1.142333	-1.200361
C69	C	-0.732645	1.022314	-1.189656
C70	C	-0.670286	1.092395	-1.138331
H71	H	-0.768719	0.981933	-1.139529
H72	H	-0.690778	0.975277	-1.228616
H73	H	-0.784654	1.057899	-1.238839
H74	H	-0.618266	1.056885	-1.089103
H75	H	-0.712212	1.139428	-1.099431
H76	H	-0.879924	1.110431	-0.653913
H77	H	-0.663328	1.100156	-1.051511
O78	O	-1.015708	1.393439	-0.402107
C79	C	-0.981264	1.448037	-0.249843
C80	C	-1.032618	1.378004	-0.312234
H81	H	-0.994902	1.435570	-0.177165
H82	H	-1.005008	1.518202	-0.271086
H83	H	-0.905803	1.442146	-0.255090
H84	H	-1.108088	1.383812	-0.307018
H85	H	-1.008800	1.307868	-0.290973
H86	H	-1.192467	1.152440	-0.616773
O87	O	-0.677730	0.562441	-0.677405
C88	C	-0.690142	0.448672	-0.793322
C89	C	-0.626377	0.507840	-0.729645
H90	H	-0.648649	0.404499	-0.835561
H91	H	-0.736654	0.493129	-0.839789
H92	H	-0.732339	0.404540	-0.751703
H93	H	-0.584122	0.551981	-0.771192
H94	H	-0.579925	0.463331	-0.683175
H95	H	-0.679126	0.740661	-0.678577
O96	O	-0.874112	1.341253	-0.448645
C97	C	-0.884808	1.461299	-0.341804
C98	C	-0.936142	1.391215	-0.404145
H99	H	-0.934936	1.501699	-0.305794
H100	H	-0.845785	1.508318	-0.383675
H101	H	-0.835682	1.425715	-0.289740
H102	H	-0.985313	1.426723	-0.456220
H103	H	-0.975105	1.344201	-0.362215
O104	O	-0.448641	1.341233	-0.874871
C105	C	-0.341778	1.461315	-0.885602
C106	C	-0.404183	1.391268	-0.936923
H107	H	-0.305831	1.501800	-0.935750
H108	H	-0.289673	1.425789	-0.836472
H109	H	-0.383686	1.508258	-0.846587
H110	H	-0.362350	1.344306	-0.975991
H111	H	-0.456291	1.426854	-0.986000
H112	H	-0.406004	0.913411	-0.406173
O113	O	-0.437940	0.589933	-0.438039
C114	C	-0.375081	0.452003	-0.375562
C115	C	-0.445199	0.495815	-0.445422
H116	H	-0.380913	0.375901	-0.381519
H117	H	-0.387964	0.473736	-0.304748
H118	H	-0.304406	0.473946	-0.388742
H119	H	-0.515902	0.473893	-0.432326
H120	H	-0.432237	0.474083	-0.516213
