data_functionalizedCrystal
_audit_creation_method	'MofGen! by Chris Wilmer'
_symmetry_space_group_name_H-M	'P1'
_symmetry_Int_Tables_number	1
_symmetry_cell_setting	triclinic
loop_
_symmetry_equiv_pos_as_xyz
  x,y,z
_cell_length_a	16.625547
_cell_length_b	18.050590
_cell_length_c	16.625539
_cell_angle_alpha	89.966288
_cell_angle_beta	90.024822
_cell_angle_gamma	89.977571
loop_
_atom_site_label
_atom_site_type_symbol
_atom_site_fract_x
_atom_site_fract_y
_atom_site_fract_z
Zn1	Zn	1.232680	0.295659	0.455971
Zn2	Zn	1.732680	0.795659	0.955971
Zn3	Zn	1.232584	0.419857	0.321125
Zn4	Zn	1.732584	0.919857	0.821125
Zn5	Zn	1.097842	0.295685	0.321141
Zn6	Zn	1.597842	0.795685	0.821141
Zn7	Zn	1.097813	0.419812	0.455905
Zn8	Zn	1.597813	0.919812	0.955905
O9	O	1.165230	0.357753	0.388535
O10	O	1.665230	0.857753	0.888535
O11	O	1.345500	0.312142	0.438104
O12	O	1.845500	0.812142	0.938104
O13	O	1.214682	0.403415	0.208295
O14	O	1.714682	0.903415	0.708295
O15	O	1.115782	0.191757	0.339061
O16	O	1.615782	0.691757	0.839061
O17	O	1.345429	0.403390	0.339033
O18	O	1.845429	0.903390	0.839033
O19	O	1.214847	0.191738	0.438119
O20	O	1.714847	0.691738	0.938119
O21	O	1.115688	0.312186	0.208307
O22	O	1.615688	0.812186	0.708307
O23	O	0.985006	0.312143	0.338997
O24	O	1.485006	0.812143	0.838997
O25	O	1.115731	0.403313	0.568746
O26	O	1.615731	0.903313	1.068746
O27	O	0.984984	0.403338	0.438007
O28	O	1.484984	0.903338	0.938007
O29	O	1.214818	0.312099	0.568794
O30	O	1.714818	0.812099	1.068794
O31	O	1.214653	0.523776	0.338970
O32	O	1.714653	1.023776	0.838970
O33	O	1.115637	0.523742	0.437992
O34	O	1.615637	1.023742	0.937992
C35	C	0.955739	0.357739	0.388497
C36	C	1.455739	0.857739	0.888497
C37	C	0.866118	0.357751	0.388500
C38	C	1.366118	0.857751	0.888500
C39	C	0.793335	0.357752	0.388510
C40	C	1.293335	0.857752	0.888510
C41	C	0.702027	0.357756	0.388530
C42	C	1.202027	0.857756	0.888530
C43	C	0.629250	0.357763	0.388551
C44	C	1.129250	0.857763	0.888551
C45	C	0.537936	0.357768	0.388570
C46	C	1.037936	0.857768	0.888570
C47	C	1.165153	0.550705	0.388490
C48	C	1.665153	1.050705	0.888490
C49	C	1.165194	0.633251	0.388497
C50	C	1.665194	1.133251	0.888497
C51	C	1.219136	0.832693	0.334710
C52	C	1.719136	1.332693	0.834710
C53	C	1.238830	0.882024	0.408297
C54	C	1.738830	1.382024	0.908297
C55	C	1.165229	0.784382	0.388518
C56	C	1.665229	1.284382	0.888518
C57	C	1.145606	0.882132	0.314953
C58	C	1.645606	1.382132	0.814953
C59	C	1.165264	0.930367	0.388532
C60	C	1.665264	1.430367	0.888532
C61	C	1.184960	0.832625	0.462145
C62	C	1.684960	1.332625	0.962145
C63	C	1.091703	0.832730	0.368751
C64	C	1.591703	1.332730	0.868751
C65	C	1.111368	0.882038	0.442389
C66	C	1.611368	1.382038	0.942389
C67	C	1.165211	0.700283	0.388509
C68	C	1.665211	1.200283	0.888509
C69	C	1.165282	1.014463	0.388550
C70	C	1.665282	1.514463	0.888550
C71	C	1.375539	0.357768	0.388574
C72	C	1.875539	0.857768	0.888574
C73	C	1.465160	0.357775	0.388591
C74	C	1.965160	0.857775	0.888591
C75	C	1.165282	0.357698	0.598844
C76	C	1.665282	0.857698	1.098844
C77	C	1.165304	0.357674	0.688466
C78	C	1.665304	0.857674	1.188466
C79	C	1.165310	1.164048	0.388581
C80	C	1.665310	1.664048	0.888581
C81	C	1.165296	1.081502	0.388555
C82	C	1.665296	1.581502	0.888555
C83	C	1.165224	0.357755	0.179045
C84	C	1.665224	0.857755	0.679045
C85	C	1.165358	0.357569	0.089424
C86	C	1.665358	0.857569	0.589424
C87	C	1.165342	0.357591	1.016641
C88	C	1.665342	0.857591	1.516641
C89	C	1.165329	0.357617	0.925333
C90	C	1.665329	0.857617	1.425333
C91	C	1.165323	0.357633	0.852556
C92	C	1.665323	0.857633	1.352556
C93	C	1.165310	0.357658	0.761242
C94	C	1.665310	0.857658	1.261242
H95	H	1.264744	0.811026	0.289257
H96	H	1.764744	1.311026	0.789257
H97	H	1.128995	0.903878	0.252734
H98	H	1.628995	1.403878	0.752734
H99	H	1.301024	0.903679	0.425028
H100	H	1.801024	1.403679	0.925028
N101	N	1.051008	0.910558	0.502747
N102	N	1.551008	1.410558	1.002747
H103	H	1.051015	0.966509	0.502099
H104	H	1.551015	1.466509	1.002099
H105	H	0.995650	0.891777	0.488277
H106	H	1.495650	1.391777	0.988277
N107	N	1.009342	0.804020	0.346567
N108	N	1.509342	1.304020	0.846567
H109	H	0.994554	0.821997	0.290951
H110	H	1.494554	1.321997	0.790951
H111	H	1.009875	0.748074	0.347294
H112	H	1.509875	1.248074	0.847294
H113	H	1.201510	0.810972	0.524417
H114	H	1.701510	1.310972	1.024417
