data_functionalizedCrystal
_audit_creation_method	'MofGen! by Chris Wilmer'
_symmetry_space_group_name_H-M	'P1'
_symmetry_Int_Tables_number	1
_symmetry_cell_setting	triclinic
loop_
_symmetry_equiv_pos_as_xyz
  x,y,z
_cell_length_a	13.032831
_cell_length_b	14.908520
_cell_length_c	13.032268
_cell_angle_alpha	99.985811
_cell_angle_beta	90.886977
_cell_angle_gamma	86.522975
loop_
_atom_site_label
_atom_site_type_symbol
_atom_site_fract_x
_atom_site_fract_y
_atom_site_fract_z
Zn1	Zn	1.453341	-0.608125	-0.815711
Zn2	Zn	1.465124	-0.742288	-0.651425
Zn3	Zn	1.305991	-0.570509	-0.619794
Zn4	Zn	1.271734	-0.737420	-0.801271
O5	O	1.374048	-0.664586	-0.722050
O6	O	1.597505	-0.643703	-0.813198
O7	O	1.463283	-0.705796	-0.502526
O8	O	1.334942	-0.449498	-0.638589
O9	O	1.606162	-0.742272	-0.692498
O10	O	1.443199	-0.477135	-0.782527
O11	O	1.346369	-0.579590	-0.479287
O12	O	1.158846	-0.574869	-0.624587
O13	O	1.276556	-0.733974	-0.947889
O14	O	1.133677	-0.697498	-0.757917
O15	O	1.409982	-0.638982	-0.958498
O16	O	1.430066	-0.867643	-0.678496
O17	O	1.287983	-0.864066	-0.788588
C18	C	1.109287	-0.631574	-0.686253
C19	C	0.996016	-0.617476	-0.670965
C20	C	0.933097	-0.671944	-0.730029
C21	C	0.816026	-0.657374	-0.714229
C22	C	1.356610	-0.898531	-0.735434
C23	C	1.349239	-0.998628	-0.741207
C24	C	1.483459	-1.190413	-0.637541
C25	C	1.476537	-1.284464	-0.642962
C26	C	1.328478	-1.280784	-0.757475
C27	C	1.335400	-1.186733	-0.752054
C28	C	1.412892	-1.141551	-0.692084
C29	C	1.419809	-1.047497	-0.686657
C30	C	1.271756	-1.043820	-0.801176
C31	C	1.264834	-1.137870	-0.806597
C32	C	1.639842	-0.697726	-0.757987
C33	C	1.753108	-0.711849	-0.773302
C34	C	1.338133	-0.690131	-0.991762
C35	C	1.322829	-0.701017	-1.106698
C36	C	1.391578	-0.429732	-0.708640
C37	C	1.399048	-0.329652	-0.702926
C38	C	1.382022	-0.658870	-1.163188
C39	C	1.366205	-0.670120	-1.281980
C40	C	1.409886	-0.639082	-0.453391
C41	C	1.425406	-0.627967	-0.338469
H42	H	1.546550	-1.153623	-0.588703
H43	H	0.783226	-0.599948	-0.651965
O44	O	0.976546	-0.747984	-0.812527
H45	H	1.027816	-0.795342	-0.775293
H46	H	1.534001	-1.324244	-0.598550
O47	O	0.796537	-0.787912	-0.855791
H48	H	0.881673	-0.787424	-0.855257
H49	H	1.214293	-1.004024	-0.845585
H50	H	1.303808	-0.714528	-1.321556
O51	O	1.503393	-0.998758	-0.621994
H52	H	1.495483	-1.006991	-0.539509
H53	H	0.963212	-0.560054	-0.608705
O54	O	1.244892	-1.329519	-0.822141
H55	H	1.251933	-1.403125	-0.816736
O56	O	1.464670	-0.600047	-1.110769
H57	H	1.428990	-0.543926	-1.052769
H58	H	1.201744	-1.174671	-0.855426
O59	O	1.508059	-0.569136	-1.286063
H60	H	1.507521	-0.569537	-1.200985
H61	H	1.260436	-0.745422	-1.146277
