data_functionalizedCrystal
_audit_creation_method	'MofGen! by Chris Wilmer'
_symmetry_space_group_name_H-M	'P1'
_symmetry_Int_Tables_number	1
_symmetry_cell_setting	triclinic
loop_
_symmetry_equiv_pos_as_xyz
  x,y,z
_cell_length_a	12.827893
_cell_length_b	18.101397
_cell_length_c	12.827885
_cell_angle_alpha	89.963418
_cell_angle_beta	89.980538
_cell_angle_gamma	90.020626
loop_
_atom_site_label
_atom_site_type_symbol
_atom_site_fract_x
_atom_site_fract_y
_atom_site_fract_z
Zn1	Zn	1.597635	-0.294791	-0.590799
Zn2	Zn	1.597513	-0.418650	-0.416039
Zn3	Zn	1.422876	-0.294827	-0.416073
Zn4	Zn	1.422846	-0.418595	-0.590739
O5	O	1.510217	-0.356716	-0.503413
O6	O	1.743855	-0.311228	-0.567628
O7	O	1.574308	-0.402263	-0.269807
O8	O	1.446121	-0.191189	-0.439290
O9	O	1.743765	-0.402227	-0.439232
O10	O	1.574516	-0.191162	-0.567661
O11	O	1.446003	-0.311291	-0.269832
O12	O	1.276636	-0.311237	-0.439232
O13	O	1.446071	-0.402134	-0.736983
O14	O	1.276614	-0.402169	-0.567558
O15	O	1.574487	-0.311175	-0.737027
O16	O	1.574279	-0.522275	-0.439174
O17	O	1.445952	-0.522235	-0.567525
C18	C	1.238707	-0.356702	-0.503393
C19	C	1.122554	-0.356714	-0.503409
C20	C	1.070814	-0.311765	-0.567042
C21	C	0.950763	-0.311776	-0.567060
C22	C	1.510128	-0.549126	-0.503362
C23	C	1.510185	-0.631440	-0.503375
C24	C	1.510319	-0.930531	-0.503470
C25	C	1.590833	-0.899200	-0.422499
C26	C	1.591112	-0.813582	-0.422709
C27	C	1.510252	-0.782149	-0.503422
C28	C	1.540110	-0.813148	-0.613572
C29	C	1.540733	-0.898793	-0.613131
C30	C	1.399731	-0.899042	-0.475245
C31	C	1.400277	-0.813393	-0.472786
C32	C	1.510213	-0.698289	-0.503402
C33	C	1.510360	-1.014391	-0.503498
C34	C	1.782787	-0.356730	-0.503433
C35	C	1.898940	-0.356736	-0.503442
C36	C	1.510289	-0.356645	-0.775983
C37	C	1.510320	-0.356614	-0.892136
C38	C	1.510335	-0.163554	-0.503486
C39	C	1.510386	-0.081240	-0.503518
C40	C	1.446851	-0.311590	-0.943933
C41	C	1.446881	-0.311557	-1.063984
C42	C	1.510206	-0.356733	-0.231903
C43	C	1.510377	-0.356555	-0.115750
H44	H	1.572432	-0.792626	-0.341034
C45	C	1.464238	-0.785887	-0.696044
C46	C	1.389105	-0.740644	-0.649276
C47	C	1.319202	-0.715509	-0.725216
H48	H	1.430956	-0.826942	-0.727944
H49	H	1.501070	-0.758457	-0.747379
H50	H	1.352276	-0.768073	-0.597960
H51	H	1.422355	-0.699577	-0.617382
H52	H	1.356034	-0.688079	-0.776550
H53	H	1.285928	-0.756569	-0.757111
H54	H	1.268222	-0.684803	-0.693496
C55	C	1.582664	-0.408051	-1.056316
C56	C	1.523389	-0.455502	-0.993650
C57	C	1.589941	-0.502957	-0.938887
H58	H	1.628186	-0.379795	-1.013665
H59	H	1.622485	-0.436322	-1.104333
H60	H	1.483585	-0.427234	-0.945638
H61	H	1.477870	-0.483774	-1.036274
H62	H	1.629763	-0.531227	-0.986904
H63	H	1.635460	-0.474695	-0.896243
H64	H	1.549733	-0.535162	-0.896369
C65	C	1.374302	-0.260341	-0.884431
C66	C	1.307356	-0.302327	-0.821729
C67	C	1.240517	-0.255141	-0.766893
H68	H	1.334385	-0.232070	-0.932373
H69	H	1.414297	-0.228128	-0.841805
H70	H	1.267365	-0.334528	-0.864351
H71	H	1.347244	-0.330596	-0.773768
H72	H	1.280512	-0.222928	-0.724267
H73	H	1.200607	-0.226873	-0.814842
H74	H	1.195093	-0.283622	-0.724336
H75	H	1.392547	-0.273007	-1.108528
H76	H	1.077974	-0.395204	-0.448942
H77	H	1.377764	-0.793141	-0.391725
H78	H	1.115393	-0.273271	-0.621504
C79	C	1.466094	-0.926391	-0.696483
C80	C	1.498250	-0.900230	-0.794074
C81	C	1.429536	-0.925644	-0.870887
H82	H	1.397801	-0.908898	-0.682029
H83	H	1.465979	-0.978875	-0.696855
H84	H	1.498354	-0.847757	-0.793700
H85	H	1.566533	-0.917721	-0.808561
H86	H	1.429421	-0.978129	-0.871259
H87	H	1.361246	-0.908150	-0.856423
H88	H	1.451349	-0.907904	-0.937112
H89	H	1.572379	-0.919850	-0.340579
C90	C	0.891576	-0.260341	-0.639648
C91	C	0.918080	-0.187030	-0.617120
C92	C	0.863586	-0.139627	-0.683979
H93	H	0.818758	-0.267068	-0.630074
H94	H	0.909468	-0.271181	-0.709865
H95	H	0.900181	-0.176194	-0.546921
H96	H	0.990889	-0.180279	-0.626701
H97	H	0.881478	-0.150467	-0.754195
H98	H	0.790771	-0.146361	-0.674399
H99	H	0.881569	-0.089881	-0.668709
C100	C	0.958388	-0.408097	-0.430963
C101	C	1.021082	-0.455555	-0.490058
C102	C	1.075879	-0.502872	-0.423327
H103	H	0.910422	-0.436376	-0.391028
H104	H	1.001016	-0.379719	-0.385553
H105	H	0.978458	-0.483931	-0.535450
H106	H	1.069068	-0.427297	-0.529991
H107	H	1.118507	-0.474494	-0.377917
H108	H	1.027905	-0.531146	-0.383395
H109	H	1.118430	-0.535074	-0.463413
H110	H	1.672302	-0.920667	-0.440959
C111	C	1.700391	-0.786325	-0.447690
C112	C	1.766425	-0.846972	-0.462651
C113	C	1.867100	-0.821893	-0.485685
H114	H	1.725595	-0.757222	-0.391491
H115	H	1.698687	-0.757284	-0.509383
H116	H	1.768132	-0.876001	-0.400965
H117	H	1.741254	-0.876082	-0.518853
H118	H	1.865396	-0.792852	-0.547378
H119	H	1.892293	-0.792790	-0.429483
H120	H	1.911913	-0.863038	-0.495849
H121	H	1.564679	-0.395138	-0.936667
C122	C	1.319589	-0.925955	-0.553795
C123	C	1.221460	-0.897536	-0.527850
C124	C	1.147620	-0.922308	-0.600196
H125	H	1.317046	-0.978396	-0.552704
H126	H	1.338601	-0.909582	-0.621568
H127	H	1.202452	-0.913913	-0.460095
H128	H	1.223968	-0.845098	-0.528948
H129	H	1.166632	-0.905935	-0.667969
H130	H	1.145087	-0.974748	-0.599099
H131	H	1.081033	-0.903024	-0.582608
C132	C	1.648598	-0.925210	-0.644972
C133	C	1.712591	-0.864058	-0.664432
C134	C	1.811969	-0.888361	-0.693750
H135	H	1.643427	-0.954386	-0.706276
H136	H	1.677780	-0.953993	-0.590339
H137	H	1.683416	-0.835287	-0.719060
H138	H	1.717792	-0.834876	-0.603141
H139	H	1.841152	-0.917144	-0.639117
H140	H	1.806788	-0.917537	-0.755052
H141	H	1.855404	-0.846874	-0.706948
H142	H	1.620039	-0.791638	-0.637886
H143	H	1.372570	-0.920709	-0.396317
H144	H	1.337061	-0.792004	-0.527443
