data_functionalizedCrystal
_audit_creation_method	'MofGen! by Chris Wilmer'
_symmetry_space_group_name_H-M	'P1'
_symmetry_Int_Tables_number	1
_symmetry_cell_setting	triclinic
loop_
_symmetry_equiv_pos_as_xyz
  x,y,z
_cell_length_a	29.839131
_cell_length_b	19.077105
_cell_length_c	19.076919
_cell_angle_alpha	90.076224
_cell_angle_beta	87.728385
_cell_angle_gamma	92.261923
loop_
_atom_site_label
_atom_site_type_symbol
_atom_site_fract_x
_atom_site_fract_y
_atom_site_fract_z
Zn1	Zn	-0.217337	-1.058168	0.440417
Zn2	Zn	-0.289570	-1.062774	0.322910
Zn3	Zn	-0.211319	-0.945389	0.318210
Zn4	Zn	-0.289299	-0.940596	0.435662
O5	O	-0.251882	-1.001731	0.379300
O6	O	-0.229551	-1.157109	0.428786
O7	O	-0.276785	-1.051136	0.223955
O8	O	-0.149253	-0.960427	0.334444
O9	O	-0.282620	-1.160493	0.342454
O10	O	-0.153675	-1.043286	0.424229
O11	O	-0.219294	-0.964893	0.220502
O12	O	-0.219031	-0.846422	0.329834
O13	O	-0.282159	-0.952258	0.534624
O14	O	-0.276323	-0.842901	0.416125
O15	O	-0.229289	-1.038638	0.538117
O16	O	-0.352399	-1.046488	0.337844
O17	O	-0.352200	-0.956724	0.420682
C18	C	-0.368600	-1.001605	0.379273
C19	C	-0.418535	-1.001614	0.379288
C20	C	-0.246995	-0.819165	0.371954
C21	C	-0.244916	-0.741062	0.368828
C22	C	-0.256365	-0.994400	0.562580
C23	C	-0.258275	-0.991276	0.640683
C24	C	-0.775038	-0.955020	0.422432
C25	C	-0.587362	-0.954928	0.422406
O26	O	-0.563022	-0.915161	0.459070
N27	N	-0.563983	-1.001687	0.379312
C28	C	-0.587525	-1.048475	0.336224
O29	O	-0.563334	-1.088249	0.299574
C30	C	-0.775201	-1.048570	0.336254
C31	C	-0.798578	-1.001803	0.379346
C32	C	-0.798415	-0.908258	0.465521
C33	C	-0.845331	-0.908279	0.465525
C34	C	-0.868871	-0.955062	0.422438
C35	C	-0.845494	-1.001824	0.379349
C36	C	-0.798743	-1.095361	0.293170
C37	C	-0.845665	-1.095381	0.293183
C38	C	-0.869041	-1.048615	0.336275
C39	C	-0.915949	-1.048628	0.336266
N40	N	-0.939328	-1.001870	0.379361
C41	C	-0.915789	-0.955087	0.422447
C42	C	-0.488993	-1.048421	0.336210
C43	C	-0.442074	-1.048396	0.336202
C44	C	-0.441915	-0.954851	0.422385
C45	C	-0.488834	-0.954872	0.422390
C46	C	-0.512373	-1.001662	0.379305
C47	C	-1.014316	-0.955134	0.422450
C48	C	-1.061236	-0.955157	0.422447
C49	C	-1.061392	-1.048705	0.336266
C50	C	-1.014476	-1.048679	0.336266
C51	C	-0.990939	-1.001891	0.379364
O52	O	-0.940318	-1.088380	0.299628
O53	O	-0.939990	-0.915329	0.459103
C54	C	-0.728122	-0.955000	0.422429
C55	C	-0.704745	-1.001762	0.379340
C56	C	-0.728285	-1.048545	0.336253
C57	C	-0.657827	-1.001737	0.379331
C58	C	-0.634288	-0.954954	0.422417
C59	C	-0.657667	-0.908196	0.465512
C60	C	-0.704583	-0.908217	0.465515
C61	C	-0.704905	-1.095303	0.293159
C62	C	-0.657989	-1.095278	0.293158
C63	C	-0.634450	-1.048495	0.336245
C64	C	-0.134708	-1.001877	0.379343
C65	C	-0.084776	-1.001940	0.379361
C66	C	-0.256787	-1.185010	0.386674
C67	C	-0.258878	-1.263113	0.389817
C68	C	-0.273809	-0.702557	0.412217
C69	C	-0.271850	-0.629171	0.409283
C70	C	-0.240999	-0.594291	0.362957
C71	C	-0.212102	-0.632801	0.319567
C72	C	-0.214060	-0.706186	0.322505
C73	C	-0.231939	-0.375008	0.349365
C74	C	-0.229984	-0.301618	0.346429
C75	C	-0.289732	-0.297992	0.436146
C76	C	-0.291688	-0.371379	0.439076
C77	C	-0.262790	-0.409883	0.395689
N78	N	-0.238996	-0.519278	0.359956
N79	N	-0.264791	-0.484894	0.398694
C80	C	-0.247385	-1.009075	0.196734
C81	C	-0.245351	-1.012335	0.118637
C82	C	-0.231647	-1.034779	0.679196
C83	C	-0.233440	-1.031835	0.752581
C84	C	-0.261864	-0.985390	0.787453
C85	C	-0.288493	-0.941882	0.748935
C86	C	-0.286697	-0.944823	0.675551
C87	C	-0.270184	-0.971768	1.006734
C88	C	-0.271979	-0.968832	1.080124
C89	C	-0.216926	-1.058784	1.083765
C90	C	-0.215134	-1.061724	1.010379
C91	C	-0.241761	-1.018213	0.971868
N92	N	-0.263699	-0.982381	0.862465
N93	N	-0.239924	-1.021219	0.896857
H94	H	-1.080268	-0.917072	0.457540
H95	H	-0.204857	-0.273221	0.308709
F96	F	-0.324525	-0.408495	0.488381
F97	F	-0.318742	-0.892450	0.786050
F98	F	-0.205115	-1.078161	0.793567
F99	F	-0.179266	-0.595678	0.270268
H100	H	-0.208411	-0.406349	0.314030
F101	F	-0.302231	-0.919394	1.117236
F102	F	-0.306648	-0.739672	0.461520
H103	H	-0.723612	-0.870136	0.500606
F104	F	-0.320486	-0.257009	0.482317
F105	F	-0.184882	-1.111157	0.973272
H106	H	-0.195247	-1.094207	1.115129
F107	F	-0.298523	-0.925460	0.965757
H108	H	-0.779254	-0.870162	0.500611
F109	F	-0.183307	-0.747166	0.276326
F110	F	-0.201397	-1.084215	0.642089
H111	H	-0.308376	-0.909391	0.644194
H112	H	-0.507864	-0.916795	0.457483
H113	H	-0.864360	-0.870196	0.500614
F114	F	-0.989273	-0.905336	0.468319
H115	H	-0.422741	-0.916757	0.457467
H116	H	-0.423044	-1.086470	0.301104
H117	H	-0.508154	-1.086525	0.301122
H118	H	-0.779716	-1.133442	0.258081
H119	H	-1.080566	-1.086792	0.301184
F120	F	-0.870713	-1.145185	0.247326
F121	F	-0.632607	-0.858404	0.511365
F122	F	-0.989595	-1.098441	0.290390
H123	H	-0.724066	-1.133401	0.258073
F124	F	-0.302602	-0.588194	0.455463
F125	F	-0.633115	-1.145055	0.247288
