data_functionalizedCrystal
_audit_creation_method	'MofGen! by Chris Wilmer'
_symmetry_space_group_name_H-M	'P1'
_symmetry_Int_Tables_number	1
_symmetry_cell_setting	triclinic
loop_
_symmetry_equiv_pos_as_xyz
  x,y,z
_cell_length_a	15.995350
_cell_length_b	15.995362
_cell_length_c	15.072220
_cell_angle_alpha	89.994286
_cell_angle_beta	90.009616
_cell_angle_gamma	83.494877
loop_
_atom_site_label
_atom_site_type_symbol
_atom_site_fract_x
_atom_site_fract_y
_atom_site_fract_z
O1	O	-1.110977	-0.107935	0.073697
O2	O	-0.867202	-0.121263	0.073714
O3	O	-0.995748	0.007288	0.073711
O4	O	-0.982431	-0.236486	0.073699
O5	O	-0.995764	0.007310	-0.073854
O6	O	-0.867218	-0.121240	-0.073852
O7	O	-1.110993	-0.107913	-0.073869
Zn8	Zn	-0.989108	-0.114573	-0.097289
Zn9	Zn	-0.989087	-0.114603	0.097134
O10	O	-0.982447	-0.236463	-0.073866
C11	C	-0.995203	0.038494	-0.000068
C12	C	-0.993548	0.131444	-0.000058
C13	C	-0.836015	-0.120700	-0.000067
C14	C	-0.743065	-0.119049	-0.000060
C15	C	-0.987601	0.469189	-0.000040
C16	C	-0.896051	0.421755	0.000294
C17	C	-0.897707	0.325066	-0.000044
C18	C	-0.990550	0.301630	-0.000048
C19	C	-1.035715	0.342720	-0.084315
C20	C	-1.033410	0.439355	-0.084379
C21	C	-1.035283	0.439687	0.083430
C22	C	-1.035265	0.342743	0.084538
C23	C	-0.992222	0.206933	-0.000056
C24	C	-0.985931	0.563887	-0.000039
C25	C	-1.142180	-0.108475	-0.000086
C26	C	-1.235130	-0.110127	-0.000088
C27	C	-0.405317	-0.113116	-0.000078
C28	C	-0.452747	-0.021565	-0.000403
C29	C	-0.549437	-0.023217	-0.000064
C30	C	-0.572878	-0.116059	-0.000069
C31	C	-0.531783	-0.161228	0.084192
C32	C	-0.435147	-0.158928	0.084256
C33	C	-0.434827	-0.160794	-0.083553
C34	C	-0.531773	-0.160772	-0.084660
C35	C	-0.667575	-0.117727	-0.000062
C36	C	-0.310619	-0.111451	-0.000080
C37	C	-0.982980	0.732329	-0.000070
C38	C	-0.984603	0.639375	-0.000031
N39	N	-0.989072	-0.114617	0.229823
N40	N	-0.989129	-0.114552	-0.229978
C41	C	-0.989110	-0.114573	0.589025
C42	C	-0.920401	-0.183433	0.551419
C43	C	-0.920146	-0.183268	0.448593
C44	C	-0.989091	-0.114596	0.410820
C45	C	-0.970235	-0.027160	0.448133
C46	C	-0.969753	-0.027551	0.550991
C47	C	-1.076878	-0.132369	0.551102
C48	C	-1.076282	-0.134367	0.448239
C49	C	-0.989082	-0.114603	0.310107
C50	C	-0.989117	-0.114560	0.689738
H51	H	-0.862206	0.296635	0.060362
O52	O	-1.033525	0.042382	0.583944
H53	H	-1.064500	0.076384	0.526409
H54	H	-0.859451	0.440278	0.060726
H55	H	-0.577287	0.012509	0.060446
O56	O	-1.122440	0.482075	-0.089476
H57	H	-1.121463	0.551349	-0.089562
H58	H	-1.102970	0.327380	0.089622
O59	O	-1.034757	0.042361	0.415719
H60	H	-1.081058	0.015267	0.372564
H61	H	-0.859626	0.441359	-0.059793
H62	H	-0.416831	-0.126008	0.147248
O63	O	-0.886420	-0.005934	0.414034
H64	H	-0.858065	-0.057518	0.370524
H65	H	-0.547142	-0.228475	-0.089754
H66	H	-0.861980	0.297210	-0.060551
H67	H	-0.433145	0.014853	0.059694
O68	O	-0.989794	0.463620	-0.167806
H69	H	-0.970539	0.406358	-0.207723
O70	O	-0.392750	-0.250201	-0.084324
H71	H	-0.410031	-0.282966	-0.023224
O72	O	-0.833863	-0.168183	0.416006
H73	H	-0.833376	-0.168022	0.342366
O74	O	-0.428214	0.026927	-0.080441
H75	H	-0.485019	0.046569	-0.120939
O76	O	-0.884982	-0.006824	0.582803
H77	H	-0.835068	-0.054678	0.557368
H78	H	-1.102782	0.471448	0.083996
H79	H	-0.414298	-0.130854	-0.147421
O80	O	-0.934988	-0.269347	0.415175
H81	H	-0.884265	-0.316733	0.439886
O82	O	-0.392423	-0.247957	0.089335
H83	H	-0.440812	-0.292461	0.091741
O84	O	-0.550498	-0.251578	0.088354
H85	H	-0.589384	-0.265277	0.030273
H86	H	-0.577871	0.012287	-0.060466
O87	O	-0.991594	0.306571	0.167121
H88	H	-0.938266	0.259503	0.148013
O89	O	-0.935003	-0.269805	0.584166
H90	H	-0.991380	-0.264580	0.627605
O91	O	-0.569340	-0.119696	0.167269
H92	H	-0.617263	-0.066892	0.148759
H93	H	-1.103924	0.328595	-0.087452
H94	H	-1.095056	-0.194769	0.577055
H95	H	-0.559095	-0.127799	-0.146997
H96	H	-0.855632	-0.172203	0.577275
H97	H	-1.005342	0.460217	0.147301
H98	H	-1.004359	0.314348	-0.147024
H99	H	-1.090588	-0.198695	0.423867
H100	H	-1.129788	-0.087488	0.422524
H101	H	-1.128007	-0.082158	0.575424
