data_functionalizedCrystal
_audit_creation_method	'MofGen! by Chris Wilmer'
_symmetry_space_group_name_H-M	'P1'
_symmetry_Int_Tables_number	1
_symmetry_cell_setting	triclinic
loop_
_symmetry_equiv_pos_as_xyz
  x,y,z
_cell_length_a	10.654554
_cell_length_b	15.625429
_cell_length_c	9.130313
_cell_angle_alpha	71.921598
_cell_angle_beta	90.001106
_cell_angle_gamma	84.353638
loop_
_atom_site_label
_atom_site_type_symbol
_atom_site_fract_x
_atom_site_fract_y
_atom_site_fract_z
O1	O	1.666509	0.126638	-0.189003
O2	O	1.300906	0.138697	-0.195420
O3	O	1.493479	0.001494	-0.122544
O4	O	1.473936	0.263841	-0.261880
O5	O	1.493477	0.001497	0.121053
O6	O	1.300904	0.138701	0.048177
O7	O	1.666507	0.126641	0.054594
Cu8	Cu	1.483705	0.132671	0.073628
Cu9	Cu	1.483708	0.132667	-0.214454
O10	O	1.473934	0.263845	-0.018283
C11	C	1.254116	0.137813	-0.073153
C12	C	1.114701	0.135161	-0.071749
C13	C	0.903375	0.213456	-0.113319
C14	C	1.034371	0.215948	-0.114654
C15	C	1.064030	0.051876	-0.027521
C16	C	0.933036	0.049385	-0.026197
C17	C	0.823051	0.294248	-0.156212
C18	C	0.873713	0.377533	-0.200443
C19	C	1.004709	0.380025	-0.201778
C20	C	1.085042	0.299232	-0.158882
C21	C	1.492595	-0.032097	0.017093
C22	C	1.489947	-0.132192	0.070245
C23	C	1.481210	-0.461403	-0.418814
C24	C	1.478717	-0.555457	-0.368824
C25	C	1.478715	-0.555440	-0.103272
C26	C	1.481214	-0.461384	-0.153239
C27	C	1.482461	-0.414373	-0.311012
C28	C	1.482465	-0.414354	-0.045437
C29	C	1.484957	-0.320306	-0.095401
C30	C	1.486200	-0.273289	-0.253167
C31	C	1.484953	-0.320326	-0.360976
C32	C	1.481209	-0.461366	0.112335
C33	C	1.482460	-0.414336	0.220137
C34	C	1.484961	-0.320287	0.170173
C35	C	1.486204	-0.273270	0.012407
C36	C	1.486208	-0.273251	0.277982
C37	C	1.488701	-0.179203	0.228018
C38	C	1.488697	-0.179222	-0.037557
C39	C	1.713297	0.127526	-0.067677
C40	C	1.852712	0.130177	-0.069090
C41	C	1.474818	0.297435	-0.157923
C42	C	1.477466	0.397530	-0.211084
N43	N	1.483712	0.132674	0.276249
N44	N	1.483711	0.132657	-0.417071
C45	C	1.569005	0.071941	0.385159
C46	C	1.569002	0.071930	0.538502
C47	C	1.398408	0.193393	0.474006
C48	C	1.398407	0.193399	0.320669
C49	C	1.654311	0.011216	0.340740
C50	C	1.739612	-0.049521	0.449653
C51	C	1.739609	-0.049532	0.602995
C52	C	1.654304	0.011195	0.647425
H53	H	0.891786	-0.018427	0.009816
H54	H	1.482237	-0.423125	-0.547287
H55	H	1.654301	0.011175	0.772293
H56	H	1.045954	0.447839	-0.237806
Br57	Br	1.654327	0.011234	0.132631
Br58	Br	0.764695	0.487174	-0.258683
Br59	Br	1.282647	0.275803	0.534303
H60	H	1.129447	-0.013901	0.007404
H61	H	1.809056	-0.098992	0.691675
H62	H	0.716387	0.292228	-0.155124
Br63	Br	1.262823	0.302617	-0.160719
H64	H	1.489723	-0.140944	-0.166031
H65	H	1.809058	-0.098967	0.413472
H66	H	1.488216	-0.196708	-0.293846
Br67	Br	1.486670	-0.256518	-0.575098
H68	H	1.477687	-0.593745	-0.456622
H69	H	1.477695	-0.593728	0.025188
Br70	Br	1.477818	-0.589003	0.180145
H71	H	1.328952	0.242852	0.231990
Br72	Br	1.484485	-0.337059	0.492093
Br73	Br	1.490401	-0.115371	0.374320
H74	H	1.481440	-0.452625	0.348596
