data_functionalizedCrystal
_audit_creation_method	'MofGen! by Chris Wilmer'
_symmetry_space_group_name_H-M	'P1'
_symmetry_Int_Tables_number	1
_symmetry_cell_setting	triclinic
loop_
_symmetry_equiv_pos_as_xyz
  x,y,z
_cell_length_a	13.897449
_cell_length_b	21.395362
_cell_length_c	21.395355
_cell_angle_alpha	90.043940
_cell_angle_beta	89.993348
_cell_angle_gamma	89.981498
loop_
_atom_site_label
_atom_site_type_symbol
_atom_site_fract_x
_atom_site_fract_y
_atom_site_fract_z
Zn1	Zn	0.383718	0.957982	0.354637
Zn2	Zn	0.544997	0.957936	0.249882
Zn3	Zn	0.383763	0.853197	0.249839
Zn4	Zn	0.545017	0.853217	0.354586
O5	O	0.464374	0.905583	0.302236
O6	O	0.405085	1.045653	0.340781
O7	O	0.523620	0.944014	0.162198
O8	O	0.248775	0.867107	0.263744
O9	O	0.523576	1.045620	0.263817
O10	O	0.248742	0.944092	0.340739
O11	O	0.405161	0.867063	0.162166
O12	O	0.405180	0.765521	0.263694
O13	O	0.523610	0.867142	0.442271
O14	O	0.523653	0.765537	0.340652
O15	O	0.405104	0.944112	0.442308
O16	O	0.679981	0.944034	0.263767
O17	O	0.679996	0.867098	0.340694
C18	C	0.464425	0.742795	0.302163
C19	C	0.464470	0.673154	0.302147
C20	C	0.526240	0.640465	0.342159
C21	C	0.526217	0.575030	0.342187
C22	C	0.464433	0.542286	0.302192
C23	C	0.402650	0.574982	0.262177
C24	C	0.402669	0.640416	0.262155
C25	C	0.456662	0.438558	0.245785
C26	C	0.456650	0.373125	0.245807
C27	C	0.464370	0.340465	0.302261
C28	C	0.472121	0.373245	0.358695
C29	C	0.472140	0.438679	0.358673
C30	C	0.464405	0.471333	0.302212
C31	C	0.526118	0.236823	0.342306
C32	C	0.526088	0.171387	0.342335
C33	C	0.402526	0.171341	0.262320
C34	C	0.402551	0.236776	0.262297
C35	C	0.464352	0.269514	0.302289
C36	C	0.212781	0.905603	0.302242
C37	C	0.105567	0.905611	0.302245
C38	C	-0.090728	0.905630	0.302265
C39	C	0.018504	0.905621	0.302256
C40	C	0.714988	0.905580	0.302243
C41	C	0.822202	0.905636	0.302267
C42	C	0.464354	0.905635	0.465659
C43	C	0.464346	0.905657	0.535301
C44	C	0.464323	1.069006	0.302309
C45	C	0.464302	1.138647	0.302340
C46	C	0.464324	0.905567	0.139448
C47	C	0.464060	0.905666	0.069807
C48	C	0.402637	0.945734	0.568034
C49	C	0.402596	0.945733	0.633470
C50	C	0.464280	0.905662	0.666169
C51	C	0.525993	0.865577	0.633427
C52	C	0.526026	0.865575	0.567993
C53	C	0.551135	0.900714	0.769844
C54	C	0.551103	0.900720	0.835277
C55	C	0.464178	0.905666	0.867990
C56	C	0.377282	0.910617	0.835261
C57	C	0.377314	0.910615	0.769827
C58	C	0.464251	0.905660	0.737121
C59	C	0.402419	0.945743	0.971676
C60	C	0.402376	0.945738	1.037113
C61	C	0.525782	0.865586	1.037069
C62	C	0.525817	0.865588	0.971634
C63	C	0.464137	0.905670	0.938941
H64	H	0.352343	0.548318	0.229614
H65	H	0.352340	0.978366	0.660127
H66	H	0.352215	0.144681	0.229758
H67	H	0.576562	0.667116	0.374725
N68	N	0.589232	0.270280	0.383153
N69	N	0.650659	0.306748	0.361032
H70	H	0.695233	0.330377	0.389879
N71	N	0.448769	0.471929	0.188122
N72	N	0.379860	0.508457	0.179408
H73	H	0.374284	0.532027	0.138686
H74	H	0.352365	0.667031	0.229572
H75	H	0.352190	0.978377	0.945056
H76	H	0.576517	0.548409	0.374772
N77	N	0.288475	0.915673	0.868659
N78	N	0.236153	0.962637	0.861381
H79	H	0.173436	0.966210	0.884970
H80	H	0.306560	0.914645	0.743182
H81	H	0.352120	0.978372	1.063763
N82	N	0.588777	0.824652	1.070472
N83	N	0.588736	0.824656	1.128895
H84	H	0.633224	0.795743	1.152489
N85	N	0.589186	0.138003	0.383219
N86	N	0.644354	0.167244	0.418922
H87	H	0.688918	0.143667	0.447797
N88	N	0.339450	0.270161	0.221419
N89	N	0.284286	0.240921	0.185713
H90	H	0.239715	0.264498	0.156842
H91	H	0.576072	0.832957	0.944982
N92	N	0.589006	0.824640	0.666816
N93	N	0.644097	0.788856	0.637578
H94	H	0.688596	0.759938	0.661158
N95	N	0.639864	0.895622	0.868696
N96	N	0.717464	0.891167	0.839484
H97	H	0.780152	0.887548	0.863084
N98	N	0.339631	0.986680	0.534650
N99	N	0.284538	1.022461	0.563890
H100	H	0.240038	1.051381	0.540312
H101	H	0.450344	0.346441	0.199854
H102	H	0.621901	0.896519	0.743216
H103	H	0.576275	0.832937	0.541342
N104	N	0.480019	0.339908	0.416376
N105	N	0.552398	0.347237	0.450272
H106	H	0.557982	0.323694	0.491009
H107	H	0.478449	0.465367	0.404624
