data_functionalizedCrystal
_audit_creation_method	'MofGen! by Chris Wilmer'
_symmetry_space_group_name_H-M	'P1'
_symmetry_Int_Tables_number	1
_symmetry_cell_setting	triclinic
loop_
_symmetry_equiv_pos_as_xyz
  x,y,z
_cell_length_a	18.215407
_cell_length_b	16.959454
_cell_length_c	18.215398
_cell_angle_alpha	89.978830
_cell_angle_beta	89.980536
_cell_angle_gamma	90.020523
loop_
_atom_site_label
_atom_site_type_symbol
_atom_site_fract_x
_atom_site_fract_y
_atom_site_fract_z
Zn1	Zn	1.125094	-0.314700	-0.416138
Zn2	Zn	1.458427	0.018633	-0.082804
Zn3	Zn	1.791761	0.351967	0.250529
Zn4	Zn	1.125013	-0.446879	-0.293080
Zn5	Zn	1.458347	-0.113546	0.040253
Zn6	Zn	1.791680	0.219787	0.373586
Zn7	Zn	1.002027	-0.314720	-0.293085
Zn8	Zn	1.335361	0.018613	0.040248
Zn9	Zn	1.668694	0.351947	0.373582
Zn10	Zn	1.002003	-0.446841	-0.416105
Zn11	Zn	1.335336	-0.113508	-0.082772
Zn12	Zn	1.668669	0.219825	0.250561
O13	O	1.063534	-0.380785	-0.354602
O14	O	1.396868	-0.047452	-0.021269
O15	O	1.730201	0.285882	0.312065
O16	O	1.228067	-0.332241	-0.399825
O17	O	1.561401	0.001092	-0.066492
O18	O	1.894734	0.334425	0.266841
O19	O	1.108676	-0.429373	-0.190097
O20	O	1.442009	-0.096039	0.143237
O21	O	1.775342	0.237294	0.476570
O22	O	1.018396	-0.204106	-0.309424
O23	O	1.351730	0.129227	0.023910
O24	O	1.685063	0.462560	0.357243
O25	O	1.228008	-0.429353	-0.309416
O26	O	1.561342	-0.096020	0.023917
O27	O	1.894675	0.237313	0.357251
O28	O	1.108813	-0.204092	-0.399830
O29	O	1.442146	0.129242	-0.066496
O30	O	1.775479	0.462575	0.266837
O31	O	1.018318	-0.332276	-0.190100
O32	O	1.351652	0.001058	0.143233
O33	O	1.684985	0.334391	0.476567
O34	O	0.899040	-0.332239	-0.309392
O35	O	1.232373	0.001095	0.023941
O36	O	1.565706	0.334428	0.357274
O37	O	1.018354	-0.429288	-0.519094
O38	O	1.351688	-0.095955	-0.185761
O39	O	1.685021	0.237379	0.147573
O40	O	0.899022	-0.429308	-0.399775
O41	O	1.232355	-0.095974	-0.066442
O42	O	1.565688	0.237359	0.266892
O43	O	1.108789	-0.332204	-0.519118
O44	O	1.442122	0.001129	-0.185784
O45	O	1.775456	0.334462	0.147549
O46	O	1.108652	-0.557485	-0.309385
O47	O	1.441985	-0.224152	0.023949
O48	O	1.775318	0.109181	0.357282
O49	O	1.018276	-0.557457	-0.399770
O50	O	1.351610	-0.224124	-0.066437
O51	O	1.684943	0.109209	0.266896
C52	C	0.872328	-0.380772	-0.354581
C53	C	1.205661	-0.047438	-0.021248
C54	C	1.538995	0.285895	0.312086
C55	C	0.790529	-0.380785	-0.354589
C56	C	1.123862	-0.047452	-0.021256
C57	C	1.457196	0.285882	0.312077
C58	C	1.063473	-0.586151	-0.354590
C59	C	1.396806	-0.252818	-0.021256
C60	C	1.730139	0.080515	0.312077
C61	C	1.063514	-0.674008	-0.354609
C62	C	1.396847	-0.340675	-0.021276
C63	C	1.730180	-0.007341	0.312058
C64	C	0.602345	-0.431408	-0.401593
C65	C	0.935678	-0.098075	-0.068259
C66	C	1.269012	0.235258	0.265074
C67	C	0.525486	-0.431411	-0.401602
C68	C	0.858820	-0.098077	-0.068268
C69	C	1.192153	0.235256	0.265065
C70	C	0.525476	-0.330176	-0.307628
C71	C	0.858809	0.003157	0.025706
C72	C	1.192142	0.336490	0.359039
C73	C	0.602333	-0.330171	-0.307623
C74	C	0.935666	0.003163	0.025711
C75	C	1.269000	0.336496	0.359044
C76	C	0.640766	-0.380791	-0.354604
C77	C	0.974099	-0.047458	-0.021271
C78	C	1.307432	0.285876	0.312063
C79	C	0.487050	-0.380799	-0.354618
C80	C	0.820383	-0.047466	-0.021285
C81	C	1.153716	0.285867	0.312048
C82	C	0.403716	-0.380802	-0.354628
C83	C	0.737049	-0.047468	-0.021294
C84	C	1.070383	0.285865	0.312039
C85	C	0.724105	-0.380788	-0.354596
C86	C	1.057438	-0.047454	-0.021262
C87	C	1.390771	0.285879	0.312071
C88	C	1.016544	-1.045499	-0.401661
C89	C	1.349877	-0.712166	-0.068328
C90	C	1.683211	-0.378832	0.265006
C91	C	1.110729	-1.045468	-0.307618
C92	C	1.444063	-0.712135	0.025715
C93	C	1.777396	-0.378802	0.359048
C94	C	1.110704	-0.962922	-0.307611
C95	C	1.444037	-0.629589	0.025722
C96	C	1.777370	-0.296256	0.359055
C97	C	1.063597	-0.921661	-0.354629
C98	C	1.396930	-0.588328	-0.021296
C99	C	1.730263	-0.254994	0.312037
C100	C	1.016515	-0.962945	-0.401654
C101	C	1.349849	-0.629612	-0.068321
C102	C	1.683182	-0.296279	0.265013
C103	C	1.157779	-0.921632	-0.260582
C104	C	1.491112	-0.588298	0.072751
C105	C	1.824446	-0.254965	0.406084
C106	C	1.157755	-0.839081	-0.260573
C107	C	1.491088	-0.505747	0.072760
C108	C	1.824421	-0.172414	0.406094
C109	C	1.110651	-0.797818	-0.307595
C110	C	1.443984	-0.464485	0.025738
C111	C	1.777317	-0.131151	0.359071
C112	C	1.063568	-0.839107	-0.354622
C113	C	1.396901	-0.505774	-0.021289
C114	C	1.730235	-0.172441	0.312044
C115	C	1.016461	-0.797846	-0.401640
C116	C	1.349794	-0.464513	-0.068307
C117	C	1.683128	-0.131179	0.265026
C118	C	0.969381	-0.839134	-0.448672
C119	C	1.302715	-0.505801	-0.115339
C120	C	1.636048	-0.172467	0.217995
C121	C	0.969411	-0.921683	-0.448676
C122	C	1.302745	-0.588349	-0.115343
C123	C	1.636078	-0.255016	0.217990
C124	C	1.110621	-0.715269	-0.307591
C125	C	1.443954	-0.381936	0.025742
C126	C	1.777287	-0.048603	0.359076
C127	C	1.016432	-0.715292	-0.401634
C128	C	1.349766	-0.381959	-0.068300
C129	C	1.683099	-0.048626	0.265033
C130	C	1.255487	-0.380799	-0.354624
C131	C	1.588821	-0.047466	-0.021290
C132	C	1.922154	0.285867	0.312043
C133	C	1.337286	-0.380805	-0.354633
C134	C	1.670619	-0.047472	-0.021300
C135	C	2.003953	0.285861	0.312034
C136	C	1.063578	-0.380740	-0.546555
C137	C	1.396911	-0.047406	-0.213222
C138	C	1.730245	0.285927	0.120112
C139	C	1.063596	-0.380720	-0.628354
C140	C	1.396930	-0.047387	-0.295021
C141	C	1.730263	0.285946	0.038313
C142	C	1.063616	-0.174617	-0.354631
C143	C	1.396950	0.158716	-0.021297
C144	C	1.730283	0.492050	0.312036
C145	C	1.063651	-0.086760	-0.354643
C146	C	1.396984	0.246573	-0.021310
C147	C	1.730318	0.579906	0.312024
C148	C	1.110679	-0.431181	-0.893414
C149	C	1.444012	-0.097848	-0.560081
C150	C	1.777346	0.235485	-0.226748
C151	C	1.110668	-0.431209	-0.816556
C152	C	1.444001	-0.097875	-0.483222
C153	C	1.777335	0.235458	-0.149889
C154	C	1.016569	-0.330107	-0.816542
C155	C	1.349903	0.003226	-0.483209
C156	C	1.683236	0.336560	-0.149876
C157	C	1.016577	-0.330084	-0.893400
C158	C	1.349911	0.003249	-0.560066
C159	C	1.683244	0.336583	-0.226733
C160	C	1.063636	-0.380620	-0.931834
C161	C	1.396970	-0.047287	-0.598500
C162	C	1.730303	0.286047	-0.265167
C163	C	1.063617	-0.380670	-0.778118
C164	C	1.396951	-0.047337	-0.444784
C165	C	1.730284	0.285996	-0.111451
C166	C	1.063605	-0.380700	-0.694784
C167	C	1.396938	-0.047366	-0.361451
C168	C	1.730271	0.285967	-0.028117
C169	C	1.063648	-0.380592	-1.015173
C170	C	1.396982	-0.047259	-0.681839
C171	C	1.730315	0.286075	-0.348506
C172	C	1.063533	-0.380773	-0.163396
C173	C	1.396867	-0.047440	0.169937
C174	C	1.730200	0.285893	0.503271
C175	C	1.063657	-0.380570	-0.081597
C176	C	1.396991	-0.047237	0.251736
C177	C	1.730324	0.286097	0.585069
H178	H	0.633635	-0.472625	-0.439850
H179	H	0.966968	-0.139291	-0.106516
H180	H	1.300301	0.194042	0.226817
C181	C	1.162438	-0.486772	-0.935690
C182	C	1.495771	-0.153439	-0.602356
C183	C	1.829105	0.179895	-0.269023
H184	H	1.190449	-0.516892	-0.901798
H185	H	1.523782	-0.183559	-0.568464
H186	H	1.857115	0.149774	-0.235131
H187	H	1.194517	-0.456528	-0.965681
H188	H	1.527851	-0.123194	-0.632348
H189	H	1.861184	0.210139	-0.299015
H190	H	1.134274	-0.521206	-0.965662
H191	H	1.467607	-0.187873	-0.632328
H192	H	1.800941	0.145460	-0.298995
C193	C	0.483227	-0.487088	-0.453291
C194	C	0.816560	-0.153755	-0.119957
C195	C	1.149893	0.179579	0.213376
H196	H	0.517126	-0.517235	-0.481266
H197	H	0.850459	-0.183901	-0.147932
H198	H	1.183793	0.149432	0.185401
H199	H	0.453269	-0.456897	-0.485406
H200	H	0.786602	-0.123563	-0.152072
H201	H	1.119935	0.209770	0.181261
H202	H	0.453222	-0.521494	-0.425086
H203	H	0.786555	-0.188161	-0.091753
H204	H	1.119889	0.145172	0.241580
C205	C	0.964818	-0.274477	-0.935667
C206	C	1.298152	0.058856	-0.602334
C207	C	1.631485	0.392189	-0.269001
H208	H	0.971555	-0.281713	-0.986945
H209	H	1.304888	0.051621	-0.653612
H210	H	1.638222	0.384954	-0.320278
H211	H	0.975592	-0.221367	-0.923088
H212	H	1.308925	0.111966	-0.589754
H213	H	1.642258	0.445299	-0.256421
H214	H	0.915368	-0.286066	-0.923054
H215	H	1.248701	0.047267	-0.589720
H216	H	1.582034	0.380600	-0.256387
H217	H	1.148949	-0.681656	-0.269295
H218	H	1.482282	-0.348323	0.064038
H219	H	1.815615	-0.014990	0.397372
C220	C	0.483197	-0.274508	-0.255945
C221	C	0.816531	0.058826	0.077389
C222	C	1.149864	0.392159	0.410722
H223	H	0.431921	-0.281766	-0.262670
H224	H	0.765254	0.051567	0.070663
H225	H	1.098587	0.384901	0.403996
H226	H	0.495809	-0.221412	-0.266792
H227	H	0.829142	0.111922	0.066542
H228	H	1.162475	0.445255	0.399875
H229	H	0.495773	-0.286015	-0.206478
H230	H	0.829106	0.047318	0.126855
H231	H	1.162439	0.380652	0.460189
H232	H	0.633616	-0.288947	-0.269359
H233	H	0.966949	0.044386	0.063974
H234	H	1.300282	0.377720	0.397308
H235	H	1.196090	-0.805469	-0.222279
H236	H	1.529423	-0.472136	0.111055
H237	H	1.862756	-0.138802	0.444388
H238	H	1.149078	-1.079068	-0.269334
H239	H	1.482411	-0.745735	0.063999
H240	H	1.815744	-0.412401	0.397333
H241	H	1.196126	-0.955233	-0.222297
H242	H	1.529459	-0.621899	0.111036
H243	H	1.862792	-0.288566	0.444369
H244	H	0.978074	-0.681702	-0.439924
H245	H	1.311408	-0.348369	-0.106591
H246	H	1.644741	-0.015036	0.226742
C247	C	0.917567	-0.793741	-0.500389
C248	C	1.250901	-0.460408	-0.167056
C249	C	1.584234	-0.127075	0.166278
H250	H	0.924298	-0.738666	-0.493647
H251	H	1.257631	-0.405333	-0.160314
H252	H	1.590965	-0.071999	0.173019
H253	H	0.868130	-0.807313	-0.489580
H254	H	1.201464	-0.473980	-0.156247
H255	H	1.534797	-0.140646	0.177087
H256	H	0.928321	-0.807230	-0.549851
H257	H	1.261654	-0.473897	-0.216517
H258	H	1.594988	-0.140563	0.116816
H259	H	1.148975	-0.472381	-0.785278
H260	H	1.482308	-0.139047	-0.451945
H261	H	1.815642	0.194286	-0.118611
H262	H	0.978256	-0.288961	-0.785240
H263	H	1.311590	0.044372	-0.451907
H264	H	1.644923	0.377705	-0.118573
C265	C	0.917626	-0.967096	-0.500404
C266	C	1.250960	-0.633763	-0.167070
C267	C	1.584293	-0.300430	0.166263
H268	H	0.889571	-0.930702	-0.528411
H269	H	1.222905	-0.597369	-0.195078
H270	H	1.556238	-0.264035	0.138256
H271	H	0.885589	-0.999337	-0.472224
H272	H	1.218922	-0.666004	-0.138891
H273	H	1.552256	-0.332671	0.194442
H274	H	0.945776	-0.999261	-0.532498
H275	H	1.279110	-0.665928	-0.199165
H276	H	1.612443	-0.332594	0.134168
C277	C	0.964758	-1.090910	-0.453389
C278	C	1.298092	-0.757577	-0.120056
C279	C	1.631425	-0.424244	0.213277
H280	H	0.971517	-1.145984	-0.446660
H281	H	1.304850	-0.812650	-0.113326
H282	H	1.638183	-0.479317	0.220007
H283	H	0.975493	-1.077346	-0.502844
H284	H	1.308826	-0.744012	-0.169511
H285	H	1.642159	-0.410679	0.163822
H286	H	0.915311	-1.077426	-0.442565
H287	H	1.248644	-0.744093	-0.109231
H288	H	1.581978	-0.410760	0.224102
