data_functionalizedCrystal
_audit_creation_method	'MofGen! by Chris Wilmer'
_symmetry_space_group_name_H-M	'P1'
_symmetry_Int_Tables_number	1
_symmetry_cell_setting	triclinic
loop_
_symmetry_equiv_pos_as_xyz
  x,y,z
_cell_length_a	23.532407
_cell_length_b	15.944551
_cell_length_c	14.421503
_cell_angle_alpha	90.003141
_cell_angle_beta	89.999621
_cell_angle_gamma	96.826292
loop_
_atom_site_label
_atom_site_type_symbol
_atom_site_fract_x
_atom_site_fract_y
_atom_site_fract_z
O1	O	0.073442	-1.113910	-0.077025
O2	O	0.573442	-0.613910	0.422975
O3	O	0.082498	-0.869284	-0.077049
O4	O	0.582498	-0.369284	0.422951
O5	O	-0.004933	-0.998974	-0.077019
O6	O	0.495067	-0.498974	0.422981
O7	O	0.160873	-0.984221	-0.077055
O8	O	0.660873	-0.484221	0.422945
O9	O	-0.004920	-0.998953	0.077204
O10	O	0.495080	-0.498953	0.577204
O11	O	0.082511	-0.869263	0.077174
O12	O	0.582511	-0.369263	0.577174
O13	O	0.073455	-1.113889	0.077199
O14	O	0.573455	-0.613889	0.577199
Cu15	Cu	0.077984	-0.991574	0.091268
Cu16	Cu	0.577984	-0.491574	0.591268
Cu17	Cu	0.077969	-0.991599	-0.091119
Cu18	Cu	0.577969	-0.491599	0.408881
O19	O	0.160886	-0.984199	0.077169
O20	O	0.660886	-0.484199	0.577169
C21	C	0.082128	-0.837983	0.000060
C22	C	0.582128	-0.337983	0.500060
C23	C	0.081001	-0.744746	0.000051
C24	C	0.581001	-0.244746	0.500051
C25	C	-0.026144	-0.998588	0.000095
C26	C	0.473856	-0.498588	0.500095
C27	C	-0.089366	-0.997458	0.000102
C28	C	0.410634	-0.497458	0.500102
N29	N	0.077994	-0.991562	0.219550
N30	N	0.577994	-0.491562	0.719550
C31	C	-0.488199	-1.067121	0.000058
C32	C	0.011801	-0.567121	0.500058
C33	C	-0.547603	-1.066072	0.000051
C34	C	-0.047603	-0.566072	0.500051
O35	O	-0.584098	-1.130650	0.000023
O36	O	-0.084098	-0.630650	0.500023
N37	N	-0.570528	-0.988971	0.000044
N38	N	-0.070528	-0.488971	0.500044
C39	C	-0.534045	-0.912915	0.000035
C40	C	-0.034045	-0.412915	0.500035
O41	O	-0.558999	-0.847239	0.000027
O42	O	-0.058999	-0.347239	0.500027
C43	C	-0.474642	-0.913965	0.000035
C44	C	0.025358	-0.413965	0.500035
C45	C	-0.451721	-0.991071	0.000052
C46	C	0.048279	-0.491071	0.500052
C47	C	-0.465277	-1.144220	0.000073
C48	C	0.034723	-0.644220	0.500073
C49	C	-0.405877	-1.145269	0.000082
C50	C	0.094123	-0.645269	0.500082
C51	C	-0.369399	-1.069219	0.000076
C52	C	0.130601	-0.569219	0.500076
C53	C	-0.392320	-0.992120	0.000060
C54	C	0.107680	-0.492120	0.500060
C55	C	-0.438160	-0.837910	0.000019
C56	C	0.061840	-0.337910	0.500019
C57	C	-0.378754	-0.838967	0.000019
C58	C	0.121246	-0.338967	0.500019
C59	C	-0.355832	-0.916072	0.000035
C60	C	0.144168	-0.416072	0.500035
C61	C	-0.296442	-0.917118	0.000063
C62	C	0.203558	-0.417118	0.500063
N63	N	-0.273517	-0.994219	0.000070
N64	N	0.226483	-0.494219	0.500070
C65	C	-0.309995	-1.070269	0.000076
C66	C	0.190005	-0.570269	0.500076
C67	C	-0.658796	-0.910716	0.000032
C68	C	-0.158796	-0.410716	0.500032
C69	C	-0.718198	-0.909664	0.000038
C70	C	-0.218198	-0.409664	0.500038
C71	C	-0.731752	-1.062821	0.000053
C72	C	-0.231752	-0.562821	0.500053
C73	C	-0.672349	-1.063872	0.000053
C74	C	-0.172349	-0.563872	0.500053
C75	C	-0.635871	-0.987816	0.000039
C76	C	-0.135871	-0.487816	0.500039
C77	C	-0.185250	-1.072466	0.000096
C78	C	0.314750	-0.572466	0.500096
C79	C	-0.125844	-1.073508	0.000108
C80	C	0.374156	-0.573508	0.500108
C81	C	-0.112295	-0.920352	0.000089
C82	C	0.387705	-0.420352	0.500089
C83	C	-0.171696	-0.919309	0.000081
C84	C	0.328304	-0.419309	0.500081
C85	C	-0.208173	-0.995373	0.000081
C86	C	0.291827	-0.495373	0.500081
O87	O	-0.259913	-0.852574	0.000087
O88	O	0.240087	-0.352574	0.500087
O89	O	-0.285033	-1.135935	0.000072
O90	O	0.214967	-0.635935	0.500072
C91	C	0.182097	-0.984586	0.000053
C92	C	0.682097	-0.484586	0.500053
C93	C	0.245318	-0.985715	0.000040
C94	C	0.745318	-0.485715	0.500040
C95	C	0.073824	-1.145190	0.000088
C96	C	0.573824	-0.645190	0.500088
C97	C	0.074951	-1.238427	0.000090
C98	C	0.574951	-0.738427	0.500090
C99	C	0.024113	-0.530369	0.000081
C100	C	0.524113	-0.030369	0.500081
C101	C	0.050524	-0.469137	-0.075964
C102	C	0.550524	0.030863	0.424036
C103	C	0.078962	-0.574038	0.000063
C104	C	0.578962	-0.074038	0.500063
C105	C	0.050550	-0.469138	0.076088
C106	C	0.550550	0.030862	0.576088
C107	C	0.076989	-0.409142	0.000078
C108	C	0.576989	0.090858	0.500078
C109	C	0.105388	-0.514034	-0.076046
C110	C	0.605388	-0.014034	0.423954
C111	C	0.105406	-0.514041	0.076075
C112	C	0.605406	-0.014041	0.576075
C113	C	0.131856	-0.452826	0.000010
C114	C	0.631856	0.047174	0.500010
C115	C	0.080097	-0.669030	0.000053
C116	C	0.580097	-0.169030	0.500053
C117	C	0.075858	-0.314150	0.000081
C118	C	0.575858	0.185850	0.500081
N119	N	0.077954	-0.991618	-0.219400
N120	N	0.577954	-0.491618	0.280600
C121	C	0.118404	-0.931583	0.469190
C122	C	0.618404	-0.431583	0.969190
C123	C	0.129461	-1.007390	0.530997
C124	C	0.629461	-0.507390	1.030997
C125	C	0.077981	-0.991583	0.408711
C126	C	0.577981	-0.491583	0.908711
C127	C	0.066938	-0.915795	0.530998
C128	C	0.566938	-0.415795	1.030998
C129	C	0.077969	-0.991596	0.591433
C130	C	0.577969	-0.491596	1.091433
C131	C	0.089063	-1.067428	0.469158
C132	C	0.589063	-0.567428	0.969158
C133	C	0.026517	-0.975783	0.469153
C134	C	0.526517	-0.475783	0.969153
C135	C	0.037552	-1.051645	0.530932
C136	C	0.537552	-0.551645	1.030932
C137	C	0.077989	-0.991574	0.303450
C138	C	0.577989	-0.491574	0.803450
C139	C	0.077960	-0.991613	0.696691
C140	C	0.577960	-0.491613	1.196691
H141	H	-0.107185	-1.136300	0.000124
H142	H	0.392815	-0.636300	0.500124
O143	O	0.101501	-1.152352	0.433341
O144	O	0.601501	-0.652352	0.933341
H145	H	0.101431	-1.151669	0.356381
H146	H	0.601431	-0.651669	0.856381
O147	O	0.187093	-1.025125	0.567007
O148	O	0.687093	-0.525125	1.067007
H149	H	0.186411	-1.025574	0.643962
H150	H	0.686411	-0.525574	1.143962
H151	H	0.027320	-0.449231	-0.140246
H152	H	0.527320	0.050769	0.359754
H153	H	0.027346	-0.449238	0.140377
H154	H	0.527346	0.050762	0.640377
H155	H	-0.456812	-0.775123	0.000000
H156	H	0.043188	-0.275123	0.500000
H157	H	0.128591	-0.533968	0.140359
H158	H	0.628591	-0.033968	0.640359
O159	O	-0.504615	-1.226255	0.000095
O160	O	-0.004615	-0.726255	0.500095
H161	H	-0.496459	-1.263195	-0.062750
H162	H	0.003541	-0.763195	0.437250
O163	O	-0.381162	-1.228437	0.000091
O164	O	0.118838	-0.728437	0.500091
H165	H	-0.333726	-1.216404	0.000099
H166	H	0.166274	-0.716404	0.500099
H167	H	0.177423	-0.419284	-0.000042
H168	H	0.677423	0.080716	0.499958
H169	H	0.057603	-0.851698	0.558164
H170	H	0.557603	-0.351698	1.058164
O171	O	-0.007737	-1.118928	0.566637
O172	O	0.492263	-0.618928	1.066637
H173	H	0.001564	-1.181741	0.541738
H174	H	0.501564	-0.681741	1.041738
H175	H	0.152617	-0.880895	0.442080
H176	H	0.652617	-0.380895	0.942080
H177	H	-0.653691	-1.126658	0.000066
H178	H	-0.153691	-0.626658	0.500066
H179	H	-0.349056	-0.777032	0.000006
H180	H	0.150944	-0.277032	0.500006
O181	O	-0.031105	-0.958040	0.433129
O182	O	0.468895	-0.458040	0.933129
H183	H	-0.040170	-0.895057	0.457850
H184	H	0.459830	-0.395057	0.957850
H185	H	-0.761464	-1.124746	0.000054
H186	H	-0.261464	-0.624746	0.500054
O187	O	-0.619452	-0.828680	0.000041
O188	O	-0.119452	-0.328680	0.500041
H189	H	-0.645378	-0.774897	0.000048
H190	H	-0.145378	-0.274897	0.500048
H191	H	-0.214943	-1.134405	0.000092
H192	H	0.285057	-0.634405	0.500092
H193	H	-0.736855	-0.846878	0.000041
H194	H	-0.236855	-0.346878	0.500041
O195	O	-0.196425	-0.836149	0.000067
O196	O	0.303575	-0.336149	0.500067
H197	H	-0.161076	-0.783444	0.000059
H198	H	0.338924	-0.283444	0.500059
O199	O	-0.072946	-0.838327	0.000081
O200	O	0.427054	-0.338327	0.500081
H201	H	-0.027790	-0.852018	0.000079
H202	H	0.472210	-0.352018	0.500079
H203	H	0.128563	-0.533835	-0.140407
H204	H	0.628563	-0.033835	0.359593
H205	H	-0.021407	-0.564086	-0.000003
H206	H	0.478593	-0.064086	0.499997
