data_functionalizedCrystal
_audit_creation_method	'MofGen! by Chris Wilmer'
_symmetry_space_group_name_H-M	'P1'
_symmetry_Int_Tables_number	1
_symmetry_cell_setting	triclinic
loop_
_symmetry_equiv_pos_as_xyz
  x,y,z
_cell_length_a	16.109317
_cell_length_b	9.565339
_cell_length_c	16.109301
_cell_angle_alpha	90.001191
_cell_angle_beta	96.535152
_cell_angle_gamma	90.001038
loop_
_atom_site_label
_atom_site_type_symbol
_atom_site_fract_x
_atom_site_fract_y
_atom_site_fract_z
O1	O	-1.103123	0.116115	0.106926
O2	O	-0.861063	0.116151	0.120211
O3	O	-0.988742	0.116118	-0.007462
O4	O	-0.975443	0.116149	0.234600
O5	O	-0.988732	-0.116402	-0.007454
O6	O	-0.861053	-0.116369	0.120219
O7	O	-1.103113	-0.116405	0.106934
Zn8	Zn	-0.982081	-0.153304	0.113578
Zn9	Zn	-0.982094	0.153051	0.113568
O10	O	-0.975433	-0.116371	0.234607
C11	C	-0.830083	-0.000104	0.119675
C12	C	-0.737788	-0.000091	0.118054
N13	N	-0.982078	-0.362384	0.113585
C14	C	-0.438720	0.126639	0.112816
C15	C	-0.525441	0.126646	0.114333
C16	C	-0.525449	-0.126861	0.114330
C17	C	-0.438730	-0.126865	0.112807
C18	C	-0.395367	-0.000111	0.112054
C19	C	-0.568808	-0.000100	0.115095
C20	C	-0.662835	-0.000094	0.116740
C21	C	-0.301335	-0.000116	0.110408
C22	C	-0.923013	-0.453571	0.172610
C23	C	-0.998138	-0.546759	0.188726
C24	C	-0.906985	-0.546751	0.097474
C25	C	-1.057241	-0.453520	0.129739
C26	C	-0.966039	-0.453504	0.038454
C27	C	-1.041219	-0.546649	0.054539
C28	C	-0.134092	-0.000139	0.107472
C29	C	-0.226387	-0.000120	0.109095
C30	C	-0.988199	-0.000142	-0.038433
C31	C	-0.986584	-0.000144	-0.130728
N32	N	-0.982104	0.362130	0.113554
C33	C	-1.058591	-0.000133	-0.352996
C34	C	-1.057067	-0.000121	-0.439717
C35	C	-0.905579	-0.000104	-0.419851
C36	C	-0.907104	-0.000106	-0.333132
C37	C	-0.983612	-0.000127	-0.299707
C38	C	-0.980563	-0.000114	-0.473147
C39	C	-0.978910	-0.000101	-0.567173
C40	C	-0.985266	-0.000137	-0.205675
C41	C	-0.975977	-0.000108	0.265578
C42	C	-0.977592	-0.000097	0.357874
H43	H	-0.403417	0.229851	0.112202
C44	C	-1.139543	-0.000136	-0.498331
H45	H	-1.185323	-0.000159	-0.466001
H46	H	-1.142104	0.080949	-0.532572
H47	H	-1.142092	-0.081231	-0.532573
H48	H	-0.560736	0.229859	0.114952
H49	H	-0.952432	-0.412509	-0.025048
H50	H	-0.560766	-0.230059	0.114945
H51	H	-0.843470	-0.587708	0.083862
C52	C	-0.391039	-0.266298	0.111972
H53	H	-0.429281	-0.341787	0.112651
H54	H	-0.363562	-0.271569	0.062925
H55	H	-0.350857	-0.271562	0.159839
C56	C	-0.821427	-0.000100	-0.456622
H57	H	-0.831256	-0.000115	-0.515901
H58	H	-0.790554	0.080985	-0.438330
H59	H	-0.790559	-0.081195	-0.438328
C60	C	-1.108780	-0.601529	-0.012911
H61	H	-1.162075	-0.569432	-0.001337
H62	H	-1.097831	-0.568186	-0.066134
H63	H	-1.108124	-0.700840	-0.012857
H64	H	-1.120770	-0.412739	0.143428
H65	H	-0.846044	-0.000097	-0.289742
C66	C	-0.855602	-0.398341	0.240098
H67	H	-0.867149	-0.430273	0.293436
H68	H	-0.802354	-0.431630	0.229190
H69	H	-0.855730	-0.299033	0.239313
H70	H	-1.011721	-0.587721	0.252249
C71	C	-1.142746	-0.000141	-0.316231
H72	H	-1.187181	-0.000129	-0.360391
H73	H	-1.146491	-0.081225	-0.282816
H74	H	-1.146489	0.080955	-0.282815
