data_functionalizedCrystal
_audit_creation_method	'MofGen! by Chris Wilmer'
_symmetry_space_group_name_H-M	'P1'
_symmetry_Int_Tables_number	1
_symmetry_cell_setting	triclinic
loop_
_symmetry_equiv_pos_as_xyz
  x,y,z
_cell_length_a	10.540539
_cell_length_b	11.792241
_cell_length_c	10.268362
_cell_angle_alpha	90.001488
_cell_angle_beta	90.002580
_cell_angle_gamma	84.359454
loop_
_atom_site_label
_atom_site_type_symbol
_atom_site_fract_x
_atom_site_fract_y
_atom_site_fract_z
O1	O	1.685367	0.159950	0.108239
O2	O	2.185367	0.659950	0.608239
O3	O	1.315905	0.175021	0.108256
O4	O	1.815905	0.675021	0.608256
O5	O	1.509602	0.002339	0.108238
O6	O	2.009602	0.502339	0.608238
O7	O	1.491670	0.332633	0.108257
O8	O	1.991670	0.832633	0.608257
O9	O	1.509583	0.002344	-0.108363
O10	O	2.009583	0.502344	0.391637
O11	O	1.315886	0.175027	-0.108345
O12	O	1.815886	0.675027	0.391655
O13	O	1.685349	0.159956	-0.108361
O14	O	2.185349	0.659956	0.391639
Cu15	Cu	1.500616	0.167492	-0.128130
Cu16	Cu	2.000616	0.667492	0.371870
Cu17	Cu	1.500638	0.167485	0.128025
Cu18	Cu	2.000638	0.667485	0.628025
O19	O	1.491652	0.332639	-0.108344
O20	O	1.991652	0.832639	0.391656
C21	C	1.268596	0.173894	-0.000043
C22	C	1.768596	0.673894	0.499957
C23	C	1.127659	0.170513	-0.000037
C24	C	1.627659	0.670513	0.499963
C25	C	1.508466	-0.039952	-0.000062
C26	C	2.008466	0.460048	0.499938
C27	C	1.505095	-0.165975	-0.000060
C28	C	2.005095	0.334025	0.499940
C29	C	1.498896	-0.396703	-0.000038
C30	C	1.998896	0.103297	0.499962
C31	C	1.502340	-0.268309	-0.000050
C32	C	2.002340	0.231691	0.499950
C33	C	0.944655	0.040941	-0.000550
C34	C	1.444655	0.540941	0.499450
C35	C	1.091262	0.044369	-0.000048
C36	C	1.591262	0.544369	0.499952
C37	C	1.065800	0.231215	0.123651
C38	C	1.565800	0.731215	0.623651
C39	C	0.919269	0.226910	0.123741
C40	C	1.419269	0.726910	0.623741
C41	C	0.918751	0.229483	-0.122574
C42	C	1.418751	0.729483	0.377426
C43	C	1.065729	0.230644	-0.124195
C44	C	1.565729	0.730644	0.375805
C45	C	1.732657	0.161083	-0.000060
C46	C	2.232657	0.661083	0.499940
C47	C	1.873594	0.164465	-0.000057
C48	C	2.373594	0.664465	0.499943
C49	C	1.492787	0.374930	-0.000041
C50	C	1.992787	0.874930	0.499959
C51	C	1.496159	0.500952	-0.000034
C52	C	1.996159	1.000952	0.499966
N53	N	1.500610	0.167496	-0.308296
N54	N	2.000610	0.667496	0.191704
C55	C	1.500619	0.167497	-0.426139
C56	C	2.000619	0.667497	0.073861
C57	C	1.500635	0.167487	-0.573977
C58	C	2.000635	0.667487	-0.073977
N59	N	1.500654	0.167472	0.308191
N60	N	2.000654	0.667472	0.808191
H61	H	0.916224	-0.008890	-0.089254
H62	H	1.416224	0.491110	0.410746
H63	H	1.089655	0.322611	-0.131658
H64	H	1.589655	0.822611	0.368342
H65	H	1.134023	-0.003394	-0.088714
H66	H	1.634023	0.496606	0.411286
H67	H	1.133171	-0.003736	0.088765
H68	H	1.633171	0.496264	0.588765
H69	H	0.871228	0.320595	-0.123404
H70	H	1.371228	0.820595	0.376596
N71	N	1.120163	0.171911	-0.245409
N72	N	1.620163	0.671911	0.254591
H73	H	1.101581	0.089506	-0.244635
H74	H	1.601581	0.589506	0.255365
H75	H	1.215394	0.175996	-0.247781
H76	H	1.715394	0.675996	0.252219
N77	N	0.904835	-0.024797	0.116269
N78	N	1.404835	0.475203	0.616269
H79	H	0.927102	0.015632	0.198660
H80	H	1.427102	0.515632	0.698660
H81	H	0.950918	-0.104038	0.115102
H82	H	1.450918	0.395962	0.615102
N83	N	0.882092	0.167474	0.246199
N84	N	1.382092	0.667474	0.746199
H85	H	0.960857	0.144311	0.299613
H86	H	1.460857	0.644311	0.799613
H87	H	0.839237	0.097468	0.222111
H88	H	1.339237	0.597468	0.722111
N89	N	0.855325	0.347074	0.131134
N90	N	1.355325	0.847074	0.631134
H91	H	0.922361	0.402603	0.134332
H92	H	1.422361	0.902603	0.634332
H93	H	0.800961	0.355747	0.212186
H94	H	1.300961	0.855747	0.712186
H95	H	0.887330	0.188662	-0.216329
H96	H	1.387330	0.688662	0.283671
H97	H	1.087851	0.323851	0.128259
H98	H	1.587851	0.823851	0.628259
N99	N	1.122380	0.175363	0.245593
N100	N	1.622380	0.675363	0.745593
H101	H	1.217333	0.181170	0.247014
H102	H	1.717333	0.681170	0.747014
H103	H	1.105665	0.092492	0.246739
H104	H	1.605665	0.592492	0.746739
