data_functionalizedCrystal
_audit_creation_method	'MofGen! by Chris Wilmer'
_symmetry_space_group_name_H-M	'P1'
_symmetry_Int_Tables_number	1
_symmetry_cell_setting	triclinic
loop_
_symmetry_equiv_pos_as_xyz
  x,y,z
_cell_length_a	18.101395
_cell_length_b	16.120530
_cell_length_c	16.120297
_cell_angle_alpha	89.871860
_cell_angle_beta	92.872690
_cell_angle_gamma	92.873335
loop_
_atom_site_label
_atom_site_type_symbol
_atom_site_fract_x
_atom_site_fract_y
_atom_site_fract_z
Zn1	Zn	-0.375190	-1.247384	-0.534565
Zn2	Zn	0.124810	-0.747384	-0.034565
Zn3	Zn	-0.493082	-1.254317	-0.395508
Zn4	Zn	0.006918	-0.754317	0.104492
Zn5	Zn	-0.362676	-1.115376	-0.388483
Zn6	Zn	0.137324	-0.615376	0.111517
Zn7	Zn	-0.492400	-1.108274	-0.527477
Zn8	Zn	0.007600	-0.608274	-0.027477
O9	O	-0.430837	-1.181338	-0.461508
O10	O	0.069163	-0.681338	0.038492
O11	O	-0.396351	-1.364669	-0.522025
O12	O	0.103649	-0.864669	-0.022025
O13	O	-0.470832	-1.241761	-0.278211
O14	O	0.029168	-0.741761	0.221789
O15	O	-0.260707	-1.132958	-0.407888
O16	O	0.239293	-0.632958	0.092112
O17	O	-0.482966	-1.369763	-0.419860
O18	O	0.017034	-0.869763	0.080140
O19	O	-0.269901	-1.229944	-0.515214
O20	O	0.230099	-0.729944	-0.015214
O21	O	-0.375023	-1.139681	-0.273050
O22	O	0.124977	-0.639681	0.226950
O23	O	-0.374361	-0.998069	-0.401015
O24	O	0.125639	-0.498069	0.098985
O25	O	-0.481804	-1.120853	-0.644783
O26	O	0.018196	-0.620853	-0.144783
O27	O	-0.469669	-0.992851	-0.503133
O28	O	0.030331	-0.492851	-0.003133
O29	O	-0.395690	-1.223057	-0.649990
O30	O	0.104310	-0.723057	-0.149990
O31	O	-0.596620	-1.234873	-0.412987
O32	O	-0.096620	-0.734873	0.087013
O33	O	-0.596119	-1.127576	-0.509945
O34	O	-0.096119	-0.627576	-0.009945
C35	C	-0.623241	-1.181228	-0.461478
C36	C	-0.123241	-0.681228	0.038522
C37	C	-0.705558	-1.181256	-0.461497
C38	C	-0.205558	-0.681256	0.038503
C39	C	-0.420584	-0.965287	-0.450543
C40	C	0.079416	-0.465287	0.049457
C41	C	-0.416216	-0.872859	-0.445872
C42	C	0.083784	-0.372859	0.054128
C43	C	-0.440067	-1.170389	-0.678403
C44	C	0.059933	-0.670389	-0.178403
C45	C	-0.444000	-1.165724	-0.770830
C46	C	0.056000	-0.665724	-0.270830
C47	C	-1.004659	-1.181436	-0.461551
C48	C	-0.504659	-0.681436	0.038449
C49	C	-0.973063	-1.114068	-0.522721
C50	C	-0.473063	-0.614068	-0.022721
C51	C	-0.887422	-1.113774	-0.522504
C52	C	-0.387422	-0.613774	-0.022504
C53	C	-0.856271	-1.181346	-0.461525
C54	C	-0.356271	-0.681346	0.038475
C55	C	-0.882548	-1.162064	-0.372686
C56	C	-0.382548	-0.662064	0.127314
C57	C	-0.968190	-1.161632	-0.373050
C58	C	-0.468190	-0.661632	0.126950
C59	C	-0.978132	-1.268265	-0.488456
C60	C	-0.478132	-0.768265	0.011544
C61	C	-0.892539	-1.267650	-0.490352
C62	C	-0.392539	-0.767650	0.009648
C63	C	-0.772409	-1.181297	-0.461505
C64	C	-0.272409	-0.681297	0.038495
C65	C	-1.088521	-1.181483	-0.461565
C66	C	-0.588521	-0.681483	0.038435
C67	C	-0.237683	-1.181470	-0.461558
C68	C	0.262317	-0.681470	0.038442
C69	C	-0.155373	-1.181526	-0.461579
C70	C	0.344627	-0.681526	0.038421
C71	C	-0.441131	-1.398232	-0.472517
C72	C	0.058869	-0.898232	0.027483
C73	C	-0.445517	-1.490660	-0.477208
C74	C	0.054483	-0.990660	0.022792
C75	C	-0.408225	-0.703631	-0.437350
C76	C	0.091775	-0.203631	0.062650
C77	C	-0.453506	-0.659883	-0.485727
C78	C	0.046494	-0.159883	0.014273
C79	C	-0.449060	-0.565718	-0.480986
C80	C	0.050940	-0.065718	0.019014
C81	C	-0.412671	-0.797804	-0.442091
C82	C	0.087329	-0.297804	0.057909
C83	C	-0.451163	-1.157175	-0.940055
C84	C	0.048837	-0.657175	-0.440055
C85	C	-0.410297	-1.205665	-0.983822
C86	C	0.089703	-0.705665	-0.483822
C87	C	-0.414283	-1.200908	-1.077985
C88	C	0.085717	-0.700908	-0.577985
C89	C	-0.447178	-1.161931	-0.845884
C90	C	0.052822	-0.661931	-0.345884
C91	C	-0.421592	-1.192292	-0.245460
C92	C	0.078408	-0.692292	0.254540
C93	C	-0.417458	-1.197119	-0.153042
C94	C	0.082542	-0.697119	0.346958
H95	H	-0.869842	-1.125322	-0.588238
H96	H	-0.369842	-0.625322	-0.088238
H97	H	-0.997097	-1.125459	-0.588658
H98	H	-0.497097	-0.625459	-0.088658
O99	O	-0.501468	-1.097456	-0.984090
O100	O	-0.001468	-0.597456	-0.484090
H101	H	-0.559577	-1.112498	-0.968197
H102	H	-0.059577	-0.612498	-0.468197
H103	H	-0.372317	-1.250750	-0.950575
H104	H	0.127683	-0.750750	-0.450575
H105	H	-0.998637	-1.318402	-0.443958
H106	H	-0.498637	-0.818402	0.056042
H107	H	-0.875783	-1.282271	-0.555755
H108	H	-0.375783	-0.782271	-0.055755
O109	O	-0.996740	-1.029203	-0.498924
O110	O	-0.496740	-0.529203	0.001076
H111	H	-1.030913	-1.034795	-0.443718
H112	H	-0.530913	-0.534795	0.056282
H113	H	-0.495611	-0.693149	-0.530706
H114	H	0.004389	-0.193149	-0.030706
O115	O	-0.352476	-0.659564	-0.377756
O116	O	0.147524	-0.159564	0.122244
H117	H	-0.314608	-0.618121	-0.413080
H118	H	0.185392	-0.118121	0.086920
O119	O	-0.855422	-1.028412	-0.498411
O120	O	-0.355422	-0.528412	0.001589
H121	H	-0.901127	-0.987182	-0.486863
H122	H	-0.401127	-0.487182	0.013137
H123	H	-0.984372	-1.098292	-0.350776
H124	H	-0.484372	-0.598292	0.149224
H125	H	-0.988900	-1.208812	-0.325680
H126	H	-0.488900	-0.708812	0.174320
H127	H	-0.862211	-1.209784	-0.325672
H128	H	-0.362211	-0.709784	0.174328
H129	H	-0.857320	-1.099423	-0.350105
H130	H	-0.357320	-0.599423	0.149895
O131	O	-0.864869	-1.337171	-0.436091
O132	O	-0.364869	-0.837171	0.063909
H133	H	-0.837323	-1.382153	-0.474739
H134	H	-0.337323	-0.882153	0.025261
H135	H	-1.003393	-1.286711	-0.552368
H136	H	-0.503393	-0.786711	-0.052368
