data_functionalizedCrystal
_audit_creation_method	'MofGen! by Chris Wilmer'
_symmetry_space_group_name_H-M	'P1'
_symmetry_Int_Tables_number	1
_symmetry_cell_setting	triclinic
loop_
_symmetry_equiv_pos_as_xyz
  x,y,z
_cell_length_a	10.654550
_cell_length_b	17.038272
_cell_length_c	9.730223
_cell_angle_alpha	89.998176
_cell_angle_beta	89.996251
_cell_angle_gamma	87.798229
loop_
_atom_site_label
_atom_site_type_symbol
_atom_site_fract_x
_atom_site_fract_y
_atom_site_fract_z
O1	O	1.678036	0.109875	-0.114405
O2	O	1.313530	0.120343	-0.114384
O3	O	1.493617	0.001281	-0.114383
O4	O	1.497950	0.228936	-0.114406
O5	O	1.493615	0.001284	0.114196
O6	O	1.313528	0.120346	0.114196
O7	O	1.678034	0.109878	0.114175
Zn8	Zn	1.495781	0.115112	0.150477
Zn9	Zn	1.495783	0.115108	-0.150686
O10	O	1.497948	0.228939	0.114174
C11	C	1.266660	0.119576	-0.000091
C12	C	1.127003	0.117276	-0.000082
C13	C	1.054026	0.187378	-0.000109
C14	C	0.922804	0.185212	-0.000132
C15	C	0.937548	0.042837	-0.000108
C16	C	1.068767	0.045004	-0.000075
C17	C	1.112262	0.259650	-0.000116
C18	C	1.039285	0.329758	-0.000145
C19	C	0.908063	0.327592	-0.000168
C20	C	0.849818	0.255319	-0.000163
C21	C	1.489675	-0.027867	-0.000093
C22	C	1.477918	-0.114726	-0.000093
C23	C	1.585862	-0.164237	-0.000098
C24	C	1.574808	-0.245850	-0.000111
C25	C	1.455808	-0.277949	-0.000108
C26	C	1.347856	-0.228431	-0.000107
C27	C	1.358911	-0.146821	-0.000105
C28	C	1.416750	-0.523925	-0.000125
C29	C	1.405702	-0.605542	-0.000123
C30	C	1.632656	-0.622955	-0.000129
C31	C	1.643701	-0.541342	-0.000118
C32	C	1.535749	-0.491831	-0.000124
C33	C	1.444505	-0.361370	-0.000116
C34	C	1.547052	-0.408412	-0.000126
C35	C	1.724905	0.110645	-0.000121
C36	C	1.864562	0.112944	-0.000139
C37	C	1.501889	0.258088	-0.000119
C38	C	1.513646	0.344947	-0.000128
N39	N	1.495788	0.115115	0.356014
N40	N	1.495785	0.115100	-0.356223
C41	C	1.575554	0.062412	0.427940
C42	C	1.575550	0.062402	0.571823
C43	C	1.416010	0.167805	0.571841
C44	C	1.416009	0.167810	0.427961
C45	C	1.655334	0.009717	0.355993
C46	C	1.735107	-0.042990	0.427919
C47	C	1.735103	-0.042999	0.571802
C48	C	1.655325	0.009697	0.643759
H49	H	1.128187	-0.012079	-0.000056
O50	O	1.329954	0.224650	0.350395
H51	H	1.265364	0.191354	0.284871
O52	O	1.821145	-0.099846	0.649370
H53	H	1.764203	-0.138189	0.714912
O54	O	1.772058	-0.506729	-0.000151
H55	H	1.824360	-0.526577	0.092999
H56	H	1.351060	0.210709	0.630437
O57	O	1.277350	-0.640173	-0.000124
H58	H	1.225065	-0.620345	-0.093298
O59	O	1.102105	0.407704	-0.000131
H60	H	1.029310	0.456086	-0.000134
O61	O	1.749081	-0.676358	-0.000134
H62	H	1.805607	-0.664875	0.093036
O63	O	1.300322	-0.470529	-0.000096
H64	H	1.215721	-0.506563	-0.000070
O65	O	1.219505	-0.263052	-0.000089
H66	H	1.209039	-0.299824	-0.093243
O67	O	1.253793	0.261986	-0.000073
H68	H	1.285239	0.293285	-0.093232
H69	H	0.890114	-0.016004	-0.000127
O70	O	1.675400	-0.373795	-0.000141
H71	H	1.727695	-0.393637	0.093017
O72	O	1.655343	0.009723	0.200806
H73	H	1.586478	0.055227	0.162877
H74	H	0.848648	0.384677	-0.000177
O75	O	1.714213	-0.129616	-0.000114
H76	H	1.787414	-0.177759	-0.000137
O77	O	1.691231	-0.299254	-0.000093
H78	H	1.775836	-0.263223	-0.000069
H79	H	0.742968	0.253562	-0.000161
H80	H	1.655319	0.009680	0.760918
O81	O	1.242488	-0.093413	-0.000084
H82	H	1.157881	-0.129443	-0.000067
H83	H	1.347615	-0.387514	-0.000111
O84	O	1.821119	-0.099844	0.350322
H85	H	1.807721	-0.090987	0.238188
