data_functionalizedCrystal
_audit_creation_method	'MofGen! by Chris Wilmer'
_symmetry_space_group_name_H-M	'P1'
_symmetry_Int_Tables_number	1
_symmetry_cell_setting	triclinic
loop_
_symmetry_equiv_pos_as_xyz
  x,y,z
_cell_length_a	19.851628
_cell_length_b	16.704479
_cell_length_c	16.704495
_cell_angle_alpha	94.152308
_cell_angle_beta	122.340566
_cell_angle_gamma	63.422411
loop_
_atom_site_label
_atom_site_type_symbol
_atom_site_fract_x
_atom_site_fract_y
_atom_site_fract_z
Zr1	Zr	0.801758	0.745259	0.143687
O2	O	0.932495	0.631826	0.266009
O3	O	0.664225	0.780042	0.106190
O4	O	0.805766	0.791663	0.274238
O5	O	0.790162	0.611028	-0.034599
O6	O	0.816659	0.917734	0.280727
O7	O	0.790954	0.620205	0.097961
O8	O	0.563468	0.896946	-0.019880
O9	O	1.043353	0.631816	0.266007
O10	O	0.731441	0.888950	0.095039
O11	O	0.722721	0.788016	-0.008732
O12	O	0.889367	0.801698	0.189122
O13	O	0.880647	0.700763	0.085351
Zr14	Zr	0.817868	0.931691	-0.057382
Zr15	Zr	0.819131	0.946328	0.154037
Zr16	Zr	0.800496	0.730622	-0.067732
Zr17	Zr	0.978565	0.745242	0.143684
Zr18	Zr	0.641062	0.931708	-0.057380
O19	O	0.955401	0.896908	-0.019885
O20	O	0.957196	0.917720	0.280725
O21	O	0.930700	0.611014	-0.034601
O22	O	0.687132	1.045124	-0.179704
O23	O	0.688927	1.065936	0.120906
O24	O	0.662430	0.759230	-0.194420
O25	O	0.829464	1.065922	0.120904
O26	O	0.813860	0.885287	-0.187933
O27	O	0.802968	0.759216	-0.194422
O28	O	0.828673	1.056745	-0.011657
O29	O	1.057162	0.791639	0.274234
O30	O	0.562464	0.885311	-0.187929
O31	O	0.576273	1.045134	-0.179703
O32	O	0.577277	1.056769	-0.011653
O33	O	1.042350	0.620181	0.097958
O34	O	1.056159	0.780004	0.106184
O35	O	0.730259	0.875252	-0.102818
O36	O	0.738979	0.976187	0.000954
O37	O	0.896906	0.888934	0.095037
O38	O	0.888186	0.788000	-0.008735
C39	C	0.588655	0.838496	0.043156
C40	C	0.513596	0.838503	0.043157
C41	C	0.292108	0.893513	0.099737
C42	C	0.384861	0.807757	0.134286
C43	C	0.243444	0.838464	0.043152
C44	C	0.284448	0.924230	0.008651
C45	C	0.376178	0.838487	0.043156
C46	C	0.335250	0.752659	0.077753
C47	C	0.234788	0.869192	-0.047931
C48	C	0.327530	0.783381	-0.013408
C49	C	0.166981	0.838451	0.043151
C50	C	0.452644	0.838491	0.043157
C51	C	0.788083	0.586968	0.030206
C52	C	0.780707	0.501609	0.025813
C53	C	0.811392	0.856784	0.307605
C54	C	0.811928	0.862997	0.397358
C55	C	1.030971	0.838454	0.043149
C56	C	1.106030	0.838447	0.043148
C57	C	0.687884	0.426840	-0.029483
C58	C	0.694808	0.507045	-0.025360
C59	C	0.859689	0.415959	0.072867
C60	C	0.852765	0.335754	0.068744
C61	C	0.766860	0.341198	0.017566
C62	C	0.759937	0.260991	0.013437
C63	C	0.924818	0.169907	0.111669
C64	C	0.931741	0.250113	0.115793
C65	C	0.831544	1.089981	0.056098
C66	C	0.838919	1.175340	0.060492
C67	C	0.800948	0.735741	0.558874
C68	C	0.801452	0.741576	0.643204
C69	C	0.813444	0.880498	0.650355
C70	C	0.812941	0.874663	0.566024
C71	C	0.806692	0.802283	0.520286
C72	C	0.806182	0.796452	0.435950
C73	C	0.818181	0.935370	0.443106
C74	C	0.818684	0.941205	0.527437
C75	C	0.808234	0.820166	0.778700
C76	C	0.807698	0.813952	0.688947
C77	C	0.610386	1.090003	0.056102
C78	C	0.542702	1.175369	0.060497
C79	C	0.587076	0.820187	-0.221297
C80	C	0.511481	0.813981	-0.311049
C81	C	0.608807	1.071694	-0.208351
C82	C	0.540587	1.150846	-0.293709
C83	C	1.010820	0.605256	0.294656
C84	C	1.079039	0.526104	0.380014
C85	C	1.009241	0.586947	0.030203
C86	C	1.076925	0.501581	0.025808
C87	C	1.032550	0.856762	0.307602
C88	C	1.108145	0.862969	0.397353
C89	C	0.506982	1.169922	0.111681
C90	C	0.443395	1.250126	0.115830
C91	C	0.415524	1.335776	0.068788
C92	C	0.451251	1.341221	0.017602
C93	C	0.514842	1.261018	0.013459
C94	C	0.479916	0.856602	-0.402318
C95	C	0.408896	0.850766	-0.486657
C96	C	0.369438	0.802314	-0.479725
C97	C	0.401010	0.759688	-0.388447
C98	C	0.472033	0.765518	-0.304110
C99	C	0.513103	1.240712	-0.279626
C100	C	0.449013	1.315093	-0.359820
C101	C	0.412405	1.299605	-0.454097
C102	C	0.439895	1.209730	-0.468178
C103	C	0.503988	1.135351	-0.387985
C104	C	1.106532	0.436238	0.365931
C105	C	1.170643	0.361857	0.446125
C106	C	1.207256	0.377345	0.540401
C107	C	1.179761	0.467220	0.554483
C108	C	1.115655	0.541599	0.474290
C109	C	1.112652	0.507029	-0.025367
C110	C	1.176259	0.426826	-0.029493
C111	C	1.204132	0.341176	0.017552
C112	C	1.168401	0.335731	0.068734
C113	C	1.104801	0.415933	0.072865
C114	C	1.147581	0.911428	0.390391
C115	C	1.218603	0.917278	0.474715
C116	C	1.250191	0.874662	0.566000
C117	C	1.210748	0.826201	0.572961
C118	C	1.139724	0.820358	0.488638
H119	H	0.356102	0.680109	0.107027
N120	N	0.421187	1.433603	-0.033133
H121	H	0.375480	1.483577	-0.022739
H122	H	0.392180	1.436043	-0.104970
H123	H	0.630497	0.576775	-0.063676
H124	H	0.497724	0.730814	-0.229798
H125	H	1.205340	0.431277	-0.071174
N126	N	0.794195	0.657685	0.509532
H127	H	0.847719	0.597359	0.556039
H128	H	0.794718	0.664168	0.450250
N129	N	1.066265	0.410038	0.128055
H130	H	0.997875	0.437842	0.082292
H131	H	1.081591	0.444702	0.181628
H132	H	1.089963	0.576761	-0.063684
N133	N	1.024387	0.244255	0.170982
H134	H	1.058924	0.206950	0.142067
H135	H	1.059451	0.213850	0.241390
N136	N	1.010006	0.077533	0.162413
H137	H	0.992588	0.027547	0.152034
H138	H	1.047516	0.075100	0.234247
N139	N	0.595235	0.432706	-0.084669
H140	H	0.602833	0.368901	-0.080138
H141	H	0.560145	0.463171	-0.155062
H142	H	1.121873	0.946132	0.316069
N143	N	0.346938	1.422277	0.073262
H144	H	0.328542	1.405821	0.112826
H145	H	0.291376	1.456009	0.005284
N146	N	0.553361	1.266905	-0.041752
H147	H	0.621752	1.239098	0.004002
H148	H	0.525982	1.333355	-0.070914
N149	N	0.825416	1.019274	0.576762
H150	H	0.884009	1.017659	0.597045
H151	H	0.824824	1.012832	0.636004
H152	H	1.209579	0.479820	0.631253
H153	H	0.368873	0.720238	-0.382817
H154	H	1.250710	0.956738	0.469028
H155	H	1.093272	0.614770	0.485768
N156	N	0.522471	0.908854	-0.409813
H157	H	0.572256	0.906088	-0.342542
H158	H	0.474322	0.974958	-0.443576
N159	N	1.272730	0.254676	0.013093
H160	H	1.291127	0.271132	-0.026471
H161	H	1.244626	0.214077	-0.018262
N162	N	1.198453	0.243348	0.119454
H163	H	1.244156	0.193373	0.109055
H164	H	1.143781	0.234054	0.091937
H165	H	1.308025	0.879427	0.634654
N166	N	1.200288	0.264925	0.430933
H167	H	1.228661	0.254836	0.393277
H168	H	1.145567	0.254907	0.393333
N169	N	1.276396	0.297118	0.626892
H170	H	1.288250	0.237840	0.603656
H171	H	1.252047	0.299966	0.667448
H172	H	0.263730	0.996752	-0.020531
N173	N	0.404873	1.244232	0.171040
H174	H	0.372388	1.206933	0.142117
H175	H	0.360402	1.308061	0.166525
N176	N	0.374850	0.896748	-0.585098
H177	H	0.410620	0.928333	-0.576684
H178	H	0.308096	0.943549	-0.619799
N179	N	0.952330	0.410113	0.128056
H180	H	0.986872	0.372811	0.099144
H181	H	0.987396	0.379711	0.198465
N182	N	1.244823	0.780239	0.671422
H183	H	1.295804	0.791296	0.723776
H184	H	1.268154	0.712093	0.675704
N185	N	0.552572	1.257430	-0.177948
H186	H	0.525428	1.325651	-0.181210
H187	H	0.620901	1.228861	-0.142306
H188	H	0.276463	0.939988	0.147637
H189	H	1.107622	0.780893	0.494321
H190	H	0.449050	0.781772	0.211316
H191	H	0.426638	1.388267	-0.348337
H192	H	0.410079	1.197133	-0.544949
H193	H	0.529674	1.100190	0.150001
H194	H	0.689988	0.265427	-0.028237
H195	H	0.343125	0.736778	-0.061249
N196	N	0.799437	0.718390	0.386617
H197	H	0.852966	0.658069	0.433129
H198	H	0.799957	0.724870	0.327332
H199	H	0.818542	0.939422	0.687612
H200	H	0.311607	0.797573	-0.548406
H201	H	0.796777	0.687390	0.674621
N202	N	0.149742	0.903635	-0.149941
H203	H	0.129932	0.968453	-0.175954
H204	H	0.099555	0.902733	-0.149179
N205	N	0.343276	1.379832	-0.540587
H206	H	0.331423	1.439110	-0.517351
H207	H	0.284555	1.376991	-0.581142
N208	N	0.533616	1.038423	-0.403176
H209	H	0.601540	1.005195	-0.372322
H210	H	0.500632	1.039981	-0.475083
N211	N	0.824372	1.007148	0.401485
H212	H	0.823103	0.992473	0.341120
H213	H	0.883142	1.007529	0.451185
H214	H	1.076725	0.423610	0.289173
