data_functionalizedCrystal
_audit_creation_method	'MofGen! by Chris Wilmer'
_symmetry_space_group_name_H-M	'P1'
_symmetry_Int_Tables_number	1
_symmetry_cell_setting	triclinic
loop_
_symmetry_equiv_pos_as_xyz
  x,y,z
_cell_length_a	23.532407
_cell_length_b	23.532407
_cell_length_c	22.610064
_cell_angle_alpha	90.000603
_cell_angle_beta	89.997161
_cell_angle_gamma	97.151322
loop_
_atom_site_label
_atom_site_type_symbol
_atom_site_fract_x
_atom_site_fract_y
_atom_site_fract_z
O1	O	0.755263	-0.069127	-0.049117
O2	O	1.255263	0.430873	0.450883
O3	O	0.589400	-0.079130	-0.049135
O4	O	1.089400	0.420870	0.450865
O5	O	0.677333	0.008803	-0.049114
O6	O	1.177333	0.508803	0.450886
O7	O	0.667330	-0.157060	-0.049137
O8	O	1.167330	0.342940	0.450863
O9	O	0.677318	0.008790	0.049255
O10	O	1.177318	0.508790	0.549255
O11	O	0.589385	-0.079143	0.049234
O12	O	1.089385	0.420857	0.549234
O13	O	0.755248	-0.069140	0.049252
O14	O	1.255248	0.430860	0.549252
Zn15	Zn	0.672314	-0.074144	0.064862
Zn16	Zn	1.172314	0.425856	0.564862
Zn17	Zn	0.672334	-0.074127	-0.064744
Zn18	Zn	1.172334	0.425873	0.435256
O19	O	0.667315	-0.157073	0.049232
O20	O	1.167315	0.342927	0.549232
C21	C	0.568176	-0.078882	0.000048
C22	C	1.068176	0.421118	0.500048
C23	C	0.504959	-0.078116	0.000041
C24	C	1.004959	0.421884	0.500041
C25	C	0.105856	-0.125350	0.000061
C26	C	0.605856	0.374650	0.500061
C27	C	0.046456	-0.124638	0.000065
C28	C	0.546456	0.375362	0.500065
O29	O	0.009711	-0.168424	0.000081
O30	O	0.509711	0.331576	0.500081
N31	N	0.023830	-0.072362	0.000071
N32	N	0.523830	0.427638	0.500071
C33	C	0.060607	-0.020794	0.000080
C34	C	0.560607	0.479206	0.500080
O35	O	0.035908	0.023737	0.000086
O36	O	0.535908	0.523737	0.500086
C37	C	0.120006	-0.021506	0.000080
C38	C	0.620006	0.478494	0.500080
C39	C	0.142629	-0.073785	0.000068
C40	C	0.642629	0.426215	0.500068
C41	C	0.128479	-0.177625	0.000050
C42	C	0.628479	0.322375	0.500050
C43	C	0.187876	-0.178336	0.000045
C44	C	0.687876	0.321664	0.500045
C45	C	0.224649	-0.126772	0.000052
C46	C	0.724649	0.373228	0.500052
C47	C	0.202025	-0.074497	0.000063
C48	C	0.702025	0.425503	0.500063
C49	C	0.156783	0.030062	0.000093
C50	C	0.656783	0.530062	0.500093
C51	C	0.216185	0.029345	0.000094
C52	C	0.716185	0.529345	0.500094
C53	C	0.238808	-0.022934	0.000082
C54	C	0.738808	0.477066	0.500082
C55	C	0.298194	-0.023643	0.000065
C56	C	0.798194	0.476357	0.500065
N57	N	0.320820	-0.075920	0.000059
N58	N	0.820820	0.424080	0.500059
C59	C	0.284048	-0.127484	0.000052
C60	C	0.784048	0.372516	0.500052
C61	C	-0.064135	-0.019302	0.000080
C62	C	0.435865	0.480698	0.500080
C63	C	-0.123533	-0.018589	0.000075
C64	C	0.376467	0.481411	0.500075
C65	C	-0.137680	-0.122434	0.000061
C66	C	0.362320	0.377566	0.500061
C67	C	-0.078281	-0.123146	0.000062
C68	C	0.421719	0.376854	0.500062
C69	C	-0.041509	-0.071578	0.000074
C70	C	0.458491	0.428422	0.500074
C71	C	0.408784	-0.128974	0.000042
C72	C	0.908784	0.371026	0.500042
C73	C	0.468186	-0.129680	0.000034
C74	C	0.968186	0.370320	0.500034
C75	C	0.482329	-0.025836	0.000051
C76	C	0.982329	0.474164	0.500051
C77	C	0.422932	-0.025129	0.000055
C78	C	0.922932	0.474871	0.500055
C79	C	0.386160	-0.076702	0.000052
C80	C	0.886160	0.423298	0.500052
O81	O	0.334974	0.020119	0.000052
O82	O	0.834974	0.520119	0.500052
O83	O	0.308755	-0.172007	0.000054
O84	O	0.808755	0.327993	0.500054
C85	C	0.677071	0.030013	0.000072
C86	C	1.177071	0.530013	0.500072
C87	C	0.676305	0.093230	0.000076
C88	C	1.176305	0.593230	0.500076
C89	C	0.776472	-0.069388	0.000069
C90	C	1.276472	0.430612	0.500069
C91	C	0.839689	-0.070154	0.000071
C92	C	1.339689	0.429846	0.500071
C93	C	0.667577	-0.178283	0.000045
C94	C	1.167577	0.321717	0.500045
C95	C	0.668343	-0.241500	0.000036
C96	C	1.168343	0.258500	0.500036
N97	N	0.672304	-0.074155	0.153314
N98	N	1.172304	0.425845	0.653314
C99	C	0.723539	0.492333	0.000049
C100	C	1.223539	0.992333	0.500049
C101	C	0.722827	0.551733	0.000044
C102	C	1.222827	1.051733	0.500044
O103	O	0.766613	0.588478	0.000027
O104	O	1.266613	1.088478	0.500027
N105	N	0.670551	0.574359	0.000039
N106	N	1.170551	1.074359	0.500039
C107	C	0.618983	0.537582	0.000032
C108	C	1.118983	1.037582	0.500032
O109	O	0.574452	0.562281	0.000027
O110	O	1.074452	1.062281	0.500027
C111	C	0.619695	0.478182	0.000033
C112	C	1.119695	0.978182	0.500033
C113	C	0.671974	0.455560	0.000044
C114	C	1.171974	0.955560	0.500044
C115	C	0.775814	0.469710	0.000060
C116	C	1.275814	0.969710	0.500060
C117	C	0.776525	0.410313	0.000065
C118	C	1.276525	0.910313	0.500065
C119	C	0.724961	0.373540	0.000060
C120	C	1.224961	0.873540	0.500060
C121	C	0.672685	0.396164	0.000050
C122	C	1.172685	0.896164	0.500050
C123	C	0.568127	0.441406	0.000022
C124	C	1.068127	0.941406	0.500022
C125	C	0.568844	0.382004	0.000021
C126	C	1.068844	0.882004	0.500021
C127	C	0.621123	0.359381	0.000033
C128	C	1.121123	0.859381	0.500033
C129	C	0.621832	0.299995	0.000050
C130	C	1.121832	0.799995	0.500050
N131	N	0.674109	0.277368	0.000056
N132	N	1.174109	0.777368	0.500056
C133	C	0.725673	0.314141	0.000061
C134	C	1.225673	0.814141	0.500061
C135	C	0.617491	0.662324	0.000031
C136	C	1.117491	1.162324	0.500031
C137	C	0.616778	0.721722	0.000034
C138	C	1.116778	1.221722	0.500034
C139	C	0.720623	0.735869	0.000045
C140	C	1.220623	1.235869	0.500045
C141	C	0.721335	0.676470	0.000046
C142	C	1.221335	1.176470	0.500046
C143	C	0.669767	0.639698	0.000036
C144	C	1.169767	1.139698	0.500036
C145	C	0.727163	0.189405	0.000073
C146	C	1.227163	0.689405	0.500073
C147	C	0.727869	0.130003	0.000081
C148	C	1.227869	0.630003	0.500081
C149	C	0.624025	0.115860	0.000067
C150	C	1.124025	0.615860	0.500067
C151	C	0.623318	0.175257	0.000062
C152	C	1.123318	0.675257	0.500062
C153	C	0.674891	0.212029	0.000063
C154	C	1.174891	0.712029	0.500063
O155	O	0.578070	0.263215	0.000065
O156	O	1.078070	0.763215	0.500065
O157	O	0.770196	0.289433	0.000058
O158	O	1.270196	0.789433	0.500058
N159	N	0.672349	-0.074111	-0.153196
N160	N	1.172349	0.425889	0.346804
C161	C	0.711273	-0.035196	0.561965
C162	C	1.211273	0.464804	1.061965
C163	C	0.711276	-0.035192	0.623884
C164	C	1.211276	0.464808	1.123884
O165	O	0.744384	-0.002076	0.655911
O166	O	1.244384	0.497924	1.155911
N167	N	0.672334	-0.074115	0.654851
N168	N	1.172334	0.425885	1.154851
C169	C	0.633383	-0.113041	0.623895
C170	C	1.133383	0.386959	1.123895
O171	O	0.600259	-0.146147	0.655920
O172	O	1.100259	0.353853	1.155920
C173	C	0.633377	-0.113042	0.561976
C174	C	1.133377	0.386958	1.061976
C175	C	0.672326	-0.074120	0.531013
C176	C	1.172326	0.425880	1.031013
C177	C	0.750218	0.003724	0.531001
C178	C	1.250218	0.503724	1.031001
C179	C	0.750215	0.003719	0.469085
C180	C	1.250215	0.503719	0.969085
C181	C	0.711268	-0.035206	0.438133
C182	C	1.211268	0.464794	0.938133
C183	C	0.672323	-0.074125	0.469097
C184	C	1.172323	0.425875	0.969097
C185	C	0.594424	-0.151965	0.531021
C186	C	1.094424	0.348035	1.031021
C187	C	0.594422	-0.151962	0.469098
C188	C	1.094422	0.348038	0.969098
C189	C	0.633370	-0.113040	0.438134
C190	C	1.133370	0.386960	0.938134
C191	C	0.633374	-0.113054	0.376229
C192	C	1.133374	0.386946	0.876229
N193	N	0.672316	-0.074131	0.345262
N194	N	1.172316	0.425869	0.845262
C195	C	0.711263	-0.035207	0.376214
C196	C	1.211263	0.464793	0.876214
C197	C	0.633396	-0.113035	0.753928
C198	C	1.133396	0.386965	1.253928
C199	C	0.633403	-0.113037	0.815846
C200	C	1.133403	0.386963	1.315846
C201	C	0.711296	-0.035187	0.815831
C202	C	1.211296	0.464813	1.315831
C203	C	0.711291	-0.035188	0.753913
C204	C	1.211291	0.464812	1.253913
C205	C	0.672338	-0.074112	0.722962
C206	C	1.172338	0.425888	1.222962
C207	C	0.711255	-0.035220	0.246187
C208	C	1.211255	0.464780	0.746187
C209	C	0.711251	-0.035230	0.184266
C210	C	1.211251	0.464770	0.684266
C211	C	0.633357	-0.113078	0.184286
C212	C	1.133357	0.386922	0.684286
C213	C	0.633363	-0.113071	0.246202
C214	C	1.133363	0.386929	0.746202
C215	C	0.672314	-0.074137	0.277151
C216	C	1.172314	0.425863	0.777151
O217	O	0.600281	-0.146152	0.344163
O218	O	1.100281	0.353848	0.844163
O219	O	0.744376	-0.002101	0.344182
O220	O	1.244376	0.497899	0.844182
H221	H	0.246123	0.071339	0.000104
H222	H	0.746123	0.571339	0.500104
O223	O	0.490231	-0.180430	0.000099
O224	O	0.990231	0.319570	0.500099
C225	C	0.524158	-0.183967	0.051046
C226	C	1.024158	0.316033	0.551046
H227	H	0.539200	-0.138997	0.068041
H228	H	1.039200	0.361003	0.568041
H229	H	0.562932	-0.206439	0.039577
H230	H	1.062932	0.293561	0.539577
H231	H	0.497776	-0.209323	0.086718
H232	H	0.997776	0.290677	0.586718
O233	O	0.556664	-0.189826	0.561117
O234	O	1.056664	0.310174	1.061117
C235	C	0.586951	-0.224806	0.596945
C236	C	1.086951	0.275194	1.096945
H237	H	0.631858	-0.225548	0.578288
H238	H	1.131858	0.274452	1.078288
H239	H	0.563450	-0.270189	0.597645
H240	H	1.063450	0.229811	1.097645
H241	H	0.590036	-0.206968	0.643873
H242	H	1.090036	0.293032	1.143873
O243	O	0.573990	0.080053	0.000035
O244	O	1.073990	0.580053	0.500035
C245	C	0.585835	0.022777	0.000054
C246	C	1.085835	0.522777	0.500054
H247	H	0.630560	0.020751	-0.018559
H248	H	1.130560	0.520751	0.481441
H249	H	0.552956	-0.004321	-0.028512
H250	H	1.052956	0.495679	0.471488
H251	H	0.583566	0.005585	0.047247
H252	H	1.083566	0.505585	0.547247
H253	H	0.404512	0.017441	0.000056
H254	H	0.904512	0.517441	0.500056
H255	H	-0.167632	-0.164421	0.000059
H256	H	0.332368	0.335579	0.500059
O257	O	0.788111	0.041558	0.560970
O258	O	1.288111	0.541558	1.060970
C259	C	0.822467	0.075913	0.520351
C260	C	1.322467	0.575913	1.020351
H261	H	0.822962	0.052560	0.476216
H262	H	1.322962	0.552560	0.976216
H263	H	0.868002	0.084831	0.538225
H264	H	1.368002	0.584831	1.038225
H265	H	0.804220	0.118129	0.513768
H266	H	1.304220	0.618129	1.013768
O267	O	0.556527	-0.189698	0.439007
O268	O	1.056527	0.310302	0.939007
C269	C	0.521575	-0.159379	0.403180
C270	C	1.021575	0.340621	0.903180
H271	H	0.520873	-0.114466	0.421834
H272	H	1.020873	0.385534	0.921834
H273	H	0.476177	-0.182844	0.402486
H274	H	0.976177	0.317156	0.902486
H275	H	0.539411	-0.156311	0.356250
H276	H	1.039411	0.343689	0.856250
H277	H	0.098544	-0.219617	0.000046
H278	H	0.598544	0.280383	0.500046
O279	O	0.595474	-0.150900	0.276192
O280	O	1.095474	0.349100	0.776192
C281	C	0.561109	-0.185266	0.235592
C282	C	1.061109	0.314734	0.735592
H283	H	0.560606	-0.161926	0.191450
H284	H	1.060606	0.338074	0.691450
H285	H	0.515577	-0.194176	0.253480
H286	H	1.015577	0.305824	0.753480
H287	H	0.579353	-0.227485	0.229015
H288	H	1.079353	0.272515	0.729015
O289	O	0.517357	0.463401	0.000109
O290	O	1.017357	0.963401	0.500109
C291	C	0.513820	0.497351	0.051042
C292	C	1.013820	0.997351	0.551042
H293	H	0.543488	0.483474	0.086663
H294	H	1.043488	0.983474	0.586663
H295	H	0.467884	0.491761	0.068127
H296	H	0.967884	0.991761	0.568127
H297	H	0.527226	0.544270	0.039522
H298	H	1.027226	1.044270	0.539522
O299	O	-0.145437	0.032231	0.000001
O300	O	0.354563	0.532231	0.500001
C301	C	-0.126626	0.063642	-0.050949
C302	C	0.373374	0.563642	0.449051
H303	H	-0.085513	0.048358	-0.067940
H304	H	0.414487	0.548358	0.432060
H305	H	-0.118114	0.111114	-0.039485
H306	H	0.381886	0.611114	0.460515
H307	H	-0.161038	0.056854	-0.086623
H308	H	0.338962	0.556854	0.413377
H309	H	0.742973	-0.003516	0.271379
H310	H	1.242973	0.496484	0.771379
H311	H	0.743005	-0.003494	0.728706
H312	H	1.243005	0.496506	1.228706
O313	O	0.595602	-0.150909	0.154147
O314	O	1.095602	0.349091	0.654147
C315	C	0.625895	-0.185901	0.118337
C316	C	1.125895	0.314099	0.618337
H317	H	0.670590	-0.162998	0.109062
H318	H	1.170590	0.337002	0.609062
H319	H	0.602074	-0.195024	0.074795
H320	H	1.102074	0.304976	0.574795
H321	H	0.629516	-0.227978	0.142195
H322	H	1.129516	0.272022	0.642195
H323	H	0.526850	0.352066	0.000013
H324	H	1.026850	0.852066	0.500013
H325	H	0.512280	0.016146	0.000054
H326	H	1.012280	0.516146	0.500054
O327	O	0.787896	0.041695	0.439029
O328	O	1.287896	0.541695	0.939029
C329	C	0.757464	0.076671	0.403348
C330	C	1.257464	0.576671	0.903348
H331	H	0.712844	0.053631	0.393991
H332	H	1.212844	0.553631	0.893991
H333	H	0.781282	0.086034	0.359840
H334	H	1.281282	0.586034	0.859840
H335	H	0.753660	0.118629	0.427361
H336	H	1.253660	0.618629	0.927361
H337	H	-0.034198	0.022693	0.000084
H338	H	0.465802	0.522693	0.500084
O339	O	0.749072	0.002607	0.845996
O340	O	1.249072	0.502607	1.345996
C341	C	0.740728	-0.005751	0.907286
C342	C	1.240728	0.494249	1.407286
H343	H	0.695331	-0.027270	0.915741
H344	H	1.195331	0.472730	1.415741
H345	H	0.747305	0.037412	0.930820
H346	H	1.247305	0.537412	1.430820
H347	H	0.772800	-0.034150	0.924856
H348	H	1.272800	0.465850	1.424856
H349	H	0.742969	-0.003535	0.159057
H350	H	1.242969	0.496465	0.659057
O351	O	-0.056239	-0.173894	0.000131
O352	O	0.443761	0.326106	0.500131
C353	C	-0.022321	-0.177432	0.051085
C354	C	0.477679	0.322568	0.551085
H355	H	-0.007277	-0.132462	0.068079
H356	H	0.492723	0.367538	0.568079
H357	H	0.016453	-0.199909	0.039623
H358	H	0.516453	0.300091	0.539623
H359	H	-0.048710	-0.202784	0.086754
H360	H	0.451290	0.297216	0.586754
H361	H	0.601694	-0.144737	0.841052
H362	H	1.101694	0.355263	1.341052
O363	O	0.825870	0.505484	0.000144
O364	O	1.325870	1.005484	0.500144
C365	C	0.828568	0.540255	0.051099
C366	C	1.328568	1.040255	0.551099
H367	H	0.783379	0.543019	0.068076
H368	H	1.283379	1.043019	0.568076
H369	H	0.850053	0.585016	0.039646
H370	H	1.350053	1.085016	0.539646
H371	H	0.854452	0.520847	0.086778
H372	H	1.354452	1.020847	0.586778
O373	O	0.134886	0.080884	0.000031
O374	O	0.634886	0.580884	0.500031
C375	C	0.153701	0.112302	-0.050914
C376	C	0.653701	0.612302	0.449086
H377	H	0.194812	0.097015	-0.067908
H378	H	0.694812	0.597015	0.432092
H379	H	0.162219	0.159772	-0.039441
H380	H	0.662219	0.659772	0.460559
H381	H	0.119289	0.105524	-0.086588
H382	H	0.619289	0.605524	0.413412
O383	O	0.778642	0.108001	0.000194
O384	O	1.278642	0.608001	0.500194
C385	C	0.782151	0.074057	0.051135
C386	C	1.282151	0.574057	0.551135
H387	H	0.752467	0.087943	0.086740
H388	H	1.252467	0.587943	0.586740
H389	H	0.828079	0.079645	0.068240
H390	H	1.328079	0.579645	0.568240
H391	H	0.768745	0.027138	0.039619
H392	H	1.268745	0.527138	0.539619
O393	O	0.595538	-0.150910	0.723957
O394	O	1.095538	0.349090	1.223957
C395	C	0.561164	-0.185251	0.764572
C396	C	1.061164	0.314749	1.264572
H397	H	0.584516	-0.185768	0.808705
H398	H	1.084516	0.314232	1.308705
H399	H	0.552216	-0.230781	0.746690
H400	H	1.052216	0.269219	1.246690
H401	H	0.518964	-0.166975	0.771164
H402	H	1.018964	0.333025	1.271164
H403	H	0.769159	0.219337	0.000071
H404	H	1.269159	0.719337	0.500071
H405	H	0.378851	-0.170970	0.000041
H406	H	0.878851	0.329030	0.500041
H407	H	0.819097	0.391900	0.000072
H408	H	1.319097	0.891900	0.500072
O409	O	0.209752	-0.229171	0.000067
O410	O	0.709752	0.270829	0.500067
C411	C	0.164549	-0.274524	0.000049
C412	C	0.664549	0.225476	0.500049
H413	H	0.124283	-0.258788	0.018672
H414	H	0.624283	0.241212	0.518672
H415	H	0.176754	-0.311047	0.028607
H416	H	0.676754	0.188953	0.528607
H417	H	0.156057	-0.290410	-0.047145
H418	H	0.656057	0.209590	0.452855
H419	H	0.763906	0.658056	0.000054
H420	H	1.263906	1.158056	0.500054
H421	H	0.574207	0.740136	0.000035
H422	H	1.074207	1.240136	0.500035
O423	O	0.770662	0.771678	0.000017
O424	O	1.270662	1.271678	0.500017
C425	C	0.758817	0.828954	0.000025
C426	C	1.258817	1.328954	0.500025
H427	H	0.714098	0.830978	-0.018599
H428	H	1.214098	1.330978	0.481401
H429	H	0.791705	0.856049	-0.028537
H430	H	1.291705	1.356049	0.471463
H431	H	0.761072	0.846150	0.047216
H432	H	1.261072	1.346150	0.547216
H433	H	0.575496	0.632386	0.000028
H434	H	1.075496	1.132386	0.500028
O435	O	0.572485	0.197142	0.000027
O436	O	1.072485	0.697142	0.500027
C437	C	0.527126	0.151944	0.000041
C438	C	1.027126	0.651944	0.500041
H439	H	0.542861	0.111674	-0.018569
H440	H	1.042861	0.611674	0.481431
H441	H	0.490613	0.164152	-0.028530
H442	H	0.990613	0.664152	0.471470
H443	H	0.511226	0.143460	0.047232
H444	H	1.011226	0.643460	0.547232
