data_functionalizedCrystal
_audit_creation_method	'MofGen! by Chris Wilmer'
_symmetry_space_group_name_H-M	'P1'
_symmetry_Int_Tables_number	1
_symmetry_cell_setting	triclinic
loop_
_symmetry_equiv_pos_as_xyz
  x,y,z
_cell_length_a	12.759401
_cell_length_b	12.645330
_cell_length_c	12.759393
_cell_angle_alpha	89.971662
_cell_angle_beta	89.979541
_cell_angle_gamma	90.019217
loop_
_atom_site_label
_atom_site_type_symbol
_atom_site_fract_x
_atom_site_fract_y
_atom_site_fract_z
Zn1	Zn	1.606240	-0.421952	-0.594031
Zn2	Zn	1.606123	-0.599250	-0.418356
Zn3	Zn	1.430540	-0.422006	-0.418366
Zn4	Zn	1.430521	-0.599178	-0.593993
O5	O	1.518356	-0.510597	-0.506187
O6	O	1.753245	-0.445478	-0.570739
O7	O	1.582791	-0.575791	-0.271336
O8	O	1.453903	-0.273652	-0.441689
O9	O	1.753159	-0.575739	-0.441671
O10	O	1.582989	-0.273612	-0.570749
O11	O	1.453790	-0.445571	-0.271344
O12	O	1.283516	-0.445501	-0.441652
O13	O	1.453871	-0.575616	-0.741019
O14	O	1.283502	-0.575669	-0.570684
O15	O	1.582971	-0.445408	-0.741047
O16	O	1.582772	-0.747588	-0.441634
O17	O	1.453758	-0.747535	-0.570674
C18	C	1.245388	-0.510584	-0.506166
C19	C	1.128612	-0.510604	-0.506182
C20	C	1.073770	-0.578485	-0.573263
C21	C	0.964046	-0.578489	-0.573284
C22	C	0.964015	-0.442727	-0.439133
C23	C	1.073737	-0.442719	-0.439118
C24	C	1.518279	-0.786026	-0.506172
C25	C	1.518342	-0.903856	-0.506201
C26	C	1.437514	-1.071431	-0.587630
C27	C	1.437101	-0.948872	-0.587368
C28	C	1.488368	-0.948458	-0.395479
C29	C	1.487875	-1.071056	-0.395973
C30	C	1.629639	-1.070941	-0.534596
C31	C	1.628958	-0.948334	-0.537017
C32	C	1.792389	-0.510610	-0.506208
C33	C	1.909166	-0.510616	-0.506217
C34	C	1.518432	-0.510498	-0.780220
C35	C	1.518465	-0.510456	-0.896997
C36	C	1.518461	-0.234091	-0.506224
C37	C	1.518506	-0.116261	-0.506241
C38	C	1.585663	-0.578183	-1.061590
C39	C	1.585637	-0.578233	-0.951866
C40	C	1.451306	-0.442632	-0.951857
C41	C	1.451327	-0.442588	-1.061579
C42	C	1.518340	-0.510618	-0.233219
C43	C	1.518511	-0.510362	-0.116443
H44	H	1.118446	-0.633759	-0.627873
H45	H	1.118390	-0.387435	-0.384493
O46	O	1.658119	-0.651287	-1.120762
H47	H	1.646863	-0.639858	-1.206275
H48	H	1.640319	-0.633460	-0.907210
O49	O	1.709630	-1.109576	-0.456251
H50	H	1.670485	-1.160778	-0.397378
O51	O	0.904840	-0.369515	-0.366789
H52	H	0.925875	-0.387597	-0.284305
O53	O	1.562603	-1.110358	-0.312897
H54	H	1.598927	-1.041795	-0.272542
H55	H	0.919399	-0.633763	-0.627910
O56	O	1.713085	-0.907742	-0.464192
H57	H	1.772234	-0.862908	-0.510019
H58	H	1.406635	-1.099751	-0.371952
H59	H	1.407976	-0.917850	-0.371023
O60	O	1.378857	-0.369520	-0.892685
H61	H	1.390133	-0.380933	-0.807172
O62	O	1.378906	-0.369425	-1.120755
H63	H	1.296435	-0.387597	-1.099680
H64	H	1.455855	-0.918712	-0.669468
O65	O	1.461739	-1.110891	-0.696646
H66	H	1.531811	-1.162811	-0.694002
H67	H	1.355640	-1.102335	-0.569085
O68	O	1.327977	-0.910135	-0.562458
H69	H	1.275297	-0.978970	-0.550544
H70	H	1.545488	-0.919302	-0.333180
H71	H	1.656982	-1.101779	-0.613962
O72	O	1.658924	-0.909700	-0.644943
H73	H	1.595311	-0.859027	-0.676513
