data_functionalizedCrystal
_audit_creation_method	'MofGen! by Chris Wilmer'
_symmetry_space_group_name_H-M	'P1'
_symmetry_Int_Tables_number	1
_symmetry_cell_setting	triclinic
loop_
_symmetry_equiv_pos_as_xyz
  x,y,z
_cell_length_a	14.908571
_cell_length_b	16.625545
_cell_length_c	14.908308
_cell_angle_alpha	86.733823
_cell_angle_beta	89.824947
_cell_angle_gamma	86.721711
loop_
_atom_site_label
_atom_site_type_symbol
_atom_site_fract_x
_atom_site_fract_y
_atom_site_fract_z
Zn1	Zn	1.345254	-0.420777	0.587574
Zn2	Zn	1.353821	-0.548312	0.437212
Zn3	Zn	1.203571	-0.405290	0.428572
Zn4	Zn	1.194849	-0.547354	0.578863
O5	O	1.274374	-0.480433	0.508055
O6	O	1.472216	-0.444577	0.574889
O7	O	1.341126	-0.523259	0.310241
O8	O	1.222429	-0.294517	0.449694
O9	O	1.478510	-0.538276	0.464419
O10	O	1.326523	-0.305895	0.566512
O11	O	1.230737	-0.418182	0.303894
O12	O	1.076588	-0.417253	0.441247
O13	O	1.207565	-0.536644	0.705843
O14	O	1.070181	-0.521626	0.551666
O15	O	1.318067	-0.443648	0.712243
O16	O	1.332669	-0.661012	0.455973
O17	O	1.215873	-0.660308	0.560043
C18	C	1.040760	-0.467656	0.494574
C19	C	0.940817	-0.462210	0.488829
C20	C	0.746400	-0.560813	0.592856
C21	C	0.652495	-0.555699	0.587460
C22	C	0.659100	-0.446864	0.472647
C23	C	0.753005	-0.451979	0.478042
C24	C	0.796652	-0.508956	0.538148
C25	C	0.890559	-0.514073	0.543538
C26	C	0.897162	-0.405235	0.428730
C27	C	0.803257	-0.400121	0.423335
C28	C	1.274278	-0.689917	0.508021
C29	C	1.274317	-0.779542	0.508042
C30	C	1.274351	-0.852327	0.508062
C31	C	1.274402	-0.943639	0.508084
C32	C	1.274448	-1.016419	0.508098
C33	C	1.274499	-1.107737	0.508120
C34	C	1.508900	-0.493261	0.521589
C35	C	1.608841	-0.498728	0.527357
C36	C	1.260888	-0.491767	0.742580
C37	C	1.255140	-0.496596	0.842521
C38	C	1.274494	-0.270133	0.508110
C39	C	1.274545	-0.180516	0.508134
C40	C	1.287859	-0.469089	0.274446
C41	C	1.293781	-0.464041	0.174516
C42	C	1.359404	-0.408817	1.036985
C43	C	1.354007	-0.413352	1.130889
C44	C	1.238945	-0.510197	1.124232
C45	C	1.244342	-0.505662	1.030329
C46	C	1.304575	-0.454971	0.986709
C47	C	1.309976	-0.450441	0.892804
C48	C	1.194910	-0.547281	0.886149
C49	C	1.189513	-0.551816	0.980053
H50	H	0.926094	-0.560468	0.592478
C51	C	1.172673	-0.565931	1.172229
N52	N	1.122750	-0.607905	1.208382
H53	H	1.140472	-0.593085	1.015581
C54	C	0.794413	-0.623491	0.658968
N55	N	0.830575	-0.670700	0.708766
H56	H	1.398652	-0.375766	1.171820
C57	C	1.376229	-0.394677	0.844824
N58	N	1.426129	-0.352672	0.808687
C59	C	0.611072	-0.384187	0.406545
N60	N	0.574896	-0.336977	0.356758
H61	H	1.150267	-0.584865	0.845204
H62	H	0.611583	-0.597926	0.632011
C63	C	1.425663	-0.353061	0.989002
N64	N	1.475570	-0.311064	0.952862
H65	H	0.767707	-0.353730	0.374401
H66	H	0.938087	-0.363010	0.384181
