data_functionalizedCrystal
_audit_creation_method	'MofGen! by Chris Wilmer'
_symmetry_space_group_name_H-M	'P1'
_symmetry_Int_Tables_number	1
_symmetry_cell_setting	triclinic
loop_
_symmetry_equiv_pos_as_xyz
  x,y,z
_cell_length_a	23.096457
_cell_length_b	20.919309
_cell_length_c	20.919309
_cell_angle_alpha	60.101124
_cell_angle_beta	89.999751
_cell_angle_gamma	62.591463
loop_
_atom_site_label
_atom_site_type_symbol
_atom_site_fract_x
_atom_site_fract_y
_atom_site_fract_z
Zr1	Zr	0.585938	0.692446	-0.106857
O2	O	0.501546	0.817971	-0.209953
O3	O	0.608431	0.561618	-0.071789
O4	O	0.617465	0.684800	-0.204963
O5	O	0.489229	0.702670	0.024331
O6	O	0.712745	0.684802	-0.204966
O7	O	0.492513	0.694789	-0.076779
O8	O	0.696587	0.464451	0.033257
O9	O	0.505388	0.923021	-0.213893
O10	O	0.693212	0.617395	-0.061021
O11	O	0.619655	0.623275	0.014439
O12	O	0.630290	0.768307	-0.142355
O13	O	0.556733	0.774187	-0.066896
Zr14	Zr	0.732663	0.705018	0.054395
Zr15	Zr	0.737900	0.692449	-0.106863
Zr16	Zr	0.580701	0.705015	0.054401
Zr17	Zr	0.592066	0.859988	-0.113141
Zr18	Zr	0.726535	0.537476	0.060679
O19	O	0.710169	0.835846	0.019327
O20	O	0.717616	0.817975	-0.209961
O21	O	0.494100	0.835843	0.019336
O22	O	0.817055	0.579493	0.157491
O23	O	0.824501	0.561621	-0.071798
O24	O	0.600985	0.579489	0.157499
O25	O	0.829372	0.694794	-0.076792
O26	O	0.701136	0.712664	0.152501
O27	O	0.605856	0.712663	0.152505
O28	O	0.826088	0.702675	0.024317
O29	O	0.626177	0.923023	-0.213897
O30	O	0.692424	0.474441	0.161435
O31	O	0.813213	0.474443	0.161431
O32	O	0.817376	0.464453	0.033252
O33	O	0.501225	0.933012	-0.085714
O34	O	0.622014	0.933013	-0.085719
O35	O	0.688311	0.629158	0.089893
O36	O	0.761868	0.623277	0.014434
O37	O	0.698946	0.774189	-0.066901
O38	O	0.625389	0.780069	0.008559
C39	C	0.651636	0.489163	-0.018371
C40	C	0.649035	0.418037	-0.015703
C41	C	0.686207	0.381553	-0.053839
C42	C	0.683764	0.314718	-0.051326
C43	C	0.644145	0.284374	-0.010680
C44	C	0.606972	0.320862	0.027461
C45	C	0.609419	0.387691	0.024951
C46	C	0.634840	0.082743	-0.001127
C47	C	0.632394	0.015911	0.001378
C48	C	0.709188	0.009772	-0.077408
C49	C	0.711628	0.076606	-0.079918
C50	C	0.674457	0.113084	-0.041774
C51	C	0.641646	0.216060	-0.008111
C52	C	0.676961	0.181393	-0.044338
C53	C	0.469220	0.698729	-0.026223
C54	C	0.404708	0.698728	-0.026221
C55	C	0.407247	0.619956	0.016228
C56	C	0.346632	0.619955	0.016231
C57	C	0.283478	0.698730	-0.026229
C58	C	0.280942	0.777513	-0.068680
C59	C	0.341557	0.777512	-0.068676
N60	N	0.164992	0.754655	-0.092620
N61	N	0.107413	0.754650	-0.092622
C62	C	0.100846	0.698737	-0.026243
N63	N	0.154040	0.642814	0.040139
N64	N	0.211626	0.642816	0.040140
C65	C	0.217747	0.698739	-0.026238
C66	C	0.037661	0.619958	0.016213
C67	C	-0.022957	0.619960	0.016219
C68	C	-0.088647	0.777520	-0.068700
C69	C	-0.028029	0.777516	-0.068698
C70	C	0.035122	0.698732	-0.026243
C71	C	0.849381	0.698735	-0.026238
C72	C	0.913893	0.698736	-0.026241
C73	C	0.665851	0.683010	-0.227940
C74	C	0.668074	0.677674	-0.296399
C75	C	0.666965	0.908301	-0.034091
C76	C	0.669566	0.979427	-0.036759
C77	C	0.636275	0.753940	-0.371016
C78	C	0.638373	0.748921	-0.435338
C79	C	0.672266	0.667636	-0.425039
C80	C	0.704069	0.591364	-0.350414
C81	C	0.701975	0.596384	-0.286094
C82	C	0.680236	0.648538	-0.617118
C83	C	0.682326	0.643525	-0.681445
C84	C	0.616630	0.801082	-0.766365
C85	C	0.614536	0.806094	-0.702040
C86	C	0.646342	0.729823	-0.627421
C87	C	0.674409	0.662504	-0.490785
C88	C	0.644202	0.734956	-0.561677
C89	C	0.652750	0.714454	0.175478
C90	C	0.650527	0.719790	0.243937
C91	C	0.841717	0.489166	-0.018378
C92	C	0.903627	0.418041	-0.015713
C93	C	0.645085	0.504885	0.183338
C94	C	0.640261	0.439095	0.254464
C95	C	0.835166	0.504888	0.183331
C96	C	0.894853	0.439099	0.254454
C97	C	0.483435	0.892576	-0.235793
C98	C	0.423748	0.958365	-0.306916
C99	C	0.476884	0.908298	-0.034083
C100	C	0.414974	0.979423	-0.036748
C101	C	0.673515	0.892579	-0.235800
C102	C	0.678340	0.958369	-0.306926
C103	C	0.896863	0.381569	-0.053855
C104	C	0.955030	0.314748	-0.051366
C105	C	1.019959	0.284396	-0.010731
C106	C	1.026722	0.320875	0.027411
C107	C	0.968556	0.387699	0.024918
C108	C	0.673833	0.411271	0.327259
C109	C	0.669297	0.349464	0.394095
C110	C	0.631193	0.315478	0.388135
C111	C	0.597617	0.343309	0.315333
C112	C	0.602149	0.405119	0.248498
C113	C	0.961286	0.405135	0.248465
C114	C	1.017374	0.343328	0.315287
C115	C	1.007029	0.315482	0.388097
C116	C	0.940590	0.349453	0.394084
C117	C	0.884503	0.411264	0.327263
C118	C	0.357316	0.992338	-0.300928
C119	C	0.301228	1.054165	-0.367750
C120	C	0.311573	1.082014	-0.440560
C121	C	0.378012	1.048039	-0.446547
C122	C	0.434099	0.986217	-0.379726
C123	C	0.421738	1.015901	0.001386
C124	C	0.363573	1.082740	-0.001121
C125	C	0.298644	1.113094	-0.041759
C126	C	0.291881	1.076612	-0.079898
C127	C	0.350046	1.009779	-0.077395
C128	C	0.716450	0.992335	-0.300942
C129	C	0.720996	1.054143	-0.367765
C130	C	0.687428	1.081989	-0.440573
C131	C	0.649317	1.048016	-0.446557
C132	C	0.644775	0.986204	-0.379733
H133	H	0.600128	-0.008791	0.034476
C134	C	0.692430	1.149986	-0.514074
N135	N	0.696199	1.201203	-0.569433
C136	C	0.947575	0.274626	-0.093320
N137	N	0.941958	0.244406	-0.124918
C138	C	1.083936	0.210881	-0.007989
N139	N	1.132121	0.155506	-0.005924
C140	C	0.228151	1.091526	-0.361147
N141	N	0.173111	1.119664	-0.356171
H142	H	1.052705	0.265152	0.442500
C143	C	0.342593	0.969650	-0.119339
N144	N	0.336974	0.939427	-0.150932
H145	H	0.974073	0.417387	0.055982
C146	C	0.602839	0.948860	-0.386330
N147	N	0.571249	0.920737	-0.391305
C148	C	-0.158113	0.864174	-0.115405
N149	N	-0.210439	0.929444	-0.150584
C150	C	0.593974	0.122835	0.040861
N151	N	0.563202	0.153025	0.072500
C152	C	1.098150	0.287471	0.072114
N153	N	1.151952	0.262305	0.105789
H154	H	0.612480	0.811024	-0.496093
C155	C	0.724639	0.274608	-0.093300
N156	N	0.755422	0.244404	-0.124924
H157	H	0.265897	1.132354	-0.494964
C158	C	0.389380	1.078674	-0.526645
N159	N	0.397940	1.101744	-0.586977
H160	H	0.696642	0.326812	0.453367
H161	H	0.743785	0.969674	-0.241664
C162	C	0.493156	0.982529	0.046089
N163	N	0.546946	0.957401	0.079757
C164	C	0.715748	0.448649	0.333834
N165	N	0.747316	0.476804	0.338792
C166	C	0.371027	1.122851	0.040844
N167	N	0.376643	1.153059	0.072455
H168	H	0.709222	0.206098	-0.077429
C169	C	0.107130	0.533295	0.062923
N170	N	0.159452	0.468021	0.098107
H171	H	0.488189	0.958556	-0.384611
C172	C	1.090451	0.305962	0.308684
N173	N	1.145491	0.277818	0.303708
C174	C	0.234667	1.186609	-0.044500
N175	N	0.186481	1.241979	-0.046560
C176	C	0.626222	0.247477	0.461664
N177	N	0.622484	0.196254	0.517048
H178	H	0.932177	0.326772	0.453375
H179	H	0.239008	1.101337	-0.112984
C180	C	0.762918	1.091507	-0.361167
N181	N	0.794493	1.119648	-0.356194
C182	C	0.715217	0.564637	-0.535044
N183	N	0.741565	0.501439	-0.473221
C184	C	0.612424	1.078623	-0.526652
N185	N	0.584644	1.101669	-0.586982
H186	H	0.566593	0.315629	0.310492
H187	H	0.586939	0.872285	-0.710434
H188	H	-0.030100	0.841661	-0.103269
C189	C	0.729792	0.414925	-0.098553
N190	N	0.762624	0.440056	-0.132230
H191	H	0.579147	0.417398	0.056004
H192	H	0.830412	0.438910	0.332150
C193	C	0.755215	0.109977	-0.124629
N194	N	0.788044	0.135113	-0.158306
C195	C	0.565223	0.435709	0.168426
N196	N	0.537408	0.458745	0.108117
C197	C	0.972682	0.435758	0.168381
N198	N	0.981272	0.458824	0.108062
H199	H	0.739451	-0.019936	-0.108462
C200	C	0.349422	0.533295	0.062926
N201	N	0.351526	0.468023	0.098096
C202	C	0.563390	0.287480	0.072172
N203	N	0.530561	0.262341	0.105846
C204	C	0.211471	0.864165	-0.115389
N205	N	0.159145	0.929435	-0.150572
H206	H	0.458664	0.555803	0.050793
C207	C	0.741351	0.501950	-0.339087
N208	N	0.769428	0.434600	-0.330555
H209	H	0.609388	0.191346	0.024982
H210	H	0.339484	0.841660	-0.103241
H211	H	-0.020884	0.555812	0.050791
H212	H	0.727869	0.534280	-0.225337
H213	H	0.348879	0.969666	-0.241648
H214	H	0.608671	0.820131	-0.379411
H215	H	0.709925	0.577329	-0.673052
C216	C	0.606924	0.824367	-0.573002
N217	N	0.578844	0.891712	-0.581526
H218	H	0.590736	0.863177	-0.827125
H219	H	0.702005	0.596321	-0.482407
H220	H	0.844000	0.406280	-0.086954
