data_functionalizedCrystal
_audit_creation_method	'MofGen! by Chris Wilmer'
_symmetry_space_group_name_H-M	'P1'
_symmetry_Int_Tables_number	1
_symmetry_cell_setting	triclinic
loop_
_symmetry_equiv_pos_as_xyz
  x,y,z
_cell_length_a	12.811438
_cell_length_b	27.732048
_cell_length_c	11.295501
_cell_angle_alpha	94.633900
_cell_angle_beta	89.162246
_cell_angle_gamma	83.348002
loop_
_atom_site_label
_atom_site_type_symbol
_atom_site_fract_x
_atom_site_fract_y
_atom_site_fract_z
O1	O	1.388384	0.063612	-0.050917
O2	O	1.084762	0.071655	-0.018119
O3	O	1.246001	-0.002742	-0.035559
O4	O	1.227145	0.138009	-0.033477
O5	O	1.233553	-0.008538	-0.232267
O6	O	1.072314	0.065859	-0.214827
O7	O	1.375936	0.057816	-0.247625
Cu8	Cu	1.222988	0.061308	-0.249187
Cu9	Cu	1.237710	0.068163	-0.016557
O10	O	1.214697	0.132213	-0.230185
C11	C	1.039706	0.068484	-0.112279
C12	C	0.923998	0.067663	-0.099781
C13	C	0.767696	0.069666	0.025046
C14	C	0.876414	0.070437	0.013313
C15	C	0.862857	0.064117	-0.201150
C16	C	0.754139	0.063346	-0.189417
C17	C	0.706562	0.066121	-0.076315
C18	C	0.597841	0.065354	-0.064584
C19	C	0.584288	0.059031	-0.279046
C20	C	0.693006	0.059802	-0.290779
C21	C	1.239381	-0.023648	-0.133874
C22	C	1.238189	-0.077306	-0.133755
C23	C	1.325971	-0.415916	-0.143176
C24	C	1.321549	-0.617586	-0.142682
O25	O	1.401819	-0.648654	-0.151300
N26	N	1.225939	-0.636931	-0.132355
C27	C	1.131429	-0.605855	-0.122143
O28	O	1.050007	-0.626936	-0.113336
C29	C	1.135853	-0.404186	-0.122629
C30	C	1.231467	-0.384844	-0.132969
C31	C	1.421578	-0.396574	-0.153513
C32	C	1.422682	-0.346160	-0.153643
C33	C	1.328179	-0.315088	-0.143436
C34	C	1.232572	-0.334430	-0.133098
C35	C	1.041344	-0.373111	-0.112409
C36	C	1.042459	-0.322691	-0.112529
C37	C	1.138074	-0.303349	-0.122868
C38	C	1.139173	-0.252944	-0.123021
N39	N	1.234782	-0.233599	-0.133348
C40	C	1.329285	-0.264671	-0.143555
C41	C	1.129113	-0.711734	-0.121891
C42	C	1.128007	-0.762151	-0.121772
C43	C	1.318127	-0.773879	-0.142308
C44	C	1.319232	-0.723461	-0.142436
C45	C	1.224723	-0.692389	-0.132218
C46	C	1.331596	-0.158797	-0.143828
C47	C	1.332692	-0.108378	-0.143962
C48	C	1.142573	-0.096655	-0.123420
C49	C	1.141476	-0.147069	-0.123292
C50	C	1.235997	-0.178140	-0.133493
O51	O	1.058946	-0.221847	-0.114394
O52	O	1.410697	-0.243580	-0.152334
C53	C	1.324866	-0.466331	-0.143046
C54	C	1.229259	-0.485673	-0.132709
C55	C	1.134756	-0.454601	-0.122501
C56	C	1.228153	-0.536090	-0.132589
C57	C	1.322656	-0.567162	-0.142797
C58	C	1.418265	-0.547817	-0.153123
C59	C	1.419370	-0.497403	-0.153253
C60	C	1.039147	-0.473946	-0.112175
C61	C	1.038051	-0.524360	-0.112047
C62	C	1.132554	-0.555432	-0.122254
C63	C	1.420992	0.060987	-0.153463
C64	C	1.536700	0.061808	-0.165953
C65	C	1.221317	0.153119	-0.131868
C66	C	1.222510	0.206777	-0.131979
N67	N	1.212642	0.056486	-0.412807
C68	C	1.322532	0.107712	-0.673951
C69	C	1.314721	0.104064	-0.797772
C70	C	1.189216	0.045541	-0.784274
C71	C	1.197027	0.049189	-0.660452
C72	C	1.263686	0.080276	-0.605296
C73	C	1.271490	0.083926	-0.481471
C74	C	1.145991	0.025400	-0.467976
C75	C	1.138181	0.021753	-0.591797
N76	N	1.248064	0.072980	0.147062
H77	H	0.559106	0.067616	0.027510
N78	N	0.744323	0.056809	-0.412762
H79	H	0.822473	0.057835	-0.404816
H80	H	0.713428	0.085253	-0.456554
N81	N	0.716383	0.072659	0.147031
H82	H	0.680510	0.042525	0.155709
H83	H	0.662696	0.102454	0.157577
H84	H	1.083912	-0.003559	-0.636723
H85	H	0.926185	0.073323	0.095853
H86	H	1.134957	0.020226	-0.829205
N87	N	1.378209	0.133647	-0.871826
H88	H	1.421625	0.153890	-0.818092
H89	H	1.329154	0.155807	-0.918264
H90	H	1.098069	0.003062	-0.412063
H91	H	1.325763	0.109240	-0.436564
N92	N	0.937216	-0.440434	-0.101171
H93	H	0.900077	-0.444491	-0.023743
H94	H	0.890940	-0.448820	-0.169641
H95	H	0.534500	0.056147	-0.361582
N96	N	1.435822	-0.087517	-0.155121
H97	H	1.495519	-0.114855	-0.161564
H98	H	1.445041	-0.064699	-0.082701
N99	N	0.914187	0.061123	-0.323127
H100	H	0.883377	0.089562	-0.366994
H101	H	0.901221	0.029635	-0.368841
N102	N	1.433540	-0.192304	-0.154831
H103	H	1.494267	-0.172394	-0.161400
H104	H	1.432611	-0.215632	-0.228149
H105	H	0.963485	-0.388849	-0.103983
N106	N	1.522496	-0.476543	-0.164391
H107	H	1.522587	-0.458041	-0.237822
H108	H	1.582131	-0.503907	-0.170784
N109	N	1.520195	-0.581336	-0.164143
H110	H	1.504976	-0.616208	-0.162493
H111	H	1.566516	-0.572933	-0.095728
H112	H	1.500541	-0.330417	-0.162057
H113	H	0.960183	-0.540103	-0.103637
N114	N	1.523511	-0.430086	-0.164531
H115	H	1.569881	-0.421721	-0.096128
H116	H	1.560548	-0.426008	-0.242004
N117	N	1.422361	-0.702604	-0.153584
H118	H	1.431681	-0.679795	-0.081174
H119	H	1.422377	-0.684126	-0.227053
N120	N	1.420057	-0.807397	-0.153321
H121	H	1.404839	-0.842269	-0.151675
H122	H	1.466371	-0.798994	-0.084899
N123	N	1.024879	-0.783011	-0.110652
H124	H	0.965185	-0.755672	-0.104205
H125	H	1.024883	-0.801521	-0.037234
N126	N	1.027172	-0.678224	-0.110872
H127	H	0.966445	-0.698134	-0.104317
H128	H	1.018871	-0.659203	-0.183397
N129	N	1.038352	-0.167935	-0.112157
H130	H	0.978653	-0.140599	-0.105715
H131	H	1.038368	-0.186440	-0.038729
N132	N	0.940522	-0.289177	-0.101502
H133	H	0.879790	-0.309084	-0.094934
H134	H	0.932217	-0.270157	-0.174028
N135	N	1.040646	-0.063138	-0.112443
H136	H	1.055863	-0.028265	-0.114098
H137	H	1.003544	-0.067228	-0.035018
H138	H	1.376798	0.133029	-0.629040
