data_functionalizedCrystal
_audit_creation_method	'MofGen! by Chris Wilmer'
_symmetry_space_group_name_H-M	'P1'
_symmetry_Int_Tables_number	1
_symmetry_cell_setting	triclinic
loop_
_symmetry_equiv_pos_as_xyz
  x,y,z
_cell_length_a	6.817900
_cell_length_b	17.982783
_cell_length_c	11.102193
_cell_angle_alpha	94.235533
_cell_angle_beta	108.604059
_cell_angle_gamma	102.448572
loop_
_atom_site_label
_atom_site_type_symbol
_atom_site_fract_x
_atom_site_fract_y
_atom_site_fract_z
V1	V	-4.080364	-0.105417	-0.396785
O2	O	-4.072043	0.005060	-0.388689
O3	O	-4.026527	-0.209020	-0.394593
O4	O	-4.057617	-0.103798	-0.569599
O5	O	-4.040738	-0.100890	-0.212472
V6	V	-4.561372	-0.092203	-0.374676
O7	O	-4.347138	-0.134405	-0.445282
O8	O	-4.744795	-0.063215	-0.326179
O9	O	-4.392003	0.011399	-0.376868
O10	O	-4.687090	-0.202680	-0.382772
O11	O	-4.718395	-0.096731	-0.558989
O12	O	-4.360913	-0.093822	-0.201863
C13	C	-3.869375	-0.234276	-0.388469
C14	C	-3.906814	-0.318972	-0.387829
C15	C	-3.867452	-0.347880	-0.271089
C16	C	-3.902651	-0.427462	-0.270492
C17	C	-3.977198	-0.478134	-0.386636
C18	C	-4.016568	-0.449221	-0.503385
C19	C	-3.981383	-0.369640	-0.503981
C20	C	-4.158467	-0.770159	-0.500984
C21	C	-4.193644	-0.849743	-0.500379
C22	C	-4.079735	-0.827980	-0.267494
C23	C	-4.044550	-0.748400	-0.268090
C24	C	-4.083934	-0.719494	-0.384839
C25	C	-4.045770	-0.633202	-0.385485
C26	C	-4.015347	-0.564424	-0.385991
C27	C	-3.909032	-0.100054	-0.611703
C28	C	-3.971681	-0.099416	-0.752983
C29	C	-4.050774	-0.238962	-0.790008
C30	C	-4.119745	-0.308432	-0.874892
C31	C	-4.178610	-0.307828	-1.007635
C32	C	-4.168506	-0.237746	-1.055495
C33	C	-4.099535	-0.168277	-0.970612
C34	C	-4.040667	-0.168888	-0.837867
C35	C	-4.020457	-0.028733	-0.933587
C36	C	-3.961577	-0.029335	-0.800843
C37	C	-4.010354	0.041349	-0.981448
C38	C	-3.941367	0.110820	-0.896563
C39	C	-3.882498	0.110214	-0.763813
C40	C	-3.892606	0.040135	-0.715960
C41	C	-4.212496	0.036651	-0.382989
C42	C	-4.154296	0.121347	-0.383637
C43	C	-4.172839	-0.097568	-0.159751
C44	C	-4.089428	-0.098203	-0.018471
H45	H	-4.190511	-0.746633	-0.596047
H46	H	-4.077281	-0.490484	-0.597952
C47	C	-4.024679	-0.337842	-0.632404
N48	N	-4.057295	-0.313894	-0.729137
C49	C	-3.785448	-0.292147	-0.143318
N50	N	-3.723689	-0.250171	-0.047078
H51	H	-4.254350	-0.891000	-0.594963
H52	H	-4.002816	-0.239460	-0.681923
C53	C	-3.806629	0.186638	-0.670449
N54	N	-3.749480	0.244202	-0.600132
C55	C	-3.962542	-0.692664	-0.140323
N56	N	-3.900780	-0.650685	-0.044086
H57	H	-4.127971	-0.365491	-0.835909
C58	C	-4.254479	-0.384247	-1.101009
N59	N	-4.311619	-0.441807	-1.171339
C60	C	-4.233268	-0.237086	-1.201517
N61	N	-4.282040	-0.236588	-1.311503
H62	H	-4.058303	0.041835	-1.089536
H63	H	-3.933162	0.167875	-0.935543
H64	H	-3.844664	0.039635	-0.607875
H65	H	-3.870602	-0.450994	-0.175430
H66	H	-4.047678	-0.851524	-0.172432
