data_functionalizedCrystal
_audit_creation_method	'MofGen! by Chris Wilmer'
_symmetry_space_group_name_H-M	'P1'
_symmetry_Int_Tables_number	1
_symmetry_cell_setting	triclinic
loop_
_symmetry_equiv_pos_as_xyz
  x,y,z
_cell_length_a	11.792241
_cell_length_b	11.026607
_cell_length_c	9.482900
_cell_angle_alpha	78.613859
_cell_angle_beta	80.620039
_cell_angle_gamma	83.610284
loop_
_atom_site_label
_atom_site_type_symbol
_atom_site_fract_x
_atom_site_fract_y
_atom_site_fract_z
O1	O	1.526115	-0.185397	0.120750
O2	O	1.859448	0.147936	0.454083
O3	O	2.192781	0.481270	0.787416
O4	O	1.199178	-0.202567	0.120783
O5	O	1.532511	0.130766	0.454116
O6	O	1.865845	0.464100	0.787449
O7	O	1.335551	-0.017150	0.120764
O8	O	1.668884	0.316183	0.454097
O9	O	2.002217	0.649516	0.787430
O10	O	1.389742	-0.370814	0.120769
O11	O	1.723075	-0.037481	0.454102
O12	O	2.056409	0.295853	0.787435
O13	O	1.363299	0.020595	-0.121033
O14	O	1.696632	0.353928	0.212300
O15	O	2.029965	0.687261	0.545634
O16	O	1.226926	-0.164822	-0.121014
O17	O	1.560259	0.168511	0.212320
O18	O	1.893593	0.501845	0.545653
O19	O	1.553863	-0.147652	-0.121047
O20	O	1.887196	0.185681	0.212286
O21	O	2.220529	0.519015	0.545620
Cu22	Cu	1.392928	-0.152791	-0.143108
Cu23	Cu	1.726261	0.180543	0.190225
Cu24	Cu	2.059595	0.513876	0.523558
Cu25	Cu	1.360113	-0.197429	0.142844
Cu26	Cu	1.693446	0.135905	0.476177
Cu27	Cu	2.026779	0.469238	0.809511
O28	O	1.417490	-0.333069	-0.121028
O29	O	1.750823	0.000265	0.212306
O30	O	2.084157	0.333598	0.545639
C31	C	1.170547	-0.182617	-0.000111
C32	C	1.503880	0.150716	0.333222
C33	C	1.837213	0.484050	0.666555
C34	C	1.043891	-0.179392	-0.000098
C35	C	1.377224	0.153942	0.333235
C36	C	1.710557	0.487275	0.666568
N37	N	1.337031	-0.228816	0.343967
N38	N	1.670364	0.104518	0.677301
N39	N	2.003698	0.437851	1.010634
C40	C	1.339427	0.046998	-0.000132
C41	C	1.672760	0.380332	0.333201
C42	C	2.006094	0.713665	0.666535
C43	C	1.309623	0.181907	-0.000124
C44	C	1.642957	0.515241	0.333210
C45	C	1.976290	0.848574	0.666543
C46	C	0.812005	-0.173451	-0.000140
C47	C	1.145338	0.159882	0.333193
C48	C	1.478672	0.493216	0.666526
C49	C	0.941042	-0.176752	-0.000117
C50	C	1.274375	0.156582	0.333216
C51	C	1.607709	0.489915	0.666549
C52	C	1.582494	-0.167603	-0.000150
C53	C	1.915827	0.165731	0.333184
C54	C	2.249160	0.499064	0.666517
C55	C	1.709149	-0.170829	-0.000153
C56	C	2.042482	0.162504	0.333180
C57	C	2.375815	0.495837	0.666514
C58	C	1.413613	-0.397218	-0.000129
C59	C	1.746947	-0.063885	0.333204
C60	C	2.080280	0.269449	0.666538
C61	C	1.443416	-0.532128	-0.000128
C62	C	1.776749	-0.198795	0.333206
C63	C	2.110083	0.134538	0.666539
C64	C	1.391914	0.255172	-0.000130
C65	C	1.725248	0.588506	0.333203
C66	C	2.058581	0.921839	0.666537
C67	C	1.361113	0.394608	-0.000121
C68	C	1.694446	0.727941	0.333212
C69	C	2.027780	1.061275	0.666545
N70	N	1.416017	-0.121394	-0.344232
N71	N	1.749350	0.211939	-0.010898
N72	N	2.082683	0.545273	0.322435
C73	C	1.386128	-0.162057	0.416160
C74	C	1.719461	0.171276	0.749493
C75	C	2.052794	0.504610	1.082826
C76	C	1.366913	-0.188163	0.583580
C77	C	1.700246	0.145171	0.916913
C78	C	2.033580	0.478504	1.250247
H79	H	1.485170	0.214670	-0.000148
H80	H	1.818504	0.548004	0.333185
H81	H	2.151837	0.881337	0.666518
H82	H	1.267851	0.435104	-0.000103
H83	H	1.601184	0.768438	0.333231
H84	H	1.934517	1.101771	0.666564
H85	H	1.536665	0.427359	-0.000028
H86	H	1.869998	0.760692	0.333305
H87	H	2.203332	1.094025	0.666639
C88	C	1.183637	0.236619	-0.000113
C89	C	1.516970	0.569953	0.333220
C90	C	1.850304	0.903286	0.666554
N91	N	1.088742	0.277827	-0.000109
N92	N	1.422075	0.611161	0.333224
N93	N	1.755408	0.944494	0.666558
C94	C	1.462131	-0.058731	0.332219
C95	C	1.795465	0.274603	0.665552
C96	C	2.128798	0.607936	0.998886
N97	N	1.519377	0.019099	0.268997
N98	N	1.852710	0.352432	0.602330
N99	N	2.186044	0.685765	0.935664
C100	C	1.290904	-0.291493	0.667515
C101	C	1.624237	0.041841	1.000848
C102	C	1.957571	0.375174	1.334182
N103	N	1.233654	-0.369318	0.730737
N104	N	1.566987	-0.035984	1.064070
N105	N	1.900320	0.297349	1.397404
H106	H	1.472284	-0.044912	0.593636
H107	H	1.805617	0.288421	0.926969
H108	H	2.138951	0.621755	1.260303
H109	H	1.280777	-0.305302	0.406105
H110	H	1.614111	0.028032	0.739439
H111	H	1.947444	0.361365	1.072772
