data_functionalizedCrystal
_audit_creation_method	'MofGen! by Chris Wilmer'
_symmetry_space_group_name_H-M	'P1'
_symmetry_Int_Tables_number	1
_symmetry_cell_setting	triclinic
loop_
_symmetry_equiv_pos_as_xyz
  x,y,z
_cell_length_a	16.992697
_cell_length_b	16.053934
_cell_length_c	16.992695
_cell_angle_alpha	92.750093
_cell_angle_beta	89.331663
_cell_angle_gamma	92.747587
loop_
_atom_site_label
_atom_site_type_symbol
_atom_site_fract_x
_atom_site_fract_y
_atom_site_fract_z
O1	O	-1.047750	0.069308	0.170019
O2	O	-0.819349	0.069337	0.168188
O3	O	-0.932634	0.069316	0.054903
O4	O	-0.934465	0.069329	0.283304
O5	O	-0.938835	-0.069541	0.048688
O6	O	-0.825550	-0.069521	0.161973
O7	O	-1.053951	-0.069549	0.163804
Zn8	Zn	-0.940735	-0.091582	0.161902
Zn9	Zn	-0.932565	0.091369	0.170090
O10	O	-0.940666	-0.069528	0.277089
C11	C	-0.793089	-0.000089	0.162725
C12	C	-0.705604	-0.000078	0.155697
C13	C	-0.659613	-0.000074	0.223515
C14	C	-0.577413	-0.000085	0.216905
C15	C	-0.541205	-0.000093	0.142477
C16	C	-0.587202	-0.000100	0.074654
C17	C	-0.669401	-0.000095	0.081264
C18	C	-0.295891	-0.000113	0.115081
C19	C	-0.213686	-0.000115	0.108476
C20	C	-0.203902	-0.000102	0.250728
C21	C	-0.286103	-0.000092	0.257332
C22	C	-0.332093	-0.000103	0.189508
N23	N	-0.457183	-0.000101	0.135719
N24	N	-0.416114	-0.000101	0.196267
N25	N	-0.946316	-0.216440	0.156313
C26	C	-0.080211	-0.000118	0.169267
C27	C	-0.167695	-0.000112	0.176294
C28	C	-0.898102	-0.260146	0.204497
C29	C	-0.902029	-0.347552	0.200586
C30	C	-0.954167	-0.391250	0.148487
C31	C	-1.002386	-0.347539	0.100301
C32	C	-0.998463	-0.260134	0.104217
C33	C	-0.971285	-0.652656	0.131403
C34	C	-0.975204	-0.740066	0.127489
C35	C	-0.874847	-0.740074	0.227775
C36	C	-0.870925	-0.652668	0.231683
C37	C	-0.919147	-0.608963	0.183500
N38	N	-0.958180	-0.480593	0.144486
N39	N	-0.915137	-0.519622	0.187506
C40	C	-0.933379	-0.000112	0.022435
C41	C	-0.926350	-0.000111	-0.065049
N42	N	-0.926989	0.216228	0.175673
C43	C	-0.994168	-0.000120	-0.111040
C44	C	-0.987559	-0.000112	-0.193241
C45	C	-0.913131	-0.000100	-0.229449
C46	C	-0.845307	-0.000088	-0.183451
C47	C	-0.851917	-0.000091	-0.101252
C48	C	-0.885736	-0.000085	-0.474762
C49	C	-0.879131	-0.000085	-0.556968
C50	C	-1.021383	-0.000107	-0.566751
C51	C	-1.027987	-0.000115	-0.484550
C52	C	-0.960163	-0.000098	-0.438560
N53	N	-0.906373	-0.000093	-0.313471
N54	N	-0.966921	-0.000099	-0.354539
C55	C	-0.939921	-0.000098	0.309556
C56	C	-0.946949	-0.000094	0.397041
H57	H	-0.557715	-0.000119	0.014052
H58	H	-1.054776	-0.000135	-0.081566
Br59	Br	-0.800163	-0.593361	0.302385
Br60	Br	-0.164548	-0.000145	0.007459
H61	H	-0.855642	-0.224573	0.246918
Br62	Br	-0.358297	-0.000130	0.023034
H63	H	-0.706846	-0.000098	0.026039
H64	H	-0.862770	-0.383137	0.239821
H65	H	-0.539970	-0.000081	0.272130
H66	H	-0.835587	-0.775666	0.267004
Br67	Br	-0.744296	-0.000058	-0.232589
Br68	Br	-1.128999	-0.000104	-0.435416
H69	H	-1.017663	-0.775642	0.085061
Br70	Br	-1.036726	-0.593348	0.066013
Br71	Br	-1.079603	-0.000124	-0.255655
H72	H	-1.044842	-0.383123	0.057884
H73	H	-1.037725	-0.224550	0.064982
H74	H	-1.076601	-0.000118	-0.604205
H75	H	-0.830508	-0.000072	-0.437326
H76	H	-0.689087	-0.000066	0.284122
Br77	Br	-0.335236	-0.000071	0.358346
Br78	Br	-0.141484	-0.000088	0.342769
Br79	Br	-0.778115	-0.000077	-0.606107
H80	H	-0.796692	-0.000083	-0.063807
