data_functionalizedCrystal
_audit_creation_method	'MofGen! by Chris Wilmer'
_symmetry_space_group_name_H-M	'P1'
_symmetry_Int_Tables_number	1
_symmetry_cell_setting	triclinic
loop_
_symmetry_equiv_pos_as_xyz
  x,y,z
_cell_length_a	16.109301
_cell_length_b	16.974813
_cell_length_c	14.586319
_cell_angle_alpha	86.341649
_cell_angle_beta	89.999213
_cell_angle_gamma	83.428473
loop_
_atom_site_label
_atom_site_type_symbol
_atom_site_fract_x
_atom_site_fract_y
_atom_site_fract_z
O1	O	1.103044	0.101634	-0.083721
O2	O	0.860971	0.114282	-0.084674
O3	O	0.988756	-0.007147	-0.075653
O4	O	0.975259	0.223063	-0.092743
O5	O	0.988747	-0.007149	0.076828
O6	O	0.860962	0.114280	0.067807
O7	O	1.103035	0.101632	0.068760
Cu8	Cu	0.981998	0.107956	0.082206
Cu9	Cu	0.982008	0.107958	-0.098121
O10	O	0.975250	0.223061	0.059738
C11	C	0.829992	0.113769	-0.008398
C12	C	0.737698	0.112233	-0.008289
C13	C	0.515367	0.180715	-0.013362
C14	C	0.428648	0.179265	-0.013249
C15	C	0.448646	0.035194	-0.002557
C16	C	0.535363	0.036644	-0.002664
C17	C	0.568721	0.109407	-0.008072
C18	C	0.395284	0.106507	-0.007851
C19	C	0.301260	0.104935	-0.007728
C20	C	0.662752	0.110979	-0.008193
C21	C	0.988238	-0.036606	0.002772
C22	C	0.986698	-0.124383	0.009282
C23	C	0.985981	-0.165615	-0.070776
C24	C	0.984529	-0.248090	-0.064657
C25	C	0.983800	-0.289331	0.021522
C26	C	0.984514	-0.248093	0.101586
C27	C	0.985960	-0.165619	0.095466
C28	C	0.979468	-0.535991	0.048739
C29	C	0.978024	-0.618471	0.054854
C30	C	0.978038	-0.618462	-0.111390
C31	C	0.979489	-0.535987	-0.117503
C32	C	0.980199	-0.494755	-0.037439
N33	N	0.982318	-0.373634	0.027779
N34	N	0.981675	-0.410454	-0.043697
C35	C	1.134014	0.102145	-0.007519
C36	C	1.226308	0.103681	-0.007634
C37	C	0.975768	0.252520	-0.018689
C38	C	0.977308	0.340297	-0.025205
N39	N	0.981996	0.107954	0.209038
N40	N	0.982016	0.107954	-0.224952
C41	C	1.038598	0.054203	0.448037
C42	C	1.038600	0.054201	0.544019
C43	C	0.925408	0.161707	0.536041
C44	C	0.925402	0.161705	0.440062
C45	C	0.982002	0.107954	0.396063
C46	C	0.982010	0.107954	0.588023
C47	C	0.982012	0.107952	0.692091
C48	C	0.981999	0.107954	0.291989
H49	H	0.578807	-0.021427	0.001647
C50	C	1.100847	-0.004927	0.399641
H51	H	1.134548	-0.036944	0.444346
H52	H	1.135421	0.023521	0.360081
H53	H	1.070969	-0.037853	0.364651
H54	H	0.385209	0.237332	-0.017555
H55	H	0.421475	-0.024047	0.001850
H56	H	0.542524	0.239963	-0.017758
H57	H	0.879311	0.205475	0.397741
H58	H	0.986580	-0.132042	-0.140953
C59	C	1.100859	-0.004921	0.601187
H60	H	1.134568	-0.036927	0.561233
H61	H	1.070997	-0.037846	0.641077
H62	H	1.135437	0.023539	0.636511
C63	C	0.977246	-0.663816	-0.199453
H64	H	0.976273	-0.718840	-0.183469
H65	H	1.025942	-0.656341	-0.234161
H66	H	0.929017	-0.644254	-0.235053
C67	C	0.983726	-0.293440	-0.152722
H68	H	0.984373	-0.257066	-0.204922
H69	H	0.934697	-0.319563	-0.154234
H70	H	1.031622	-0.331661	-0.153347
H71	H	0.980084	-0.502414	-0.187679
C72	C	0.977213	-0.663835	0.149654
H73	H	0.977833	-0.627466	0.196462
H74	H	1.025107	-0.702050	0.155954
H75	H	0.928182	-0.689965	0.155034
C76	C	0.980263	-0.490649	0.136807
H77	H	0.979633	-0.527026	0.189006
H78	H	0.932370	-0.452433	0.137433
H79	H	1.029295	-0.464521	0.138323
H80	H	0.983915	-0.281678	0.171755
H81	H	0.879327	0.205471	0.571876
C82	C	0.986750	-0.120264	0.183530
H83	H	0.986116	-0.156638	0.235732
H84	H	0.938855	-0.082050	0.184145
H85	H	1.035780	-0.094134	0.185050
