data_functionalizedCrystal
_audit_creation_method	'MofGen! by Chris Wilmer'
_symmetry_space_group_name_H-M	'P1'
_symmetry_Int_Tables_number	1
_symmetry_cell_setting	triclinic
loop_
_symmetry_equiv_pos_as_xyz
  x,y,z
_cell_length_a	14.908571
_cell_length_b	16.959454
_cell_length_c	14.908694
_cell_angle_alpha	93.271572
_cell_angle_beta	83.592472
_cell_angle_gamma	86.716421
loop_
_atom_site_label
_atom_site_type_symbol
_atom_site_fract_x
_atom_site_fract_y
_atom_site_fract_z
Zn1	Zn	1.413345	-0.416138	-0.591530
Zn2	Zn	1.746678	-0.082804	-0.258196
Zn3	Zn	2.080011	0.250529	0.075137
Zn4	Zn	1.404514	-0.540230	-0.440172
Zn5	Zn	1.737847	-0.206897	-0.106838
Zn6	Zn	2.071180	0.126436	0.226495
Zn7	Zn	1.253246	-0.399970	-0.431464
Zn8	Zn	1.586580	-0.066637	-0.098131
Zn9	Zn	1.919913	0.266697	0.235202
Zn10	Zn	1.261946	-0.540169	-0.582770
Zn11	Zn	1.595279	-0.206836	-0.249436
Zn12	Zn	1.928612	0.126498	0.083897
O13	O	1.333263	-0.474127	-0.511484
O14	O	1.666596	-0.140793	-0.178151
O15	O	1.999929	0.192540	0.155183
O16	O	1.538840	-0.439390	-0.578762
O17	O	1.872174	-0.106057	-0.245429
O18	O	2.205507	0.227276	0.087905
O19	O	1.377112	-0.514884	-0.312351
O20	O	1.710445	-0.181551	0.020983
O21	O	2.043778	0.151783	0.354316
O22	O	1.274539	-0.291508	-0.452719
O23	O	1.607872	0.041826	-0.119386
O24	O	1.941206	0.375159	0.213947
O25	O	1.532352	-0.530561	-0.467560
O26	O	1.865686	-0.197228	-0.134226
O27	O	2.199019	0.136106	0.199107
O28	O	1.392162	-0.303386	-0.570319
O29	O	1.725496	0.029947	-0.236985
O30	O	2.058829	0.363281	0.096348
O31	O	1.265976	-0.411835	-0.305953
O32	O	1.599309	-0.078502	0.027380
O33	O	1.932643	0.254831	0.360713
O34	O	1.127733	-0.411776	-0.444225
O35	O	1.461067	-0.078443	-0.110892
O36	O	1.794400	0.254891	0.222442
O37	O	1.289365	-0.530456	-0.710598
O38	O	1.622699	-0.197123	-0.377264
O39	O	1.956032	0.136210	-0.043931
O40	O	1.134125	-0.514779	-0.555389
O41	O	1.467458	-0.181446	-0.222055
O42	O	1.800791	0.151887	0.111278
O43	O	1.400598	-0.439331	-0.717034
O44	O	1.733931	-0.105998	-0.383700
O45	O	2.067264	0.227336	-0.050367
O46	O	1.385547	-0.650829	-0.459065
O47	O	1.718880	-0.317496	-0.125732
O48	O	2.052213	0.015838	0.207601
O49	O	1.280802	-0.650784	-0.563832
O50	O	1.614136	-0.317451	-0.230498
O51	O	1.947469	0.015883	0.102835
C52	C	1.098086	-0.461517	-0.497912
C53	C	1.431419	-0.128184	-0.164579
C54	C	1.764752	0.205149	0.168755
C55	C	0.997477	-0.456143	-0.492127
C56	C	1.330811	-0.122810	-0.158794
C57	C	1.664144	0.210524	0.174539
C58	C	0.815118	-0.553450	-0.596856
C59	C	1.148451	-0.220117	-0.263523
C60	C	1.481784	0.113216	0.069810
C61	C	0.720587	-0.548404	-0.591424
C62	C	1.053921	-0.215070	-0.258091
C63	C	1.387254	0.118263	0.075242
C64	C	0.713885	-0.440999	-0.475836
C65	C	1.047218	-0.107666	-0.142503
C66	C	1.380551	0.225668	0.190830
C67	C	0.808415	-0.446046	-0.481268
C68	C	1.141748	-0.112713	-0.147935
C69	C	1.475082	0.220621	0.185398
C70	C	0.859028	-0.502274	-0.541780
C71	C	1.192362	-0.168941	-0.208446
C72	C	1.525695	0.164392	0.124887
C73	C	0.953560	-0.507325	-0.547206
C74	C	1.286894	-0.173991	-0.213873
C75	C	1.620227	0.159342	0.119460
C76	C	0.946856	-0.399917	-0.431624
C77	C	1.280189	-0.066584	-0.098290
C78	C	1.613523	0.266750	0.235043
C79	C	0.852326	-0.394870	-0.426192
C80	C	1.185659	-0.061537	-0.092858
C81	C	1.518992	0.271797	0.240475
C82	C	1.333186	-0.679488	-0.511464
C83	C	1.666519	-0.346155	-0.178131
C84	C	1.999853	-0.012821	0.155203
C85	C	1.333238	-0.767349	-0.511491
C86	C	1.666571	-0.434015	-0.178157
C87	C	1.999904	-0.100682	0.155176
C88	C	1.278806	-1.138836	-0.566034
C89	C	1.612139	-0.805502	-0.232701
C90	C	1.945473	-0.472169	0.100632
C91	C	1.387977	-1.138833	-0.457040
C92	C	1.721310	-0.805500	-0.123707
C93	C	2.054643	-0.472166	0.209627
C94	C	1.387945	-1.056285	-0.457030
C95	C	1.721278	-0.722952	-0.123697
C96	C	2.054611	-0.389618	0.209637
C97	C	1.333341	-1.015008	-0.511522
C98	C	1.666675	-0.681675	-0.178188
C99	C	2.000008	-0.348342	0.155145
C100	C	1.278770	-1.056280	-0.566024
C101	C	1.612103	-0.722947	-0.232690
C102	C	1.945437	-0.389613	0.100643
C103	C	1.442508	-1.015006	-0.402522
C104	C	1.775841	-0.681673	-0.069189
C105	C	2.109175	-0.348340	0.264145
C106	C	1.442477	-0.932453	-0.402509
C107	C	1.775811	-0.599120	-0.069176
C108	C	2.109144	-0.265787	0.264158
C109	C	1.387878	-0.891176	-0.457006
C110	C	1.721212	-0.557842	-0.123673
C111	C	2.054545	-0.224509	0.209660
C112	C	1.333306	-0.932452	-0.511511
C113	C	1.666639	-0.599119	-0.178178
C114	C	1.999972	-0.265786	0.155155
C115	C	1.278702	-0.891176	-0.566003
C116	C	1.612036	-0.557843	-0.232670
C117	C	1.945369	-0.224509	0.100663
C118	C	1.224134	-0.932452	-0.620514
C119	C	1.557467	-0.599118	-0.287180
C120	C	1.890800	-0.265785	0.046153
C121	C	1.224171	-1.015002	-0.620521
C122	C	1.557504	-0.681669	-0.287188
C123	C	1.890838	-0.348336	0.046145
C124	C	1.387841	-0.808625	-0.456999
C125	C	1.721174	-0.475292	-0.123665
C126	C	2.054508	-0.141958	0.209668
C127	C	1.278666	-0.808620	-0.565993
C128	C	1.612000	-0.475287	-0.232659
C129	C	1.945333	-0.141953	0.100674
C130	C	1.569358	-0.486786	-0.525109
C131	C	1.902691	-0.153453	-0.191776
C132	C	2.236024	0.179881	0.141557
C133	C	1.669968	-0.492181	-0.530916
C134	C	2.003301	-0.158847	-0.197582
C135	C	2.336634	0.174486	0.135751
C136	C	1.346937	-0.486690	-0.747577
C137	C	1.680270	-0.153357	-0.414244
C138	C	2.013604	0.179976	-0.080910
C139	C	1.352764	-0.492044	-0.848186
C140	C	1.686097	-0.158711	-0.514853
C141	C	2.019431	0.174623	-0.181519
C142	C	1.333365	-0.267966	-0.511525
C143	C	1.666699	0.065368	-0.178192
C144	C	2.000032	0.398701	0.155142
C145	C	1.333409	-0.180112	-0.511542
C146	C	1.666743	0.153221	-0.178209
C147	C	2.000076	0.486554	0.155124
C148	C	1.247967	-0.394801	-1.030580
C149	C	1.581301	-0.061468	-0.697246
C150	C	1.914634	0.271866	-0.363913
C151	C	1.253439	-0.399829	-1.125110
C152	C	1.586773	-0.066495	-0.791777
C153	C	1.920106	0.266838	-0.458444
C154	C	1.369175	-0.507130	-1.131780
C155	C	1.702508	-0.173797	-0.798447
C156	C	2.035841	0.159536	-0.465113
C157	C	1.363703	-0.502103	-1.037249
C158	C	1.697036	-0.168769	-0.703916
C159	C	2.030369	0.164564	-0.370582
C160	C	1.303098	-0.445935	-0.986652
C161	C	1.636431	-0.112602	-0.653319
C162	C	1.969765	0.220731	-0.319986
C163	C	1.297631	-0.440904	-0.892120
C164	C	1.630964	-0.107571	-0.558787
C165	C	1.964298	0.225762	-0.225453
C166	C	1.413361	-0.548209	-0.898791
C167	C	1.746695	-0.214876	-0.565457
C168	C	2.080028	0.118457	-0.232124
C169	C	1.418833	-0.553237	-0.993322
C170	C	1.752167	-0.219904	-0.659988
C171	C	2.085500	0.113430	-0.326655
C172	C	1.319694	-0.461558	-0.276312
C173	C	1.653027	-0.128224	0.057021
C174	C	1.986360	0.205109	0.390355
C175	C	1.314042	-0.455991	-0.175714
C176	C	1.647375	-0.122657	0.157620
C177	C	1.980709	0.210676	0.490953
H178	H	0.811104	-0.349089	-0.376928
H179	H	1.144437	-0.015755	-0.043594
H180	H	1.477770	0.317578	0.289739
F181	F	0.673858	-0.602871	-0.650047
F182	F	1.007191	-0.269537	-0.316713
F183	F	1.340525	0.063796	0.016620
H184	H	1.432265	-0.775022	-0.412613
H185	H	1.765599	-0.441688	-0.079279
H186	H	2.098932	-0.108355	0.254054
H187	H	1.208546	-0.358190	-1.160872
H188	H	1.541880	-0.024856	-0.827539
H189	H	1.875213	0.308477	-0.494206
H190	H	1.179743	-1.048616	-0.664900
H191	H	1.513077	-0.715283	-0.331566
H192	H	1.846410	-0.381950	0.001767
F193	F	0.993595	-0.345453	-0.372997
F194	F	1.326928	-0.012120	-0.039663
F195	F	1.660261	0.321214	0.293670
F196	F	1.220553	-0.764698	-0.623997
F197	F	1.553887	-0.431364	-0.290663
F198	F	1.887220	-0.098031	0.042670
F199	F	1.446085	-1.182764	-0.399049
F200	F	1.779419	-0.849431	-0.065716
F201	F	2.112752	-0.516097	0.267618
H202	H	0.672659	-0.395216	-0.426577
H203	H	1.005993	-0.061883	-0.093244
H204	H	1.339326	0.271450	0.240090
H205	H	1.179671	-0.898834	-0.664877
H206	H	1.513004	-0.565501	-0.331544
H207	H	1.846337	-0.232168	0.001790
F208	F	1.220737	-1.182764	-0.624049
F209	F	1.554070	-0.849431	-0.290716
F210	F	1.887404	-0.516097	0.042617
H211	H	0.994768	-0.553110	-0.596476
H212	H	1.328102	-0.219776	-0.263143
H213	H	1.661435	0.113557	0.070190
H214	H	1.486956	-1.048619	-0.358151
H215	H	1.820289	-0.715286	-0.024817
H216	H	2.153623	-0.381952	0.308516
H217	H	1.418504	-0.552869	-1.172991
H218	H	1.751837	-0.219536	-0.839658
H219	H	2.085170	0.113798	-0.506325
F220	F	0.868986	-0.613298	-0.661247
F221	F	1.202319	-0.279965	-0.327914
F222	F	1.535652	0.053368	0.005419
H223	H	1.486910	-0.898852	-0.358125
H224	H	1.820244	-0.565518	-0.024792
H225	H	2.153577	-0.232185	0.308542
H226	H	1.248287	-0.395167	-0.850925
H227	H	1.581621	-0.061834	-0.517592
H228	H	1.914954	0.271499	-0.184259
F229	F	1.483326	-0.613014	-1.047180
F230	F	1.816660	-0.279680	-0.713846
F231	F	2.149993	0.053653	-0.380513
H232	H	1.458256	-0.589844	-0.863015
H233	H	1.791589	-0.256511	-0.529682
H234	H	2.124923	0.076822	-0.196349
F235	F	1.183477	-0.335018	-0.976729
F236	F	1.516810	-0.001685	-0.643396
F237	F	1.850144	0.331649	-0.310063
