data_functionalizedCrystal
_audit_creation_method	'MofGen! by Chris Wilmer'
_symmetry_space_group_name_H-M	'P1'
_symmetry_Int_Tables_number	1
_symmetry_cell_setting	triclinic
loop_
_symmetry_equiv_pos_as_xyz
  x,y,z
_cell_length_a	12.837943
_cell_length_b	10.540510
_cell_length_c	11.295483
_cell_angle_alpha	94.138442
_cell_angle_beta	85.461227
_cell_angle_gamma	89.671125
loop_
_atom_site_label
_atom_site_type_symbol
_atom_site_fract_x
_atom_site_fract_y
_atom_site_fract_z
O1	O	1.384794	0.322577	-0.098991
O2	O	1.082869	0.306261	-0.098999
O3	O	1.240736	0.130469	-0.098994
O4	O	1.226927	0.498370	-0.098996
O5	O	1.226870	0.145883	0.099056
O6	O	1.069003	0.321675	0.099052
O7	O	1.370928	0.337991	0.099059
Cu8	Cu	1.218700	0.331241	0.117139
Cu9	Cu	1.235098	0.313012	-0.117078
O10	O	1.213061	0.513784	0.099055
C11	C	1.037276	0.308457	0.000025
C12	C	0.922078	0.292018	0.000022
C13	C	0.682565	0.489638	0.000039
C14	C	0.574326	0.474199	0.000037
C15	C	0.597360	0.245701	0.000025
C16	C	0.705599	0.261141	0.000027
C17	C	0.748197	0.383113	0.000032
C18	C	0.856438	0.398551	0.000025
C19	C	0.879469	0.170055	0.000022
C20	C	0.771231	0.154615	0.000020
C21	C	1.232774	0.090759	0.000029
C22	C	1.229696	-0.050530	0.000021
C23	C	1.339333	-0.255900	0.000478
C24	C	1.342649	-0.108979	0.000025
C25	C	1.179793	-0.110443	-0.113074
C26	C	1.177315	-0.257484	-0.113163
C27	C	1.159195	-0.240022	0.112057
C28	C	1.164448	-0.092976	0.113546
C29	C	1.416522	0.335796	0.000033
C30	C	1.531720	0.352234	0.000028
C31	C	1.221023	0.553493	0.000030
C32	C	1.224102	0.694781	0.000029
N33	N	1.207174	0.344062	0.281875
N34	N	1.246632	0.300182	-0.281814
C35	C	1.329602	0.207817	0.531168
C36	C	1.320899	0.217516	0.655831
C37	C	1.181061	0.373151	0.655868
C38	C	1.189764	0.363452	0.531204
C39	C	1.264038	0.280784	0.468859
C40	C	1.272745	0.271092	0.344193
C41	C	1.132902	0.426720	0.344231
C42	C	1.124199	0.436419	0.468895
H43	H	0.562650	0.146404	0.000119
H44	H	0.932920	0.083313	0.000009
H45	H	1.096933	-0.072517	-0.117282
H46	H	1.388731	-0.300876	-0.080168
H47	H	1.063724	0.503723	0.519671
H48	H	0.520891	0.560944	0.000045
H49	H	1.374286	0.158097	0.706560
H50	H	1.200663	-0.053230	0.197213
H51	H	1.390085	0.140514	0.480406
H52	H	1.225840	-0.081725	-0.197238
H53	H	1.093191	-0.290159	-0.118289
H54	H	1.393839	-0.081895	-0.081184
H55	H	1.382215	-0.068355	0.081095
H56	H	0.891119	0.497867	0.000032
H57	H	1.189088	-0.271588	0.197784
H58	H	1.120582	0.440449	0.706645
H59	H	1.333225	0.203783	0.293432
H60	H	0.717249	0.588953	0.000041
H61	H	0.736531	0.055309	0.000029
H62	H	1.377661	-0.286708	0.081584
H63	H	1.222749	-0.299937	-0.197702
H64	H	1.079518	0.486139	0.293485
H65	H	1.081505	-0.052439	0.120373
H66	H	1.074335	-0.271430	0.112817
