data_functionalizedCrystal
_audit_creation_method	'MofGen! by Chris Wilmer'
_symmetry_space_group_name_H-M	'P1'
_symmetry_Int_Tables_number	1
_symmetry_cell_setting	triclinic
loop_
_symmetry_equiv_pos_as_xyz
  x,y,z
_cell_length_a	12.759401
_cell_length_b	16.625546
_cell_length_c	12.759393
_cell_angle_alpha	89.963806
_cell_angle_beta	89.981504
_cell_angle_gamma	90.022629
loop_
_atom_site_label
_atom_site_type_symbol
_atom_site_fract_x
_atom_site_fract_y
_atom_site_fract_z
Zn1	Zn	1.606199	-0.320951	-0.593948
Zn2	Zn	2.106199	0.179049	-0.093948
Zn3	Zn	1.606069	-0.455807	-0.418253
Zn4	Zn	2.106069	0.044193	0.081747
Zn5	Zn	1.430501	-0.320993	-0.418287
Zn6	Zn	1.930501	0.179007	0.081713
Zn7	Zn	1.430465	-0.455745	-0.593895
Zn8	Zn	1.930465	0.044255	-0.093895
O9	O	1.518308	-0.388374	-0.506096
O10	O	2.018308	0.111626	-0.006096
O11	O	1.753203	-0.338848	-0.570649
O12	O	2.253203	0.161152	-0.070649
O13	O	1.582740	-0.437968	-0.271237
O14	O	2.082740	0.062032	0.228763
O15	O	1.453876	-0.208155	-0.441625
O16	O	1.953876	0.291845	0.058375
O17	O	1.753107	-0.437927	-0.441568
O18	O	2.253107	0.062073	0.058432
O19	O	1.582961	-0.208124	-0.570682
O20	O	2.082961	0.291876	-0.070682
O21	O	1.453751	-0.338920	-0.271261
O22	O	1.953751	0.161080	0.228739
O23	O	1.283475	-0.338860	-0.441574
O24	O	1.783475	0.161140	0.058426
O25	O	1.453816	-0.437821	-0.740923
O26	O	1.953816	0.062179	-0.240923
O27	O	1.283449	-0.437862	-0.570592
O28	O	1.783449	0.062138	-0.070592
O29	O	1.582927	-0.338788	-0.740962
O30	O	2.082927	0.161212	-0.240962
O31	O	1.582706	-0.568632	-0.441517
O32	O	2.082706	-0.068632	0.058483
O33	O	1.453691	-0.568586	-0.570560
O34	O	1.953691	-0.068586	-0.070560
C35	C	1.245341	-0.388359	-0.506081
C36	C	1.745341	0.111641	-0.006081
C37	C	1.128564	-0.388372	-0.506100
C38	C	1.628564	0.111628	-0.006100
C39	C	1.073717	-0.440005	-0.573169
C40	C	1.573717	0.059995	-0.073169
C41	C	0.963992	-0.440015	-0.573180
C42	C	1.463992	0.059985	-0.073180
C43	C	0.963974	-0.336758	-0.439045
C44	C	1.463974	0.163242	0.060955
C45	C	1.073696	-0.336744	-0.439040
C46	C	1.573696	0.163256	0.060960
C47	C	1.073726	-0.499623	-0.650608
C48	C	1.573726	0.000377	-0.150608
C49	C	0.964002	-0.499633	-0.650619
C50	C	1.464002	0.000367	-0.150619
C51	C	1.518209	-0.597865	-0.506052
C52	C	2.018209	-0.097865	-0.006052
C53	C	1.518263	-0.687486	-0.506068
C54	C	2.018263	-0.187486	-0.006068
C55	C	1.518446	-1.015662	-0.506177
C56	C	2.018446	-0.515662	-0.006177
C57	C	1.518392	-0.924353	-0.506150
C58	C	2.018392	-0.424353	-0.006150
C59	C	1.518353	-0.851577	-0.506122
C60	C	2.018353	-0.351577	-0.006122
C61	C	1.518301	-0.760262	-0.506096
C62	C	2.018301	-0.260262	-0.006096
C63	C	1.792342	-0.388390	-0.506111
C64	C	2.292342	0.111610	-0.006111
C65	C	1.909118	-0.388396	-0.506117
C66	C	2.409118	0.111604	-0.006117
C67	C	1.518382	-0.388293	-0.780129
C68	C	2.018382	0.111707	-0.280129
C69	C	1.518413	-0.388258	-0.896906
C70	C	2.018413	0.111742	-0.396906
C71	C	1.518437	-0.178065	-0.506163
C72	C	2.018437	0.321935	-0.006163
C73	C	1.518492	-0.088444	-0.506191
C74	C	2.018492	0.411556	-0.006191
C75	C	1.585650	-0.336687	-0.951790
C76	C	2.085650	0.163313	-0.451790
C77	C	1.585675	-0.336657	-1.061514
C78	C	2.085675	0.163343	-0.561514
C79	C	1.451223	-0.439778	-1.061461
C80	C	1.951223	0.060222	-0.561461
C81	C	1.451194	-0.439803	-0.951739
C82	C	1.951194	0.060197	-0.451739
C83	C	1.663279	-0.277153	-0.951821
C84	C	2.163279	0.222847	-0.451821
C85	C	1.663304	-0.277124	-1.061546
C86	C	2.163304	0.222876	-0.561546
C87	C	1.518296	-0.388397	-0.233128
C88	C	2.018296	0.111603	0.266872
C89	C	1.518468	-0.388204	-0.116352
C90	C	2.018468	0.111796	0.383648
H91	H	1.118349	-0.294694	-0.384433
H92	H	1.618349	0.205306	0.115567
C93	C	0.903616	-0.279974	-0.365282
C94	C	1.403616	0.220026	0.134718
H95	H	0.830413	-0.287378	-0.374887
H96	H	1.330413	0.212622	0.125113
H97	H	0.921624	-0.225811	-0.380785
H98	H	1.421624	0.274189	0.119215
H99	H	0.921564	-0.291712	-0.294658
H100	H	1.421564	0.208288	0.205342
C101	C	1.114012	-0.477127	-0.760576
C102	C	1.614012	0.022873	-0.260576
H103	H	1.188470	-0.477128	-0.760568
H104	H	1.688470	0.022872	-0.260568
H105	H	1.089227	-0.425114	-0.778883
H106	H	1.589227	0.074886	-0.278883
H107	H	1.089205	-0.515276	-0.810117
H108	H	1.589205	-0.015276	-0.310117
H109	H	1.744671	-0.293849	-1.091322
H110	H	2.244671	0.206151	-0.591322
C111	C	1.377227	-0.496522	-0.891365
C112	C	1.877227	0.003478	-0.391365
H113	H	1.386827	-0.489151	-0.818164
H114	H	1.886827	0.010849	-0.318164
H115	H	1.392561	-0.550696	-0.909322
H116	H	1.892561	-0.050696	-0.409322
H117	H	1.306647	-0.484699	-0.909350
H118	H	1.806647	0.015301	-0.409350
C119	C	1.623947	-0.196991	-1.107564
C120	C	2.123947	0.303009	-0.607564
H121	H	1.625280	-0.199713	-1.181923
H122	H	2.125280	0.300287	-0.681923
H123	H	1.668001	-0.154434	-1.084615
H124	H	2.168001	0.345566	-0.584615
H125	H	1.554246	-0.187406	-1.084556
H126	H	2.054246	0.312594	-0.584556
H127	H	1.107730	-0.558911	-0.621317
H128	H	1.607730	-0.058911	-0.121317
H129	H	1.641521	-0.214709	-0.922072
H130	H	2.141521	0.285291	-0.422072
H131	H	0.930008	-0.477343	-0.727974
H132	H	1.430008	0.022657	-0.227974
H133	H	0.934196	-0.562065	-0.628680
H134	H	1.434196	-0.062065	-0.128680
H135	H	1.740546	-0.299539	-0.917783
H136	H	2.240546	0.200461	-0.417783
H137	H	1.396493	-0.481742	-1.106119
H138	H	1.896493	0.018258	-0.606119
