data_functionalizedCrystal
_audit_creation_method	'MofGen! by Chris Wilmer'
_symmetry_space_group_name_H-M	'P1'
_symmetry_Int_Tables_number	1
_symmetry_cell_setting	triclinic
loop_
_symmetry_equiv_pos_as_xyz
  x,y,z
_cell_length_a	15.944493
_cell_length_b	16.109301
_cell_length_c	15.186229
_cell_angle_alpha	90.005167
_cell_angle_beta	89.997208
_cell_angle_gamma	96.531738
loop_
_atom_site_label
_atom_site_type_symbol
_atom_site_fract_x
_atom_site_fract_y
_atom_site_fract_z
O1	O	1.114518	-0.106997	-0.073220
O2	O	0.869957	-0.120268	-0.073224
O3	O	0.998956	0.007397	-0.073213
O4	O	0.985519	-0.234663	-0.073231
O5	O	0.998947	0.007399	0.073244
O6	O	0.869949	-0.120266	0.073233
O7	O	1.114509	-0.106996	0.073238
Zn8	Zn	0.992228	-0.113631	0.096488
Zn9	Zn	0.992239	-0.113633	-0.096475
O10	O	0.985511	-0.234661	0.073226
C11	C	0.838658	-0.119725	0.000004
C12	C	0.745410	-0.118099	0.000002
C13	C	0.509625	-0.193245	-0.000004
C14	C	0.459076	-0.152721	0.072214
C15	C	0.574690	-0.115086	0.000004
C16	C	0.459089	-0.152704	-0.072181
C17	C	0.409781	-0.112181	0.000002
C18	C	0.525369	-0.074582	0.072282
C19	C	0.525386	-0.074577	-0.072179
C20	C	0.474869	-0.033995	0.000057
C21	C	0.669689	-0.116761	0.000006
C22	C	0.314785	-0.110499	0.000007
C23	C	0.998407	0.038373	0.000016
C24	C	0.996775	0.130669	0.000017
C25	C	1.145808	-0.107539	0.000007
C26	C	1.239056	-0.109165	0.000003
C27	C	0.986059	-0.265637	-0.000005
C28	C	0.987691	-0.357932	-0.000012
N29	N	0.992226	-0.113628	0.228181
C30	C	1.069526	0.352933	0.000005
C31	C	1.067987	0.439653	-0.000003
C32	C	0.914934	0.419797	-0.000002
C33	C	0.916475	0.333078	-0.000001
C34	C	0.993773	0.299648	0.000007
C35	C	0.990693	0.473088	-0.000001
C36	C	0.989023	0.567114	-0.000009
C37	C	0.995444	0.205616	0.000013
N38	N	0.992247	-0.113629	-0.228168
C39	C	1.049366	-0.057117	0.453909
C40	C	1.049369	-0.057115	0.546099
C41	C	0.935101	-0.170142	0.546098
C42	C	0.935095	-0.170140	0.453910
C43	C	0.992232	-0.113628	0.407818
C44	C	0.992241	-0.113629	0.592195
C45	C	0.992243	-0.113627	0.692152
C46	C	0.992229	-0.113629	0.307855
H47	H	0.459426	0.033382	0.000104
H48	H	0.854784	0.289691	-0.000002
N49	N	0.835989	0.453964	0.000009
N50	N	0.818060	0.500144	0.061748
H51	H	0.762304	0.524275	0.061759
N52	N	0.561717	-0.033210	-0.148773
N53	N	0.540298	-0.059877	-0.223699
H54	H	0.565957	-0.030667	-0.277801
H55	H	1.095891	-0.011098	0.583624
N56	N	1.145375	0.494070	-0.000011
N57	N	1.214381	0.464207	-0.000009
H58	H	1.269040	0.502638	-0.000018
N59	N	0.529204	-0.277702	0.000087
N60	N	0.504931	-0.325417	0.062188
H61	H	0.518762	-0.385063	0.062258
H62	H	1.095889	-0.011101	0.416383
N63	N	0.422781	-0.194139	-0.148760
N64	N	0.430700	-0.269494	-0.161613
H65	H	0.405059	-0.298764	-0.215694
N66	N	1.148474	0.318769	0.000013
N67	N	1.166407	0.272600	0.061749
H68	H	1.222165	0.248472	0.061754
H69	H	0.888566	-0.216158	0.416380
N70	N	0.422764	-0.194133	0.148799
N71	N	0.430676	-0.269485	0.161661
H72	H	0.405034	-0.298738	0.215747
N73	N	0.561548	-0.033200	0.148948
N74	N	0.639480	-0.027816	0.161336
H75	H	0.665034	0.001408	0.215481
N76	N	0.876745	-0.227859	0.593195
N77	N	0.876757	-0.227855	0.675505
H78	H	0.835543	-0.268619	0.708767
