data_functionalizedCrystal
_audit_creation_method	'MofGen! by Chris Wilmer'
_symmetry_space_group_name_H-M	'P1'
_symmetry_Int_Tables_number	1
_symmetry_cell_setting	triclinic
loop_
_symmetry_equiv_pos_as_xyz
  x,y,z
_cell_length_a	10.654562
_cell_length_b	11.792254
_cell_length_c	9.730223
_cell_angle_alpha	89.998472
_cell_angle_beta	89.996961
_cell_angle_gamma	84.344351
loop_
_atom_site_label
_atom_site_type_symbol
_atom_site_fract_x
_atom_site_fract_y
_atom_site_fract_z
O1	O	1.667382	0.159483	-0.114381
O2	O	1.301863	0.174656	-0.114364
O3	O	1.493484	0.001921	-0.114363
O4	O	1.475760	0.332218	-0.114382
O5	O	1.493482	0.001925	0.114217
O6	O	1.301861	0.174660	0.114216
O7	O	1.667379	0.159487	0.114199
Zn8	Zn	1.484620	0.167074	0.150499
Zn9	Zn	1.484623	0.167069	-0.150665
O10	O	1.475758	0.332222	0.114198
C11	C	1.255067	0.173541	-0.000072
C12	C	1.115634	0.170199	-0.000065
C13	C	1.050107	0.168642	0.124523
C14	C	0.919093	0.165511	0.124500
C15	C	0.919146	0.165498	-0.124710
C16	C	1.050158	0.168621	-0.124686
C17	C	1.115583	0.170220	0.249144
C18	C	1.050055	0.168665	0.373742
C19	C	0.919041	0.165534	0.373720
C20	C	0.853556	0.163957	0.249098
C21	C	1.492367	-0.040371	-0.000074
C22	C	1.489025	-0.166391	-0.000075
C23	C	1.486310	-0.268734	-0.000080
C24	C	1.482914	-0.397129	-0.000092
C25	C	1.714175	0.160602	-0.000096
C26	C	1.853608	0.163944	-0.000112
C27	C	1.476876	0.374514	-0.000095
C28	C	1.480218	0.500534	-0.000102
N29	N	1.484627	0.167078	0.356036
N30	N	1.484625	0.167056	-0.356201
C31	C	1.569499	0.090617	0.427962
C32	C	1.569495	0.090603	0.571845
C33	C	1.399745	0.243521	0.571863
C34	C	1.399743	0.243529	0.427982
C35	C	1.654383	0.014166	0.356016
C36	C	1.739262	-0.062301	0.427942
C37	C	1.739259	-0.062315	0.571825
C38	C	1.654376	0.014138	0.643782
H39	H	0.746876	0.161405	0.249090
H40	H	0.865693	0.164258	0.475173
C41	C	1.811686	-0.258190	0.616094
C42	C	1.832552	-0.146367	0.650887
H43	H	1.869293	-0.310078	0.664896
H44	H	1.727802	-0.271226	0.639685
H45	H	1.823834	-0.269107	0.520104
H46	H	1.820395	-0.135448	0.746876
H47	H	1.916457	-0.133327	0.627305
C48	C	1.561975	0.097448	0.149918
C49	C	1.654393	0.014186	0.197859
H50	H	1.561991	0.097468	0.052280
H51	H	1.481617	0.081217	0.182453
H52	H	1.579654	0.170130	0.182494
H53	H	1.636709	-0.058498	0.165291
H54	H	1.734769	0.030410	0.165309
C55	C	1.814572	-0.130245	0.207375
C56	C	1.832508	-0.146383	0.348853
H57	H	1.872129	-0.182167	0.158554
H58	H	1.730666	-0.143236	0.183834
H59	H	1.828778	-0.054390	0.183786
H60	H	1.818292	-0.222236	0.372444
H61	H	1.916434	-0.133401	0.372404
H62	H	1.222260	0.172774	0.249176
H63	H	1.654372	0.014113	0.760941
C64	C	1.250863	0.173477	0.484435
C65	C	1.122032	0.170395	0.510721
H66	H	1.295293	0.174550	0.569004
H67	H	1.281454	0.107920	0.433259
H68	H	1.263213	0.240063	0.433235
H69	H	1.109681	0.103803	0.561913
H70	H	1.091431	0.235958	0.561919
C71	C	1.184107	0.269528	-0.269219
C72	C	1.122204	0.170338	-0.261629
H73	H	1.228593	0.270579	-0.353760
H74	H	1.123885	0.334369	-0.264068
H75	H	1.241842	0.270894	-0.194985
H76	H	1.064461	0.168975	-0.335857
H77	H	1.182432	0.105480	-0.266793
H78	H	1.330637	0.305767	0.630459
H79	H	1.330631	0.305789	0.369419
H80	H	0.865816	0.164217	-0.226171
