data_functionalizedCrystal
_audit_creation_method	'MofGen! by Chris Wilmer'
_symmetry_space_group_name_H-M	'P1'
_symmetry_Int_Tables_number	1
_symmetry_cell_setting	triclinic
loop_
_symmetry_equiv_pos_as_xyz
  x,y,z
_cell_length_a	27.731994
_cell_length_b	26.809956
_cell_length_c	27.732048
_cell_angle_alpha	90.009578
_cell_angle_beta	82.631595
_cell_angle_gamma	90.009960
loop_
_atom_site_label
_atom_site_type_symbol
_atom_site_fract_x
_atom_site_fract_y
_atom_site_fract_z
O1	O	0.640953	0.041414	0.057391
O2	O	0.890953	0.291414	0.307391
O3	O	1.140953	0.541414	0.557391
O4	O	1.390953	0.791414	0.807391
O5	O	0.500155	0.041431	0.066164
O6	O	0.750155	0.291431	0.316164
O7	O	1.000155	0.541431	0.566164
O8	O	1.250155	0.791431	0.816164
O9	O	0.574927	0.041412	-0.008620
O10	O	0.824927	0.291412	0.241380
O11	O	1.074927	0.541412	0.491380
O12	O	1.324927	0.791412	0.741380
O13	O	0.566181	0.041432	0.132175
O14	O	0.816181	0.291432	0.382175
O15	O	1.066181	0.541432	0.632175
O16	O	1.316181	0.791432	0.882175
O17	O	0.574904	-0.041547	-0.008620
O18	O	0.824904	0.208453	0.241380
O19	O	1.074904	0.458453	0.491380
O20	O	1.324904	0.708453	0.741380
O21	O	0.500132	-0.041528	0.066164
O22	O	0.750132	0.208472	0.316164
O23	O	1.000132	0.458472	0.566164
O24	O	1.250132	0.708472	0.816164
O25	O	0.640930	-0.041545	0.057391
O26	O	0.890930	0.208455	0.307391
O27	O	1.140930	0.458455	0.557391
O28	O	1.390930	0.708455	0.807391
Zn29	Zn	0.570527	-0.054708	0.061778
Zn30	Zn	0.820527	0.195292	0.311778
Zn31	Zn	1.070527	0.445292	0.561778
Zn32	Zn	1.320527	0.695292	0.811778
Zn33	Zn	0.570558	0.054594	0.061778
Zn34	Zn	0.820558	0.304594	0.311778
Zn35	Zn	1.070558	0.554594	0.561778
Zn36	Zn	1.320558	0.804594	0.811778
O37	O	0.566158	-0.041527	0.132175
O38	O	0.816158	0.208473	0.382175
O39	O	1.066158	0.458473	0.632175
O40	O	1.316158	0.708473	0.882175
C41	C	0.482137	-0.000046	0.065984
C42	C	0.732137	0.249954	0.315984
C43	C	0.982137	0.499954	0.565984
C44	C	1.232137	0.749954	0.815984
C45	C	0.428480	-0.000040	0.065442
C46	C	0.678480	0.249960	0.315442
C47	C	0.928480	0.499960	0.565442
C48	C	1.178480	0.749960	0.815442
N49	N	0.570510	-0.129304	0.061777
N50	N	0.820510	0.120696	0.311777
N51	N	1.070510	0.370696	0.561777
N52	N	1.320510	0.620696	0.811777
C53	C	0.095749	-0.045281	0.062026
C54	C	0.345749	0.204719	0.312026
C55	C	0.595749	0.454719	0.562026
C56	C	0.845749	0.704719	0.812026
C57	C	-0.105909	-0.045287	0.059964
C58	C	0.144091	0.204713	0.309964
C59	C	0.394091	0.454713	0.559964
C60	C	0.644091	0.704713	0.809964
O61	O	-0.131992	-0.083746	0.059677
O62	O	0.118008	0.166254	0.309677
O63	O	0.368008	0.416254	0.559677
O64	O	0.618008	0.666254	0.809677
N65	N	-0.131111	-0.000066	0.059708
N66	N	0.118889	0.249934	0.309708
N67	N	0.368889	0.499934	0.559708
N68	N	0.618889	0.749934	0.809708
C69	C	-0.105896	0.045160	0.059964
C70	C	0.144104	0.295160	0.309964
C71	C	0.394104	0.545160	0.559964
C72	C	0.644104	0.795160	0.809964
O73	O	-0.131958	0.083623	0.059694
O74	O	0.118042	0.333623	0.309694
O75	O	0.368042	0.583623	0.559694
O76	O	0.618042	0.833623	0.809694
C77	C	0.095762	0.045165	0.062023
C78	C	0.345762	0.295165	0.312023
C79	C	0.595762	0.545165	0.562023
C80	C	0.845762	0.795165	0.812023
C81	C	0.120961	-0.000059	0.062283
C82	C	0.370961	0.249941	0.312283
C83	C	0.620961	0.499941	0.562283
C84	C	0.870961	0.749941	0.812283
C85	C	0.120949	-0.090501	0.062286
C86	C	0.370949	0.159499	0.312286
C87	C	0.620949	0.409499	0.562286
C88	C	0.870949	0.659499	0.812286
C89	C	0.171360	-0.090499	0.062804
C90	C	0.421360	0.159501	0.312804
C91	C	0.671360	0.409501	0.562804
C92	C	0.921360	0.659501	0.812804
C93	C	0.196572	-0.045277	0.063062
C94	C	0.446572	0.204723	0.313062
C95	C	0.696572	0.454723	0.563062
C96	C	0.946572	0.704723	0.813062
C97	C	0.171372	-0.000057	0.062801
C98	C	0.421372	0.249943	0.312801
C99	C	0.671372	0.499943	0.562801
C100	C	0.921372	0.749943	0.812801
C101	C	0.120977	0.090390	0.062275
C102	C	0.370977	0.340390	0.312275
C103	C	0.620977	0.590390	0.562275
C104	C	0.870977	0.840390	0.812275
C105	C	0.171395	0.090388	0.062789
C106	C	0.421395	0.340388	0.312789
C107	C	0.671395	0.590388	0.562789
C108	C	0.921395	0.840388	0.812789
C109	C	0.196594	0.045164	0.063050
C110	C	0.446594	0.295164	0.313050
C111	C	0.696594	0.545164	0.563050
C112	C	0.946594	0.795164	0.813050
C113	C	0.246996	0.045167	0.063577
C114	C	0.496996	0.295167	0.313577
C115	C	0.746996	0.545167	0.563577
C116	C	0.996996	0.795167	0.813577
N117	N	0.272198	-0.000054	0.063833
N118	N	0.522198	0.249946	0.313833
N119	N	0.772198	0.499946	0.563833
N120	N	1.022198	0.749946	0.813833
C121	C	0.246986	-0.045276	0.063576
C122	C	0.496986	0.204724	0.313576
C123	C	0.746986	0.454724	0.563576
C124	C	0.996986	0.704724	0.813576
C125	C	-0.211769	0.045154	0.058885
C126	C	0.038231	0.295154	0.308885
C127	C	0.288231	0.545154	0.558885
C128	C	0.538231	0.795154	0.808885
C129	C	-0.262183	0.045152	0.058371
C130	C	-0.012183	0.295152	0.308371
C131	C	0.237817	0.545152	0.558371
C132	C	0.487817	0.795152	0.808371
C133	C	-0.262193	-0.045294	0.058370
C134	C	-0.012193	0.204706	0.308370
C135	C	0.237807	0.454706	0.558370
C136	C	0.487807	0.704706	0.808370
C137	C	-0.211778	-0.045293	0.058887
C138	C	0.038222	0.204707	0.308887
C139	C	0.288222	0.454707	0.558887
C140	C	0.538222	0.704707	0.808887
C141	C	-0.186566	-0.000067	0.059141
C142	C	0.063434	0.249933	0.309141
C143	C	0.313434	0.499933	0.559141
C144	C	0.563434	0.749933	0.809141
C145	C	0.352853	-0.045268	0.064664
C146	C	0.602853	0.204732	0.314664
C147	C	0.852853	0.454732	0.564664
C148	C	1.102853	0.704732	0.814664
C149	C	0.403268	-0.045262	0.065184
C150	C	0.653268	0.204738	0.315184
C151	C	0.903268	0.454738	0.565184
C152	C	1.153268	0.704738	0.815184
C153	C	0.403274	0.045184	0.065182
C154	C	0.653274	0.295184	0.315182
C155	C	0.903274	0.545184	0.565182
C156	C	1.153274	0.795184	0.815182
C157	C	0.352863	0.045179	0.064665
C158	C	0.602863	0.295179	0.314665
C159	C	0.852863	0.545179	0.564665
C160	C	1.102863	0.795179	0.814665
C161	C	0.327654	-0.000052	0.064404
C162	C	0.577654	0.249948	0.314404
C163	C	0.827654	0.499948	0.564404
C164	C	1.077654	0.749948	0.814404
O165	O	0.273111	0.083606	0.063859
O166	O	0.523111	0.333606	0.313859
O167	O	0.773111	0.583606	0.563859
O168	O	1.023111	0.833606	0.813859
O169	O	0.273059	-0.083733	0.063835
O170	O	0.523059	0.166267	0.313835
O171	O	0.773059	0.416267	0.563835
O172	O	1.023059	0.666267	0.813835
C173	C	0.045338	-0.045283	0.061508
C174	C	0.295338	0.204717	0.311508
C175	C	0.545338	0.454717	0.561508
C176	C	0.795338	0.704717	0.811508
C177	C	0.020139	-0.000063	0.061247
C178	C	0.270139	0.249937	0.311247
C179	C	0.520139	0.499937	0.561247
C180	C	0.770139	0.749937	0.811247
C181	C	0.045351	0.045160	0.061505
C182	C	0.295351	0.295160	0.311505
C183	C	0.545351	0.545160	0.561505
C184	C	0.795351	0.795160	0.811505
C185	C	-0.030275	-0.000064	0.060734
C186	C	0.219725	0.249936	0.310734
C187	C	0.469725	0.499936	0.560734
C188	C	0.719725	0.749936	0.810734
C189	C	-0.055487	-0.045286	0.060476
C190	C	0.194513	0.204714	0.310476
C191	C	0.444513	0.454714	0.560476
C192	C	0.694513	0.704714	0.810476
C193	C	-0.030285	-0.090507	0.060732
C194	C	0.219715	0.159493	0.310732
C195	C	0.469715	0.409493	0.560732
C196	C	0.719715	0.659493	0.810732
C197	C	0.020126	-0.090505	0.061250
C198	C	0.270126	0.159495	0.311250
C199	C	0.520126	0.409495	0.561250
C200	C	0.770126	0.659495	0.811250
C201	C	0.020149	0.090381	0.061249
C202	C	0.270149	0.340381	0.311249
C203	C	0.520149	0.590381	0.561249
C204	C	0.770149	0.840381	0.811249
C205	C	-0.030263	0.090375	0.060732
C206	C	0.219737	0.340375	0.310732
C207	C	0.469737	0.590375	0.560732
C208	C	0.719737	0.840375	0.810732
C209	C	-0.055475	0.045153	0.060474
C210	C	0.194525	0.295153	0.310474
C211	C	0.444525	0.545153	0.560474
C212	C	0.694525	0.795153	0.810474
C213	C	0.599649	-0.473930	0.090883
C214	C	0.849649	-0.223930	0.340883
C215	C	1.099649	0.026070	0.590883
C216	C	1.349649	0.276070	0.840883
C217	C	0.599665	-0.682808	0.090882
C218	C	0.849665	-0.432808	0.340882
C219	C	1.099665	-0.182808	0.590882
C220	C	1.349665	0.067192	0.840882
O221	O	0.624426	-0.709811	0.115623
O222	O	0.874426	-0.459811	0.365623
O223	O	1.124426	-0.209811	0.615623
O224	O	1.374426	0.040189	0.865623
N225	N	0.570569	-0.708931	0.061773
N226	N	0.820569	-0.458931	0.311773
N227	N	1.070569	-0.208931	0.561773
N228	N	1.320569	0.041069	0.811773
C229	C	0.541470	-0.682833	0.032659
C230	C	0.791470	-0.432833	0.282659
C231	C	1.041470	-0.182833	0.532659
C232	C	1.291470	0.067167	0.782659
O233	O	0.516727	-0.709845	0.007895
O234	O	0.766727	-0.459845	0.257895
O235	O	1.016727	-0.209845	0.507895
O236	O	1.266727	0.040155	0.757895
C237	C	0.541458	-0.473956	0.032657
C238	C	0.791458	-0.223956	0.282657
C239	C	1.041458	0.026044	0.532657
C240	C	1.291458	0.276044	0.782657
C241	C	0.570551	-0.447835	0.061772
C242	C	0.820551	-0.197835	0.311772
C243	C	1.070551	0.052165	0.561772
C244	C	1.320551	0.302165	0.811772
C245	C	0.628741	-0.447809	0.119995
C246	C	0.878741	-0.197809	0.369995
C247	C	1.128741	0.052191	0.619995
C248	C	1.378741	0.302191	0.869995
C249	C	0.628734	-0.395592	0.119997
C250	C	0.878734	-0.145592	0.369997
C251	C	1.128734	0.104408	0.619997
C252	C	1.378734	0.354408	0.869997
C253	C	0.599637	-0.369497	0.090886
C254	C	0.849637	-0.119497	0.340886
C255	C	1.099637	0.130503	0.590886
C256	C	1.349637	0.380503	0.840886
C257	C	0.570545	-0.395618	0.061774
C258	C	0.820545	-0.145618	0.311774
C259	C	1.070545	0.104382	0.561774
C260	C	1.320545	0.354382	0.811774
C261	C	0.512362	-0.447858	0.003540
C262	C	0.762362	-0.197858	0.253540
C263	C	1.012362	0.052142	0.503540
C264	C	1.262362	0.302142	0.753540
C265	C	0.512362	-0.395636	0.003542
C266	C	0.762362	-0.145636	0.253542
C267	C	1.012362	0.104364	0.503542
C268	C	1.262362	0.354364	0.753542
C269	C	0.541455	-0.369514	0.032657
C270	C	0.791455	-0.119514	0.282657
C271	C	1.041455	0.130486	0.532657
C272	C	1.291455	0.380486	0.782657
C273	C	0.541441	-0.317307	0.032665
C274	C	0.791441	-0.067307	0.282665
C275	C	1.041441	0.182693	0.532665
C276	C	1.291441	0.432693	0.782665
N277	N	0.570536	-0.291183	0.061775
N278	N	0.820536	-0.041183	0.311775
N279	N	1.070536	0.208817	0.561775
N280	N	1.320536	0.458817	0.811775
C281	C	0.599634	-0.317278	0.090885
C282	C	0.849634	-0.067278	0.340885
C283	C	1.099634	0.182722	0.590885
C284	C	1.349634	0.432722	0.840885
C285	C	0.541478	-0.792496	0.032662
C286	C	0.791478	-0.542496	0.282662
C287	C	1.041478	-0.292496	0.532662
C288	C	1.291478	-0.042496	0.782662
C289	C	0.541481	-0.844715	0.032663
C290	C	0.791481	-0.594715	0.282663
C291	C	1.041481	-0.344715	0.532663
C292	C	1.291481	-0.094715	0.782663
C293	C	0.599676	-0.844686	0.090886
C294	C	0.849676	-0.594686	0.340886
C295	C	1.099676	-0.344686	0.590886
C296	C	1.349676	-0.094686	0.840886
C297	C	0.599670	-0.792466	0.090888
C298	C	0.849670	-0.542466	0.340888
C299	C	1.099670	-0.292466	0.590888
C300	C	1.349670	-0.042466	0.840888
C301	C	0.570574	-0.766372	0.061772
C302	C	0.820574	-0.516372	0.311772
C303	C	1.070574	-0.266372	0.561772
C304	C	1.320574	-0.016372	0.811772
C305	C	0.599619	-0.207620	0.090887
C306	C	0.849619	0.042380	0.340887
C307	C	1.099619	0.292380	0.590887
C308	C	1.349619	0.542380	0.840887
C309	C	0.599608	-0.155399	0.090888
C310	C	0.849608	0.094601	0.340888
C311	C	1.099608	0.344601	0.590888
C312	C	1.349608	0.594601	0.840888
C313	C	0.541415	-0.155433	0.032663
C314	C	0.791415	0.094567	0.282663
C315	C	1.041415	0.344567	0.532663
C316	C	1.291415	0.594567	0.782663
C317	C	0.541423	-0.207649	0.032664
C318	C	0.791423	0.042351	0.282664
C319	C	1.041423	0.292351	0.532664
C320	C	1.291423	0.542351	0.782664
C321	C	0.570529	-0.233742	0.061777
C322	C	0.820529	0.016258	0.311777
C323	C	1.070529	0.266258	0.561777
C324	C	1.320529	0.516258	0.811777
O325	O	0.516696	-0.290272	0.007933
O326	O	0.766696	-0.040272	0.257933
O327	O	1.016696	0.209728	0.507933
O328	O	1.266696	0.459728	0.757933
O329	O	0.624382	-0.290257	0.115637
O330	O	0.874382	-0.040257	0.365637
O331	O	1.124382	0.209743	0.615637
O332	O	1.374382	0.459743	0.865637
C333	C	0.599655	-0.526146	0.090881
C334	C	0.849655	-0.276146	0.340881
C335	C	1.099655	-0.026146	0.590881
C336	C	1.349655	0.223854	0.840881
C337	C	0.570564	-0.552267	0.061768
C338	C	0.820564	-0.302267	0.311768
C339	C	1.070564	-0.052267	0.561768
C340	C	1.320564	0.197733	0.811768
C341	C	0.541466	-0.526172	0.032658
C342	C	0.791466	-0.276172	0.282658
C343	C	1.041466	-0.026172	0.532658
C344	C	1.291466	0.223828	0.782658
C345	C	0.570566	-0.604486	0.061769
C346	C	0.820566	-0.354486	0.311769
C347	C	1.070566	-0.104486	0.561769
C348	C	1.320566	0.145514	0.811769
C349	C	0.599664	-0.630581	0.090880
C350	C	0.849664	-0.380581	0.340880
C351	C	1.099664	-0.130581	0.590880
C352	C	1.349664	0.119419	0.840880
C353	C	0.628759	-0.604458	0.119990
C354	C	0.878759	-0.354458	0.369990
C355	C	1.128759	-0.104458	0.619990
C356	C	1.378759	0.145542	0.869990
C357	C	0.628753	-0.552241	0.119991
C358	C	0.878753	-0.302241	0.369991
C359	C	1.128753	-0.052241	0.619991
C360	C	1.378753	0.197759	0.869991
C361	C	0.512370	-0.552296	0.003548
C362	C	0.762370	-0.302296	0.253548
C363	C	1.012370	-0.052296	0.503548
C364	C	1.262370	0.197704	0.753548
C365	C	0.512378	-0.604512	0.003549
C366	C	0.762378	-0.354512	0.253549
C367	C	1.012378	-0.104512	0.503549
C368	C	1.262378	0.145488	0.753549
C369	C	0.541476	-0.630608	0.032660
C370	C	0.791476	-0.380608	0.282660
C371	C	1.041476	-0.130608	0.532660
C372	C	1.291476	0.119392	0.782660
C373	C	0.658949	-0.000067	0.057571
C374	C	0.908949	0.249933	0.307571
C375	C	1.158949	0.499933	0.557571
C376	C	1.408949	0.749933	0.807571
C377	C	0.712605	-0.000070	0.058114
C378	C	0.962605	0.249930	0.308114
C379	C	1.212605	0.499930	0.558114
C380	C	1.462605	0.749930	0.808114
C381	C	0.574732	-0.000069	-0.026627
C382	C	0.824732	0.249931	0.223373
C383	C	1.074732	0.499931	0.473373
C384	C	1.324732	0.749931	0.723373
C385	C	0.574179	-0.000073	-0.080282
C386	C	0.824179	0.249927	0.169718
C387	C	1.074179	0.499927	0.419718
C388	C	1.324179	0.749927	0.669718
N389	N	0.570578	0.129190	0.061774
N390	N	0.820578	0.379190	0.311774
N391	N	1.070578	0.629190	0.561774
N392	N	1.320578	0.879190	0.811774
C393	C	0.614884	-0.000052	-0.419105
C394	C	0.864884	0.249948	-0.169105
C395	C	1.114884	0.499948	0.080895
C396	C	1.364884	0.749948	0.330895
C397	C	0.612833	-0.000045	-0.620764
C398	C	0.862833	0.249955	-0.370764
C399	C	1.112833	0.499955	-0.120764
C400	C	1.362833	0.749955	0.129236
O401	O	0.650055	-0.000028	-0.652027
O402	O	0.900055	0.249972	-0.402027
O403	O	1.150055	0.499972	-0.152027
O404	O	1.400055	0.749972	0.097973
N405	N	0.568496	-0.000040	-0.639879
N406	N	0.818496	0.249960	-0.389879
N407	N	1.068496	0.499960	-0.139879
N408	N	1.318496	0.749960	0.110121
C409	C	0.524670	-0.000033	-0.608576
C410	C	0.774670	0.249967	-0.358576
C411	C	1.024670	0.499967	-0.108576
C412	C	1.274670	0.749967	0.141424
O413	O	0.486912	-0.000024	-0.629462
O414	O	0.736912	0.249976	-0.379462
O415	O	0.986912	0.499976	-0.129462
O416	O	1.236912	0.749976	0.120538
C417	C	0.526721	-0.000037	-0.406918
C418	C	0.776721	0.249963	-0.156918
C419	C	1.026721	0.499963	0.093082
C420	C	1.276721	0.749963	0.343082
C421	C	0.571061	-0.000047	-0.387805
C422	C	0.821061	0.249953	-0.137805
C423	C	1.071061	0.499953	0.112195
C424	C	1.321061	0.749953	0.362195
C425	C	0.659220	-0.000061	-0.399992
C426	C	0.909220	0.249939	-0.149992
C427	C	1.159220	0.499939	0.100008
C428	C	1.409220	0.749939	0.350008
C429	C	0.659732	-0.000066	-0.349580
C430	C	0.909732	0.249934	-0.099580
C431	C	1.159732	0.499934	0.150420
C432	C	1.409732	0.749934	0.400420
C433	C	0.615908	-0.000061	-0.318281
C434	C	0.865908	0.249939	-0.068281
C435	C	1.115908	0.499939	0.181719
C436	C	1.365908	0.749939	0.431719
C437	C	0.571573	-0.000052	-0.337394
C438	C	0.821573	0.249948	-0.087394
C439	C	1.071573	0.499948	0.162606
C440	C	1.321573	0.749948	0.412606
C441	C	0.482895	-0.000027	-0.375615
C442	C	0.732895	0.249973	-0.125615
C443	C	0.982895	0.499973	0.124385
C444	C	1.232895	0.749973	0.374385
C445	C	0.483412	-0.000027	-0.325198
C446	C	0.733412	0.249973	-0.075198
C447	C	0.983412	0.499973	0.174802
C448	C	1.233412	0.749973	0.424802
C449	C	0.527751	-0.000037	-0.306086
C450	C	0.777751	0.249963	-0.056086
C451	C	1.027751	0.499963	0.193914
C452	C	1.277751	0.749963	0.443914
C453	C	0.528262	-0.000051	-0.255683
C454	C	0.778262	0.249949	-0.005683
C455	C	1.028262	0.499949	0.244317
C456	C	1.278262	0.749949	0.494317
N457	N	0.572598	-0.000056	-0.236567
N458	N	0.822598	0.249944	0.013433
N459	N	1.072598	0.499944	0.263433
N460	N	1.322598	0.749944	0.513433
C461	C	0.616421	-0.000061	-0.267867
C462	C	0.866421	0.249939	-0.017867
C463	C	1.116421	0.499939	0.232133
C464	C	1.366421	0.749939	0.482133
C465	C	0.523596	-0.000032	-0.714450
C466	C	0.773596	0.249968	-0.464450
C467	C	1.023596	0.499968	-0.214450
C468	C	1.273596	0.749968	0.035550
C469	C	0.523083	-0.000032	-0.764864
C470	C	0.773083	0.249968	-0.514864
C471	C	1.023083	0.499968	-0.264864
C472	C	1.273083	0.749968	-0.014864
C473	C	0.611246	-0.000043	-0.777049
C474	C	0.861246	0.249957	-0.527049
C475	C	1.111246	0.499957	-0.277049
C476	C	1.361246	0.749957	-0.027049
C477	C	0.611759	-0.000047	-0.726633
C478	C	0.861759	0.249953	-0.476633
C479	C	1.111759	0.499953	-0.226633
C480	C	1.361759	0.749953	0.023367
C481	C	0.567932	-0.000037	-0.695335
C482	C	0.817932	0.249963	-0.445335
C483	C	1.067932	0.499963	-0.195335
C484	C	1.317932	0.749963	0.054665
C485	C	0.617494	-0.000071	-0.161998
C486	C	0.867494	0.249929	0.088002
C487	C	1.117494	0.499929	0.338002
C488	C	1.367494	0.749929	0.588002
C489	C	0.618002	-0.000078	-0.111581
C490	C	0.868002	0.249922	0.138419
C491	C	1.118002	0.499922	0.388419
C492	C	1.368002	0.749922	0.638419
C493	C	0.529839	-0.000064	-0.099401
C494	C	0.779839	0.249936	0.150599
C495	C	1.029839	0.499936	0.400599
C496	C	1.279839	0.749936	0.650599
C497	C	0.529331	-0.000060	-0.149813
C498	C	0.779331	0.249940	0.100187
C499	C	1.029331	0.499940	0.350187
C500	C	1.279331	0.749940	0.600187
C501	C	0.573162	-0.000062	-0.181111
C502	C	0.823162	0.249938	0.068889
C503	C	1.073162	0.499938	0.318889
C504	C	1.323162	0.749938	0.568889
O505	O	0.491060	-0.000063	-0.224391
O506	O	0.741060	0.249937	0.025609
O507	O	0.991060	0.499937	0.275609
O508	O	1.241060	0.749937	0.525609
O509	O	0.654174	-0.000060	-0.246971
O510	O	0.904174	0.249940	0.003029
O511	O	1.154174	0.499940	0.253029
O512	O	1.404174	0.749940	0.503029
C513	C	0.614372	-0.000047	-0.469517
C514	C	0.864372	0.249953	-0.219517
C515	C	1.114372	0.499953	0.030483
C516	C	1.364372	0.749953	0.280483
C517	C	0.570036	-0.000038	-0.488629
C518	C	0.820036	0.249962	-0.238629
C519	C	1.070036	0.499962	0.011371
C520	C	1.320036	0.749962	0.261371
C521	C	0.526213	-0.000033	-0.457330
C522	C	0.776213	0.249967	-0.207330
C523	C	1.026213	0.499967	0.042670
C524	C	1.276213	0.749967	0.292670
C525	C	0.569523	-0.000038	-0.539043
C526	C	0.819523	0.249962	-0.289043
C527	C	1.069523	0.499962	-0.039043
C528	C	1.319523	0.749962	0.210957
C529	C	0.613346	-0.000043	-0.570343
C530	C	0.863346	0.249957	-0.320343
C531	C	1.113346	0.499957	-0.070343
C532	C	1.363346	0.749957	0.179657
C533	C	0.657683	-0.000048	-0.551228
C534	C	0.907683	0.249952	-0.301228
C535	C	1.157683	0.499952	-0.051228
C536	C	1.407683	0.749952	0.198772
C537	C	0.658195	-0.000052	-0.500816
C538	C	0.908195	0.249948	-0.250816
C539	C	1.158195	0.499948	-0.000816
C540	C	1.408195	0.749948	0.249184
C541	C	0.481876	-0.000028	-0.476445
C542	C	0.731876	0.249972	-0.226445
C543	C	0.981876	0.499972	0.023555
C544	C	1.231876	0.749972	0.273555
C545	C	0.481367	-0.000024	-0.526857
C546	C	0.731367	0.249976	-0.276857
C547	C	0.981367	0.499976	-0.026857
C548	C	1.231367	0.749976	0.223143
C549	C	0.525191	-0.000029	-0.558157
C550	C	0.775191	0.249971	-0.308157
C551	C	1.025191	0.499971	-0.058157
C552	C	1.275191	0.749971	0.191843
C553	C	0.566353	-0.000045	0.150182
C554	C	0.816353	0.249955	0.400182
C555	C	1.066353	0.499955	0.650182
C556	C	1.316353	0.749955	0.900182
C557	C	0.566906	-0.000037	0.203837
C558	C	0.816906	0.249963	0.453837
C559	C	1.066906	0.499963	0.703837
C560	C	1.316906	0.749963	0.953837
H561	H	0.423783	-0.082091	0.065398
H562	H	0.673783	0.167909	0.315398
H563	H	0.923783	0.417909	0.565398
H564	H	1.173783	0.667909	0.815398
Br565	Br	0.668235	-0.516799	0.159512
Br566	Br	0.918235	-0.266799	0.409512
Br567	Br	1.168235	-0.016799	0.659512
Br568	Br	1.418235	0.233201	0.909512
H569	H	0.653186	-0.000070	-0.187475
H570	H	0.903186	0.249930	0.062525
H571	H	1.153186	0.499930	0.312525
H572	H	1.403186	0.749930	0.562525
Br573	Br	0.639120	-0.243024	0.130398
Br574	Br	0.889120	0.006976	0.380398
Br575	Br	1.139120	0.256976	0.630398
Br576	Br	1.389120	0.506976	0.880398
Br577	Br	0.472874	-0.483295	-0.035975
Br578	Br	0.722874	-0.233295	0.214025
Br579	Br	0.972874	0.016705	0.464025
Br580	Br	1.222874	0.266705	0.714025
Br581	Br	0.639167	-0.880111	0.130393
Br582	Br	0.889167	-0.630111	0.380393
Br583	Br	1.139167	-0.380111	0.630393
Br584	Br	1.389167	-0.130111	0.880393
Br585	Br	0.205608	0.151769	0.063130
Br586	Br	0.455608	0.401769	0.313130
Br587	Br	0.705608	0.651769	0.563130
Br588	Br	0.955608	0.901769	0.813130
H589	H	0.693365	-0.000054	-0.576720
H590	H	0.943365	0.249946	-0.326720
H591	H	1.193365	0.499946	-0.076720
H592	H	1.443365	0.749946	0.173280
Br593	Br	0.422395	-0.000019	-0.433975
Br594	Br	0.672395	0.249981	-0.183975
Br595	Br	0.922395	0.499981	0.066025
Br596	Br	1.172395	0.749981	0.316025
Br597	Br	0.501933	-0.243100	-0.006844
Br598	Br	0.751933	0.006900	0.243156
Br599	Br	1.001933	0.256900	0.493156
Br600	Br	1.251933	0.506900	0.743156
H601	H	0.487905	-0.000025	-0.688970
H602	H	0.737905	0.249975	-0.438970
H603	H	0.987905	0.499975	-0.188970
H604	H	1.237905	0.749975	0.061030
H605	H	0.652438	-0.469050	0.143701
H606	H	0.902438	-0.219050	0.393701
H607	H	1.152438	0.030950	0.643701
H608	H	1.402438	0.280950	0.893701
H609	H	0.517783	-0.771255	0.008951
H610	H	0.767783	-0.521255	0.258951
H611	H	1.017783	-0.271255	0.508951
H612	H	1.267783	-0.021255	0.758951
Br613	Br	0.470368	-0.000058	-0.056914
Br614	Br	0.720368	0.249942	0.193086
Br615	Br	0.970368	0.499942	0.443086
Br616	Br	1.220368	0.749942	0.693086
H617	H	0.488667	-0.374392	-0.020169
H618	H	0.738667	-0.124392	0.229831
H619	H	0.988667	0.125608	0.479831
H620	H	1.238667	0.375608	0.729831
Br621	Br	0.318661	0.106554	0.064321
Br622	Br	0.568661	0.356554	0.314321
Br623	Br	0.818661	0.606554	0.564321
Br624	Br	1.068661	0.856554	0.814321
H625	H	0.423810	0.082003	0.065394
H626	H	0.673810	0.332003	0.315394
H627	H	0.923810	0.582003	0.565394
H628	H	1.173810	0.832003	0.815394
Br629	Br	0.501986	-0.880159	-0.006842
Br630	Br	0.751986	-0.630159	0.243158
Br631	Br	1.001986	-0.380159	0.493158
Br632	Br	1.251986	-0.130159	0.743158
H633	H	0.694908	-0.000064	-0.425472
H634	H	0.944908	0.249936	-0.175472
H635	H	1.194908	0.499936	0.074528
H636	H	1.444908	0.749936	0.324528
Br637	Br	0.318649	-0.106653	0.064308
Br638	Br	0.568649	0.143347	0.314308
Br639	Br	0.818649	0.393347	0.564308
Br640	Br	1.068649	0.643347	0.814308
H641	H	-0.191246	0.081984	0.059091
H642	H	0.058754	0.331984	0.309091
H643	H	0.308754	0.581984	0.559091
H644	H	0.558754	0.831984	0.809091
H645	H	0.191873	-0.127325	0.063014
H646	H	0.441873	0.122675	0.313014
H647	H	0.691873	0.372675	0.563014
H648	H	0.941873	0.622675	0.813014
Br649	Br	-0.064512	-0.151880	0.060386
Br650	Br	0.185488	0.098120	0.310386
Br651	Br	0.435488	0.348120	0.560386
Br652	Br	0.685488	0.598120	0.810386
H653	H	0.517723	-0.134177	0.008963
H654	H	0.767723	0.115823	0.258963
H655	H	1.017723	0.365823	0.508963
H656	H	1.267723	0.615823	0.758963
Br657	Br	0.718373	-0.000063	-0.474886
Br658	Br	0.968373	0.249937	-0.224886
Br659	Br	1.218373	0.499937	0.025114
Br660	Br	1.468373	0.749937	0.275114
H661	H	0.623300	-0.134134	0.114599
H662	H	0.873300	0.115866	0.364599
H663	H	1.123300	0.365866	0.614599
H664	H	1.373300	0.615866	0.864599
H665	H	0.652449	-0.625713	0.143695
H666	H	0.902449	-0.375713	0.393695
H667	H	1.152449	-0.125713	0.643695
H668	H	1.402449	0.124287	0.893695
Br669	Br	0.472887	-0.639956	-0.035965
Br670	Br	0.722887	-0.389956	0.214035
Br671	Br	0.972887	-0.139956	0.464035
Br672	Br	1.222887	0.110044	0.714035
Br673	Br	0.421187	-0.000014	-0.552788
Br674	Br	0.671187	0.249986	-0.302788
Br675	Br	0.921187	0.499986	-0.052788
Br676	Br	1.171187	0.749986	0.197212
H677	H	0.488676	-0.531055	-0.020159
H678	H	0.738676	-0.281055	0.229841
H679	H	0.988676	-0.031055	0.479841
H680	H	1.238676	0.218945	0.729841
H681	H	0.652427	-0.374329	0.143703
H682	H	0.902427	-0.124329	0.393703
H683	H	1.152427	0.125671	0.643703
H684	H	1.402427	0.375671	0.893703
Br685	Br	0.462906	-0.000031	-0.790795
Br686	Br	0.712906	0.249969	-0.540795
Br687	Br	0.962906	0.499969	-0.290795
Br688	Br	1.212906	0.749969	-0.040795
H689	H	0.100426	-0.127329	0.062075
H690	H	0.350426	0.122671	0.312075
H691	H	0.600426	0.372671	0.562075
H692	H	0.850426	0.622671	0.812075
Br693	Br	0.639157	-0.757022	0.130401
Br694	Br	0.889157	-0.507022	0.380401
Br695	Br	1.139157	-0.257022	0.630401
Br696	Br	1.389157	-0.007022	0.880401
Br697	Br	0.678181	-0.000092	-0.085647
Br698	Br	0.928181	0.249908	0.164353
Br699	Br	1.178181	0.499908	0.414353
Br700	Br	1.428181	0.749908	0.664353
H701	H	0.695837	-0.000072	-0.334024
H702	H	0.945837	0.249928	-0.084024
H703	H	1.195837	0.499928	0.165976
H704	H	1.445837	0.749928	0.415976
H705	H	0.647863	-0.000054	-0.711076
H706	H	0.897863	0.249946	-0.461076
H707	H	1.147863	0.499946	-0.211076
H708	H	1.397863	0.749946	0.038924
Br709	Br	0.670720	-0.000048	-0.819536
Br710	Br	0.920720	0.249952	-0.569536
Br711	Br	1.170720	0.499952	-0.319536
Br712	Br	1.420720	0.749952	-0.069536
H713	H	0.446789	-0.000016	-0.391167
H714	H	0.696789	0.249984	-0.141167
H715	H	0.946789	0.499984	0.108833
H716	H	1.196789	0.749984	0.358833
H717	H	0.447722	-0.000018	-0.299716
H718	H	0.697722	0.249982	-0.049716
H719	H	0.947722	0.499982	0.200284
H720	H	1.197722	0.749982	0.450284
H721	H	0.493226	-0.000066	-0.165375
H722	H	0.743226	0.249934	0.084625
H723	H	0.993226	0.499934	0.334625
H724	H	1.243226	0.749934	0.584625
H725	H	-0.191264	-0.082118	0.059100
H726	H	0.058736	0.167882	0.309100
H727	H	0.308736	0.417882	0.559100
H728	H	0.558736	0.667882	0.809100
H729	H	-0.282729	-0.082116	0.058161
H730	H	-0.032729	0.167884	0.308161
H731	H	0.217271	0.417884	0.558161
H732	H	0.467271	0.667884	0.808161
H733	H	-0.282697	0.081978	0.058166
H734	H	-0.032697	0.331978	0.308166
H735	H	0.217303	0.581978	0.558166
H736	H	0.467303	0.831978	0.808166
H737	H	0.100469	0.127217	0.062062
H738	H	0.350469	0.377217	0.312062
H739	H	0.600469	0.627217	0.562062
H740	H	0.850469	0.877217	0.812062
H741	H	0.040639	-0.127331	0.061463
H742	H	0.290639	0.122669	0.311463
H743	H	0.540639	0.372669	0.561463
H744	H	0.790639	0.622669	0.811463
H745	H	-0.050776	0.127205	0.060523
H746	H	0.199224	0.377205	0.310523
H747	H	0.449224	0.627205	0.560523
H748	H	0.699224	0.877205	0.810523
H749	H	0.040671	0.127207	0.061457
H750	H	0.290671	0.377207	0.311457
H751	H	0.540671	0.627207	0.561457
H752	H	0.790671	0.877207	0.811457
