data_functionalizedCrystal
_audit_creation_method	'MofGen! by Chris Wilmer'
_symmetry_space_group_name_H-M	'P1'
_symmetry_Int_Tables_number	1
_symmetry_cell_setting	triclinic
loop_
_symmetry_equiv_pos_as_xyz
  x,y,z
_cell_length_a	11.026607
_cell_length_b	27.732048
_cell_length_c	10.065875
_cell_angle_alpha	98.710990
_cell_angle_beta	79.302338
_cell_angle_gamma	95.614336
loop_
_atom_site_label
_atom_site_type_symbol
_atom_site_fract_x
_atom_site_fract_y
_atom_site_fract_z
O1	O	1.624242	0.196525	-0.113550
O2	O	1.271367	0.173515	-0.113545
O3	O	1.458760	0.115611	-0.113522
O4	O	1.436849	0.254429	-0.113573
O5	O	1.423025	0.126709	0.113462
O6	O	1.235632	0.184613	0.113439
O7	O	1.588508	0.207623	0.113434
Zn8	Zn	1.406396	0.197880	0.149475
Zn9	Zn	1.453478	0.183258	-0.149586
O10	O	1.401115	0.265527	0.113411
C11	C	1.208368	0.174819	-0.000052
C12	C	1.073891	0.162164	-0.000049
C13	C	1.440432	0.103112	-0.000026
C14	C	1.439045	0.049333	-0.000015
C15	C	0.999432	0.197105	-0.000063
C16	C	0.860443	0.184027	-0.000060
C17	C	1.541073	-0.280305	-0.000086
C18	C	1.535935	-0.482428	-0.000105
O19	O	1.629232	-0.505292	-0.000166
N20	N	1.424816	-0.511552	-0.000102
C21	C	1.314975	-0.490142	-0.000104
O22	O	1.220346	-0.519552	-0.000116
C23	C	1.320116	-0.288020	-0.000094
C24	C	1.431240	-0.258898	-0.000083
C25	C	1.652188	-0.251184	-0.000077
C26	C	1.653470	-0.200655	-0.000064
C27	C	1.543637	-0.179249	-0.000062
C28	C	1.432522	-0.208370	-0.000071
C29	C	1.210278	-0.266612	-0.000106
C30	C	1.211573	-0.216078	-0.000107
C31	C	1.322697	-0.186956	-0.000096
C32	C	1.323971	-0.136436	-0.000056
N33	N	1.435090	-0.107312	-0.000059
C34	C	1.544923	-0.128719	-0.000062
C35	C	1.312284	-0.596258	-0.000106
C36	C	1.310998	-0.646789	-0.000106
C37	C	1.531959	-0.639071	-0.000110
C38	C	1.533242	-0.588540	-0.000100
C39	C	1.423403	-0.567135	-0.000109
C40	C	1.547607	-0.022606	-0.000035
C41	C	1.548878	0.027926	-0.000017
C42	C	1.327919	0.020204	-0.000021
C43	C	1.326646	-0.030324	-0.000031
C44	C	1.436500	-0.051727	-0.000043
O45	O	1.230726	-0.113540	-0.000011
O46	O	1.639543	-0.099302	-0.000080
C47	C	1.539791	-0.330833	-0.000098
C48	C	1.428676	-0.359955	-0.000108
C49	C	1.318842	-0.338548	-0.000105
C50	C	1.427390	-0.410485	-0.000108
C51	C	1.537223	-0.431891	-0.000110
C52	C	1.648342	-0.402768	-0.000113
C53	C	1.649624	-0.352240	-0.000101
C54	C	1.207723	-0.367671	-0.000102
C55	C	1.206450	-0.418199	-0.000113
C56	C	1.316283	-0.439606	-0.000116
C57	C	1.651507	0.206319	-0.000062
C58	C	1.785985	0.218973	-0.000074
C59	C	1.419443	0.278026	-0.000088
C60	C	1.420832	0.331805	-0.000108
N61	N	1.374273	0.207860	0.353577
N62	N	1.485611	0.173275	-0.353688
C63	C	1.442294	0.186727	0.421364
C64	C	1.417580	0.194412	0.578528
H65	H	0.821303	0.144426	-0.000080
H66	H	1.741634	-0.268607	-0.000084
H67	H	1.341040	0.218194	0.636840
H68	H	1.115951	-0.441906	-0.000110
N69	N	1.653095	-0.557132	-0.000087
H70	H	1.722472	-0.578365	-0.000085
H71	H	1.671697	-0.540109	-0.084234
H72	H	0.825128	0.258573	-0.000079
H73	H	1.220506	-0.670494	-0.000091
H74	H	1.621390	-0.656509	-0.000111
N75	N	1.766812	-0.425860	-0.000125
H76	H	1.802094	-0.411275	0.084018
H77	H	1.749036	-0.462286	-0.000186
H78	H	1.034745	0.122566	-0.000069
H79	H	1.297738	0.231641	0.411893
N80	N	1.193807	-0.573175	-0.000112
H81	H	1.123228	-0.599296	-0.000106
H82	H	1.176275	-0.548268	0.084035
H83	H	1.639372	0.051636	-0.000005
N84	N	1.090418	-0.298013	-0.000100
H85	H	1.021047	-0.276777	-0.000101
H86	H	1.098307	-0.323257	-0.084246
N87	N	1.666089	-0.045688	-0.000048
H88	H	1.736665	-0.019566	-0.000037
H89	H	1.657125	-0.062376	0.084096
H90	H	1.038582	0.236702	-0.000070
N91	N	1.773326	-0.169249	-0.000057
H92	H	1.842701	-0.190485	-0.000064
H93	H	1.791925	-0.152226	-0.084203
H94	H	1.122127	-0.198653	-0.000116
H95	H	1.236153	-0.054034	-0.000002
N96	N	1.209454	0.043300	0.000019
H97	H	1.227138	0.079729	0.000032
H98	H	1.174217	0.028680	-0.084122
N99	N	1.769479	-0.320833	-0.000086
H100	H	1.838854	-0.342068	-0.000091
H101	H	1.788082	-0.303809	-0.084229
N102	N	1.543641	0.155208	0.344134
H103	H	1.546917	0.154179	0.242808
H104	H	1.625669	0.169388	0.368996
N105	N	1.089255	-0.344587	-0.000101
H106	H	1.018676	-0.370708	-0.000100
H107	H	1.071724	-0.319683	0.084052
N108	N	1.586987	0.141766	0.569090
H109	H	1.590273	0.140740	0.467763
H110	H	1.669001	0.155956	0.593970
