data_functionalizedCrystal
_audit_creation_method	'MofGen! by Chris Wilmer'
_symmetry_space_group_name_H-M	'P1'
_symmetry_Int_Tables_number	1
_symmetry_cell_setting	triclinic
loop_
_symmetry_equiv_pos_as_xyz
  x,y,z
_cell_length_a	17.077402
_cell_length_b	17.077404
_cell_length_c	17.077396
_cell_angle_alpha	90.021457
_cell_angle_beta	89.970216
_cell_angle_gamma	89.978013
loop_
_atom_site_label
_atom_site_type_symbol
_atom_site_fract_x
_atom_site_fract_y
_atom_site_fract_z
Zn1	Zn	-0.312527	-1.200055	-0.443877
Zn2	Zn	0.020806	-0.866721	-0.110543
Zn3	Zn	0.354140	-0.533388	0.222790
Zn4	Zn	-0.443802	-1.199962	-0.312608
Zn5	Zn	-0.110468	-0.866628	0.020726
Zn6	Zn	0.222865	-0.533295	0.354059
Zn7	Zn	-0.312552	-1.068786	-0.312620
Zn8	Zn	0.020781	-0.735453	0.020713
Zn9	Zn	0.354115	-0.402120	0.354047
Zn10	Zn	-0.443753	-1.068754	-0.443827
Zn11	Zn	-0.110419	-0.735421	-0.110493
Zn12	Zn	0.222914	-0.402088	0.222840
O13	O	-0.378158	-1.134389	-0.378233
O14	O	-0.044825	-0.801056	-0.044899
O15	O	0.288508	-0.467723	0.288434
O16	O	-0.329951	-1.309889	-0.426479
O17	O	0.003382	-0.976556	-0.093146
O18	O	0.336716	-0.643223	0.240188
O19	O	-0.426422	-1.182536	-0.202762
O20	O	-0.093089	-0.849202	0.130571
O21	O	0.240244	-0.515869	0.463904
O22	O	-0.202702	-1.086252	-0.330058
O23	O	0.130632	-0.752918	0.003276
O24	O	0.463965	-0.419585	0.336609
O25	O	-0.426398	-1.309821	-0.330036
O26	O	-0.093065	-0.976488	0.003297
O27	O	0.240269	-0.643154	0.336630
O28	O	-0.202683	-1.182694	-0.426491
O29	O	0.130650	-0.849361	-0.093158
O30	O	0.463983	-0.516027	0.240175
O31	O	-0.329993	-1.086162	-0.202771
O32	O	0.003340	-0.752828	0.130562
O33	O	0.336673	-0.419495	0.463895
O34	O	-0.329946	-0.958935	-0.330009
O35	O	0.003388	-0.625602	0.003324
O36	O	0.336721	-0.292269	0.336657
O37	O	-0.426314	-1.086197	-0.553680
O38	O	-0.092981	-0.752864	-0.220347
O39	O	0.240352	-0.419531	0.112986
O40	O	-0.426338	-0.958912	-0.426406
O41	O	-0.093005	-0.625578	-0.093073
O42	O	0.240328	-0.292245	0.240261
O43	O	-0.329903	-1.182663	-0.553717
O44	O	0.003430	-0.849330	-0.220384
O45	O	0.336763	-0.515996	0.112950
O46	O	-0.553642	-1.182505	-0.329988
O47	O	-0.220309	-0.849171	0.003345
O48	O	0.113025	-0.515838	0.336679
O49	O	-0.553606	-1.086107	-0.426394
O50	O	-0.220273	-0.752774	-0.093061
O51	O	0.113061	-0.419440	0.240273
C52	C	-0.378140	-0.930441	-0.378204
C53	C	-0.044807	-0.597108	-0.044871
C54	C	0.288527	-0.263775	0.288463
C55	C	-0.378151	-0.843192	-0.378210
C56	C	-0.044818	-0.509858	-0.044877
C57	C	0.288515	-0.176525	0.288456
C58	C	-0.582106	-1.134314	-0.378201
C59	C	-0.248773	-0.800980	-0.044868
C60	C	0.084560	-0.467647	0.288465
C61	C	-0.669356	-1.134353	-0.378214
C62	C	-0.336023	-0.801020	-0.044881
C63	C	-0.002689	-0.467686	0.288452
C64	C	-0.428418	-0.802210	-0.428322
C65	C	-0.095084	-0.468876	-0.094989
C66	C	0.238249	-0.135543	0.238344
C67	C	-0.428418	-0.720229	-0.428332
C68	C	-0.095085	-0.386896	-0.094999
C69	C	0.238249	-0.053563	0.238334
C70	C	-0.378155	-0.679232	-0.378225
C71	C	-0.044821	-0.345899	-0.044892
C72	C	0.288512	-0.012566	0.288441
C73	C	-0.327883	-0.720220	-0.328111
C74	C	0.005451	-0.386887	0.005222
C75	C	0.338784	-0.053553	0.338555
C76	C	-0.327879	-0.802199	-0.328106
C77	C	0.005454	-0.468865	0.005227
C78	C	0.338787	-0.135532	0.338561
C79	C	-0.327895	-0.549350	-0.328124
C80	C	0.005439	-0.216016	0.005209
C81	C	0.338772	0.117317	0.338542
C82	C	-0.327899	-0.467365	-0.328128
C83	C	0.005434	-0.134032	0.005205
C84	C	0.338768	0.199301	0.338538
C85	C	-0.428433	-0.467380	-0.428350
C86	C	-0.095100	-0.134047	-0.095017
C87	C	0.238233	0.199286	0.238316
C88	C	-0.428430	-0.549359	-0.428345
C89	C	-0.095097	-0.216026	-0.095012
C90	C	0.238237	0.117307	0.238321
C91	C	-0.378159	-0.590341	-0.378230
C92	C	-0.044825	-0.257008	-0.044896
C93	C	0.288508	0.076325	0.288437
C94	C	-0.710339	-1.184598	-0.328069
C95	C	-0.377006	-0.851265	0.005264
C96	C	-0.043672	-0.517932	0.338597
C97	C	-0.792319	-1.184637	-0.328089
C98	C	-0.458986	-0.851303	0.005244
C99	C	-0.125653	-0.517970	0.338577
C100	C	-0.833315	-1.134425	-0.378251
C101	C	-0.499982	-0.801092	-0.044918
C102	C	-0.166649	-0.467759	0.288416
C103	C	-0.792327	-1.084178	-0.428401
C104	C	-0.458993	-0.750844	-0.095068
C105	C	-0.125660	-0.417511	0.238265
C106	C	-0.710348	-1.084144	-0.428385
C107	C	-0.377014	-0.750810	-0.095051
C108	C	-0.043681	-0.417477	0.238282
C109	C	-0.963197	-1.084250	-0.428431
C110	C	-0.629863	-0.750917	-0.095098
C111	C	-0.296530	-0.417584	0.238236
C112	C	-1.045181	-1.084283	-0.428447
C113	C	-0.711848	-0.750950	-0.095113
C114	C	-0.378515	-0.417616	0.238220
C115	C	-1.045168	-1.184743	-0.328136
C116	C	-0.711835	-0.851410	0.005197
C117	C	-0.378502	-0.518077	0.338531
C118	C	-0.963189	-1.184709	-0.328119
C119	C	-0.629856	-0.851376	0.005214
C120	C	-0.296523	-0.518043	0.338547
C121	C	-0.922206	-1.134461	-0.378269
C122	C	-0.588873	-0.801127	-0.044935
C123	C	-0.255540	-0.467794	0.288398
C124	C	-0.173414	-1.134487	-0.378281
C125	C	0.159919	-0.801153	-0.044948
C126	C	0.493253	-0.467820	0.288385
C127	C	-0.086164	-1.134528	-0.378302
C128	C	0.247169	-0.801195	-0.044969
C129	C	0.580502	-0.467862	0.288365
C130	C	-0.378100	-1.134437	-0.582977
C131	C	-0.044767	-0.801103	-0.249644
C132	C	0.288566	-0.467770	0.083690
C133	C	-0.378076	-1.134457	-0.670227
C134	C	-0.044742	-0.801124	-0.336894
C135	C	0.288591	-0.467790	-0.003560
C136	C	-0.378172	-0.339134	-0.378253
C137	C	-0.044839	-0.005800	-0.044920
C138	C	0.288494	0.327533	0.288413
C139	C	-0.378166	-0.426383	-0.378240
C140	C	-0.044832	-0.093050	-0.044907
C141	C	0.288501	0.240283	0.288426
C142	C	-0.327870	-1.184689	-0.711237
C143	C	0.005463	-0.851355	-0.377904
C144	C	0.338796	-0.518022	-0.044571
C145	C	-0.327844	-1.184698	-0.793218
C146	C	0.005489	-0.851365	-0.459885
C147	C	0.338822	-0.518031	-0.126551
C148	C	-0.378028	-1.134479	-0.834186
C149	C	-0.044695	-0.801146	-0.500853
C150	C	0.288639	-0.467813	-0.167520
C151	C	-0.428236	-1.084242	-0.793170
C152	C	-0.094902	-0.750909	-0.459837
C153	C	0.238431	-0.417576	-0.126504
C154	C	-0.428257	-1.084229	-0.711191
C155	C	-0.094924	-0.750896	-0.377858
C156	C	0.238409	-0.417563	-0.044525
C157	C	-0.428188	-1.084274	-0.964040
C158	C	-0.094855	-0.750941	-0.630707
C159	C	0.238478	-0.417607	-0.297374
C160	C	-0.428168	-1.084288	-1.046025
C161	C	-0.094835	-0.750954	-0.712692
C162	C	0.238499	-0.417621	-0.379358
C163	C	-0.327776	-1.184742	-1.046067
C164	C	0.005558	-0.851409	-0.712734
C165	C	0.338891	-0.518076	-0.379400
C166	C	-0.327797	-1.184730	-0.964088
C167	C	0.005536	-0.851396	-0.630755
C168	C	0.338870	-0.518063	-0.297421
C169	C	-0.378006	-1.134493	-0.923077
C170	C	-0.044673	-0.801160	-0.589744
C171	C	0.288661	-0.467827	-0.256411
C172	C	-0.378159	-1.134387	-0.174285
C173	C	-0.044826	-0.801054	0.159048
C174	C	0.288507	-0.467721	0.492382
C175	C	-0.377963	-1.134519	-0.087036
C176	C	-0.044629	-0.801186	0.246298
C177	C	0.288704	-0.467852	0.579631
H178	H	-0.469350	-0.835584	-0.469123
H179	H	-0.136017	-0.502250	-0.135789
H180	H	0.197316	-0.168917	0.197544
Cl181	Cl	-0.658826	-1.020978	-0.491429
Cl182	Cl	-0.325493	-0.687645	-0.158096
Cl183	Cl	0.007841	-0.354311	0.175238
Cl184	Cl	-0.264713	-1.247867	-0.912586
Cl185	Cl	0.068621	-0.914534	-0.579252
Cl186	Cl	0.401954	-0.581201	-0.245919
H187	H	-0.676965	-1.225483	-0.287219
H188	H	-0.343632	-0.892150	0.046114
H189	H	-0.010299	-0.558816	0.379448
H190	H	-0.286943	-0.835565	-0.287304
H191	H	0.046390	-0.502232	0.046030
H192	H	0.379724	-0.168899	0.379363
H193	H	-0.825712	-1.043298	-0.469247
H194	H	-0.492379	-0.709964	-0.135914
H195	H	-0.159046	-0.376631	0.197420
Cl196	Cl	-0.264714	-0.415827	-0.265132
Cl197	Cl	0.068620	-0.082493	0.068201
Cl198	Cl	0.401953	0.250840	0.401534
H199	H	-0.469351	-0.686866	-0.469138
H200	H	-0.136017	-0.353532	-0.135804
H201	H	0.197316	-0.020199	0.197529
Cl202	Cl	-0.843837	-1.247808	-0.265050
Cl203	Cl	-0.510504	-0.914475	0.068284
Cl204	Cl	-0.177171	-0.581141	0.401617
Cl205	Cl	-0.264695	-0.600869	-0.265121
Cl206	Cl	0.068638	-0.267535	0.068212
Cl207	Cl	0.401971	0.065798	0.401546
Cl208	Cl	-0.264689	-0.668680	-0.265125
Cl209	Cl	0.068644	-0.335347	0.068209
Cl210	Cl	0.401978	-0.002014	0.401542
H211	H	-0.469363	-0.582737	-0.469142
H212	H	-0.136030	-0.249404	-0.135809
H213	H	0.197304	0.083930	0.197524
H214	H	-0.469062	-1.043354	-0.930652
H215	H	-0.135728	-0.710021	-0.597319
H216	H	0.197605	-0.376687	-0.263985
Cl217	Cl	-0.491249	-1.021146	-1.097527
Cl218	Cl	-0.157915	-0.687813	-0.764194
Cl219	Cl	0.175418	-0.354479	-0.430861
Cl220	Cl	-0.911652	-1.247834	-0.265058
Cl221	Cl	-0.578319	-0.914500	0.068275
Cl222	Cl	-0.244986	-0.581167	0.401608
Cl223	Cl	-1.096689	-1.247906	-0.265083
Cl224	Cl	-0.763356	-0.914572	0.068250
Cl225	Cl	-0.430022	-0.581239	0.401583
H226	H	-0.287007	-1.225585	-0.677887
H227	H	0.046326	-0.892252	-0.344553
H228	H	0.379659	-0.558918	-0.011220
Cl229	Cl	-0.491620	-0.415861	-0.491364
Cl230	Cl	-0.158287	-0.082528	-0.158030
Cl231	Cl	0.175046	0.250806	0.175303
Cl232	Cl	-1.096718	-1.021150	-0.491499
Cl233	Cl	-0.763385	-0.687817	-0.158166
Cl234	Cl	-0.430052	-0.354483	0.175168
H235	H	-0.929831	-1.043335	-0.469271
H236	H	-0.596498	-0.710002	-0.135938
H237	H	-0.263164	-0.376668	0.197396
H238	H	-0.286964	-1.225603	-0.826605
H239	H	0.046369	-0.892270	-0.493272
H240	H	0.379703	-0.558937	-0.159938
H241	H	-0.286892	-1.225645	-1.079462
H242	H	0.046441	-0.892312	-0.746129
H243	H	0.379774	-0.558979	-0.412795
H244	H	-0.469093	-1.043350	-0.826533
H245	H	-0.135760	-0.710017	-0.493200
H246	H	0.197573	-0.376684	-0.159867
H247	H	-0.469132	-1.043318	-0.677801
H248	H	-0.135798	-0.709985	-0.344468
H249	H	0.197535	-0.376651	-0.011135
