data_functionalizedCrystal
_audit_creation_method	'MofGen! by Chris Wilmer'
_symmetry_space_group_name_H-M	'P1'
_symmetry_Int_Tables_number	1
_symmetry_cell_setting	triclinic
loop_
_symmetry_equiv_pos_as_xyz
  x,y,z
_cell_length_a	12.827893
_cell_length_b	11.169416
_cell_length_c	11.169409
_cell_angle_alpha	90.028030
_cell_angle_beta	89.978812
_cell_angle_gamma	89.986941
loop_
_atom_site_label
_atom_site_type_symbol
_atom_site_fract_x
_atom_site_fract_y
_atom_site_fract_z
Zn1	Zn	1.597706	0.477711	-0.678622
Zn2	Zn	1.597601	0.678451	-0.477954
Zn3	Zn	1.422942	0.477781	-0.477952
Zn4	Zn	1.422940	0.678351	-0.678594
O5	O	1.510297	0.578073	-0.578281
O6	O	1.743928	0.504352	-0.652016
O7	O	1.574389	0.651904	-0.310004
O8	O	1.446169	0.309822	-0.504582
O9	O	1.743851	0.651836	-0.504586
O10	O	1.574568	0.309770	-0.652014
O11	O	1.446068	0.504472	-0.310002
O12	O	1.276705	0.504374	-0.504555
O13	O	1.446166	0.651664	-0.846548
O14	O	1.276704	0.651732	-0.651966
O15	O	1.574566	0.504255	-0.846568
O16	O	1.574388	0.846388	-0.504559
O17	O	1.446064	0.846314	-0.651968
C18	C	1.238787	0.578050	-0.578258
C19	C	1.122634	0.578069	-0.578277
C20	C	1.510243	0.889898	-0.578287
C21	C	1.510315	1.023298	-0.578330
C22	C	0.950778	0.505077	-0.505483
C23	C	1.070829	0.505055	-0.505462
C24	C	1.782867	0.578097	-0.578304
C25	C	1.899020	0.578108	-0.578314
C26	C	1.510377	0.577940	-0.891323
C27	C	1.510412	0.577883	-1.024723
C28	C	1.510370	1.265031	-0.578313
C29	C	1.510374	1.131631	-0.578359
C30	C	1.510277	0.578120	-0.266456
C31	C	1.510446	0.577838	-0.133057
H32	H	0.906213	0.442563	-0.443150
H33	H	1.115339	0.442535	-0.443104
H34	H	1.078130	0.640601	-0.640630
C35	C	0.959221	0.662559	-0.662532
N36	N	1.004562	0.726172	-0.725966
