data_functionalizedCrystal
_audit_creation_method	'MofGen! by Chris Wilmer'
_symmetry_space_group_name_H-M	'P1'
_symmetry_Int_Tables_number	1
_symmetry_cell_setting	triclinic
loop_
_symmetry_equiv_pos_as_xyz
  x,y,z
_cell_length_a	16.992694
_cell_length_b	10.540539
_cell_length_c	15.455313
_cell_angle_alpha	92.694186
_cell_angle_beta	87.142206
_cell_angle_gamma	87.596857
loop_
_atom_site_label
_atom_site_type_symbol
_atom_site_fract_x
_atom_site_fract_y
_atom_site_fract_z
O1	O	1.045302	0.264111	-0.072015
O2	O	0.817001	0.261155	-0.072041
O3	O	0.936360	0.078379	-0.072026
O4	O	0.925943	0.446887	-0.072030
O5	O	0.929534	0.088785	0.072235
O6	O	0.810175	0.271561	0.072220
O7	O	1.038476	0.274517	0.072246
Cu8	Cu	0.923702	0.273989	0.085405
Cu9	Cu	0.931774	0.261683	-0.085200
O10	O	0.919117	0.457293	0.072232
C11	C	0.784354	0.262557	0.000086
C12	C	0.697247	0.251216	0.000077
C13	C	0.647619	0.360636	0.000076
C14	C	0.565773	0.349973	0.000088
C15	C	0.533555	0.229889	0.000094
C16	C	0.583189	0.120461	0.000097
C17	C	0.665034	0.131125	0.000092
C18	C	0.289709	0.185692	0.000118
C19	C	0.207858	0.175036	0.000121
C20	C	0.190446	0.404549	0.000114
C21	C	0.272294	0.415202	0.000103
C22	C	0.321921	0.305774	0.000110
N23	N	0.449895	0.218988	0.000104
N24	N	0.405579	0.316677	0.000107
C25	C	0.932166	0.036211	0.000103
C26	C	0.929829	-0.104941	0.000098
C27	C	0.840284	-0.296163	-0.000236
C28	C	0.842638	-0.149316	0.000089
C29	C	0.967891	-0.157014	0.082483
C30	C	0.964912	-0.303812	0.082552
C31	C	0.974447	-0.316010	-0.081500
C32	C	0.975302	-0.169037	-0.082589
C33	C	1.071122	0.273115	0.000117
C34	C	1.158230	0.284456	0.000121
C35	C	0.923311	0.499461	0.000101
C36	C	0.925648	0.640612	0.000100
N37	N	0.918030	0.282645	0.205400
N38	N	0.937452	0.253018	-0.205195
C39	C	0.968756	0.205027	0.250801
C40	C	0.964474	0.211585	0.341608
C41	C	0.909469	0.295768	0.387013
C42	C	0.858738	0.373389	0.341607
C43	C	0.863017	0.366823	0.250801
C44	C	0.891000	0.324073	0.658593
C45	C	0.886727	0.330635	0.749405
C46	C	0.992462	0.168829	0.749400
C47	C	0.996739	0.162277	0.658592
C48	C	0.946005	0.239893	0.613193
N49	N	0.905093	0.302477	0.479833
N50	N	0.950379	0.233177	0.520375
H51	H	0.556951	0.022687	0.000115
H52	H	0.150032	0.493639	0.000110
H53	H	0.803202	-0.325110	0.058505
H54	H	0.806591	-0.106178	0.059237
H55	H	0.181630	0.077244	0.000125
H56	H	0.808637	-0.332013	-0.059316
N57	N	1.059820	-0.130133	-0.089176
H58	H	1.069876	-0.070142	-0.038425
H59	H	1.096334	-0.208145	-0.088465
N60	N	0.799415	0.464185	0.390584
H61	H	0.809696	0.554110	0.374769
H62	H	0.744423	0.442606	0.374775
H63	H	0.705441	0.042024	0.000091
N64	N	0.802610	-0.102320	-0.078142
H65	H	0.841366	-0.055644	-0.115214
H66	H	0.783278	-0.177095	-0.113075
N67	N	0.836295	0.407794	0.609626
H68	H	0.803063	0.352981	0.571961
H69	H	0.800854	0.462115	0.652219
N70	N	0.682362	0.490158	0.000076
H71	H	0.741741	0.480315	0.000071
H72	H	0.666774	0.534549	-0.053402
N73	N	1.047730	-0.359812	0.087525
H74	H	1.081238	-0.334934	0.035751
H75	H	1.070935	-0.326480	0.142584
H76	H	0.930988	-0.330261	0.144129
N77	N	0.307027	0.544732	0.000102
H78	H	0.338074	0.558136	0.053576
H79	H	0.343079	0.550337	-0.053414
H80	H	1.031777	-0.128883	0.085553
N81	N	1.019192	0.127896	0.390586
H82	H	1.052408	0.182738	0.428251
H83	H	0.987076	0.071325	0.428224
H84	H	0.949182	-0.354516	-0.143942
H85	H	0.821710	0.430026	0.213837
N86	N	1.056069	0.071480	0.609625
H87	H	1.111081	0.092958	0.625426
H88	H	1.045721	-0.018411	0.625457
H89	H	1.033766	0.105637	0.786371
H90	H	0.935843	-0.112522	0.143784
H91	H	0.947484	-0.135239	-0.143535
H92	H	0.330106	0.096587	0.000125
N93	N	1.057904	-0.371372	-0.082231
H94	H	1.064108	-0.424297	-0.029991
H95	H	1.069570	-0.426612	-0.136917
N96	N	1.028069	0.114216	0.201821
H97	H	1.064853	0.163571	0.164132
H98	H	1.059498	0.066048	0.244412
N99	N	0.512240	0.467997	0.000186
H100	H	0.545068	0.545689	0.000208
H101	H	0.480379	0.464805	-0.053258
H102	H	0.841933	0.399192	0.786370
