data_functionalizedCrystal
_audit_creation_method	'MofGen! by Chris Wilmer'
_symmetry_space_group_name_H-M	'P1'
_symmetry_Int_Tables_number	1
_symmetry_cell_setting	triclinic
loop_
_symmetry_equiv_pos_as_xyz
  x,y,z
_cell_length_a	10.489741
_cell_length_b	16.992695
_cell_length_c	16.053802
_cell_angle_alpha	87.258926
_cell_angle_beta	87.395203
_cell_angle_gamma	92.396302
loop_
_atom_site_label
_atom_site_type_symbol
_atom_site_fract_x
_atom_site_fract_y
_atom_site_fract_z
O1	O	1.708727	-0.107418	-0.069378
O2	O	2.208727	0.392582	0.430622
O3	O	1.338436	-0.117807	-0.069391
O4	O	1.838436	0.382193	0.430609
O5	O	1.522097	0.001538	-0.069378
O6	O	2.022097	0.501538	0.430622
O7	O	1.525066	-0.226763	-0.069391
O8	O	2.025066	0.273237	0.430609
O9	O	1.511985	-0.005004	0.069480
O10	O	2.011985	0.494996	0.569480
O11	O	1.328324	-0.124349	0.069467
O12	O	1.828324	0.375651	0.569467
O13	O	1.698615	-0.113960	0.069480
O14	O	2.198615	0.386040	0.569480
Zn15	Zn	1.511864	-0.120193	0.091520
Zn16	Zn	2.011864	0.379807	0.591520
Zn17	Zn	1.525187	-0.111574	-0.091431
Zn18	Zn	2.025187	0.388426	0.408569
O19	O	1.514954	-0.233305	0.069467
O20	O	2.014954	0.266695	0.569467
C21	C	1.285780	-0.120293	0.000036
C22	C	1.785780	0.379707	0.500036
C23	C	1.143947	-0.117945	0.000031
C24	C	1.643947	0.382055	0.500031
N25	N	1.502781	-0.126075	0.216380
N26	N	2.002781	0.373925	0.716380
C27	C	1.513221	0.027501	0.000051
C28	C	2.013221	0.527501	0.500051
C29	C	1.501826	0.114610	0.000050
C30	C	2.001826	0.614610	0.500050
C31	C	1.069200	-0.042010	0.000044
C32	C	1.569200	0.457990	0.500044
C33	C	0.985179	-0.074656	-0.068421
C34	C	1.485179	0.425344	0.431579
C35	C	0.975245	-0.081123	0.068482
C36	C	1.475245	0.418877	0.568482
C37	C	1.061799	-0.150620	-0.068490
C38	C	1.561799	0.349380	0.431510
C39	C	1.051869	-0.157080	0.068475
C40	C	1.551869	0.342920	0.568475
C41	C	0.967882	-0.189781	-0.000006
C42	C	1.467882	0.310219	0.499994
C43	C	1.751271	-0.111474	0.000051
C44	C	2.251271	0.388526	0.500051
C45	C	1.893105	-0.113821	0.000050
C46	C	2.393105	0.386179	0.500050
C47	C	1.523830	-0.259268	0.000036
C48	C	2.023830	0.240732	0.500036
C49	C	1.535225	-0.346377	0.000031
C50	C	2.035225	0.153623	0.500031
C51	C	1.611775	0.164229	0.000055
C52	C	2.111775	0.664229	0.500055
C53	C	1.601061	0.246077	0.000047
C54	C	2.101061	0.746077	0.500047
C55	C	1.480396	0.278303	0.000039
C56	C	1.980396	0.778303	0.500039
C57	C	1.370439	0.228677	0.000032
C58	C	1.870439	0.728677	0.500032
C59	C	1.381155	0.146832	0.000035
C60	C	1.881155	0.646832	0.500035
C61	C	1.435984	0.522152	0.000026
C62	C	1.935984	1.022152	0.500026
C63	C	1.425276	0.604004	0.000027
C64	C	1.925276	1.104004	0.500027
C65	C	1.655900	0.621398	0.000039
C66	C	2.155900	1.121398	0.500039
C67	C	1.666604	0.539550	0.000047
C68	C	2.166604	1.039550	0.500047
C69	C	1.556648	0.489931	0.000035
C70	C	2.056648	0.989931	0.500035
N71	N	1.469442	0.361964	0.000034
N72	N	1.969442	0.861964	0.500034
N73	N	1.567604	0.406272	0.000035
N74	N	2.067604	0.906272	0.500035
N75	N	1.534280	-0.105686	-0.216291
N76	N	2.034280	0.394314	0.283709
C77	C	1.580961	-0.075312	0.260079
C78	C	2.080961	0.424688	0.760079
C79	C	1.574620	-0.079434	0.347486
C80	C	2.074620	0.420566	0.847486
C81	C	1.490104	-0.134323	0.391191
C82	C	1.990104	0.365677	0.891191
C83	C	1.411915	-0.185089	0.347485
C84	C	1.911915	0.314911	0.847485
C85	C	1.418251	-0.180962	0.260081
C86	C	1.918251	0.319038	0.760081
C87	C	1.462427	-0.152325	0.652599
C88	C	1.962427	0.347675	1.152599
C89	C	1.456100	-0.156449	0.740009
C90	C	1.956100	0.343551	1.240009
C91	C	1.618803	-0.050793	0.740004
C92	C	2.118803	0.449207	1.240004
C93	C	1.625137	-0.046674	0.652597
C94	C	2.125137	0.453326	1.152597
C95	C	1.546943	-0.097437	0.608899
C96	C	2.046943	0.402563	1.108899
N97	N	1.483623	-0.138539	0.480534
N98	N	1.983623	0.361461	0.980534
N99	N	1.553419	-0.093216	0.519558
N100	N	2.053419	0.406784	1.019558
H101	H	1.113465	0.020419	-0.000038
H102	H	1.613465	0.520419	0.499962
H103	H	0.955585	-0.039799	-0.126300
H104	H	1.455585	0.460201	0.373700
H105	H	0.937256	-0.051706	0.126364
H106	H	1.437256	0.448294	0.626364
H107	H	1.693956	-0.001979	0.617014
H108	H	2.193956	0.498021	1.117014
H109	H	1.710033	0.137997	0.000066
H110	H	2.210033	0.637997	0.500066
H111	H	1.682463	-0.009463	0.775591
H112	H	2.182463	0.490537	1.275591
H113	H	0.923898	-0.252269	-0.000047
H114	H	1.423898	0.247731	0.499953
Br115	Br	1.101249	-0.215136	0.164950
Br116	Br	1.601249	0.284864	0.664950
H117	H	1.387273	-0.201150	0.775590
H118	H	1.887273	0.298850	1.275590
H119	H	1.327011	0.630238	0.000034
H120	H	1.827011	1.130238	0.500034
Br121	Br	1.231933	0.079490	0.000021
Br122	Br	1.731933	0.579490	0.500021
Br123	Br	1.356313	-0.221216	0.593299
Br124	Br	1.856313	0.278784	1.093299
Br125	Br	1.297203	-0.259578	0.406796
Br126	Br	1.797203	0.240422	0.906796
H127	H	1.354587	-0.222298	0.224501
H128	H	1.854587	0.277702	0.724501
Br129	Br	1.286756	0.454823	0.000005
Br130	Br	1.786756	0.954823	0.500005
H131	H	1.764862	0.513318	0.000053
H132	H	2.264862	1.013318	0.500053
Br133	Br	1.750285	0.313415	0.000053
Br134	Br	2.250285	0.813415	0.500053
H135	H	1.745420	0.661806	0.000047
H136	H	2.245420	1.161806	0.500047
H137	H	1.649788	-0.030618	0.224500
H138	H	2.149788	0.469382	0.724500
Br139	Br	1.206679	0.272412	0.000009
Br140	Br	1.706679	0.772412	0.500009
H141	H	1.099640	-0.179995	-0.126437
H142	H	1.599640	0.320005	0.373563
Br143	Br	1.680718	-0.010537	0.406795
Br144	Br	2.180718	0.489463	0.906795
