data_functionalizedCrystal
_audit_creation_method	'MofGen! by Chris Wilmer'
_symmetry_space_group_name_H-M	'P1'
_symmetry_Int_Tables_number	1
_symmetry_cell_setting	triclinic
loop_
_symmetry_equiv_pos_as_xyz
  x,y,z
_cell_length_a	10.654550
_cell_length_b	14.586319
_cell_length_c	16.109301
_cell_angle_alpha	89.994786
_cell_angle_beta	83.973206
_cell_angle_gamma	89.999735
loop_
_atom_site_label
_atom_site_type_symbol
_atom_site_fract_x
_atom_site_fract_y
_atom_site_fract_z
O1	O	1.666255	-0.076175	0.116773
O2	O	1.300626	-0.076192	0.127899
O3	O	1.493485	-0.076174	0.001365
O4	O	1.473396	-0.076194	0.243307
O5	O	1.493471	0.076307	0.001363
O6	O	1.300613	0.076288	0.127897
O7	O	1.666242	0.076306	0.116771
Cu8	Cu	1.483426	0.090220	0.122334
Cu9	Cu	1.483442	-0.090106	0.122336
O10	O	1.473383	0.076287	0.243305
C11	C	1.253832	0.000046	0.127081
C12	C	1.114422	0.000040	0.124637
N13	N	1.483424	0.217051	0.122332
C14	C	1.492664	0.000067	-0.029616
C15	C	1.490225	0.000068	-0.121926
C16	C	1.033926	0.000036	0.199138
C17	C	0.902936	0.000052	0.196836
C18	C	0.932952	0.000072	0.045526
C19	C	1.063939	0.000062	0.047828
C20	C	0.705901	0.053478	0.284580
C21	C	0.625400	0.053459	0.359086
C22	C	0.654655	0.000016	0.426627
C23	C	0.764410	-0.053429	0.419667
C24	C	0.844905	-0.053418	0.345160
C25	C	0.815651	0.000045	0.277622
C26	C	1.260976	-0.053371	-0.039910
C27	C	1.341473	-0.053366	-0.114418
C28	C	1.312222	0.000070	-0.181966
C29	C	1.202465	0.053502	-0.175014
C30	C	1.121967	0.053498	-0.100507
C31	C	1.151228	0.000063	-0.032958
C32	C	1.713036	0.000065	0.117589
C33	C	1.852446	0.000065	0.120033
N34	N	1.483454	-0.216938	0.122332
C35	C	1.568850	0.452066	0.066321
C36	C	1.568854	0.548047	0.066319
C37	C	1.398019	0.548040	0.178344
C38	C	1.398010	0.452061	0.178342
C39	C	1.483433	0.404076	0.122331
C40	C	1.483445	0.596037	0.122332
C41	C	1.483448	0.700104	0.122330
C42	C	1.483428	0.300002	0.122332
C43	C	1.598991	0.000059	-0.343552
C44	C	1.596689	0.000051	-0.430286
C45	C	1.367868	0.000044	-0.411772
C46	C	1.370172	0.000045	-0.325039
C47	C	1.485737	0.000057	-0.290932
C48	C	1.481131	0.000048	-0.464398
C49	C	1.478634	0.000040	-0.558439
C50	C	1.488234	0.000064	-0.196885
C51	C	1.474203	0.000044	0.274286
C52	C	1.476643	0.000037	0.366596
H53	H	0.934256	-0.096942	0.339489
C54	C	1.429733	-0.204503	-0.109688
C55	C	1.462116	-0.112107	-0.122070
H56	H	1.504213	-0.240765	-0.114411
H57	H	1.377051	-0.223265	-0.150606
H58	H	1.385991	-0.212142	-0.055643
H59	H	1.505850	-0.104467	-0.176118
H60	H	1.514818	-0.093340	-0.081151
C61	C	1.324200	0.577566	0.321823
C62	C	1.304126	0.600783	0.239914
H63	H	1.266226	0.610121	0.359833
H64	H	1.407993	0.593297	0.331364
H65	H	1.311972	0.513533	0.329823
H66	H	1.316363	0.664815	0.231912
H67	H	1.220312	0.585058	0.230369
C68	C	1.370703	0.344103	0.291323
C69	C	1.304116	0.399302	0.239915
H70	H	1.312735	0.311529	0.329329
H71	H	1.422951	0.381539	0.321550
H72	H	1.421564	0.301794	0.257952
H73	H	1.253261	0.441616	0.273285
H74	H	1.251846	0.361863	0.209686
C75	C	0.509246	0.175485	0.431724
C76	C	0.504763	0.112207	0.366743
H77	H	0.434763	0.211744	0.436455
H78	H	0.580845	0.213990	0.420185
H79	H	0.515148	0.143633	0.482604
H80	H	0.498870	0.144059	0.315861
H81	H	0.433143	0.073697	0.378277
C82	C	1.734340	0.078448	-0.256768
C83	C	1.726019	0.000062	-0.306062
H84	H	1.812769	0.078449	-0.233631
H85	H	1.667232	0.078443	-0.213017
H86	H	1.728683	0.131615	-0.290232
H87	H	1.731667	-0.053105	-0.272596
H88	H	1.793146	0.000059	-0.349819
C89	C	1.262735	0.000051	-0.536507
C90	C	1.240844	0.000044	-0.449266
H91	H	1.184312	0.000059	-0.559651
H92	H	1.309355	-0.053120	-0.554516
H93	H	1.309369	0.053228	-0.554518
H94	H	1.194217	-0.053137	-0.431254
H95	H	1.194204	0.053220	-0.431250
H96	H	0.788215	-0.096950	0.474667
H97	H	0.682081	0.097011	0.229592
H98	H	0.589102	0.000002	0.487291
H99	H	0.891833	0.000095	-0.017009
C100	C	1.737702	0.461717	-0.044417
C101	C	1.662734	0.399320	0.004748
H102	H	1.795654	0.429154	-0.082435
H103	H	1.782861	0.499142	-0.009532
H104	H	1.685429	0.499162	-0.074637
H105	H	1.715006	0.361880	0.034973
H106	H	1.617571	0.361880	-0.030141
H107	H	1.075024	0.000025	0.261680
H108	H	1.032598	0.097009	-0.094850
H109	H	1.178644	0.097012	-0.230019
H110	H	1.688912	0.000050	-0.473126
H111	H	1.377768	0.000059	-0.242637
H112	H	1.277941	0.000041	-0.282194
H113	H	1.638407	0.587118	0.020710
H114	H	1.284808	-0.096882	0.015093
