data_functionalizedCrystal
_audit_creation_method	'MofGen! by Chris Wilmer'
_symmetry_space_group_name_H-M	'P1'
_symmetry_Int_Tables_number	1
_symmetry_cell_setting	triclinic
loop_
_symmetry_equiv_pos_as_xyz
  x,y,z
_cell_length_a	14.853567
_cell_length_b	10.540539
_cell_length_c	13.330367
_cell_angle_alpha	89.997527
_cell_angle_beta	89.995418
_cell_angle_gamma	84.080211
loop_
_atom_site_label
_atom_site_type_symbol
_atom_site_fract_x
_atom_site_fract_y
_atom_site_fract_z
O1	O	1.197288	0.165727	-0.083349
O2	O	0.934938	0.185470	-0.083366
O3	O	1.072099	-0.009174	-0.083356
O4	O	1.060128	0.360371	-0.083359
O5	O	1.072079	-0.009178	0.083491
O6	O	0.934918	0.185465	0.083481
O7	O	1.197268	0.165723	0.083498
Cu8	Cu	1.066092	0.175594	0.098724
Cu9	Cu	1.066115	0.175599	-0.098592
O10	O	1.060108	0.360367	0.083488
C11	C	0.901335	0.184573	0.000055
C12	C	0.801236	0.181892	0.000049
C13	C	1.071191	-0.056469	0.000066
C14	C	1.068505	-0.197388	0.000060
C15	C	0.387998	0.054938	0.000072
C16	C	0.368000	0.286179	0.000069
C17	C	0.462048	0.288700	0.000066
C18	C	0.519075	0.174338	0.000065
C19	C	0.482055	0.057455	0.000066
C20	C	0.499075	0.405580	0.000054
C21	C	0.593129	0.408105	0.000050
C22	C	0.650158	0.293742	0.000056
C23	C	0.613132	0.176855	0.000058
C24	C	0.670159	0.062493	0.000057
C25	C	0.633135	-0.054396	0.000067
C26	C	0.539084	-0.056908	0.000072
C27	C	0.744209	0.296254	0.000050
C28	C	0.764216	0.065010	0.000050
C29	C	0.965588	-0.379682	-0.000321
C30	C	0.968311	-0.233094	0.000055
C31	C	1.116712	-0.259578	0.095341
C32	C	1.113292	-0.406085	0.095421
C33	C	1.115353	-0.406621	-0.094315
C34	C	1.116276	-0.259649	-0.095575
C35	C	1.230872	0.166620	0.000074
C36	C	1.330971	0.169300	0.000074
C37	C	1.061016	0.407662	0.000064
C38	C	1.063702	0.548580	0.000063
N39	N	1.066081	0.175589	0.237505
N40	N	1.066133	0.175593	-0.237374
C41	C	1.005378	0.261753	0.710124
C42	C	1.126877	0.089435	0.710101
C43	C	1.126867	0.089431	0.605082
C44	C	1.066112	0.175591	0.552580
C45	C	1.005368	0.261754	0.605096
C46	C	1.187616	0.003277	0.552559
C47	C	1.187609	0.003271	0.447534
C48	C	1.126849	0.089426	0.395029
C49	C	1.066102	0.175592	0.447552
C50	C	1.005347	0.261752	0.395049
C51	C	0.944594	0.347913	0.447570
C52	C	0.944608	0.347909	0.552591
C53	C	1.126836	0.089430	0.290008
C54	C	1.005337	0.261753	0.290021
H55	H	0.810642	-0.028119	0.000053
N56	N	1.213043	-0.228645	-0.103190
H57	H	1.241960	-0.269888	-0.165285
H58	H	1.214128	-0.133146	-0.107399
H59	H	0.930096	-0.190919	0.068465
N60	N	0.306495	0.409518	0.000061
H61	H	0.318484	0.460509	0.061908
H62	H	0.318527	0.460397	-0.061834
N63	N	0.694653	-0.177734	0.000068
H64	H	0.682665	-0.228720	0.061923
H65	H	0.682634	-0.228625	-0.061819
N66	N	0.879062	0.440837	0.390942
H67	H	0.890017	0.530960	0.409212
H68	H	0.888311	0.427652	0.316461
H69	H	0.926017	-0.407845	-0.068649
N70	N	1.208731	-0.470701	0.101168
H71	H	1.244429	-0.445174	0.041286
H72	H	1.238383	-0.443908	0.164846
H73	H	1.237086	-0.066866	0.595309
H74	H	0.508930	-0.152072	0.000104
H75	H	1.187723	-0.454643	-0.094951
N76	N	0.913358	-0.419100	0.089676
H77	H	0.857921	-0.458768	0.066415
H78	H	0.953040	-0.483185	0.130655
N79	N	1.253130	-0.089655	0.390890
H80	H	1.291618	-0.144235	0.440088
H81	H	1.218251	-0.145865	0.347329
H82	H	0.774350	0.391423	0.000044
H83	H	0.955860	0.331911	0.247280
N84	N	1.069636	-0.204913	-0.188957
H85	H	1.045632	-0.275689	-0.228759
H86	H	1.017812	-0.140038	-0.169332
H87	H	0.452638	0.498687	0.000045
H88	H	0.357849	-0.040229	0.000084
N89	N	0.633059	0.534169	0.000033
H90	H	0.582660	0.606233	0.000031
H91	H	0.671644	0.540256	0.061882
N92	N	0.918065	-0.176093	-0.090413
H93	H	0.893943	-0.246184	-0.130896
H94	H	0.866040	-0.113488	-0.067582
H95	H	1.176304	0.019284	0.247250
N96	N	0.879086	0.440833	0.609236
H97	H	0.888316	0.427760	0.683733
H98	H	0.890074	0.530912	0.590872
H99	H	1.077648	-0.433894	0.166641
H100	H	1.190292	-0.238034	0.098888
H101	H	1.083208	-0.216612	0.166242
H102	H	1.082934	-0.437815	-0.166532
H103	H	0.955911	0.331901	0.752889
N104	N	1.192409	-0.003480	0.766722
H105	H	1.183201	0.009597	0.841222
H106	H	1.181418	-0.093561	0.748376
