data_functionalizedCrystal
_audit_creation_method	'MofGen! by Chris Wilmer'
_symmetry_space_group_name_H-M	'P1'
_symmetry_Int_Tables_number	1
_symmetry_cell_setting	triclinic
loop_
_symmetry_equiv_pos_as_xyz
  x,y,z
_cell_length_a	17.699083
_cell_length_b	13.101039
_cell_length_c	17.699083
_cell_angle_alpha	86.645432
_cell_angle_beta	96.717152
_cell_angle_gamma	86.649948
loop_
_atom_site_label
_atom_site_type_symbol
_atom_site_fract_x
_atom_site_fract_y
_atom_site_fract_z
O1	O	-1.008247	0.085199	0.091524
O2	O	-0.508247	0.585199	0.591524
O3	O	-0.787869	0.085205	0.103977
O4	O	-0.287869	0.585205	0.603977
O5	O	-0.904283	0.085193	-0.012438
O6	O	-0.404283	0.585193	0.487562
O7	O	-0.891832	0.085211	0.207939
O8	O	-0.391832	0.585211	0.707939
O9	O	-0.895931	-0.085236	-0.004072
O10	O	-0.395931	0.414764	0.495928
O11	O	-0.779516	-0.085224	0.112343
O12	O	-0.279516	0.414776	0.612343
O13	O	-0.999894	-0.085230	0.099890
O14	O	-0.499894	0.414770	0.599890
Zn15	Zn	-0.888379	-0.112286	0.107445
Zn16	Zn	-0.388379	0.387714	0.607445
Zn17	Zn	-0.899384	0.112261	0.096422
Zn18	Zn	-0.399384	0.612261	0.596422
O19	O	-0.883479	-0.085218	0.216306
O20	O	-0.383479	0.414782	0.716306
C21	C	-0.755495	-0.000009	0.107714
C22	C	-0.255495	0.499991	0.607714
C23	C	-0.671477	-0.000007	0.106375
C24	C	-0.171477	0.499993	0.606375
N25	N	-0.880874	-0.265534	0.114968
N26	N	-0.380874	0.234466	0.614968
C27	C	-0.627457	-0.092908	0.110305
C28	C	-0.127457	0.407092	0.610305
C29	C	-0.548515	-0.092909	0.109036
C30	C	-0.048515	0.407091	0.609036
C31	C	-0.513593	-0.000007	0.103842
C32	C	-0.013593	0.499993	0.603842
C33	C	-0.557620	0.092902	0.099909
C34	C	-0.057620	0.592902	0.599909
C35	C	-0.636561	0.092902	0.101173
C36	C	-0.136561	0.592902	0.601173
C37	C	-0.239257	0.092904	0.094810
C38	C	0.260743	0.592904	0.594810
C39	C	-0.160310	0.092897	0.093548
C40	C	0.339690	0.592897	0.593548
C41	C	-0.151211	-0.092906	0.102672
C42	C	0.348789	0.407094	0.602672
C43	C	-0.230152	-0.092907	0.103936
C44	C	0.269848	0.407093	0.603936
C45	C	-0.274172	0.000002	0.100000
C46	C	0.225828	0.500002	0.600000
C47	C	-0.359771	0.000002	0.101375
C48	C	0.140229	0.500002	0.601375
C49	C	-0.427996	-0.000006	0.102472
C50	C	0.072004	0.499994	0.602472
C51	C	-0.870663	-0.474575	0.125209
C52	C	-0.370663	0.025425	0.625209
C53	C	-0.917103	-0.525456	0.078654
C54	C	-0.417103	-0.025456	0.578654
C55	C	-0.911422	-0.641774	0.084353
C56	C	-0.411422	-0.141774	0.584353
C57	C	-0.876343	-0.358247	0.119512
C58	C	-0.376343	0.141753	0.619512
C59	C	-0.032268	-0.000013	0.096149
C60	C	0.467732	0.499987	0.596149
C61	C	-0.116288	-0.000005	0.097473
C62	C	0.383712	0.499995	0.597473
C63	C	-0.899661	-0.000022	-0.036452
C64	C	-0.399661	0.499978	0.463548
C65	C	-0.898322	-0.000022	-0.120470
C66	C	-0.398322	0.499978	0.379530
N67	N	-0.906895	0.265509	0.088894
N68	N	-0.406895	0.765509	0.588894
C69	C	-0.966656	-0.000025	-0.169091
C70	C	-0.466656	0.499975	0.330909
C71	C	-0.965394	-0.000016	-0.248035
C72	C	-0.465394	0.499984	0.251965
C73	C	-0.895797	-0.000011	-0.278356
C74	C	-0.395797	0.499989	0.221644
C75	C	-0.827459	-0.000005	-0.229729
C76	C	-0.327459	0.499995	0.270271
C77	C	-0.828722	-0.000007	-0.150787
C78	C	-0.328722	0.499993	0.349213
C79	C	-0.822364	0.000004	-0.548092
C80	C	-0.322364	0.500004	-0.048092
C81	C	-0.821106	0.000002	-0.627040
C82	C	-0.321106	0.500002	-0.127040
C83	C	-0.959036	-0.000006	-0.645340
C84	C	-0.459036	0.499994	-0.145340
C85	C	-0.960299	-0.000008	-0.566398
C86	C	-0.460299	0.499992	-0.066398
C87	C	-0.891961	0.000004	-0.517779
C88	C	-0.391961	0.500004	-0.017779
C89	C	-0.893330	-0.000004	-0.432179
C90	C	-0.393330	0.499996	0.067821
C91	C	-0.894427	-0.000011	-0.363953
C92	C	-0.394427	0.499989	0.136047
C93	C	-0.888102	-0.000001	0.240319
C94	C	-0.388102	0.499999	0.740319
C95	C	-0.889441	0.000006	0.324337
C96	C	-0.389441	0.500006	0.824337
H97	H	-0.655883	-0.168560	0.114541
H98	H	-0.155883	0.331440	0.614541
N99	N	-0.267816	-0.193109	0.109531
N100	N	0.232184	0.306891	0.609531
H101	H	-0.324505	-0.179012	0.109735
H102	H	0.175495	0.320988	0.609735
H103	H	-0.245806	-0.233679	0.158201
H104	H	0.254194	0.266321	0.658201
H105	H	-0.275090	0.168556	0.091602
H106	H	0.224910	0.668556	0.591602
N107	N	-0.519961	0.193106	0.094297
N108	N	-0.019961	0.693106	0.594297
H109	H	-0.463271	0.179011	0.094094
H110	H	0.036729	0.679011	0.594094
H111	H	-0.529523	0.233684	0.139425
H112	H	-0.029523	0.733684	0.639425
H113	H	-0.826640	-0.518368	0.169344
H114	H	-0.326640	-0.018368	0.669344
H115	H	-0.961130	-0.481658	0.034518
H116	H	-0.461130	0.018342	0.534518
H117	H	-1.023329	-0.000036	-0.144410
H118	H	-0.523329	0.499964	0.355590
N119	N	-1.039095	-0.000029	-0.300477
N120	N	-0.539095	0.499971	0.199523
H121	H	-1.072568	0.063141	-0.293837
H122	H	-0.572568	0.563141	0.206163
H123	H	-1.066299	-0.063257	-0.287614
H124	H	-0.566299	0.436743	0.212386
H125	H	-1.014680	-0.000010	-0.684937
H126	H	-0.514680	0.499990	-0.184937
H127	H	-0.512678	-0.168559	0.112223
H128	H	-0.012678	0.331441	0.612223
N129	N	-1.035362	-0.000022	-0.533694
N130	N	-0.535362	0.499978	-0.033694
H131	H	-1.078461	-0.000021	-0.576476
H132	H	-0.578461	0.499979	-0.076476
H133	H	-1.041986	0.063157	-0.504437
H134	H	-0.541986	0.563157	-0.004437
H135	H	-0.764429	0.000005	-0.651724
H136	H	-0.264429	0.500005	-0.151724
N137	N	-0.752394	-0.000009	-0.262430
N138	N	-0.252394	0.499991	0.237570
H139	H	-0.709297	-0.000006	-0.219648
H140	H	-0.209297	0.499994	0.280352
H141	H	-0.751960	0.063169	-0.297885
H142	H	-0.251960	0.563169	0.202115
N143	N	-0.748661	0.000012	-0.495658
N144	N	-0.248661	0.500012	0.004342
H145	H	-0.704382	0.000010	-0.526847
H146	H	-0.204382	0.500010	-0.026847
H147	H	-0.743083	-0.063168	-0.459407
H148	H	-0.243083	0.436832	0.040593
N149	N	-0.755021	0.000003	-0.098342
N150	N	-0.255021	0.500003	0.401658
H151	H	-0.710739	0.000006	-0.129527
H152	H	-0.210739	0.500006	0.370473
H153	H	-0.749442	-0.063175	-0.062089
H154	H	-0.249442	0.436825	0.437911
H155	H	-0.131880	0.168554	0.089318
H156	H	0.368120	0.668554	0.589318
N157	N	-0.103731	-0.193118	0.106916
N158	N	0.396269	0.306882	0.606916
H159	H	-0.048291	-0.179032	0.106382
H160	H	0.451709	0.320968	0.606382
H161	H	-0.121078	-0.233077	0.061668
H162	H	0.378922	0.266923	0.561668
H163	H	-0.672402	0.168552	0.097975
H164	H	-0.172402	0.668552	0.597975
