data_functionalizedCrystal
_audit_creation_method	'MofGen! by Chris Wilmer'
_symmetry_space_group_name_H-M	'P1'
_symmetry_Int_Tables_number	1
_symmetry_cell_setting	triclinic
loop_
_symmetry_equiv_pos_as_xyz
  x,y,z
_cell_length_a	16.120484
_cell_length_b	12.759401
_cell_length_c	12.759393
_cell_angle_alpha	89.979970
_cell_angle_beta	87.137379
_cell_angle_gamma	87.077501
loop_
_atom_site_label
_atom_site_type_symbol
_atom_site_fract_x
_atom_site_fract_y
_atom_site_fract_z
Zn1	Zn	-0.331921	-1.584955	0.615223
Zn2	Zn	-0.471359	-1.575910	0.448436
Zn3	Zn	-0.331958	-1.409258	0.439557
Zn4	Zn	-0.471287	-1.400308	0.624065
O5	O	-0.401631	-1.492608	0.531820
O6	O	-0.350433	-1.730776	0.593114
O7	O	-0.452913	-1.553764	0.300240
O8	O	-0.215288	-1.440097	0.455444
O9	O	-0.452878	-1.724130	0.470576
O10	O	-0.215261	-1.569180	0.584505
O11	O	-0.350495	-1.431326	0.293717
O12	O	-0.350425	-1.261051	0.464017
O13	O	-0.452754	-1.424841	0.769910
O14	O	-0.452789	-1.254475	0.599573
O15	O	-0.350363	-1.560501	0.763414
O16	O	-0.588014	-1.545085	0.479149
O17	O	-0.587961	-1.416070	0.608183
C18	C	-0.401604	-1.219642	0.531792
C19	C	-0.401612	-1.102865	0.531806
C20	C	-0.348250	-0.941676	0.461344
C21	C	-0.348238	-1.051400	0.461334
C22	C	-0.454995	-1.044600	0.602299
C23	C	-0.455002	-0.934877	0.602312
C24	C	-0.286617	-0.945603	0.379956
C25	C	-0.286606	-1.055327	0.379946
C26	C	-0.618238	-1.478653	0.545612
C27	C	-0.710903	-1.472779	0.551547
C28	C	-0.880563	-1.462061	0.562405
C29	C	-0.921859	-1.523343	0.501252
C30	C	-1.016264	-1.517379	0.507294
C31	C	-0.786150	-1.468023	0.556365
C32	C	-0.184179	-1.506646	0.517998
C33	C	-0.091514	-1.512628	0.512107
C34	C	-0.401546	-1.492682	0.805848
C35	C	-0.401510	-1.492713	0.922623
C36	C	-0.401649	-0.766640	0.531841
C37	C	-0.401630	-0.883418	0.531829
C38	C	-0.401656	-1.492599	0.258854
C39	C	-0.401457	-1.492786	0.142066
C40	C	-0.348172	-1.428988	0.974093
C41	C	-0.348147	-1.429022	1.083816
C42	C	-0.454802	-1.556513	1.090588
C43	C	-0.454830	-1.556473	0.980867
C44	C	-0.286593	-1.355386	0.970185
C45	C	-0.286568	-1.355419	1.079907
H46	H	-0.498462	-0.887448	0.659717
C47	C	-0.560231	-1.682525	1.086260
C48	C	-0.513407	-1.626600	1.154612
H49	H	-0.596414	-1.725789	1.125787
H50	H	-0.523922	-1.725043	1.041165
H51	H	-0.592122	-1.634664	1.045483
H52	H	-0.481511	-1.674461	1.195384
H53	H	-0.549720	-1.584078	1.199725
C54	C	-0.567014	-1.563767	0.864610
C55	C	-0.513470	-1.626512	0.924294
H56	H	-0.603221	-1.607009	0.829692
H57	H	-0.535266	-1.525803	0.814219
H58	H	-0.598877	-1.515946	0.909449
H59	H	-0.481602	-1.674328	0.879454
H60	H	-0.545222	-1.664494	0.974691
C61	C	-0.316192	-1.254481	1.237337
C62	C	-0.317778	-1.249082	1.127839
H63	H	-0.335472	-1.188839	1.266928
H64	H	-0.260890	-1.270577	1.256817
H65	H	-0.351153	-1.307678	1.262526
H66	H	-0.282812	-1.195890	1.102650
H67	H	-0.373089	-1.232973	1.108350
H68	H	-0.303879	-1.272888	0.941506
H69	H	-0.498447	-1.086511	0.659685
C70	C	-0.146633	-0.999778	0.418604
C71	C	-0.199486	-0.911012	0.404017
H72	H	-0.092846	-0.978420	0.433465
H73	H	-0.143061	-1.041330	0.356638
H74	H	-0.168142	-1.039774	0.475614
H75	H	-0.177980	-0.871019	0.347001
H76	H	-0.203055	-0.869442	0.465990
C77	C	-0.788290	-1.591303	0.433235
C78	C	-0.873880	-1.600205	0.424436
H79	H	-0.758669	-1.638746	0.385806
H80	H	-0.774014	-1.607537	0.502932
H81	H	-0.774141	-1.521590	0.416916
H82	H	-0.888030	-1.669917	0.440763
H83	H	-0.888162	-1.583978	0.354724
C84	C	-0.149417	-1.429434	0.997253
C85	C	-0.203812	-1.400056	0.918976
H86	H	-0.098312	-1.457007	0.965636
H87	H	-0.173542	-1.481386	1.040678
H88	H	-0.139497	-1.369826	1.038522
H89	H	-0.213737	-1.459666	0.877711
H90	H	-0.179682	-1.348100	0.875533
C91	C	-1.014130	-1.394081	0.630378
C92	C	-0.928542	-1.385183	0.639194
H93	H	-1.043756	-1.346612	0.677776
H94	H	-1.028287	-1.463776	0.646717
H95	H	-1.028394	-1.377871	0.560660
H96	H	-0.914278	-1.401400	0.708910
H97	H	-0.914379	-1.315472	0.622861
C98	C	-0.338174	-0.977983	0.210260
C99	C	-0.317740	-0.897599	0.277537
H100	H	-0.357383	-0.948344	0.147030
H101	H	-0.380650	-1.017158	0.243279
H102	H	-0.290339	-1.022952	0.194831
H103	H	-0.365576	-0.852634	0.292973
H104	H	-0.275260	-0.858406	0.244512
H105	H	-0.225293	-1.093313	0.405310
H106	H	-0.221990	-1.381378	1.105587
H107	H	-0.303825	-1.083961	0.299634
