data_functionalizedCrystal
_audit_creation_method	'MofGen! by Chris Wilmer'
_symmetry_space_group_name_H-M	'P1'
_symmetry_Int_Tables_number	1
_symmetry_cell_setting	triclinic
loop_
_symmetry_equiv_pos_as_xyz
  x,y,z
_cell_length_a	16.992701
_cell_length_b	14.421503
_cell_length_c	16.974959
_cell_angle_alpha	86.345259
_cell_angle_beta	87.028136
_cell_angle_gamma	90.008267
loop_
_atom_site_label
_atom_site_type_symbol
_atom_site_fract_x
_atom_site_fract_y
_atom_site_fract_z
O1	O	1.040226	0.064556	0.167626
O2	O	1.540226	0.564556	0.667626
O3	O	0.811943	0.064694	0.165789
O4	O	1.311943	0.564694	0.665789
O5	O	0.932441	0.073215	0.052008
O6	O	1.432441	0.573215	0.552008
O7	O	0.919728	0.056035	0.281407
O8	O	1.419728	0.556035	0.781407
O9	O	0.932421	-0.081010	0.052025
O10	O	1.432421	0.418990	0.552025
O11	O	0.811923	-0.089530	0.165806
O12	O	1.311923	0.410470	0.665806
O13	O	1.040206	-0.089669	0.167643
O14	O	1.540206	0.410331	0.667643
Cu15	Cu	0.926063	-0.103681	0.166726
Cu16	Cu	1.426063	0.396319	0.666726
Cu17	Cu	0.926086	0.078707	0.166706
Cu18	Cu	1.426086	0.578707	0.666706
O19	O	0.919708	-0.098189	0.281424
O20	O	1.419708	0.401811	0.781424
C21	C	0.782723	-0.012241	0.163432
C22	C	1.282723	0.487759	0.663432
C23	C	0.695686	-0.011712	0.156373
C24	C	1.195686	0.488288	0.656373
C25	C	0.206774	-0.008156	0.108945
C26	C	0.706774	0.491844	0.608945
C27	C	0.288554	-0.008659	0.115583
C28	C	0.788554	0.491341	0.615583
C29	C	0.320021	-0.014253	0.190337
C30	C	0.820021	0.485747	0.690337
C31	C	0.269704	-0.019354	0.258456
C32	C	0.769704	0.480646	0.758456
C33	C	0.187926	-0.018858	0.251817
C34	C	0.687926	0.481142	0.751817
C35	C	0.563590	-0.016317	0.217853
C36	C	1.063590	0.483683	0.717853
C37	C	0.645375	-0.016810	0.224487
C38	C	1.145375	0.483190	0.724487
C39	C	0.664219	-0.006116	0.081614
C40	C	1.164219	0.493884	0.581614
C41	C	0.582438	-0.005615	0.074981
C42	C	1.082438	0.494385	0.574981
C43	C	0.532129	-0.010721	0.143100
C44	C	1.032129	0.489279	0.643100
N45	N	0.403613	-0.014764	0.197124
N46	N	0.903613	0.485236	0.697124
N47	N	0.448538	-0.010216	0.136312
N48	N	0.948538	0.489784	0.636312
N49	N	0.926052	-0.231964	0.166740
N50	N	1.426052	0.268036	0.666740
C51	C	0.870324	-0.485555	0.219326
C52	C	1.370324	0.014445	0.719326
C53	C	0.941154	-0.548843	0.239148
C54	C	1.441154	-0.048843	0.739148
C55	C	0.926071	-0.421124	0.166722
C56	C	1.426071	0.078876	0.666722
C57	C	0.855258	-0.541932	0.146920
C58	C	1.355258	-0.041932	0.646920
C59	C	0.926083	-0.603844	0.166707
C60	C	1.426083	-0.103844	0.666707
C61	C	0.996938	-0.483053	0.186582
C62	C	1.496938	0.016947	0.686582
C63	C	0.910995	-0.476134	0.094320
C64	C	1.410995	0.023866	0.594320
C65	C	0.981877	-0.539392	0.114114
C66	C	1.481877	-0.039392	0.614114
C67	C	0.926063	-0.315864	0.166733
C68	C	1.426063	0.184136	0.666733
C69	C	0.926099	-0.709102	0.166696
C70	C	1.426099	-0.209102	0.666696
C71	C	1.069426	-0.012731	0.170000
C72	C	1.569426	0.487269	0.670000
C73	C	1.156463	-0.013254	0.177059
C74	C	1.656463	0.486746	0.677059
C75	C	0.931945	-0.001687	0.022528
C76	C	1.431945	0.498313	0.522528
C77	C	0.930487	0.004899	-0.065339
C78	C	1.430487	0.504899	0.434661
N79	N	0.926103	0.206990	0.166686
N80	N	1.426103	0.706990	0.666686
C81	C	0.922354	0.051098	-0.559942
C82	C	1.422354	0.551098	-0.059942
C83	C	0.923716	0.044891	-0.477381
C84	C	1.423716	0.544891	0.022619
C85	C	0.924380	-0.042281	-0.436108
C86	C	1.424380	0.457719	0.063892
C87	C	0.923690	-0.123250	-0.477400
C88	C	1.423690	0.376750	0.022600
C89	C	0.922333	-0.117042	-0.559960
C90	C	1.422333	0.382958	-0.059960
C91	C	0.928441	-0.069862	-0.189191
C92	C	1.428441	0.430138	0.310809
C93	C	0.929795	-0.076064	-0.106625
C94	C	1.429795	0.423936	0.393375
C95	C	0.929823	0.092078	-0.106612
C96	C	1.429823	0.592078	0.393388
C97	C	0.928461	0.098278	-0.189174
C98	C	1.428461	0.598278	0.310826
C99	C	0.927775	0.017309	-0.230459
C100	C	1.427775	0.517309	0.269541
N101	N	0.925770	-0.048628	-0.351717
N102	N	1.425770	0.451372	0.148283
N103	N	0.926391	0.023656	-0.314849
N104	N	1.426391	0.523656	0.185151
C105	C	0.920204	-0.023285	0.310904
C106	C	1.420204	0.476715	0.810904
C107	C	0.921662	-0.029865	0.398771
C108	C	1.421662	0.470135	0.898771
H109	H	0.670992	-0.021379	0.285363
H110	H	1.170992	0.478621	0.785363
H111	H	0.924236	-0.194228	-0.443789
H112	H	1.424236	0.305772	0.056211
C113	C	1.045632	-0.571272	0.054006
C114	C	1.545632	-0.071272	0.554006
H115	H	1.021598	-0.604615	0.015100
H116	H	1.521598	-0.104615	0.515100
H117	H	1.082150	-0.610349	0.080548
H118	H	1.582150	-0.110349	0.580548
H119	H	1.072473	-0.518513	0.029276
H120	H	1.572473	-0.018513	0.529276
H121	H	0.953918	-0.580600	0.300370
H122	H	1.453918	-0.080600	0.800370
H123	H	0.329514	-0.004512	0.060117
H124	H	0.829514	0.495488	0.560117
H125	H	0.556824	-0.001060	0.014109
H126	H	1.056824	0.498940	0.514109
C127	C	0.930526	-0.171958	-0.061226
C128	C	1.430526	0.328042	0.438774
H129	H	0.929929	-0.219292	-0.097638
H130	H	1.429929	0.280708	0.402362
H131	H	0.885354	-0.178105	-0.025887
H132	H	1.385354	0.321895	0.474113
H133	H	0.976758	-0.177637	-0.032152
H134	H	1.476758	0.322363	0.467848
C135	C	0.927735	0.194165	-0.234573
C136	C	1.427735	0.694165	0.265427
H137	H	0.926821	0.186266	-0.289655
H138	H	1.426821	0.686266	0.210345
H139	H	0.973662	0.227924	-0.224175
H140	H	1.473662	0.727924	0.275825
H141	H	0.882258	0.227456	-0.217904
H142	H	1.382258	0.727456	0.282096
C143	C	0.304312	-0.025505	0.340685
C144	C	0.804312	0.474495	0.840685
H145	H	0.262634	-0.028477	0.380300
H146	H	0.762634	0.471523	0.880300
H147	H	0.335828	0.027862	0.346235
H148	H	0.835828	0.527862	0.846235
H149	H	0.335816	-0.079708	0.346254
H150	H	0.835816	0.420292	0.846254
C151	C	0.132584	-0.024458	0.326742
C152	C	0.632584	0.475542	0.826742
H153	H	0.163036	-0.027851	0.372214
H154	H	0.663036	0.472149	0.872214
H155	H	0.100282	-0.078267	0.327133
H156	H	0.600282	0.421733	0.827133
H157	H	0.100300	0.029304	0.327111
H158	H	0.600300	0.529304	0.827111
H159	H	0.924282	0.110820	-0.443770
H160	H	1.424282	0.610820	0.056230
H161	H	0.930382	0.157999	-0.072989
H162	H	1.430382	0.657999	0.427011
C163	C	1.077859	-0.448216	0.209305
C164	C	1.577859	0.051784	0.709305
H165	H	1.077351	-0.382335	0.209201
H166	H	1.577351	0.117665	0.709201
H167	H	1.117481	-0.467058	0.172171
H168	H	1.617481	0.032942	0.672171
H169	H	1.088657	-0.473753	0.260577
H170	H	1.588657	0.026247	0.760577
C171	C	0.927677	-0.158926	-0.234594
C172	C	1.427677	0.341074	0.265406
H173	H	0.928257	-0.211728	-0.198186
H174	H	1.428257	0.288272	0.301814
H175	H	0.972846	-0.159774	-0.269936
H176	H	1.472846	0.340226	0.230064
H177	H	0.881442	-0.160230	-0.263665
H178	H	1.381442	0.339770	0.236335
H179	H	0.705190	-0.001961	0.026155
H180	H	1.205190	0.498039	0.526155
C181	C	0.806707	-0.453439	0.279474
C182	C	1.306707	0.046561	0.779474
H183	H	0.817557	-0.478472	0.330888
H184	H	1.317557	0.021528	0.830888
H185	H	0.756498	-0.474507	0.265919
H186	H	1.256498	0.025493	0.765919
H187	H	0.806833	-0.387515	0.278730
H188	H	1.306833	0.112485	0.778730
H189	H	0.522637	-0.020470	0.273321
H190	H	1.022637	0.479530	0.773321
C191	C	0.921566	-0.206102	-0.605375
C192	C	1.421566	0.293898	-0.105375
H193	H	0.922148	-0.258908	-0.568970
H194	H	1.422148	0.241092	-0.068970
H195	H	0.966735	-0.206945	-0.640717
H196	H	1.466735	0.293055	-0.140717
H197	H	0.875331	-0.207405	-0.634445
H198	H	1.375331	0.292595	-0.134445
H199	H	0.181160	-0.003595	0.048073
H200	H	0.681160	0.496405	0.548073
H201	H	0.898210	-0.444357	0.033115
H202	H	1.398210	0.055643	0.533115
H203	H	0.795368	-0.567848	0.130180
H204	H	1.295368	-0.067848	0.630180
H205	H	0.921806	0.122083	-0.593541
H206	H	1.421806	0.622083	-0.093541
