data_functionalizedCrystal
_audit_creation_method	'MofGen! by Chris Wilmer'
_symmetry_space_group_name_H-M	'P1'
_symmetry_Int_Tables_number	1
_symmetry_cell_setting	triclinic
loop_
_symmetry_equiv_pos_as_xyz
  x,y,z
_cell_length_a	21.395364
_cell_length_b	21.395362
_cell_length_c	21.395356
_cell_angle_alpha	90.029719
_cell_angle_beta	90.023767
_cell_angle_gamma	90.028124
loop_
_atom_site_label
_atom_site_type_symbol
_atom_site_fract_x
_atom_site_fract_y
_atom_site_fract_z
Zn1	Zn	0.957857	-0.249482	0.354255
Zn2	Zn	1.291190	0.083851	0.687589
Zn3	Zn	1.624524	0.417184	1.020922
Zn4	Zn	0.957763	-0.354259	0.249474
Zn5	Zn	1.291096	-0.020926	0.582808
Zn6	Zn	1.624430	0.312408	0.916141
Zn7	Zn	0.853074	-0.249496	0.249492
Zn8	Zn	1.186407	0.083837	0.582825
Zn9	Zn	1.519741	0.417171	0.916159
Zn10	Zn	0.853043	-0.354223	0.354214
Zn11	Zn	1.186376	-0.020890	0.687547
Zn12	Zn	1.519710	0.312444	1.020881
O13	O	0.905434	-0.301865	0.301859
O14	O	1.238768	0.031468	0.635192
O15	O	1.572101	0.364802	0.968526
O16	O	1.045522	-0.263390	0.340366
O17	O	1.378856	0.069943	0.673699
O18	O	1.712189	0.403276	1.007033
O19	O	0.943849	-0.340383	0.161799
O20	O	1.277183	-0.007049	0.495132
O21	O	1.610516	0.326284	0.828465
O22	O	0.867026	-0.161816	0.263414
O23	O	1.200359	0.171517	0.596747
O24	O	1.533693	0.504850	0.930080
O25	O	1.045453	-0.340369	0.263384
O26	O	1.378787	-0.007036	0.596717
O27	O	1.712120	0.326297	0.930050
O28	O	0.944010	-0.161806	0.340383
O29	O	1.277343	0.171527	0.673716
O30	O	1.610676	0.504860	1.007050
O31	O	0.866935	-0.263414	0.161812
O32	O	1.200268	0.069919	0.495145
O33	O	1.533601	0.403253	0.828478
O34	O	0.765392	-0.263379	0.263374
O35	O	1.098725	0.069954	0.596707
O36	O	1.432059	0.403288	0.930040
O37	O	0.866973	-0.340308	0.441898
O38	O	1.200307	-0.006975	0.775231
O39	O	1.533640	0.326359	1.108564
O40	O	0.765369	-0.340321	0.340313
O41	O	1.098703	-0.006988	0.673646
O42	O	1.432036	0.326345	1.006979
O43	O	0.943980	-0.263356	0.441928
O44	O	1.277313	0.069978	0.775261
O45	O	1.610646	0.403311	1.108595
O46	O	0.943819	-0.441932	0.263344
O47	O	1.277153	-0.108599	0.596677
O48	O	1.610486	0.224735	0.930010
O49	O	0.866882	-0.441906	0.340296
O50	O	1.200215	-0.108572	0.673629
O51	O	1.533549	0.224761	1.006962
C52	C	0.742647	-0.301848	0.301841
C53	C	1.075980	0.031485	0.635174
C54	C	1.409313	0.364818	0.968508
C55	C	0.673005	-0.301856	0.301848
C56	C	1.006339	0.031477	0.635181
C57	C	1.339672	0.364810	0.968515
C58	C	0.171214	-0.342002	0.341882
C59	C	0.504547	-0.008669	0.675216
C60	C	0.837880	0.324664	1.008549
C61	C	0.236649	-0.342002	0.341876
C62	C	0.569983	-0.008669	0.675209
C63	C	0.903316	0.324664	1.008542
C64	C	0.269367	-0.301879	0.301879
C65	C	0.602700	0.031455	0.635212
C66	C	0.936034	0.364788	0.968545
C67	C	0.236644	-0.261763	0.261874
C68	C	0.569977	0.071570	0.595207
C69	C	0.903311	0.404903	0.928541
C70	C	0.171210	-0.261769	0.261877
C71	C	0.504543	0.071565	0.595211
C72	C	0.837877	0.404898	0.928544
C73	C	0.373055	-0.245414	0.297030
C74	C	0.706388	0.087919	0.630363
C75	C	1.039722	0.421252	0.963696
C76	C	0.438488	-0.245408	0.297031
C77	C	0.771821	0.087926	0.630364
C78	C	1.105155	0.421259	0.963697
C79	C	0.471188	-0.301862	0.301865
C80	C	0.804521	0.031471	0.635198
C81	C	1.137854	0.364804	0.968532
C82	C	0.438447	-0.358325	0.306711
C83	C	0.771780	-0.024992	0.640045
C84	C	1.105113	0.308342	0.973378
C85	C	0.373012	-0.358330	0.306715
C86	C	0.706346	-0.024997	0.640048
C87	C	1.039679	0.308336	0.973381
C88	C	0.340319	-0.301869	0.301871
C89	C	0.673653	0.031465	0.635204
C90	C	1.006986	0.364798	0.968537
C91	C	0.574855	-0.341978	0.341857
C92	C	0.908189	-0.008645	0.675190
C93	C	1.241522	0.324688	1.008524
C94	C	0.640292	-0.341980	0.341846
C95	C	0.973625	-0.008646	0.675179
C96	C	1.306959	0.324687	1.008513
C97	C	0.640286	-0.261735	0.261848
C98	C	0.973619	0.071598	0.595181
C99	C	1.306952	0.404932	0.928514
C100	C	0.574850	-0.261739	0.261855
C101	C	0.908184	0.071594	0.595189
C102	C	1.241517	0.404927	0.928522
C103	C	0.542139	-0.301860	0.301863
C104	C	0.875472	0.031473	0.635197
C105	C	1.208806	0.364806	0.968530
C106	C	0.905354	-0.464653	0.301827
C107	C	1.238687	-0.131319	0.635160
C108	C	1.572021	0.202014	0.968493
C109	C	0.905377	-0.534294	0.301834
C110	C	1.238711	-0.200961	0.635167
C111	C	1.572044	0.132373	0.968501
C112	C	0.945440	-0.566945	0.341941
C113	C	1.278773	-0.233612	0.675274
C114	C	1.612106	0.099722	1.008607
C115	C	0.945462	-0.632380	0.341956
C116	C	1.278795	-0.299047	0.675289
C117	C	1.612128	0.034286	1.008622
C118	C	0.905428	-0.665162	0.301853
C119	C	1.238761	-0.331829	0.635187
C120	C	1.572094	0.001504	0.968520
C121	C	0.865358	-0.632503	0.261744
C122	C	1.198691	-0.299170	0.595077
C123	C	1.532024	0.034163	0.928411
C124	C	0.865332	-0.567069	0.261734
C125	C	1.198666	-0.233736	0.595068
C126	C	1.531999	0.099597	0.928401
C127	C	0.900552	-0.768871	0.245415
C128	C	1.233885	-0.435538	0.578748
C129	C	1.567218	-0.102205	0.912081
C130	C	0.900581	-0.834304	0.245423
C131	C	1.233915	-0.500971	0.578757
C132	C	1.567248	-0.167638	0.912090
C133	C	0.905502	-0.866983	0.301884
C134	C	1.238836	-0.533650	0.635217
C135	C	1.572169	-0.200316	0.968550
C136	C	0.910406	-0.834221	0.358337
C137	C	1.243740	-0.500887	0.691671
C138	C	1.577073	-0.167554	1.025004
C139	C	0.910381	-0.768786	0.358327
C140	C	1.243714	-0.435453	0.691661
C141	C	1.577048	-0.102120	1.024994
C142	C	0.905450	-0.736115	0.301860
C143	C	1.238784	-0.402781	0.635193
C144	C	1.572117	-0.069448	0.968526
C145	C	0.945591	-0.970586	0.342010
C146	C	1.278924	-0.637253	0.675344
C147	C	1.612257	-0.303920	1.008677
C148	C	0.945608	-1.036023	0.342027
C149	C	1.278942	-0.702690	0.675360
C150	C	1.612275	-0.369356	1.008693
C151	C	0.865507	-1.036145	0.261809
C152	C	1.198841	-0.702812	0.595143
C153	C	1.532174	-0.369478	0.928476
C154	C	0.865487	-0.970710	0.261799
C155	C	1.198820	-0.637376	0.595132
C156	C	1.532153	-0.304043	0.928465
C157	C	0.905531	-0.937934	0.301898
C158	C	1.238865	-0.604601	0.635231
C159	C	1.572198	-0.271268	0.968565
C160	C	1.068857	-0.301882	0.301877
C161	C	1.402191	0.031451	0.635211
C162	C	1.735524	0.364784	0.968544
C163	C	1.138499	-0.301890	0.301885
C164	C	1.471832	0.031444	0.635219
C165	C	1.805165	0.364777	0.968552
C166	C	0.905484	-0.301826	0.465282
C167	C	1.238817	0.031507	0.798616
C168	C	1.572150	0.364840	1.131949
C169	C	0.905505	-0.301810	0.534924
C170	C	1.238838	0.031524	0.868257
C171	C	1.572171	0.364857	1.201590
C172	C	0.905532	-0.138442	0.301905
C173	C	1.238865	0.194892	0.635238
C174	C	1.572198	0.528225	0.968572
C175	C	0.905573	-0.068800	0.301924
C176	C	1.238907	0.264533	0.635258
C177	C	1.572240	0.597866	0.968591
C178	C	0.905421	-0.301859	0.139071
C179	C	1.238755	0.031475	0.472405
C180	C	1.572088	0.364808	0.805738
C181	C	0.905522	-0.301699	0.069430
C182	C	1.238855	0.031635	0.402764
C183	C	1.572188	0.364968	0.736097
C184	C	0.865466	-0.261728	0.567634
C185	C	1.198799	0.071606	0.900967
C186	C	1.532132	0.404939	1.234300
C187	C	0.865464	-0.261716	0.633069
C188	C	1.198797	0.071617	0.966402
C189	C	1.532130	0.404951	1.299736
C190	C	0.905511	-0.301780	0.665792
C191	C	1.238845	0.031553	0.999125
C192	C	1.572178	0.364887	1.332459
C193	C	0.945553	-0.341870	0.633074
C194	C	1.278886	-0.008536	0.966407
C195	C	1.612220	0.324797	1.299741
C196	C	0.945550	-0.341885	0.567640
C197	C	1.278883	-0.008551	0.900973
C198	C	1.612216	0.324782	1.234307
C199	C	0.961963	-0.306707	0.769478
C200	C	1.295297	0.026626	1.102812
C201	C	1.628630	0.359959	1.436145
C202	C	0.961968	-0.306688	0.834911
C203	C	1.295301	0.026645	1.168245
C204	C	1.628635	0.359979	1.501578
C205	C	0.905522	-0.301738	0.867613
C206	C	1.238855	0.031596	1.200946
C207	C	1.572188	0.364929	1.534279
C208	C	0.849069	-0.296793	0.834873
C209	C	1.182403	0.036540	1.168207
C210	C	1.515736	0.369874	1.501540
C211	C	0.849066	-0.296808	0.769439
C212	C	1.182399	0.036525	1.102772
C213	C	1.515732	0.369859	1.436106
C214	C	0.905519	-0.301768	0.736744
C215	C	1.238853	0.031565	1.070078
C216	C	1.572186	0.364898	1.403411
C217	C	0.865477	-0.261641	0.971275
C218	C	1.198811	0.071693	1.304609
C219	C	1.532144	0.405026	1.637942
C220	C	0.865474	-0.261633	1.036712
C221	C	1.198807	0.071700	1.370045
C222	C	1.532141	0.405033	1.703379
C223	C	0.945569	-0.341784	1.036716
C224	C	1.278902	-0.008451	1.370049
C225	C	1.612236	0.324883	1.703383
C226	C	0.945567	-0.341795	0.971280
C227	C	1.278900	-0.008461	1.304614
C228	C	1.612233	0.324872	1.637947
C229	C	0.905522	-0.301720	0.938564
C230	C	1.238855	0.031614	1.271897
C231	C	1.572188	0.364947	1.605231
H232	H	0.346436	-0.199440	0.293082
H233	H	0.679770	0.133893	0.626416
H234	H	1.013103	0.467227	0.959749
F235	F	0.540031	-0.219041	0.219289
F236	F	0.873364	0.114292	0.552622
F237	F	1.206698	0.447626	0.885955
H238	H	0.978172	-0.374432	0.944648
H239	H	1.311506	-0.041099	1.277981
H240	H	1.644839	0.292234	1.611314
H241	H	0.465141	-0.199432	0.293092
H242	H	0.798474	0.133901	0.626425
H243	H	1.131808	0.467235	0.959758
F244	F	0.822846	-0.935959	0.219111
F245	F	1.156180	-0.602625	0.552444
F246	F	1.489513	-0.269292	0.885777
F247	F	0.895378	-0.734099	0.185312
F248	F	1.228711	-0.400765	0.518646
F249	F	1.562044	-0.067432	0.851979
H250	H	0.896592	-0.860974	0.199455
H251	H	1.229925	-0.527641	0.532789
H252	H	1.563259	-0.194308	0.866122
H253	H	0.832856	-0.229098	0.541000
H254	H	1.166189	0.104236	0.874333
H255	H	1.499522	0.437569	1.207667
H256	H	0.144574	-0.229102	0.229307
H257	H	0.477907	0.104231	0.562640
H258	H	0.811240	0.437564	0.895973
F259	F	0.988056	-0.532067	0.384621
F260	F	1.321389	-0.198733	0.717955
F261	F	1.654723	0.134600	1.051288
F262	F	0.915646	-0.868994	0.418431
F263	F	1.248980	-0.535661	0.751765
F264	F	1.582313	-0.202327	1.085098
F265	F	0.540040	-0.384680	0.384434
F266	F	0.873373	-0.051347	0.717767
F267	F	1.206706	0.281986	1.051101
F268	F	0.822856	-0.218993	0.936454
F269	F	1.156189	0.114340	1.269787
F270	F	1.489522	0.447674	1.603121
F271	F	0.473243	-0.418413	0.311855
F272	F	0.806576	-0.085080	0.645189
F273	F	1.139909	0.248254	0.978522
F274	F	0.915597	-0.733921	0.418408
F275	F	1.248931	-0.400587	0.751741
F276	F	1.582264	-0.067254	1.085074
F277	F	0.988207	-0.935702	0.384689
F278	F	1.321541	-0.602369	0.718022
F279	F	1.654874	-0.269036	1.051356
H280	H	0.832760	-0.659199	0.229094
H281	H	1.166094	-0.325865	0.562427
H282	H	1.499427	0.007468	0.895761
H283	H	0.978160	-0.374490	0.659721
H284	H	1.311493	-0.041157	0.993055
H285	H	1.644827	0.292176	1.326388
H286	H	0.263287	-0.229095	0.229307
H287	H	0.596620	0.104238	0.562641
H288	H	0.929954	0.437571	0.895974
F289	F	0.675102	-0.219037	0.219275
F290	F	1.008435	0.114297	0.552608
F291	F	1.341769	0.447630	0.885941
H292	H	1.007935	-0.310711	0.861563
H293	H	1.341268	0.022622	1.194896
H294	H	1.674602	0.355955	1.528229
H295	H	0.978232	-1.062606	0.374689
H296	H	1.311565	-0.729273	0.708022
H297	H	1.644898	-0.395940	1.041356
F298	F	0.822842	-0.218985	1.071524
F299	F	1.156176	0.114349	1.404858
F300	F	1.489509	0.447682	1.738191
F301	F	0.988106	-0.667137	0.384641
F302	F	1.321440	-0.333804	0.717975
F303	F	1.654773	-0.000470	1.051308
F304	F	0.822898	-1.071030	0.219131
F305	F	1.156232	-0.737696	0.552464
F306	F	1.489565	-0.404363	0.885797
F307	F	0.271474	-0.384697	0.384448
F308	F	0.604807	-0.051364	0.717781
F309	F	0.938141	0.281969	1.051115
F310	F	0.338169	-0.418420	0.311870
F311	F	0.671503	-0.085087	0.645203
F312	F	1.004836	0.248246	0.978537
F313	F	0.822690	-0.532319	0.219046
F314	F	1.156023	-0.198985	0.552380
F315	F	1.489356	0.134348	0.885713
H316	H	0.832860	-0.229073	0.659707
H317	H	1.166194	0.104260	0.993040
H318	H	1.499527	0.437594	1.326373
H319	H	0.803100	-0.292783	0.742785
H320	H	1.136434	0.040550	1.076119
H321	H	1.469767	0.373883	1.409452
F322	F	0.788990	-0.291521	0.869671
F323	F	1.122324	0.041812	1.203005
F324	F	1.455657	0.375146	1.536338
F325	F	0.988188	-0.384427	1.071538
F326	F	1.321521	-0.051094	1.404871
F327	F	1.654855	0.282240	1.738204
H328	H	1.007933	-0.310734	0.742858
H329	H	1.341266	0.022600	1.076191
H330	H	1.674599	0.355933	1.409525
H331	H	0.144584	-0.374674	0.374458
H332	H	0.477918	-0.041341	0.707791
H333	H	0.811251	0.291993	1.041124
F334	F	0.675110	-0.384679	0.384415
F335	F	1.008443	-0.051346	0.717748
F336	F	1.341776	0.281987	1.051082
H337	H	0.978157	-0.374524	0.541008
H338	H	1.311490	-0.041190	0.874341
H339	H	1.644823	0.292143	1.207674
