data_functionalizedCrystal
_audit_creation_method	'MofGen! by Chris Wilmer'
_symmetry_space_group_name_H-M	'P1'
_symmetry_Int_Tables_number	1
_symmetry_cell_setting	triclinic
loop_
_symmetry_equiv_pos_as_xyz
  x,y,z
_cell_length_a	19.851628
_cell_length_b	14.628931
_cell_length_c	14.628931
_cell_angle_alpha	60.000028
_cell_angle_beta	90.003599
_cell_angle_gamma	59.998125
loop_
_atom_site_label
_atom_site_type_symbol
_atom_site_fract_x
_atom_site_fract_y
_atom_site_fract_z
Zr1	Zr	0.648976	1.000477	-0.119856
O2	O	0.541409	1.191199	-0.265834
O3	O	0.681951	0.809766	-0.075105
O4	O	0.681951	1.000471	-0.265811
O5	O	0.541409	1.000494	0.075303
O6	O	0.792813	1.000453	-0.265792
O7	O	0.541409	1.000494	-0.075129
O8	O	0.792813	0.659316	0.075345
O9	O	0.541409	1.341632	-0.265835
O10	O	0.778749	0.888190	-0.056006
O11	O	0.696014	0.888204	0.056246
O12	O	0.696014	1.112735	-0.168286
O13	O	0.613279	1.112748	-0.056034
Zr14	Zr	0.825787	1.000449	0.120095
Zr15	Zr	0.825787	1.000449	-0.119826
Zr16	Zr	0.648975	1.000477	0.120066
Zr17	Zr	0.648975	1.240399	-0.119856
Zr18	Zr	0.825788	0.760527	0.120095
O19	O	0.792812	1.191160	0.075344
O20	O	0.792812	1.191159	-0.265793
O21	O	0.541408	1.191200	0.075303
O22	O	0.933354	0.809727	0.266073
O23	O	0.933354	0.809726	-0.075064
O24	O	0.681951	0.809767	0.266032
O25	O	0.933354	1.000432	-0.075064
O26	O	0.792812	1.000455	0.266050
O27	O	0.681950	1.000473	0.266032
O28	O	0.933354	1.000432	0.075368
O29	O	0.681950	1.341609	-0.265811
O30	O	0.792813	0.659317	0.266051
O31	O	0.933354	0.659294	0.266074
O32	O	0.933355	0.659294	0.075368
O33	O	0.541408	1.341632	-0.075129
O34	O	0.681950	1.341610	-0.075106
O35	O	0.778749	0.888191	0.168525
O36	O	0.861484	0.888178	0.056273
O37	O	0.778749	1.112722	-0.056007
O38	O	0.696014	1.112736	0.056245
C39	C	0.737382	0.700357	0.000120
C40	C	0.737382	0.598504	0.000120
C41	C	0.679340	0.631863	-0.078649
C42	C	0.679339	0.526595	-0.078650
C43	C	0.516217	1.000498	0.000083
C44	C	0.441156	1.000510	0.000071
C45	C	0.214700	1.122913	-0.061111
C46	C	0.192339	1.061713	-0.105470
C47	C	0.303749	1.000477	0.000103
C48	C	0.192370	1.061685	0.044441
C49	C	0.171017	1.000453	0.000133
C50	C	0.282377	0.939276	-0.044317
C51	C	0.282405	0.939266	0.105652
C52	C	0.260097	0.877976	0.061320
C53	C	0.380211	1.000494	0.000083
C54	C	0.094560	1.000427	0.000152
C55	C	0.958546	1.000428	0.000156
C56	C	1.033607	1.000416	0.000168
C57	C	0.737382	1.000462	-0.299985
C58	C	0.737382	1.000462	-0.401838
C59	C	0.737381	1.300569	0.000119
C60	C	0.737381	1.402422	0.000119
C61	C	0.696340	1.111851	-0.502946
C62	C	0.696339	1.111853	-0.608217
C63	C	0.737381	1.000464	0.300224
C64	C	0.737381	1.000464	0.402077
C65	C	0.958546	0.700322	0.000157
C66	C	1.033608	0.598457	0.000169
C67	C	0.737382	0.700358	0.300225
C68	C	0.737382	0.598505	0.402078
C69	C	0.958546	0.700323	0.300261
C70	C	1.033607	0.598458	0.402127
C71	C	0.516217	1.300603	-0.300022
C72	C	0.441156	1.402468	-0.401888
C73	C	0.516216	1.300604	0.000082
C74	C	0.441155	1.402469	0.000070
C75	C	0.737381	1.300568	-0.299986
C76	C	0.737381	1.402421	-0.401839
C77	C	1.025671	0.550627	-0.058443
C78	C	1.096192	0.454927	-0.058454
C79	C	1.174650	0.407052	0.000155
C80	C	1.182585	0.454892	0.058770
C81	C	1.112065	0.550597	0.058773
C82	C	1.112051	0.550614	0.391370
C83	C	1.182586	0.454915	0.487074
C84	C	1.174675	0.407054	0.593534
C85	C	1.096223	0.454907	0.604289
C86	C	1.025690	0.550612	0.508586
C87	C	0.362712	1.450324	-0.391131
C88	C	0.292177	1.546053	-0.486835
C89	C	0.300088	1.593918	-0.593295
C90	C	0.378540	1.546059	-0.604050
C91	C	0.449073	1.450338	-0.508347
C92	C	0.449092	1.450310	0.058673
C93	C	0.378571	1.546036	0.058657
C94	C	0.300113	1.593914	0.000044
C95	C	0.292178	1.546069	-0.058566
C96	C	0.362698	1.450351	-0.058556
C97	C	0.778424	0.553090	0.503185
C98	C	0.778425	0.447819	0.608457
H99	H	0.787072	0.374027	0.067563
H100	H	0.813563	0.408762	0.695193
H101	H	0.321213	0.887564	0.194882
H102	H	0.512970	1.411335	0.106409
H103	H	0.228305	1.585004	-0.478056
F104	F	0.284355	0.742585	0.128931
F105	F	0.141653	1.129350	0.093437
F106	F	0.783307	0.875806	-0.484557
H107	H	0.242648	1.671860	-0.671214
F108	F	1.249751	0.305195	0.695382
F109	F	0.208670	1.597035	-0.120939
F110	F	1.087729	0.404025	-0.120838
F111	F	0.824346	0.604137	0.514467
F112	F	0.354238	1.399439	-0.120926
H113	H	0.356255	1.411357	-0.304454
H114	H	0.702248	0.441466	0.511431
H115	H	0.661196	1.207218	-0.694953
H116	H	0.384971	1.585043	-0.690741
H117	H	0.661207	1.207214	-0.511572
F118	F	0.802338	0.459311	0.088263
F119	F	0.532557	1.399409	-0.519813
F120	F	1.087817	0.403957	0.717602
H121	H	0.196249	1.226438	-0.112952
H122	H	0.153529	1.113459	-0.194719
F123	F	1.266072	0.403999	0.475604
F124	F	0.387034	1.596934	0.121044
H125	H	0.961820	0.589554	0.517360
H126	H	0.321072	0.887566	-0.081905
H127	H	0.242697	1.671853	0.000045
F128	F	0.691449	0.547472	0.390796
H129	H	0.772521	0.905099	-0.393212
H130	H	0.629651	0.738357	-0.146088
F131	F	0.942177	0.601564	-0.120831
F132	F	1.249698	0.305192	0.000143
F133	F	1.266093	0.403924	0.121145
F134	F	1.120525	0.601484	0.121167
F135	F	0.614381	0.563704	-0.166794
F136	F	1.120489	0.601539	0.278075
