data_functionalizedCrystal
_audit_creation_method	'MofGen! by Chris Wilmer'
_symmetry_space_group_name_H-M	'P1'
_symmetry_Int_Tables_number	1
_symmetry_cell_setting	triclinic
loop_
_symmetry_equiv_pos_as_xyz
  x,y,z
_cell_length_a	6.817900
_cell_length_b	13.563541
_cell_length_c	15.185107
_cell_angle_alpha	109.457979
_cell_angle_beta	104.257894
_cell_angle_gamma	104.704624
loop_
_atom_site_label
_atom_site_type_symbol
_atom_site_fract_x
_atom_site_fract_y
_atom_site_fract_z
V1	V	-4.069022	-0.154492	-0.322143
O2	O	-4.021231	0.006629	-0.276339
O3	O	-4.053430	-0.305568	-0.358095
O4	O	-4.023915	-0.152465	-0.445233
O5	O	-4.050951	-0.147534	-0.188597
V6	V	-4.547972	-0.135179	-0.301535
O7	O	-4.340311	-0.196858	-0.367349
O8	O	-4.726880	-0.092814	-0.256329
O9	O	-4.340357	0.015897	-0.265583
O10	O	-4.713159	-0.296301	-0.347339
O11	O	-4.683440	-0.142138	-0.435081
O12	O	-4.369873	-0.137207	-0.178444
C13	C	-3.906306	-0.342386	-0.362858
C14	C	-3.974866	-0.465895	-0.393073
C15	C	-3.983014	-0.749668	-0.129138
C16	C	-3.918584	-0.633624	-0.100747
C17	C	-3.932652	-0.591686	-0.173826
C18	C	-4.011156	-0.665803	-0.275301
C19	C	-4.075576	-0.781857	-0.303694
C20	C	-4.025213	-0.623876	-0.348382
C21	C	-4.103718	-0.697993	-0.449857
C22	C	-4.168132	-0.814035	-0.478245
C23	C	-4.154065	-0.855973	-0.405166
C24	C	-3.960793	-0.507821	-0.319989
C25	C	-4.053355	-0.540011	-0.494545
C26	C	-4.117785	-0.656054	-0.522936
C27	C	-3.868654	-0.147086	-0.474010
C28	C	-3.913275	-0.146428	-0.574888
C29	C	-4.164914	-0.245345	-1.039919
C30	C	-4.039309	-0.041777	-0.962866
C31	C	-3.997343	-0.042412	-0.868091
C32	C	-4.039165	-0.144515	-0.859227
C33	C	-4.122952	-0.245984	-0.945137
C34	C	-3.913574	0.059054	-0.782175
C35	C	-3.871606	0.058423	-0.687393
C36	C	-3.913413	-0.043682	-0.678527
C37	C	-3.997203	-0.145154	-0.764445
C38	C	-4.039024	-0.247258	-0.755581
C39	C	-4.122800	-0.348731	-0.841497
C40	C	-4.164759	-0.348089	-0.936271
C41	C	-3.871453	-0.044324	-0.583752
C42	C	-3.997062	-0.247897	-0.660799
C43	C	-4.150825	0.052709	-0.260819
C44	C	-4.061503	0.176216	-0.230610
C45	C	-4.188476	-0.142589	-0.149663
C46	C	-4.123092	-0.143242	-0.048783
H47	H	-3.896874	-0.447486	-0.237367
H48	H	-4.232031	-0.874378	-0.560872
H49	H	-4.005278	0.041351	-0.970091
H50	H	-3.971558	-0.783825	-0.069647
H51	H	-4.181709	-0.716416	-0.605559
H52	H	-3.803393	0.141049	-0.617446
H53	H	-3.879543	0.142181	-0.789402
H54	H	-3.803257	0.038294	-0.513805
H55	H	-3.880178	-0.497197	-0.150703
H56	H	-4.206538	-0.950464	-0.428277
H57	H	-4.064807	-0.505866	-0.554053
H58	H	-4.156857	-0.431865	-0.834267
H59	H	-3.854673	-0.573286	-0.018126
H60	H	-4.232973	-0.430703	-1.006231
H61	H	-4.233116	-0.327962	-1.109875
H62	H	-4.031112	-0.331042	-0.653593
