data_functionalizedCrystal
_audit_creation_method	'MofGen! by Chris Wilmer'
_symmetry_space_group_name_H-M	'P1'
_symmetry_Int_Tables_number	1
_symmetry_cell_setting	triclinic
loop_
_symmetry_equiv_pos_as_xyz
  x,y,z
_cell_length_a	15.298206
_cell_length_b	15.299816
_cell_length_c	15.296720
_cell_angle_alpha	69.242954
_cell_angle_beta	69.221745
_cell_angle_gamma	69.257501
loop_
_atom_site_label
_atom_site_type_symbol
_atom_site_fract_x
_atom_site_fract_y
_atom_site_fract_z
Zn1	Zn	1.429649	-0.671612	0.378548
Zn2	Zn	1.476443	-0.807091	0.243057
Zn3	Zn	1.294162	-0.624797	0.243093
Zn4	Zn	1.294084	-0.807077	0.425474
O5	O	1.373585	-0.727644	0.322543
O6	O	1.568877	-0.709181	0.340920
O7	O	1.471880	-0.763324	0.110031
O8	O	1.292584	-0.498024	0.241438
O9	O	1.603256	-0.808718	0.241376
O10	O	1.392126	-0.532418	0.340956
O11	O	1.337958	-0.629393	0.110058
O12	O	1.161132	-0.629379	0.286941
O13	O	1.292450	-0.808693	0.552280
O14	O	1.161074	-0.763299	0.420935
O15	O	1.392050	-0.709167	0.517803
O16	O	1.471804	-0.940073	0.286878
O17	O	1.337825	-0.940062	0.420900
C18	C	1.126612	-0.691258	0.359035
C19	C	1.020956	-0.675718	0.374672
C20	C	1.409906	-0.974556	0.358994
C21	C	1.425527	-1.080203	0.374607
C22	C	0.953425	-0.616703	0.433959
C23	C	0.854155	-0.602093	0.448652
C24	C	0.822405	-0.646504	0.404066
C25	C	0.889937	-0.705526	0.344782
C26	C	0.989217	-0.720131	0.330082
C27	C	0.858197	-0.749932	0.300188
C28	C	0.925728	-0.808954	0.240905
C29	C	1.024999	-0.823557	0.226208
C30	C	1.056748	-0.779146	0.270795
C31	C	0.758917	-0.735327	0.314889
C32	C	0.794708	-0.838755	0.211011
C33	C	0.893979	-0.853365	0.196318
C34	C	1.262516	-1.306689	0.211187
C35	C	1.247835	-1.207428	0.196521
C36	C	1.292257	-1.175617	0.241041
C37	C	1.351362	-1.243077	0.300230
C38	C	1.366040	-1.342348	0.314903
C39	C	1.395780	-1.211275	0.344757
C40	C	1.454886	-1.278735	0.403946
C41	C	1.469560	-1.377996	0.418616
C42	C	1.425139	-1.409807	0.374096
C43	C	1.381103	-1.112004	0.330084
C44	C	1.484626	-1.147662	0.433800
C45	C	1.499308	-1.246923	0.448466
C46	C	1.621522	-0.764173	0.285909
C47	C	1.727177	-0.779740	0.270298
C48	C	1.337022	-0.764150	0.570500
C49	C	1.321441	-0.779707	0.676164
C50	C	1.337144	-0.479776	0.285967
C51	C	1.321615	-0.374149	0.270380
C52	C	1.410050	-0.691220	0.075533
C53	C	1.425775	-0.675422	-0.030197
C54	C	1.484955	-0.616296	0.902213
C55	C	1.499600	-0.601683	0.802936
C56	C	1.455061	-0.646187	0.771238
C57	C	1.395875	-0.705309	0.838827
C58	C	1.381235	-0.719930	0.938115
C59	C	1.351341	-0.749821	0.807139
C60	C	1.292155	-0.808942	0.874728
C61	C	1.277517	-0.823560	0.974005
C62	C	1.322055	-0.779056	1.005704
C63	C	1.365982	-0.735199	0.707852
C64	C	1.262262	-0.838833	0.743753
C65	C	1.247616	-0.853447	0.843030
H66	H	0.703942	-0.687269	0.363156
H67	H	0.741574	-0.634602	0.416029
Cl68	Cl	1.573608	-1.331740	0.522873
H69	H	1.280300	-1.094793	0.229095
Cl70	Cl	0.754803	-0.894585	0.154951
H71	H	1.229332	-0.871710	1.029036
Cl72	Cl	1.440383	-0.660877	0.622895
Cl73	Cl	1.206663	-1.346687	0.155244
H74	H	1.547792	-0.553548	0.747911
Cl75	Cl	1.443821	-1.534596	0.392303
H76	H	1.332978	-1.057086	0.281892
H77	H	1.521218	-0.580074	0.928033
Cl78	Cl	1.173522	-1.122629	0.122128
H79	H	1.079981	-0.871607	0.177926
H80	H	1.517684	-1.432920	0.466816
Cl81	Cl	1.540472	-1.107679	0.489772
H82	H	1.466989	-0.634285	0.690401
Cl83	Cl	0.769266	-0.527901	0.523179
Cl84	Cl	0.978885	-0.927560	0.121792
Cl85	Cl	0.993345	-0.560874	0.489998
Cl86	Cl	1.181550	-0.797516	0.252332
H87	H	1.310134	-0.790951	1.086542
H88	H	1.199426	-0.901584	0.898075
H89	H	1.225996	-0.875074	0.717946
