data_functionalizedCrystal
_audit_creation_method	'MofGen! by Chris Wilmer'
_symmetry_space_group_name_H-M	'P1'
_symmetry_Int_Tables_number	1
_symmetry_cell_setting	triclinic
loop_
_symmetry_equiv_pos_as_xyz
  x,y,z
_cell_length_a	19.288864
_cell_length_b	17.038272
_cell_length_c	17.766277
_cell_angle_alpha	89.993732
_cell_angle_beta	89.976791
_cell_angle_gamma	87.123901
loop_
_atom_site_label
_atom_site_type_symbol
_atom_site_fract_x
_atom_site_fract_y
_atom_site_fract_z
O1	O	0.927386	0.097514	-0.062838
O2	O	0.725940	0.110668	-0.062787
O3	O	0.825466	-0.009720	-0.062806
O4	O	0.827860	0.217903	-0.062819
O5	O	0.825447	-0.009726	0.062382
O6	O	0.725920	0.110662	0.062402
O7	O	0.927367	0.097508	0.062351
Cu8	Cu	0.826642	0.104085	0.073807
Cu9	Cu	0.826665	0.104092	-0.074243
O10	O	0.827841	0.217897	0.062370
C11	C	0.700027	0.110242	-0.000186
C12	C	0.622845	0.108972	-0.000166
C13	C	0.582519	0.179610	-0.000182
C14	C	0.509998	0.178417	-0.000190
C15	C	0.477806	0.106580	-0.000198
C16	C	0.518141	0.035932	-0.000178
C17	C	0.590661	0.037128	-0.000162
C18	C	0.366057	0.050111	-0.044079
C19	C	0.293539	0.048918	-0.044100
C20	C	0.254132	0.102889	-0.000243
C21	C	0.287252	0.158066	0.043624
C22	C	0.359772	0.159262	0.043640
C23	C	0.399172	0.105276	-0.000214
C24	C	0.135171	0.172238	-0.000267
C25	C	0.062649	0.171042	-0.000270
C26	C	0.070793	0.028556	-0.000266
C27	C	0.143314	0.029754	-0.000254
C28	C	0.175498	0.101598	-0.000259
C29	C	0.823278	-0.038845	-0.000211
C30	C	0.816781	-0.125616	-0.000210
C31	C	0.876437	-0.175923	-0.000224
C32	C	0.870327	-0.257454	-0.000230
C33	C	0.804561	-0.288677	-0.000216
C34	C	0.744901	-0.238363	-0.000204
C35	C	0.751011	-0.156834	-0.000203
C36	C	0.782976	-0.534365	-0.000221
C37	C	0.776870	-0.615900	-0.000219
C38	C	0.902297	-0.634985	-0.000246
C39	C	0.908402	-0.553454	-0.000241
C40	C	0.848741	-0.503148	-0.000233
C41	C	0.798315	-0.372014	-0.000219
C42	C	0.854988	-0.419812	-0.000235
C43	C	0.953279	0.097934	-0.000252
C44	C	1.030462	0.099205	-0.000277
C45	C	0.830029	0.247021	-0.000227
C46	C	0.836526	0.333793	-0.000233
N47	N	0.826631	0.104079	0.177937
N48	N	0.826681	0.104091	-0.178373
C49	C	0.870718	0.050797	0.217315
C50	C	0.870722	0.050793	0.296117
C51	C	0.826646	0.104085	0.335538
C52	C	0.782551	0.157371	0.296150
C53	C	0.782543	0.157368	0.217350
C54	C	0.821754	0.175309	0.460373
C55	C	0.821767	0.175313	0.539172
C56	C	0.826665	0.104095	0.578584
C57	C	0.831566	0.032869	0.539188
C58	C	0.831559	0.032866	0.460387
C59	C	0.826649	0.104094	0.420983
C60	C	0.870759	0.050804	0.703408
C61	C	0.870758	0.050800	0.782212
C62	C	0.782590	0.157384	0.782243
C63	C	0.782587	0.157382	0.703441
C64	C	0.826676	0.104093	0.664028
H65	H	0.255169	0.202014	0.079337
H66	H	0.691353	-0.263791	-0.000197
C67	C	0.626419	-0.146154	-0.000170
C68	C	0.685435	-0.101534	-0.000186
H69	H	0.585935	-0.112012	-0.000158
H70	H	0.626653	-0.178344	-0.043823
H71	H	0.626641	-0.178356	0.043489
H72	H	0.685216	-0.069335	-0.043848
H73	H	0.685201	-0.069330	0.043472
C74	C	0.978356	-0.446865	-0.000267
C75	C	0.927278	-0.385495	-0.000255
H76	H	1.022984	-0.425672	-0.000283
H77	H	0.973360	-0.478269	0.043388
H78	H	0.973370	-0.478266	-0.043924
H79	H	0.932260	-0.354098	0.043405
H80	H	0.932276	-0.354078	-0.043915
C81	C	0.999800	-0.202985	-0.000265
C82	C	0.948730	-0.141608	-0.000245
H83	H	1.044431	-0.181800	-0.000285
H84	H	0.994805	-0.234390	0.043390
H85	H	0.994806	-0.234384	-0.043922
H86	H	0.953721	-0.110212	0.043415
H87	H	0.953727	-0.110190	-0.043905
H88	H	0.608719	0.238111	-0.000187
H89	H	0.906624	0.007403	0.328185
H90	H	0.744768	-0.397444	-0.000206
H91	H	0.950869	-0.675953	-0.000254
H92	H	0.817780	0.233309	0.571243
H93	H	0.817753	0.233307	0.428290
H94	H	0.623494	-0.020396	-0.000150
C95	C	0.957867	-0.054558	0.225206
C96	C	0.919172	-0.007786	0.173995
H97	H	0.987775	-0.090728	0.198459
H98	H	0.984770	-0.022088	0.255917
H99	H	0.927296	-0.082588	0.255966
H100	H	0.949743	0.020248	0.143238
H101	H	0.892267	-0.040260	0.143271
H102	H	0.029816	0.228567	-0.000279
H103	H	0.161377	0.230738	-0.000259
C104	C	0.695448	0.262740	0.711389
C105	C	0.734133	0.215961	0.660151
H106	H	0.665535	0.298907	0.684662
H107	H	0.668550	0.230274	0.742141
H108	H	0.726024	0.290773	0.742106
H109	H	0.703556	0.187923	0.629438
H110	H	0.761033	0.248431	0.629387
C111	C	0.364986	-0.057883	-0.130815
C112	C	0.409368	-0.009212	-0.092299
H113	H	0.391725	-0.094500	-0.160587
H114	H	0.338231	-0.085382	-0.095558
H115	H	0.334909	-0.026773	-0.162432
H116	H	0.439442	-0.040322	-0.060678
H117	H	0.436135	0.018288	-0.127561
C118	C	0.841235	-0.107935	0.468308
C119	C	0.836935	-0.045420	0.417082
H120	H	0.844547	-0.156265	0.441571
H121	H	0.881172	-0.103715	0.499016
H122	H	0.800894	-0.106228	0.499069
H123	H	0.877279	-0.047125	0.386325
H124	H	0.796994	-0.049642	0.386361
H125	H	0.491926	-0.022557	-0.000194
H126	H	0.835555	-0.025124	0.571275
C127	C	0.689062	0.174608	0.384824
C128	C	0.734103	0.215951	0.339480
H129	H	0.659154	0.210774	0.411577
H130	H	0.662160	0.142147	0.354104
H131	H	0.715330	0.142876	0.419552
H132	H	0.707836	0.247679	0.304748
H133	H	0.761008	0.248426	0.370203
H134	H	0.746641	0.200758	0.185287
H135	H	0.477159	0.235941	-0.000201
C136	C	0.903569	-0.084640	0.806464
C137	C	0.919225	-0.007773	0.825497
H138	H	0.933495	-0.120799	0.833184
H139	H	0.856730	-0.093000	0.819409
H140	H	0.909875	-0.092254	0.753890
H141	H	0.912913	-0.000157	0.878070
H142	H	0.966074	0.000590	0.812557
C143	C	0.346283	0.267023	0.130360
C144	C	0.396178	0.219901	0.091864
H145	H	0.368761	0.304454	0.160136
H146	H	0.316477	0.293587	0.095090
H147	H	0.319781	0.234985	0.161970
H148	H	0.422678	0.251939	0.060250
H149	H	0.425997	0.193336	0.127139
H150	H	0.044583	-0.029935	-0.000318
C151	C	0.717074	-0.431612	0.064145
C152	C	0.717401	-0.479070	-0.000207
H153	H	0.676591	-0.397469	0.064149
H154	H	0.717287	-0.463818	0.107793
H155	H	0.757120	-0.401354	0.064126
H156	H	0.677358	-0.509332	-0.000185
H157	H	0.717182	-0.446861	-0.043867
C158	C	0.144077	-0.111202	-0.000260
C159	C	0.187645	-0.047895	-0.000249
H160	H	0.171447	-0.159141	-0.000260
H161	H	0.115601	-0.108710	0.043388
H162	H	0.115644	-0.108696	-0.043925
H163	H	0.216075	-0.050398	0.043419
H164	H	0.216133	-0.050389	-0.043901
H165	H	0.918906	-0.298411	-0.000240
H166	H	0.266578	0.003993	-0.079822
C167	C	0.964313	0.033635	0.614813
C168	C	0.919265	-0.007747	0.660111
H169	H	0.994276	-0.002505	0.588098
H170	H	0.938060	0.065336	0.580059
H171	H	0.991165	0.066131	0.645566
H172	H	0.892410	-0.040239	0.629357
H173	H	0.945521	-0.039462	0.694869
H174	H	0.961955	-0.528039	-0.000253
H175	H	0.723313	-0.641318	-0.000195
H176	H	0.746700	0.200773	0.814338
