data_functionalizedCrystal
_audit_creation_method	'MofGen! by Chris Wilmer'
_symmetry_space_group_name_H-M	'P1'
_symmetry_Int_Tables_number	1
_symmetry_cell_setting	triclinic
loop_
_symmetry_equiv_pos_as_xyz
  x,y,z
_cell_length_a	10.540539
_cell_length_b	10.540539
_cell_length_c	9.616153
_cell_angle_alpha	90.004826
_cell_angle_beta	89.999906
_cell_angle_gamma	95.474508
loop_
_atom_site_label
_atom_site_type_symbol
_atom_site_fract_x
_atom_site_fract_y
_atom_site_fract_z
O1	O	0.178895	-1.685892	-0.115573
O2	O	0.195751	-1.316479	-0.115589
O3	O	0.002617	-1.509614	-0.115579
O4	O	0.372030	-1.492758	-0.115583
O5	O	0.002621	-1.509587	0.115712
O6	O	0.195755	-1.316452	0.115702
O7	O	0.178899	-1.685865	0.115718
Zn8	Zn	0.187328	-1.501155	0.152433
Zn9	Zn	0.187323	-1.501190	-0.152304
O10	O	0.372034	-1.492731	0.115708
C11	C	0.194489	-1.269163	0.000054
C12	C	0.190707	-1.128215	0.000048
N13	N	0.187331	-1.501140	0.360407
C14	C	-0.044684	-1.508336	0.000064
C15	C	-0.185632	-1.504554	0.000056
C16	C	-0.369059	-1.359637	-0.000469
C17	C	-0.222441	-1.363471	0.000052
C18	C	-0.247288	-1.572435	0.132138
C19	C	-0.393832	-1.567620	0.132249
C20	C	-0.394355	-1.570519	-0.130772
C21	C	-0.247373	-1.571819	-0.132518
C22	C	0.419335	-1.494008	0.000062
C23	C	0.560283	-1.497790	0.000060
C24	C	0.180161	-1.733182	0.000072
C25	C	0.183943	-1.874130	0.000069
C26	C	0.045790	-0.944788	0.000589
C27	C	0.049624	-1.091406	0.000054
C28	C	0.258600	-1.066557	-0.132027
C29	C	0.253785	-0.920013	-0.132123
C30	C	0.256660	-0.919494	0.130899
C31	C	0.257959	-1.066476	0.132630
N32	N	0.187310	-1.501215	-0.360278
C33	C	0.290298	-1.397510	0.580772
C34	C	0.290684	-1.397739	0.419604
C35	C	0.217464	-1.633864	0.418862
C36	C	0.218193	-1.633299	0.580080
C37	C	0.053892	-1.473368	0.580319
C38	C	0.054757	-1.470321	0.419092
H39	H	-0.179839	-1.310058	-0.094630
C40	C	-0.166023	-1.290799	0.128174
H41	H	-0.232727	-1.258827	0.180114
H42	H	-0.107567	-1.221867	0.098726
H43	H	-0.122985	-1.346888	0.184748
C44	C	0.424398	-1.421925	0.367476
H45	H	0.478690	-1.431661	0.444830
H46	H	0.458248	-1.351733	0.312648
H47	H	0.418749	-1.497327	0.312805
C48	C	-0.023040	-1.147823	-0.128072
H49	H	-0.055009	-1.081118	-0.180006
H50	H	-0.091975	-1.206277	-0.098627
H51	H	0.033050	-1.190861	-0.184653
C52	C	0.120800	-1.740753	0.632764
H53	H	0.080973	-1.784565	0.555634
H54	H	0.058099	-1.705291	0.687669
H55	H	0.163257	-1.798714	0.687473
C56	C	-0.458161	-1.708176	-0.131981
H57	H	-0.512190	-1.721314	-0.053187
H58	H	-0.394476	-1.766100	-0.129082
H59	H	-0.507211	-1.722024	-0.214411
H60	H	0.211004	-0.887936	0.231010
C61	C	-0.029514	-0.906148	0.128532
H62	H	-0.112616	-0.949830	0.126901
H63	H	-0.035633	-0.816830	0.126780
H64	H	0.013242	-0.927962	0.210858
H65	H	-0.003797	-1.134009	0.094731
C66	C	0.347474	-1.667501	0.364314
H67	H	0.383558	-1.600842	0.305933
H68	H	0.336215	-1.744649	0.312788
H69	H	0.402873	-1.677735	0.440581
H70	H	-0.009712	-0.914592	-0.093600
H71	H	0.025213	-1.378631	0.621052
H72	H	-0.025564	-1.540848	0.378801
C73	C	0.394320	-0.855698	0.132118
H74	H	0.437781	-0.883489	0.211401
H75	H	0.393024	-0.765763	0.135518
H76	H	0.437087	-0.878506	0.050178
C77	C	0.023897	-1.338421	0.367491
H78	H	0.091512	-1.302277	0.310413
H79	H	0.014051	-1.284345	0.444998
H80	H	-0.052905	-1.347272	0.315197
H81	H	0.144501	-1.712918	0.380514
H82	H	0.272445	-1.298585	0.619578
H83	H	0.203603	-0.891814	-0.230849
H84	H	-0.022762	-1.548980	0.618439
H85	H	-0.223152	-1.674680	-0.140490
H86	H	-0.397661	-1.303917	-0.095187
C87	C	-0.431930	-1.499804	0.265610
H88	H	-0.357877	-1.475445	0.319205
H89	H	-0.488984	-1.555987	0.318422
H90	H	-0.472413	-1.426117	0.241470
H91	H	0.272553	-1.299122	0.380085
C92	C	-0.189754	-1.508710	0.264922
H93	H	-0.227674	-1.550466	0.344298
H94	H	-0.205661	-1.421515	0.266104
H95	H	-0.100429	-1.514856	0.266290
C96	C	0.390846	-0.855205	-0.140259
H97	H	0.449220	-0.918473	-0.143501
H98	H	0.407899	-0.803024	-0.060621
H99	H	0.399979	-0.804155	-0.221712
H100	H	0.362208	-1.088911	-0.136942
C101	C	0.194881	-1.124089	-0.264814
H102	H	0.126913	-1.185668	-0.240048
H103	H	0.255863	-1.163662	-0.318255
H104	H	0.162529	-1.058424	-0.318047
H105	H	0.208361	-1.107427	0.230338
C106	C	0.396914	-1.099195	0.143407
H107	H	0.415821	-1.151159	0.066842
H108	H	0.408064	-1.143783	0.227702
H109	H	0.452592	-1.022818	0.142294
H110	H	-0.441801	-1.669084	0.138246
C111	C	-0.436974	-1.508858	-0.266016
H112	H	-0.408640	-1.554182	-0.343695
H113	H	-0.401276	-1.422716	-0.270080
H114	H	-0.527313	-1.511651	-0.267713
C115	C	0.423272	-1.421397	0.635422
H116	H	0.484930	-1.358329	0.599299
H117	H	0.443251	-1.503360	0.606570
H118	H	0.423675	-1.417227	0.734109
H119	H	0.315531	-1.657654	0.617668
H120	H	-0.224933	-1.676042	0.137054
H121	H	-0.206516	-1.522152	-0.230229
H122	H	-0.399265	-1.304122	0.093714
