data_functionalizedCrystal
_audit_creation_method	'MofGen! by Chris Wilmer'
_symmetry_space_group_name_H-M	'P1'
_symmetry_Int_Tables_number	1
_symmetry_cell_setting	triclinic
loop_
_symmetry_equiv_pos_as_xyz
  x,y,z
_cell_length_a	14.519731
_cell_length_b	12.996460
_cell_length_c	14.519731
_cell_angle_alpha	90.007128
_cell_angle_beta	96.311147
_cell_angle_gamma	89.993310
loop_
_atom_site_label
_atom_site_type_symbol
_atom_site_fract_x
_atom_site_fract_y
_atom_site_fract_z
O1	O	-1.223866	0.085596	0.120985
O2	O	-0.890533	0.418929	0.454319
O3	O	-0.557199	0.752262	0.787652
O4	O	-0.955393	0.085592	0.135201
O5	O	-0.622059	0.418926	0.468535
O6	O	-0.288726	0.752259	0.801868
O7	O	-1.096737	0.085585	-0.006143
O8	O	-0.763404	0.418918	0.327190
O9	O	-0.430071	0.752251	0.660523
O10	O	-1.082521	0.085603	0.262330
O11	O	-0.749188	0.418937	0.595663
O12	O	-0.415855	0.752270	0.928996
O13	O	-1.096723	-0.085549	-0.006151
O14	O	-0.763389	0.247784	0.327182
O15	O	-0.430056	0.581118	0.660515
O16	O	-0.955378	-0.085542	0.135193
O17	O	-0.622045	0.247792	0.468527
O18	O	-0.288711	0.581125	0.801860
O19	O	-1.223851	-0.085538	0.120977
O20	O	-0.890518	0.247795	0.454311
O21	O	-0.557184	0.581129	0.787644
Cu22	Cu	-1.089613	-0.101166	0.128085
Cu23	Cu	-0.756280	0.232168	0.461418
Cu24	Cu	-0.422947	0.565501	0.794751
Cu25	Cu	-1.089631	0.101220	0.128094
Cu26	Cu	-0.756297	0.434553	0.461427
Cu27	Cu	-0.422964	0.767886	0.794761
O28	O	-1.082507	-0.085531	0.262322
O29	O	-0.749173	0.247803	0.595655
O30	O	-0.415840	0.581136	0.928989
C31	C	-0.921026	0.000025	0.134531
C32	C	-0.587693	0.333358	0.467864
C33	C	-0.254359	0.666691	0.801198
C34	C	-0.818645	0.000023	0.132535
C35	C	-0.485312	0.333356	0.465868
C36	C	-0.151979	0.666690	0.799202
N37	N	-1.089608	-0.243513	0.128078
N38	N	-0.756274	0.089820	0.461411
N39	N	-0.422941	0.423154	0.794744
C40	C	-0.735501	0.000026	0.130913
C41	C	-0.402168	0.333359	0.464247
C42	C	-0.068835	0.666692	0.797580
C43	C	-0.631192	0.000024	0.128887
C44	C	-0.297859	0.333357	0.462220
C45	C	0.035474	0.666690	0.795553
C46	C	-0.548053	0.000022	0.127278
C47	C	-0.214720	0.333355	0.460612
C48	C	0.118614	0.666689	0.793945
C49	C	-0.443738	0.000022	0.125252
C50	C	-0.110404	0.333355	0.458585
C51	C	0.222929	0.666689	0.791919
C52	C	-1.089629	-0.663327	0.128095
C53	C	-0.756296	-0.329994	0.461428
C54	C	-0.422963	0.003340	0.794762
C55	C	-1.089621	-0.546522	0.128093
C56	C	-0.756287	-0.213189	0.461427
C57	C	-0.422954	0.120145	0.794760
C58	C	-1.089619	-0.453424	0.128087
C59	C	-0.756286	-0.120090	0.461420
C60	C	-0.422952	0.213243	0.794754
C61	C	-1.089609	-0.336611	0.128084
C62	C	-0.756276	-0.003278	0.461417
C63	C	-0.422943	0.330056	0.794750
C64	C	-0.258218	0.000027	0.121648
C65	C	0.075115	0.333360	0.454981
C66	C	0.408449	0.666693	0.788314
C67	C	-0.360598	0.000020	0.123644
C68	C	-0.027265	0.333353	0.456977
C69	C	0.306068	0.666687	0.790310
C70	C	-1.096064	0.000018	-0.040507
C71	C	-0.762730	0.333351	0.292827
C72	C	-0.429397	0.666684	0.626160
C73	C	-1.094068	0.000017	-0.142887
C74	C	-0.760734	0.333350	0.190446
C75	C	-0.427401	0.666684	0.523780
N76	N	-1.089644	0.243567	0.128094
N77	N	-0.756310	0.576900	0.461427
N78	N	-0.422977	0.910234	0.794760
C79	C	-1.092446	0.000019	-0.226031
C80	C	-0.759113	0.333353	0.107302
C81	C	-0.425779	0.666686	0.440635
C82	C	-1.090419	0.000027	-0.330340
C83	C	-0.757086	0.333360	0.002993
C84	C	-0.423753	0.666694	0.336326
C85	C	-1.088811	0.000034	-0.413479
C86	C	-0.755478	0.333367	-0.080146
C87	C	-0.422144	0.666700	0.253187
C88	C	-1.086785	0.000040	-0.517795
C89	C	-0.753451	0.333373	-0.184462
C90	C	-0.420118	0.666706	0.148872
C91	C	-1.083180	0.000039	0.296685
C92	C	-0.749847	0.333372	0.630019
C93	C	-0.416513	0.666705	0.963352
C94	C	-1.085176	0.000046	0.399066
C95	C	-0.751843	0.333380	0.732399
C96	C	-0.418509	0.666713	1.065732
