data_functionalizedCrystal
_audit_creation_method	'MofGen! by Chris Wilmer'
_symmetry_space_group_name_H-M	'P1'
_symmetry_Int_Tables_number	1
_symmetry_cell_setting	triclinic
loop_
_symmetry_equiv_pos_as_xyz
  x,y,z
_cell_length_a	16.992694
_cell_length_b	15.021413
_cell_length_c	16.992695
_cell_angle_alpha	89.995082
_cell_angle_beta	89.331777
_cell_angle_gamma	89.996978
loop_
_atom_site_label
_atom_site_type_symbol
_atom_site_fract_x
_atom_site_fract_y
_atom_site_fract_z
O1	O	1.050855	-0.073921	-0.166905
O2	O	0.822455	-0.073948	-0.165074
O3	O	0.935740	-0.073927	-0.051790
O4	O	0.937571	-0.073941	-0.280190
O5	O	0.935720	0.074137	-0.051808
O6	O	0.822435	0.074117	-0.165092
O7	O	1.050835	0.074143	-0.166924
Zn8	Zn	0.936632	0.097638	-0.166011
Zn9	Zn	0.936658	-0.097443	-0.165987
O10	O	0.937551	0.074123	-0.280208
C11	C	0.793085	0.000081	-0.162727
C12	C	0.705600	0.000071	-0.155699
N13	N	0.936620	0.230776	-0.166027
C14	C	0.659610	0.000068	-0.223517
C15	C	0.577409	0.000081	-0.216908
C16	C	0.541201	0.000090	-0.142480
C17	C	0.587198	0.000097	-0.074657
C18	C	0.669397	0.000090	-0.081267
C19	C	0.295886	0.000116	-0.115086
C20	C	0.213681	0.000120	-0.108481
C21	C	0.203898	0.000105	-0.250732
C22	C	0.286099	0.000094	-0.257336
C23	C	0.332089	0.000104	-0.189512
N24	N	0.457178	0.000101	-0.135723
N25	N	0.416110	0.000101	-0.196270
C26	C	0.884224	0.470450	-0.218386
C27	C	0.956311	0.529791	-0.238123
C28	C	0.936636	0.412383	-0.166011
C29	C	0.864567	0.529783	-0.146296
C30	C	0.936646	0.587807	-0.165997
C31	C	1.008762	0.470418	-0.185785
C32	C	0.916969	0.470404	-0.093925
C33	C	0.989106	0.529719	-0.113634
C34	C	0.936630	0.311325	-0.166021
C35	C	0.936661	0.688862	-0.165987
C36	C	1.080205	0.000112	-0.169270
C37	C	1.167690	0.000116	-0.176299
C38	C	0.933374	0.000104	-0.022439
C39	C	0.926345	0.000103	0.065046
N40	N	0.936664	0.769420	-0.165979
C41	C	0.939917	0.000089	-0.309559
C42	C	0.946945	0.000084	-0.397044
C43	C	0.994163	0.000112	0.111037
C44	C	0.987554	0.000103	0.193238
C45	C	0.913127	0.000091	0.229446
C46	C	0.845303	0.000080	0.183449
C47	C	0.851913	0.000083	0.101250
C48	C	0.885732	0.000076	0.474760
C49	C	0.879127	0.000076	0.556966
C50	C	1.021379	0.000097	0.566749
C51	C	1.027982	0.000105	0.484547
C52	C	0.960159	0.000089	0.438558
N53	N	0.906369	0.000085	0.313468
N54	N	0.966917	0.000089	0.354537
H55	H	0.689084	0.000059	-0.284124
H56	H	1.054770	0.000127	0.081563
H57	H	1.042779	0.000112	0.230680
H58	H	0.784703	0.000065	0.212936
H59	H	0.803616	0.555862	-0.129628
C60	C	0.826704	0.382546	-0.016817
C61	C	0.894473	0.435149	-0.011662
H62	H	0.812813	0.360776	0.033968
H63	H	0.784731	0.417349	-0.036738
H64	H	0.836613	0.333829	-0.051169
H65	H	0.884562	0.483871	0.022685
H66	H	0.936456	0.400345	0.008270
C67	C	0.575995	0.000054	-0.358178
C68	C	0.526856	0.000073	-0.291456
H69	H	0.544784	0.000045	-0.404202
H70	H	0.608260	0.051680	-0.357807
H71	H	0.608259	-0.051587	-0.357781
H72	H	0.494596	0.051717	-0.291850
H73	H	0.494577	-0.051559	-0.291827
C74	C	0.805836	0.000074	0.678629
C75	C	0.797311	0.000064	0.596768
H76	H	0.755329	0.000075	0.703200
H77	H	0.833981	-0.051551	0.694111
H78	H	0.833972	0.051716	0.694093
H79	H	0.769180	-0.051582	0.581303
H80	H	0.769155	0.051694	0.581281
H81	H	1.088589	0.000115	0.455073
H82	H	0.830505	0.000063	0.437325
H83	H	0.315574	0.000075	-0.317942
H84	H	1.076596	0.000108	0.604202
C85	C	0.710641	0.000068	0.099831
C86	C	0.777366	0.000075	0.050693
H87	H	0.664619	0.000066	0.068618
H88	H	0.711031	-0.051561	0.132097
H89	H	0.711018	0.051706	0.132093
H90	H	0.776992	-0.051566	0.018435
H91	H	0.776976	0.051710	0.018413
H92	H	0.166444	0.000098	-0.305950
H93	H	1.069731	0.444451	-0.202527
C94	C	0.824574	0.342097	-0.277120
C95	C	0.824458	0.435305	-0.278226
H96	H	0.787676	0.320401	-0.314060
H97	H	0.875636	0.320907	-0.290621
H98	H	0.810474	0.321773	-0.225929
H99	H	0.838564	0.455630	-0.329416
H100	H	0.773385	0.456504	-0.264730
H101	H	0.972956	0.555877	-0.299079
C102	C	1.124402	0.534510	-0.074661
C103	C	1.049012	0.564642	-0.053836
H104	H	1.161386	0.556078	-0.037749
H105	H	1.125022	0.471283	-0.074647
H106	H	1.137932	0.555750	-0.125709
H107	H	1.035480	0.543397	-0.002790
H108	H	1.048390	0.627882	-0.053842
C109	C	0.799749	0.000092	-0.028237
C110	C	0.719954	0.000094	-0.006720
H111	H	0.830959	0.000103	0.017787
H112	H	0.811206	-0.051542	-0.058529
H113	H	0.811199	0.051725	-0.058553
H114	H	0.708503	-0.051543	0.023591
H115	H	0.708493	0.051733	0.023585
H116	H	0.184203	0.000127	-0.047870
H117	H	0.557710	0.000117	-0.014056
C118	C	0.297288	0.000124	0.026185
C119	C	0.346431	0.000121	-0.040535
H120	H	0.328496	0.000122	0.072211
H121	H	0.265024	0.051755	0.025795
H122	H	0.265023	-0.051512	0.025803
H123	H	0.378692	0.051761	-0.040156
H124	H	0.378708	-0.051515	-0.040144
