data_functionalizedCrystal
_audit_creation_method	'MofGen! by Chris Wilmer'
_symmetry_space_group_name_H-M	'P1'
_symmetry_Int_Tables_number	1
_symmetry_cell_setting	triclinic
loop_
_symmetry_equiv_pos_as_xyz
  x,y,z
_cell_length_a	12.594517
_cell_length_b	12.827892
_cell_length_c	12.594509
_cell_angle_alpha	90.027931
_cell_angle_beta	89.978673
_cell_angle_gamma	89.984808
loop_
_atom_site_label
_atom_site_type_symbol
_atom_site_fract_x
_atom_site_fract_y
_atom_site_fract_z
Zn1	Zn	1.627272	0.416007	-0.601862
Zn2	Zn	1.627165	0.590779	-0.423885
Zn3	Zn	1.449276	0.416052	-0.423891
Zn4	Zn	1.449260	0.590706	-0.601815
O5	O	1.538243	0.503386	-0.512863
O6	O	1.776203	0.439203	-0.578270
O7	O	1.603529	0.567650	-0.274940
O8	O	1.472939	0.269810	-0.447522
O9	O	1.776125	0.567607	-0.447511
O10	O	1.603712	0.269777	-0.578277
O11	O	1.472835	0.439279	-0.274944
O12	O	1.300328	0.439208	-0.447476
O13	O	1.472912	0.567483	-0.750767
O14	O	1.300316	0.567526	-0.578196
O15	O	1.603696	0.439132	-0.750802
O16	O	1.603514	0.737005	-0.447465
O17	O	1.472808	0.736952	-0.578189
C18	C	1.538177	0.774896	-0.512844
C19	C	1.538245	0.891049	-0.512872
C20	C	1.261702	0.503365	-0.512832
C21	C	1.143397	0.503381	-0.512844
C22	C	1.538314	0.503294	-0.790484
C23	C	1.538345	0.503255	-0.908790
C24	C	1.074119	0.433494	-0.441881
C25	C	1.003309	0.528816	-0.415701
C26	C	1.003408	0.408106	-0.539041
C27	C	1.074145	0.598754	-0.486613
C28	C	1.074250	0.477979	-0.609999
C29	C	1.003472	0.573367	-0.583856
C30	C	1.815864	0.503408	-0.512895
C31	C	1.934169	0.503417	-0.512909
C32	C	1.538339	0.230816	-0.512905
C33	C	1.538380	0.114663	-0.512923
C34	C	1.603000	0.942826	-0.448257
C35	C	1.603072	1.062876	-0.448284
C36	C	1.467233	0.573026	-0.978024
C37	C	1.564354	0.598559	-1.048815
C38	C	1.441300	0.477659	-1.048798
C39	C	1.635516	0.528839	-0.978022
C40	C	1.512396	0.407895	-0.978000
C41	C	1.609584	0.433392	-1.048758
C42	C	1.538233	0.503402	-0.236322
C43	C	1.538409	0.503146	-0.118017
H44	H	1.105139	0.374450	-0.381796
Cl45	Cl	1.452773	1.045930	-0.598333
H46	H	1.658389	0.898279	-0.392921
H47	H	1.105434	0.456441	-0.692108
Cl48	Cl	0.955199	0.562024	-0.288895
Cl49	Cl	0.955426	0.283686	-0.573208
Cl50	Cl	1.478413	0.283492	-0.929934
H51	H	1.658508	1.107402	-0.392962
Cl52	Cl	1.452737	0.959820	-0.598322
H53	H	1.407144	0.632120	-0.946967
Cl54	Cl	1.121911	0.723213	-0.452297
Cl55	Cl	1.598295	0.722994	-1.096842
Cl56	Cl	1.762303	0.562348	-0.930231
H57	H	0.972647	0.632552	-0.643895
H58	H	1.669818	0.374343	-1.079620
H59	H	1.359203	0.456055	-1.079888
