data_functionalizedCrystal
_audit_creation_method	'MofGen! by Chris Wilmer'
_symmetry_space_group_name_H-M	'P1'
_symmetry_Int_Tables_number	1
_symmetry_cell_setting	triclinic
loop_
_symmetry_equiv_pos_as_xyz
  x,y,z
_cell_length_a	9.730223
_cell_length_b	14.971486
_cell_length_c	14.971486
_cell_angle_alpha	96.385871
_cell_angle_beta	90.001545
_cell_angle_gamma	90.004750
loop_
_atom_site_label
_atom_site_type_symbol
_atom_site_fract_x
_atom_site_fract_y
_atom_site_fract_z
O1	O	0.114132	-1.186940	0.116559
O2	O	0.114170	-0.926539	0.130518
O3	O	0.114140	-1.063719	-0.006662
O4	O	0.114162	-1.049760	0.253738
O5	O	-0.114439	-1.063717	-0.006658
O6	O	-0.114410	-0.926538	0.130521
O7	O	-0.114447	-1.186938	0.116562
Zn8	Zn	-0.150721	-1.056738	0.123542
Zn9	Zn	0.150443	-1.056740	0.123538
O10	O	-0.114418	-1.049758	0.253742
C11	C	-0.000115	-0.893214	0.129895
C12	C	-0.000101	-0.793917	0.128024
N13	N	-0.356257	-1.056743	0.123545
C14	C	-0.000149	-1.063094	-0.039985
C15	C	-0.000148	-1.061223	-0.139282
C16	C	-0.428196	-1.117501	0.062822
C17	C	-0.572079	-1.117499	0.062811
C18	C	-0.572071	-0.995977	0.184254
C19	C	-0.428191	-0.995975	0.184259
C20	C	-0.428202	-1.187664	-0.007289
C21	C	-0.572085	-1.187662	-0.007300
N22	N	0.355980	-1.056742	0.123528
C23	C	-0.000159	-1.220263	0.117185
C24	C	-0.000164	-1.319561	0.119056
C25	C	-0.000096	-0.736692	0.208614
C26	C	-0.000117	-0.643392	0.206850
C27	C	-0.000133	-0.607320	0.124497
C28	C	-0.000141	-0.664552	0.043902
C29	C	-0.000131	-0.757850	0.045666
C30	C	-0.000161	-0.470090	0.040231
C31	C	-0.000169	-0.376786	0.038466
C32	C	-0.000147	-0.355632	0.201415
C33	C	-0.000136	-0.448930	0.203179
C34	C	-0.000143	-0.506156	0.122584
C35	C	-0.000160	-1.141812	-0.196507
C36	C	-0.000146	-1.140049	-0.289807
C37	C	-0.000129	-1.057696	-0.325879
C38	C	-0.000112	-0.977101	-0.268646
C39	C	-0.000117	-0.978865	-0.175349
C40	C	-0.000107	-0.973430	-0.463109
C41	C	-0.000105	-0.971665	-0.556413
C42	C	-0.000136	-1.134614	-0.577567
C43	C	-0.000141	-1.136378	-0.484269
C44	C	-0.000126	-1.055782	-0.427043
C45	C	-0.000125	-1.050384	0.287065
C46	C	-0.000118	-1.052254	0.386362
H47	H	-0.369619	-0.946493	0.233697
H48	H	-0.630655	-0.946501	0.233685
F49	F	-0.000089	-0.884016	-0.594802
H50	H	-0.000092	-0.907800	-0.416517
H51	H	-0.000106	-0.913240	-0.128756
F52	F	-0.000143	-0.294727	0.287192
F53	F	-0.369875	-1.272328	0.020548
H54	H	-0.616702	-1.166425	-0.072106
F55	F	-0.377153	-1.168388	-0.097001
H56	H	-0.611144	-1.256284	0.007501
H57	H	-0.000134	-0.804443	-0.019958
H58	H	-0.000083	-0.766054	0.275675
F59	F	-0.000145	-1.220391	-0.638472
F60	F	-0.000106	-0.582492	0.292625
H61	H	-0.000111	-0.478296	0.270239
H62	H	-0.000183	-0.347419	-0.028593
H63	H	-0.000168	-0.516682	-0.025399
F64	F	-0.000167	-0.626159	-0.043745
H65	H	-0.000159	-1.205673	-0.336396
F66	F	-0.000079	-0.889454	-0.307040
F67	F	-0.000191	-1.229465	-0.158125
F68	F	-0.000155	-1.224028	-0.445880
