data_functionalizedCrystal
_audit_creation_method	'MofGen! by Chris Wilmer'
_symmetry_space_group_name_H-M	'P1'
_symmetry_Int_Tables_number	1
_symmetry_cell_setting	triclinic
loop_
_symmetry_equiv_pos_as_xyz
  x,y,z
_cell_length_a	11.792254
_cell_length_b	11.792241
_cell_length_c	16.176319
_cell_angle_alpha	89.993071
_cell_angle_beta	89.992652
_cell_angle_gamma	84.196007
loop_
_atom_site_label
_atom_site_type_symbol
_atom_site_fract_x
_atom_site_fract_y
_atom_site_fract_z
O1	O	1.506905	0.155639	-0.068746
O2	O	1.176565	0.171657	-0.068748
O3	O	1.349751	-0.001522	-0.068741
O4	O	1.333719	0.328818	-0.068753
O5	O	1.349727	-0.001533	0.068752
O6	O	1.176541	0.171646	0.068745
O7	O	1.506881	0.155628	0.068747
Cu8	Cu	1.341709	0.163636	0.081300
Cu9	Cu	1.341737	0.163649	-0.081301
O10	O	1.333695	0.328807	0.068740
C11	C	1.134263	0.170642	-0.000002
C12	C	1.008250	0.167622	-0.000002
C13	C	0.905913	0.165168	-0.000006
C14	C	0.777527	0.162100	-0.000006
C15	C	1.348732	-0.043819	0.000005
C16	C	1.345718	-0.169832	0.000004
C17	C	1.340175	-0.400545	-0.000010
C18	C	1.343255	-0.272160	-0.000002
C19	C	1.549183	0.156643	-0.000001
C20	C	1.675196	0.159663	-0.000006
C21	C	1.334714	0.371104	-0.000008
C22	C	1.337728	0.497118	-0.000013
N23	N	1.341697	0.163626	0.195666
N24	N	1.341758	0.163650	-0.195667
C25	C	1.418407	0.086974	0.238933
C26	C	1.418413	0.086973	0.325480
C27	C	1.341713	0.163630	0.368758
C28	C	1.264995	0.240285	0.325485
C29	C	1.264984	0.240280	0.238939
C30	C	1.265034	0.240307	0.674513
C31	C	1.265052	0.240309	0.761065
C32	C	1.418462	0.086999	0.761054
C33	C	1.418452	0.086994	0.674508
C34	C	1.341730	0.163645	0.631242
C35	C	1.341723	0.163644	0.537398
C36	C	1.341725	0.163637	0.462601
H37	H	1.480870	0.024556	0.203701
C38	C	1.502821	0.002669	0.626901
C39	C	1.587199	-0.081656	0.674492
C40	C	1.671565	-0.165986	0.626886
C41	C	1.671553	-0.165991	0.531690
C42	C	1.587172	-0.081663	0.484094
C43	C	1.502805	0.002667	0.531699
H44	H	1.587210	-0.081655	0.744967
H45	H	1.734029	-0.228411	0.662121
H46	H	1.734006	-0.228417	0.496449
H47	H	1.587160	-0.081664	0.413619
H48	H	1.440341	0.065092	0.496465
C49	C	1.502851	0.002670	0.808647
C50	C	1.457990	-0.084443	0.868158
C51	C	1.542379	-0.168767	0.915748
C52	C	1.671630	-0.165978	0.903828
C53	C	1.716498	-0.078862	0.844314
C54	C	1.632109	0.005462	0.796724
H55	H	1.362305	-0.086511	0.876984
H56	H	1.509164	-0.233257	0.959804
H57	H	1.734100	-0.228400	0.939057
H58	H	1.812183	-0.076794	0.835488
H59	H	1.665324	0.069952	0.752668
C60	C	1.180603	0.324602	0.191343
C61	C	1.096274	0.408964	0.238944
C62	C	1.011886	0.493283	0.191349
C63	C	1.011828	0.493241	0.096153
C64	C	1.096160	0.408876	0.048546
C65	C	1.180548	0.324556	0.096141
H66	H	1.096315	0.408998	0.309419
H67	H	0.949458	0.555736	0.226591
H68	H	0.949359	0.555660	0.060920
H69	H	1.096119	0.408842	-0.021929
H70	H	1.242976	0.262104	0.060899
H71	H	1.202566	0.302721	0.639293
H72	H	1.202590	0.302734	0.796300
H73	H	1.480875	0.024556	0.360708
H74	H	1.202539	0.302697	0.360727
