data_functionalizedCrystal
_audit_creation_method	'MofGen! by Chris Wilmer'
_symmetry_space_group_name_H-M	'P1'
_symmetry_Int_Tables_number	1
_symmetry_cell_setting	triclinic
loop_
_symmetry_equiv_pos_as_xyz
  x,y,z
_cell_length_a	10.654549
_cell_length_b	15.944545
_cell_length_c	9.730223
_cell_angle_alpha	89.993498
_cell_angle_beta	89.997731
_cell_angle_gamma	83.990475
loop_
_atom_site_label
_atom_site_type_symbol
_atom_site_fract_x
_atom_site_fract_y
_atom_site_fract_z
O1	O	1.666309	0.117975	-0.114265
O2	O	2.166309	0.617975	0.385735
O3	O	1.300685	0.129216	-0.114276
O4	O	1.800685	0.629216	0.385724
O5	O	1.493485	0.001378	-0.114254
O6	O	1.993485	0.501378	0.385746
O7	O	1.473508	0.245813	-0.114287
O8	O	1.973508	0.745813	0.385713
O9	O	1.493473	0.001374	0.114326
O10	O	1.993473	0.501374	0.614326
O11	O	1.300672	0.129212	0.114304
O12	O	1.800672	0.629212	0.614304
O13	O	1.666297	0.117972	0.114315
O14	O	2.166297	0.617972	0.614315
Zn15	Zn	1.483482	0.123591	0.150601
Zn16	Zn	1.983482	0.623591	0.650601
Zn17	Zn	1.483499	0.123596	-0.150563
Zn18	Zn	1.983499	0.623596	0.349437
O19	O	1.473496	0.245809	0.114293
O20	O	1.973496	0.745809	0.614293
C21	C	1.253891	0.128389	0.000013
C22	C	1.753891	0.628389	0.500013
C23	C	1.114480	0.125919	0.000010
C24	C	1.614480	0.625919	0.500010
C25	C	0.903019	0.198862	0.000005
C26	C	1.403019	0.698862	0.500005
C27	C	1.034009	0.201188	-0.000003
C28	C	1.534009	0.701188	0.499997
C29	C	1.063954	0.048319	0.000017
C30	C	1.563954	0.548319	0.500017
C31	C	0.932966	0.045994	0.000016
C32	C	1.432966	0.545994	0.500016
C33	C	1.492651	-0.029923	0.000037
C34	C	1.992651	0.470077	0.500037
C35	C	1.490169	-0.123183	0.000041
C36	C	1.990169	0.376817	0.500041
C37	C	1.363245	-0.394551	0.000010
C38	C	1.863245	0.105449	0.500010
C39	C	1.424444	-0.343609	-0.112691
C40	C	1.924444	0.156391	0.387309
C41	C	1.481317	-0.458878	0.000002
C42	C	1.981317	0.041122	0.500002
C43	C	1.424463	-0.343640	0.112671
C44	C	1.924463	0.156360	0.612671
C45	C	1.485660	-0.293940	0.000023
C46	C	1.985660	0.206060	0.500023
C47	C	1.542484	-0.409165	-0.112792
C48	C	2.042484	0.090835	0.387208
C49	C	1.542486	-0.409199	0.112671
C50	C	2.042486	0.090801	0.612671
C51	C	1.603771	-0.358290	-0.000057
C52	C	2.103771	0.141710	0.499943
C53	C	1.478812	-0.553895	-0.000012
C54	C	1.978812	-0.053895	0.499988
C55	C	1.488174	-0.198926	0.000027
C56	C	1.988174	0.301074	0.500027
C57	C	1.713090	0.118799	0.000023
C58	C	2.213090	0.618799	0.500023
C59	C	1.852501	0.121268	0.000017
C60	C	2.352501	0.621268	0.500017
C61	C	1.474330	0.277110	-0.000002
C62	C	1.974330	0.777110	0.499998
C63	C	1.476812	0.370371	-0.000014
C64	C	1.976812	0.870371	0.499986
N65	N	1.483480	0.123588	0.356138
N66	N	1.983480	0.623588	0.856138
N67	N	1.483511	0.123593	-0.356099
N68	N	1.983511	0.623593	0.143901
C69	C	1.568881	0.067005	0.428073
C70	C	2.068881	0.567005	0.928073
C71	C	1.568894	0.067006	0.571956
C72	C	2.068894	0.567006	1.071956
C73	C	1.398100	0.180178	0.571955
C74	C	1.898100	0.680178	1.071955
C75	C	1.398083	0.180173	0.428075
C76	C	1.898083	0.680173	0.928075
H77	H	1.129484	-0.012966	0.000020
H78	H	1.629484	0.487034	0.500020
Cl79	Cl	1.676233	-0.004134	0.337644
Cl80	Cl	2.176233	0.495866	0.837644
Cl81	Cl	0.801868	0.293492	-0.000000
Cl82	Cl	1.301868	0.793492	0.500000
H83	H	1.328573	0.226250	0.630541
H84	H	1.828573	0.726250	1.130541
Cl85	Cl	0.869453	-0.051561	0.000012
Cl86	Cl	1.369453	0.448439	0.500012
H87	H	1.374584	-0.314962	-0.207974
H88	H	1.874584	0.185038	0.292026
Cl89	Cl	1.676257	-0.004131	0.662386
Cl90	Cl	2.176257	0.495869	1.162386
H91	H	1.261560	-0.410791	-0.000103
H92	H	1.761560	0.089209	0.499897
Cl93	Cl	1.619422	-0.453187	-0.260062
Cl94	Cl	2.119422	0.046813	0.239938
H95	H	1.075133	0.264373	-0.000014
H96	H	1.575133	0.764373	0.499986
Cl97	Cl	1.760882	-0.333457	-0.000148
Cl98	Cl	2.260882	0.166543	0.499852
Cl99	Cl	1.619398	-0.453457	0.259788
Cl100	Cl	2.119398	0.046543	0.759788
H101	H	1.328533	0.226250	0.369501
H102	H	1.828533	0.726250	0.869501
Cl103	Cl	1.347440	-0.299445	0.259770
Cl104	Cl	1.847440	0.200555	0.759770
