data_functionalizedCrystal
_audit_creation_method	'MofGen! by Chris Wilmer'
_symmetry_space_group_name_H-M	'P1'
_symmetry_Int_Tables_number	1
_symmetry_cell_setting	triclinic
loop_
_symmetry_equiv_pos_as_xyz
  x,y,z
_cell_length_a	21.395364
_cell_length_b	21.395361
_cell_length_c	21.395355
_cell_angle_alpha	89.978489
_cell_angle_beta	89.975448
_cell_angle_gamma	90.045659
loop_
_atom_site_label
_atom_site_type_symbol
_atom_site_fract_x
_atom_site_fract_y
_atom_site_fract_z
Zn1	Zn	0.957859	-0.249261	-0.354248
Zn2	Zn	1.291193	0.084072	-0.020915
Zn3	Zn	1.624526	0.417406	0.312418
Zn4	Zn	0.957762	-0.354021	-0.249466
Zn5	Zn	1.291095	-0.020688	0.083868
Zn6	Zn	1.624428	0.312646	0.417201
Zn7	Zn	0.853074	-0.249289	-0.249485
Zn8	Zn	1.186408	0.084045	0.083848
Zn9	Zn	1.519741	0.417378	0.417181
Zn10	Zn	0.853043	-0.354032	-0.354206
Zn11	Zn	1.186377	-0.020699	-0.020872
Zn12	Zn	1.519710	0.312634	0.312461
O13	O	0.905435	-0.301651	-0.301851
O14	O	1.238768	0.031683	0.031482
O15	O	1.572101	0.365016	0.364815
O16	O	1.045524	-0.263142	-0.340358
O17	O	1.378857	0.070192	-0.007025
O18	O	1.712191	0.403525	0.326308
O19	O	0.943847	-0.340135	-0.161790
O20	O	1.277180	-0.006802	0.171543
O21	O	1.610513	0.326532	0.504876
O22	O	0.867028	-0.161607	-0.263408
O23	O	1.200361	0.171726	0.069925
O24	O	1.533695	0.505060	0.403258
O25	O	1.045453	-0.340108	-0.263375
O26	O	1.378786	-0.006775	0.069958
O27	O	1.712119	0.326558	0.403292
O28	O	0.944013	-0.161587	-0.340378
O29	O	1.277346	0.171746	-0.007044
O30	O	1.610680	0.505080	0.326289
O31	O	0.866933	-0.263188	-0.161805
O32	O	1.200267	0.070145	0.171529
O33	O	1.533600	0.403478	0.504862
O34	O	0.765392	-0.263199	-0.263367
O35	O	1.098726	0.070134	0.069966
O36	O	1.432059	0.403467	0.403300
O37	O	0.866975	-0.340127	-0.441889
O38	O	1.200309	-0.006794	-0.108556
O39	O	1.533642	0.326539	0.224777
O40	O	0.765370	-0.340154	-0.340305
O41	O	1.098703	-0.006821	-0.006971
O42	O	1.432036	0.326513	0.326362
O43	O	0.943983	-0.263152	-0.441921
O44	O	1.277316	0.070181	-0.108587
O45	O	1.610650	0.403514	0.224746
O46	O	0.943817	-0.441700	-0.263333
O47	O	1.277150	-0.108367	0.070000
O48	O	1.610484	0.224966	0.403333
O49	O	0.866881	-0.441709	-0.340286
O50	O	1.200214	-0.108375	-0.006952
O51	O	1.533547	0.224958	0.326381
C52	C	0.742647	-0.301681	-0.301834
C53	C	1.075980	0.031652	0.031500
C54	C	1.409314	0.364985	0.364833
C55	C	0.673006	-0.301709	-0.301841
C56	C	1.006339	0.031624	0.031492
C57	C	1.339672	0.364957	0.364826
C58	C	0.640352	-0.261698	-0.341988
C59	C	0.973686	0.071635	-0.008655
C60	C	1.307019	0.404968	0.324678
C61	C	0.574917	-0.261682	-0.341991
C62	C	0.908250	0.071652	-0.008657
C63	C	1.241584	0.404985	0.324676
C64	C	0.542137	-0.301687	-0.301852
C65	C	0.875471	0.031646	0.031481
C66	C	1.208804	0.364979	0.364814
C67	C	0.574799	-0.341701	-0.261697
C68	C	0.908132	-0.008368	0.071636
C69	C	1.241465	0.324966	0.404969
C70	C	0.640233	-0.341712	-0.261692
C71	C	0.973566	-0.008379	0.071642
C72	C	1.306900	0.324955	0.404975
C73	C	0.438413	-0.358112	-0.296812
C74	C	0.771746	-0.024779	0.036522
C75	C	1.105080	0.308555	0.369855
C76	C	0.372980	-0.358102	-0.296822
C77	C	0.706313	-0.024769	0.036511
C78	C	1.039647	0.308565	0.369845
C79	C	0.340317	-0.301653	-0.301866
C80	C	0.673650	0.031681	0.031467
C81	C	1.006983	0.365014	0.364800
C82	C	0.373094	-0.245212	-0.306914
C83	C	0.706428	0.088121	0.026420
C84	C	1.039761	0.421455	0.359753
C85	C	0.438528	-0.245223	-0.306908
C86	C	0.771862	0.088110	0.026425
C87	C	1.105195	0.421444	0.359759
C88	C	0.471185	-0.301679	-0.301854
C89	C	0.804518	0.031654	0.031480
C90	C	1.137852	0.364987	0.364813
C91	C	0.236711	-0.261620	-0.342018
C92	C	0.570044	0.071713	-0.008685
C93	C	0.903377	0.405046	0.324648
C94	C	0.171274	-0.261603	-0.342016
C95	C	0.504607	0.071731	-0.008683
C96	C	0.837941	0.405064	0.324650
C97	C	0.171157	-0.341627	-0.261726
C98	C	0.504491	-0.008294	0.071607
C99	C	0.837824	0.325039	0.404940
C100	C	0.236593	-0.341640	-0.261725
C101	C	0.569926	-0.008306	0.071608
C102	C	0.903259	0.325027	0.404942
C103	C	0.269365	-0.301637	-0.301874
C104	C	0.602699	0.031696	0.031459
C105	C	0.936032	0.365030	0.364792
C106	C	0.905352	-0.464438	-0.301816
C107	C	1.238685	-0.131105	0.031517
C108	C	1.572019	0.202228	0.364850
C109	C	0.905374	-0.534080	-0.301822
C110	C	1.238707	-0.200746	0.031511
C111	C	1.572041	0.132587	0.364844
C112	C	0.945470	-0.566768	-0.261794
C113	C	1.278803	-0.233434	0.071539
C114	C	1.612137	0.099899	0.404872
C115	C	0.945499	-0.632203	-0.261808
C116	C	1.278832	-0.298870	0.071525
C117	C	1.612166	0.034464	0.404858
C118	C	0.905421	-0.664948	-0.301844
C119	C	1.238754	-0.331615	0.031489
C120	C	1.572088	0.001719	0.364823
C121	C	0.865322	-0.632252	-0.341880
C122	C	1.198655	-0.298919	-0.008546
C123	C	1.531989	0.034415	0.324787
C124	C	0.865298	-0.566818	-0.341869
C125	C	1.198632	-0.233485	-0.008536
C126	C	1.531965	0.099849	0.324798
C127	C	0.849006	-0.768678	-0.306754
C128	C	1.182340	-0.435344	0.026580
C129	C	1.515673	-0.102011	0.359913
C130	C	0.849029	-0.834111	-0.306760
C131	C	1.182362	-0.500777	0.026573
C132	C	1.515695	-0.167444	0.359907
C133	C	0.905494	-0.866769	-0.301881
C134	C	1.238827	-0.533435	0.031453
C135	C	1.572161	-0.200102	0.364786
C136	C	0.961938	-0.833986	-0.296982
C137	C	1.295272	-0.500652	0.036352
C138	C	1.628605	-0.167319	0.369685
C139	C	0.961915	-0.768551	-0.296971
C140	C	1.295248	-0.435218	0.036362
C141	C	1.628581	-0.101885	0.369696
C142	C	0.905442	-0.735900	-0.301860
C143	C	1.238776	-0.402567	0.031473
C144	C	1.572109	-0.069234	0.364806
C145	C	0.945625	-0.970409	-0.261866
C146	C	1.278958	-0.637076	0.071468
C147	C	1.612292	-0.303743	0.404801
C148	C	0.945655	-1.035846	-0.261884
C149	C	1.278989	-0.702512	0.071449
C150	C	1.612322	-0.369179	0.404783
C151	C	0.865473	-1.035893	-0.341952
C152	C	1.198806	-0.702560	-0.008619
C153	C	1.532139	-0.369227	0.324715
C154	C	0.865448	-0.970458	-0.341937
C155	C	1.198781	-0.637125	-0.008604
C156	C	1.532115	-0.303791	0.324730
C157	C	0.905523	-0.937720	-0.301890
C158	C	1.238857	-0.604387	0.031443
C159	C	1.572190	-0.271053	0.364776
C160	C	1.068858	-0.301621	-0.301869
C161	C	1.402191	0.031713	0.031464
C162	C	1.735525	0.365046	0.364797
C163	C	1.138499	-0.301608	-0.301877
C164	C	1.471832	0.031726	0.031456
C165	C	1.805166	0.365059	0.364790
C166	C	0.905487	-0.301638	-0.465275
C167	C	1.238820	0.031695	-0.131941
C168	C	1.572153	0.365029	0.201392
C169	C	0.905509	-0.301633	-0.534916
C170	C	1.238842	0.031701	-0.201582
C171	C	1.572175	0.365034	0.131751
C172	C	0.905535	-0.138227	-0.301900
C173	C	1.238868	0.195106	0.031433
C174	C	1.572201	0.528439	0.364767
C175	C	0.905577	-0.068586	-0.301921
C176	C	1.238911	0.264747	0.031413
C177	C	1.572244	0.598081	0.364746
C178	C	0.945605	-0.261550	-0.567646
C179	C	1.278938	0.071783	-0.234313
C180	C	1.612272	0.405117	0.099020
C181	C	0.945604	-0.261523	-0.633082
C182	C	1.278937	0.071810	-0.299748
C183	C	1.612271	0.405143	0.033585
C184	C	0.905514	-0.301590	-0.665784
C185	C	1.238847	0.031743	-0.332451
C186	C	1.572180	0.365077	0.000882
C187	C	0.865410	-0.341675	-0.633046
C188	C	1.198743	-0.008342	-0.299712
C189	C	1.532076	0.324991	0.033621
C190	C	0.865407	-0.341697	-0.567612
C191	C	1.198741	-0.008363	-0.234278
C192	C	1.532074	0.324970	0.099055
C193	C	0.900538	-0.358007	-0.769447
C194	C	1.233871	-0.024673	-0.436113
C195	C	1.567204	0.308660	-0.102780
C196	C	0.900545	-0.357986	-0.834880
C197	C	1.233878	-0.024653	-0.501546
C198	C	1.567211	0.308680	-0.168213
C199	C	0.905518	-0.301524	-0.867605
C200	C	1.238851	0.031810	-0.534272
C201	C	1.572184	0.365143	-0.200938
C202	C	0.910497	-0.245080	-0.834889
C203	C	1.243830	0.088254	-0.501556
C204	C	1.577164	0.421587	-0.168223
C205	C	0.910494	-0.245101	-0.769455
C206	C	1.243828	0.088232	-0.436122
C207	C	1.577161	0.421566	-0.102788
C208	C	0.905512	-0.301571	-0.736737
C209	C	1.238845	0.031762	-0.403403
C210	C	1.572178	0.365096	-0.070070
C211	C	0.945615	-0.261409	-0.971288
C212	C	1.278948	0.071925	-0.637955
C213	C	1.612282	0.405258	-0.304621
C214	C	0.945610	-0.261381	-1.036725
C215	C	1.278943	0.071953	-0.703391
C216	C	1.612276	0.405286	-0.370058
C217	C	0.865419	-0.341538	-1.036688
C218	C	1.198752	-0.008205	-0.703354
C219	C	1.532085	0.325128	-0.370021
C220	C	0.865421	-0.341561	-0.971252
C221	C	1.198754	-0.008227	-0.637919
C222	C	1.532087	0.325106	-0.304586
C223	C	0.905522	-0.301497	-0.938556
C224	C	1.238855	0.031837	-0.605223
C225	C	1.572189	0.365170	-0.271890
C226	C	0.905419	-0.301618	-0.139064
C227	C	1.238752	0.031715	0.194270
C228	C	1.572086	0.365048	0.527603
C229	C	0.905518	-0.301447	-0.069423
C230	C	1.238851	0.031886	0.263911
C231	C	1.572185	0.365220	0.597244
H232	H	0.548325	-0.229097	-0.374682
H233	H	0.881659	0.104236	-0.041349
H234	H	1.214992	0.437570	0.291984
Br235	Br	0.999919	-0.676575	-0.207481
Br236	Br	1.333253	-0.343242	0.125852
Br237	Br	1.666586	-0.009909	0.459186
H238	H	0.263396	-0.229044	-0.374706
H239	H	0.596729	0.104289	-0.041373
H240	H	0.930062	0.437623	0.291960
H241	H	0.832691	-0.658917	-0.374478
H242	H	1.166025	-0.325584	-0.041144
H243	H	1.499358	0.007750	0.292189
H244	H	0.896321	-0.403973	-0.742807
H245	H	1.229654	-0.070640	-0.409474
H246	H	1.562987	0.262693	-0.076141
Br247	Br	1.000041	-0.206987	-1.081146
Br248	Br	1.333374	0.126346	-0.747813
Br249	Br	1.666707	0.459679	-0.414480
H250	H	0.144689	-0.229017	-0.374708
H251	H	0.478022	0.104316	-0.041375
H252	H	0.811355	0.437649	0.291959
H253	H	0.803022	-0.742094	-0.310730
H254	H	1.136355	-0.408761	0.022604
H255	H	1.469688	-0.075428	0.355937
H256	H	0.346501	-0.199246	-0.311021
H257	H	0.679835	0.134088	0.022312
H258	H	1.013168	0.467421	0.355645
H259	H	0.832843	-1.062554	-0.374552
H260	H	1.166176	-0.729220	-0.041219
H261	H	1.499510	-0.395887	0.292114
H262	H	1.007873	-0.741861	-0.292984
H263	H	1.341206	-0.408528	0.040350
H264	H	1.674540	-0.075194	0.373683
Br265	Br	0.280911	-0.395938	-0.207231
Br266	Br	0.614245	-0.062605	0.126102
Br267	Br	0.947578	0.270728	0.459435
Br268	Br	0.917252	-0.168447	-0.879293
Br269	Br	1.250585	0.164887	-0.545960
Br270	Br	1.583918	0.498220	-0.212627
Br271	Br	1.038575	-0.878298	-0.290349
Br272	Br	1.371908	-0.544965	0.042984
Br273	Br	1.705241	-0.211631	0.376317
Br274	Br	1.000026	-0.207176	-0.523276
Br275	Br	1.333359	0.126158	-0.189943
Br276	Br	1.666692	0.459491	0.143391
H277	H	0.978103	-0.540114	-0.229188
H278	H	1.311437	-0.206781	0.104146
H279	H	1.644770	0.126553	0.437479
Br280	Br	1.000009	-0.925975	-0.207517
Br281	Br	1.333343	-0.592642	0.125817
Br282	Br	1.666676	-0.259308	0.459150
Br283	Br	1.000083	-1.080210	-0.207562
Br284	Br	1.333416	-0.746876	0.125771
Br285	Br	1.666750	-0.413543	0.459105
Br286	Br	0.684827	-0.207409	-0.396476
Br287	Br	1.018160	0.125924	-0.063143
Br288	Br	1.351494	0.459257	0.270190
H289	H	0.465213	-0.199267	-0.311016
H290	H	0.798547	0.134066	0.022318
H291	H	1.131880	0.467400	0.355651
Br292	Br	0.126678	-0.395915	-0.207245
Br293	Br	0.460011	-0.062582	0.126088
Br294	Br	0.793345	0.270752	0.459422
H295	H	0.978254	-0.228880	-0.659736
H296	H	1.311587	0.104453	-0.326403
H297	H	1.644921	0.437787	0.006931
H298	H	0.896494	-0.403946	-0.861512
H299	H	1.229827	-0.070613	-0.528179
H300	H	1.563161	0.262720	-0.194845
Br301	Br	0.917249	-0.168503	-0.725057
Br302	Br	1.250582	0.164830	-0.391723
Br303	Br	1.583915	0.498164	-0.058390
H304	H	0.978265	-0.228783	-0.944666
H305	H	1.311598	0.104551	-0.611332
H306	H	1.644931	0.437884	-0.277999
H307	H	0.832795	-0.943842	-0.374529
H308	H	1.166129	-0.610508	-0.041195
H309	H	1.499462	-0.277175	0.292138
Br310	Br	0.811001	-0.395908	-1.081062
Br311	Br	1.144334	-0.062574	-0.747729
Br312	Br	1.477668	0.270759	-0.414396
Br313	Br	0.811002	-0.395963	-0.926829
Br314	Br	1.144336	-0.062629	-0.593496
Br315	Br	1.477669	0.270704	-0.260162
H316	H	0.465002	-0.404083	-0.292703
H317	H	0.798336	-0.070750	0.040630
H318	H	1.131669	0.262584	0.373963
Br319	Br	0.328503	-0.434700	-0.289986
Br320	Br	0.661836	-0.101366	0.043348
Br321	Br	0.995169	0.231967	0.376681
H322	H	0.548106	-0.374273	-0.229016
H323	H	0.881439	-0.040940	0.104317
H324	H	1.214772	0.292394	0.437651
Br325	Br	0.772427	-0.878596	-0.313405
Br326	Br	1.105760	-0.545262	0.019928
Br327	Br	1.439094	-0.211929	0.353262
H328	H	0.832766	-0.374296	-0.659676
H329	H	1.166099	-0.040963	-0.326343
H330	H	1.499432	0.292371	0.006990
H331	H	0.832753	-0.374336	-0.540963
H332	H	1.166087	-0.041002	-0.207629
H333	H	1.499420	0.292331	0.125704
H334	H	0.666819	-0.374295	-0.228998
H335	H	1.000152	-0.040961	0.104336
H336	H	1.333486	0.292372	0.437669
H337	H	0.832647	-0.540203	-0.374465
H338	H	1.165980	-0.206869	-0.041132
H339	H	1.499313	0.126464	0.292202
