data_functionalizedCrystal
_audit_creation_method	'MofGen! by Chris Wilmer'
_symmetry_space_group_name_H-M	'P1'
_symmetry_Int_Tables_number	1
_symmetry_cell_setting	triclinic
loop_
_symmetry_equiv_pos_as_xyz
  x,y,z
_cell_length_a	10.723024
_cell_length_b	10.654550
_cell_length_c	9.798715
_cell_angle_alpha	89.994830
_cell_angle_beta	90.000203
_cell_angle_gamma	95.523614
loop_
_atom_site_label
_atom_site_type_symbol
_atom_site_fract_x
_atom_site_fract_y
_atom_site_fract_z
O1	O	1.657207	-0.176153	0.113478
O2	O	1.294057	-0.193014	0.113483
O3	O	1.483982	-0.001843	0.113475
O4	O	1.467283	-0.367324	0.113486
O5	O	1.483980	-0.001830	-0.113507
O6	O	1.294056	-0.193001	-0.113499
O7	O	1.657206	-0.176140	-0.113504
Zn8	Zn	1.475630	-0.184568	-0.149540
Zn9	Zn	1.475632	-0.184586	0.149519
O10	O	1.467281	-0.367311	-0.113496
C11	C	1.247557	-0.191780	-0.000008
C12	C	1.109002	-0.188109	-0.000006
N13	N	1.475638	-0.184555	-0.353640
C14	C	1.482755	0.044961	-0.000014
C15	C	1.479086	0.184404	-0.000009
C16	C	1.034035	-0.295078	-0.000002
C17	C	0.890831	-0.291287	-0.000001
C18	C	1.703706	-0.177373	-0.000010
C19	C	1.842261	-0.181045	-0.000003
C20	C	1.468508	-0.414115	-0.000004
C21	C	1.472176	-0.553558	0.000000
C22	C	1.590911	0.263907	-0.000015
C23	C	1.587456	0.394927	-0.000005
C24	C	1.360343	0.366929	0.000010
C25	C	1.363799	0.235912	0.000010
C26	C	1.722033	0.280072	-0.000029
C27	C	1.718579	0.411092	-0.000020
N28	N	1.475634	-0.184589	0.353619
C29	C	1.555712	-0.104284	0.578547
C30	C	1.555711	-0.104302	0.421385
H31	H	1.075871	-0.389466	-0.000007
F32	F	0.806635	-0.410985	0.000014
H33	H	1.272741	0.171184	0.000033
H34	H	0.906672	-0.089466	0.000002
H35	H	1.624270	-0.035583	0.363068
H36	H	1.067166	-0.093722	0.000026
H37	H	1.407078	-0.253287	0.588067
F38	F	1.237653	0.421759	0.000033
H39	H	1.763786	0.244457	-0.098036
H40	H	1.773320	0.250716	0.094955
F41	F	1.770373	0.470758	0.128075
F42	F	1.783149	0.465698	-0.124176
H43	H	1.407081	-0.253320	0.411926
F44	F	1.645718	-0.014842	0.654735
