data_functionalizedCrystal
_audit_creation_method	'MofGen! by Chris Wilmer'
_symmetry_space_group_name_H-M	'P1'
_symmetry_Int_Tables_number	1
_symmetry_cell_setting	triclinic
loop_
_symmetry_equiv_pos_as_xyz
  x,y,z
_cell_length_a	15.995350
_cell_length_b	15.021413
_cell_length_c	15.944551
_cell_angle_alpha	89.996935
_cell_angle_beta	83.495557
_cell_angle_gamma	90.003669
loop_
_atom_site_label
_atom_site_type_symbol
_atom_site_fract_x
_atom_site_fract_y
_atom_site_fract_z
O1	O	1.110996	0.073959	0.108259
O2	O	0.867222	0.073977	0.121628
O3	O	0.995766	0.073959	-0.007332
O4	O	0.982452	0.073976	0.237219
O5	O	0.995745	-0.074105	-0.007313
O6	O	0.867201	-0.074087	0.121647
O7	O	1.110976	-0.074106	0.108277
Zn8	Zn	0.989085	-0.097605	0.114965
Zn9	Zn	0.989112	0.097476	0.114941
O10	O	0.982432	-0.074088	0.237237
C11	C	0.836017	-0.000053	0.121085
C12	C	0.743066	-0.000046	0.119428
N13	N	0.989073	-0.230742	0.114981
C14	C	0.405318	-0.000065	0.113477
C15	C	0.452747	-0.000402	0.021634
C16	C	0.549438	-0.000061	0.023291
C17	C	0.572879	-0.000056	0.116429
C18	C	0.531806	0.084496	0.161718
C19	C	0.435170	0.084560	0.159411
C20	C	0.434808	-0.083817	0.161330
C21	C	0.531754	-0.084928	0.161308
C22	C	0.667577	-0.000048	0.118102
C23	C	0.310621	-0.000067	0.111806
C24	C	0.929625	-0.470417	0.174584
C25	C	1.005285	-0.529756	0.190887
C26	C	0.989094	-0.412349	0.114960
C27	C	0.913455	-0.529752	0.098676
C28	C	0.989108	-0.587773	0.114942
C29	C	1.064792	-0.470382	0.131300
C30	C	0.972913	-0.470372	0.039057
C31	C	1.048627	-0.529684	0.055327
C32	C	0.989085	-0.311292	0.114973
C33	C	0.989126	-0.688829	0.114928
C34	C	1.142181	-0.000074	0.108821
C35	C	1.235131	-0.000075	0.110478
C36	C	0.995203	-0.000073	-0.038616
C37	C	0.993546	-0.000073	-0.131862
N38	N	0.989131	0.230614	0.114918
C39	C	0.909908	-0.000055	-0.346714
C40	C	0.948736	-0.073062	-0.407725
C41	C	0.990548	-0.000066	-0.302588
C42	C	0.948776	0.072917	-0.407726
C43	C	0.987647	-0.000056	-0.467501
C44	C	1.029399	-0.073134	-0.362370
C45	C	1.029427	0.072911	-0.362365
C46	C	1.068315	-0.000114	-0.423358
C47	C	0.992217	-0.000073	-0.207586
C48	C	0.985984	-0.000055	-0.562502
C49	C	0.982995	-0.000054	0.268522
C50	C	0.984652	-0.000047	0.361768
H51	H	0.577856	-0.060672	-0.012310
H52	H	1.098980	-0.555544	0.004894
N53	N	0.394696	0.089386	0.243989
N54	N	0.346118	0.028579	0.272316
H55	H	0.317532	0.031994	0.332047
N56	N	0.955692	-0.437632	-0.041434
N57	N	0.887758	-0.456620	-0.068941
H58	H	0.875587	-0.433496	-0.125789
N59	N	1.022460	-0.562503	0.271396
N60	N	1.025825	-0.644478	0.284066
H61	H	1.037948	-0.667604	0.340928
H62	H	0.914620	-0.134779	-0.427823
H63	H	1.128779	-0.444412	0.145142
H64	H	0.545935	0.087644	0.230144
N65	N	0.833210	-0.562466	0.081381
N66	N	0.827659	-0.610043	0.017935
H67	H	0.770985	-0.633146	0.005724
H68	H	0.879385	-0.444395	0.225047
H69	H	0.842972	-0.000122	-0.313403
N70	N	1.072142	-0.150644	-0.337280
N71	N	1.080284	-0.163173	-0.261129
H72	H	1.110469	-0.217914	-0.243405
N73	N	1.152360	-0.000176	-0.464953
N74	N	1.201039	-0.062917	-0.453235
H75	H	1.260396	-0.062964	-0.482611
H76	H	1.063514	0.134631	-0.342245
N77	N	0.905972	0.150336	-0.432934
N78	N	0.830717	0.163328	-0.405158
H79	H	0.800480	0.218001	-0.422959
H80	H	0.434215	-0.061037	-0.015071
H81	H	0.577302	0.060649	-0.012565
N82	N	0.428161	0.075233	-0.024217
N83	N	0.375860	0.129384	0.010453
H84	H	0.358493	0.182803	-0.021926
H85	H	0.416869	0.147760	0.126368
H86	H	0.560187	0.147417	0.130247
H87	H	0.414262	-0.147904	0.131312
H88	H	0.559060	-0.147479	0.128247
H89	H	0.403050	-0.084384	0.229045
N90	N	0.551038	-0.091324	0.246511
N91	N	0.595601	-0.033171	0.275676
H92	H	0.609220	-0.037682	0.335855
