data_functionalizedCrystal
_audit_creation_method	'MofGen! by Chris Wilmer'
_symmetry_space_group_name_H-M	'P1'
_symmetry_Int_Tables_number	1
_symmetry_cell_setting	triclinic
loop_
_symmetry_equiv_pos_as_xyz
  x,y,z
_cell_length_a	12.827893
_cell_length_b	13.897447
_cell_length_c	13.897441
_cell_angle_alpha	89.970673
_cell_angle_beta	89.980094
_cell_angle_gamma	90.019501
loop_
_atom_site_label
_atom_site_type_symbol
_atom_site_fract_x
_atom_site_fract_y
_atom_site_fract_z
Zn1	Zn	1.597646	-0.383985	-0.545368
Zn2	Zn	2.097646	0.116015	-0.045368
Zn3	Zn	1.597526	-0.545307	-0.384073
Zn4	Zn	2.097526	-0.045307	0.115927
Zn5	Zn	1.422886	-0.384027	-0.384089
Zn6	Zn	1.922886	0.115973	0.115911
Zn7	Zn	1.422860	-0.545240	-0.545328
Zn8	Zn	1.922860	-0.045240	-0.045328
O9	O	1.510229	-0.464640	-0.464715
O10	O	2.010229	0.035360	0.035285
O11	O	1.743866	-0.405395	-0.523982
O12	O	2.243866	0.094605	-0.023982
O13	O	1.574319	-0.523958	-0.249094
O14	O	2.074319	-0.023958	0.250906
O15	O	1.446129	-0.249040	-0.405506
O16	O	1.946129	0.250960	0.094494
O17	O	1.743778	-0.523917	-0.405480
O18	O	2.243778	-0.023917	0.094520
O19	O	1.574525	-0.249009	-0.523998
O20	O	2.074525	0.250991	-0.023998
O21	O	1.446012	-0.405467	-0.249105
O22	O	1.946012	0.094533	0.250895
O23	O	1.276646	-0.405402	-0.405468
O24	O	1.776646	0.094598	0.094532
O25	O	1.446086	-0.523803	-0.680315
O26	O	1.946086	-0.023803	-0.180315
O27	O	1.276627	-0.523844	-0.523929
O28	O	1.776627	-0.023844	-0.023929
O29	O	1.574500	-0.405330	-0.680345
O30	O	2.074500	0.094670	-0.180345
O31	O	1.574295	-0.680279	-0.405441
O32	O	2.074295	-0.180279	0.094559
O33	O	1.445969	-0.680230	-0.523914
O34	O	1.945969	-0.180230	-0.023914
C35	C	1.238719	-0.464621	-0.464696
C36	C	1.738719	0.035379	0.035304
C37	C	1.122566	-0.464636	-0.464711
C38	C	1.622566	0.035364	0.035289
C39	C	1.070800	-0.523337	-0.523240
C40	C	1.570800	-0.023337	-0.023240
C41	C	0.950750	-0.523354	-0.523257
C42	C	1.450750	-0.023354	-0.023257
C43	C	1.510144	-0.715254	-0.464692
C44	C	2.010144	-0.215254	0.035308
C45	C	1.510204	-0.822468	-0.464715
C46	C	2.010204	-0.322468	0.035285
C47	C	1.510254	-0.909538	-0.464737
C48	C	2.010254	-0.409538	0.035263
C49	C	1.510327	-1.018770	-0.464762
C50	C	2.010327	-0.518770	0.035238
C51	C	1.782799	-0.464659	-0.464734
C52	C	2.282799	0.035341	0.035266
C53	C	1.898953	-0.464667	-0.464742
C54	C	2.398953	0.035333	0.035258
C55	C	1.510303	-0.464554	-0.716308
C56	C	2.010303	0.035446	-0.216308
C57	C	1.510335	-0.464518	-0.823522
C58	C	2.010335	0.035482	-0.323522
C59	C	1.510343	-0.213047	-0.464758
C60	C	2.010343	0.286953	0.035242
C61	C	1.510392	-0.105833	-0.464777
C62	C	2.010392	0.394167	0.035223
C63	C	1.510363	-0.464453	-1.019817
C64	C	2.010363	0.035547	-0.519817
C65	C	1.510344	-0.464492	-0.910585
C66	C	2.010344	0.035508	-0.410585
C67	C	1.510216	-0.464655	-0.214100
C68	C	2.010216	0.035345	0.285900
C69	C	1.510387	-0.464419	-0.106887
C70	C	2.010387	0.035581	0.393113
H71	H	0.906232	-0.573612	-0.573362
H72	H	1.406232	-0.073612	-0.073362
C73	C	1.021752	-0.451195	-0.335103
C74	C	1.521752	0.048805	0.164897
C75	C	0.959038	-0.396818	-0.397091
C76	C	1.459038	0.103182	0.102909
H77	H	1.058856	-0.409307	-0.293343
H78	H	1.558856	0.090693	0.206657
H79	H	0.979141	-0.493136	-0.298106
H80	H	1.479141	0.006864	0.201894
H81	H	1.069804	-0.488009	-0.371822
H82	H	1.569804	0.011991	0.128178
H83	H	0.910980	-0.360010	-0.360371
H84	H	1.410980	0.139990	0.139629
H85	H	1.001652	-0.354861	-0.434091
H86	H	1.501652	0.145139	0.065909
C87	C	1.193748	-0.536773	-0.652841
C88	C	1.693748	-0.036773	-0.152841
C89	C	1.130944	-0.591166	-0.590870
C90	C	1.630944	-0.091166	-0.090870
H91	H	1.230881	-0.578652	-0.694589
H92	H	1.730881	-0.078652	-0.194589
H93	H	1.151194	-0.494845	-0.689850
H94	H	1.651194	0.005155	-0.189850
H95	H	1.241775	-0.499944	-0.616107
H96	H	1.741775	0.000056	-0.116107
H97	H	1.082912	-0.627990	-0.627603
H98	H	1.582912	-0.127990	-0.127603
H99	H	1.173501	-0.633111	-0.553856
H100	H	1.673501	-0.133111	-0.053856
H101	H	1.078009	-0.414389	-0.414620
H102	H	1.578009	0.085611	0.085380
