data_functionalizedCrystal
_audit_creation_method	'MofGen! by Chris Wilmer'
_symmetry_space_group_name_H-M	'P1'
_symmetry_Int_Tables_number	1
_symmetry_cell_setting	triclinic
loop_
_symmetry_equiv_pos_as_xyz
  x,y,z
_cell_length_a	15.944551
_cell_length_b	27.732048
_cell_length_c	15.021413
_cell_angle_alpha	89.999048
_cell_angle_beta	89.997174
_cell_angle_gamma	83.070697
loop_
_atom_site_label
_atom_site_type_symbol
_atom_site_fract_x
_atom_site_fract_y
_atom_site_fract_z
O1	O	1.113714	0.062334	-0.073949
O2	O	0.869064	0.070020	-0.073973
O3	O	0.998987	-0.004187	-0.073943
O4	O	0.983790	0.136541	-0.073979
O5	O	0.998966	-0.004176	0.074121
O6	O	0.869043	0.070030	0.074092
O7	O	1.113693	0.062345	0.074115
Zn8	Zn	0.991365	0.066189	0.097612
Zn9	Zn	0.991392	0.066175	-0.097469
O10	O	0.983770	0.136551	0.074086
C11	C	0.837763	0.069706	0.000057
C12	C	0.744530	0.068749	0.000049
C13	C	0.530305	0.020466	0.000078
C14	C	0.469001	0.042882	-0.072931
C15	C	0.573827	0.067019	0.000060
C16	C	0.469003	0.042904	0.073049
C17	C	0.408936	0.065344	0.000074
C18	C	0.513752	0.089448	-0.073010
C19	C	0.513760	0.089463	0.073036
C20	C	0.452474	0.111912	0.000009
C21	C	0.668816	0.067983	0.000051
C22	C	0.313947	0.064384	0.000077
C23	C	0.998658	-0.022190	0.000091
C24	C	0.997697	-0.075849	0.000099
C25	C	1.068426	-0.414358	0.000060
C26	C	1.064862	-0.616033	0.000047
O27	O	1.129539	-0.647008	0.000014
N28	N	0.987823	-0.635490	0.000040
C29	C	0.911669	-0.604525	0.000031
O30	O	0.846061	-0.625703	0.000016
C31	C	0.915234	-0.402851	0.000038
C32	C	0.992278	-0.383397	0.000053
C33	C	1.145464	-0.394903	0.000074
C34	C	1.146354	-0.344487	0.000082
C35	C	1.070206	-0.313526	0.000076
C36	C	0.993168	-0.332981	0.000061
C37	C	0.839081	-0.371887	0.000022
C38	C	0.839979	-0.321466	0.000021
C39	C	0.917024	-0.302012	0.000037
C40	C	0.917911	-0.251604	0.000063
N41	N	0.994950	-0.232147	0.000069
C42	C	1.071098	-0.263108	0.000076
C43	C	0.909803	-0.710408	0.000030
C44	C	0.908912	-0.760826	0.000030
C45	C	1.062105	-0.772330	0.000044
C46	C	1.062995	-0.721911	0.000050
C47	C	0.986842	-0.690950	0.000036
C48	C	1.072961	-0.157231	0.000093
C49	C	1.073845	-0.106810	0.000105
C50	C	0.920652	-0.095310	0.000086
C51	C	0.919768	-0.145727	0.000079
C52	C	0.995930	-0.176686	0.000080
O53	O	0.853269	-0.220600	0.000085
O54	O	1.136697	-0.241921	0.000071
C55	C	1.067536	-0.464774	0.000052
C56	C	0.990498	-0.484228	0.000037
C57	C	0.914350	-0.453268	0.000031
C58	C	0.989607	-0.534647	0.000037
C59	C	1.065754	-0.565608	0.000044
C60	C	1.142794	-0.546150	0.000050
C61	C	1.143684	-0.495734	0.000058
C62	C	0.837311	-0.472725	0.000024
C63	C	0.836427	-0.523141	0.000017
C64	C	0.912575	-0.554102	0.000023
C65	C	1.144993	0.062658	0.000084
C66	C	1.238227	0.063615	0.000086
C67	C	0.984099	0.154554	0.000049
C68	C	0.985059	0.208213	0.000036
N69	N	0.991352	0.066198	0.230749
N70	N	0.991411	0.066162	-0.230607
C71	C	0.931267	0.100495	0.470419
C72	C	1.007044	0.109879	0.529758
C73	C	0.991374	0.066186	0.412356
C74	C	0.915617	0.056813	0.529759
C75	C	0.991388	0.066176	0.587780
C76	C	1.067190	0.075592	0.470389
C77	C	0.975712	0.022507	0.470385
C78	C	1.051545	0.031872	0.529697
C79	C	0.991365	0.066194	0.311299
C80	C	0.991406	0.066168	0.688836
H81	H	0.533625	0.109141	0.134753
C82	C	0.442684	0.016570	0.155318
C83	C	0.482500	-0.031275	0.154984
C84	C	0.458286	-0.055550	0.230756
H85	H	0.383155	0.016357	0.155087
H86	H	0.458794	0.032770	0.207181
H87	H	0.466384	-0.047471	0.103135
H88	H	0.542028	-0.031077	0.155228
H89	H	0.474396	-0.039350	0.282619
H90	H	0.398757	-0.055759	0.230519
H91	H	0.485303	-0.088014	0.230544
H92	H	0.773684	-0.538976	0.000012
H93	H	0.962429	-0.014416	0.444285
H94	H	1.207476	-0.420107	0.000076
H95	H	1.102437	0.002852	0.555561
C96	C	1.157584	-0.085783	0.000072
C97	C	1.224077	-0.123692	0.000049
C98	C	1.301227	-0.104342	0.000005
H99	H	1.161233	-0.066363	0.051694
H100	H	1.161169	-0.066366	-0.051579
H101	H	1.220494	-0.143101	0.051695
H102	H	1.220457	-0.143115	-0.051569
H103	H	1.304812	-0.084925	-0.051647
H104	H	1.304867	-0.084923	0.051628
H105	H	1.346351	-0.130061	-0.000019
C106	C	0.863662	0.139285	0.435751
C107	C	0.880475	0.184933	0.465819
C108	C	0.818228	0.220678	0.433889
H109	H	0.809904	0.133002	0.456930
H110	H	0.863802	0.138855	0.372509
H111	H	0.880326	0.185362	0.529047
H112	H	0.934222	0.191232	0.444642
H113	H	0.818368	0.220249	0.370647
H114	H	0.764473	0.214390	0.455070
H115	H	0.829631	0.251655	0.454278
C116	C	1.024751	0.159084	0.564719
C117	C	1.025297	0.158276	0.657915
C118	C	1.041608	0.203594	0.690149
H119	H	0.982028	0.183470	0.544524
H120	H	1.078183	0.165982	0.543571
H121	H	0.971873	0.151384	0.679054
H122	H	1.068021	0.133900	0.678133
H123	H	1.095040	0.210492	0.669002
H124	H	0.998882	0.227977	0.669949
H125	H	1.041988	0.203050	0.753385
H126	H	0.564143	-0.018169	-0.000003
H127	H	0.449157	0.023188	-0.134645
H128	H	0.851544	0.048890	0.555840
C129	C	1.155587	-0.190896	0.000238
C130	C	1.159535	-0.220188	0.076400
C131	C	1.235630	-0.251210	0.076564
H132	H	1.201659	-0.172143	0.000295
H133	H	1.158447	-0.210830	-0.051370
H134	H	1.156683	-0.200255	0.127995
H135	H	1.113480	-0.238951	0.076359
H136	H	1.238491	-0.271144	0.024955
H137	H	1.281697	-0.232453	0.076618
H138	H	1.238316	-0.271091	0.128234
C139	C	1.227273	-0.474551	-0.000072
C140	C	1.232267	-0.445932	-0.076235
C141	C	1.309256	-0.426409	-0.076382
H142	H	1.272561	-0.500166	-0.000117
H143	H	1.230813	-0.455096	0.051535
H144	H	1.228735	-0.465386	-0.127829
H145	H	1.186997	-0.420309	-0.076207
H146	H	1.312797	-0.406954	-0.024774
H147	H	1.354538	-0.452027	-0.076424
H148	H	1.312652	-0.406985	-0.128053
C149	C	0.540237	0.115637	-0.155374
C150	C	0.627922	0.116197	-0.154450
C151	C	0.652353	0.140310	-0.230315
H152	H	0.512968	0.148040	-0.155671
H153	H	0.524610	0.099203	-0.207172
H154	H	0.643540	0.132631	-0.102666
H155	H	0.655211	0.083800	-0.154167
H156	H	0.636726	0.123877	-0.282112
H157	H	0.625079	0.172712	-0.230605
H158	H	0.711850	0.140690	-0.229702
C159	C	0.757322	-0.287829	-0.000174
C160	C	0.753359	-0.258554	-0.076358
C161	C	0.677224	-0.227567	-0.076573
H162	H	0.754391	-0.267877	0.051400
H163	H	0.711290	-0.306622	-0.000232
H164	H	0.799378	-0.239762	-0.076293
H165	H	0.756275	-0.278492	-0.127945
H166	H	0.631193	-0.246360	-0.076630
H167	H	0.674301	-0.207618	-0.024995
H168	H	0.674522	-0.207703	-0.128266
H169	H	1.209091	-0.328652	0.000091
C170	C	1.225444	-0.579794	-0.000130
C171	C	1.229414	-0.609063	-0.076322
C172	C	1.305538	-0.640059	-0.076530
H173	H	1.228353	-0.599750	0.051439
H174	H	1.271484	-0.561008	-0.000172
H175	H	1.183386	-0.627848	-0.076272
H176	H	1.226519	-0.589120	-0.127904
H177	H	1.351579	-0.621272	-0.076573
H178	H	1.308441	-0.660012	-0.024958
H179	H	1.308246	-0.659918	-0.128229
C180	C	0.407622	0.163489	-0.000238
C181	C	0.430300	0.187625	-0.076816
C182	C	0.388989	0.235135	-0.077084
H183	H	0.423590	0.180210	0.051066
H184	H	0.348239	0.162621	0.000207
H185	H	0.489670	0.188496	-0.077253
H186	H	0.414330	0.170918	-0.128132
H187	H	0.329606	0.234267	-0.076638
H188	H	0.404961	0.251852	-0.025777
H189	H	0.404364	0.251516	-0.129045
C190	C	1.146730	-0.700885	0.000011
C191	C	1.213220	-0.738796	-0.000004
C192	C	1.290372	-0.719449	-0.000056
H193	H	1.150381	-0.681461	0.051628
H194	H	1.150317	-0.681472	-0.051646
H195	H	1.209635	-0.758201	0.051647
H196	H	1.209597	-0.758222	-0.051617
H197	H	1.293959	-0.700036	-0.051712
H198	H	1.294014	-0.700026	0.051562
H199	H	1.335494	-0.745169	-0.000074
H200	H	1.124107	-0.797547	0.000049
H201	H	0.846175	-0.776661	0.000032
C202	C	0.827026	-0.676877	0.000070
C203	C	0.759377	-0.704715	0.000090
C204	C	0.683111	-0.673847	0.000145
H205	H	0.824065	-0.656958	-0.051548
H206	H	0.824135	-0.656978	0.051725
H207	H	0.762267	-0.724606	-0.051560
H208	H	0.762310	-0.724634	0.051704
H209	H	0.680219	-0.653947	0.051800
H210	H	0.680159	-0.653928	-0.051474
H211	H	0.637202	-0.692730	0.000167
C212	C	0.754540	-0.439195	0.000069
C213	C	0.686891	-0.467032	0.000085
C214	C	0.610625	-0.436163	0.000145
H215	H	0.751580	-0.419272	-0.051545
H216	H	0.751650	-0.419299	0.051728
H217	H	0.689780	-0.486920	-0.051569
H218	H	0.689824	-0.486954	0.051695
H219	H	0.607735	-0.416267	0.051804
H220	H	0.607673	-0.416242	-0.051470
H221	H	0.564716	-0.455046	0.000164
H222	H	0.776344	-0.387718	0.000004
C223	C	0.836035	-0.166758	0.000019
C224	C	0.769540	-0.128850	-0.000005
C225	C	0.692392	-0.148201	-0.000084
H226	H	0.832370	-0.186186	0.051629
H227	H	0.832469	-0.186167	-0.051644
H228	H	0.773104	-0.109449	0.051653
H229	H	0.773177	-0.109419	-0.051611
H230	H	0.688826	-0.167610	-0.051747
H231	H	0.688736	-0.167628	0.051527
H232	H	0.647266	-0.122484	-0.000108
H233	H	0.858655	-0.070093	0.000084
H234	H	1.131275	0.083560	0.444419
