data_functionalizedCrystal
_audit_creation_method	'MofGen! by Chris Wilmer'
_symmetry_space_group_name_H-M	'P1'
_symmetry_Int_Tables_number	1
_symmetry_cell_setting	triclinic
loop_
_symmetry_equiv_pos_as_xyz
  x,y,z
_cell_length_a	15.995350
_cell_length_b	14.853567
_cell_length_c	13.330367
_cell_angle_alpha	89.994807
_cell_angle_beta	89.997588
_cell_angle_gamma	83.563653
loop_
_atom_site_label
_atom_site_type_symbol
_atom_site_fract_x
_atom_site_fract_y
_atom_site_fract_z
O1	O	0.109317	1.196221	-0.083363
O2	O	0.122339	0.933744	-0.083377
O3	O	-0.006051	1.072158	-0.083369
O4	O	0.237707	1.057808	-0.083371
O5	O	-0.006054	1.072138	0.083478
O6	O	0.122336	0.933724	0.083470
O7	O	0.109314	1.196201	0.083484
Cu8	Cu	0.115825	1.064961	0.098711
Cu9	Cu	0.115828	1.064985	-0.098605
O10	O	0.237704	1.057788	0.083476
C11	C	-0.037248	1.071555	0.000053
C12	C	-0.130201	1.069776	0.000047
C13	C	0.121748	0.900146	0.000045
C14	C	0.119980	0.800065	0.000040
C15	C	0.109906	1.229799	0.000060
C16	C	0.111674	1.329881	0.000058
C17	C	-0.467956	1.063389	0.000050
C18	C	-0.420636	0.964813	-0.000329
C19	C	-0.323944	0.966592	0.000047
C20	C	-0.300391	1.066557	0.000048
C21	C	-0.341414	1.115167	0.095327
C22	C	-0.438053	1.112690	0.095406
C23	C	-0.438405	1.114749	-0.094330
C24	C	-0.341460	1.114726	-0.095589
C25	C	-0.205692	1.068353	0.000050
C26	C	-0.562655	1.061596	0.000055
C27	C	0.268901	1.058391	0.000052
C28	C	0.361854	1.060170	0.000051
N29	N	0.115822	1.064951	0.237493
C30	C	0.195415	1.742302	0.000040
C31	C	0.042884	1.763788	0.000042
C32	C	0.041221	1.669757	0.000047
C33	C	0.116657	1.611993	0.000048
C34	C	0.193755	1.648261	0.000042
C35	C	-0.035875	1.633482	0.000043
C36	C	-0.037541	1.539445	0.000047
C37	C	0.037896	1.481679	0.000054
C38	C	0.114996	1.517953	0.000050
C39	C	0.190432	1.460189	0.000051
C40	C	0.267534	1.496461	0.000053
C41	C	0.269191	1.590496	0.000050
C42	C	0.036238	1.387644	0.000058
C43	C	0.188771	1.366149	0.000053
N44	N	0.115825	1.065002	-0.237386
C45	C	0.172657	1.003693	0.710112
C46	C	0.058993	1.126301	0.710087
C47	C	0.058990	1.126291	0.605069
C48	C	0.115823	1.064982	0.552567
C49	C	0.172658	1.003682	0.605084
C50	C	0.002162	1.187595	0.552544
C51	C	0.002158	1.187588	0.447520
C52	C	0.058987	1.126274	0.395016
C53	C	0.115824	1.064971	0.447539
C54	C	0.172656	1.003662	0.395038
C55	C	0.229490	0.942354	0.447559
C56	C	0.229487	0.942368	0.552581
C57	C	0.058989	1.126260	0.289995
C58	C	0.172657	1.003652	0.290010
H59	H	-0.295565	0.928381	-0.068253
H60	H	-0.440277	0.925580	0.067612
H61	H	-0.456396	1.077227	0.166628
H62	H	0.218928	0.953774	0.752878
C63	C	-0.466198	1.071218	-0.191891
N64	N	-0.487130	1.038419	-0.265368
H65	H	-0.026537	1.358116	0.000049
C66	C	-0.040090	1.827330	0.000048
N67	N	-0.102589	1.875195	0.000058
H68	H	-0.313073	1.081388	0.166229
C69	C	0.235200	0.936228	0.232266
N70	N	0.282317	0.885453	0.188775
H71	H	0.258189	1.771838	0.000046
C72	C	-0.003523	1.193695	0.232226
N73	N	-0.050613	1.244488	0.188716
H74	H	0.012725	1.176222	0.752837
C75	C	-0.304654	1.066759	-0.190815
N76	N	-0.276935	1.030621	-0.262537
C77	C	-0.118848	1.697026	0.000052
N78	N	-0.181346	1.744892	0.000067
H79	H	-0.100321	1.509921	0.000046
H80	H	-0.470081	1.187429	-0.094970
C81	C	-0.320599	1.213214	-0.103357
N82	N	-0.304890	1.287400	-0.109199
C83	C	-0.060350	1.255031	0.610302
N84	N	-0.107438	1.305823	0.653810
C85	C	0.271758	1.302615	0.000058
N86	N	0.334265	1.254762	0.000062
H87	H	0.275767	0.892440	0.404800
H88	H	-0.327203	1.188608	0.098871
H89	H	-0.044120	1.237507	0.404763
C90	C	0.350510	1.432909	0.000053
N91	N	0.413005	1.385038	0.000055
H92	H	0.275760	0.892454	0.595350
C93	C	0.353995	1.630402	0.000047
N94	N	0.417869	1.660464	0.000041
H95	H	-0.296125	0.928108	0.068459
C96	C	-0.445741	0.911589	-0.092628
N97	N	-0.464657	0.871499	-0.162148
H98	H	-0.470217	1.185062	0.099730
