data_functionalizedCrystal
_audit_creation_method	'MofGen! by Chris Wilmer'
_symmetry_space_group_name_H-M	'P1'
_symmetry_Int_Tables_number	1
_symmetry_cell_setting	triclinic
loop_
_symmetry_equiv_pos_as_xyz
  x,y,z
_cell_length_a	11.169417
_cell_length_b	11.169416
_cell_length_c	11.169406
_cell_angle_alpha	89.954551
_cell_angle_beta	89.967219
_cell_angle_gamma	90.002460
loop_
_atom_site_label
_atom_site_type_symbol
_atom_site_fract_x
_atom_site_fract_y
_atom_site_fract_z
Zn1	Zn	-1.835145	0.477578	0.678625
Zn2	Zn	-1.835017	0.678374	0.477952
Zn3	Zn	-1.634392	0.477698	0.477953
Zn4	Zn	-1.634460	0.678212	0.678590
O5	O	-1.734753	0.577965	0.578280
O6	O	-2.003078	0.504232	0.652019
O7	O	-1.808321	0.651872	0.310002
O8	O	-1.661048	0.309732	0.504588
O9	O	-2.002984	0.651756	0.504586
O10	O	-1.808540	0.309644	0.652020
O11	O	-1.660923	0.504436	0.310003
O12	O	-1.466451	0.504278	0.504554
O13	O	-1.661163	0.651479	0.846545
O14	O	-1.466501	0.651595	0.651961
O15	O	-1.808606	0.504074	0.846570
O16	O	-1.808387	0.846303	0.504552
O17	O	-1.661039	0.846183	0.651960
C18	C	-1.422929	0.577933	0.578255
C19	C	-1.289529	0.577948	0.578272
C20	C	-1.734801	0.264923	0.578308
C21	C	-1.734821	0.131523	0.578320
C22	C	-1.047796	0.577987	0.578298
C23	C	-1.181196	0.577967	0.578285
C24	C	-1.734739	0.889790	0.578278
C25	C	-1.734843	1.023190	0.578318
C26	C	-1.734670	0.578098	0.266455
C27	C	-1.734837	0.577854	0.133056
C28	C	-1.734906	0.577745	0.891323
C29	C	-1.734972	0.577651	1.024723
