data_functionalizedCrystal
_audit_creation_method	'MofGen! by Chris Wilmer'
_symmetry_space_group_name_H-M	'P1'
_symmetry_Int_Tables_number	1
_symmetry_cell_setting	triclinic
loop_
_symmetry_equiv_pos_as_xyz
  x,y,z
_cell_length_a	13.635800
_cell_length_b	23.752966
_cell_length_c	11.102315
_cell_angle_alpha	84.894068
_cell_angle_beta	108.606275
_cell_angle_gamma	79.933465
loop_
_atom_site_label
_atom_site_type_symbol
_atom_site_fract_x
_atom_site_fract_y
_atom_site_fract_z
V1	V	2.034378	-0.079163	0.396971
O2	O	2.036313	0.003801	0.388680
O3	O	2.001744	-0.156964	0.394962
O4	O	2.023100	-0.077947	0.569782
O5	O	2.014809	-0.075763	0.212651
V6	V	2.275611	-0.069239	0.374839
O7	O	2.166168	-0.100931	0.445520
O8	O	2.368920	-0.047471	0.326291
O9	O	2.196643	0.008562	0.376848
O10	O	2.332375	-0.152203	0.383130
O11	O	2.353879	-0.072639	0.559160
O12	O	2.175287	-0.070456	0.202029
V13	V	2.534378	-0.079163	0.396971
O14	O	2.536313	0.003801	0.388680
O15	O	2.501744	-0.156964	0.394962
O16	O	2.523100	-0.077947	0.569782
O17	O	2.514809	-0.075763	0.212651
V18	V	2.775611	-0.069239	0.374839
O19	O	2.666168	-0.100931	0.445520
O20	O	2.868920	-0.047471	0.326291
O21	O	2.696643	0.008562	0.376848
O22	O	2.832375	-0.152203	0.383130
O23	O	2.853879	-0.072639	0.559160
O24	O	2.675287	-0.070456	0.202029
C25	C	1.921774	-0.175930	0.388882
C26	C	1.935821	-0.239533	0.388392
C27	C	2.114287	-0.636867	0.391855
C28	C	2.127504	-0.696630	0.391414
O29	O	2.211925	-0.730021	0.396645
N30	N	2.042892	-0.723606	0.384817
C31	C	1.945059	-0.690816	0.378675
O32	O	1.874304	-0.719249	0.373025
C33	C	1.931845	-0.631054	0.379126
C34	C	2.016461	-0.604081	0.385710
C35	C	2.198895	-0.609893	0.398440
C36	C	2.185678	-0.550133	0.398879
C37	C	2.087852	-0.517347	0.392733
C38	C	2.003244	-0.544321	0.386149
C39	C	1.834016	-0.598266	0.372993
C40	C	1.820810	-0.538500	0.373445
C41	C	1.905425	-0.511526	0.380029
C42	C	1.892201	-0.451775	0.380442
N43	N	1.976813	-0.424799	0.387038
C44	C	2.074638	-0.457585	0.393184
C45	C	1.972816	-0.816321	0.377731
C46	C	1.986026	-0.876081	0.377271
C47	C	2.168471	-0.881891	0.390013
C48	C	2.155257	-0.822129	0.390463
C49	C	2.057428	-0.789345	0.384328
C50	C	2.046874	-0.332085	0.394104
C51	C	2.033646	-0.272319	0.394537
C52	C	1.851205	-0.266515	0.381803
C53	C	1.864430	-0.326274	0.381363
C54	C	1.962273	-0.359059	0.387519
O55	O	1.807812	-0.418348	0.375219
O56	O	2.145383	-0.429146	0.398850
C57	C	1.949015	-0.075135	0.611880
C58	C	1.980379	-0.074655	0.753159
C59	C	2.108283	0.027525	0.382925
C60	C	2.083855	0.091127	0.383424
C61	C	2.081041	-0.073269	0.159924
C62	C	2.039297	-0.073746	0.018644
C63	C	2.421774	-0.175930	0.388882
C64	C	2.435821	-0.239533	0.388392
C65	C	2.449015	-0.075135	0.611880
C66	C	2.480379	-0.074655	0.753159
C67	C	2.162862	-0.080373	0.766180
C68	C	2.268834	-0.083008	0.839063
C69	C	2.298297	-0.082557	0.971805
C70	C	2.221778	-0.079468	1.031666
C71	C	2.115806	-0.076833	0.958784
C72	C	2.086352	-0.077286	0.826040
C73	C	1.933325	-0.071111	0.945761
C74	C	1.903861	-0.071566	0.813020
C75	C	1.856806	-0.068022	1.005623
C76	C	1.750833	-0.065391	0.932742
C77	C	1.721372	-0.065843	0.799992
C78	C	1.797888	-0.068931	0.740138
C79	C	2.608283	0.027525	0.382925
C80	C	2.583855	0.091127	0.383424
C81	C	2.581041	-0.073269	0.159924
C82	C	2.539297	-0.073746	0.018644
C83	C	2.533646	-0.272319	0.394537
C84	C	2.546864	-0.332083	0.394096
C85	C	2.462252	-0.359059	0.387499
C86	C	2.364419	-0.326269	0.381357
C87	C	2.351205	-0.266507	0.381808
C88	C	2.658524	0.123913	0.377282
C89	C	2.635579	0.183676	0.377729
C90	C	2.537968	0.210652	0.384329
C91	C	2.463293	0.177862	0.390468
C92	C	2.486236	0.118101	0.390011
C93	C	2.512228	-0.179448	0.790430
C94	C	2.542883	-0.231617	0.875437
C95	C	2.572353	-0.231163	1.008179
C96	C	2.571170	-0.178534	1.055915
C97	C	2.540514	-0.126366	0.970909
C98	C	2.511042	-0.126825	0.838166
C99	C	2.508673	-0.021574	0.933639
C100	C	2.479196	-0.022027	0.800896
C101	C	2.507490	0.031054	0.981376
C102	C	2.476827	0.083224	0.896368
C103	C	2.447355	0.082768	0.763619
C104	C	2.448540	0.030142	0.715889
H105	H	2.102554	-0.250360	0.399894
C106	C	1.743606	-0.230443	0.375053
H107	H	1.747865	-0.190990	0.376275
H108	H	1.690444	-0.233815	0.297866
H109	H	1.726138	-0.244267	0.446885
H110	H	2.384587	-0.084702	1.031146
H111	H	2.626530	-0.358773	0.399094
H112	H	2.278559	-0.636582	0.403450
H113	H	2.126546	-0.358771	0.399119
H114	H	2.245774	-0.079093	1.139750
H115	H	2.425430	0.091410	0.395024
H116	H	2.519300	0.259314	0.384699
C117	C	2.765895	0.094252	0.370011
H118	H	2.807064	0.122345	0.366402
H119	H	2.802499	0.065832	0.444066
H120	H	2.754360	0.076290	0.295050
C121	C	1.740938	-0.627925	0.365767
H122	H	1.680797	-0.599833	0.362190
H123	H	1.724448	-0.645896	0.290829
H124	H	1.760143	-0.656338	0.439848
C125	C	1.604804	-0.062946	0.719826
H126	H	1.598211	-0.063655	0.632194
H127	H	1.582327	-0.095214	0.750827
H128	H	1.561961	-0.028172	0.726987
C129	C	1.666703	-0.062094	0.998619
H130	H	1.599378	-0.060619	0.936216
H131	H	1.684694	-0.095349	1.061992
H132	H	1.664130	-0.028299	1.038289
C133	C	2.476792	-0.424796	0.386997
H134	H	2.412394	-0.436171	0.382195
H135	H	2.495641	-0.434159	0.314743
H136	H	2.531308	-0.444613	0.463760
C137	C	2.717733	0.219734	0.370989
H138	H	2.779156	0.195104	0.367017
H139	H	2.688321	0.248394	0.296399
H140	H	2.736422	0.237939	0.445417
C141	C	2.544178	-0.289503	0.822923
H142	H	2.522227	-0.282304	0.731692
H143	H	2.613915	-0.312790	0.856489
H144	H	2.497172	-0.309123	0.848179
C145	C	1.713193	-0.502439	0.366682
H146	H	1.664696	-0.527066	0.362686
H147	H	1.722071	-0.484225	0.441090
H148	H	1.686407	-0.473784	0.292072
H149	H	1.795530	-0.348238	0.376010
C150	C	2.479817	-0.179950	0.644419
H151	H	2.484920	-0.218763	0.628164
H152	H	2.408905	-0.158870	0.603343
H153	H	2.525652	-0.162535	0.611676
C154	C	2.271353	-0.355947	0.374089
H155	H	2.293241	-0.396233	0.374686
H156	H	2.249528	-0.350189	0.446043
H157	H	2.213877	-0.339733	0.297027
C158	C	2.606080	-0.288546	1.101688
H159	H	2.602562	-0.319955	1.054252
H160	H	2.676604	-0.292373	1.158401
H161	H	2.559863	-0.288716	1.150087
C162	C	2.539903	0.031554	1.127387
H163	H	2.558319	-0.007052	1.171178
H164	H	2.599057	0.049178	1.154696
H165	H	2.482311	0.052840	1.146368
C166	C	2.355933	0.207540	0.397743
H167	H	2.352980	0.247826	0.397152
H168	H	2.300227	0.201785	0.325790
H169	H	2.348372	0.191325	0.474805
H170	H	1.917118	-0.898036	0.371893
H171	H	2.224160	-0.800171	0.395822
C172	C	1.765484	-0.069430	0.594126
H173	H	1.691414	-0.067421	0.559290
H174	H	1.782338	-0.037071	0.554587
H175	H	1.802701	-0.104113	0.578423
C176	C	2.243587	-0.230446	0.375024
H177	H	2.195092	-0.255074	0.371017
H178	H	2.252456	-0.212233	0.449432
H179	H	2.216807	-0.201791	0.300416
C180	C	2.475526	0.141107	0.948881
H181	H	2.497467	0.133905	1.040111
H182	H	2.522516	0.160734	0.923622
H183	H	2.405778	0.164389	0.915323
C184	C	2.413634	0.140155	0.670121
H185	H	2.417145	0.171560	0.717568
H186	H	2.459838	0.140326	0.621714
H187	H	2.343099	0.143987	0.613413
H188	H	1.880801	-0.067651	1.113708
H189	H	2.424538	0.029766	0.607806
C190	C	2.278765	-0.520472	0.406152
H191	H	2.338917	-0.548566	0.409766
H192	H	2.259589	-0.492053	0.332096
H193	H	2.295235	-0.502510	0.481112
C194	C	2.276085	-0.917962	0.396783
H195	H	2.324589	-0.893341	0.400765
H196	H	2.302859	-0.946620	0.471377
H197	H	2.267192	-0.936171	0.322360
C198	C	2.130460	-0.080879	0.620171
H199	H	2.191205	-0.083094	0.594958
H200	H	2.100280	-0.113444	0.599663
H201	H	2.079916	-0.046402	0.575812
H202	H	2.595180	-0.178170	1.164004
H203	H	1.893147	-0.789630	0.372725
H204	H	2.602552	-0.250363	0.399901
H205	H	2.331129	-0.085521	0.790308
