data_functionalizedCrystal
_audit_creation_method	'MofGen! by Chris Wilmer'
_symmetry_space_group_name_H-M	'P1'
_symmetry_Int_Tables_number	1
_symmetry_cell_setting	triclinic
loop_
_symmetry_equiv_pos_as_xyz
  x,y,z
_cell_length_a	27.354012
_cell_length_b	27.353283
_cell_length_c	27.349551
_cell_angle_alpha	60.005606
_cell_angle_beta	60.011434
_cell_angle_gamma	59.993282
loop_
_atom_site_label
_atom_site_type_symbol
_atom_site_fract_x
_atom_site_fract_y
_atom_site_fract_z
O1	O	0.067635	-0.714267	0.597330
O2	O	0.567635	-0.214267	1.097330
O3	O	0.025429	-0.556105	0.481282
O4	O	0.525429	-0.056105	0.981282
O5	O	0.125575	-0.656186	0.481214
O6	O	0.625575	-0.156186	0.981214
O7	O	-0.032512	-0.614186	0.597397
O8	O	0.467488	-0.114186	1.097397
O9	O	0.158797	-0.622968	0.514367
O10	O	0.658797	-0.122968	1.014367
O11	O	0.058650	-0.522887	0.514434
O12	O	0.558650	-0.022887	1.014434
O13	O	0.100856	-0.681048	0.630482
O14	O	0.600856	-0.181048	1.130482
Zn15	Zn	0.085028	-0.596693	0.577722
Zn16	Zn	0.585028	-0.096693	1.077722
Zn17	Zn	0.041257	-0.640460	0.534042
Zn18	Zn	0.541257	-0.140460	1.034042
O19	O	0.000709	-0.580967	0.630549
O20	O	0.500709	-0.080967	1.130549
N21	N	0.114901	-0.566828	0.607534
N22	N	0.614901	-0.066828	1.107534
N23	N	0.011389	-0.670331	0.504229
N24	N	0.511389	-0.170331	1.004229
C25	C	0.179404	-0.338196	0.672015
C26	C	0.679404	0.161804	1.172015
C27	C	0.179501	-0.502386	0.836160
C28	C	0.679501	-0.002386	1.336160
C29	C	0.179415	-0.502363	0.671996
C30	C	0.679415	-0.002363	1.171996
C31	C	0.343611	-0.502373	0.671960
C32	C	0.843611	-0.002373	1.171960
C33	C	0.197478	-0.392371	0.690061
C34	C	0.697478	0.107629	1.190061
C35	C	0.197534	-0.484321	0.781984
C36	C	0.697534	0.015679	1.281984
C37	C	0.289434	-0.484312	0.690032
C38	C	0.789434	0.015688	1.190032
C39	C	0.197486	-0.484308	0.690051
C40	C	0.697486	0.015692	1.190051
C41	C	0.156398	-0.269238	0.649045
C42	C	0.656398	0.230762	1.149045
C43	C	0.156418	-0.525342	0.649015
C44	C	0.656418	-0.025342	1.149015
C45	C	0.220484	-0.461329	0.713032
C46	C	0.720484	0.038671	1.213032
C47	C	0.443889	-0.485097	0.619172
C48	C	0.943889	0.014903	1.119172
C49	C	0.506571	-0.505993	0.598266
C50	C	1.006571	-0.005993	1.098266
C51	C	0.506589	-0.607412	0.636940
C52	C	1.006589	-0.107412	1.136940
C53	C	0.443909	-0.586515	0.657848
C54	C	0.943909	-0.086515	1.157848
C55	C	0.171510	-0.237888	0.587422
C56	C	0.671510	0.262112	1.087422
C57	C	0.150593	-0.175201	0.566543
C58	C	0.650593	0.324799	1.066543
C59	C	0.099458	-0.175218	0.668913
C60	C	0.599458	0.324782	1.168913
C61	C	0.120375	-0.237905	0.689792
C62	C	0.620375	0.262095	1.189792
C63	C	0.094789	-0.510201	0.664176
C64	C	0.594789	-0.010201	1.164176
C65	C	0.073888	-0.531091	0.643278
C66	C	0.573888	-0.031091	1.143278
C67	C	0.176239	-0.582263	0.592072
C68	C	0.676239	-0.082263	1.092072
C69	C	0.197142	-0.561373	0.612963
C70	C	0.697142	-0.061373	1.112963
C71	C	0.094933	-0.510244	0.936476
C72	C	0.594933	-0.010244	1.436476
C73	C	0.074073	-0.531151	0.999161
C74	C	0.574073	-0.031151	1.499161
C75	C	0.176453	-0.582335	0.999126
C76	C	0.676453	-0.082335	1.499126
C77	C	0.197312	-0.561429	0.936439
C78	C	0.697312	-0.061429	1.436439
C79	C	0.156551	-0.525382	0.905116
C80	C	0.656551	-0.025382	1.405116
C81	C	0.412561	-0.525357	0.648961
C82	C	0.912561	-0.025357	1.148961
C83	C	-0.098513	-0.688235	0.485867
C84	C	0.401487	-0.188235	0.985867
C85	C	-0.006461	-0.688368	0.394066
C86	C	0.493539	-0.188368	0.894066
C87	C	-0.006645	-0.780264	0.486040
C88	C	0.493355	-0.280264	0.986040
C89	C	-0.006630	-0.688361	0.486097
C90	C	0.493370	-0.188361	0.986097
C91	C	-0.029562	-0.711308	0.463018
C92	C	0.470438	-0.211308	0.963018
N93	N	0.537030	-0.566846	0.607436
N94	N	1.037030	-0.066846	1.107436
O95	O	0.741877	-0.576849	0.459995
O96	O	1.241877	-0.076849	0.959995
O97	O	0.742050	-0.693241	0.618010
O98	O	1.242050	-0.193241	1.118010
O99	O	0.741986	-0.692977	0.517791
O100	O	1.241986	-0.192977	1.017791
O101	O	0.741941	-0.577114	0.560214
O102	O	1.241941	-0.077114	1.060214
O103	O	0.642405	-0.659839	0.551046
O104	O	1.142405	-0.159839	1.051046
O105	O	0.642469	-0.660104	0.651265
O106	O	1.142469	-0.160104	1.151265
O107	O	0.642296	-0.543712	0.493251
O108	O	1.142296	-0.043712	0.993251
Zn109	Zn	0.626572	-0.596646	0.577538
Zn110	Zn	1.126572	-0.096646	1.077538
Zn111	Zn	0.757774	-0.640307	0.533723
Zn112	Zn	1.257774	-0.140307	1.033723
O113	O	0.642360	-0.543976	0.593469
O114	O	1.142360	-0.043976	1.093469
N115	N	0.847316	-0.670107	0.503818
N116	N	1.347316	-0.170107	1.003818
N117	N	0.114877	-0.144758	0.607577
N118	N	0.614877	0.355242	1.107577
O119	O	-0.032498	0.060193	0.597441
O120	O	0.467502	0.560193	1.097441
O121	O	0.125523	0.060193	0.481067
O122	O	0.625523	0.560193	0.981067
O123	O	0.025289	0.060179	0.481345
O124	O	0.525289	0.560179	0.981345
O125	O	0.067736	0.060207	0.597163
O126	O	0.567736	0.560207	1.097163
O127	O	0.058511	-0.039410	0.514543
O128	O	0.558511	0.460590	1.014543
O129	O	0.158745	-0.039397	0.514265
O130	O	0.658745	0.460603	1.014265
O131	O	0.000724	-0.039396	0.630638
O132	O	0.500724	0.460604	1.130638
Zn133	Zn	0.085009	-0.055208	0.577722
Zn134	Zn	0.585009	0.444792	1.077722
Zn135	Zn	0.041238	0.076005	0.533983
Zn136	Zn	0.541238	0.576005	1.033983
O137	O	0.100958	-0.039382	0.630360
O138	O	0.600958	0.460618	1.130360
N139	N	0.011362	0.165555	0.504130
N140	N	0.511362	0.665555	1.004130
N141	N	0.115121	-0.566884	1.029592
N142	N	0.615121	-0.066884	1.529592
O143	O	0.104990	-0.714248	1.234528
O144	O	0.604990	-0.214248	1.734528
O145	O	-0.011371	-0.556177	1.234539
O146	O	0.488629	-0.056177	1.734539
O147	O	-0.011103	-0.656395	1.234497
O148	O	0.488897	-0.156395	1.734497
O149	O	0.104722	-0.614030	1.234569
O150	O	0.604722	-0.114030	1.734569
O151	O	0.022090	-0.623190	1.134913
O152	O	0.522090	-0.123190	1.634913
O153	O	0.021822	-0.522972	1.134954
O154	O	0.521822	-0.022972	1.634954
O155	O	0.138182	-0.681044	1.134943
O156	O	0.638182	-0.181044	1.634943
Zn157	Zn	0.085272	-0.596736	1.119137
Zn158	Zn	0.585272	-0.096736	1.619137
Zn159	Zn	0.041539	-0.640484	1.250344
Zn160	Zn	0.541539	-0.140484	1.750344
O161	O	0.137914	-0.580826	1.134984
O162	O	0.637914	-0.080826	1.634984
N163	N	0.011689	-0.670343	1.339890
N164	N	0.511689	-0.170343	1.839890
C165	C	0.038085	-0.519567	0.481870
C166	C	0.538085	-0.019567	0.981870
C167	C	0.162104	-0.643505	0.481786
C168	C	0.662104	-0.143505	0.981786
C169	C	0.088200	-0.717587	0.629893
C170	C	0.588200	-0.217587	1.129893
C171	C	-0.035819	-0.593649	0.629977
C172	C	0.464181	-0.093649	1.129977
C173	C	0.692280	-0.692701	0.654545
C174	C	1.192280	-0.192701	1.154545
C175	C	0.692203	-0.692374	0.530435
C176	C	1.192203	-0.192374	1.030435
C177	C	0.692063	-0.544251	0.456717
C178	C	1.192063	-0.044251	0.956717
C179	C	0.692144	-0.544580	0.580825
C180	C	1.192144	-0.044580	1.080825
C181	C	0.162000	0.010521	0.481600
C182	C	0.662000	0.510521	0.981600
C183	C	0.037914	0.010381	0.481984
C184	C	0.537914	0.510381	0.981984
C185	C	-0.035795	0.010399	0.630065
C186	C	0.464205	0.510399	1.130065
C187	C	0.088333	0.010415	0.629722
C188	C	0.588333	0.510415	1.129722
C189	C	-0.010799	-0.519660	1.184747
C190	C	0.489201	-0.019660	1.684747
C191	C	-0.010461	-0.643761	1.184677
C192	C	0.489539	-0.143761	1.684677
C193	C	0.137610	-0.717561	1.184734
C194	C	0.637610	-0.217561	1.684734
C195	C	0.137280	-0.593452	1.184783
C196	C	0.637280	-0.093452	1.684783
H197	H	0.023897	-0.518815	1.024687
H198	H	0.523897	-0.018815	1.524687
H199	H	0.692005	-0.507708	0.411338
H200	H	1.192005	-0.007708	0.911338
H201	H	0.097420	0.010424	0.666105
H202	H	0.597420	0.510424	1.166105
C203	C	-0.060150	-0.458331	1.184741
C204	C	0.439850	0.041669	1.684741
H205	H	-0.094904	-0.458263	1.184719
H206	H	0.405096	0.041737	1.684719
H207	H	-0.069577	-0.451018	1.219474
H208	H	0.430423	0.048982	1.719474
H209	H	-0.046417	-0.427873	1.150015
H210	H	0.453583	0.072127	1.650015
H211	H	0.173667	-0.584388	1.184797
H212	H	0.673667	-0.084388	1.684797
C213	C	0.186964	-0.778887	1.184729
C214	C	0.686964	-0.278887	1.684729
H215	H	0.172503	-0.804042	1.184715
H216	H	0.672503	-0.304042	1.684715
H217	H	0.220991	-0.773648	1.150009
H218	H	0.720991	-0.273648	1.650009
H219	H	0.197839	-0.796811	1.219469
H220	H	0.697839	-0.296811	1.719469
C221	C	0.049994	-0.470563	0.703824
C222	C	0.549994	0.029437	1.203824
H223	H	0.071269	-0.460294	0.714103
H224	H	0.571269	0.039706	1.214103
H225	H	0.025527	-0.435114	0.682568
H226	H	0.525527	0.064886	1.182568
H227	H	0.025556	-0.491834	0.739273
H228	H	0.525556	0.008166	1.239273
C229	C	0.692223	-0.741547	0.518178
C230	C	1.192223	-0.241547	1.018178
H231	H	0.692270	-0.776406	0.552780
H232	H	1.192270	-0.276406	1.052780
H233	H	0.657483	-0.727732	0.508693
H234	H	1.157483	-0.227732	1.008693
H235	H	0.726939	-0.750847	0.485501
H236	H	1.226939	-0.250847	0.985501
C237	C	0.100370	-0.778964	0.679130
C238	C	0.600370	-0.278964	1.179130
H239	H	0.140008	-0.804047	0.664556
H240	H	0.640008	-0.304047	1.164556
H241	H	0.095892	-0.773779	0.713167
H242	H	0.595892	-0.273779	1.213167
H243	H	0.072721	-0.796937	0.690033
H244	H	0.572721	-0.296937	1.190033
H245	H	0.692134	-0.508185	0.589902
H246	H	1.192134	-0.008185	1.089902
H247	H	0.028825	0.010378	0.445599
H248	H	0.528825	0.510378	0.945599
H249	H	0.207290	0.010797	0.444973
H250	H	0.707290	0.510797	0.944973
C251	C	0.025914	-0.458194	0.432629
C252	C	0.525914	0.041806	0.932629
H253	H	0.060550	-0.458036	0.397810
H254	H	0.560550	0.041964	0.897810
H255	H	-0.006740	-0.450925	0.423287
H256	H	0.493260	0.049075	0.923287
H257	H	0.016434	-0.427758	0.446410
H258	H	0.516434	0.072242	0.946410
C259	C	0.692347	-0.742066	0.715849
C260	C	1.192347	-0.242066	1.215849
H261	H	0.692358	-0.727602	0.741009
H262	H	1.192358	-0.227602	1.241009
H263	H	0.657640	-0.752970	0.733776
H264	H	1.157640	-0.252970	1.233776
H265	H	0.727096	-0.776081	0.710580
H266	H	1.227096	-0.276081	1.210580
H267	H	-0.046832	-0.652809	1.184615
H268	H	0.453168	-0.152809	1.684615
C269	C	0.050095	-0.470592	0.902023
C270	C	0.550095	0.029408	1.402023
H271	H	0.071341	-0.460305	0.860199
H272	H	0.571341	0.039695	1.360199
H273	H	0.025644	-0.491856	0.912301
H274	H	0.525644	0.008144	1.412301
H275	H	0.025645	-0.435146	0.912307
H276	H	0.525645	0.064854	1.412307
C277	C	0.221291	-0.621944	1.033579
C278	C	0.721291	-0.121944	1.533579
H279	H	0.260976	-0.627958	1.005924
H280	H	0.760976	-0.127958	1.505924
H281	H	0.215259	-0.602784	1.058022
H282	H	0.715259	-0.102784	1.558022
H283	H	0.215304	-0.659529	1.058040
H284	H	0.715304	-0.159529	1.558040
C285	C	0.265094	-0.578079	0.901947
C286	C	0.765094	-0.078079	1.401947
H287	H	0.286380	-0.602534	0.929581
H288	H	0.786380	-0.102534	1.429581
H289	H	0.275367	-0.599343	0.877488
H290	H	0.775367	-0.099343	1.377488
H291	H	0.275354	-0.542628	0.877499
H292	H	0.775354	-0.042628	1.377499
H293	H	0.023705	-0.518748	0.655609
H294	H	0.523705	-0.018748	1.155609
C295	C	0.221040	-0.621900	0.552418
C296	C	0.721040	-0.121900	1.052418
H297	H	0.260737	-0.627922	0.546381
H298	H	0.760737	-0.127922	1.046381
H299	H	0.215029	-0.659472	0.571551
H300	H	0.715029	-0.159472	1.071551
H301	H	0.214997	-0.602749	0.514849
H302	H	0.714997	-0.102749	1.014849
H303	H	-0.081177	0.010398	0.666600
H304	H	0.418823	0.510398	1.166600
C305	C	0.264932	-0.578026	0.596290
C306	C	0.764932	-0.078026	1.096290
H307	H	0.271549	-0.560420	0.613894
H308	H	0.771549	-0.060420	1.113894
H309	H	0.282552	-0.620321	0.610694
H310	H	0.782552	-0.120321	1.110694
H311	H	0.282515	-0.563597	0.553992
H312	H	0.782515	-0.063597	1.053992
C313	C	0.409449	-0.630801	0.690618
C314	C	0.909449	-0.130801	1.190618
H315	H	0.367628	-0.609601	0.701805
H316	H	0.867628	-0.109601	1.201805
H317	H	0.419711	-0.650618	0.664827
H318	H	0.919711	-0.150618	1.164827
H319	H	0.419744	-0.659504	0.725452
H320	H	0.919744	-0.159504	1.225452
C321	C	0.541071	-0.674683	0.646711
C322	C	1.041071	-0.174683	1.146711
H323	H	0.513435	-0.695669	0.667451
H324	H	1.013435	-0.195669	1.167451
H325	H	0.565509	-0.680497	0.609047
H326	H	1.065509	-0.180497	1.109047
H327	H	0.565537	-0.689388	0.669675
H328	H	1.065537	-0.189388	1.169675
H329	H	0.532080	-0.473208	0.574011
H330	H	1.032080	0.026792	1.074011
H331	H	0.418366	-0.435297	0.611936
H332	H	0.918366	0.064703	1.111936
H333	H	0.200842	-0.263395	0.554238
H334	H	0.700842	0.236605	1.054238
H335	H	0.070133	-0.149706	0.702094
H336	H	0.570133	0.350294	1.202094
C337	C	0.167212	-0.140713	0.498756
C338	C	0.667212	0.359287	0.998756
H339	H	0.191666	-0.168353	0.477480
H340	H	0.691666	0.331647	0.977480
H341	H	0.131758	-0.116261	0.488491
H342	H	0.631758	0.383739	0.988491
H343	H	0.188476	-0.116258	0.488476
H344	H	0.688476	0.383742	0.988476
H345	H	0.108067	-0.263426	0.739970
H346	H	0.608067	0.236574	1.239970
C347	C	0.223439	-0.655594	0.432493
C348	C	0.723439	-0.155594	0.932493
H349	H	0.223541	-0.620931	0.397694
H350	H	0.723541	-0.120931	0.897694
H351	H	0.253895	-0.665071	0.446242
H352	H	0.753895	-0.165071	0.946242
H353	H	0.230713	-0.688236	0.423125
H354	H	0.730713	-0.188236	0.923125
C355	C	-0.097158	-0.581559	0.679266
C356	C	0.402842	-0.081559	1.179266
H357	H	-0.122276	-0.541921	0.664739
H358	H	0.377724	-0.041921	1.164739
H359	H	-0.115105	-0.609229	0.690173
H360	H	0.384895	-0.109229	1.190173
H361	H	-0.091932	-0.586058	0.713292
H362	H	0.408068	-0.086058	1.213292
