data_functionalizedCrystal
_audit_creation_method	'MofGen! by Chris Wilmer'
_symmetry_space_group_name_H-M	'P1'
_symmetry_Int_Tables_number	1
_symmetry_cell_setting	triclinic
loop_
_symmetry_equiv_pos_as_xyz
  x,y,z
_cell_length_a	18.050591
_cell_length_b	18.050589
_cell_length_c	16.120379
_cell_angle_alpha	87.038840
_cell_angle_beta	92.857147
_cell_angle_gamma	90.024227
loop_
_atom_site_label
_atom_site_type_symbol
_atom_site_fract_x
_atom_site_fract_y
_atom_site_fract_z
Zn1	Zn	1.114156	-0.274172	-0.471566
Zn2	Zn	1.614156	0.225828	0.028434
Zn3	Zn	1.120315	-0.404745	-0.332157
Zn4	Zn	1.620315	0.095255	0.167843
Zn5	Zn	0.996224	-0.280565	-0.332148
Zn6	Zn	1.496224	0.219435	0.167852
Zn7	Zn	0.989926	-0.398319	-0.471515
Zn8	Zn	1.489926	0.101681	0.028485
O9	O	1.055155	-0.339451	-0.401846
O10	O	1.555155	0.160549	0.098154
O11	O	1.218897	-0.291507	-0.453098
O12	O	1.718897	0.208493	0.046902
O13	O	1.109068	-0.393638	-0.215487
O14	O	1.609068	0.106362	0.284513
O15	O	1.011927	-0.175792	-0.350659
O16	O	1.511927	0.324208	0.149341
O17	O	1.223422	-0.387439	-0.350675
O18	O	1.723422	0.112561	0.149325
O19	O	1.098571	-0.171095	-0.453089
O20	O	1.598571	0.328905	0.046911
O21	O	1.017899	-0.302403	-0.215480
O22	O	1.517899	0.197597	0.284520
O23	O	0.891465	-0.296172	-0.350610
O24	O	1.391465	0.203828	0.149390
O25	O	1.001191	-0.376486	-0.588191
O26	O	1.501191	0.123514	-0.088191
O27	O	0.886838	-0.382685	-0.453003
O28	O	1.386838	0.117315	0.046997
O29	O	1.092463	-0.285276	-0.588228
O30	O	1.592463	0.214724	-0.088228
O31	O	1.102961	-0.507818	-0.350626
O32	O	1.602961	-0.007818	0.149374
O33	O	1.007164	-0.503097	-0.453012
O34	O	1.507164	-0.003097	0.046988
C35	C	0.862205	-0.339425	-0.401800
C36	C	1.362205	0.160575	0.098200
C37	C	0.779660	-0.339431	-0.401800
C38	C	1.279660	0.160569	0.098200
C39	C	0.582698	-0.292322	-0.346247
C40	C	1.082698	0.207678	0.153753
C41	C	0.534198	-0.360998	-0.325736
C42	C	1.034198	0.139002	0.174264
C43	C	0.628527	-0.339452	-0.401838
C44	C	1.128527	0.160548	0.098162
C45	C	0.529946	-0.270799	-0.422347
C46	C	1.029946	0.229201	0.077653
C47	C	0.482541	-0.339466	-0.401873
C48	C	0.982541	0.160534	0.098127
C49	C	0.581116	-0.408165	-0.381287
C50	C	1.081116	0.091835	0.118713
C51	C	0.576867	-0.317919	-0.477934
C52	C	1.076867	0.182081	0.022066
C53	C	0.528388	-0.386641	-0.457451
C54	C	1.028388	0.113359	0.042549
C55	C	0.712627	-0.339443	-0.401816
C56	C	1.212627	0.160557	0.098184
C57	C	0.398443	-0.339483	-0.401895
C58	C	0.898443	0.160517	0.098105
C59	C	1.055066	-0.532403	-0.401833
C60	C	1.555066	-0.032403	0.098167
C61	C	1.055095	-0.614948	-0.401855
C62	C	1.555095	-0.114948	0.098145
C63	C	1.003050	-0.811859	-0.457513
C64	C	1.503050	-0.311859	0.042487
C65	C	0.988362	-0.864779	-0.381433
C66	C	1.488362	-0.364779	0.118567
C67	C	1.055167	-0.766078	-0.401865
C68	C	1.555167	-0.266078	0.098135
C69	C	1.069891	-0.860240	-0.477954
C70	C	1.569891	-0.360240	0.022046
C71	C	1.055236	-0.912062	-0.401883
C72	C	1.555236	-0.412062	0.098117
C73	C	1.040446	-0.817912	-0.325745
C74	C	1.540446	-0.317912	0.174255
C75	C	1.122004	-0.813366	-0.422318
C76	C	1.622004	-0.313366	0.077682
C77	C	1.107344	-0.866266	-0.346186
C78	C	1.607344	-0.366266	0.153814
C79	C	1.055126	-0.681980	-0.401857
C80	C	1.555126	-0.181980	0.098143
C81	C	1.055278	-0.996159	-0.401883
C82	C	1.555278	-0.496159	0.098117
C83	C	1.248859	-0.339477	-0.401893
C84	C	1.748859	0.160523	0.098107
C85	C	1.331404	-0.339488	-0.401913
C86	C	1.831404	0.160512	0.098087
C87	C	1.045438	-0.329451	-0.619307
C88	C	1.545438	0.170549	-0.119307
C89	C	1.041296	-0.325189	-0.711975
C90	C	1.541296	0.174811	-0.211975
C91	C	1.055264	-0.145743	-0.401879
C92	C	1.555264	0.354257	0.098121
C93	C	1.055311	-0.063197	-0.401892
C94	C	1.555311	0.436803	0.098108
C95	C	1.064878	-0.349358	-0.185232
C96	C	1.564878	0.150642	0.314768
C97	C	1.069163	-0.353410	-0.092564
C98	C	1.569163	0.146590	0.407436
C99	C	1.076997	-0.360808	0.077101
C100	C	1.576997	0.139192	0.577101
C101	C	1.033465	-0.317793	0.118365
C102	C	1.533465	0.182207	0.618365
C103	C	1.037824	-0.321910	0.212772
C104	C	1.537824	0.178090	0.712772
C105	C	1.072639	-0.356693	-0.017315
C106	C	1.572639	0.143307	0.482685
H107	H	0.603475	-0.466250	-0.363883
H108	H	1.103475	0.033750	0.136117
O109	O	0.614188	-0.239593	-0.283911
O110	O	1.114188	0.260407	0.216089
H111	H	0.646581	-0.195754	-0.316537
H112	H	1.146581	0.304246	0.183463
H113	H	1.117536	-0.400723	0.112675
H114	H	1.617536	0.099277	0.612675
O115	O	0.509216	-0.385145	-0.240519
O116	O	1.009216	0.114855	0.259481
H117	H	0.475607	-0.340336	-0.216256
H118	H	0.975607	0.159664	0.283744
H119	H	0.504759	-0.426552	-0.504477
H120	H	1.004759	0.073448	-0.004477
O121	O	1.086359	-0.885019	-0.563178
O122	O	1.586359	-0.385019	-0.063178
H123	H	1.042985	-0.863160	-0.609237
H124	H	1.542985	-0.363160	-0.109237
H125	H	0.595740	-0.299677	-0.542252
H126	H	1.095740	0.200323	-0.042252
O127	O	0.979756	-0.264917	0.071251
O128	O	1.479756	0.235083	0.571251
H129	H	0.984712	-0.269945	0.003418
H130	H	1.484712	0.230055	0.503418
H131	H	0.958918	-0.788055	-0.504505
H132	H	1.458918	-0.288055	-0.004505
O133	O	0.500214	-0.193889	-0.445319
O134	O	1.000214	0.306111	0.054681
H135	H	0.522052	-0.154872	-0.399069
H136	H	1.022052	0.345128	0.100931
H137	H	0.931873	-0.887347	-0.364150
H138	H	1.431873	-0.387347	0.135850
H139	H	1.178479	-0.790798	-0.439637
H140	H	1.678479	-0.290798	0.060363
O141	O	1.023893	-0.793262	-0.240493
O142	O	1.523893	-0.293262	0.259507
H143	H	1.023964	-0.731743	-0.241165
H144	H	1.523964	-0.231743	0.258835
H145	H	1.151450	-0.889938	-0.299080
H146	H	1.651450	-0.389938	0.200920
