data_functionalizedCrystal
_audit_creation_method	'MofGen! by Chris Wilmer'
_symmetry_space_group_name_H-M	'P1'
_symmetry_Int_Tables_number	1
_symmetry_cell_setting	triclinic
loop_
_symmetry_equiv_pos_as_xyz
  x,y,z
_cell_length_a	19.077105
_cell_length_b	17.637651
_cell_length_c	19.076919
_cell_angle_alpha	99.433464
_cell_angle_beta	89.923776
_cell_angle_gamma	98.499620
loop_
_atom_site_label
_atom_site_type_symbol
_atom_site_fract_x
_atom_site_fract_y
_atom_site_fract_z
Zn1	Zn	0.993412	-0.376382	0.369993
Zn2	Zn	1.493412	0.123618	0.869993
Zn3	Zn	0.976496	-0.501474	0.229080
Zn4	Zn	1.476496	-0.001474	0.729080
Zn5	Zn	0.882426	-0.365960	0.249736
Zn6	Zn	1.382426	0.134040	0.749736
Zn7	Zn	0.854398	-0.501005	0.341921
Zn8	Zn	1.354398	-0.001005	0.841921
O9	O	0.926683	-0.436205	0.297682
O10	O	1.426683	0.063795	0.797682
O11	O	1.088714	-0.397534	0.354404
O12	O	1.588714	0.102466	0.854404
O13	O	0.968667	-0.479332	0.134268
O14	O	1.468667	0.020668	0.634268
O15	O	0.915957	-0.258475	0.286082
O16	O	1.415957	0.241525	0.786082
O17	O	1.076286	-0.489438	0.250876
O18	O	1.576286	0.010562	0.750876
O19	O	0.997498	-0.266132	0.374434
O20	O	1.497498	0.233868	0.874434
O21	O	0.899554	-0.379771	0.149444
O22	O	1.399554	0.120229	0.649444
O23	O	0.781161	-0.379316	0.258861
O24	O	1.281161	0.120684	0.758861
O25	O	0.868189	-0.488639	0.443196
O26	O	1.368189	0.011361	0.943196
O27	O	0.760570	-0.478533	0.326588
O28	O	1.260570	0.021467	0.826588
O29	O	0.970321	-0.397079	0.463821
O30	O	1.470321	0.102921	0.963821
O31	O	0.941491	-0.610280	0.223656
O32	O	1.441491	-0.110280	0.723656
O33	O	0.851786	-0.609935	0.306559
O34	O	1.351786	-0.109935	0.806559
C35	C	0.745573	-0.427743	0.291920
C36	C	1.245573	0.072257	0.791920
C37	C	0.668089	-0.424142	0.289468
C38	C	1.168089	0.075858	0.789468
C39	C	0.620975	-0.474180	0.323494
C40	C	1.120975	0.025820	0.823494
C41	C	0.548173	-0.470786	0.321195
C42	C	1.048173	0.029214	0.821195
C43	C	0.522485	-0.417359	0.284866
C44	C	1.022485	0.082641	0.784866
C45	C	0.569605	-0.367316	0.250840
C46	C	1.069605	0.132684	0.750840
C47	C	0.642407	-0.370706	0.253143
C48	C	1.142407	0.129294	0.753143
C49	C	0.305902	-0.401669	0.274209
C50	C	0.805902	0.098331	0.774209
C51	C	0.233094	-0.398284	0.271907
C52	C	0.733094	0.101716	0.771907
C53	C	0.211666	-0.501754	0.342264
C54	C	0.711666	-0.001754	0.842264
C55	C	0.284470	-0.505142	0.344561
C56	C	0.784470	-0.005142	0.844561
C57	C	0.331584	-0.455097	0.310537
C58	C	0.831584	0.044903	0.810537
N59	N	0.448069	-0.413891	0.282514
N60	N	0.948069	0.086109	0.782514
N61	N	0.405999	-0.458562	0.312894
N62	N	0.905999	0.041438	0.812894
C63	C	0.891780	-0.638337	0.259835
C64	C	1.391780	-0.138337	0.759835
C65	C	0.876910	-0.724814	0.243670
C66	C	1.376910	-0.224814	0.743670
C67	C	1.040085	-1.028866	0.420726
C68	C	1.540085	-0.528866	0.920726
C69	C	1.026091	-1.110122	0.405523
C70	C	1.526091	-0.610122	0.905523
C71	C	0.941246	-1.102255	0.313438
C72	C	1.441246	-0.602255	0.813438
C73	C	0.955235	-1.020996	0.328631
C74	C	1.455235	-0.520996	0.828631
C75	C	1.004654	-0.984308	0.382276
C76	C	1.504654	-0.484308	0.882276
C77	C	0.919805	-0.976439	0.290181
C78	C	1.419805	-0.476439	0.790181
C79	C	0.933790	-0.895187	0.305376
C80	C	1.433790	-0.395187	0.805376
C81	C	0.983205	-0.858493	0.359020
C82	C	1.483205	-0.358493	0.859020
C83	C	1.018640	-0.903056	0.397471
C84	C	1.518640	-0.403056	0.897471
C85	C	0.870382	-1.013129	0.236540
C86	C	1.370382	-0.513129	0.736540
C87	C	0.834951	-0.968571	0.198090
C88	C	1.334951	-0.468571	0.698090
C89	C	0.848940	-0.887318	0.213281
C90	C	1.348940	-0.387318	0.713281
C91	C	0.898356	-0.850623	0.266925
C92	C	1.398356	-0.350623	0.766925
C93	C	0.813506	-0.842754	0.174830
C94	C	1.313506	-0.342754	0.674830
C95	C	0.827491	-0.761502	0.190024
C96	C	1.327491	-0.261502	0.690024
C97	C	0.912341	-0.769372	0.282119
C98	C	1.412341	-0.269372	0.782119
C99	C	1.108500	-0.444701	0.303467
C100	C	1.608500	0.055299	0.803467
C101	C	1.185980	-0.448321	0.305933
C102	C	1.685980	0.051679	0.805933
C103	C	0.918016	-0.443969	0.479510
C104	C	1.418016	0.056031	0.979510
C105	C	0.914322	-0.447278	0.556994
C106	C	1.414322	0.052722	1.056994
C107	C	0.961741	-0.233286	0.335693
C108	C	1.461741	0.266714	0.835693
C109	C	0.976681	-0.146813	0.351891
C110	C	1.476681	0.353187	0.851891
C111	C	0.935366	-0.428417	0.116574
C112	C	1.435366	0.071583	0.616574
C113	C	0.939233	-0.424896	0.039136
C114	C	1.439233	0.075104	0.539136
C115	C	0.965759	-0.401164	0.604135
C116	C	1.465759	0.098836	1.104135
C117	C	0.962281	-0.404269	0.676940
C118	C	1.462281	0.095731	1.176940
C119	C	0.907368	-0.453493	0.702601
C120	C	1.407368	0.046507	1.202601
C121	C	0.855926	-0.499608	0.655455
C122	C	1.355926	0.000392	1.155455
C123	C	0.859402	-0.496498	0.582652
C124	C	1.359402	0.003502	1.082652
C125	C	0.891267	-0.467902	0.919187
C126	C	1.391267	0.032098	1.419187
C127	C	0.887796	-0.471010	0.991995
C128	C	1.387796	0.028990	1.491995
C129	C	0.994151	-0.375669	1.013475
C130	C	1.494151	0.124331	1.513475
C131	C	0.997624	-0.372567	0.940669
C132	C	1.497624	0.127433	1.440669
C133	C	0.946180	-0.418679	0.893530
C134	C	1.446180	0.081321	1.393530
N135	N	0.903812	-0.456670	0.777019
N136	N	1.403812	0.043330	1.277019
N137	N	0.949733	-0.415498	0.819114
N138	N	1.449733	0.084502	1.319114
H139	H	0.305378	-0.548650	0.374142
H140	H	0.805378	-0.048650	0.874142
O141	O	1.093390	-0.989283	0.478585
O142	O	1.593390	-0.489283	0.978585
H143	H	1.115679	-1.033916	0.502773
H144	H	1.615679	-0.533916	1.002773
H145	H	0.641883	-0.517689	0.353075
H146	H	1.141883	-0.017689	0.853075
H147	H	1.058888	-0.873184	0.441150
H148	H	1.558888	-0.373184	0.941150
O149	O	1.056853	-0.319472	0.912997
O150	O	1.556853	0.180528	1.412997
H151	H	1.050633	-0.325063	0.854452
H152	H	1.550633	0.174937	1.354452
O153	O	0.789285	-0.713438	0.148549
O154	O	1.289285	-0.213438	0.648549
H155	H	0.731306	-0.727026	0.155785
H156	H	1.231306	-0.227026	0.655785
H157	H	0.952589	-0.739499	0.325798
H158	H	1.452589	-0.239499	0.825798
H159	H	0.344253	-0.360924	0.246499
H160	H	0.844253	0.139076	0.746499
H161	H	0.773264	-0.872638	0.131156
H162	H	1.273264	-0.372638	0.631156
O163	O	0.541899	-0.309689	0.211659
O164	O	1.041899	0.190311	0.711659
H165	H	0.586895	-0.275459	0.188391
H166	H	1.086895	0.224541	0.688391
H167	H	0.849385	-0.505462	0.880812
H168	H	1.349385	-0.005462	1.380812
H169	H	1.054937	-1.146399	0.436847
H170	H	1.554937	-0.646399	0.936847
O171	O	0.796692	-0.552697	0.683128
O172	O	1.296692	-0.052697	1.183128
H173	H	0.802918	-0.547117	0.741671
H174	H	1.302918	-0.047117	1.241671
H175	H	1.036033	-0.338126	1.051864
H176	H	1.536033	0.161874	1.551864
H177	H	0.173299	-0.542497	0.369965
H178	H	0.673299	-0.042497	0.869965
H179	H	0.843076	-0.511095	1.012885
H180	H	1.343076	-0.011095	1.512885
O181	O	0.803917	-0.546224	0.531803
O182	O	1.303917	-0.046224	1.031803
H183	H	0.765148	-0.580975	0.561877
H184	H	1.265148	-0.080975	1.061877
H185	H	1.010477	-0.361083	0.583247
H186	H	1.510477	0.138917	1.083247
H187	H	0.680768	-0.329957	0.225440
H188	H	1.180768	0.170043	0.725440
H189	H	0.794712	-0.998454	0.154413
H190	H	1.294712	-0.498454	0.654413
O191	O	1.017761	-0.354535	0.727786
O192	O	1.517761	0.145465	1.227786
H193	H	1.070828	-0.369849	0.713061
H194	H	1.570828	0.130151	1.213061
O195	O	0.497405	-0.524901	0.357796
O196	O	0.997405	-0.024901	0.857796
H197	H	0.511037	-0.514759	0.415453
H198	H	1.011037	-0.014759	0.915453
O199	O	0.205384	-0.340651	0.232728
O200	O	0.705384	0.159349	0.732728
H201	H	0.250377	-0.306415	0.209462
H202	H	0.750377	0.193585	0.709462
H203	H	0.901007	-1.132138	0.269762
H204	H	1.401007	-0.632138	0.769762
O205	O	0.998299	-0.770856	0.375407
O206	O	1.498299	-0.270856	0.875407
H207	H	0.948724	-0.747605	0.391773
H208	H	1.448724	-0.247605	0.891773
O209	O	0.855306	-1.100766	0.220145
O210	O	1.355306	-0.600766	0.720145
H211	H	0.834994	-1.123773	0.268259
H212	H	1.334994	-0.623773	0.768259
