data_functionalizedCrystal
_audit_creation_method	'MofGen! by Chris Wilmer'
_symmetry_space_group_name_H-M	'P1'
_symmetry_Int_Tables_number	1
_symmetry_cell_setting	triclinic
loop_
_symmetry_equiv_pos_as_xyz
  x,y,z
_cell_length_a	12.827893
_cell_length_b	14.908520
_cell_length_c	12.827885
_cell_angle_alpha	93.263516
_cell_angle_beta	89.980918
_cell_angle_gamma	93.320754
loop_
_atom_site_label
_atom_site_type_symbol
_atom_site_fract_x
_atom_site_fract_y
_atom_site_fract_z
Zn1	Zn	1.573615	-0.359110	-0.614811
Zn2	Zn	1.563402	-0.509994	-0.450142
Zn3	Zn	1.398853	-0.359155	-0.440088
Zn4	Zn	1.388739	-0.509927	-0.624838
O5	O	1.481152	-0.434546	-0.532470
O6	O	1.718496	-0.379134	-0.592978
O7	O	1.541533	-0.490031	-0.302575
O8	O	1.430543	-0.232904	-0.454862
O9	O	1.710992	-0.489988	-0.471996
O10	O	1.558939	-0.232872	-0.583230
O11	O	1.420640	-0.379210	-0.295189
O12	O	1.251276	-0.379146	-0.464584
O13	O	1.413305	-0.489875	-0.769741
O14	O	1.243845	-0.489918	-0.600319
O15	O	1.549132	-0.379070	-0.762374
O16	O	1.531726	-0.636229	-0.481719
O17	O	1.403402	-0.636180	-0.610067
C18	C	1.209644	-0.434530	-0.532449
C19	C	1.093489	-0.434544	-0.532467
C20	C	0.918004	-0.489457	-0.599557
C21	C	1.038056	-0.489444	-0.599541
C22	C	1.465386	-0.668939	-0.548095
C23	C	1.458737	-0.769212	-0.554814
C24	C	1.580004	-0.957628	-0.433900
C25	C	1.573760	-1.051844	-0.440210
C26	C	1.440012	-1.051863	-0.573750
C27	C	1.446255	-0.957647	-0.567439
C28	C	1.516253	-0.910532	-0.497511
C29	C	1.522491	-0.816314	-0.491196
C30	C	1.388748	-0.816335	-0.624741
C31	C	1.382504	-0.910551	-0.631051
C32	C	1.753721	-0.434564	-0.532490
C33	C	1.869874	-0.434571	-0.532499
C34	C	1.481229	-0.434460	-0.805034
C35	C	1.481262	-0.434423	-0.921185
C36	C	1.497008	-0.199239	-0.516806
C37	C	1.503765	-0.098965	-0.510131
C38	C	1.548481	-0.379582	-0.969324
C39	C	1.548517	-0.379543	-1.089372
C40	C	1.481140	-0.434568	-0.260961
C41	C	1.481327	-0.434350	-0.144794
H42	H	1.079461	-0.536429	-0.656956
F43	F	0.932178	-0.373140	-0.457435
F44	F	1.039381	-0.373116	-0.457426
H45	H	1.579484	-0.777955	-0.434254
H46	H	1.606069	-0.332595	-1.130784
F47	F	1.654486	-0.907483	-0.359465
F48	F	1.406105	-0.495728	-1.090676
H49	H	1.423733	-0.481339	-0.968846
F50	F	0.855699	-0.550904	-0.674604
F51	F	1.365533	-1.102021	-0.648178
F52	F	1.641615	-1.101963	-0.372508
H53	H	1.336834	-0.777979	-0.676534
F54	F	1.623651	-0.318232	-0.907031
F55	F	1.308016	-0.960704	-0.705473
