data_functionalizedCrystal
_audit_creation_method	'MofGen! by Chris Wilmer'
_symmetry_space_group_name_H-M	'P1'
_symmetry_Int_Tables_number	1
_symmetry_cell_setting	triclinic
loop_
_symmetry_equiv_pos_as_xyz
  x,y,z
_cell_length_a	18.101398
_cell_length_b	18.101395
_cell_length_c	12.759393
_cell_angle_alpha	89.966505
_cell_angle_beta	89.972557
_cell_angle_gamma	90.028835
loop_
_atom_site_label
_atom_site_type_symbol
_atom_site_fract_x
_atom_site_fract_y
_atom_site_fract_z
Zn1	Zn	1.132140	-0.294830	-0.594220
Zn2	Zn	1.132031	-0.418692	-0.418534
Zn3	Zn	1.008294	-0.294864	-0.418531
Zn4	Zn	1.008250	-0.418630	-0.594148
O5	O	1.070179	-0.356754	-0.506358
O6	O	1.235759	-0.311273	-0.570946
O7	O	1.115589	-0.402306	-0.271512
O8	O	1.024786	-0.191227	-0.441866
O9	O	1.235678	-0.402274	-0.441870
O10	O	1.115776	-0.191202	-0.570943
O11	O	1.024680	-0.311330	-0.271511
O12	O	0.904655	-0.311270	-0.441796
O13	O	1.024712	-0.402167	-0.741178
O14	O	0.904623	-0.402200	-0.570821
O15	O	1.115734	-0.311212	-0.741231
O16	O	1.115547	-0.522317	-0.441800
O17	O	1.024606	-0.522271	-0.570823
C18	C	0.877768	-0.356732	-0.506301
C19	C	0.795454	-0.356741	-0.506302
C20	C	0.644746	-0.356756	-0.506349
C21	C	0.613387	-0.299463	-0.425305
C22	C	0.527769	-0.299247	-0.425571
C23	C	0.496363	-0.356771	-0.506394
C24	C	0.527507	-0.335929	-0.617241
C25	C	0.613151	-0.335505	-0.616746
C26	C	0.613141	-0.435039	-0.477522
C27	C	0.527489	-0.434626	-0.475107
C28	C	0.412504	-0.356780	-0.506426
C29	C	0.728605	-0.356744	-0.506324
C30	C	1.070080	-0.549165	-0.506327
C31	C	1.070105	-0.631479	-0.506349
C32	C	1.070267	-0.930570	-0.506406
C33	C	1.013183	-0.899246	-0.587785
C34	C	1.012911	-0.813628	-0.587530
C35	C	1.070187	-0.782187	-0.506379
C36	C	1.049054	-0.813346	-0.395649
C37	C	1.048686	-0.898991	-0.396136
C38	C	1.148610	-0.898914	-0.534782
C39	C	1.148149	-0.813263	-0.537210
C40	C	1.070142	-0.698328	-0.506356
C41	C	1.070310	-1.014429	-0.506421
C42	C	1.263341	-0.356776	-0.506416
C43	C	1.345655	-0.356786	-0.506441
C44	C	1.070230	-0.356679	-0.780392
C45	C	1.070252	-0.356647	-0.897168
C46	C	1.070298	-0.163592	-0.506412
C47	C	1.070349	-0.081278	-0.506435
C48	C	1.022933	-0.309267	-0.952029
C49	C	1.022950	-0.309245	-1.061753
C50	C	1.117613	-0.403983	-1.061746
C51	C	1.117591	-0.404009	-0.952024
C52	C	1.070170	-0.356775	-0.233391
C53	C	1.070291	-0.356598	-0.116615
H54	H	0.506709	-0.312252	-0.343393
H55	H	0.954842	-0.793204	-0.568733
F56	F	0.972579	-0.258824	-1.120135
F57	F	1.167992	-0.454386	-1.120137
H58	H	0.633926	-0.312319	-0.342854
H59	H	0.991418	-0.919034	-0.372100
F60	F	0.974992	-0.785398	-0.363669
F61	F	0.500925	-0.388809	-0.698355
F62	F	0.641550	-0.224073	-0.449997
F63	F	0.639302	-0.260723	-0.648595
H64	H	0.507307	-0.241245	-0.444709
F65	F	1.101688	-0.786731	-0.314231
F66	F	1.204203	-0.925402	-0.457323
H67	H	1.088460	-0.919715	-0.333434
H68	H	0.633900	-0.375436	-0.679221
H69	H	1.167876	-0.920457	-0.614150
H70	H	1.164086	-0.792894	-0.618701
F71	F	0.641316	-0.459913	-0.373634
H72	H	1.026273	-0.919788	-0.670155
H73	H	1.026133	-0.792559	-0.669635
F74	F	0.499510	-0.261975	-0.649654
H75	H	1.156126	-0.442595	-0.907356
H76	H	0.507131	-0.450348	-0.393528
F77	F	0.499568	-0.493377	-0.546618
F78	F	1.206685	-0.785279	-0.465391
F79	F	0.639663	-0.490832	-0.554655
H80	H	0.984387	-0.270702	-0.907368
F81	F	0.937745	-0.927473	-0.563543
