data_functionalizedCrystal
_audit_creation_method	'MofGen! by Chris Wilmer'
_symmetry_space_group_name_H-M	'P1'
_symmetry_Int_Tables_number	1
_symmetry_cell_setting	triclinic
loop_
_symmetry_equiv_pos_as_xyz
  x,y,z
_cell_length_a	31.640172
_cell_length_b	18.426585
_cell_length_c	31.640172
_cell_angle_alpha	119.999400
_cell_angle_beta	89.990838
_cell_angle_gamma	59.997286
loop_
_atom_site_label
_atom_site_type_symbol
_atom_site_fract_x
_atom_site_fract_y
_atom_site_fract_z
Zr1	Zr	0.407171	0.794274	0.055396
O2	O	0.339671	0.945703	0.122892
O3	O	0.427864	0.642866	0.034708
O4	O	0.427850	0.794285	0.122883
O5	O	0.339695	0.794269	-0.034841
O6	O	0.497407	0.794270	0.122874
O7	O	0.339685	0.794284	0.034716
O8	O	0.497432	0.523409	-0.034856
O9	O	0.339670	1.065130	0.122889
O10	O	0.488598	0.705123	0.025874
O11	O	0.436697	0.705123	-0.026028
O12	O	0.436680	0.883399	0.077787
O13	O	0.384779	0.883399	0.025884
Zr14	Zr	0.518124	0.794225	-0.055554
Zr15	Zr	0.518107	0.794250	0.055382
Zr16	Zr	0.407188	0.794249	-0.055539
Zr17	Zr	0.407171	0.984746	0.055392
Zr18	Zr	0.518124	0.603754	-0.055550
O19	O	0.497431	0.945634	-0.034865
O20	O	0.497406	0.945669	0.122871
O21	O	0.339695	0.945668	-0.034844
O22	O	0.585624	0.642796	-0.123050
O23	O	0.585600	0.642832	0.034687
O24	O	0.427888	0.642830	-0.123029
O25	O	0.585599	0.794231	0.034683
O26	O	0.497445	0.794215	-0.123041
O27	O	0.427888	0.794230	-0.123032
O28	O	0.585610	0.794215	-0.034874
O29	O	0.427849	1.065111	0.122877
O30	O	0.497446	0.523389	-0.123035
O31	O	0.585625	0.523370	-0.123047
O32	O	0.585611	0.523390	-0.034868
O33	O	0.339684	1.065110	0.034710
O34	O	0.427863	1.065091	0.034698
O35	O	0.488614	0.705100	-0.077945
O36	O	0.540516	0.705101	-0.026042
O37	O	0.488598	0.883377	0.025871
O38	O	0.436696	0.883376	-0.026032
C39	C	0.462648	0.555999	-0.000074
C40	C	0.462648	0.475139	-0.000072
C41	C	0.462645	0.179029	-0.000087
C42	C	0.462645	0.261416	-0.000084
C43	C	0.462646	0.327082	-0.000079
C44	C	0.462647	0.409473	-0.000077
C45	C	0.323884	0.794280	-0.000060
C46	C	0.276789	0.794290	-0.000054
C47	C	0.011884	0.701182	-0.027187
C48	C	-0.165101	0.701164	-0.027198
O49	O	-0.164939	0.622021	-0.050262
N50	N	-0.214332	0.794222	-0.000099
C51	C	-0.219315	0.887290	0.027001
O52	O	-0.265250	0.966441	0.050046
C53	C	-0.042331	0.887307	0.027008
C54	C	0.006899	0.794243	-0.000088
C55	C	0.061112	0.608126	-0.054282
C56	C	0.105355	0.608131	-0.054277
C57	C	0.100370	0.701193	-0.027177
C58	C	0.051143	0.794249	-0.000083
C59	C	-0.047315	0.980375	0.054105
C60	C	-0.003063	0.980371	0.054104
C61	C	0.046167	0.887307	0.027007
C62	C	0.090402	0.887316	0.027022
N63	N	0.139632	0.794258	-0.000077
C64	C	0.144616	0.701197	-0.027176
C65	C	-0.312233	0.887275	0.026997
C66	C	-0.356479	0.887271	0.026996
C67	C	-0.302262	0.701144	-0.027204
C68	C	-0.258015	0.701149	-0.027200
C69	C	-0.263002	0.794217	-0.000102
C70	C	0.237529	0.701215	-0.027163
C71	C	0.281773	0.701229	-0.027154
C72	C	0.227553	0.887355	0.027044
C73	C	0.183312	0.887342	0.027037
C74	C	0.188303	0.794263	-0.000070
O75	O	0.090279	0.966417	0.050070
O76	O	0.190555	0.622058	-0.050227
C77	C	-0.032360	0.701176	-0.027192
C78	C	-0.081587	0.794233	-0.000098
C79	C	-0.086572	0.887294	0.027001
C80	C	-0.125833	0.794229	-0.000099
C81	C	-0.120849	0.701167	-0.027198
C82	C	-0.071618	0.608110	-0.054297
C83	C	-0.027375	0.608115	-0.054292
C84	C	-0.135802	0.980352	0.054100
C85	C	-0.180043	0.980339	0.054093
C86	C	-0.175059	0.887277	0.026994
C87	C	0.601411	0.794220	-0.000097
C88	C	0.648506	0.794210	-0.000104
C89	C	0.462626	0.794281	0.138685
C90	C	0.462619	0.794291	0.185780
C91	C	0.462647	1.032501	-0.000084
C92	C	0.462646	1.113361	-0.000086
C93	C	0.500972	0.794243	0.477783
C94	C	0.500981	0.794236	0.654772
O95	O	0.533584	0.794184	0.677640
N96	N	0.462661	0.794247	0.676908
C97	C	0.424337	0.794253	0.654792
O98	O	0.391747	0.794252	0.677678
C99	C	0.424330	0.794252	0.477802
C100	C	0.462650	0.794252	0.455672
C101	C	0.539289	0.794241	0.455652
C102	C	0.539284	0.794248	0.411409
C103	C	0.500963	0.794257	0.389298
C104	C	0.462646	0.794259	0.411429
C105	C	0.386009	0.794251	0.455685
C106	C	0.386012	0.794248	0.411434
C107	C	0.424331	0.794247	0.389303
C108	C	0.424320	0.794275	0.345074
N109	N	0.462640	0.794264	0.322938
C110	C	0.500962	0.794255	0.345050
C111	C	0.424343	0.794256	0.747715
C112	C	0.424344	0.794258	0.791962
C113	C	0.500989	0.794239	0.791939
C114	C	0.500985	0.794244	0.747692
C115	C	0.462663	0.794245	0.725579
C116	C	0.500949	0.794271	0.252137
C117	C	0.500940	0.794282	0.207892
C118	C	0.424297	0.794296	0.207918
C119	C	0.424304	0.794290	0.252161
C120	C	0.462635	0.794274	0.274268
O121	O	0.391737	0.794315	0.322175
O122	O	0.533554	0.794233	0.322150
C123	C	0.500976	0.794235	0.522026
C124	C	0.462659	0.794237	0.544157
C125	C	0.424337	0.794246	0.522045
C126	C	0.462660	0.794239	0.588405
C127	C	0.500982	0.794230	0.610517
C128	C	0.539302	0.794219	0.588381
C129	C	0.539298	0.794226	0.544138
C130	C	0.386017	0.794258	0.544181
C131	C	0.386024	0.794252	0.588425
C132	C	0.424346	0.794242	0.610536
C133	C	0.462666	0.794229	0.861160
C134	C	0.462666	0.794249	0.814074
C135	C	0.601411	0.555969	-0.000092
C136	C	0.648507	0.475099	-0.000097
C137	C	0.462670	0.555968	-0.138837
C138	C	0.462677	0.475097	-0.185931
C139	C	0.601433	0.555938	-0.138856
C140	C	0.648535	0.475057	-0.185955
C141	C	0.323862	1.032562	0.138698
C142	C	0.276759	1.113442	0.185798
C143	C	0.323883	1.032531	-0.000066
C144	C	0.276788	1.113401	-0.000061
C145	C	0.462625	1.032532	0.138680
C146	C	0.462618	1.113402	0.185773
C147	C	0.643523	0.437133	0.027006
C148	C	0.687769	0.361157	0.027012
C149	C	0.737000	0.323143	-0.000088
C150	C	0.741983	0.361117	-0.027191
C151	C	0.697736	0.437096	-0.027194
C152	C	0.489781	0.437108	-0.235151
C153	C	0.489786	0.361132	-0.279404
C154	C	0.462690	0.323142	-0.274436
C155	C	0.435583	0.361139	-0.225211
C156	C	0.435575	0.437119	-0.180959
C157	C	0.697752	0.437075	-0.180981
C158	C	0.742014	0.361089	-0.225232
C159	C	0.737058	0.323082	-0.274457
C160	C	0.687837	0.361072	-0.279430
C161	C	0.643576	0.437061	-0.235180
C162	C	0.227543	1.151434	0.180823
C163	C	0.183281	1.227443	0.225074
C164	C	0.188236	1.265454	0.274299
C165	C	0.237458	1.227459	0.279272
C166	C	0.281719	1.151457	0.235022
C167	C	0.281772	1.151375	-0.027159
C168	C	0.237525	1.227371	-0.027153
C169	C	0.188295	1.265388	-0.000052
C170	C	0.183312	1.227411	0.027050
C171	C	0.227558	1.151421	0.027046
C172	C	0.489719	1.151368	0.180788
C173	C	0.489722	1.227345	0.225033
C174	C	0.462620	1.265359	0.274262
C175	C	0.435518	1.227385	0.279246
C176	C	0.435518	1.151405	0.235001
H177	H	0.321859	0.625442	-0.049220
O178	O	0.130211	1.268425	0.056279
H179	H	0.125706	1.204653	0.040623
H180	H	0.393097	0.794305	0.270184
H181	H	0.782072	0.330155	-0.049255
O182	O	0.242907	1.268307	-0.056394
H183	H	0.264403	1.302894	-0.040749
H184	H	0.413522	0.330196	-0.221174
O185	O	0.406423	0.477948	-0.127871
H186	H	0.387618	0.438704	-0.131857
O187	O	0.703103	0.478072	-0.127891
H188	H	0.744766	0.438896	-0.131875
H189	H	0.223493	1.120505	0.049111
H190	H	0.511791	1.258255	0.220966
O191	O	0.795103	0.320134	-0.219872
H192	H	0.816580	0.236309	-0.238745
O193	O	0.518959	1.110363	0.127694
H194	H	0.537808	1.149527	0.131670
H195	H	0.413453	1.258348	0.319334
O196	O	0.140573	1.347320	-0.000066
H197	H	0.152315	1.367316	-0.023474
H198	H	0.603503	0.467977	-0.239237
H199	H	-0.139869	1.056135	0.076169
H200	H	0.321854	1.120427	-0.049231
H201	H	0.413447	1.120502	0.239067
O202	O	0.462614	1.347322	0.321982
H203	H	0.486009	1.367340	0.310240
H204	H	0.143207	1.258366	0.221015
O205	O	-0.296889	0.600768	-0.056432
H206	H	-0.275391	0.556137	-0.098079
O207	O	0.242917	0.600824	-0.056392
H208	H	0.264423	0.556184	-0.098038
O209	O	0.158451	0.507756	-0.083505
H210	H	0.154475	0.443052	-0.102351
H211	H	0.065179	0.532340	-0.076352
O212	O	0.784721	0.241196	-0.000081
H213	H	0.808098	0.171947	-0.040431
O214	O	0.025719	0.507735	-0.083521
H215	H	0.047167	0.503279	-0.056165
H216	H	-0.217933	0.625369	-0.049268
O217	O	0.784799	0.241111	-0.322183
H218	H	0.819853	0.221081	-0.310449
O219	O	0.383009	0.794280	0.815839
H220	H	0.360913	0.863871	0.856261
H221	H	-0.396561	0.963053	0.049067
H222	H	0.511846	0.468031	-0.239206
H223	H	-0.087393	1.056157	0.076169
O224	O	-0.317615	0.987661	0.056232
H225	H	-0.359283	1.052360	0.075078
O226	O	0.383008	0.794255	0.723866
H227	H	0.360911	0.863831	0.723966
H228	H	0.603441	0.468083	0.049080
O229	O	0.682390	0.320204	0.056243
H230	H	0.660912	0.285581	0.040578
H231	H	0.511862	0.330204	-0.319481
H232	H	0.701802	0.467998	-0.049267
O233	O	0.462710	0.241174	-0.322168
H234	H	0.486118	0.221134	-0.357226
O235	O	0.682498	0.320056	-0.332525
H236	H	0.701372	0.334613	-0.353988
O237	O	-0.008442	1.080753	0.083335
H238	H	-0.050108	1.145457	0.102178
H239	H	0.143225	0.963122	0.049108
H240	H	0.354806	0.794251	0.473698
H241	H	0.223503	0.963123	0.049109
O242	O	0.222191	1.110450	0.127734
H243	H	0.180529	1.149657	0.131717
H244	H	-0.067567	0.532335	-0.076359
H245	H	0.152192	1.327340	0.310326
H246	H	0.241487	1.258418	0.319356
H247	H	0.321792	1.120525	0.239078
H248	H	0.532145	0.794284	0.189875
O249	O	-0.233142	1.080721	0.083320
H250	H	-0.229168	1.145427	0.102159
H251	H	0.532162	0.794256	0.270132
H252	H	0.570497	0.794230	0.473651
O253	O	0.580621	0.794226	0.387536
H254	H	0.607269	0.794205	0.410347
O255	O	0.542321	0.794218	0.723813
H256	H	0.540441	0.863789	0.752561
O257	O	0.542327	0.794218	0.815788
H258	H	0.535888	0.794210	0.850270
H259	H	0.354806	0.794246	0.393430
H260	H	0.393095	0.794308	0.189909
O261	O	0.580633	0.794211	0.520266
H262	H	0.607280	0.794192	0.543078
H263	H	0.354815	0.794260	0.606443
O264	O	0.580636	0.794212	0.612233
H265	H	0.602735	0.724623	0.612121
O266	O	0.344679	0.794278	0.520338
H267	H	0.318034	0.794294	0.543170
