data_functionalizedCrystal
_audit_creation_method	'MofGen! by Chris Wilmer'
_symmetry_space_group_name_H-M	'P1'
_symmetry_Int_Tables_number	1
_symmetry_cell_setting	triclinic
loop_
_symmetry_equiv_pos_as_xyz
  x,y,z
_cell_length_a	6.817900
_cell_length_b	14.858329
_cell_length_c	14.858572
_cell_angle_alpha	94.733148
_cell_angle_beta	104.524003
_cell_angle_gamma	104.519616
loop_
_atom_site_label
_atom_site_type_symbol
_atom_site_fract_x
_atom_site_fract_y
_atom_site_fract_z
V1	V	-4.043543	-0.129256	-0.290226
O2	O	-4.025386	0.005609	-0.284429
O3	O	-4.000092	-0.255714	-0.288504
O4	O	-4.000114	-0.127532	-0.416685
O5	O	-4.025364	-0.123460	-0.155361
V6	V	-4.525886	-0.113094	-0.274064
O7	O	-4.307391	-0.164710	-0.325681
O8	O	-4.712236	-0.077639	-0.238609
O9	O	-4.346130	0.013364	-0.275786
O10	O	-4.661440	-0.247959	-0.279861
O11	O	-4.661462	-0.118890	-0.408929
O12	O	-4.346109	-0.114818	-0.147605
C13	C	-3.846136	-0.286534	-0.283993
C14	C	-3.891930	-0.389916	-0.283428
C15	C	-3.929113	-0.473873	-0.282959
C16	C	-3.975781	-0.579202	-0.282377
C17	C	-4.012992	-0.663153	-0.281914
C18	C	-4.059662	-0.768488	-0.281329
C19	C	-3.846162	-0.123024	-0.447499
C20	C	-3.891970	-0.122451	-0.550881
C21	C	-4.059628	-0.120358	-0.929445
C22	C	-4.012972	-0.120940	-0.824117
C23	C	-3.975800	-0.121405	-0.740166
C24	C	-3.929142	-0.121986	-0.634831
C25	C	-4.163428	0.044179	-0.280294
C26	C	-4.096873	0.147561	-0.280866
C27	C	-4.163402	-0.119329	-0.116786
C28	C	-4.096833	-0.119897	-0.013403
