data_functionalizedCrystal
_audit_creation_method	'MofGen! by Chris Wilmer'
_symmetry_space_group_name_H-M	'P1'
_symmetry_Int_Tables_number	1
_symmetry_cell_setting	triclinic
loop_
_symmetry_equiv_pos_as_xyz
  x,y,z
_cell_length_a	19.188905
_cell_length_b	19.188929
_cell_length_c	18.266242
_cell_angle_alpha	89.971860
_cell_angle_beta	89.983837
_cell_angle_gamma	83.139666
loop_
_atom_site_label
_atom_site_type_symbol
_atom_site_fract_x
_atom_site_fract_y
_atom_site_fract_z
O1	O	0.926160	0.087085	-0.061036
O2	O	1.426160	0.587085	0.438964
O3	O	0.722847	0.098838	-0.061016
O4	O	1.222847	0.598838	0.438984
O5	O	0.830371	-0.008694	-0.060982
O6	O	1.330371	0.491306	0.439018
O7	O	0.818636	0.194618	-0.061071
O8	O	1.318636	0.694618	0.438929
O9	O	0.830353	-0.008700	0.060780
O10	O	1.330353	0.491300	0.560780
O11	O	0.722828	0.098833	0.060746
O12	O	1.222828	0.598833	0.560746
O13	O	0.926142	0.087080	0.060726
O14	O	1.426142	0.587080	0.560726
Zn15	Zn	0.824482	0.092955	0.080068
Zn16	Zn	1.324482	0.592955	0.580068
Zn17	Zn	0.824506	0.092963	-0.080359
Zn18	Zn	1.324506	0.592963	0.419641
O19	O	0.818618	0.194612	0.060691
O20	O	1.318618	0.694612	0.560691
C21	C	0.696826	0.098458	-0.000132
C22	C	1.196826	0.598458	0.499868
C23	C	0.619321	0.097324	-0.000122
C24	C	1.119321	0.597324	0.499878
C25	C	0.829982	-0.034708	-0.000090
C26	C	1.329982	0.465292	0.499910
C27	C	0.828841	-0.112213	-0.000060
C28	C	1.328841	0.387787	0.499940
C29	C	0.582939	0.096782	-0.066496
C30	C	1.082939	0.596782	0.433504
C31	C	0.510115	0.095709	-0.066504
C32	C	1.010115	0.595709	0.433496
C33	C	0.473678	0.095164	-0.000135
C34	C	0.973678	0.595164	0.499865
C35	C	0.510068	0.095709	0.066248
C36	C	1.010068	0.595709	0.566248
C37	C	0.582890	0.096790	0.066255
C38	C	1.082890	0.596790	0.566255
N39	N	0.364651	0.053733	0.049275
N40	N	0.864651	0.553733	0.549275
N41	N	0.295474	0.052705	0.049264
N42	N	0.795474	0.552705	0.549264
C43	C	0.254272	0.091911	-0.000151
C44	C	0.754272	0.591911	0.499849
N45	N	0.284861	0.132174	-0.049567
N46	N	0.784861	0.632174	0.450433
N47	N	0.354045	0.133199	-0.049558
N48	N	0.854045	0.633199	0.450442
C49	C	0.394716	0.093993	-0.000135
C50	C	0.894716	0.593993	0.499865
C51	C	0.138926	0.090207	-0.066539
C52	C	0.638926	0.590207	0.433461
C53	C	0.066100	0.089138	-0.066545
C54	C	0.566100	0.589138	0.433455
C55	C	0.066056	0.089132	0.066209
C56	C	0.566056	0.589132	0.566209
C57	C	0.138879	0.090207	0.066213
C58	C	0.638879	0.590207	0.566213
C59	C	0.175310	0.090742	-0.000163
C60	C	0.675310	0.590742	0.499837
C61	C	0.952163	0.087460	-0.000160
C62	C	1.452163	0.587460	0.499840
C63	C	1.029668	0.088594	-0.000175
C64	C	1.529668	0.588594	0.499825
N65	N	0.824471	0.092950	0.189555
N66	N	1.324471	0.592950	0.689555
C67	C	0.819007	0.220626	-0.000202
C68	C	1.319007	0.720626	0.499798
C69	C	0.820148	0.298131	-0.000237
C70	C	1.320148	0.798131	0.499763
C71	C	0.757056	0.343060	-0.000215
C72	C	1.257056	0.843060	0.499785
C73	C	0.758128	0.415884	-0.000199
C74	C	1.258128	0.915884	0.499801
C75	C	0.822295	0.443775	-0.000189
C76	C	1.322295	0.943775	0.499811
C77	C	0.885395	0.398835	-0.000214
C78	C	1.385395	0.898835	0.499786
C79	C	0.884321	0.326013	-0.000238
C80	C	1.384321	0.826013	0.499762
N81	N	0.871336	0.551737	0.041291
N82	N	1.371336	1.051737	0.541291
N83	N	0.872352	0.620915	0.041315
N84	N	1.372352	1.120915	0.541315
C85	C	0.825533	0.663183	-0.000119
C86	C	1.325533	1.163183	0.499881
N87	N	0.777650	0.633660	-0.041568
N88	N	1.277650	1.133660	0.458432
N89	N	0.776633	0.564476	-0.041589
N90	N	1.276633	1.064476	0.458411
C91	C	0.823466	0.522737	-0.000164
C92	C	1.323466	1.022737	0.499836
C93	C	0.763599	0.787077	-0.000081
C94	C	1.263599	1.287077	0.499919
C95	C	0.764673	0.859902	-0.000069
C96	C	1.264673	1.359902	0.499931
C97	C	0.891942	0.842851	-0.000077
C98	C	1.391942	1.342851	0.499923
C99	C	0.890866	0.770028	-0.000096
C100	C	1.390866	1.270028	0.499904
C101	C	0.826693	0.742146	-0.000095
C102	C	1.326693	1.242146	0.499905
N103	N	0.824523	0.092962	-0.189845
N104	N	1.324523	0.592962	0.310155
C105	C	0.872098	0.045358	0.227879
C106	C	1.372098	0.545358	0.727879
C107	C	0.872103	0.045355	0.304524
C108	C	1.372103	0.545355	0.804524
C109	C	0.824487	0.092956	0.342842
C110	C	1.324487	0.592956	0.842842
C111	C	0.776851	0.140551	0.304509
C112	C	1.276851	0.640551	0.804509
C113	C	0.776843	0.140549	0.227865
C114	C	1.276843	0.640549	0.727865
N115	N	0.815411	0.154764	0.463148
N116	N	1.315411	0.654764	0.963148
N117	N	0.815423	0.154764	0.535956
N118	N	1.315423	0.654764	1.035956
C119	C	0.824506	0.092966	0.573764
C120	C	1.324506	0.592966	1.073764
N121	N	0.833592	0.031165	0.536014
N122	N	1.333592	0.531165	1.036014
N123	N	0.833584	0.031165	0.463199
N124	N	1.333584	0.531165	0.963199
C125	C	0.824490	0.092964	0.425949
C126	C	1.324490	0.592964	0.925949
C127	C	0.872141	0.045366	0.695196
C128	C	1.372141	0.545366	1.195196
C129	C	0.872141	0.045362	0.771842
C130	C	1.372141	0.545362	1.271842
C131	C	0.776892	0.140565	0.771825
C132	C	1.276892	0.640565	1.271825
C133	C	0.776889	0.140563	0.695180
C134	C	1.276889	0.640563	1.195180
C135	C	0.824517	0.092964	0.656870
C136	C	1.324517	0.592964	1.156870
H137	H	0.612597	0.097218	-0.120544
H138	H	1.112597	0.597218	0.379456
H139	H	0.036389	0.088692	0.120248
H140	H	0.536389	0.588692	0.620248
Cl141	Cl	0.685351	0.916386	-0.000052
Cl142	Cl	1.185351	1.416386	0.499948
Cl143	Cl	0.932016	-0.014477	0.820024
Cl144	Cl	1.432016	0.485523	1.320024
H145	H	0.480487	0.095269	-0.120556
H146	H	0.980487	0.595269	0.379444
H147	H	0.036479	0.088702	-0.120597
H148	H	0.536479	0.588702	0.379403
H149	H	0.704801	0.320363	-0.000221
H150	H	1.204801	0.820363	0.499779
H151	H	0.910879	0.006599	0.196689
H152	H	1.410879	0.506599	0.696689
H153	H	0.910888	0.006598	0.335733
H154	H	1.410888	0.506598	0.835733
Cl155	Cl	0.464262	0.095028	0.149684
Cl156	Cl	0.964262	0.595028	0.649684
Cl157	Cl	0.932012	-0.014475	0.647033
Cl158	Cl	1.432012	0.485525	1.147033
Cl159	Cl	0.716987	0.200390	0.352678
Cl160	Cl	1.216987	0.700390	0.852678
H161	H	0.738109	0.179319	0.663975
H162	H	1.238109	0.679319	1.163975
H163	H	0.168502	0.090644	0.120262
H164	H	0.668502	0.590644	0.620262
Cl165	Cl	0.972610	0.877907	-0.000072
Cl166	Cl	1.472610	1.377907	0.499928
H167	H	0.612511	0.097231	0.120306
H168	H	1.112511	0.597231	0.620306
Cl169	Cl	0.966062	0.433897	-0.000206
Cl170	Cl	1.466062	0.933897	0.499794
Cl171	Cl	0.970186	0.713542	-0.000116
Cl172	Cl	1.470186	1.213542	0.499884
H173	H	0.706750	0.452473	-0.000180
H174	H	1.206750	0.952473	0.499820
H175	H	0.168589	0.090650	-0.120587
H176	H	0.668589	0.590650	0.379413
H177	H	0.711345	0.764374	-0.000076
H178	H	1.211345	1.264374	0.499924
H179	H	0.738119	0.179319	0.803023
H180	H	1.238119	0.679319	1.303023
Cl181	Cl	0.963643	0.269527	-0.000263
Cl182	Cl	1.463643	0.769527	0.499737
Cl183	Cl	0.716965	0.200384	0.179683
Cl184	Cl	1.216965	0.700384	0.679683
