data_functionalizedCrystal
_audit_creation_method	'MofGen! by Chris Wilmer'
_symmetry_space_group_name_H-M	'P1'
_symmetry_Int_Tables_number	1
_symmetry_cell_setting	triclinic
loop_
_symmetry_equiv_pos_as_xyz
  x,y,z
_cell_length_a	14.446369
_cell_length_b	12.970454
_cell_length_c	12.970454
_cell_angle_alpha	60.000265
_cell_angle_beta	90.000648
_cell_angle_gamma	59.998531
loop_
_atom_site_label
_atom_site_type_symbol
_atom_site_fract_x
_atom_site_fract_y
_atom_site_fract_z
Zr1	Zr	0.891774	1.128458	-0.135254
O2	O	0.743964	1.343556	-0.299883
O3	O	0.937085	0.913365	-0.084788
O4	O	0.937085	1.128456	-0.299877
O5	O	0.743965	1.128465	0.084874
O6	O	1.089422	1.128446	-0.299870
O7	O	0.743965	1.128466	-0.084794
O8	O	1.089422	0.743689	0.084885
O9	O	0.743965	1.513222	-0.299881
O10	O	1.070098	1.001826	-0.063258
O11	O	0.956411	1.001833	0.063358
O12	O	0.956410	1.255074	-0.189881
O13	O	0.842723	1.255080	-0.063265
Zr14	Zr	1.134735	1.128441	0.135356
Zr15	Zr	1.134734	1.128443	-0.135244
Zr16	Zr	0.891775	1.128456	0.135346
Zr17	Zr	0.891775	1.399055	-0.135252
Zr18	Zr	1.134734	0.857844	0.135354
O19	O	1.089424	1.343533	0.084890
O20	O	1.089422	1.343535	-0.299868
O21	O	0.743966	1.343554	0.084876
O22	O	1.282544	0.913342	0.299985
O23	O	1.282543	0.913344	-0.084773
O24	O	0.937086	0.913364	0.299971
O25	O	1.282544	1.128433	-0.084772
O26	O	1.089424	1.128443	0.299979
O27	O	0.937087	1.128453	0.299973
O28	O	1.282544	1.128433	0.084896
O29	O	0.937086	1.513211	-0.299873
O30	O	1.089423	0.743688	0.299976
O31	O	1.282544	0.743677	0.299983
O32	O	1.282543	0.743678	0.084893
O33	O	0.743966	1.513221	-0.084790
O34	O	0.937087	1.513209	-0.084782
O35	O	1.070099	1.001825	0.189984
O36	O	1.183785	1.001819	0.063367
O37	O	1.070098	1.255066	-0.063256
O38	O	0.956411	1.255072	0.063360
C39	C	1.013253	0.789973	0.000048
C40	C	1.013253	0.675097	0.000047
C41	C	0.709348	1.128468	0.000039
C42	C	0.606205	1.128474	0.000034
C43	C	0.387837	1.288180	-0.079424
C44	C	0.495069	1.288288	-0.079871
C45	C	0.602881	1.049139	-0.058217
C46	C	0.495112	1.050153	-0.058800
C47	C	0.496477	1.046863	0.137846
C48	C	0.602446	1.049873	0.137629
C49	C	1.317160	1.128431	0.000064
C50	C	1.420303	1.128425	0.000068
C51	C	1.013253	1.128451	-0.338428
C52	C	1.013253	1.128452	-0.453305
C53	C	1.013256	1.466926	0.000054
C54	C	1.013256	1.581802	0.000055
C55	C	1.013256	1.128448	0.338530
C56	C	1.013256	1.128447	0.453407
C57	C	1.317159	0.789954	0.000061
C58	C	1.420302	0.675072	0.000064
C59	C	1.013255	0.789971	0.338527
C60	C	1.013255	0.675095	0.453403
C61	C	1.317161	0.789953	0.338540
C62	C	1.420304	0.675070	0.453420
C63	C	0.709348	1.466946	-0.338438
C64	C	0.606205	1.581829	-0.453318
C65	C	0.709349	1.466944	0.000042
C66	C	0.606207	1.581826	0.000038
C67	C	1.013254	1.466927	-0.338425
C68	C	1.013254	1.581804	-0.453301
C69	C	1.468740	0.527637	0.093541
C70	C	1.565644	0.419678	0.093548
C71	C	1.614112	0.459157	0.000083
C72	C	1.565665	0.606607	-0.093404
C73	C	1.468759	0.714563	-0.093415
C74	C	1.468748	0.527636	0.507367
C75	C	1.565673	0.419675	0.615297
C76	C	1.614147	0.459151	0.669283
C77	C	1.565697	0.606600	0.615326
C78	C	1.468779	0.714558	0.507393
C79	C	0.557769	1.729263	-0.507275
C80	C	0.460866	1.837224	-0.615228
C81	C	0.412396	1.797747	-0.669218
C82	C	0.460841	1.650298	-0.615256
C83	C	0.557747	1.542340	-0.507309
C84	C	0.557769	1.542302	0.093520
C85	C	0.460865	1.650231	0.093543
C86	C	0.412396	1.797683	0.000077
C87	C	0.460843	1.837208	-0.093410
C88	C	0.557750	1.729280	-0.093426
H89	H	0.493309	1.350851	-0.041101
N90	N	1.419266	0.487287	0.452219
N91	N	1.411081	0.526667	0.340876
H92	H	1.376144	0.498159	0.301928
N93	N	0.607234	1.769637	-0.188916
N94	N	0.707201	1.730274	-0.158690
H95	H	0.742148	1.758783	-0.226134
H96	H	0.333488	1.885551	0.000105
H97	H	0.421366	1.957278	-0.169506
H98	H	0.421362	1.618175	-0.659230
N99	N	0.411402	1.987829	-0.670343
N100	N	0.468136	2.038336	-0.709366
H101	H	0.433205	2.144699	-0.748289
N102	N	0.605519	1.118294	-0.184214
N103	N	0.525661	1.172176	-0.274333
H104	H	0.527514	1.221029	-0.363323
H105	H	1.429332	0.834611	-0.169534
H106	H	1.605143	0.638732	-0.169501
H107	H	0.597217	1.761434	-0.463327
N108	N	0.320148	1.366827	-0.030648
N109	N	0.295038	1.306062	0.063265
H110	H	0.247227	1.361605	0.097718
H111	H	0.444768	1.106534	-0.160186
N112	N	1.615150	0.269062	0.670430
N113	N	1.701682	0.172671	0.766799
H114	H	1.736622	0.066302	0.805738
H115	H	0.492622	1.350916	-0.181506
N116	N	0.528557	0.903112	0.009139
N117	N	0.631346	0.800071	0.056825
H118	H	0.654971	0.696224	0.104800
N119	N	0.607202	1.391747	-0.452215
N120	N	0.563904	1.356535	-0.500441
H121	H	0.598827	1.250178	-0.461537
H122	H	1.693063	0.371230	0.757170
N123	N	1.615235	0.646886	0.670494
N124	N	1.701764	0.550467	0.766866
H125	H	1.736751	0.578914	0.805836
N126	N	1.419313	0.865152	0.452311
N127	N	1.462612	0.900362	0.500537
H128	H	1.427682	1.006719	0.461640
N129	N	0.313411	1.908051	-0.779486
N130	N	0.270182	2.039683	-0.827640
H131	H	0.200272	2.117593	-0.905516
H132	H	0.332852	1.350575	-0.180446
N133	N	0.607257	1.391688	0.188988
N134	N	0.550542	1.341157	0.200471
H135	H	0.585490	1.234787	0.267902
N136	N	0.701068	0.901730	0.010928
N137	N	0.774765	0.853386	0.104131
H138	H	0.844112	0.749277	0.152969
H139	H	1.693017	0.371238	0.000104
H140	H	0.446454	1.097978	0.186509
N141	N	1.615137	0.269072	0.189068
N142	N	1.715104	0.187975	0.261044
H143	H	1.750059	0.081611	0.328506
H144	H	0.601928	1.107719	0.181147
N145	N	0.701748	0.903602	0.218163
N146	N	0.725045	0.814260	0.192507
H147	H	0.795181	0.710951	0.249377
H148	H	0.421431	1.618021	0.169672
H149	H	1.429289	0.495464	0.169655
N150	N	0.530815	0.899267	0.212517
N151	N	0.499406	0.854171	0.164634
H152	H	0.523616	0.749951	0.217372
