data_functionalizedCrystal
_audit_creation_method	'MofGen! by Chris Wilmer'
_symmetry_space_group_name_H-M	'P1'
_symmetry_Int_Tables_number	1
_symmetry_cell_setting	triclinic
loop_
_symmetry_equiv_pos_as_xyz
  x,y,z
_cell_length_a	19.188905
_cell_length_b	19.188924
_cell_length_c	9.730223
_cell_angle_alpha	89.996615
_cell_angle_beta	89.992681
_cell_angle_gamma	83.138260
loop_
_atom_site_label
_atom_site_type_symbol
_atom_site_fract_x
_atom_site_fract_y
_atom_site_fract_z
O1	O	0.926150	0.087082	-0.114523
O2	O	0.722836	0.098834	-0.114476
O3	O	0.830362	-0.008699	-0.114485
O4	O	0.818623	0.194614	-0.114514
O5	O	0.830361	-0.008696	0.114095
O6	O	0.722834	0.098837	0.114104
O7	O	0.926149	0.087084	0.114057
Zn8	Zn	0.824491	0.092961	0.150372
Zn9	Zn	0.824493	0.092958	-0.150791
O10	O	0.818622	0.194617	0.114066
C11	C	0.696824	0.098458	-0.000180
C12	C	0.619318	0.097324	-0.000162
C13	C	0.582927	0.096778	-0.124765
C14	C	0.510104	0.095705	-0.124782
C15	C	0.473676	0.095164	-0.000189
C16	C	0.510075	0.095714	0.124430
C17	C	0.582896	0.096794	0.124443
N18	N	0.364656	0.053736	0.092539
N19	N	0.295479	0.052709	0.092518
C20	C	0.254269	0.091911	-0.000222
N21	N	0.284851	0.132172	-0.092960
N22	N	0.354035	0.133196	-0.092943
C23	C	0.394713	0.093993	-0.000190
C24	C	0.138914	0.090203	-0.124851
C25	C	0.066089	0.089134	-0.124863
C26	C	0.066063	0.089136	0.124352
C27	C	0.138886	0.090212	0.124361
C28	C	0.175308	0.090742	-0.000245
C29	C	0.829982	-0.034708	-0.000193
C30	C	0.828844	-0.112213	-0.000189
C31	C	0.828313	-0.148613	-0.124788
C32	C	0.827233	-0.221436	-0.124799
C33	C	0.826698	-0.257857	-0.000203
C34	C	0.827225	-0.221448	0.124413
C35	C	0.828298	-0.148625	0.124420
N36	N	0.864746	-0.377523	0.092522
N37	N	0.863728	-0.446701	0.092508
C38	C	0.823464	-0.477266	-0.000215
N39	N	0.784265	-0.436041	-0.092944
N40	N	0.785286	-0.366857	-0.092933
C41	C	0.825534	-0.336821	-0.000196
C42	C	0.821761	-0.592629	-0.124834
C43	C	0.820677	-0.665452	-0.124839
C44	C	0.820676	-0.665464	0.124376
C45	C	0.821753	-0.592641	0.124378
C46	C	0.822299	-0.556228	-0.000231
C47	C	0.952160	0.087461	-0.000242
C48	C	1.029666	0.088594	-0.000269
C49	C	0.819002	0.220627	-0.000229
C50	C	0.820141	0.298132	-0.000242
N51	N	0.824495	0.092963	0.355909
N52	N	0.824495	0.092950	-0.356328
C53	C	0.872120	0.045363	0.427831
C54	C	0.872118	0.045355	0.571714
C55	C	0.776865	0.140552	0.571740
C56	C	0.776864	0.140556	0.427859
C57	C	0.919752	-0.002230	0.355881
C58	C	0.967381	-0.049833	0.427803
C59	C	0.967379	-0.049841	0.571686
C60	C	0.919748	-0.002247	0.643647
H61	H	0.036460	0.088694	-0.226333
H62	H	1.006156	-0.088606	0.630244
C63	C	0.622394	0.097236	0.259777
C64	C	0.612735	0.036911	0.334940
C65	C	0.649119	0.037287	0.459607
H66	H	0.605036	0.137719	0.311132
H67	H	0.670993	0.097915	0.241998
H68	H	0.564146	0.036237	0.352722
H69	H	0.630096	-0.003583	0.283626
H70	H	0.697717	0.037966	0.441829
H71	H	0.631758	0.077773	0.510950
H72	H	0.642575	-0.003646	0.510615
H73	H	0.168570	0.090642	-0.226312
C74	C	0.919611	-0.002171	0.799864
C75	C	0.867698	0.049688	0.847484
C76	C	0.867547	0.049774	0.991379
H77	H	0.964160	0.007297	0.832579
H78	H	0.910160	-0.046761	0.832460
H79	H	0.877153	0.094268	0.814903
H80	H	0.823141	0.040232	0.814808
H81	H	0.858095	0.005184	1.023975
H82	H	0.912098	0.059240	1.024080
H83	H	0.832320	0.084955	1.023708
C84	C	0.820199	-0.704930	0.259749
C85	C	0.880503	-0.695262	0.334945
C86	C	0.880078	-0.731606	0.459664
H87	H	0.819516	-0.753528	0.242081
H88	H	0.779687	-0.687533	0.311026
H89	H	0.921004	-0.712662	0.283678
H90	H	0.881198	-0.646672	0.352649
H91	H	0.839566	-0.714208	0.510941
H92	H	0.879393	-0.780201	0.441982
H93	H	0.920990	-0.725046	0.510705
C94	C	0.828722	-0.109137	-0.260166
C95	C	0.768383	-0.118840	-0.335223
C96	C	0.768716	-0.082494	-0.459953
H97	H	0.869197	-0.126497	-0.311552
H98	H	0.829389	-0.060531	-0.242471
H99	H	0.767722	-0.167436	-0.352923
H100	H	0.727899	-0.101477	-0.283878
H101	H	0.769383	-0.033888	-0.442257
H102	H	0.809193	-0.099858	-0.511327
H103	H	0.727774	-0.089067	-0.510889
H104	H	0.738086	0.179302	0.630339
H105	H	0.612578	0.097210	-0.226228
C106	C	0.470713	0.095079	-0.260215
C107	C	0.518198	0.095760	-0.369334
C108	C	0.481940	0.095175	-0.494113
H109	H	0.436847	0.135353	-0.265602
H110	H	0.447780	0.053935	-0.265461
H111	H	0.541119	0.136900	-0.364090
H112	H	0.552065	0.055490	-0.363992
H113	H	0.459007	0.054031	-0.499359
H114	H	0.448075	0.135450	-0.499485
H115	H	0.514154	0.095631	-0.568165
C116	C	0.026628	0.088441	0.259733
C117	C	0.052399	0.028658	0.334930
C118	C	0.016093	0.028001	0.459662
H119	H	-0.021961	0.087685	0.242083
H120	H	0.033120	0.129304	0.311001
H121	H	0.045901	-0.012195	0.283674
H122	H	0.100983	0.029401	0.352617
H123	H	0.022585	0.068864	0.510930
H124	H	-0.032495	0.027246	0.441998
H125	H	0.033577	-0.012558	0.510704
H126	H	0.738082	0.179316	0.369300
H127	H	0.168516	0.090652	0.225826
C128	C	0.826508	-0.260997	-0.260029
C129	C	0.765827	-0.294743	-0.267290
C130	C	0.765128	-0.331188	-0.391843
H131	H	0.866747	-0.294911	-0.265334
H132	H	0.826945	-0.228908	-0.334296
H133	H	0.765396	-0.326829	-0.193043
H134	H	0.725578	-0.260845	-0.262008
H135	H	0.765566	-0.299099	-0.466110
H136	H	0.805370	-0.365098	-0.397137
H137	H	0.723954	-0.354083	-0.396791
C138	C	0.826675	-0.261117	0.259547
C139	C	0.825641	-0.332686	0.232875
C140	C	0.825138	-0.369251	0.357331
H141	H	0.786152	-0.243818	0.310850
H142	H	0.867571	-0.254681	0.310755
H143	H	0.784749	-0.339118	0.181689
H144	H	0.866161	-0.350006	0.181592
H145	H	0.866034	-0.362815	0.408538
H146	H	0.784614	-0.351946	0.408625
H147	H	0.824443	-0.417815	0.339251
C148	C	0.822307	-0.553209	-0.260260
C149	C	0.821585	-0.600674	-0.369386
C150	C	0.822078	-0.564388	-0.494160
H151	H	0.863423	-0.530253	-0.265646
H152	H	0.782004	-0.519358	-0.265500
H153	H	0.861884	-0.634513	-0.364149
H154	H	0.780473	-0.623633	-0.364046
H155	H	0.781774	-0.530537	-0.499400
H156	H	0.863194	-0.541432	-0.499531
H157	H	0.821581	-0.596586	-0.568216
H158	H	0.828727	-0.118988	0.225886
H159	H	0.820241	-0.695088	-0.226307
H160	H	0.822191	-0.563004	0.225840
C161	C	1.019031	-0.101457	0.349434
C162	C	1.008840	-0.091264	0.208034
C163	C	1.056401	-0.138815	0.135802
H164	H	1.011612	-0.148057	0.372876
H165	H	1.065629	-0.094016	0.372896
H166	H	0.962253	-0.098710	0.184582
H167	H	1.016265	-0.044673	0.184552
H168	H	1.102999	-0.131375	0.159264
H169	H	1.048978	-0.185412	0.159255
H170	H	1.049497	-0.131901	0.039855
H171	H	0.919759	-0.002226	0.238724
H172	H	0.480411	0.095275	0.225874
