data_functionalizedCrystal
_audit_creation_method	'MofGen! by Chris Wilmer'
_symmetry_space_group_name_H-M	'P1'
_symmetry_Int_Tables_number	1
_symmetry_cell_setting	triclinic
loop_
_symmetry_equiv_pos_as_xyz
  x,y,z
_cell_length_a	17.052862
_cell_length_b	12.970454
_cell_length_c	12.970454
_cell_angle_alpha	59.999644
_cell_angle_beta	89.999968
_cell_angle_gamma	50.259530
loop_
_atom_site_label
_atom_site_type_symbol
_atom_site_fract_x
_atom_site_fract_y
_atom_site_fract_z
Zr1	Zr	0.914392	0.765897	0.046006
O2	O	0.762832	1.041093	-0.148672
O3	O	0.960853	0.532380	0.105686
O4	O	0.960852	0.747472	-0.109406
O5	O	0.762834	0.826000	0.236088
O6	O	1.117054	0.685527	-0.078433
O7	O	0.762833	0.826001	0.066420
O8	O	1.117055	0.300766	0.306327
O9	O	0.762832	1.210760	-0.148673
O10	O	1.097239	0.566763	0.154253
O11	O	0.980669	0.612991	0.257759
O12	O	0.980668	0.866234	0.004516
O13	O	0.864097	0.912463	0.108022
Zr14	Zr	1.163516	0.667099	0.366004
Zr15	Zr	1.163515	0.667100	0.095404
Zr16	Zr	0.914393	0.765895	0.316606
Zr17	Zr	0.914392	1.036496	0.046005
Zr18	Zr	1.163516	0.396499	0.366006
O19	O	1.117055	0.900615	0.306324
O20	O	1.117054	0.900618	-0.078434
O21	O	0.762834	1.041090	0.236087
O22	O	1.315076	0.391902	0.560682
O23	O	1.315074	0.391905	0.175924
O24	O	0.960855	0.532378	0.490445
O25	O	1.315074	0.606996	0.175922
O26	O	1.117056	0.685523	0.521416
O27	O	0.960855	0.747468	0.490444
O28	O	1.315075	0.606995	0.345590
O29	O	0.960852	1.132231	-0.109408
O30	O	1.117056	0.300765	0.521418
O31	O	1.315076	0.222235	0.560683
O32	O	1.315075	0.222236	0.345592
O33	O	0.762833	1.210759	0.066418
O34	O	0.960853	1.132229	0.105683
O35	O	1.097241	0.566761	0.407495
O36	O	1.213811	0.520532	0.303988
O37	O	1.097240	0.820004	0.154251
O38	O	0.980669	0.866233	0.257758
C39	C	1.038954	0.378018	0.206007
C40	C	1.038954	0.263142	0.206007
C41	C	0.727339	0.840076	0.144216
C42	C	0.621579	0.882018	0.123245
C43	C	0.566864	0.374944	0.376779
C44	C	0.666233	0.335532	0.396477
C45	C	0.655075	0.472150	0.328171
C46	C	0.544538	0.648187	0.240163
C47	C	0.445160	0.687603	0.220455
C48	C	0.533370	0.784808	0.171847
C49	C	0.422833	0.960845	0.083839
C50	C	0.323466	1.000253	0.064136
C51	C	0.334624	0.863636	0.132441
C52	C	0.632748	0.745393	0.191555
C53	C	0.511044	1.058051	0.035232
C54	C	0.411675	1.097463	0.015534
C55	C	1.350569	0.592919	0.267794
C56	C	1.456329	0.550977	0.288765
C57	C	1.038953	0.716500	-0.132474
C58	C	1.038952	0.716501	-0.247351
C59	C	1.038954	1.054977	0.206003
C60	C	1.038954	1.169854	0.206003
C61	C	1.038955	0.716495	0.544485
C62	C	1.038956	0.716495	0.659362
C63	C	1.350569	0.254440	0.267796
C64	C	1.456329	0.097621	0.288767
C65	C	1.038955	0.378016	0.544486
C66	C	1.038956	0.263139	0.659364
C67	C	1.350571	0.254437	0.606276
C68	C	1.456330	0.097618	0.742124
C69	C	0.727338	1.178558	-0.194265
C70	C	0.621578	1.335377	-0.330113
C71	C	0.727339	1.178556	0.144214
C72	C	0.621580	1.335374	0.123243
C73	C	1.038953	1.054979	-0.132476
C74	C	1.038952	1.169857	-0.247354
C75	C	1.445145	0.048109	0.220444
C76	C	1.544508	-0.099219	0.240121
C77	C	1.655053	-0.197041	0.328130
C78	C	1.666234	-0.147518	0.396455
C79	C	1.566873	-0.000184	0.376770
C80	C	1.566856	-0.000160	0.751892
C81	C	1.666238	-0.147497	0.879527
C82	C	1.655092	-0.197060	0.997393
C83	C	1.544555	-0.099266	0.987619
C84	C	1.445176	0.048076	0.859986
C85	C	0.511053	1.433169	-0.339882
C86	C	0.411670	1.580539	-0.467517
C87	C	0.422816	1.630107	-0.585382
C88	C	0.533353	1.532306	-0.575609
C89	C	0.632732	1.384946	-0.447975
C90	C	0.632763	1.384897	0.191555
C91	C	0.533401	1.532256	0.171848
C92	C	0.422855	1.630081	0.083835
C93	C	0.411674	1.580553	0.015515
C94	C	0.511036	1.433204	0.035216
H95	H	0.722741	0.602061	0.263222
H96	H	1.735950	-0.317007	0.344149
Cl97	Cl	0.497010	1.370889	-0.191728
Cl98	Cl	0.496956	1.370958	-0.050666
H99	H	1.535498	-0.139642	1.083603
H100	H	1.736023	-0.317039	1.101312
Cl101	Cl	0.771722	1.261951	0.302201
H102	H	1.535381	-0.139519	0.184479
Cl103	Cl	0.272708	1.318758	-0.095101
Cl104	Cl	0.779998	0.422600	0.352939
Cl105	Cl	0.297954	1.815315	0.059087
H106	H	0.722724	1.305324	-0.440037
H107	H	0.501954	1.169297	-0.020391
H108	H	1.575995	0.040108	0.432417
Cl109	Cl	0.805184	0.114239	0.507110
Cl110	Cl	1.805214	-0.270519	0.507098
H111	H	0.542527	1.572554	0.227491
Cl112	Cl	1.306233	0.170974	0.847728
Cl113	Cl	1.306186	0.171064	0.109790
H114	H	0.321655	1.660224	-0.056146
Cl115	Cl	0.209702	0.913175	0.107694
H116	H	0.321676	1.660148	-0.475449
H117	H	0.575934	0.263729	0.432378
Cl118	Cl	0.184507	1.221557	-0.046513
Cl119	Cl	1.580898	0.062122	0.603738
H120	H	0.341885	1.750101	-0.689301
H121	H	1.756232	-0.227109	0.887461
H122	H	0.542414	1.572684	-0.671590
