data_functionalizedCrystal
_audit_creation_method	'MofGen! by Chris Wilmer'
_symmetry_space_group_name_H-M	'P1'
_symmetry_Int_Tables_number	1
_symmetry_cell_setting	triclinic
loop_
_symmetry_equiv_pos_as_xyz
  x,y,z
_cell_length_a	16.109302
_cell_length_b	15.995292
_cell_length_c	15.186229
_cell_angle_alpha	89.999448
_cell_angle_beta	89.994701
_cell_angle_gamma	83.465199
loop_
_atom_site_label
_atom_site_type_symbol
_atom_site_fract_x
_atom_site_fract_y
_atom_site_fract_z
O1	O	1.103137	0.107630	-0.073262
O2	O	0.861076	0.121023	-0.073254
O3	O	0.988748	-0.007566	-0.073259
O4	O	0.975464	0.236219	-0.073256
O5	O	0.988740	-0.007568	0.073198
O6	O	0.861067	0.121021	0.073203
O7	O	1.103128	0.107628	0.073195
Zn8	Zn	0.982097	0.114325	0.096453
Zn9	Zn	0.982108	0.114327	-0.096511
O10	O	0.975456	0.236218	0.073201
C11	C	0.830097	0.120480	-0.000025
C12	C	0.737801	0.118853	-0.000022
C13	C	0.525456	0.115090	0.079803
C14	C	0.438735	0.113553	0.079800
C15	C	0.438755	0.113559	-0.079876
C16	C	0.525474	0.115090	-0.079872
C17	C	0.568822	0.115860	-0.000030
C18	C	0.395382	0.112791	-0.000037
C19	C	0.301357	0.111124	-0.000041
C20	C	0.662854	0.117526	-0.000025
C21	C	0.988204	-0.038763	-0.000033
C22	C	0.986583	-0.131715	-0.000040
C23	C	0.980624	-0.469452	-0.000031
C24	C	1.072774	-0.446164	0.000293
C25	C	1.074526	-0.349489	-0.000040
C26	C	0.983581	-0.301897	-0.000035
C27	C	0.937514	-0.330984	-0.083665
C28	C	0.936405	-0.427774	-0.083732
C29	C	0.934514	-0.427633	0.082818
C30	C	0.937929	-0.331142	0.083920
C31	C	0.985247	-0.207201	-0.000040
C32	C	0.978955	-0.564147	-0.000032
C33	C	1.134108	0.108172	-0.000036
C34	C	1.226403	0.109799	-0.000044
C35	C	0.976001	0.267414	-0.000027
C36	C	0.977622	0.360366	-0.000027
N37	N	0.982095	0.114322	0.228145
N38	N	0.982116	0.114322	-0.228204
C39	C	1.038648	0.057402	0.453866
C40	C	1.038650	0.057400	0.546055
C41	C	0.925557	0.171245	0.546069
C42	C	0.925551	0.171243	0.453881
C43	C	0.982101	0.114322	0.407782
C44	C	0.982110	0.114323	0.592160
C45	C	0.982112	0.114321	0.692116
C46	C	0.982098	0.114322	0.307819
H47	H	0.403451	0.112933	-0.144880
O48	O	1.119575	-0.484601	-0.078709
H49	H	1.077487	-0.520217	-0.118205
O50	O	1.122593	-0.325115	-0.079600
H51	H	1.187417	-0.357049	-0.076695
O52	O	1.099628	-0.003997	0.404140
H53	H	1.138941	-0.043583	0.451677
H54	H	0.560785	0.115715	-0.144885
O55	O	1.099649	-0.003981	0.595764
H56	H	1.138975	-0.043552	0.548217
O57	O	0.864575	0.232647	0.595789
H58	H	0.874085	0.223095	0.667636
H59	H	0.879500	0.217594	0.416357
H60	H	0.968316	-0.454599	-0.146251
H61	H	1.110604	-0.330475	0.059907
H62	H	0.868840	-0.442306	-0.087517
O63	O	0.572213	0.115922	0.165913
H64	H	0.527485	0.115124	0.221425
H65	H	0.870591	-0.299098	-0.086770
O66	O	0.391957	0.112730	0.165905
H67	H	0.436671	0.113530	0.221420
O68	O	1.119810	-0.483246	0.079751
H69	H	1.121423	-0.552793	0.078418
O70	O	0.980101	-0.304737	-0.166116
H71	H	1.034040	-0.270946	-0.147743
O72	O	0.972746	-0.465062	0.166789
H73	H	1.025045	-0.513894	0.150406
O74	O	0.982346	-0.306557	0.165880
H75	H	1.036708	-0.273642	0.146911
O76	O	0.850006	-0.287427	0.090625
H77	H	0.813930	-0.302331	0.031517
O78	O	0.844668	-0.446148	0.083587
H79	H	0.832871	-0.484940	0.025283
