data_functionalizedCrystal
_audit_creation_method	'MofGen! by Chris Wilmer'
_symmetry_space_group_name_H-M	'P1'
_symmetry_Int_Tables_number	1
_symmetry_cell_setting	triclinic
loop_
_symmetry_equiv_pos_as_xyz
  x,y,z
_cell_length_a	14.971482
_cell_length_b	12.837942
_cell_length_c	14.048226
_cell_angle_alpha	89.994377
_cell_angle_beta	89.994098
_cell_angle_gamma	89.220774
loop_
_atom_site_label
_atom_site_type_symbol
_atom_site_fract_x
_atom_site_fract_y
_atom_site_fract_z
O1	O	1.198338	0.135087	-0.079148
O2	O	0.939302	0.151270	-0.079152
O3	O	1.063076	-0.007731	-0.079144
O4	O	1.074564	0.294088	-0.079156
O5	O	1.063059	-0.007741	0.079177
O6	O	0.939285	0.151261	0.079169
O7	O	1.198321	0.135078	0.079174
Zn8	Zn	1.068800	0.143168	0.104308
Zn9	Zn	1.068823	0.143180	-0.104287
O10	O	1.074547	0.294079	0.079166
C11	C	0.905908	0.150542	0.000008
C12	C	0.806428	0.148376	0.000006
C13	C	0.759688	0.147350	0.086308
C14	C	0.666216	0.145298	0.086309
C15	C	0.619486	0.144278	0.000007
C16	C	0.666233	0.145301	-0.086301
C17	C	0.759703	0.147346	-0.086301
C18	C	0.471412	0.141041	-0.086295
C19	C	0.377935	0.138998	-0.086295
C20	C	0.377925	0.138993	0.086316
C21	C	0.471395	0.141038	0.086316
C22	C	0.518135	0.142062	0.000007
C23	C	1.059187	-0.046361	0.000016
C24	C	1.047613	-0.161453	0.000014
C25	C	1.186755	-0.402241	-0.000003
C26	C	1.175884	-0.510380	-0.000005
C27	C	1.015001	-0.485872	0.000002
C28	C	1.025872	-0.377733	0.000004
C29	C	1.111752	-0.335921	0.000002
C30	C	1.122622	-0.227780	0.000011
C31	C	0.961739	-0.203275	0.000011
C32	C	0.950869	-0.311414	0.000010
C33	C	1.231715	0.135805	0.000011
C34	C	1.331195	0.137972	0.000007
C35	C	1.078436	0.332709	0.000003
C36	C	1.090010	0.447800	-0.000001
N37	N	1.068791	0.143159	0.246669
N38	N	1.068838	0.143181	-0.246648
C39	C	1.123620	0.072782	0.296491
C40	C	1.123626	0.072781	0.396148
C41	C	1.068807	0.143163	0.445982
C42	C	1.013972	0.213543	0.396154
C43	C	1.013962	0.213538	0.296498
C44	C	1.013999	0.213551	0.603868
C45	C	1.014010	0.213558	0.703531
C46	C	1.123662	0.072794	0.703518
C47	C	1.123652	0.072789	0.603862
C48	C	1.068818	0.143171	0.554041
H49	H	0.339890	0.138168	-0.156570
C50	C	0.953654	0.290966	0.241695
N51	N	0.908228	0.349288	0.200418
C52	C	1.281222	-0.356246	0.000001
N53	N	1.352377	-0.321604	0.000002
C54	C	0.953701	0.290975	0.758347
N55	N	0.908273	0.349286	0.799634
C56	C	0.811117	0.148476	-0.181240
N57	N	0.849840	0.149325	-0.252752
H58	H	0.509465	0.141875	-0.156577
C59	C	0.614827	0.144176	-0.181235
N60	N	0.576108	0.143333	-0.252740
C61	C	0.856406	-0.357419	0.000022
N62	N	0.785254	-0.392070	0.000038
H63	H	1.236960	-0.564374	-0.000013
H64	H	0.945082	-0.519934	-0.000007
C65	C	1.183918	-0.004664	0.450947
N66	N	1.229324	-0.063008	0.492222
C67	C	1.183925	-0.004646	0.241682
N68	N	1.229346	-0.062970	0.200403
C69	C	1.217090	-0.181789	0.000007
N70	N	1.288246	-0.147152	-0.000001
C71	C	0.522796	0.142160	0.181252
N72	N	0.561511	0.143002	0.252760
H73	H	0.900666	-0.149265	0.000024
H74	H	0.628165	0.144445	0.156585
C75	C	0.953668	0.290964	0.549067
N76	N	0.908227	0.349270	0.507790
C77	C	0.326509	0.137858	0.181257
N78	N	0.287779	0.137006	0.252764
H79	H	1.168294	0.015484	0.563288
C80	C	1.183977	-0.004631	0.758324
N81	N	1.229406	-0.062943	0.799608
H82	H	0.797728	0.148189	0.156585
H83	H	0.969333	0.270846	0.436735
