data_functionalizedCrystal
_audit_creation_method	'MofGen! by Chris Wilmer'
_symmetry_space_group_name_H-M	'P1'
_symmetry_Int_Tables_number	1
_symmetry_cell_setting	triclinic
loop_
_symmetry_equiv_pos_as_xyz
  x,y,z
_cell_length_a	11.792241
_cell_length_b	15.072220
_cell_length_c	11.792253
_cell_angle_alpha	89.993365
_cell_angle_beta	95.803993
_cell_angle_gamma	90.008318
loop_
_atom_site_label
_atom_site_type_symbol
_atom_site_fract_x
_atom_site_fract_y
_atom_site_fract_z
O1	O	1.506930	0.073708	-0.155559
O2	O	1.176589	0.073730	-0.171592
O3	O	1.349769	0.073700	0.001594
O4	O	1.333751	0.073738	-0.328745
O5	O	1.349726	-0.073865	0.001584
O6	O	1.176546	-0.073835	-0.171602
O7	O	1.506887	-0.073857	-0.155569
Zn8	Zn	1.341710	-0.097275	-0.163587
Zn9	Zn	1.341766	0.097148	-0.163574
O10	O	1.333708	-0.073827	-0.328755
C11	C	1.134277	-0.000050	-0.170590
C12	C	1.008263	-0.000042	-0.167576
N13	N	1.341679	-0.229964	-0.163595
C14	C	0.777551	-0.000069	-0.162033
C15	C	0.905936	-0.000054	-0.165112
C16	C	1.341764	-0.589165	-0.163570
C17	C	1.248784	-0.551542	-0.255924
C18	C	1.249001	-0.448717	-0.256264
C19	C	1.341721	-0.410961	-0.163582
C20	C	1.460310	-0.448257	-0.190177
C21	C	1.459790	-0.551115	-0.190834
C22	C	1.317209	-0.551278	-0.044352
C23	C	1.314497	-0.448414	-0.045130
C24	C	1.341704	-0.310248	-0.163587
C25	C	1.341789	-0.689879	-0.163568
C26	C	1.549199	-0.000075	-0.156571
C27	C	1.675213	-0.000077	-0.159586
C28	C	1.348738	-0.000085	0.043880
C29	C	1.345718	-0.000093	0.169893
N30	N	1.341806	0.229837	-0.163558
C31	C	1.343264	-0.000098	0.272229
C32	C	1.340196	-0.000099	0.400616
C33	C	1.334738	-0.000058	0.628959
C34	C	1.337758	-0.000099	0.502946
H35	H	1.160875	-0.423502	-0.240312
H36	H	1.160376	-0.576300	-0.240223
N37	N	1.549294	-0.582321	-0.109761
N38	N	1.626932	-0.629772	-0.141783
H39	H	1.690164	-0.651801	-0.084542
H40	H	1.264328	-0.577372	-0.343879
H41	H	1.264757	-0.424094	-0.344719
H42	H	1.531182	-0.423799	-0.124731
H43	H	1.377763	-0.422717	0.026872
N44	N	1.486799	-0.581181	-0.299934
N45	N	1.505898	-0.526200	-0.375062
H46	H	1.524973	-0.547430	-0.452118
N47	N	1.487929	-0.415913	-0.298037
N48	N	1.420472	-0.365405	-0.355497
H49	H	1.439972	-0.342562	-0.431676
N50	N	1.211006	-0.583848	-0.012534
N51	N	1.152118	-0.635389	-0.077346
H52	H	1.077104	-0.658389	-0.054890
N53	N	1.205053	-0.417836	-0.019843
N54	N	1.147259	-0.368640	-0.088744
H55	H	1.069963	-0.347038	-0.070889
H56	H	1.385007	-0.575608	0.024383
