data_functionalizedCrystal
_audit_creation_method	'MofGen! by Chris Wilmer'
_symmetry_space_group_name_H-M	'P1'
_symmetry_Int_Tables_number	1
_symmetry_cell_setting	triclinic
loop_
_symmetry_equiv_pos_as_xyz
  x,y,z
_cell_length_a	19.188900
_cell_length_b	14.971486
_cell_length_c	13.448316
_cell_angle_alpha	90.006811
_cell_angle_beta	90.015148
_cell_angle_gamma	83.373309
loop_
_atom_site_label
_atom_site_type_symbol
_atom_site_fract_x
_atom_site_fract_y
_atom_site_fract_z
O1	O	-0.926519	-0.111542	-0.082885
O2	O	-0.723254	-0.126603	-0.082845
O3	O	-0.830334	0.011157	-0.082859
O4	O	-0.819438	-0.249302	-0.082871
O5	O	-0.830321	0.011165	0.082525
O6	O	-0.723240	-0.126595	0.082539
O7	O	-0.926506	-0.111534	0.082499
Cu8	Cu	-0.824872	-0.119064	0.097620
Cu9	Cu	-0.824888	-0.119073	-0.097966
O10	O	-0.819425	-0.249294	0.082513
C11	C	-0.697234	-0.126116	-0.000148
C12	C	-0.619724	-0.124665	-0.000132
C13	C	-0.583337	-0.123973	-0.090285
C14	C	-0.510509	-0.122600	-0.090295
C15	C	-0.474072	-0.121901	-0.000147
C16	C	-0.510467	-0.122599	0.090017
C17	C	-0.583293	-0.123981	0.090024
N18	N	-0.364875	-0.068827	0.066946
N19	N	-0.295694	-0.067512	0.066933
C20	C	-0.254651	-0.117739	-0.000164
N21	N	-0.285405	-0.169320	-0.067262
N22	N	-0.354593	-0.170630	-0.067252
C23	C	-0.395104	-0.120403	-0.000145
C24	C	-0.139296	-0.115560	-0.090333
C25	C	-0.066465	-0.114192	-0.090340
C26	C	-0.066426	-0.114182	0.089974
C27	C	-0.139254	-0.115559	0.089978
C28	C	-0.175685	-0.116243	-0.000179
N29	N	-0.824866	-0.119056	0.235184
C30	C	-0.829840	0.044483	-0.000167
C31	C	-0.828380	0.143772	-0.000168
C32	C	0.047475	-0.112027	-0.000193
C33	C	-0.030033	-0.113495	-0.000191
C34	C	-0.819919	-0.282620	-0.000181
C35	C	-0.821379	-0.381909	-0.000187
C36	C	-0.891287	0.201339	-0.000180
C37	C	-0.889911	0.294631	-0.000190
C38	C	-0.825627	0.330354	-0.000180
C39	C	-0.762715	0.272781	-0.000172
C40	C	-0.764092	0.179491	-0.000169
C41	C	-0.759849	0.467228	-0.000175
C42	C	-0.758472	0.560524	-0.000175
C43	C	-0.885669	0.582368	-0.000195
C44	C	-0.887045	0.489078	-0.000193
C45	C	-0.824133	0.431510	-0.000182
N46	N	-0.824899	-0.119074	-0.235530
C47	C	-0.872296	-0.058081	0.287218
C48	C	-0.872300	-0.058080	0.391321
C49	C	-0.824877	-0.119059	0.443388
C50	C	-0.777442	-0.180038	0.391347
C51	C	-0.777435	-0.180033	0.287246
C52	C	-0.777461	-0.180044	0.608327
C53	C	-0.777469	-0.180049	0.712436
C54	C	-0.872327	-0.058090	0.712403
C55	C	-0.872320	-0.058086	0.608301
C56	C	-0.824885	-0.119065	0.556267
H57	H	-0.168881	-0.116116	0.163390
C58	C	-0.688731	0.599441	-0.000329
C59	C	-0.684253	0.652374	-0.085402
C60	C	-0.620023	0.688250	-0.085571
H61	H	-0.651396	0.551892	-0.000381
H62	H	-0.685538	0.635435	0.057315
H63	H	-0.687439	0.616382	-0.143031
H64	H	-0.721573	0.699937	-0.085368
H65	H	-0.616830	0.724245	-0.027927
H66	H	-0.582694	0.640696	-0.085620
H67	H	-0.616979	0.724176	-0.143286
C68	C	-0.470862	-0.121884	-0.188076
C69	C	-0.399285	-0.120546	-0.168782
C70	C	-0.362743	-0.119896	-0.258833
H71	H	-0.488009	-0.069972	-0.225182
H72	H	-0.477471	-0.174277	-0.225137
H73	H	-0.392680	-0.068158	-0.131737
H74	H	-0.382117	-0.172453	-0.131691
H75	H	-0.369352	-0.172288	-0.295894
H76	H	-0.379896	-0.067984	-0.295932
H77	H	-0.314173	-0.118996	-0.245755
H78	H	-0.943635	0.172260	-0.000181
C79	C	-0.027087	-0.113397	-0.188330
C80	C	-0.074586	-0.114267	-0.267277
C81	C	-0.038337	-0.113521	-0.357561
H82	H	0.006610	-0.164993	-0.192231
H83	H	-0.003983	-0.060690	-0.192125
H84	H	-0.097679	-0.166968	-0.263484
H85	H	-0.108284	-0.062674	-0.263408
H86	H	-0.015232	-0.060814	-0.361356
H87	H	-0.004641	-0.165118	-0.361452
H88	H	-0.070559	-0.114102	-0.411137
C89	C	-0.923795	0.008262	0.768761
C90	C	-0.912422	0.096123	0.743437
C91	C	-0.959829	0.157263	0.795326
H92	H	-0.917060	-0.000342	0.838232
H93	H	-0.970409	-0.001253	0.751650
H94	H	-0.865819	0.105634	0.760554
H95	H	-0.919162	0.104755	0.673974
H96	H	-1.006443	0.147749	0.778215
H97	H	-0.953090	0.148651	0.864795
H98	H	-0.952123	0.216884	0.778144
H99	H	-0.910921	-0.008429	0.433687
H100	H	-0.708619	0.420358	-0.000169
C101	C	-0.471014	-0.121699	0.187966
C102	C	-0.496534	-0.045110	0.242373
C103	C	-0.460214	-0.044261	0.332618
H104	H	-0.422424	-0.120727	0.175193
H105	H	-0.477668	-0.174046	0.225062
H106	H	-0.489874	0.007224	0.205286
H107	H	-0.545119	-0.046065	0.255174
H108	H	-0.466868	-0.096609	0.369713
H109	H	-0.411626	-0.043292	0.319834
H110	H	-0.477529	0.007698	0.369548
H111	H	-0.738833	-0.229697	0.565964
H112	H	-0.941137	0.341498	-0.000197
H113	H	-0.738852	-0.229704	0.754824
H114	H	-0.712866	0.132620	-0.000160
H115	H	-0.036759	-0.113619	0.163374
H116	H	-0.612918	-0.124545	0.163439
C117	C	-0.923609	0.008377	0.551777
C118	C	-0.886238	0.062973	0.492187
C119	C	-0.933422	0.124300	0.440155
H120	H	-0.951790	0.044769	0.597671
H121	H	-0.952781	-0.023453	0.510993
H122	H	-0.857078	0.094801	0.532968
H123	H	-0.858059	0.026607	0.446275
H124	H	-0.962593	0.092470	0.399370
H125	H	-0.961600	0.160685	0.486056
H126	H	-0.908072	0.161345	0.399710
H127	H	-0.939391	0.459995	-0.000193
C128	C	-0.953955	0.644905	-0.000422
C129	C	-0.956899	0.699069	-0.085528
C130	C	-1.019795	0.756683	-0.085775
H131	H	-0.956126	0.681848	0.057178
H132	H	-0.992455	0.610297	-0.000477
H133	H	-0.918409	0.733675	-0.085464
H134	H	-0.954740	0.662151	-0.143143
H135	H	-1.058296	0.722075	-0.085830
H136	H	-1.021961	0.793620	-0.028171
H137	H	-1.021805	0.793434	-0.143522
C138	C	-0.692848	0.311390	-0.000216
C139	C	-0.638051	0.241004	-0.000234
C140	C	-0.573679	0.276534	-0.000287
H141	H	-0.689560	0.347321	0.057441
H142	H	-0.689636	0.347296	-0.057913
H143	H	-0.641262	0.205113	0.057457
H144	H	-0.641316	0.205067	-0.057887
H145	H	-0.570467	0.312440	-0.057984
H146	H	-0.570398	0.312464	0.057370
H147	H	-0.536492	0.228783	-0.000309
C148	C	-0.622758	-0.124765	-0.188270
C149	C	-0.575296	-0.123888	-0.267225
C150	C	-0.611586	-0.124630	-0.357503
H151	H	-0.656459	-0.073171	-0.192153
H152	H	-0.645862	-0.177474	-0.192076
H153	H	-0.552204	-0.071185	-0.263421
H154	H	-0.541594	-0.175478	-0.263375
H155	H	-0.634690	-0.177338	-0.361308
H156	H	-0.645285	-0.073034	-0.361375
H157	H	-0.579388	-0.124043	-0.411084
C158	C	-0.923705	0.008292	0.230772
C159	C	-0.912282	0.096136	0.256131
C160	C	-0.959620	0.157315	0.204158
H161	H	-0.970339	-0.001140	0.247773
H162	H	-0.916919	-0.000354	0.161305
H163	H	-0.919074	0.104778	0.325582
H164	H	-0.865657	0.105597	0.239127
H165	H	-0.952834	0.148668	0.134691
H166	H	-1.006252	0.147874	0.221163
H167	H	-0.951872	0.216923	0.221349
H168	H	-0.738811	-0.229684	0.244880
C169	C	-0.725919	-0.246101	0.448004
C170	C	-0.683162	-0.198595	0.507823
C171	C	-0.635698	-0.259425	0.560038
H172	H	-0.697600	-0.282441	0.402219
H173	H	-0.751049	-0.283241	0.488650
H174	H	-0.658034	-0.161470	0.467180
H175	H	-0.711461	-0.162258	0.553626
H176	H	-0.660828	-0.296566	0.600683
H177	H	-0.607384	-0.295762	0.514245
H178	H	-0.606686	-0.227202	0.600637
H179	H	-0.168958	-0.116127	-0.163744
