data_functionalizedCrystal
_audit_creation_method	'MofGen! by Chris Wilmer'
_symmetry_space_group_name_H-M	'P1'
_symmetry_Int_Tables_number	1
_symmetry_cell_setting	triclinic
loop_
_symmetry_equiv_pos_as_xyz
  x,y,z
_cell_length_a	19.188905
_cell_length_b	19.288865
_cell_length_c	17.766277
_cell_angle_alpha	90.011603
_cell_angle_beta	89.983513
_cell_angle_gamma	96.864599
loop_
_atom_site_label
_atom_site_type_symbol
_atom_site_fract_x
_atom_site_fract_y
_atom_site_fract_z
O1	O	0.926154	-0.086635	-0.062727
O2	O	1.426154	0.413365	0.437273
O3	O	0.722840	-0.098327	-0.062702
O4	O	1.222840	0.401673	0.437298
O5	O	0.830372	0.008649	-0.062700
O6	O	1.330372	0.508649	0.437300
O7	O	0.818622	-0.193611	-0.062729
O8	O	1.318622	0.306389	0.437271
O9	O	0.830353	0.008655	0.062488
O10	O	1.330353	0.508655	0.562488
O11	O	0.722821	-0.098321	0.062486
O12	O	1.222821	0.401679	0.562486
O13	O	0.926135	-0.086630	0.062462
O14	O	1.426135	0.413370	0.562462
Cu15	Cu	0.824476	-0.092475	0.073905
Cu16	Cu	1.324476	0.407525	0.573905
Cu17	Cu	0.824499	-0.092481	-0.074145
Cu18	Cu	1.324499	0.407519	0.425855
O19	O	0.818603	-0.193606	0.062460
O20	O	1.318603	0.306394	0.562460
C21	C	0.696819	-0.097948	-0.000105
C22	C	1.196819	0.402052	0.499895
C23	C	0.619314	-0.096821	-0.000095
C24	C	1.119314	0.403179	0.499905
C25	C	0.582932	-0.096282	-0.068337
C26	C	1.082932	0.403718	0.431663
C27	C	0.510108	-0.095214	-0.068346
C28	C	1.010108	0.404786	0.431654
C29	C	0.473671	-0.094672	-0.000109
C30	C	0.973671	0.405328	0.499891
C31	C	0.510061	-0.095214	0.068142
C32	C	1.010061	0.404786	0.568142
C33	C	0.582882	-0.096289	0.068149
C34	C	1.082882	0.403711	0.568149
N35	N	0.364646	-0.053455	0.050679
N36	N	0.864646	0.446545	0.550679
N37	N	0.295469	-0.052433	0.050667
N38	N	0.795469	0.447567	0.550667
C39	C	0.254265	-0.091436	-0.000127
C40	C	0.754265	0.408564	0.499873
N41	N	0.284851	-0.131491	-0.050920
N42	N	0.784851	0.368509	0.449080
N43	N	0.354035	-0.132510	-0.050911
N44	N	0.854035	0.367490	0.449089
C45	C	0.394709	-0.093507	-0.000109
C46	C	0.894709	0.406493	0.499891
C47	C	0.138919	-0.089741	-0.068384
C48	C	0.638919	0.410259	0.431616
C49	C	0.066094	-0.088677	-0.068390
C50	C	0.566094	0.411323	0.431610
C51	C	0.066049	-0.088671	0.068100
C52	C	0.566049	0.411329	0.568100
C53	C	0.138872	-0.089741	0.068104
C54	C	0.638872	0.410259	0.568104
C55	C	0.175303	-0.090272	-0.000140
C56	C	0.675303	0.409728	0.499860
C57	C	0.829984	0.034529	-0.000104
C58	C	1.329984	0.534529	0.499896
C59	C	0.828849	0.111632	-0.000097
C60	C	1.328849	0.611632	0.499903
C61	C	0.952156	-0.087008	-0.000138
C62	C	1.452156	0.412992	0.499862
C63	C	1.029661	-0.088136	-0.000153
C64	C	1.529661	0.411864	0.499847
C65	C	0.818991	-0.219485	-0.000138
C66	C	1.318991	0.280515	0.499862
C67	C	0.820126	-0.296589	-0.000150
C68	C	1.320126	0.203411	0.499850
N69	N	0.824466	-0.092470	0.178035
N70	N	1.324466	0.407530	0.678035
C71	C	0.891944	0.156329	-0.000101
C72	C	1.391944	0.656329	0.499899
C73	C	0.890878	0.228776	-0.000113
C74	C	1.390878	0.728776	0.499887
C75	C	0.826713	0.256523	-0.000105
C76	C	1.326713	0.756523	0.499895
C77	C	0.763610	0.211816	-0.000106
C78	C	1.263610	0.711816	0.499894
C79	C	0.764678	0.139371	-0.000102
C80	C	1.264678	0.639371	0.499898
C81	C	0.776266	0.364812	0.043751
C82	C	1.276266	0.864812	0.543751
C83	C	0.775200	0.437256	0.043752
C84	C	1.275200	0.937256	0.543752
C85	C	0.823417	0.479969	-0.000122
C86	C	1.323417	0.979969	0.499878
C87	C	0.872710	0.450229	-0.043986
C88	C	1.372710	0.950229	0.456014
C89	C	0.873778	0.377784	-0.043982
C90	C	1.373778	0.877784	0.456018
C91	C	0.825548	0.335077	-0.000111
C92	C	1.325548	0.835077	0.499889
C93	C	0.885360	0.603222	-0.000140
C94	C	1.385360	1.103222	0.499860
C95	C	0.884291	0.675670	-0.000156
C96	C	1.384291	1.175670	0.499844
C97	C	0.757021	0.658708	-0.000142
C98	C	1.257021	1.158708	0.499858
C99	C	0.758092	0.586261	-0.000133
C100	C	1.258092	1.086261	0.499867
C101	C	0.822263	0.558523	-0.000128
C102	C	1.322263	1.058523	0.499872
N103	N	0.824515	-0.092481	-0.178276
N104	N	1.324515	0.407519	0.321724
C105	C	0.872096	-0.045124	0.217423
C106	C	1.372096	0.454876	0.717423
C107	C	0.872100	-0.045121	0.296225
C108	C	1.372100	0.454879	0.796225
C109	C	0.824480	-0.092476	0.335636
C110	C	1.324480	0.407524	0.835636
C111	C	0.776841	-0.139825	0.296238
C112	C	1.276841	0.360175	0.796238
C113	C	0.776834	-0.139822	0.217438
C114	C	1.276834	0.360178	0.717438
C115	C	0.815133	-0.155763	0.460465
C116	C	1.315133	0.344237	0.960465
C117	C	0.815145	-0.155767	0.539264
C118	C	1.315145	0.344233	1.039264
C119	C	0.824499	-0.092484	0.578682
C120	C	1.324499	0.407516	1.078682
C121	C	0.833855	-0.029194	0.539291
C122	C	1.333855	0.470806	1.039291
C123	C	0.833848	-0.029192	0.460491
C124	C	1.333848	0.470808	0.960491
C125	C	0.824483	-0.092484	0.421081
C126	C	1.324483	0.407516	0.921081
C127	C	0.872137	-0.045131	0.703516
C128	C	1.372137	0.454869	1.203516
C129	C	0.872136	-0.045126	0.782319
C130	C	1.372136	0.454874	1.282319
C131	C	0.776880	-0.139837	0.782331
C132	C	1.276880	0.360163	1.282331
C133	C	0.776877	-0.139835	0.703529
C134	C	1.276877	0.360165	1.203529
C135	C	0.824509	-0.092483	0.664126
C136	C	1.324509	0.407517	1.164126
H137	H	0.168495	-0.090175	0.123675
H138	H	0.668495	0.409825	0.623675
H139	H	0.612503	-0.096728	0.123722
H140	H	1.112503	0.403272	0.623722
H141	H	0.480389	-0.094774	0.123701
H142	H	0.980389	0.405226	0.623701
Cl143	Cl	0.184721	-0.090416	-0.154174
Cl144	Cl	0.684721	0.409584	0.345826
Cl145	Cl	0.676356	0.693582	-0.000137
Cl146	Cl	1.176356	1.193582	0.499863
H147	H	0.944198	0.133750	-0.000100
H148	H	1.444198	0.633750	0.499900
Cl149	Cl	0.628727	-0.096954	-0.154129
Cl150	Cl	1.128727	0.403046	0.345871
Cl151	Cl	0.931972	0.014407	0.167888
Cl152	Cl	1.431972	0.514407	0.667888
Cl153	Cl	0.966030	0.568347	-0.000130
Cl154	Cl	1.466030	1.068347	0.499870
Cl155	Cl	0.803388	-0.235330	0.588776
Cl156	Cl	1.303388	0.264670	1.088776
Cl157	Cl	0.020248	-0.087995	0.153885
Cl158	Cl	0.520248	0.412005	0.653885
Cl159	Cl	0.717000	-0.199362	0.654008
Cl160	Cl	1.217000	0.300638	1.154008
H161	H	0.942259	0.265176	-0.000119
H162	H	1.442259	0.765176	0.499881
H163	H	0.935673	0.712062	-0.000164
H164	H	1.435673	1.212062	0.499836
H165	H	0.913913	0.353573	-0.079700
H166	H	1.413913	0.853573	0.420300
Cl167	Cl	0.678768	0.530067	-0.000124
Cl168	Cl	1.178768	1.030067	0.499876
Cl169	Cl	0.713235	0.474636	0.098898
Cl170	Cl	1.213235	0.974636	0.598898
H171	H	0.737000	0.330040	0.079483
H172	H	1.237000	0.830040	0.579483
H173	H	0.711367	0.234412	-0.000102
H174	H	1.211367	0.734412	0.499898
H175	H	0.738067	-0.178381	0.328331
H176	H	1.238067	0.321619	0.828331
H177	H	0.036473	-0.088243	-0.123963
H178	H	0.536473	0.411757	0.376037
H179	H	0.841472	0.022337	0.571383
H180	H	1.341472	0.522337	1.071383
H181	H	0.911972	0.485005	-0.079713
H182	H	1.411972	0.985005	0.420287
H183	H	0.713297	0.102977	-0.000098
H184	H	1.213297	0.602977	0.499902
H185	H	0.910888	-0.006565	0.328300
H186	H	1.410888	0.493435	0.828300
H187	H	0.738104	-0.178391	0.814419
H188	H	1.238104	0.321609	1.314419
Cl189	Cl	0.845602	0.050368	0.410973
Cl190	Cl	1.345602	0.550368	0.910973
Cl191	Cl	0.932013	0.014401	0.653979
Cl192	Cl	1.432013	0.514401	1.153979
Cl193	Cl	0.932015	0.014403	0.831838
Cl194	Cl	1.432015	0.514403	1.331838
Cl195	Cl	0.803439	-0.235329	0.410920
Cl196	Cl	1.303439	0.264671	0.910920
H197	H	0.480481	-0.094777	-0.123919
H198	H	0.980481	0.405223	0.376081
Cl199	Cl	0.716951	-0.199349	0.167919
Cl200	Cl	1.216951	0.300651	0.667919
