data_functionalizedCrystal
_audit_creation_method	'MofGen! by Chris Wilmer'
_symmetry_space_group_name_H-M	'P1'
_symmetry_Int_Tables_number	1
_symmetry_cell_setting	triclinic
loop_
_symmetry_equiv_pos_as_xyz
  x,y,z
_cell_length_a	19.077068
_cell_length_b	19.077241
_cell_length_c	19.076919
_cell_angle_alpha	90.113904
_cell_angle_beta	94.470751
_cell_angle_gamma	85.292229
loop_
_atom_site_label
_atom_site_type_symbol
_atom_site_fract_x
_atom_site_fract_y
_atom_site_fract_z
Zn1	Zn	-0.256332	-1.047582	-0.450414
Zn2	Zn	0.243668	-0.547582	0.049586
Zn3	Zn	-0.369488	-1.047495	-0.337255
Zn4	Zn	0.130512	-0.547495	0.162745
Zn5	Zn	-0.255959	-0.934813	-0.328177
Zn6	Zn	0.244041	-0.434813	0.171823
Zn7	Zn	-0.378906	-0.924921	-0.450353
Zn8	Zn	0.121094	-0.424921	0.049647
O9	O	-0.315171	-0.988703	-0.391550
O10	O	0.184829	-0.488703	0.108450
O11	O	-0.267556	-1.146062	-0.439228
O12	O	0.232444	-0.646062	0.060772
O13	O	-0.350331	-1.036651	-0.237563
O14	O	0.149669	-0.536651	0.262437
O15	O	-0.157199	-0.953949	-0.340619
O16	O	0.342801	-0.453949	0.159381
O17	O	-0.350692	-1.145999	-0.356091
O18	O	0.149308	-0.645999	0.143909
O19	O	-0.157472	-1.036800	-0.430426
O20	O	0.342528	-0.536800	0.069574
O21	O	-0.266922	-0.953864	-0.230893
O22	O	0.233078	-0.453864	0.269107
O23	O	-0.276054	-0.835009	-0.340559
O24	O	0.223946	-0.335009	0.159441
O25	O	-0.366744	-0.937089	-0.548849
O26	O	0.133256	-0.437089	-0.048849
O27	O	-0.366383	-0.827742	-0.430321
O28	O	0.133617	-0.327742	0.069679
O29	O	-0.276689	-1.027207	-0.548894
O30	O	0.223311	-0.527207	-0.048894
O31	O	-0.469548	-1.027059	-0.356031
O32	O	0.030452	-0.527059	0.143969
O33	O	-0.476467	-0.937004	-0.439123
O34	O	0.023533	-0.437004	0.060877
C35	C	-0.322201	-0.805838	-0.384449
C36	C	0.177799	-0.305838	0.115551
C37	C	-0.325226	-0.727606	-0.381428
C38	C	0.174774	-0.227606	0.118572
C39	C	-0.283437	-0.690880	-0.423366
C40	C	0.216563	-0.190880	0.076634
C41	C	-0.286276	-0.617373	-0.420521
C42	C	0.213724	-0.117373	0.079479
C43	C	-0.330907	-0.580593	-0.375743
C44	C	0.169093	-0.080593	0.124257
C45	C	-0.372697	-0.617324	-0.333801
C46	C	0.127303	-0.117324	0.166199
C47	C	-0.369855	-0.690829	-0.336642
C48	C	0.130145	-0.190829	0.163358
C49	C	-0.344039	-0.360751	-0.362593
C50	C	0.155961	0.139249	0.137407
C51	C	-0.346880	-0.287240	-0.359757
C52	C	0.153120	0.212760	0.140243
C53	C	-0.260457	-0.287295	-0.446477
C54	C	0.239543	0.212705	0.053523
C55	C	-0.257622	-0.360802	-0.449317
C56	C	0.242378	0.139198	0.050683
C57	C	-0.299409	-0.397526	-0.407372
C58	C	0.200591	0.102474	0.092628
N59	N	-0.333811	-0.505457	-0.372836
N60	N	0.166189	-0.005457	0.127164
N61	N	-0.296501	-0.472661	-0.410276
N62	N	0.203499	0.027339	0.089724
C63	C	-0.498628	-0.980967	-0.398572
C64	C	0.001372	-0.480967	0.101428
C65	C	-0.577110	-0.977721	-0.401602
C66	C	-0.077110	-0.477721	0.098398
C67	C	-0.610355	-1.023116	-0.359802
C68	C	-0.110355	-0.523116	0.140198
C69	C	-0.684097	-1.020067	-0.362657
C70	C	-0.184097	-0.520067	0.137343
C71	C	-0.724593	-0.971619	-0.407307
C72	C	-0.224593	-0.471619	0.092693
C73	C	-0.691343	-0.926222	-0.449111
C74	C	-0.191343	-0.426222	0.050889
C75	C	-0.617602	-0.929275	-0.446260
C76	C	-0.117602	-0.429275	0.053740
C77	C	-0.945524	-0.957461	-0.420472
C78	C	-0.445524	-0.457461	0.079528
C79	C	-1.019270	-0.954410	-0.423319
C80	C	-0.519270	-0.454410	0.076681
C81	C	-1.012019	-1.048256	-0.336865
C82	C	-0.512019	-0.548256	0.163135
C83	C	-0.938277	-1.051302	-0.334015
C84	C	-0.438277	-0.551302	0.165985
C85	C	-0.905033	-1.005907	-0.375821
C86	C	-0.405033	-0.505907	0.124179
N87	N	-0.799970	-0.968500	-0.410224
N88	N	-0.299970	-0.468500	0.089776
N89	N	-0.829658	-1.009030	-0.372908
N90	N	-0.329658	-0.509030	0.127092
C91	C	-0.130999	-0.996487	-0.384516
C92	C	0.369001	-0.496487	0.115484
C93	C	-0.052515	-0.999805	-0.381519
C94	C	0.447485	-0.499805	0.118481
C95	C	-0.322808	-0.981054	-0.575122
C96	C	0.177192	-0.481054	-0.075122
C97	C	-0.326063	-0.977795	-0.653350
C98	C	0.173937	-0.477795	-0.153350
C99	C	-0.308111	-0.172283	-0.398673
C100	C	0.191889	0.327717	0.101327
C101	C	-0.305092	-0.250515	-0.401694
C102	C	0.194908	0.249485	0.098306
C103	C	-0.280707	-1.023181	-0.690126
C104	C	0.219293	-0.523181	-0.190126
C105	C	-0.283762	-1.020110	-0.763629
C106	C	0.216238	-0.520110	-0.263629
C107	C	-0.332177	-0.971656	-0.800354
C108	C	0.167823	-0.471656	-0.300354
C109	C	-0.377535	-0.926265	-0.763573
C110	C	0.122465	-0.426265	-0.263573
C111	C	-0.374476	-0.929333	-0.690071
C112	C	0.125524	-0.429333	-0.190071
C113	C	-0.346352	-0.957446	-1.020178
C114	C	0.153648	-0.457446	-0.520178
C115	C	-0.349409	-0.954382	-1.093685
C116	C	0.150591	-0.454382	-0.593685
C117	C	-0.255635	-1.048227	-1.093736
C118	C	0.244365	-0.548227	-0.593736
C119	C	-0.252583	-1.051294	-1.020233
C120	C	0.247417	-0.551294	-0.520233
C121	C	-0.297938	-1.005900	-0.983458
C122	C	0.202062	-0.505900	-0.483458
N123	N	-0.335303	-0.968517	-0.875486
N124	N	0.164697	-0.468517	-0.375486
N125	N	-0.294808	-1.009036	-0.908327
N126	N	0.205192	-0.509036	-0.408327
C127	C	-0.307512	-0.996364	-0.208691
C128	C	0.192488	-0.496364	0.291309
C129	C	-0.304053	-0.999769	-0.130461
C130	C	0.195947	-0.499769	0.369539
H131	H	-0.577388	-1.062565	-0.323440
H132	H	-0.077388	-0.562565	0.176560
H133	H	-0.383293	-0.920493	-0.990245
H134	H	0.116707	-0.420493	-0.490245
H135	H	-0.246830	-1.057070	-0.793569
H136	H	0.253170	-0.557070	-0.293569
N137	N	-1.047874	-1.097212	-0.291772
N138	N	-0.547874	-0.597212	0.208228
H139	H	-1.100733	-1.087928	-0.300350
H140	H	-0.600733	-0.587928	0.199650
H141	H	-1.033461	-1.147548	-0.304216
H142	H	-0.533461	-0.647548	0.195784
N143	N	-0.200348	-1.103530	-0.980608
N144	N	0.299652	-0.603530	-0.480608
H145	H	-0.226511	-1.136207	-0.952467
H146	H	0.273489	-0.636207	-0.452467
H147	H	-0.172078	-1.131769	-1.015090
H148	H	0.327922	-0.631769	-0.515090
N149	N	-0.581741	-0.880316	-0.491346
N150	N	-0.081741	-0.380316	0.008654
H151	H	-0.618583	-0.849160	-0.520064
H152	H	-0.118583	-0.349160	-0.020064
H153	H	-0.551243	-0.850228	-0.460227
H154	H	-0.051243	-0.350228	0.039773
N155	N	-0.719955	-1.069029	-0.317573
N156	N	-0.219955	-0.569029	0.182427
H157	H	-0.683112	-1.100180	-0.288852
H158	H	-0.183112	-0.600180	0.211148
H159	H	-0.750337	-1.040493	-0.285055
H160	H	-0.250337	-0.540493	0.214945
N161	N	-0.206717	-1.097184	-1.133400
N162	N	0.293283	-0.597184	-0.633400
H163	H	-0.215999	-1.087890	-1.185535
H164	H	0.284001	-0.587890	-0.685535
H165	H	-0.156175	-1.088895	-1.118199
H166	H	0.343825	-0.588895	-0.618199
H167	H	-0.409034	-0.587371	-0.297337
H168	H	0.090966	-0.087371	0.202663
N169	N	-0.414922	-0.730445	-0.291406
N170	N	0.085078	-0.230445	0.208594
H171	H	-0.443628	-0.695992	-0.262608
H172	H	0.056372	-0.195992	0.237392
H173	H	-0.447654	-0.758383	-0.322430
H174	H	0.052346	-0.258383	0.177570
N175	N	-0.894601	-1.103562	-0.285863
N176	N	-0.394601	-0.603562	0.214137
H177	H	-0.863903	-1.136226	-0.314578
H178	H	-0.363903	-0.636226	0.185422
H179	H	-0.863828	-1.077559	-0.250943
H180	H	-0.363828	-0.577559	0.249057
N181	N	-0.209460	-0.400456	-0.497602
N182	N	0.290540	0.099544	0.002398
H183	H	-0.174328	-0.433509	-0.468969
H184	H	0.325672	0.066491	0.031031
H185	H	-0.238414	-0.428358	-0.532451
H186	H	0.261586	0.071642	-0.032451
N187	N	-0.429740	-0.873987	-0.803179
N188	N	0.070260	-0.373987	-0.303179
H189	H	-0.424795	-0.878927	-0.855323
H190	H	0.075205	-0.378927	-0.355323
H191	H	-0.479219	-0.883332	-0.792687
H192	H	0.020781	-0.383332	-0.292687
H193	H	-0.241284	-1.062640	-0.660230
H194	H	0.258716	-0.562640	-0.160230
N195	N	-1.062950	-0.902152	-0.471479
N196	N	-0.562950	-0.402152	0.028521
H197	H	-1.030702	-0.873859	-0.497532
H198	H	-0.530702	-0.373859	0.002468
H199	H	-1.093764	-0.928156	-0.506360
H200	H	-0.593764	-0.428156	-0.006360
N201	N	-0.401633	-0.902121	-1.133299
N202	N	0.098367	-0.402121	-0.633299
H203	H	-0.429901	-0.873829	-1.098850
H204	H	0.070099	-0.373829	-0.598850
H205	H	-0.375410	-0.869496	-1.161435
H206	H	0.124590	-0.369496	-0.661435
H207	H	-0.918463	-0.920497	-0.454512
H208	H	-0.418463	-0.420497	0.045488
H209	H	-0.226435	-0.257386	-0.480625
H210	H	0.273565	0.242614	0.019375
N211	N	-0.423388	-0.880375	-0.650401
N212	N	0.076612	-0.380375	-0.150401
H213	H	-0.454523	-0.849213	-0.684819
H214	H	0.045477	-0.349213	-0.184819
H215	H	-0.453697	-0.908910	-0.622263
H216	H	0.046303	-0.408910	-0.122263
H217	H	-0.252248	-0.587474	-0.454673
H218	H	0.247752	-0.087474	0.045327
N219	N	-0.235303	-0.730548	-0.471668
N220	N	0.264697	-0.230548	0.028332
H221	H	-0.209261	-0.696125	-0.497802
H222	H	0.290739	-0.196125	0.002198
H223	H	-0.200213	-0.763609	-0.443000
H224	H	0.299787	-0.263609	0.057000
N225	N	-0.395017	-0.247560	-0.311459
N226	N	0.104983	0.252440	0.188541
H227	H	-0.445442	-0.257779	-0.324728
H228	H	0.054558	0.242221	0.175272
H229	H	-0.381324	-0.262911	-0.261277
H230	H	0.118676	0.237089	0.238723
N231	N	-0.389106	-0.400356	-0.317353
N232	N	0.110894	0.099644	0.182647
H233	H	-0.417811	-0.365900	-0.288557
H234	H	0.082189	0.134100	0.211443
H235	H	-0.421838	-0.428295	-0.348375
H236	H	0.078162	0.071705	0.151625
N237	N	-0.735016	-0.873969	-0.497273
N238	N	-0.235016	-0.373969	0.002727
H239	H	-0.786776	-0.878920	-0.492736
H240	H	-0.286776	-0.378920	0.007264
H241	H	-0.723648	-0.824702	-0.483829
H242	H	-0.223648	-0.324702	0.016171
