data_functionalizedCrystal
_audit_creation_method	'MofGen! by Chris Wilmer'
_symmetry_space_group_name_H-M	'P1'
_symmetry_Int_Tables_number	1
_symmetry_cell_setting	triclinic
loop_
_symmetry_equiv_pos_as_xyz
  x,y,z
_cell_length_a	16.625546
_cell_length_b	13.032951
_cell_length_c	13.032268
_cell_angle_alpha	89.114265
_cell_angle_beta	97.144614
_cell_angle_gamma	97.175817
loop_
_atom_site_label
_atom_site_type_symbol
_atom_site_fract_x
_atom_site_fract_y
_atom_site_fract_z
Zn1	Zn	-0.544578	-1.498424	-0.780818
Zn2	Zn	-0.664710	-1.520155	-0.608826
Zn3	Zn	-0.510890	-1.348286	-0.587058
Zn4	Zn	-0.660343	-1.326404	-0.758946
O5	O	-0.595130	-1.423317	-0.683912
O6	O	-0.576440	-1.645225	-0.776266
O7	O	-0.632034	-1.515608	-0.462023
O8	O	-0.402537	-1.368265	-0.612805
O9	O	-0.664700	-1.661191	-0.649904
O10	O	-0.427288	-1.478571	-0.755159
O11	O	-0.519023	-1.389337	-0.446031
O12	O	-0.514789	-1.201465	-0.591596
O13	O	-0.657257	-1.330971	-0.905762
O14	O	-0.624591	-1.185388	-0.717882
O15	O	-0.572206	-1.457353	-0.921832
O16	O	-0.776952	-1.494391	-0.628696
O17	O	-0.773744	-1.352043	-0.738988
C18	C	-0.565561	-1.156110	-0.650004
C19	C	-0.552933	-1.041794	-0.635523
C20	C	-0.804607	-1.423225	-0.683857
C21	C	-0.894235	-1.423276	-0.683879
C22	C	-0.601702	-0.982914	-0.691456
C23	C	-0.588651	-0.864763	-0.676490
C24	C	-1.222439	-1.423442	-0.684009
C25	C	-1.131123	-1.423392	-0.683975
C26	C	-1.058340	-1.423358	-0.683944
C27	C	-0.967018	-1.423310	-0.683911
C28	C	-0.384841	-1.423435	-0.683994
C29	C	-0.295228	-1.423485	-0.684028
C30	C	-0.618002	-1.389297	-0.952156
C31	C	-0.627749	-1.374800	-1.066465
C32	C	-0.624805	-0.691569	-0.717946
C33	C	-0.637427	-0.805884	-0.732431
C34	C	-0.590013	-1.430868	-1.125379
C35	C	-0.600085	-1.415885	-1.243524
C36	C	-0.572295	-1.457264	-0.416719
C37	C	-0.562344	-1.471961	-0.302436
H38	H	-0.653114	-1.019975	-0.750426
N39	N	-0.509659	-1.550238	-1.253408
H40	H	-0.509928	-1.549846	-1.175959
H41	H	-0.531920	-1.621326	-1.281446
H42	H	-0.667508	-1.315699	-1.103493
H43	H	-0.639847	-1.356781	-1.280547
H44	H	-0.537230	-0.827705	-0.617524
H45	H	-0.688841	-0.842939	-0.791408
N46	N	-0.537357	-1.509165	-1.076337
H47	H	-0.491597	-1.473019	-1.026465
H48	H	-0.571706	-1.562381	-1.037867
H49	H	-0.501516	-1.004732	-0.576560
