data_functionalizedCrystal
_audit_creation_method	'MofGen! by Chris Wilmer'
_symmetry_space_group_name_H-M	'P1'
_symmetry_Int_Tables_number	1
_symmetry_cell_setting	triclinic
loop_
_symmetry_equiv_pos_as_xyz
  x,y,z
_cell_length_a	14.044191
_cell_length_b	17.699083
_cell_length_c	16.176319
_cell_angle_alpha	90.007696
_cell_angle_beta	90.004783
_cell_angle_gamma	88.237396
loop_
_atom_site_label
_atom_site_type_symbol
_atom_site_fract_x
_atom_site_fract_y
_atom_site_fract_z
O1	O	-1.257292	-0.182469	-0.068710
O2	O	-0.981337	-0.175880	-0.068720
O3	O	-1.127111	-0.069523	-0.068707
O4	O	-1.111518	-0.288826	-0.068722
O5	O	-1.127091	-0.069514	0.068786
O6	O	-0.981317	-0.175871	0.068773
O7	O	-1.257272	-0.182460	0.068784
Cu8	Cu	-1.119293	-0.179165	0.081333
Cu9	Cu	-1.119317	-0.179175	-0.081269
O10	O	-1.111498	-0.288817	0.068771
C11	C	-1.126542	-0.041283	0.000040
C12	C	-1.124866	0.042850	0.000040
C13	C	-0.946020	-0.172993	0.000025
C14	C	-0.840814	-0.164395	0.000022
C15	C	-1.292590	-0.185347	0.000036
C16	C	-1.397796	-0.193945	0.000035
C17	C	-0.590423	-0.209655	0.000027
C18	C	-0.648192	-0.148688	0.000030
C19	C	-0.755376	-0.157430	0.000025
C20	C	-0.483229	-0.200915	0.000031
C21	C	-1.112067	-0.317057	0.000022
C22	C	-1.113743	-0.401191	0.000017
N23	N	-1.119283	-0.179158	0.195698
C24	C	-1.210432	0.085567	0.000044
C25	C	-1.208852	0.164620	0.000037
C26	C	-1.121704	0.200954	0.000031
C27	C	-1.036131	0.158231	0.000024
C28	C	-1.037713	0.079180	0.000026
C29	C	-1.029751	0.477035	0.000017
C30	C	-1.028176	0.556091	0.000018
C31	C	-1.200890	0.562474	0.000028
C32	C	-1.202471	0.483423	0.000030
C33	C	-1.116899	0.440707	0.000019
C34	C	-1.118614	0.354990	0.000025
C35	C	-1.119988	0.286670	0.000031
N36	N	-1.119334	-0.179177	-0.195634
C37	C	-1.183851	-0.132085	0.238968
C38	C	-1.183856	-0.132085	0.325515
C39	C	-1.119297	-0.179161	0.368791
C40	C	-1.054722	-0.226236	0.325515
C41	C	-1.054713	-0.226232	0.238969
C42	C	-1.054754	-0.226252	0.674543
C43	C	-1.054770	-0.226254	0.761094
C44	C	-1.183897	-0.132105	0.761089
C45	C	-1.183888	-0.132101	0.674543
C46	C	-1.119311	-0.179172	0.631275
C47	C	-1.119305	-0.179171	0.537431
C48	C	-1.119306	-0.179167	0.462633
H49	H	-0.617152	-0.089927	-0.000024
C50	C	-1.298333	0.443459	0.000033
H51	H	-1.349068	0.480222	0.000026
H52	H	-1.302536	0.412758	0.047978
H53	H	-1.302541	0.412751	-0.047922
C54	C	-0.983748	-0.278048	0.626955
H55	H	-0.992983	-0.271305	0.569213
H56	H	-0.993941	-0.329248	0.641136
H57	H	-0.920512	-0.265538	0.641145
H58	H	-0.621461	-0.268411	0.000020
C59	C	-0.935626	0.430057	0.000019
H60	H	-0.883501	0.463021	0.000027
H61	H	-0.932650	0.399078	-0.047925
H62	H	-0.932650	0.399096	0.047975
C63	C	-1.306296	0.045606	0.000051
H64	H	-1.357029	0.082372	0.000044
H65	H	-1.310499	0.014907	0.047997
H66	H	-1.310509	0.014897	-0.047902
C67	C	-0.932310	0.596058	0.000001
H68	H	-0.881572	0.559296	-0.000015
H69	H	-0.928089	0.626770	0.047946
H70	H	-0.928123	0.626756	-0.047954
H71	H	-1.278528	0.199396	0.000042
H72	H	-1.270567	0.597262	0.000033
C73	C	-0.940271	0.198197	0.000020
H74	H	-0.951582	0.251395	0.000029
H75	H	-0.905051	0.183925	-0.047927
H76	H	-0.905044	0.183933	0.047973
H77	H	-0.968036	0.044401	0.000022
C78	C	-0.983709	-0.278020	0.373115
H79	H	-0.992968	-0.271287	0.430856
H80	H	-0.920479	-0.265502	0.358946
H81	H	-0.993888	-0.329227	0.358917
H82	H	-1.236427	-0.093754	0.203738
H83	H	-1.002134	-0.264562	0.203740
C84	C	-1.254923	-0.080319	0.808686
H85	H	-1.245678	-0.087054	0.866427
H86	H	-1.318150	-0.092838	0.794491
H87	H	-1.244743	-0.029110	0.794510
C88	C	-1.254918	-0.080334	0.626940
H89	H	-1.245675	-0.087082	0.569200
H90	H	-1.244767	-0.029124	0.641127
H91	H	-1.318145	-0.092872	0.641119
C92	C	-1.254889	-0.080313	0.373108
H93	H	-1.293347	-0.052284	0.334940
H94	H	-1.220887	-0.046490	0.406884
H95	H	-1.294275	-0.110230	0.406855
H96	H	-1.002194	-0.264590	0.796328
