data_functionalizedCrystal
_audit_creation_method	'MofGen! by Chris Wilmer'
_symmetry_space_group_name_H-M	'P1'
_symmetry_Int_Tables_number	1
_symmetry_cell_setting	triclinic
loop_
_symmetry_equiv_pos_as_xyz
  x,y,z
_cell_length_a	14.044220
_cell_length_b	11.792254
_cell_length_c	10.868271
_cell_angle_alpha	90.004454
_cell_angle_beta	89.994103
_cell_angle_gamma	88.693738
loop_
_atom_site_label
_atom_site_type_symbol
_atom_site_fract_x
_atom_site_fract_y
_atom_site_fract_z
O1	O	0.130045	1.519094	-0.102325
O2	O	0.630045	2.019094	0.397675
O3	O	0.143429	1.190011	-0.102328
O4	O	0.643429	1.690011	0.397672
O5	O	-0.001274	1.349613	-0.102314
O6	O	0.498726	1.849613	0.397686
O7	O	0.274747	1.359492	-0.102339
O8	O	0.774747	1.859492	0.397661
O9	O	-0.001279	1.349627	0.102330
O10	O	0.498721	1.849627	0.602330
O11	O	0.143423	1.190025	0.102317
O12	O	0.643423	1.690025	0.602317
O13	O	0.130039	1.519107	0.102320
O14	O	0.630039	2.019107	0.602320
Zn15	Zn	0.136730	1.354568	0.134810
Zn16	Zn	0.636730	1.854568	0.634810
Zn17	Zn	0.136738	1.354550	-0.134818
Zn18	Zn	0.636738	1.854550	0.365182
O19	O	0.274741	1.359506	0.102306
O20	O	0.774741	1.859506	0.602306
C21	C	0.142583	1.147648	-0.000006
C22	C	0.642583	1.647648	0.499994
C23	C	0.140059	1.021398	-0.000007
C24	C	0.640059	1.521398	0.499993
C25	C	0.138009	0.918869	-0.000012
C26	C	0.638009	1.418869	0.499988
C27	C	0.135445	0.790242	-0.000012
C28	C	0.635445	1.290242	0.499988
C29	C	-0.036613	1.345295	0.000008
C30	C	0.463387	1.845295	0.500008
C31	C	-0.141906	1.332396	0.000010
C32	C	0.358094	1.832396	0.500010
C33	C	-0.334689	1.308814	-0.000008
C34	C	0.165311	1.808814	0.499992
C35	C	-0.391849	1.400299	-0.000011
C36	C	0.108151	1.900299	0.499989
C37	C	-0.499120	1.387178	-0.000021
C38	C	0.000880	1.887178	0.499979
C39	C	-0.227408	1.321934	0.000002
C40	C	0.272592	1.821934	0.500002
C41	C	0.310081	1.363823	-0.000019
C42	C	0.810081	1.863823	0.499981
C43	C	0.415373	1.376722	-0.000029
C44	C	0.915373	1.876722	0.499971
C45	C	0.130885	1.561470	-0.000005
C46	C	0.630885	2.061470	0.499995
C47	C	0.133408	1.687720	-0.000012
C48	C	0.633408	2.187720	0.499988
N49	N	0.136736	1.354538	-0.318832
N50	N	0.636736	1.854538	0.181168
C51	C	0.136736	1.354546	-0.430170
C52	C	0.636736	1.854546	0.069830
C53	C	0.136732	1.354566	-0.569848
C54	C	0.636732	1.854566	-0.069848
N55	N	0.136724	1.354589	0.318824
N56	N	0.636724	1.854589	0.818824
H57	H	-0.360221	1.488476	-0.000093
H58	H	0.139779	1.988476	0.499907
H59	H	-0.366315	1.220644	-0.000012
H60	H	0.133685	1.720644	0.499988
