data_functionalizedCrystal
_audit_creation_method	'MofGen! by Chris Wilmer'
_symmetry_space_group_name_H-M	'P1'
_symmetry_Int_Tables_number	1
_symmetry_cell_setting	triclinic
loop_
_symmetry_equiv_pos_as_xyz
  x,y,z
_cell_length_a	19.805407
_cell_length_b	29.839131
_cell_length_c	19.805399
_cell_angle_alpha	90.037218
_cell_angle_beta	90.017803
_cell_angle_gamma	90.032545
loop_
_atom_site_label
_atom_site_type_symbol
_atom_site_fract_x
_atom_site_fract_y
_atom_site_fract_z
Zn1	Zn	1.034694	-0.178896	0.382642
Zn2	Zn	1.534694	0.321104	0.882642
Zn3	Zn	1.034592	-0.254024	0.269435
Zn4	Zn	1.534592	0.245976	0.769435
Zn5	Zn	0.921509	-0.178905	0.269470
Zn6	Zn	1.421509	0.321095	0.769470
Zn7	Zn	0.921455	-0.253996	0.382585
Zn8	Zn	1.421455	0.246004	0.882585
O9	O	0.978062	-0.216455	0.326033
O10	O	1.478062	0.283545	0.826033
O11	O	1.129397	-0.188870	0.367634
O12	O	1.629397	0.311130	0.867634
O13	O	1.019571	-0.244074	0.174723
O14	O	1.519571	0.255926	0.674723
O15	O	0.936589	-0.116036	0.284522
O16	O	1.436589	0.383964	0.784522
O17	O	1.129322	-0.244065	0.284461
O18	O	1.629322	0.255935	0.784461
O19	O	1.019745	-0.116030	0.367668
O20	O	1.519745	0.383970	0.867668
O21	O	0.936489	-0.188885	0.174749
O22	O	1.436489	0.311115	0.674749
O23	O	0.826785	-0.188858	0.284466
O24	O	1.326785	0.311142	0.784466
O25	O	0.936497	-0.244019	0.477309
O26	O	1.436497	0.255981	0.977309
O27	O	0.826745	-0.244027	0.367571
O28	O	1.326745	0.255973	0.867571
O29	O	1.019693	-0.188843	0.477351
O30	O	1.519693	0.311157	0.977351
O31	O	1.019518	-0.316887	0.284406
O32	O	1.519518	0.183113	0.784406
O33	O	0.936397	-0.316867	0.367537
O34	O	1.436397	0.183133	0.867537
C35	C	0.802206	-0.216441	0.326017
C36	C	1.302206	0.283559	0.826017
C37	C	0.726974	-0.216446	0.326026
C38	C	1.226974	0.283554	0.826026
C39	C	0.691670	-0.187756	0.369400
C40	C	1.191670	0.312244	0.869400
C41	C	0.620982	-0.187758	0.369402
C42	C	1.120982	0.312242	0.869402
C43	C	0.585599	-0.216453	0.326034
C44	C	1.085599	0.283547	0.826034
C45	C	0.620908	-0.245144	0.282655
C46	C	1.120908	0.254856	0.782655
C47	C	0.691595	-0.245139	0.282650
C48	C	1.191595	0.254861	0.782650
C49	C	0.335835	-0.245164	0.282676
C50	C	0.835835	0.254836	0.782676
C51	C	0.265143	-0.245168	0.282686
C52	C	0.765143	0.254832	0.782686
C53	C	0.265221	-0.187784	0.369429
C54	C	0.765221	0.312216	0.869429
C55	C	0.335908	-0.187779	0.369423
C56	C	0.835908	0.312221	0.869423
C57	C	0.371211	-0.216468	0.326042
C58	C	0.871211	0.283532	0.826042
C59	C	0.447860	-0.216464	0.326039
C60	C	0.947860	0.283536	0.826039
C61	C	0.508952	-0.216459	0.326040
C62	C	1.008952	0.283541	0.826040
C63	C	0.977959	-0.333178	0.325976
C64	C	1.477959	0.166822	0.825976
C65	C	0.977977	-0.383112	0.325974
C66	C	1.477977	0.116888	0.825974
C67	C	1.021353	-0.692717	0.369390
C68	C	1.521353	-0.192717	0.869390
C69	C	1.021426	-0.880390	0.369430
C70	C	1.521426	-0.380390	0.869430
O71	O	1.058205	-0.904622	0.406301
O72	O	1.558205	-0.404622	0.906301
N73	N	0.978177	-0.903897	0.326108
N74	N	1.478177	-0.403897	0.826108
C75	C	0.934904	-0.880483	0.282776
C76	C	1.434904	-0.380483	0.782776
O77	O	0.898115	-0.904783	0.245934
O78	O	1.398115	-0.404783	0.745934
C79	C	0.934828	-0.692811	0.282740
C80	C	1.434828	-0.192811	0.782740
C81	C	0.978084	-0.669306	0.326059
C82	C	1.478084	-0.169306	0.826059
C83	C	1.064605	-0.669213	0.412706
C84	C	1.564605	-0.169213	0.912706
C85	C	1.064589	-0.622297	0.412693
C86	C	1.564589	-0.122297	0.912693
C87	C	1.021320	-0.598886	0.369363
C88	C	1.521320	-0.098886	0.869363
C89	C	0.978068	-0.622391	0.326046
C90	C	1.478068	-0.122391	0.826046
C91	C	0.891551	-0.669397	0.239412
C92	C	1.391551	-0.169397	0.739412
C93	C	0.891535	-0.622476	0.239407
C94	C	1.391535	-0.122476	0.739407
C95	C	0.934791	-0.598972	0.282727
C96	C	1.434791	-0.098972	0.782727
C97	C	0.934783	-0.552064	0.282703
C98	C	1.434783	-0.052064	0.782703
N99	N	0.978032	-0.528558	0.326025
N100	N	1.478032	-0.028558	0.826025
C101	C	1.021300	-0.551968	0.369355
C102	C	1.521300	-0.051968	0.869355
C103	C	0.934948	-0.979013	0.282798
C104	C	1.434948	-0.479013	0.782798
C105	C	0.934968	-1.025931	0.282806
C106	C	1.434968	-0.525931	0.782806
C107	C	1.021489	-1.025835	0.369461
C108	C	1.521489	-0.525835	0.869461
C109	C	1.021472	-0.978917	0.369449
C110	C	1.521472	-0.478917	0.869449
C111	C	0.978197	-0.955507	0.326120
C112	C	1.478197	-0.455507	0.826120
C113	C	1.021264	-0.453443	0.369324
C114	C	1.521264	0.046557	0.869324
C115	C	1.021246	-0.406523	0.369304
C116	C	1.521246	0.093477	0.869304
C117	C	0.934722	-0.406623	0.282652
C118	C	1.434722	0.093377	0.782652
C119	C	0.934742	-0.453539	0.282669
C120	C	1.434742	0.046461	0.782669
C121	C	0.978015	-0.476947	0.326010
C122	C	1.478015	0.023053	0.826010
O123	O	0.898018	-0.527803	0.245857
O124	O	1.398018	-0.027803	0.745857
O125	O	1.058073	-0.527660	0.406202
O126	O	1.558073	-0.027660	0.906202
C127	C	1.021369	-0.739633	0.369403
C128	C	1.521369	-0.239633	0.869403
C129	C	0.978116	-0.763137	0.326086
C130	C	1.478116	-0.263137	0.826086
C131	C	0.934848	-0.739726	0.282756
C132	C	1.434848	-0.239726	0.782756
C133	C	0.978136	-0.810055	0.326094
C134	C	1.478136	-0.310055	0.826094
C135	C	1.021405	-0.833466	0.369424
C136	C	1.521405	-0.333466	0.869424
C137	C	1.064654	-0.809959	0.412746
C138	C	1.564654	-0.309959	0.912746
C139	C	1.064637	-0.763044	0.412733
C140	C	1.564637	-0.263044	0.912733
C141	C	0.891599	-0.763233	0.239434
C142	C	1.391599	-0.263233	0.739434
C143	C	0.891619	-0.810149	0.239450
C144	C	1.391619	-0.310149	0.739450
C145	C	0.934888	-0.833560	0.282780
C146	C	1.434888	-0.333560	0.782780
C147	C	1.154605	-0.216470	0.326050
C148	C	1.654605	0.283530	0.826050
C149	C	1.229837	-0.216476	0.326057
C150	C	1.729837	0.283524	0.826057
C151	C	0.978100	-0.216427	0.502576
C152	C	1.478100	0.283573	1.002576
C153	C	0.978117	-0.216415	0.577808
C154	C	1.478117	0.283585	1.077808
C155	C	0.978184	-0.099277	0.326105
C156	C	1.478184	0.400723	0.826105
C157	C	0.978236	-0.049342	0.326136
C158	C	1.478236	0.450658	0.826136
C159	C	0.978063	-0.216451	0.150177
C160	C	1.478063	0.283549	0.650177
C161	C	0.978178	-0.216336	0.074946
C162	C	1.478178	0.283664	0.574946
C163	C	1.021438	-0.187683	0.613175
C164	C	1.521438	0.312317	1.113175
C165	C	1.021445	-0.187670	0.683864
C166	C	1.521445	0.312330	1.183864
C167	C	0.978133	-0.216391	0.719184
C168	C	1.478133	0.283609	1.219184
C169	C	0.934807	-0.245124	0.683812
C170	C	1.434807	0.254876	1.183812
C171	C	0.934797	-0.245134	0.613125
C172	C	1.434797	0.254866	1.113125
C173	C	0.934845	-0.245082	0.968885
C174	C	1.434845	0.254918	1.468885
C175	C	0.934860	-0.245070	1.039577
C176	C	1.434860	0.254930	1.539577
C177	C	1.021493	-0.187618	1.039624
C178	C	1.521493	0.312382	1.539624
C179	C	1.021483	-0.187628	0.968937
C180	C	1.521483	0.312372	1.468937
C181	C	0.978155	-0.216359	0.933571
C182	C	1.478155	0.283641	1.433571
C183	C	0.978147	-0.216372	0.856923
C184	C	1.478147	0.283628	1.356923
C185	C	0.978144	-0.216381	0.795831
C186	C	1.478144	0.283619	1.295831
H187	H	0.236469	-0.164422	0.404749
H188	H	0.736469	0.335578	0.904749
Br189	Br	0.572889	-0.284084	0.223792
Br190	Br	1.072889	0.215916	0.723792
H191	H	1.099887	-0.829028	0.448025
H192	H	1.599887	-0.329028	0.948025
Br193	Br	0.573071	-0.148821	0.428270
Br194	Br	1.073071	0.351179	0.928270
H195	H	0.364714	-0.164414	0.404740
H196	H	0.864714	0.335586	0.904740
H197	H	0.899575	-0.268483	0.940099
H198	H	1.399575	0.231517	1.440099
H199	H	0.899514	-0.268526	0.584330
H200	H	1.399514	0.231474	1.084330
Br201	Br	0.876077	-0.284052	1.087512
Br202	Br	1.376077	0.215948	1.587512
H203	H	0.236336	-0.268536	0.247368
H204	H	0.736336	0.231464	0.747368
Br205	Br	0.876047	-0.485439	0.223867
Br206	Br	1.376047	0.014561	0.723867
Br207	Br	0.832799	-0.590708	0.180601
Br208	Br	1.332799	-0.090708	0.680601
Br209	Br	1.123346	-0.731152	0.471527
Br210	Br	1.623346	-0.231152	0.971527
H211	H	0.720474	-0.164391	0.404717
H212	H	1.220474	0.335609	0.904717
Br213	Br	0.876004	-0.374842	0.223849
Br214	Br	1.376004	0.125158	0.723849
H215	H	0.364570	-0.268525	0.247353
H216	H	0.864570	0.231475	0.747353
Br217	Br	0.876207	-0.947249	0.223991
Br218	Br	1.376207	-0.447249	0.723991
H219	H	0.720339	-0.268501	0.247330
H220	H	1.220339	0.231499	0.747330
H221	H	0.856327	-0.688527	0.204136
H222	H	1.356327	-0.188527	0.704136
H223	H	0.856363	-0.744176	0.204150
H224	H	1.356363	-0.244176	0.704150
H225	H	1.056473	-0.387387	0.404581
H226	H	1.556473	0.112613	0.904581
H227	H	1.056496	-0.472496	0.404621
H228	H	1.556496	0.027504	0.904621
Br229	Br	1.123293	-0.590406	0.471492
Br230	Br	1.623293	-0.090406	0.971492
H231	H	1.099839	-0.688269	0.447995
H232	H	1.599839	-0.188269	0.947995
H233	H	1.056695	-0.959782	0.404724
H234	H	1.556695	-0.459782	0.904724
H235	H	0.856396	-0.829282	0.204168
H236	H	1.356396	-0.329282	0.704168
Br237	Br	1.080272	-0.148697	0.731860
Br238	Br	1.580272	0.351303	1.231860
Br239	Br	1.080211	-1.057616	0.428265
Br240	Br	1.580211	-0.557616	0.928265
H241	H	1.056709	-0.164297	0.584423
H242	H	1.556709	0.335703	1.084423
Br243	Br	1.080269	-0.148651	0.921006
Br244	Br	1.580269	0.351349	1.421006
H245	H	0.899751	-1.045065	0.247523
H246	H	1.399751	-0.545065	0.747523
Br247	Br	1.080296	-0.148625	1.087624
Br248	Br	1.580296	0.351375	1.587624
Br249	Br	0.876022	-0.284100	0.731745
Br250	Br	1.376022	0.215900	1.231745
