data_functionalizedCrystal
_audit_creation_method	'MofGen! by Chris Wilmer'
_symmetry_space_group_name_H-M	'P1'
_symmetry_Int_Tables_number	1
_symmetry_cell_setting	triclinic
loop_
_symmetry_equiv_pos_as_xyz
  x,y,z
_cell_length_a	12.645330
_cell_length_b	12.645331
_cell_length_c	16.959447
_cell_angle_alpha	90.007031
_cell_angle_beta	89.973930
_cell_angle_gamma	89.984155
loop_
_atom_site_label
_atom_site_type_symbol
_atom_site_fract_x
_atom_site_fract_y
_atom_site_fract_z
Zn1	Zn	-0.422071	-1.620658	-0.446778
Zn2	Zn	-0.599362	-1.620561	-0.314610
Zn3	Zn	-0.422108	-1.443394	-0.314633
Zn4	Zn	-0.599287	-1.443354	-0.446765
O5	O	-0.510707	-1.531992	-0.380696
O6	O	-0.445605	-1.768992	-0.429242
O7	O	-0.575896	-1.597036	-0.204002
O8	O	-0.273756	-1.466965	-0.332177
O9	O	-0.575860	-1.768921	-0.332138
O10	O	-0.273728	-1.597200	-0.429264
O11	O	-0.445668	-1.466872	-0.204019
O12	O	-0.445595	-1.295041	-0.332164
O13	O	-0.575732	-1.466897	-0.557378
O14	O	-0.575768	-1.295012	-0.429241
O15	O	-0.445532	-1.597162	-0.557387
O16	O	-0.747700	-1.596997	-0.332125
O17	O	-0.747644	-1.466804	-0.429219
C18	C	-0.510678	-1.256562	-0.380704
C19	C	-0.510691	-1.138732	-0.380727
C20	C	-0.593028	-0.971185	-0.441483
C21	C	-0.592765	-1.093745	-0.441734
C22	C	-0.399035	-1.094250	-0.403485
C23	C	-0.399535	-0.971652	-0.403915
C24	C	-0.539103	-0.971500	-0.297027
C25	C	-0.541547	-1.094106	-0.297476
C26	C	-0.786137	-1.531914	-0.380685
C27	C	-0.903967	-1.531978	-0.380707
C28	C	-1.071540	-1.450411	-0.441977
C29	C	-0.948981	-1.449994	-0.441780
C30	C	-0.948562	-1.501747	-0.297408
C31	C	-1.071161	-1.501249	-0.297780
C32	C	-1.071059	-1.644276	-0.402060
C33	C	-0.948452	-1.643587	-0.403882
C34	C	-0.234202	-1.532098	-0.380725
C35	C	-0.116372	-1.532144	-0.380737
C36	C	-0.510619	-1.532036	-0.586865
C37	C	-0.510582	-1.532055	-0.674721
C38	C	-0.510732	-0.808497	-0.380694
C39	C	-0.510731	-0.926327	-0.380707
C40	C	-0.578259	-1.464359	-1.046194
C41	C	-0.442681	-1.600004	-1.046200
C42	C	-0.442703	-1.599976	-0.963654
C43	C	-0.510506	-1.532139	-0.922374
C44	C	-0.578286	-1.464330	-0.963641
C45	C	-0.374932	-1.667790	-0.922381
C46	C	-0.374953	-1.667766	-0.839830
C47	C	-0.442751	-1.599923	-0.798549
C48	C	-0.510533	-1.532111	-0.839821
C49	C	-0.578335	-1.464274	-0.798541
C50	C	-0.646112	-1.396456	-0.839811
C51	C	-0.646084	-1.396488	-0.922360
C52	C	-0.442779	-1.599891	-0.716001
C53	C	-0.578362	-1.464246	-0.715988
C54	C	-0.510718	-1.532009	-0.175330
C55	C	-0.510457	-1.532195	-0.087474
H56	H	-0.573989	-1.123084	-0.503737
N57	N	-0.301813	-1.740959	-0.966901
H58	H	-0.312078	-1.730681	-1.025457
H59	H	-0.226104	-1.724488	-0.952484
H60	H	-0.675564	-1.123819	-0.427471
N61	N	-0.719249	-1.323298	-0.795286
H62	H	-0.708980	-1.333580	-0.736730
H63	H	-0.702736	-1.247595	-0.809716
H64	H	-0.919407	-1.559390	-0.250533
H65	H	-0.623710	-1.123191	-0.280311
H66	H	-0.336019	-0.941978	-0.361679
N67	N	-1.110505	-1.475216	-0.524063
H68	H	-1.048120	-1.489562	-0.559706
H69	H	-1.157613	-1.539656	-0.522282
H70	H	-0.919743	-1.366864	-0.427654
H71	H	-0.701268	-1.341277	-0.955969
H72	H	-0.375470	-0.943067	-0.465089
N73	N	-0.459707	-0.933064	-0.237044
H74	H	-0.497306	-0.891102	-0.194811
H75	H	-0.423021	-0.995764	-0.212298
H76	H	-0.633439	-1.409140	-1.079800
N77	N	-0.907864	-1.728491	-0.349092
H78	H	-0.969484	-1.763844	-0.321869
H79	H	-0.867047	-1.782782	-0.380449
H80	H	-0.387485	-1.655239	-1.079814
H81	H	-0.336052	-1.123390	-0.360600
N82	N	-1.109453	-1.724940	-0.342981
H83	H	-1.155970	-1.689084	-0.302596
H84	H	-1.151278	-1.781500	-0.371160
N85	N	-1.109174	-1.392677	-0.273848
H86	H	-1.046290	-1.345590	-0.263158
H87	H	-1.153012	-1.361359	-0.317798
N88	N	-1.112450	-1.340978	-0.423508
H89	H	-1.153920	-1.313263	-0.470009
H90	H	-1.159855	-1.344198	-0.375625
N91	N	-0.301855	-1.740907	-0.795320
H92	H	-0.258900	-1.783885	-0.833998
H93	H	-0.252800	-1.697761	-0.761085
H94	H	-0.633566	-1.408995	-0.682384
N95	N	-0.369703	-1.673038	-0.671482
H96	H	-0.293946	-1.656624	-0.685854
H97	H	-0.380107	-1.662685	-0.612940
N98	N	-0.908014	-1.394302	-0.273046
H99	H	-0.931512	-1.339604	-0.312741
H100	H	-0.937157	-1.375645	-0.219361
H101	H	-1.100821	-1.558196	-0.250596
N102	N	-0.703063	-0.932110	-0.422799
H103	H	-0.704434	-0.852319	-0.425267
H104	H	-0.754587	-0.961878	-0.462500
N105	N	-0.568488	-0.930393	-0.523139
H106	H	-0.504293	-0.882982	-0.520934
H107	H	-0.553866	-0.992014	-0.559437
N108	N	-0.467902	-1.134667	-0.234278
H109	H	-0.393120	-1.112068	-0.246674
H110	H	-0.489739	-1.104685	-0.181526
H111	H	-1.101902	-1.671856	-0.461769
N112	N	-0.366570	-1.134926	-0.483636
H113	H	-0.424018	-1.182156	-0.505319
H114	H	-0.355204	-1.073240	-0.520497
N115	N	-0.645100	-0.930532	-0.269615
H116	H	-0.675803	-0.882267	-0.311168
H117	H	-0.694574	-0.992020	-0.260510
H118	H	-0.919301	-1.666386	-0.465185
N119	N	-0.909024	-1.475034	-0.523595
H120	H	-0.935377	-1.547087	-0.540134
H121	H	-0.935788	-1.419921	-0.561789
