data_functionalizedCrystal
_audit_creation_method	'MofGen! by Chris Wilmer'
_symmetry_space_group_name_H-M	'P1'
_symmetry_Int_Tables_number	1
_symmetry_cell_setting	triclinic
loop_
_symmetry_equiv_pos_as_xyz
  x,y,z
_cell_length_a	12.759395
_cell_length_b	12.759394
_cell_length_c	12.759387
_cell_angle_alpha	89.968340
_cell_angle_beta	89.978972
_cell_angle_gamma	90.015598
loop_
_atom_site_label
_atom_site_type_symbol
_atom_site_fract_x
_atom_site_fract_y
_atom_site_fract_z
Zn1	Zn	1.606268	-0.418190	-0.594013
Zn2	Zn	1.606158	-0.593907	-0.418331
Zn3	Zn	1.430566	-0.418245	-0.418349
Zn4	Zn	1.430558	-0.593830	-0.593969
O5	O	1.518387	-0.506043	-0.506165
O6	O	1.753274	-0.441508	-0.570720
O7	O	1.582823	-0.570660	-0.271312
O8	O	1.453922	-0.271216	-0.441677
O9	O	1.753194	-0.570607	-0.441647
O10	O	1.583010	-0.271176	-0.570737
O11	O	1.453816	-0.441602	-0.271325
O12	O	1.283544	-0.441527	-0.441634
O13	O	1.453909	-0.570475	-0.740996
O14	O	1.283538	-0.570529	-0.570661
O15	O	1.583002	-0.441434	-0.741029
O16	O	1.582815	-0.740918	-0.441604
O17	O	1.453802	-0.740861	-0.570644
C18	C	1.245420	-0.506026	-0.506145
C19	C	1.128643	-0.506044	-0.506161
C20	C	0.909292	-0.371854	-0.640817
C21	C	0.964201	-0.304737	-0.708115
C22	C	1.073922	-0.304719	-0.708096
C23	C	1.128738	-0.371828	-0.640775
C24	C	1.073830	-0.438945	-0.573477
C25	C	0.964106	-0.438954	-0.573501
C26	C	1.073735	-0.573162	-0.438863
C27	C	0.964013	-0.573176	-0.438874
C28	C	1.128551	-0.640271	-0.371542
C29	C	1.073643	-0.707384	-0.304237
C30	C	0.963914	-0.707399	-0.304257
C31	C	0.909105	-0.640294	-0.371577
C32	C	1.518324	-0.779010	-0.506140
C33	C	1.518393	-0.895787	-0.506164
C34	C	1.652835	-0.895793	-0.371895
C35	C	1.720083	-0.950656	-0.304773
C36	C	1.720145	-1.060378	-0.304802
C37	C	1.652953	-1.115238	-0.371962
C38	C	1.585705	-1.060375	-0.439084
C39	C	1.585648	-0.950650	-0.439046
C40	C	1.451270	-1.060369	-0.573357
C41	C	1.451202	-0.950647	-0.573324
C42	C	1.384079	-1.115229	-0.640517
C43	C	1.316823	-1.060366	-0.707635
C44	C	1.316764	-0.950638	-0.707603
C45	C	1.383954	-0.895784	-0.640446
C46	C	1.792421	-0.506060	-0.506187
C47	C	1.909197	-0.506067	-0.506196
C48	C	1.518467	-0.505940	-0.780199
C49	C	1.518500	-0.505896	-0.896976
C50	C	1.518479	-0.232009	-0.506214
C51	C	1.518518	-0.115233	-0.506235
C52	C	1.652934	-0.371533	-0.897030
C53	C	1.720166	-0.304336	-0.951918
C54	C	1.720192	-0.304298	-1.061639
C55	C	1.652976	-0.371462	-1.116476
C56	C	1.585744	-0.438659	-1.061588
C57	C	1.585728	-0.438692	-0.951864
C58	C	1.451307	-0.573014	-1.061534
C59	C	1.451285	-0.573060	-0.951812
C60	C	1.384091	-0.640178	-1.116370
C61	C	1.316863	-0.707382	-1.061483
C62	C	1.316841	-0.707418	-0.951754
C63	C	1.384053	-0.640257	-0.896924
C64	C	1.518369	-0.506069	-0.233198
C65	C	1.518538	-0.505817	-0.116422
H66	H	0.919557	-0.250101	-0.762928
H67	H	1.774792	-0.905979	-0.250094
H68	H	1.383905	-0.806443	-0.640407
H69	H	1.774909	-1.105047	-0.250151
H70	H	1.217892	-0.640258	-0.371538
H71	H	1.653018	-1.204579	-0.371988
H72	H	0.919214	-0.762059	-0.249460
H73	H	1.384113	-0.640138	-1.205712
H74	H	1.118282	-0.762024	-0.249435
H75	H	1.384138	-1.204571	-0.640540
H76	H	1.262006	-0.905973	-0.762266
H77	H	1.262082	-0.762127	-0.907071
H78	H	0.819764	-0.640286	-0.371587
H79	H	1.652778	-0.806451	-0.371852
H80	H	1.262126	-1.105042	-0.762316
H81	H	1.652994	-0.371416	-1.205817
H82	H	1.652930	-0.371568	-0.807689
H83	H	1.384046	-0.640284	-0.807583
H84	H	1.774890	-0.249651	-0.907258
H85	H	0.819951	-0.371839	-0.640815
H86	H	1.118628	-0.250068	-0.762898
H87	H	1.262136	-0.762055	-1.106139
H88	H	1.218079	-0.371817	-0.640776
H89	H	1.774931	-0.249574	-1.106329
