data_functionalizedCrystal
_audit_creation_method	'MofGen! by Chris Wilmer'
_symmetry_space_group_name_H-M	'P1'
_symmetry_Int_Tables_number	1
_symmetry_cell_setting	triclinic
loop_
_symmetry_equiv_pos_as_xyz
  x,y,z
_cell_length_a	12.759401
_cell_length_b	13.031981
_cell_length_c	12.759401
_cell_angle_alpha	97.198898
_cell_angle_beta	90.003086
_cell_angle_gamma	97.191788
loop_
_atom_site_label
_atom_site_type_symbol
_atom_site_fract_x
_atom_site_fract_y
_atom_site_fract_z
Zn1	Zn	1.552965	-0.416256	0.540803
Zn2	Zn	1.530610	-0.590999	0.342788
Zn3	Zn	1.377319	-0.416246	0.365141
Zn4	Zn	1.354958	-0.590983	0.518429
O5	O	1.453963	-0.503621	0.441790
O6	O	1.697019	-0.439447	0.514545
O7	O	1.510277	-0.567821	0.198732
O8	O	1.419332	-0.269988	0.407161
O9	O	1.680595	-0.567831	0.369064
O10	O	1.548379	-0.269996	0.536219
O11	O	1.397655	-0.439430	0.215155
O12	O	1.227333	-0.439413	0.385466
O13	O	1.381222	-0.567802	0.668418
O14	O	1.210905	-0.567792	0.498086
O15	O	1.526697	-0.439431	0.684856
O16	O	1.488595	-0.737256	0.347370
O17	O	1.359545	-0.737244	0.476412
C18	C	1.180998	-0.503600	0.441774
C19	C	1.064219	-0.503617	0.441789
C20	C	0.908165	-0.436702	0.383288
C21	C	1.017891	-0.436682	0.383278
C22	C	1.000816	-0.570569	0.500322
C23	C	0.891092	-0.570583	0.500337
C24	C	0.918023	-0.359407	0.315710
C25	C	1.027750	-0.359387	0.315701
C26	C	1.419246	-0.775173	0.407060
C27	C	1.404490	-0.891344	0.392238
C28	C	1.461720	-0.943057	0.449547
C29	C	1.446470	-1.063127	0.434229
C30	C	1.727993	-0.503642	0.441807
C31	C	1.844769	-0.503651	0.441814
C32	C	1.453959	-0.503616	0.715824
C33	C	1.453957	-0.503614	0.832601
C34	C	1.488844	-0.231008	0.476679
C35	C	1.503708	-0.114837	0.491547
C36	C	1.529698	-0.436785	0.896022
C37	C	1.529692	-0.436787	1.005746
C38	C	1.378199	-0.570456	0.988617
C39	C	1.378202	-0.570448	0.878896
C40	C	1.617164	-0.359615	0.905912
C41	C	1.617157	-0.359617	1.015636
C42	C	1.453954	-0.503643	1.168820
C43	C	1.453948	-0.503624	1.052046
H44	H	1.038546	-0.625061	0.547971
O45	O	1.366606	-1.122216	0.354210
H46	H	1.326998	-1.066071	0.314565
H47	H	1.605735	-0.278661	0.886503
O48	O	1.583578	-1.055759	0.571566
H49	H	1.583031	-0.970723	0.571037
O50	O	1.324642	-0.950438	0.312211
H51	H	1.264879	-1.000210	0.352877
H52	H	1.695751	-0.381308	1.042643
H53	H	0.880285	-0.388290	0.234681
H54	H	1.316524	-0.624863	0.827262
O55	O	1.296494	-0.642541	1.038547
H56	H	1.309216	-0.631323	1.125498
H57	H	1.522003	-0.898443	0.509958
O58	O	1.714632	-0.398015	0.855905
H59	H	1.766307	-0.418377	0.918127
H60	H	1.054759	-0.380943	0.231534
H61	H	0.839480	-0.625090	0.548004
H62	H	0.898588	-0.278495	0.347984
O63	O	1.591595	-0.257756	1.073758
H64	H	1.519318	-0.272333	1.120824
O65	O	1.085855	-0.257578	0.367461
H66	H	1.027926	-0.203616	0.394908
