data_functionalizedCrystal
_audit_creation_method	'MofGen! by Chris Wilmer'
_symmetry_space_group_name_H-M	'P1'
_symmetry_Int_Tables_number	1
_symmetry_cell_setting	triclinic
loop_
_symmetry_equiv_pos_as_xyz
  x,y,z
_cell_length_a	9.065218
_cell_length_b	19.288865
_cell_length_c	18.366186
_cell_angle_alpha	90.011479
_cell_angle_beta	90.009098
_cell_angle_gamma	84.076066
loop_
_atom_site_label
_atom_site_type_symbol
_atom_site_fract_x
_atom_site_fract_y
_atom_site_fract_z
O1	O	-1.956843	-0.101842	-0.060561
O2	O	-1.527266	-0.110195	-0.060563
O3	O	-1.754467	-0.004985	-0.060548
O4	O	-1.729642	-0.207053	-0.060577
O5	O	-1.754429	-0.004979	0.060552
O6	O	-1.527227	-0.110190	0.060536
O7	O	-1.956805	-0.101836	0.060538
Zn8	Zn	-1.742010	-0.106012	0.079764
Zn9	Zn	-1.742061	-0.106020	-0.079789
O10	O	-1.729603	-0.207047	0.060523
C11	C	-1.753649	0.020901	0.000004
C12	C	-1.751251	0.098023	0.000010
C13	C	-1.472288	-0.109390	-0.000014
C14	C	-1.308529	-0.106989	-0.000014
C15	C	-2.011782	-0.102642	-0.000013
C16	C	-2.175541	-0.105043	-0.000018
C17	C	-1.730421	-0.232933	-0.000031
C18	C	-1.732819	-0.310055	-0.000042
N19	N	-1.741986	-0.106007	0.188655
C20	C	-1.884563	0.141684	0.000015
C21	C	-1.882310	0.214149	0.000003
C22	C	-1.746738	0.242949	0.000002
C23	C	-1.613409	0.199278	-0.000006
C24	C	-1.615666	0.126815	-0.000002
C25	C	-1.640149	0.352066	0.042420
C26	C	-1.637898	0.424528	0.042420
C27	C	-1.739773	0.466448	-0.000014
C28	C	-1.843923	0.435900	-0.042440
C29	C	-1.846180	0.363437	-0.042436
C30	C	-1.744276	0.321522	-0.000003
C31	C	-1.870651	0.588685	-0.000024
C32	C	-1.868392	0.661150	-0.000040
C33	C	-1.599488	0.646278	-0.000042
C34	C	-1.601750	0.573814	-0.000033
C35	C	-1.737335	0.545022	-0.000021
N36	N	-1.742096	-0.106019	-0.188681
C37	C	-1.842624	-0.059443	0.226763
C38	C	-1.842633	-0.059440	0.302990
C39	C	-1.742019	-0.106013	0.341108
C40	C	-1.641362	-0.152580	0.302992
C41	C	-1.641346	-0.152577	0.226765
C42	C	-1.722271	-0.169147	0.461859
C43	C	-1.722297	-0.169151	0.538084
C44	C	-1.742061	-0.106022	0.576216
C45	C	-1.761829	-0.042886	0.538113
C46	C	-1.761813	-0.042883	0.461886
C47	C	-1.742025	-0.106021	0.423763
C48	C	-1.842714	-0.059451	0.696978
C49	C	-1.842713	-0.059447	0.773207
C50	C	-1.641449	-0.152593	0.773207
C51	C	-1.641443	-0.152591	0.696979
C52	C	-1.742083	-0.106021	0.658869
H53	H	-1.994967	0.118247	0.000022
H54	H	-1.930979	0.338567	-0.076981
H55	H	-1.553087	0.449394	0.076961
H56	H	-1.924567	-0.021521	0.195736
Br57	Br	-1.501879	0.295180	0.100016
Br58	Br	-1.434728	0.067556	-0.000010
H59	H	-1.559438	-0.190500	0.334031
Br60	Br	-1.504755	-0.215775	0.175044
H61	H	-1.990872	0.249704	0.000004
Br62	Br	-1.429417	0.238362	-0.000017
Br63	Br	-1.695486	-0.254834	0.589788
H64	H	-1.981053	0.565241	-0.000017
H65	H	-1.924587	-0.021521	0.334023
H66	H	-1.706151	-0.220558	0.430819
Br67	Br	-1.788625	0.042797	0.410177
H68	H	-1.926878	0.470031	-0.076995
H69	H	-1.777922	0.008520	0.569157
Br70	Br	-1.979290	0.003753	0.645255
Br71	Br	-1.504862	-0.215790	0.645256
Br72	Br	-1.979290	0.003758	0.824928
H73	H	-1.976955	0.696699	-0.000040
Br74	Br	-1.420817	0.514555	-0.000038
Br75	Br	-1.415493	0.685356	-0.000050
Br76	Br	-1.504885	-0.215792	0.824932
