data_functionalizedCrystal
_audit_creation_method	'MofGen! by Chris Wilmer'
_symmetry_space_group_name_H-M	'P1'
_symmetry_Int_Tables_number	1
_symmetry_cell_setting	triclinic
loop_
_symmetry_equiv_pos_as_xyz
  x,y,z
_cell_length_a	14.971486
_cell_length_b	14.519709
_cell_length_c	14.048226
_cell_angle_alpha	89.992623
_cell_angle_beta	89.998499
_cell_angle_gamma	83.647137
loop_
_atom_site_label
_atom_site_type_symbol
_atom_site_fract_x
_atom_site_fract_y
_atom_site_fract_z
O1	O	1.187015	0.120184	-0.079053
O2	O	0.926623	0.134576	-0.079079
O3	O	1.063722	-0.006863	-0.079057
O4	O	1.049915	0.261622	-0.079076
O5	O	1.063706	-0.006871	0.079264
O6	O	0.926606	0.134568	0.079242
O7	O	1.186998	0.120175	0.079268
Zn8	Zn	1.056799	0.127370	0.104392
Zn9	Zn	1.056821	0.127381	-0.104203
O10	O	1.049898	0.261614	0.079246
C11	C	0.893289	0.133928	0.000078
C12	C	0.793991	0.131999	0.000068
C13	C	0.736812	0.215091	0.000064
C14	C	0.643512	0.213273	0.000078
C15	C	0.607392	0.128363	0.000090
C16	C	0.664578	0.045265	0.000097
C17	C	0.757876	0.047084	0.000090
C18	C	0.470113	0.041480	0.000111
C19	C	0.376808	0.039661	0.000116
C20	C	0.355749	0.207669	0.000099
C21	C	0.449047	0.209488	0.000092
C22	C	0.506227	0.126390	0.000097
C23	C	1.063071	-0.041226	0.000104
C24	C	1.061142	-0.143606	0.000104
C25	C	1.054043	-0.518498	0.000079
C26	C	1.056015	-0.414191	0.000086
C27	C	1.057593	-0.331055	0.000092
C28	C	1.059564	-0.226742	0.000098
C29	C	1.220331	0.120823	0.000109
C30	C	1.319630	0.122752	0.000112
C31	C	1.050550	0.295978	0.000083
C32	C	1.052478	0.398358	0.000076
N33	N	1.056791	0.127362	0.246753
N34	N	1.056837	0.127382	-0.246564
C35	C	1.117518	0.064759	0.296581
C36	C	1.117524	0.064758	0.396238
C37	C	1.056807	0.127366	0.446066
C38	C	0.996073	0.189972	0.396231
C39	C	0.996064	0.189968	0.296575
C40	C	0.996099	0.189979	0.603945
C41	C	0.996110	0.189985	0.703608
C42	C	1.117560	0.064770	0.703608
C43	C	1.117550	0.064765	0.603952
C44	C	1.056817	0.127373	0.554124
H45	H	0.516667	-0.026188	0.000117
C46	C	1.184338	-0.004101	0.549137
C47	C	1.149269	-0.074688	0.480640
C48	C	1.216056	-0.143556	0.425823
C49	C	1.317911	-0.141837	0.439502
C50	C	1.352985	-0.071247	0.508001
C51	C	1.286199	-0.002379	0.562819
H52	H	1.073865	-0.075963	0.470511
H53	H	1.190091	-0.195812	0.375115
H54	H	1.367351	-0.192817	0.398923
H55	H	1.428389	-0.069972	0.518130
H56	H	1.312163	0.049877	0.613527
C57	C	0.624847	-0.048138	0.000110
C58	C	0.563602	-0.072493	0.082326
C59	C	0.523873	-0.165897	0.082335
C60	C	0.545389	-0.234946	0.000129
C61	C	0.606637	-0.210592	-0.082092
C62	C	0.646366	-0.117188	-0.082102
H63	H	0.547672	-0.021377	0.143185
H64	H	0.478533	-0.183925	0.143201
H65	H	0.515979	-0.304090	0.000136
H66	H	0.622567	-0.261708	-0.142951
H67	H	0.691706	-0.099160	-0.142968
H68	H	0.946632	0.240946	0.436807
C69	C	0.776541	0.308494	0.000051
C70	C	0.755029	0.377540	0.082260
C71	C	0.794755	0.470946	0.082250
C72	C	0.855992	0.495307	0.000030
C73	C	0.877507	0.426260	-0.082186
C74	C	0.837781	0.332854	-0.082176
H75	H	0.709695	0.359508	0.143130
H76	H	0.778828	0.522059	0.143113
H77	H	0.885399	0.564452	0.000023
H78	H	0.922841	0.444292	-0.143055
H79	H	0.853708	0.281741	-0.143038
C80	C	0.337068	-0.053737	0.000147
C81	C	0.358576	-0.122776	0.082380
C82	C	0.318833	-0.216172	0.082414
C83	C	0.257581	-0.240530	0.000216
C84	C	0.236070	-0.171490	-0.082023
C85	C	0.275813	-0.078093	-0.082058
H86	H	0.403921	-0.104746	0.143234
H87	H	0.334758	-0.267280	0.143294
H88	H	0.228161	-0.309668	0.000242
H89	H	0.190725	-0.189519	-0.142877
H90	H	0.259889	-0.026985	-0.142938
H91	H	0.596960	0.280934	0.000074
H92	H	1.167010	0.013793	0.744184
H93	H	1.166965	0.013780	0.256017
C94	C	0.488778	0.302891	0.000079
C95	C	0.467266	0.371936	0.082289
C96	C	0.506994	0.465341	0.082281
C97	C	0.568234	0.489700	0.000063
C98	C	0.589749	0.420653	-0.082153
C99	C	0.550021	0.327248	-0.082145
H100	H	0.421930	0.353905	0.143158
H101	H	0.491067	0.516454	0.143143
H102	H	0.597643	0.558844	0.000057
H103	H	0.635085	0.438684	-0.143022
H104	H	0.565947	0.276136	-0.143007
H105	H	0.804431	-0.020578	0.000093
H106	H	0.309188	0.275331	0.000099
H107	H	1.166972	0.013782	0.436808
H108	H	0.946666	0.240966	0.744173
H109	H	0.946641	0.240958	0.563379
H110	H	0.946613	0.240944	0.256006
