data_functionalizedCrystal
_audit_creation_method	'MofGen! by Chris Wilmer'
_symmetry_space_group_name_H-M	'P1'
_symmetry_Int_Tables_number	1
_symmetry_cell_setting	triclinic
loop_
_symmetry_equiv_pos_as_xyz
  x,y,z
_cell_length_a	17.640112
_cell_length_b	12.645330
_cell_length_c	17.640968
_cell_angle_alpha	101.231500
_cell_angle_beta	87.860920
_cell_angle_gamma	101.237348
loop_
_atom_site_label
_atom_site_type_symbol
_atom_site_fract_x
_atom_site_fract_y
_atom_site_fract_z
Zn1	Zn	1.247782	-0.030458	0.195080
Zn2	Zn	1.747782	0.469542	0.695080
Zn3	Zn	1.222041	-0.249164	0.068097
Zn4	Zn	1.722041	0.250836	0.568097
Zn5	Zn	1.095123	-0.099414	0.093726
Zn6	Zn	1.595123	0.400586	0.593726
Zn7	Zn	1.120780	-0.235210	0.220679
Zn8	Zn	1.620780	0.264790	0.720679
O9	O	1.171432	-0.153562	0.144396
O10	O	1.671432	0.346438	0.644396
O11	O	1.350634	-0.036451	0.156796
O12	O	1.850634	0.463549	0.656796
O13	O	1.183695	-0.263998	-0.034776
O14	O	1.683695	0.236002	0.465224
O15	O	1.115409	0.058093	0.107183
O16	O	1.615409	0.558093	0.607183
O17	O	1.331722	-0.197134	0.063503
O18	O	1.831722	0.302866	0.563503
O19	O	1.227567	0.108755	0.181647
O20	O	1.727567	0.608755	0.681647
O21	O	1.090449	-0.153977	-0.015947
O22	O	1.590449	0.346023	0.484053
O23	O	0.992260	-0.140447	0.132006
O24	O	1.492260	0.359553	0.632006
O25	O	1.159137	-0.173351	0.323557
O26	O	1.659137	0.326649	0.823557
O27	O	1.011110	-0.240215	0.225278
O28	O	1.511110	0.259785	0.725278
O29	O	1.252445	-0.022921	0.304749
O30	O	1.752445	0.477079	0.804749
O31	O	1.208573	-0.395673	0.088325
O32	O	1.708573	0.104327	0.588325
O33	O	1.134177	-0.385421	0.200427
O34	O	1.634177	0.114579	0.700427
C35	C	0.974132	-0.196300	0.184201
C36	C	1.474132	0.303700	0.684201
C37	C	0.889730	-0.214603	0.201248
C38	C	1.389730	0.285397	0.701248
C39	C	0.563041	-0.014493	0.014898
C40	C	1.063041	0.485507	0.514898
C41	C	0.483734	-0.031710	0.030927
C42	C	0.983734	0.468290	0.530927
C43	C	0.503383	-0.135840	0.127883
C44	C	1.003383	0.364160	0.627883
C45	C	0.582694	-0.118628	0.111866
C46	C	1.082694	0.381372	0.611866
C47	C	0.612516	-0.057954	0.055372
C48	C	1.112516	0.442046	0.555372
C49	C	0.632168	-0.162089	0.152339
C50	C	1.132168	0.337911	0.652339
C51	C	0.711471	-0.144882	0.136320
C52	C	1.211471	0.355118	0.636320
C53	C	0.741299	-0.084214	0.079827
C54	C	1.241299	0.415786	0.579827
C55	C	0.691819	-0.040748	0.039352
C56	C	1.191819	0.459252	0.539352
C57	C	0.602344	-0.222768	0.208829
C58	C	1.102344	0.277232	0.708829
C59	C	0.651819	-0.266229	0.249302
C60	C	1.151819	0.233771	0.749302
C61	C	0.731124	-0.249017	0.233287
C62	C	1.231124	0.250983	0.733287
C63	C	0.760952	-0.188349	0.176794
C64	C	1.260952	0.311651	0.676794
C65	C	0.780605	-0.292483	0.273762
C66	C	1.280605	0.207517	0.773762
C67	C	0.859908	-0.275277	0.257742
C68	C	1.359908	0.224723	0.757742
C69	C	0.840255	-0.171142	0.160775
C70	C	1.340255	0.328858	0.660775
C71	C	1.171390	-0.429005	0.144385
C72	C	1.671390	0.070995	0.644385
C73	C	1.171447	-0.546818	0.144392
C74	C	1.671447	-0.046818	0.644392
C75	C	1.218131	-0.720847	0.073769
C76	C	1.718131	-0.220847	0.573769
C77	C	1.218351	-0.598198	0.073875
C78	C	1.718351	-0.098198	0.573875
C79	C	1.209332	-0.560398	0.220067
C80	C	1.709332	-0.060398	0.720067
C81	C	1.209733	-0.682997	0.219661
C82	C	1.709733	-0.182997	0.719661
C83	C	1.087014	-0.738217	0.140134
C84	C	1.587014	-0.238217	0.640134
C85	C	1.087036	-0.616115	0.138261
C86	C	1.587036	-0.116115	0.638261
C87	C	1.369502	-0.110657	0.104435
C88	C	1.869502	0.389343	0.604435
C89	C	1.453908	-0.092374	0.087406
C90	C	1.953908	0.407626	0.587406
C91	C	1.211525	-0.088888	0.342479
C92	C	1.711525	0.411112	0.842479
C93	C	1.228610	-0.061327	0.426890
C94	C	1.728610	0.438673	0.926890
C95	C	1.171498	0.122968	0.144418
C96	C	1.671498	0.622968	0.644418
C97	C	1.171526	0.240808	0.144428
C98	C	1.671526	0.740808	0.644428
C99	C	1.131538	-0.217898	-0.052926
C100	C	1.631538	0.282102	0.447074
C101	C	1.114600	-0.245128	-0.137366
C102	C	1.614600	0.254872	0.362634
C103	C	1.041928	-0.362294	0.753463
C104	C	1.541928	0.137706	1.253463
C105	C	1.057998	-0.336380	0.832776
C106	C	1.557998	0.163620	1.332776
C107	C	1.155152	-0.179750	0.813183
C108	C	1.655152	0.320250	1.313183
C109	C	1.139087	-0.205648	0.733867
C110	C	1.639087	0.294352	1.233867
C111	C	1.082475	-0.296921	0.704013
C112	C	1.582475	0.203079	1.204013
C113	C	1.179634	-0.140275	0.684417
C114	C	1.679634	0.359725	1.184417
C115	C	1.163573	-0.166175	0.605106
C116	C	1.663573	0.333825	1.105106
C117	C	1.106965	-0.257446	0.575246
C118	C	1.606965	0.242554	1.075246
C119	C	1.066414	-0.322821	0.624702
C120	C	1.566414	0.177179	1.124702
C121	C	1.236249	-0.049006	0.714271
C122	C	1.736249	0.450994	1.214271
C123	C	1.276796	0.016366	0.664821
C124	C	1.776796	0.516366	1.164821
C125	C	1.260732	-0.009529	0.585510
C126	C	1.760732	0.490471	1.085510
C127	C	1.204124	-0.100800	0.555650
C128	C	1.704124	0.399200	1.055650
C129	C	1.301283	0.055846	0.536054
C130	C	1.801283	0.555846	1.036054
C131	C	1.285222	0.029946	0.456744
C132	C	1.785222	0.529946	0.956744
C133	C	1.188063	-0.126700	0.476340
C134	C	1.688063	0.373300	0.976340
H135	H	0.900192	-0.310666	0.290701
H136	H	1.400192	0.189334	0.790701
F137	F	0.723562	0.023837	-0.020771
F138	F	1.223562	0.523837	0.479229
H139	H	1.192773	-0.590490	0.017256
H140	H	1.692773	-0.090490	0.517256
F141	F	1.014836	-0.405963	0.885404
F142	F	1.514836	0.094037	1.385404
F143	F	0.825701	-0.065907	0.062773
F144	F	1.325701	0.434093	0.562773
F145	F	0.620070	-0.330814	0.309418
F146	F	1.120070	0.169186	0.809418
H147	H	0.587326	0.034933	-0.031094
H148	H	1.087326	0.534933	0.468906
H149	H	0.479090	-0.185244	0.173879
H150	H	0.979090	0.314756	0.673879
H151	H	0.443454	0.003695	-0.002031
H152	H	0.943454	0.503695	0.497969
F153	F	1.184880	-0.788645	-0.000511
F154	F	1.684880	-0.288645	0.499489
F155	F	1.046062	-0.808781	0.070368
F156	F	1.546062	-0.308781	0.570368
H157	H	1.318238	0.083180	0.416480
H158	H	1.818238	0.583180	0.916480
H159	H	0.537770	-0.236776	0.221870
H160	H	1.037770	0.263224	0.721870
H161	H	1.058763	-0.609871	0.082650
H162	H	1.558763	-0.109871	0.582650
F163	F	1.089875	-0.285015	0.490835
F164	F	1.589875	0.214985	0.990835
H165	H	0.864540	-0.121716	0.114783
H166	H	1.364540	0.378284	0.614783
H167	H	1.280047	-0.734374	0.075237
H168	H	1.780047	-0.234374	0.575237
H169	H	1.020297	-0.397124	0.600398
H170	H	1.520297	0.102876	1.100398
H171	H	0.995811	-0.436596	0.729158
H172	H	1.495811	0.063404	1.229158
H173	H	0.756310	-0.341892	0.319753
H174	H	1.256310	0.158108	0.819753
F175	F	1.299737	-0.537113	0.075911
F176	F	1.799737	-0.037113	0.575911
F177	F	1.291105	-0.696226	0.226876
F178	F	1.791105	-0.196226	0.726876
F179	F	1.168430	-0.714005	0.289677
F180	F	1.668430	-0.214005	0.789677
H181	H	1.177120	-0.525527	0.273429
H182	H	1.677120	-0.025527	0.773429
H183	H	1.270982	-0.511265	0.226012
H184	H	1.770982	-0.011265	0.726012
F185	F	1.215402	-0.082615	0.844964
F186	F	1.715402	0.417385	1.344964
H187	H	1.049126	-0.582506	0.187255
H188	H	1.549126	-0.082506	0.687255
F189	F	1.361538	0.152974	0.567836
F190	F	1.861538	0.652974	1.067836
H191	H	1.052090	-0.762696	0.191795
H192	H	1.552090	-0.262696	0.691795
F193	F	1.127804	-0.223837	0.444564
F194	F	1.627804	0.276163	0.944564
H195	H	1.249326	-0.027925	0.778851
H196	H	1.749326	0.472075	1.278851
H197	H	1.322892	0.090678	0.689139
H198	H	1.822892	0.590678	1.189139
