data_functionalizedCrystal
_audit_creation_method	'MofGen! by Chris Wilmer'
_symmetry_space_group_name_H-M	'P1'
_symmetry_Int_Tables_number	1
_symmetry_cell_setting	triclinic
loop_
_symmetry_equiv_pos_as_xyz
  x,y,z
_cell_length_a	17.699077
_cell_length_b	16.974813
_cell_length_c	16.176319
_cell_angle_alpha	86.338635
_cell_angle_beta	89.993140
_cell_angle_gamma	83.338069
loop_
_atom_site_label
_atom_site_type_symbol
_atom_site_fract_x
_atom_site_fract_y
_atom_site_fract_z
O1	O	1.004154	0.099970	-0.075422
O2	O	0.783784	0.112984	-0.076297
O3	O	0.900112	-0.008639	-0.068154
O4	O	0.887826	0.221592	-0.083565
O5	O	0.900096	-0.008647	0.069339
O6	O	0.783768	0.112976	0.061197
O7	O	1.004138	0.099962	0.062071
Cu8	Cu	0.893952	0.106468	0.074188
Cu9	Cu	0.893971	0.106478	-0.088414
O10	O	0.887810	0.221585	0.053929
C11	C	0.755579	0.112515	-0.007519
C12	C	0.671560	0.111118	-0.007427
C13	C	0.632083	0.110456	0.067565
C14	C	0.553140	0.109131	0.067655
C15	C	0.513673	0.108474	-0.007249
C16	C	0.553156	0.109134	-0.082248
C17	C	0.632099	0.110453	-0.082336
C18	C	0.234789	0.103813	-0.081893
C19	C	0.155840	0.102496	-0.081799
C20	C	0.155830	0.102491	0.068098
C21	C	0.234772	0.103810	0.068010
C22	C	0.274248	0.104465	-0.006988
C23	C	0.359848	0.105900	-0.007084
C24	C	0.428074	0.107045	-0.007155
C25	C	0.899637	-0.038100	0.002563
C26	C	0.898234	-0.125875	0.008432
C27	C	0.897586	-0.167102	-0.063757
C28	C	0.896264	-0.249575	-0.058239
C29	C	0.895595	-0.290819	0.019469
C30	C	0.896241	-0.249585	0.091664
C31	C	0.897558	-0.167113	0.086145
C32	C	0.891651	-0.537474	0.044011
C33	C	0.890336	-0.619952	0.049525
C34	C	0.890357	-0.619936	-0.100380
C35	C	0.891679	-0.537463	-0.105891
C36	C	0.892321	-0.496236	-0.033696
N37	N	0.894246	-0.375120	0.025111
N38	N	0.893665	-0.411936	-0.039339
C39	C	1.032343	0.100431	-0.006708
C40	C	1.116363	0.101828	-0.006805
C41	C	0.888286	0.251046	-0.016790
C42	C	0.889688	0.338821	-0.022665
N43	N	0.893944	0.106461	0.188554
N44	N	0.893984	0.106478	-0.202779
C45	C	0.945469	0.052629	0.235422
C46	C	0.945473	0.052628	0.321970
C47	C	0.893955	0.106464	0.361647
C48	C	0.842424	0.160299	0.314772
C49	C	0.842417	0.160296	0.228227
C50	C	0.842450	0.160314	0.663799
C51	C	0.842462	0.160315	0.750351
C52	C	0.945506	0.052646	0.757542
C53	C	0.945499	0.052643	0.670997
C54	C	0.893966	0.106475	0.624130
C55	C	0.893961	0.106474	0.530286
C56	C	0.893962	0.106469	0.455489
H57	H	0.266921	0.104344	-0.142961
F58	F	1.000351	-0.004650	0.807428
F59	F	0.511128	0.108437	0.147472
H60	H	0.889788	-0.653530	0.112807
H61	H	0.664210	0.110997	0.128561
H62	H	0.898075	-0.133545	0.144930
F63	F	0.889674	-0.663818	-0.177209
H64	H	0.895692	-0.283172	0.154936
H65	H	0.123709	0.101960	-0.142799
F66	F	1.000307	-0.004668	0.193203
F67	F	1.000311	-0.004667	0.371851
H68	H	0.266901	0.104349	0.129004
H69	H	0.987453	0.008807	0.638695
H70	H	0.800507	0.204157	0.782654
F71	F	0.674112	0.111155	-0.162154
H72	H	0.898135	-0.133528	-0.127036
H73	H	0.892189	-0.503918	0.102798
H74	H	0.800491	0.204147	0.625647
H75	H	0.123679	0.101953	0.129165
H76	H	0.800473	0.204131	0.347082
F77	F	0.511154	0.108411	-0.161966
F78	F	0.895575	-0.293449	-0.135074
F79	F	0.892392	-0.493574	-0.188599
H80	H	0.800459	0.204131	0.190067
