data_functionalizedCrystal
_audit_creation_method	'MofGen! by Chris Wilmer'
_symmetry_space_group_name_H-M	'P1'
_symmetry_Int_Tables_number	1
_symmetry_cell_setting	triclinic
loop_
_symmetry_equiv_pos_as_xyz
  x,y,z
_cell_length_a	8.497374
_cell_length_b	8.497374
_cell_length_c	18.050591
_cell_angle_alpha	90.009569
_cell_angle_beta	90.002899
_cell_angle_gamma	90.005237
loop_
_atom_site_label
_atom_site_type_symbol
_atom_site_fract_x
_atom_site_fract_y
_atom_site_fract_z
Zn1	Zn	0.628498	0.892436	1.135349
Zn2	Zn	0.892243	0.628702	1.135343
Zn3	Zn	0.628453	0.628628	1.011193
Zn4	Zn	0.892211	0.892397	1.011175
O5	O	0.760351	0.760541	1.073265
O6	O	0.663516	0.857499	1.239273
O7	O	0.857246	0.407930	1.118880
O8	O	0.407696	0.663608	1.027673
O9	O	0.857289	0.663735	1.239269
O10	O	0.407729	0.857427	1.118890
O11	O	0.663440	0.407875	1.027667
O12	O	0.663409	0.663570	0.907266
O13	O	0.857234	1.113165	1.027642
O14	O	0.857191	0.857360	0.907253
O15	O	0.663485	1.113194	1.118872
O16	O	1.113001	0.663697	1.118862
O17	O	1.112978	0.857433	1.027637
C18	C	0.760292	0.760454	0.880313
C19	C	0.760305	0.760454	0.797767
C20	C	1.170231	0.760564	1.073256
C21	C	1.348875	0.760538	1.073276
C22	C	0.760353	1.172021	1.073260
C23	C	0.760370	1.350665	1.073261
C24	C	0.654804	0.655313	0.598302
C25	C	0.798685	0.616532	0.548918
C26	C	0.760353	0.760525	0.646637
C27	C	0.616522	0.799302	0.548939
C28	C	0.760387	0.760591	0.500652
C29	C	0.904309	0.721669	0.598340
C30	C	0.722050	0.904506	0.598366
C31	C	0.866030	0.865779	0.549004
C32	C	0.760332	0.760483	0.730735
C33	C	0.760424	0.760633	0.416555
C34	C	0.760411	0.760629	1.266971
C35	C	0.760437	0.760667	1.349517
H36	H	0.831108	0.494798	0.527199
C37	C	1.068698	0.677194	0.627525
C38	C	1.099038	0.668871	0.711541
C39	C	1.263421	0.624389	0.740727
C40	C	1.397463	0.588230	0.685896
C41	C	1.367127	0.596552	0.601874
C42	C	1.202745	0.641033	0.572689
H43	H	0.999808	0.695639	0.752135
H44	H	1.285876	0.618229	0.802926
H45	H	1.519149	0.555302	0.707501
H46	H	1.466357	0.569784	0.561281
H47	H	1.180289	0.647193	0.510490
H48	H	0.955406	0.954782	0.527494
C49	C	0.452187	0.843589	0.519624
C50	C	0.361303	0.728081	0.469699
C51	C	0.196966	0.772353	0.440387
C52	C	0.123511	0.932132	0.461000
C53	C	0.214396	1.047650	0.510928
C54	C	0.378733	1.003378	0.540240
H55	H	0.415678	0.609794	0.454438
H56	H	0.129688	0.686838	0.403426
H57	H	0.001859	0.964904	0.439301
H58	H	0.160021	1.165937	0.526189
H59	H	0.446011	1.088893	0.577200
H60	H	0.565641	0.566242	0.619948
H61	H	0.689583	1.026203	0.620103
