data_functionalizedCrystal
_audit_creation_method	'MofGen! by Chris Wilmer'
_symmetry_space_group_name_H-M	'P1'
_symmetry_Int_Tables_number	1
_symmetry_cell_setting	triclinic
loop_
_symmetry_equiv_pos_as_xyz
  x,y,z
_cell_length_a	13.897449
_cell_length_b	12.645330
_cell_length_c	13.897441
_cell_angle_alpha	89.972699
_cell_angle_beta	89.979267
_cell_angle_gamma	90.018972
loop_
_atom_site_label
_atom_site_type_symbol
_atom_site_fract_x
_atom_site_fract_y
_atom_site_fract_z
Zn1	Zn	1.474703	-0.421969	-0.545403
Zn2	Zn	1.474597	-0.599265	-0.384114
Zn3	Zn	1.313392	-0.422020	-0.384122
Zn4	Zn	1.313373	-0.599195	-0.545367
O5	O	1.394016	-0.510612	-0.464751
O6	O	1.609670	-0.445496	-0.524020
O7	O	1.453176	-0.575803	-0.249133
O8	O	1.334842	-0.273666	-0.405535
O9	O	1.609592	-0.575754	-0.405521
O10	O	1.453356	-0.273629	-0.524028
O11	O	1.334739	-0.445582	-0.249139
O12	O	1.178408	-0.445514	-0.405499
O13	O	1.334811	-0.575636	-0.680353
O14	O	1.178394	-0.575684	-0.523965
O15	O	1.453339	-0.445428	-0.680380
O16	O	1.453158	-0.747603	-0.405486
O17	O	1.334708	-0.747552	-0.523957
C18	C	1.143402	-0.510598	-0.464729
C19	C	1.036188	-0.510618	-0.464743
C20	C	0.839893	-0.510621	-0.464768
C21	C	0.949125	-0.510616	-0.464751
C22	C	1.393946	-0.786042	-0.464738
C23	C	1.394004	-0.903872	-0.464764
C24	C	1.319794	-1.071448	-0.539525
C25	C	1.319415	-0.948889	-0.539284
C26	C	1.366485	-0.948472	-0.363109
C27	C	1.366032	-1.071070	-0.363563
C28	C	1.496187	-1.070958	-0.490835
C29	C	1.495561	-0.948351	-0.493058
C30	C	1.645609	-0.510627	-0.464774
C31	C	1.752823	-0.510634	-0.464784
C32	C	1.394085	-0.510519	-0.716344
C33	C	1.394114	-0.510479	-0.823558
C34	C	1.394113	-0.234107	-0.464786
C35	C	1.394154	-0.116277	-0.464801
C36	C	1.394140	-0.510407	-1.019854
C37	C	1.394122	-0.510450	-0.910621
C38	C	1.394003	-0.510629	-0.214137
C39	C	1.394161	-0.510370	-0.106924
H40	H	1.336632	-0.918731	-0.614661
O41	O	1.569627	-1.109592	-0.418907
H42	H	1.533689	-1.160793	-0.364855
O43	O	1.529443	-1.111790	-0.587361
H44	H	1.473612	-1.164848	-0.617858
O45	O	1.523072	-0.909719	-0.592147
H46	H	1.464669	-0.859046	-0.621131
H47	H	1.553880	-0.917701	-0.442596
H48	H	1.336854	-1.100856	-0.615149
H49	H	1.417842	-1.100729	-0.305989
H50	H	1.418928	-0.919315	-0.305912
O51	O	1.220219	-1.112364	-0.516964
H52	H	1.220189	-1.200042	-0.520687
O53	O	1.219227	-0.910151	-0.516413
H54	H	1.170861	-0.978985	-0.505473
H55	H	1.291445	-1.099764	-0.341508
H56	H	1.292676	-0.917863	-0.340655
