data_functionalizedCrystal
_audit_creation_method	'MofGen! by Chris Wilmer'
_symmetry_space_group_name_H-M	'P1'
_symmetry_Int_Tables_number	1
_symmetry_cell_setting	triclinic
loop_
_symmetry_equiv_pos_as_xyz
  x,y,z
_cell_length_a	16.109301
_cell_length_b	13.339070
_cell_length_c	15.186229
_cell_angle_alpha	89.998719
_cell_angle_beta	89.999362
_cell_angle_gamma	99.545388
loop_
_atom_site_label
_atom_site_type_symbol
_atom_site_fract_x
_atom_site_fract_y
_atom_site_fract_z
O1	O	1.133153	0.130020	-0.073168
O2	O	0.894827	0.146201	-0.073182
O3	O	0.986638	-0.009144	-0.073174
O4	O	1.041342	0.285365	-0.073176
O5	O	0.986629	-0.009146	0.073283
O6	O	0.894818	0.146199	0.073275
O7	O	1.133144	0.130018	0.073289
Zn8	Zn	1.013980	0.138108	0.096535
Zn9	Zn	1.013992	0.138111	-0.096428
O10	O	1.041333	0.285363	0.073281
C11	C	0.863697	0.145545	0.000045
C12	C	0.770947	0.143580	0.000040
C13	C	0.568905	0.231189	0.000049
C14	C	0.481756	0.229335	0.000055
C15	C	0.459072	0.045023	0.000053
C16	C	0.546219	0.046879	0.000053
C17	C	0.601133	0.139965	0.000047
C18	C	0.426838	0.136255	0.000052
C19	C	0.332347	0.134244	0.000058
C20	C	0.695630	0.141976	0.000043
C21	C	0.977393	-0.046831	0.000053
C22	C	0.949849	-0.159124	0.000048
C23	C	1.164017	-0.523987	0.000060
C24	C	1.189898	-0.418483	0.000070
C25	C	1.129888	-0.353638	0.000064
C26	C	1.043992	-0.394307	0.000049
C27	C	1.018108	-0.499822	0.000046
C28	C	0.983979	-0.329473	0.000050
C29	C	0.898083	-0.370142	0.000035
C30	C	0.872203	-0.475647	0.000032
C31	C	0.932213	-0.540492	0.000038
C32	C	1.009863	-0.223958	0.000053
C33	C	0.863954	-0.199793	0.000039
C34	C	0.838073	-0.305297	0.000029
C35	C	1.164275	0.130675	0.000060
C36	C	1.257024	0.132640	0.000060
C37	C	1.050578	0.323050	0.000052
C38	C	1.078122	0.435343	0.000052
N39	N	1.013977	0.138106	0.228228
N40	N	1.013998	0.138106	-0.228121
C41	C	1.054656	0.069342	0.453954
C42	C	1.054658	0.069340	0.546144
C43	C	0.973315	0.206873	0.546146
C44	C	0.973308	0.206869	0.453958
C45	C	1.013984	0.138105	0.407865
C46	C	1.013992	0.138106	0.592242
C47	C	1.013994	0.138104	0.692198
C48	C	1.013980	0.138106	0.307902
H49	H	0.414350	-0.030764	0.000063
H50	H	1.087776	0.013345	0.583668
O51	O	0.933883	0.273635	0.591060
C52	C	0.897805	0.334559	0.733081
C53	C	0.942508	0.258908	0.682329
H54	H	0.904748	0.322664	0.806881
H55	H	0.927333	0.415604	0.715013
H56	H	0.828181	0.321366	0.714910
H57	H	1.012135	0.272008	0.700472
H58	H	0.912914	0.177889	0.700401
O59	O	0.933789	0.273769	0.409317
C60	C	0.853064	0.410142	0.419040
C61	C	0.897804	0.334458	0.469705
H62	H	0.823944	0.459214	0.467842
H63	H	0.900586	0.460754	0.375896
H64	H	0.801486	0.366429	0.375863
H65	H	0.949379	0.378088	0.512930
H66	H	0.850230	0.283846	0.512793
O67	O	0.450350	0.317885	-0.000066
C68	C	0.365170	0.422788	-0.075970
C69	C	0.400662	0.322453	-0.075933
H70	H	0.325004	0.426524	-0.137312
H71	H	0.324884	0.426546	-0.014719
H72	H	0.419405	0.489615	-0.075932
H73	H	0.346479	0.255570	-0.076003
H74	H	0.440972	0.318785	-0.137179
H75	H	0.572459	-0.027412	0.000054
H76	H	1.087775	0.013349	0.416427
H77	H	0.768134	-0.338426	0.000018
H78	H	1.212868	-0.576792	0.000072
O79	O	1.093263	-0.184290	0.000100
C80	C	1.197808	-0.032467	0.000052
C81	C	1.103326	-0.077253	0.000023
H82	H	1.205975	0.054077	-0.000029
H83	H	1.228718	-0.059102	0.061361
H84	H	1.228682	-0.059233	-0.061224
H85	H	1.072380	-0.050508	0.061257
H86	H	1.072478	-0.050623	-0.061326
H87	H	1.150966	-0.267732	0.000072
H88	H	0.613614	0.306986	0.000051
H89	H	0.815089	-0.146996	0.000039
H90	H	1.259835	-0.385378	0.000084
O91	O	0.788732	-0.514987	-0.000013
C92	C	0.646742	-0.479880	0.000030
C93	C	0.741245	-0.435195	0.000060
H94	H	0.608322	-0.415391	0.000108
H95	H	0.630933	-0.528634	-0.061277
H96	H	0.631011	-0.528710	0.061308
H97	H	0.757043	-0.386320	-0.061176
H98	H	0.757004	-0.386500	0.061407
H99	H	0.911145	-0.626403	0.000026
