data_functionalizedCrystal
_audit_creation_method	'MofGen! by Chris Wilmer'
_symmetry_space_group_name_H-M	'P1'
_symmetry_Int_Tables_number	1
_symmetry_cell_setting	triclinic
loop_
_symmetry_equiv_pos_as_xyz
  x,y,z
_cell_length_a	12.594516
_cell_length_b	12.594517
_cell_length_c	12.594509
_cell_angle_alpha	89.972809
_cell_angle_beta	90.026199
_cell_angle_gamma	89.988892
loop_
_atom_site_label
_atom_site_type_symbol
_atom_site_fract_x
_atom_site_fract_y
_atom_site_fract_z
Zn1	Zn	-0.423850	-1.627267	0.602042
Zn2	Zn	-0.601861	-1.627158	0.424069
Zn3	Zn	-0.423881	-1.449271	0.424052
Zn4	Zn	-0.601772	-1.449253	0.601981
O5	O	-0.512841	-1.538237	0.513036
O6	O	-0.447488	-1.776198	0.578466
O7	O	-0.578301	-1.603523	0.275121
O8	O	-0.274931	-1.472936	0.447681
O9	O	-0.578271	-1.776118	0.447710
O10	O	-0.274909	-1.603709	0.578449
O11	O	-0.447541	-1.472830	0.275109
O12	O	-0.447455	-1.300323	0.447622
O13	O	-0.578120	-1.472905	0.750935
O14	O	-0.578150	-1.300310	0.578346
O15	O	-0.447402	-1.603691	0.750979
O16	O	-0.750795	-1.603505	0.447652
O17	O	-0.750729	-1.472799	0.578363
C18	C	-0.512797	-1.261696	0.512976
C19	C	-0.512804	-1.143391	0.512976
C20	C	-0.789382	-1.538167	0.513026
C21	C	-0.907687	-1.538235	0.513057
C22	C	-0.441629	-1.003350	0.442026
C23	C	-0.415702	-1.074209	0.539157
C24	C	-0.538684	-1.074104	0.415855
C25	C	-0.486851	-1.003464	0.610219
C26	C	-0.609878	-1.003352	0.486851
C27	C	-0.583987	-1.074179	0.584049
C28	C	-0.976944	-1.467137	0.584101
C29	C	-1.047807	-1.441204	0.486975
C30	C	-1.047623	-1.564265	0.610199
C31	C	-0.976992	-1.512250	0.415880
C32	C	-0.976802	-1.635357	0.539170
C33	C	-1.047634	-1.609461	0.441977
C34	C	-0.235220	-1.538336	0.513070
C35	C	-0.116915	-1.538378	0.513084
C36	C	-0.512748	-1.538309	0.790657
C37	C	-0.512708	-1.538339	0.908963
C38	C	-0.512867	-0.815858	0.513075
C39	C	-0.512829	-0.934163	0.513036
C40	C	-0.512857	-1.538227	0.236495
C41	C	-0.512597	-1.538403	0.118190
C42	C	-0.583765	-1.467227	0.978192
C43	C	-0.609780	-1.564347	1.048993
C44	C	-0.486629	-1.441294	1.048960
C45	C	-0.538774	-1.635510	0.978206
C46	C	-0.415578	-1.512392	0.978167
C47	C	-0.441556	-1.609579	1.048936
H48	H	-0.381384	-0.972254	0.382075
C49	C	-1.052127	-1.694829	0.749107
C50	C	-1.089510	-1.593919	0.721082
H51	H	-1.077991	-1.713131	0.817560
H52	H	-0.976719	-1.694345	0.750052
H53	H	-1.076337	-1.745451	0.698723
H54	H	-1.065295	-1.543296	0.771462
H55	H	-1.164935	-1.594396	0.720145
H56	H	-0.333508	-1.490382	0.947033
C57	C	-0.306326	-1.227402	0.569628
C58	C	-0.304899	-1.116235	0.569039
H59	H	-0.237921	-1.253341	0.588078
H60	H	-0.325181	-1.252621	0.501105
H61	H	-0.356835	-1.251635	0.620115
H62	H	-0.254395	-1.092002	0.518545
H63	H	-0.286031	-1.091005	0.637571
H64	H	-1.078477	-1.669647	0.381840
H65	H	-0.464877	-0.972563	0.692401
H66	H	-0.945593	-1.717406	0.561280
C67	C	-0.766612	-1.413578	0.972004
C68	C	-0.665005	-1.386108	0.936247
H69	H	-0.816765	-1.363505	0.946102
H70	H	-0.767572	-1.413489	1.047413
H71	H	-0.784412	-1.482365	0.946731
H72	H	-0.647201	-1.317324	0.961527
H73	H	-0.664042	-1.386186	0.860822
C74	C	-0.748552	-1.694957	1.053757
C75	C	-0.720595	-1.594023	1.091009
H76	H	-0.816967	-1.713267	1.079691
H77	H	-0.698105	-1.745548	1.077973
H78	H	-0.749560	-1.694500	0.978339
H79	H	-0.719579	-1.594482	1.166427
H80	H	-0.771055	-1.543419	1.066798
H81	H	-0.560878	-1.717631	0.947256
H82	H	-0.945904	-1.406905	0.644092
H83	H	-1.079019	-1.359136	0.464911
C84	C	-0.637913	-1.080057	0.766787
C85	C	-0.665254	-1.115910	0.665169
H86	H	-0.688078	-1.105828	0.816867
H87	H	-0.637953	-1.004647	0.767649
H88	H	-0.569169	-1.105399	0.784768
H89	H	-0.733995	-1.090561	0.647184
H90	H	-0.665225	-1.191335	0.664304
H91	H	-0.560562	-1.105137	0.333696
H92	H	-0.381417	-1.669813	1.079803
H93	H	-0.464618	-1.359198	1.080041
H94	H	-0.691938	-0.972206	0.464694
H95	H	-0.946095	-1.490197	0.333716
