data_functionalizedCrystal
_audit_creation_method	'MofGen! by Chris Wilmer'
_symmetry_space_group_name_H-M	'P1'
_symmetry_Int_Tables_number	1
_symmetry_cell_setting	triclinic
loop_
_symmetry_equiv_pos_as_xyz
  x,y,z
_cell_length_a	19.077105
_cell_length_b	19.121063
_cell_length_c	19.076919
_cell_angle_alpha	94.606347
_cell_angle_beta	90.076224
_cell_angle_gamma	90.263052
loop_
_atom_site_label
_atom_site_type_symbol
_atom_site_fract_x
_atom_site_fract_y
_atom_site_fract_z
Zn1	Zn	1.043169	-0.339734	-0.454309
Zn2	Zn	1.543169	0.160266	0.045691
Zn3	Zn	1.042790	-0.452646	-0.341419
Zn4	Zn	1.542790	0.047354	0.158581
Zn5	Zn	0.930805	-0.330327	-0.331718
Zn6	Zn	1.430805	0.169673	0.168282
Zn7	Zn	0.920631	-0.452222	-0.454155
Zn8	Zn	1.420631	0.047778	0.045845
O9	O	0.984349	-0.393732	-0.395400
O10	O	1.484349	0.106268	0.104600
O11	O	1.141268	-0.358826	-0.443459
O12	O	1.641268	0.141174	0.056541
O13	O	1.032035	-0.432660	-0.241647
O14	O	1.532035	0.067340	0.258353
O15	O	0.950127	-0.233307	-0.343985
O16	O	1.450127	0.266693	0.156015
O17	O	1.140989	-0.441782	-0.360519
O18	O	1.640989	0.058218	0.139481
O19	O	1.032681	-0.240219	-0.434052
O20	O	1.532681	0.259781	0.065948
O21	O	0.949760	-0.342793	-0.234520
O22	O	1.449760	0.157207	0.265480
O23	O	0.831307	-0.342382	-0.343835
O24	O	1.331307	0.157618	0.156165
O25	O	0.932786	-0.441060	-0.552660
O26	O	1.432786	0.058940	-0.052660
O27	O	0.823831	-0.431938	-0.433788
O28	O	1.323831	0.068062	0.066212
O29	O	1.022815	-0.358416	-0.552774
O30	O	1.522815	0.141584	-0.052774
O31	O	1.022169	-0.550857	-0.360369
O32	O	1.522169	-0.050857	0.139631
O33	O	0.932419	-0.550546	-0.443195
O34	O	1.432419	-0.050546	0.056805
C35	C	0.802120	-0.386094	-0.387742
C36	C	1.302120	0.113906	0.112258
C37	C	0.724160	-0.382844	-0.384484
C38	C	1.224160	0.117156	0.115516
C39	C	0.683661	-0.428009	-0.429719
C40	C	1.183661	0.071991	0.070281
C41	C	0.610410	-0.424946	-0.426660
C42	C	1.110410	0.075054	0.073340
C43	C	0.577659	-0.376721	-0.378362
C44	C	1.077659	0.123279	0.121638
C45	C	0.618164	-0.331551	-0.333125
C46	C	1.118164	0.168449	0.166875
C47	C	0.691414	-0.334611	-0.336188
C48	C	1.191414	0.165389	0.163812
C49	C	0.359002	-0.362559	-0.364190
C50	C	0.859002	0.137441	0.135810
C51	C	0.285746	-0.359503	-0.361130
C52	C	0.785746	0.140497	0.138870
C53	C	0.277998	-0.452898	-0.454666
C54	C	0.777998	0.047102	0.045334
C55	C	0.351249	-0.455957	-0.457722
C56	C	0.851249	0.044043	0.042278
C57	C	0.391747	-0.410784	-0.412487
C58	C	0.891747	0.089216	0.087513
N59	N	0.502785	-0.373590	-0.375233
N60	N	1.002785	0.126410	0.124767
N61	N	0.466620	-0.413912	-0.415620
N62	N	0.966620	0.086088	0.084380
C63	C	0.976167	-0.576182	-0.402834
C64	C	1.476167	-0.076182	0.097166
C65	C	0.972730	-0.654239	-0.406041
C66	C	1.472730	-0.154239	0.093959
C67	C	1.017877	-0.691052	-0.364463
C68	C	1.517877	-0.191052	0.135537
C69	C	1.014648	-0.764395	-0.367483
C70	C	1.514648	-0.264395	0.132517
C71	C	0.966269	-0.800923	-0.412078
C72	C	1.466269	-0.300923	0.087922
C73	C	0.921120	-0.764105	-0.453660
C74	C	1.421120	-0.264105	0.046340
C75	C	0.924353	-0.690764	-0.450644
C76	C	1.424353	-0.190764	0.049356
C77	C	0.954173	-1.022359	-0.423346
C78	C	1.454173	-0.522359	0.076654
C79	C	0.950942	-1.095705	-0.426358
C80	C	1.450942	-0.595705	0.073642
C81	C	1.044471	-1.095990	-0.340181
C82	C	1.544471	-0.595990	0.159819
C83	C	1.047697	-1.022647	-0.337165
C84	C	1.547697	-0.522647	0.162835
C85	C	1.002551	-0.985836	-0.378750
C86	C	1.502551	-0.485836	0.121250
C87	C	0.962966	-0.875891	-0.415164
C88	C	1.462966	-0.375891	0.084836
C89	C	1.005857	-0.910869	-0.375667
C90	C	1.505857	-0.410869	0.124333
C91	C	1.167289	-0.401401	-0.403088
C92	C	1.667289	0.098599	0.096912
C93	C	1.245247	-0.404669	-0.406365
C94	C	1.745247	0.095331	0.093635
C95	C	0.976708	-0.400740	-0.578967
C96	C	1.476708	0.099260	-0.078967
C97	C	0.973452	-0.403726	-0.657192
C98	C	1.473452	0.096274	-0.157192
C99	C	0.992581	-0.210571	-0.387953
C100	C	1.492581	0.289429	0.112047
C101	C	0.996089	-0.132518	-0.384780
C102	C	1.496089	0.367482	0.115220
C103	C	1.018793	-0.362103	-0.694003
C104	C	1.518793	0.137897	-0.194003
C105	C	1.015725	-0.364906	-0.767503
C106	C	1.515725	0.135094	-0.267503
C107	C	0.967319	-0.409336	-0.804192
C108	C	1.467319	0.090664	-0.304192
C109	C	0.921973	-0.450962	-0.767376
C110	C	1.421973	0.049038	-0.267376
C111	C	0.925038	-0.448154	-0.693877
C112	C	1.425038	0.051846	-0.193877
C113	C	0.953123	-0.422342	-1.024005
C114	C	1.453123	0.077658	-0.524005
C115	C	0.950063	-0.425148	-1.097510
C116	C	1.450063	0.074852	-0.597510
C117	C	1.043814	-0.339090	-1.097632
C118	C	1.543814	0.160910	-0.597632
C119	C	1.046877	-0.336290	-1.024131
C120	C	1.546877	0.163710	-0.524131
C121	C	1.001529	-0.377913	-0.987321
C122	C	1.501529	0.122087	-0.487321
N123	N	0.964183	-0.412204	-0.879321
N124	N	1.464183	0.087796	-0.379321
N125	N	1.004662	-0.375041	-0.912193
N126	N	1.504662	0.124959	-0.412193
C127	C	0.992003	-0.386702	-0.212547
C128	C	1.492003	0.113298	0.287453
C129	C	0.995403	-0.383524	-0.134320
C130	C	1.495403	0.116476	0.365680
H131	H	0.377909	-0.495228	-0.497049
H132	H	0.877909	0.004772	0.002951
H133	H	0.916207	-0.456245	-0.994044
H134	H	1.416207	0.043755	-0.494044
H135	H	0.881732	-0.793853	-0.489974
H136	H	1.381732	-0.293853	0.010026
H137	H	0.591493	-0.292282	-0.293803
H138	H	1.091493	0.207718	0.206197
H139	H	0.911554	-1.125446	-0.462685
H140	H	1.411554	-0.625446	0.037315
H141	H	1.081228	-1.125969	-0.306326
H142	H	1.581228	-0.625969	0.193674
H143	H	0.882558	-0.487135	-0.797254
H144	H	1.382558	0.012865	-0.297254
O145	O	0.402684	-0.313848	-0.315402
O146	O	0.902684	0.186152	0.184598
H147	H	0.436140	-0.345254	-0.282227
H148	H	0.936140	0.154746	0.217773
O149	O	1.099087	-0.288365	-0.984565
O150	O	1.599087	0.211635	-0.484565
H151	H	1.093605	-0.293412	-0.927272
H152	H	1.593605	0.206588	-0.427272
O153	O	0.566796	-0.473792	-0.475383
O154	O	1.066796	0.026208	0.024617
H155	H	0.579088	-0.464637	-0.530768
H156	H	1.079088	0.035363	-0.030768
O157	O	0.735095	-0.285903	-0.287389
O158	O	1.235095	0.214097	0.212611
H159	H	0.722997	-0.230684	-0.296709
H160	H	1.222997	0.269316	0.203291
O161	O	1.064631	-0.320012	-0.807205
O162	O	1.564631	0.179988	-0.307205
H163	H	1.097499	-0.354219	-0.843476
H164	H	1.597499	0.145781	-0.343476
H165	H	0.923575	-0.905641	-0.451472
H166	H	1.423575	-0.405641	0.048528
H167	H	1.080733	-0.305203	-1.127610
H168	H	1.580733	0.194797	-0.627610
O169	O	1.070060	-0.651654	-0.316367
O170	O	1.570060	-0.151654	0.183633
H171	H	1.100916	-0.689578	-0.287969
H172	H	1.600916	-0.189578	0.212031
O173	O	0.876127	-0.493038	-0.654167
O174	O	1.376127	0.006962	-0.154167
H175	H	0.841952	-0.524406	-0.692026
H176	H	1.341952	-0.024406	-0.192026
O177	O	0.875652	-0.651062	-0.495487
O178	O	1.375652	-0.151062	0.004513
H179	H	0.906996	-0.620292	-0.531267
H180	H	1.406996	-0.120292	-0.031267
O181	O	0.234341	-0.501634	-0.503458
O182	O	0.734341	-0.001634	-0.003458
H183	H	0.200888	-0.470257	-0.536664
H184	H	0.700888	0.029743	-0.036664
O185	O	0.897847	-0.473066	-1.137085
O186	O	1.397847	0.026934	-0.637085
H187	H	0.866823	-0.501532	-1.099141
H188	H	1.366823	-0.001532	-0.599141
O189	O	0.250418	-0.307482	-0.309040
O190	O	0.750418	0.192518	0.190960
H191	H	0.290884	-0.276579	-0.278104
H192	H	0.790884	0.223421	0.221896
H193	H	0.710321	-0.467281	-0.469046
H194	H	1.210321	0.032719	0.030954
H195	H	1.051411	-0.794364	-0.333625
H196	H	1.551411	-0.294364	0.166375
H197	H	1.087091	-0.992907	-0.300852
H198	H	1.587091	-0.492907	0.199148
H199	H	0.917412	-0.992393	-0.457205
H200	H	1.417412	-0.492393	0.042795
O201	O	1.058045	-0.871472	-0.327581
O202	O	1.558045	-0.371472	0.172419
H203	H	1.029646	-0.835417	-0.289058
H204	H	1.529646	-0.335417	0.210942
O205	O	1.071002	-0.314181	-0.654432
O206	O	1.571002	0.185819	-0.154432
H207	H	1.102010	-0.285704	-0.692380
H208	H	1.602010	0.214296	-0.192380
