data_functionalizedCrystal
_audit_creation_method	'MofGen! by Chris Wilmer'
_symmetry_space_group_name_H-M	'P1'
_symmetry_Int_Tables_number	1
_symmetry_cell_setting	triclinic
loop_
_symmetry_equiv_pos_as_xyz
  x,y,z
_cell_length_a	23.532355
_cell_length_b	23.532357
_cell_length_c	22.610064
_cell_angle_alpha	89.998517
_cell_angle_beta	89.997644
_cell_angle_gamma	82.827896
loop_
_atom_site_label
_atom_site_type_symbol
_atom_site_fract_x
_atom_site_fract_y
_atom_site_fract_z
O1	O	0.755270	0.068988	-0.049111
O2	O	0.589401	0.079022	-0.049131
O3	O	0.677352	-0.008929	-0.049108
O4	O	0.667319	0.156940	-0.049134
O5	O	0.677337	-0.008917	0.049261
O6	O	0.589385	0.079035	0.049238
O7	O	0.755255	0.069001	0.049258
Zn8	Zn	0.672318	0.074020	0.064866
Zn9	Zn	0.672338	0.074003	-0.064739
O10	O	0.667303	0.156953	0.049235
C11	C	0.568177	0.078778	0.000051
C12	C	0.504958	0.078024	0.000044
C13	C	0.112937	0.073293	0.053691
C14	C	0.053537	0.072575	0.053693
O15	O	0.022812	0.072191	0.099295
N16	N	0.023837	0.072212	0.000072
C17	C	0.053541	0.072561	-0.053554
O18	O	0.022824	0.072186	-0.099163
C19	C	0.112939	0.073275	-0.053556
C20	C	0.142636	0.073643	0.000068
C21	C	0.142633	0.073661	0.107311
C22	C	0.202028	0.074379	0.107308
C23	C	0.231727	0.074730	0.053686
C24	C	0.202031	0.074362	0.000066
C25	C	0.142642	0.073620	-0.107182
C26	C	0.202045	0.074333	-0.107179
C27	C	0.231741	0.074701	-0.053555
C28	C	0.291124	0.075431	-0.053560
N29	N	0.320824	0.075794	0.000061
C30	C	0.291126	0.075443	0.053684
C31	C	-0.071201	0.071062	-0.053546
C32	C	-0.130599	0.070353	-0.053545
C33	C	-0.130598	0.070366	0.053702
C34	C	-0.071199	0.071079	0.053701
C35	C	-0.041501	0.071425	0.000074
C36	C	0.415859	0.076952	0.053674
C37	C	0.475259	0.077673	0.053667
C38	C	0.475254	0.077657	-0.053581
C39	C	0.415858	0.076940	-0.053574
C40	C	0.386163	0.076585	0.000059
O41	O	0.321888	0.075813	-0.099138
O42	O	0.321850	0.075811	0.099285
C43	C	0.677094	-0.030140	0.000078
C44	C	0.676339	-0.093358	0.000084
C45	C	0.671611	-0.485375	-0.053570
C46	C	0.670893	-0.544775	-0.053573
O47	O	0.670510	-0.575497	-0.099176
N48	N	0.670529	-0.574479	0.000047
C49	C	0.670877	-0.544780	0.053674
O50	O	0.670500	-0.575500	0.099282
C51	C	0.671590	-0.485381	0.053677
C52	C	0.671960	-0.455681	0.000053
C53	C	0.671980	-0.455675	-0.107189
C54	C	0.672698	-0.396280	-0.107186
C55	C	0.673047	-0.366585	-0.053563
C56	C	0.672678	-0.396286	0.000057
C57	C	0.671933	-0.455682	0.107303
C58	C	0.672646	-0.396280	0.107302
C59	C	0.673016	-0.366579	0.053678
C60	C	0.673745	-0.307196	0.053684
N61	N	0.674109	-0.277492	0.000063
C62	C	0.673760	-0.307186	-0.053560
C63	C	0.669378	-0.669521	0.053664
C64	C	0.668669	-0.728919	0.053662
C65	C	0.668685	-0.728910	-0.053586
C66	C	0.669398	-0.669511	-0.053583
C67	C	0.669742	-0.639817	0.000044
C68	C	0.675269	-0.182453	-0.053548
C69	C	0.675990	-0.123053	-0.053540
C70	C	0.675971	-0.123067	0.053708
C71	C	0.675253	-0.182462	0.053700
C72	C	0.674901	-0.212153	0.000067
O73	O	0.674126	-0.276436	0.099263
O74	O	0.674129	-0.276458	-0.099160
C75	C	0.776479	0.069245	0.000074
C76	C	0.839698	0.069999	0.000078
C77	C	0.667562	0.178163	0.000048
C78	C	0.668317	0.241381	0.000038
N79	N	0.672308	0.074031	0.153319
N80	N	0.672352	0.073987	-0.153192
C81	C	0.711285	0.035064	0.561970
C82	C	0.711288	0.035060	0.623890
O83	O	0.744403	0.001937	0.655917
N84	N	0.672338	0.073991	0.654856
C85	C	0.633378	0.112926	0.623899
O86	O	0.600249	0.146039	0.655923
C87	C	0.633373	0.112927	0.561980
C88	C	0.672330	0.073996	0.531017
C89	C	0.750237	-0.003863	0.531008
C90	C	0.750235	-0.003858	0.469092
C91	C	0.711280	0.035074	0.438139
C92	C	0.672327	0.074001	0.469102
C93	C	0.594412	0.151858	0.531024
C94	C	0.594410	0.151855	0.469101
C95	C	0.633366	0.112925	0.438138
C96	C	0.633370	0.112939	0.376233
N97	N	0.672320	0.074007	0.345267
C98	C	0.711275	0.035075	0.376220
C99	C	0.633392	0.112920	0.753932
C100	C	0.633399	0.112922	0.815850
C101	C	0.711308	0.035056	0.815837
C102	C	0.711302	0.035057	0.753918
C103	C	0.672342	0.073989	0.722966
C104	C	0.711267	0.035089	0.246193
C105	C	0.711263	0.035099	0.184272
C106	C	0.633353	0.112963	0.184290
C107	C	0.633359	0.112955	0.246206
C108	C	0.672318	0.074013	0.277156
O109	O	0.600270	0.146043	0.344166
O110	O	0.744394	0.001962	0.344188
H111	H	0.226202	0.074676	0.150975
H112	H	0.118459	0.073374	0.150979
H113	H	0.742988	0.003397	0.159064
H114	H	0.669698	-0.645333	-0.097248
O115	O	0.110626	0.073220	-0.165023
H116	H	0.064330	0.072668	-0.156024
H117	H	0.499445	0.077945	-0.097239
O118	O	-0.039171	0.071480	0.111537
H119	H	-0.069807	0.071116	0.148821
O120	O	-0.162652	0.070111	0.111542
H121	H	-0.208949	0.069593	0.102529
O122	O	0.753295	-0.006906	0.279567
H123	H	0.746308	-0.051267	0.267675
H124	H	0.781959	-0.035569	0.556204
H125	H	-0.047024	0.071349	-0.097218
O126	O	-0.162625	0.069946	-0.111382
H127	H	-0.131987	0.070301	-0.148666
H128	H	0.226222	0.074614	-0.150849
H129	H	0.391677	0.076649	-0.097239
O130	O	0.753312	-0.006946	0.720532
H131	H	0.729493	-0.034499	0.692331
O132	O	0.676381	-0.091016	-0.111378
H133	H	0.676009	-0.121647	-0.148665
O134	O	0.668283	-0.760953	0.111498
H135	H	0.629137	-0.782712	0.114061
O136	O	0.383909	0.076776	0.111579
H137	H	0.351624	0.115346	0.114052
O138	O	0.673023	-0.364257	0.165146
H139	H	0.634525	-0.331890	0.167714
O140	O	0.674891	-0.214472	-0.111393
H141	H	0.635738	-0.236221	-0.113971
O142	O	0.591337	0.154944	0.150888
H143	H	0.598325	0.199311	0.162757
O144	O	0.673082	-0.364247	-0.165023
H145	H	0.672710	-0.394881	-0.202306
H146	H	0.668398	-0.753098	-0.097249
H147	H	0.669660	-0.645348	0.097336
H148	H	0.671694	-0.479846	-0.150858
H149	H	0.671633	-0.479854	0.150970
H150	H	0.499435	0.077975	0.097336
O151	O	0.674856	-0.214502	0.111534
H152	H	0.675217	-0.183871	0.148822
H153	H	0.676258	-0.098879	0.097366
O154	O	0.792244	-0.045855	0.435699
H155	H	0.819324	-0.072929	0.467634
H156	H	0.743026	0.003354	0.841050
O157	O	0.591367	0.154920	0.720557
H158	H	0.563819	0.131094	0.692357
H159	H	0.601683	0.144629	0.841055
H160	H	0.562690	0.183558	0.556225
H161	H	0.562681	0.183558	0.443903
O162	O	0.591345	0.154944	0.279607
H163	H	0.564255	0.182015	0.247678
