data_functionalizedCrystal
_audit_creation_method	'MofGen! by Chris Wilmer'
_symmetry_space_group_name_H-M	'P1'
_symmetry_Int_Tables_number	1
_symmetry_cell_setting	triclinic
loop_
_symmetry_equiv_pos_as_xyz
  x,y,z
_cell_length_a	13.032721
_cell_length_b	12.827893
_cell_length_c	12.827885
_cell_angle_alpha	89.980728
_cell_angle_beta	97.149035
_cell_angle_gamma	97.204267
loop_
_atom_site_label
_atom_site_type_symbol
_atom_site_fract_x
_atom_site_fract_y
_atom_site_fract_z
Zn1	Zn	-0.415987	1.544798	-0.643644
Zn2	Zn	-0.590766	1.522478	-0.491086
Zn3	Zn	-0.416038	1.370033	-0.468924
Zn4	Zn	-0.590688	1.347821	-0.665776
O5	O	-0.503370	1.446282	-0.567357
O6	O	-0.439183	1.688072	-0.623419
O7	O	-0.567642	1.502211	-0.341917
O8	O	-0.269794	1.411853	-0.473563
O9	O	-0.567593	1.671673	-0.511336
O10	O	-0.269756	1.540252	-0.601929
O11	O	-0.439270	1.390210	-0.325634
O12	O	-0.439194	1.220852	-0.495024
O13	O	-0.567460	1.373995	-0.809070
O14	O	-0.567509	1.204532	-0.639651
O15	O	-0.439108	1.518714	-0.792809
O16	O	-0.736993	1.480672	-0.532797
O17	O	-0.736936	1.352352	-0.661141
C18	C	-0.503350	1.174775	-0.567335
C19	C	-0.503366	1.058620	-0.567353
C20	C	-0.439806	0.894847	-0.495910
C21	C	-0.439788	1.014900	-0.495889
C22	C	-0.774882	1.411708	-0.601798
C23	C	-0.891037	1.397013	-0.616567
C24	C	-0.942815	1.454008	-0.559696
C25	C	-1.062867	1.438821	-0.574959
C26	C	-0.230797	1.481020	-0.532805
C27	C	-0.114643	1.495823	-0.518081
C28	C	-0.503270	1.446366	-0.839915
C29	C	-0.503227	1.446402	-0.956063
C30	C	-0.503391	1.718850	-0.567381
C31	C	-0.503400	1.835002	-0.567391
C32	C	-0.439702	1.518022	-0.999800
C33	C	-0.439656	1.518061	-1.119844
C34	C	-0.503394	1.446269	-0.295851
C35	C	-0.503143	1.446473	-0.179666
H36	H	-0.557817	1.007191	-0.628551
O37	O	-1.055655	1.575367	-0.438618
H38	H	-1.006009	1.534866	-0.379134
O39	O	-0.575225	1.365214	-1.024177
H40	H	-0.557313	1.285457	-1.001016
H41	H	-0.557536	1.385157	-1.142030
O42	O	-0.575502	0.884849	-0.648443
H43	H	-0.557685	0.866264	-0.728248
O44	O	-0.367726	0.844998	-0.414837
H45	H	-0.379071	0.758524	-0.427559
H46	H	-0.898270	1.514051	-0.499712
H47	H	-1.107411	1.378782	-0.634956
H48	H	-0.385347	1.066334	-0.434689
H49	H	-0.935584	1.336978	-0.676559
H50	H	-0.385345	1.579306	-0.948371
H51	H	-0.385273	1.579380	-1.157488
