data_functionalizedCrystal
_audit_creation_method	'MofGen! by Chris Wilmer'
_symmetry_space_group_name_H-M	'P1'
_symmetry_Int_Tables_number	1
_symmetry_cell_setting	triclinic
loop_
_symmetry_equiv_pos_as_xyz
  x,y,z
_cell_length_a	19.805407
_cell_length_b	29.839131
_cell_length_c	19.805399
_cell_angle_alpha	89.970435
_cell_angle_beta	89.982197
_cell_angle_gamma	90.038737
loop_
_atom_site_label
_atom_site_type_symbol
_atom_site_fract_x
_atom_site_fract_y
_atom_site_fract_z
Zn1	Zn	1.034665	-0.178896	-0.382678
Zn2	Zn	1.534665	0.321104	0.117322
Zn3	Zn	1.034550	-0.254024	-0.269486
Zn4	Zn	1.534550	0.245976	0.230514
Zn5	Zn	0.921480	-0.178905	-0.269506
Zn6	Zn	1.421480	0.321095	0.230494
Zn7	Zn	0.921414	-0.253996	-0.382636
Zn8	Zn	1.421414	0.246004	0.117364
O9	O	0.978027	-0.216455	-0.326077
O10	O	1.478027	0.283545	0.173923
O11	O	1.129366	-0.188870	-0.367672
O12	O	1.629366	0.311130	0.132328
O13	O	1.019531	-0.244074	-0.174772
O14	O	1.519531	0.255926	0.325228
O15	O	0.936570	-0.116036	-0.284545
O16	O	1.436570	0.383964	0.215455
O17	O	1.129282	-0.244065	-0.284510
O18	O	1.629282	0.255935	0.215490
O19	O	1.019726	-0.116030	-0.367692
O20	O	1.519726	0.383970	0.132308
O21	O	0.936458	-0.188885	-0.174787
O22	O	1.436458	0.311115	0.325213
O23	O	0.826754	-0.188858	-0.284504
O24	O	1.326754	0.311142	0.215496
O25	O	0.936457	-0.244019	-0.477359
O26	O	1.436457	0.255981	0.022641
O27	O	0.826706	-0.244027	-0.367620
O28	O	1.326706	0.255973	0.132380
O29	O	1.019662	-0.188843	-0.477389
O30	O	1.519662	0.311157	0.022611
O31	O	1.019467	-0.316887	-0.284470
O32	O	1.519467	0.183113	0.215530
O33	O	0.936346	-0.316867	-0.367601
O34	O	1.436346	0.183133	0.132399
C35	C	0.802171	-0.216441	-0.326060
C36	C	1.302171	0.283559	0.173940
C37	C	0.726939	-0.216446	-0.326069
C38	C	1.226939	0.283554	0.173931
C39	C	0.691640	-0.187756	-0.369438
C40	C	1.191640	0.312244	0.130562
C41	C	0.620951	-0.187758	-0.369440
C42	C	1.120951	0.312242	0.130560
C43	C	0.585564	-0.216453	-0.326078
C44	C	1.085564	0.283547	0.173922
C45	C	0.620868	-0.245144	-0.282705
C46	C	1.120868	0.254856	0.217295
C47	C	0.691555	-0.245139	-0.282699
C48	C	1.191555	0.254861	0.217301
C49	C	0.335795	-0.245164	-0.282725
C50	C	0.835795	0.254836	0.217275
C51	C	0.265103	-0.245168	-0.282736
C52	C	0.765103	0.254832	0.217264
C53	C	0.265191	-0.187784	-0.369466
C54	C	0.765191	0.312216	0.130534
C55	C	0.335878	-0.187779	-0.369461
C56	C	0.835878	0.312221	0.130539
C57	C	0.371176	-0.216468	-0.326086
C58	C	0.871176	0.283532	0.173914
C59	C	0.447825	-0.216464	-0.326083
C60	C	0.947825	0.283536	0.173917
C61	C	0.508916	-0.216459	-0.326084
C62	C	1.008916	0.283541	0.173916
C63	C	0.977905	-0.333178	-0.326043
C64	C	1.477905	0.166822	0.173957
C65	C	0.977915	-0.383112	-0.326052
C66	C	1.477915	0.116888	0.173948
C67	C	1.021387	-0.692753	-0.282854
C68	C	1.521387	-0.192753	0.217146
C69	C	1.021470	-0.880426	-0.282880
C70	C	1.521470	-0.380426	0.217120
O71	O	1.058335	-0.904689	-0.246126
O72	O	1.558335	-0.404689	0.253874
N73	N	0.978167	-0.903897	-0.326128
N74	N	1.478167	-0.403897	0.173872
C75	C	0.934844	-0.880447	-0.369375
C76	C	1.434844	-0.380447	0.130625
O77	O	0.898019	-0.904716	-0.406166
O78	O	1.398019	-0.404716	0.093834
C79	C	0.934764	-0.692775	-0.369352
C80	C	1.434764	-0.192775	0.130648
C81	C	0.978065	-0.669306	-0.326096
C82	C	1.478065	-0.169306	0.173904
C83	C	1.064685	-0.669285	-0.239602
C84	C	1.564685	-0.169285	0.260398
C85	C	1.064661	-0.622369	-0.239594
C86	C	1.564661	-0.122369	0.260406
C87	C	1.021339	-0.598922	-0.282836
C88	C	1.521339	-0.098922	0.217164
C89	C	0.978041	-0.622391	-0.326088
C90	C	1.478041	-0.122391	0.173912
C91	C	0.891444	-0.669325	-0.412602
C92	C	1.391444	-0.169325	0.087398
C93	C	0.891429	-0.622404	-0.412594
C94	C	1.391429	-0.122404	0.087406
C95	C	0.934730	-0.598936	-0.369338
C96	C	1.434730	-0.098936	0.130662
C97	C	0.934695	-0.552028	-0.369322
C98	C	1.434695	-0.052028	0.130678
N99	N	0.977998	-0.528558	-0.326074
N100	N	1.477998	-0.028558	0.173926
C101	C	1.021320	-0.552005	-0.282831
C102	C	1.521320	-0.052005	0.217169
C103	C	0.934888	-0.978977	-0.369384
C104	C	1.434888	-0.478977	0.130616
C105	C	0.934906	-1.025895	-0.369389
C106	C	1.434906	-0.525895	0.130611
C107	C	1.021534	-1.025872	-0.282894
C108	C	1.521534	-0.525872	0.217106
C109	C	1.021512	-0.978953	-0.282886
C110	C	1.521512	-0.478953	0.217114
C111	C	0.978191	-0.955507	-0.326136
C112	C	1.478191	-0.455507	0.173864
C113	C	1.021266	-0.453479	-0.282816
C114	C	1.521266	0.046521	0.217184
C115	C	1.021236	-0.406559	-0.282809
C116	C	1.521236	0.093441	0.217191
C117	C	0.934611	-0.406587	-0.369306
C118	C	1.434611	0.093413	0.130694
C119	C	0.934638	-0.453502	-0.369310
C120	C	1.434638	0.046498	0.130690
C121	C	0.977971	-0.476947	-0.326063
C122	C	1.477971	0.023053	0.173937
O123	O	0.897855	-0.527736	-0.406062
O124	O	1.397855	-0.027736	0.093938
O125	O	1.058150	-0.527727	-0.246057
O126	O	1.558150	-0.027727	0.253943
C127	C	1.021411	-0.739669	-0.282862
C128	C	1.521411	-0.239669	0.217138
C129	C	0.978113	-0.763137	-0.326114
C130	C	1.478113	-0.263137	0.173886
C131	C	0.934791	-0.739690	-0.369357
C132	C	1.434791	-0.239690	0.130643
C133	C	0.978132	-0.810055	-0.326119
C134	C	1.478132	-0.310055	0.173881
C135	C	1.021454	-0.833502	-0.282876
C136	C	1.521454	-0.333502	0.217124
C137	C	1.064757	-0.810031	-0.239628
C138	C	1.564757	-0.310031	0.260372
C139	C	1.064733	-0.763116	-0.239620
C140	C	1.564733	-0.263116	0.260380
C141	C	0.891488	-0.763161	-0.412604
C142	C	1.391488	-0.263161	0.087396
C143	C	0.891515	-0.810076	-0.412609
C144	C	1.391515	-0.310076	0.087391
C145	C	0.934837	-0.833523	-0.369366
C146	C	1.434837	-0.333523	0.130634
C147	C	1.154570	-0.216470	-0.326094
C148	C	1.654570	0.283530	0.173906
C149	C	1.229802	-0.216476	-0.326101
C150	C	1.729802	0.283524	0.173899
C151	C	0.978065	-0.216427	-0.502620
C152	C	1.478065	0.283573	-0.002620
C153	C	0.978081	-0.216415	-0.577852
C154	C	1.478081	0.283585	-0.077852
C155	C	0.978168	-0.099277	-0.326125
C156	C	1.478168	0.400723	0.173875
C157	C	0.978228	-0.049342	-0.326146
C158	C	1.478228	0.450658	0.173854
C159	C	1.021407	-0.187683	-0.613213
C160	C	1.521407	0.312317	-0.113213
C161	C	1.021414	-0.187670	-0.683901
C162	C	1.521414	0.312330	-0.183901
C163	C	0.978098	-0.216391	-0.719227
C164	C	1.478098	0.283609	-0.219227
C165	C	0.934767	-0.245124	-0.683861
C166	C	1.434767	0.254876	-0.183861
C167	C	0.934757	-0.245134	-0.613174
C168	C	1.434757	0.254866	-0.113174
C169	C	0.934806	-0.245082	-0.968934
C170	C	1.434806	0.254918	-0.468934
C171	C	0.934820	-0.245070	-1.039627
C172	C	1.434820	0.254930	-0.539627
C173	C	1.021462	-0.187618	-1.039662
C174	C	1.521462	0.312382	-0.539662
C175	C	1.021452	-0.187628	-0.968975
C176	C	1.521452	0.312372	-0.468975
C177	C	0.978119	-0.216359	-0.933615
C178	C	1.478119	0.283641	-0.433615
C179	C	0.978112	-0.216372	-0.856966
C180	C	1.478112	0.283628	-0.356966
C181	C	0.978109	-0.216381	-0.795874
C182	C	1.478109	0.283619	-0.295874
C183	C	0.978028	-0.216451	-0.150221
C184	C	1.478028	0.283549	0.349779
C185	C	0.978143	-0.216336	-0.074989
C186	C	1.478143	0.283664	0.425011
H187	H	1.056497	-0.387453	-0.247583
H188	H	1.556497	0.112547	0.252417
H189	H	1.099967	-0.688371	-0.204389
H190	H	1.599967	-0.188371	0.295611
O191	O	1.111484	-0.835332	-0.192996
O192	O	1.611484	-0.335332	0.307004
H193	H	1.099908	-0.826368	-0.139857
H194	H	1.599908	-0.326368	0.360143
H195	H	1.056683	-0.164297	-0.584456
H196	H	1.556683	0.335703	-0.084456
H197	H	0.856248	-0.829180	-0.447832
H198	H	1.356248	-0.329180	0.052168
H199	H	1.099922	-0.603264	-0.204373
H200	H	1.599922	-0.103264	0.295627
O201	O	0.844759	-0.737872	-0.459243
O202	O	1.344759	-0.237872	0.040757
H203	H	0.810335	-0.716531	-0.428909
H204	H	1.310335	-0.216531	0.071091
O205	O	1.068175	-0.156653	-0.930872
O206	O	1.568175	0.343347	-0.430872
H207	H	1.056608	-0.121390	-0.944446
H208	H	1.556608	0.378610	-0.444446
O209	O	0.374043	-0.156824	-0.416225
O210	O	0.874043	0.343176	0.083775
H211	H	0.360488	-0.164570	-0.469329
H212	H	0.860488	0.335430	0.030671
O213	O	0.887886	-0.381290	-0.415941
O214	O	1.387886	0.118710	0.084059
H215	H	0.857774	-0.405489	-0.446018
H216	H	1.357774	0.094511	0.053982
H217	H	0.364526	-0.268525	-0.247407
H218	H	0.864526	0.231475	0.252593
O219	O	0.888091	-0.276044	-1.077733
O220	O	1.388091	0.223956	-0.577733
H221	H	0.857951	-0.296021	-1.041270
H222	H	1.357951	0.203979	-0.541270
H223	H	1.056553	-0.472562	-0.247601
H224	H	1.556553	0.027438	0.252399
H225	H	0.592050	-0.268506	-0.247395
H226	H	1.092050	0.231494	0.252605
O227	O	0.888071	-0.276072	-0.930805
O228	O	1.388071	0.223928	-0.430805
H229	H	0.895332	-0.271253	-0.875716
H230	H	1.395332	0.228747	-0.375716
O231	O	0.729804	-0.156802	-0.416204
O232	O	1.229804	0.343198	0.083796
H233	H	0.716246	-0.164549	-0.469306
H234	H	1.216246	0.335451	0.030694
O235	O	0.844693	-0.597118	-0.459236
O236	O	1.344693	-0.097118	0.040764
H237	H	0.856269	-0.606097	-0.512370
H238	H	1.356269	-0.106097	-0.012370
O239	O	0.888019	-0.276117	-0.575029
O240	O	1.388019	0.223883	-0.075029
H241	H	0.857900	-0.296087	-0.611467
H242	H	1.357900	0.203913	-0.111467
H243	H	1.056771	-0.959848	-0.247664
H244	H	1.556771	-0.459848	0.252336
O245	O	0.888147	-0.953698	-0.416031
O246	O	1.388147	-0.453698	0.083969
H247	H	0.918399	-0.932292	-0.450506
H248	H	1.418399	-0.432292	0.049494
O249	O	0.729634	-0.276083	-0.235925
O250	O	1.229634	0.223917	0.264075
H251	H	0.693153	-0.296040	-0.205776
H252	H	1.193153	0.203960	0.294224
O253	O	1.068184	-0.156615	-1.077799
O254	O	1.568184	0.343385	-0.577799
H255	H	1.060906	-0.161424	-1.132887
H256	H	1.560906	0.338576	-0.632887
H257	H	1.056809	-1.044970	-0.247684
H258	H	1.556809	-0.544970	0.252316
H259	H	0.899640	-1.044999	-0.404605
H260	H	1.399640	-0.544999	0.095395
H261	H	1.056696	-0.164275	-0.712689
H262	H	1.556696	0.335725	-0.212689
H263	H	0.899496	-0.268508	-0.712629
H264	H	1.399496	0.231492	-0.212629
H265	H	0.592213	-0.164397	-0.404756
H266	H	1.092213	0.335603	0.095244
H267	H	0.236442	-0.164422	-0.404782
H268	H	0.736442	0.335578	0.095218
O269	O	0.844745	-0.694631	-0.459261
O270	O	1.344745	-0.194631	0.040739
H271	H	0.814629	-0.670437	-0.489332
H272	H	1.314629	-0.170437	0.010668
H273	H	0.236292	-0.268536	-0.247422
H274	H	0.736292	0.231464	0.252578
O275	O	0.887936	-0.478819	-0.415961
O276	O	1.387936	0.021181	0.084039
H277	H	0.857810	-0.454631	-0.446030
H278	H	1.357810	0.045369	0.053970
H279	H	1.099993	-0.744011	-0.204397
H280	H	1.599993	-0.244011	0.295603
