data_functionalizedCrystal
_audit_creation_method	'MofGen! by Chris Wilmer'
_symmetry_space_group_name_H-M	'P1'
_symmetry_Int_Tables_number	1
_symmetry_cell_setting	triclinic
loop_
_symmetry_equiv_pos_as_xyz
  x,y,z
_cell_length_a	10.654541
_cell_length_b	14.044220
_cell_length_c	9.730217
_cell_angle_alpha	89.995579
_cell_angle_beta	89.999932
_cell_angle_gamma	88.836403
loop_
_atom_site_label
_atom_site_type_symbol
_atom_site_fract_x
_atom_site_fract_y
_atom_site_fract_z
O1	O	1.681226	0.133219	-0.114252
O2	O	1.317022	0.145915	-0.114264
O3	O	1.493657	0.001546	-0.114245
O4	O	1.504591	0.277587	-0.114271
O5	O	1.493651	0.001545	0.114335
O6	O	1.317016	0.145914	0.114316
O7	O	1.681220	0.133218	0.114328
Zn8	Zn	1.499117	0.139565	0.150614
Zn9	Zn	1.499125	0.139567	-0.150550
O10	O	1.504585	0.277586	0.114309
C11	C	1.270128	0.144983	0.000024
C12	C	1.130404	0.142195	0.000020
C13	C	1.488869	-0.033800	0.000046
C14	C	1.474593	-0.139120	0.000047
C15	C	1.119781	0.314827	-0.000014
C16	C	1.048829	0.399829	-0.000036
C17	C	0.917547	0.397204	-0.000037
C18	C	0.857215	0.309567	-0.000012
C19	C	0.928167	0.224565	0.000011
C20	C	1.059452	0.227199	0.000008
C21	C	0.938790	0.051935	0.000054
C22	C	1.070072	0.054558	0.000046
C23	C	0.878458	-0.035701	0.000080
C24	C	0.949411	-0.120706	0.000092
C25	C	1.080701	-0.118077	0.000092
C26	C	1.141025	-0.030444	0.000068
C27	C	1.448494	-0.331952	0.000026
C28	C	1.549742	-0.388921	0.000026
C29	C	1.535221	-0.496219	0.000014
C30	C	1.463014	-0.224644	0.000038
C31	C	1.728114	0.134150	0.000037
C32	C	1.867838	0.136938	0.000032
C33	C	1.509374	0.312933	0.000015
C34	C	1.523649	0.418252	0.000005
N35	N	1.499121	0.139564	0.356151
N36	N	1.499131	0.139561	-0.356087
C37	C	1.655605	0.011763	0.356159
C38	C	1.733855	-0.052135	0.428102
C39	C	1.733868	-0.052135	0.571982
C40	C	1.655619	0.011767	0.643921
C41	C	1.577368	0.075664	0.571978
C42	C	1.577367	0.075660	0.428095
C43	C	1.420880	0.203459	0.571970
C44	C	1.420872	0.203466	0.428090
C45	C	1.342631	0.267361	0.643909
C46	C	1.264385	0.331265	0.571965
C47	C	1.264376	0.331263	0.428076
C48	C	1.342621	0.267363	0.356146
H49	H	1.226677	0.316973	-0.000043
C50	C	1.316668	-0.374917	0.000020
H51	H	1.255046	-0.325065	0.000014
H52	H	1.306811	-0.413104	0.079725
H53	H	1.306814	-0.413084	-0.079707
H54	H	1.200650	0.383293	0.369507
C55	C	0.734053	-0.038595	0.000077
H56	H	0.708287	-0.102960	0.000104
H57	H	0.702394	-0.007318	-0.079644
H58	H	0.702389	-0.007307	0.079788
H59	H	1.647330	-0.357109	-0.000063
H60	H	1.138463	-0.187297	0.000115
H61	H	1.097966	0.471181	-0.000053
C62	C	1.655600	0.011772	0.197895
H63	H	1.597798	0.058984	0.165352
H64	H	1.631628	-0.048978	0.165345
H65	H	1.737380	0.025335	0.165350
H66	H	1.342626	0.267360	0.238991
H67	H	0.750318	0.307437	0.000004
C68	C	0.839497	0.490703	-0.000070
H69	H	0.894225	0.543272	-0.000095
H70	H	0.788056	0.493272	0.079634
H71	H	0.788071	0.493253	-0.079797
C72	C	1.819922	-0.122422	0.348968
H73	H	1.808719	-0.113268	0.252974
H74	H	1.799198	-0.185828	0.372559
H75	H	1.904955	-0.111518	0.372541
H76	H	1.797581	-0.104169	0.630559
C77	C	1.655612	0.011757	0.802185
H78	H	1.597799	0.058958	0.834725
H79	H	1.737384	0.025302	0.834745
H80	H	1.631617	-0.049000	0.834724
C81	C	0.883052	-0.217095	0.000122
H82	H	0.944107	-0.267344	0.000137
H83	H	0.832051	-0.221711	-0.079582
H84	H	0.832068	-0.221701	0.079850
H85	H	1.247921	-0.028295	0.000051
C86	C	1.342646	0.267363	0.802172
H87	H	1.400464	0.220164	0.834719
H88	H	1.260876	0.253813	0.834736
H89	H	1.366634	0.328121	0.834701
H90	H	1.200674	0.383285	0.630547
