data_functionalizedCrystal
_audit_creation_method	'MofGen! by Chris Wilmer'
_symmetry_space_group_name_H-M	'P1'
_symmetry_Int_Tables_number	1
_symmetry_cell_setting	triclinic
loop_
_symmetry_equiv_pos_as_xyz
  x,y,z
_cell_length_a	18.426585
_cell_length_b	21.606444
_cell_length_c	21.606444
_cell_angle_alpha	59.991153
_cell_angle_beta	90.003736
_cell_angle_gamma	60.002832
loop_
_atom_site_label
_atom_site_type_symbol
_atom_site_fract_x
_atom_site_fract_y
_atom_site_fract_z
Zr1	Zr	0.699140	0.677488	-0.081302
O2	O	0.583254	0.806627	-0.180156
O3	O	0.734665	0.548355	-0.050983
O4	O	0.734658	0.677491	-0.180127
O5	O	0.583267	0.677487	0.050842
O6	O	0.854089	0.677487	-0.180121
O7	O	0.583260	0.677491	-0.051012
O8	O	0.854101	0.446486	0.050894
O9	O	0.583254	0.908487	-0.180173
O10	O	0.838946	0.601464	-0.038066
O11	O	0.749821	0.601464	0.037942
O12	O	0.749813	0.753505	-0.114108
O13	O	0.660687	0.753505	-0.038100
Zr14	Zr	0.889628	0.677474	0.081153
Zr15	Zr	0.889618	0.677481	-0.081293
Zr16	Zr	0.699150	0.677481	0.081143
Zr17	Zr	0.699141	0.839943	-0.081329
Zr18	Zr	0.889627	0.515019	0.081180
O19	O	0.854103	0.806607	0.050834
O20	O	0.854090	0.806617	-0.180143
O21	O	0.583267	0.806617	0.050821
O22	O	1.005514	0.548336	0.180007
O23	O	1.005501	0.548345	-0.050970
O24	O	0.734678	0.548345	0.179994
O25	O	1.005501	0.677476	-0.050991
O26	O	0.854110	0.677471	0.179978
O27	O	0.734679	0.677476	0.179972
O28	O	1.005508	0.677471	0.050863
O29	O	0.734659	0.908481	-0.180166
O30	O	0.854109	0.446481	0.180017
O31	O	1.005514	0.446475	0.180024
O32	O	1.005506	0.446481	0.050901
O33	O	0.583262	0.908481	-0.051051
O34	O	0.734667	0.908476	-0.051043
O35	O	0.838955	0.601457	0.113959
O36	O	0.928081	0.601458	0.037951
O37	O	0.838947	0.753498	-0.038091
O38	O	0.749822	0.753498	0.037917
C39	C	0.794383	0.474274	-0.000041
C40	C	0.794382	0.405308	-0.000029
C41	C	0.728581	0.429048	-0.056161
C42	C	0.728583	0.364258	-0.056176
C43	C	0.794384	0.275730	-0.000057
C44	C	0.860192	0.251991	0.056078
C45	C	0.860192	0.316779	0.056090
C46	C	0.860191	-0.009296	0.056030
C47	C	0.860184	-0.074085	0.056015
C48	C	0.728582	0.038183	-0.056236
C49	C	0.728583	0.102972	-0.056224
C50	C	0.794393	0.079227	-0.000092
C51	C	0.794391	0.149480	-0.000077
C52	C	0.794383	0.205478	-0.000069
C53	C	0.556124	0.677490	-0.000086
C54	C	0.475261	0.677493	-0.000090
C55	C	0.409591	0.677496	-0.000090
C56	C	0.327209	0.677492	-0.000083
C57	C	0.261551	0.677483	-0.000074
C58	C	0.179164	0.677479	-0.000068
C59	C	1.032644	0.677472	-0.000063
C60	C	1.113507	0.677470	-0.000059
C61	C	0.794372	0.677490	-0.203269
C62	C	0.794368	0.677493	-0.272232
C63	C	0.794385	0.880688	-0.000109
C64	C	0.794386	0.949654	-0.000120
C65	C	0.747841	0.756856	-0.344324
C66	C	0.747848	0.756853	-0.409119
C67	C	0.794378	0.677487	-0.401820
C68	C	0.840911	0.598118	-0.329720
C69	C	0.840908	0.598121	-0.264927
C70	C	0.840926	0.598103	-0.591023
C71	C	0.840923	0.598105	-0.655824
C72	C	0.747865	0.756835	-0.735215
C73	C	0.747862	0.756838	-0.670422
C74	C	0.794399	0.677470	-0.598328
C75	C	0.794391	0.677473	-0.528070
C76	C	0.794381	0.677483	-0.472076
C77	C	0.794396	0.677472	0.203120
C78	C	0.794400	0.677469	0.272082
C79	C	1.032642	0.474266	-0.000029
C80	C	1.113505	0.405296	-0.000014
C81	C	0.794395	0.474266	0.203154
C82	C	0.794398	0.405296	0.272128
C83	C	1.032654	0.474257	0.203166
C84	C	1.113521	0.405285	0.272143
C85	C	0.556114	0.880705	-0.203315
C86	C	0.475247	0.949677	-0.272293
C87	C	0.556126	0.880696	-0.000120
C88	C	0.475263	0.949666	-0.000136
C89	C	0.794373	0.880697	-0.203303
C90	C	0.794370	0.949666	-0.272277
C91	C	1.104952	0.372911	-0.039693
C92	C	1.180924	0.308116	-0.039694
C93	C	1.265448	0.275703	-0.000010
C94	C	1.273999	0.308095	0.039671
C95	C	1.198028	0.372893	0.039667
C96	C	0.840927	0.372904	0.344206
C97	C	0.840927	0.308109	0.409020
C98	C	0.794403	0.275703	0.401755
C99	C	0.747868	0.308101	0.329670
C100	C	0.747864	0.372900	0.264857
C101	C	1.198028	0.372895	0.264861
C102	C	1.274018	0.308097	0.329666
C103	C	1.265500	0.275686	0.401754
C104	C	1.180984	0.308082	0.409036
C105	C	1.104996	0.372883	0.344231
C106	C	0.390740	0.982075	-0.265010
C107	C	0.314750	1.046893	-0.329816
C108	C	0.323268	1.079308	-0.401904
C109	C	0.407784	1.046907	-0.409185
C110	C	0.483772	0.982095	-0.344380
C111	C	0.483816	0.982058	0.039537
C112	C	0.407844	1.046871	0.039520
C113	C	0.323320	1.079286	-0.000166
C114	C	0.314769	1.046891	-0.039844
C115	C	0.390740	0.982084	-0.039831
C116	C	0.840903	0.982052	-0.264988
C117	C	0.840917	1.046847	-0.329790
C118	C	0.794392	1.079260	-0.401881
C119	C	0.747857	1.046868	-0.409168
C120	C	0.747849	0.982069	-0.344367
H121	H	0.674989	0.501129	-0.101852
H122	H	0.878789	0.955671	-0.206294
O123	O	0.702658	0.404231	0.194899
C124	C	0.661585	0.361741	0.202395
H125	H	0.698082	0.296065	0.260238
H126	H	0.589369	0.404242	0.197070
C127	C	0.620143	0.427294	0.068596
C128	C	0.664975	0.346627	0.139638
H129	H	0.622229	0.417974	0.029883
H130	H	0.647811	0.455924	0.063545
H131	H	0.559967	0.462704	0.064169
H132	H	0.725152	0.311224	0.144067
H133	H	0.637316	0.317991	0.144689
H134	H	1.204980	0.399274	0.206169
O135	O	0.232612	1.078340	-0.322829
C136	C	0.185875	1.062501	-0.357923
H137	H	0.214869	1.054456	-0.402093
H138	H	0.192210	1.000182	-0.313365
C139	C	0.051488	1.150131	-0.342533
C140	C	0.087094	1.140257	-0.396788
H141	H	-0.009446	1.198092	-0.366504
H142	H	0.082976	1.160800	-0.318887
H143	H	0.056775	1.098193	-0.305406
H144	H	0.081817	1.192190	-0.433909
H145	H	0.055603	1.129599	-0.420441
O146	O	0.702772	0.276480	0.322754
C147	C	0.712754	0.212350	0.395421
H148	H	0.775584	0.184039	0.438370
H149	H	0.652636	0.243340	0.411919
C150	C	0.642830	0.173449	0.341747
C151	C	0.720002	0.138672	0.394496
H152	H	0.647296	0.128003	0.341177
H153	H	0.636101	0.216658	0.292790
H154	H	0.592739	0.199274	0.355502
H155	H	0.770090	0.112858	0.380736
H156	H	0.726739	0.095458	0.443451
H157	H	1.342827	0.281726	0.323724
H158	H	1.036190	0.399247	0.350171
O159	O	0.702685	0.950521	-0.351318
C160	C	0.712608	0.886408	-0.278671
H161	H	0.775467	0.858015	-0.235701
H162	H	0.652506	0.917441	-0.262176
C163	C	0.642520	0.847680	-0.332420
C164	C	0.719728	0.812802	-0.279644
H165	H	0.646908	0.802279	-0.333020
H166	H	0.635831	0.890877	-0.381364
H167	H	0.592442	0.873540	-0.318667
H168	H	0.769802	0.786953	-0.293403
H169	H	0.726426	0.769599	-0.230702
H170	H	0.414825	1.073236	0.071833
H171	H	0.675001	0.383596	-0.101884
O172	O	0.415949	1.078324	-0.479250
C173	C	0.374706	1.062491	-0.519043
H174	H	0.371263	1.005670	-0.476940
H175	H	0.304594	1.123640	-0.557449
C176	C	0.433242	1.109136	-0.619217
C177	C	0.429020	1.039342	-0.567505
H178	H	0.466743	1.094861	-0.649114
H179	H	0.461026	1.119806	-0.592410
H180	H	0.374812	1.160088	-0.651215
H181	H	0.487448	0.988395	-0.535503
H182	H	0.401247	1.028663	-0.594309
O183	O	0.924156	-0.032516	0.110631
C184	C	0.982240	-0.124546	0.160149
H185	H	0.946785	-0.154273	0.157464
H186	H	1.043416	-0.148686	0.142486
C187	C	1.054489	-0.115797	0.245025
C188	C	1.010940	-0.152308	0.241732
H189	H	1.072197	-0.132924	0.295349
H190	H	1.015359	-0.053795	0.211663
H191	H	1.105464	-0.135918	0.230301
H192	H	0.959961	-0.132179	0.256446
H193	H	1.050063	-0.214308	0.275099
O194	O	0.565794	0.950688	-0.351595
C195	C	0.557005	0.993215	-0.429120
H196	H	0.489192	1.019930	-0.463673
H197	H	0.563237	1.049492	-0.448220
C198	C	0.713879	0.894751	-0.398891
C199	C	0.630593	0.927556	-0.441328
H200	H	0.759273	0.854252	-0.406422
H201	H	0.719801	0.866101	-0.346660
H202	H	0.719060	0.941655	-0.414812
H203	H	0.625409	0.880653	-0.425400
H204	H	0.624672	0.956196	-0.493556
H205	H	0.674998	0.175054	-0.101920
H206	H	0.261386	1.132082	-0.454666
H207	H	0.261467	1.132057	-0.000171
O208	O	0.664619	0.061153	-0.110666
C209	C	0.616470	0.027040	-0.076323
H210	H	0.658881	-0.031420	-0.015033
H211	H	0.553064	0.079694	-0.077597
C212	C	0.540144	0.069424	-0.195161
C213	C	0.592238	-0.002383	-0.119884
H214	H	0.525193	0.051278	-0.222032
H215	H	0.572581	0.092410	-0.218299
H216	H	0.487312	0.113296	-0.196211
H217	H	0.645073	-0.046248	-0.118834
H218	H	0.559809	-0.025377	-0.096747
O219	O	1.339295	0.212847	0.464724
C220	C	1.339162	0.244499	0.508144
H221	H	1.296182	0.319111	0.470096
H222	H	1.311158	0.220928	0.555061
C223	C	1.487695	0.118485	0.590325
C224	C	1.434911	0.210125	0.543592
H225	H	1.546757	0.097280	0.612195
H226	H	1.487783	0.097159	0.561075
H227	H	1.464347	0.098854	0.629416
H228	H	1.458253	0.229755	0.504497
H229	H	1.434829	0.231455	0.572838
O230	O	0.232593	1.078448	-0.078323
C231	C	0.167383	1.142605	-0.069832
H232	H	0.197017	1.131954	-0.016242
H233	H	0.143612	1.210387	-0.121111
C234	C	0.051837	1.148595	-0.129499
C235	C	0.088231	1.135508	-0.063675
H236	H	0.003010	1.144221	-0.125704
H237	H	0.095769	1.105374	-0.135222
H238	H	0.032035	1.205079	-0.172225
H239	H	0.108043	1.079021	-0.020951
H240	H	0.044301	1.178720	-0.057944
H241	H	0.383788	0.955687	-0.206318
O242	O	0.924086	0.166024	0.110691
C243	C	0.919897	0.147693	0.182533
H244	H	0.886456	0.210691	0.179148
H245	H	0.879818	0.119008	0.201140
C246	C	1.055712	0.003943	0.244604
C247	C	1.014645	0.081318	0.240448
H248	H	1.114155	-0.037003	0.280330
H249	H	1.058533	0.016291	0.196203
H250	H	1.022303	-0.019950	0.260107
H251	H	1.048047	0.105215	0.224936
H252	H	1.011832	0.068972	0.288848
H253	H	0.709977	1.073269	-0.467873
O254	O	1.172676	0.276729	0.479049
C255	C	1.125792	0.345872	0.487351
H256	H	1.132103	0.400968	0.446305
H257	H	1.052684	0.371418	0.474496
C258	C	1.157061	0.244799	0.619643
C259	C	1.164818	0.312465	0.569234
H260	H	1.181130	0.224192	0.670154
H261	H	1.188645	0.198215	0.614051
H262	H	1.096136	0.266096	0.608922
H263	H	1.225743	0.291165	0.579950
H264	H	1.133246	0.359045	0.574831
H265	H	1.342829	0.281695	0.071980
H266	H	0.383763	0.955712	-0.072135
H267	H	0.913774	0.297444	0.101798
H268	H	0.552633	0.955670	0.071859
O269	O	0.885999	1.078394	-0.322663
C270	C	0.851788	1.115859	-0.282686
H271	H	0.780867	1.135320	-0.288115
H272	H	0.894920	1.066186	-0.220319
C273	C	0.939063	1.173692	-0.309264
C274	C	0.851953	1.197602	-0.315938
H275	H	0.939168	1.224113	-0.329772
H276	H	0.962114	1.148449	-0.336195
H277	H	0.974996	1.132297	-0.257290
H278	H	0.816024	1.238988	-0.367911
H279	H	0.828896	1.222854	-0.289016
O280	O	0.924001	-0.160097	0.110591
C281	C	0.883736	-0.200952	0.151630
H282	H	0.815506	-0.149584	0.146139
H283	H	0.876041	-0.234963	0.128016
C284	C	1.026118	-0.332115	0.242522
C285	C	0.942320	-0.269024	0.235782
H286	H	1.062256	-0.374108	0.294430
H287	H	1.053246	-0.304592	0.214872
H288	H	1.019694	-0.360448	0.222838
H289	H	0.948745	-0.240685	0.255456
H290	H	0.915194	-0.296544	0.263437
O291	O	0.702792	0.833926	-0.479163
C292	C	0.762519	0.838669	-0.519019
H293	H	0.832616	0.793629	-0.476961
H294	H	0.760889	0.817351	-0.557466
C295	C	0.649181	0.988809	-0.619088
C296	C	0.735274	0.933495	-0.567432
H297	H	0.632374	1.047302	-0.648955
H298	H	0.608940	0.985613	-0.592239
H299	H	0.647833	0.971033	-0.651120
H300	H	0.736618	0.951264	-0.535395
H301	H	0.775514	0.936696	-0.594277
O302	O	1.022784	0.404461	-0.078182
C303	C	0.957551	0.468618	-0.069703
H304	H	0.987158	0.457970	-0.016105
H305	H	0.933786	0.536400	-0.120978
C306	C	0.842039	0.474599	-0.129409
C307	C	0.878401	0.461516	-0.063575
H308	H	0.793213	0.470222	-0.125632
H309	H	0.885987	0.431378	-0.135124
H310	H	0.822242	0.531084	-0.172131
H311	H	0.898207	0.405029	-0.020856
H312	H	0.834454	0.504728	-0.057852
H313	H	0.709944	0.821485	-0.350276
H314	H	0.709969	0.821467	-0.676371
O315	O	0.886117	0.520949	-0.194951
C316	C	0.927204	0.450897	-0.202401
H317	H	0.890713	0.474161	-0.260227
H318	H	0.999418	0.426493	-0.197083
C319	C	0.968649	0.347341	-0.068586
C320	C	0.923825	0.375912	-0.139607
H321	H	0.966570	0.301085	-0.029850
H322	H	0.940971	0.394536	-0.063566
H323	H	1.028824	0.327010	-0.064165
H324	H	0.863650	0.396252	-0.144030
H325	H	0.951493	0.328719	-0.144626
H326	H	0.709976	0.821461	-0.793923
H327	H	0.878816	0.533472	-0.649873
H328	H	0.794405	1.132024	-0.454640
H329	H	0.878819	0.533476	-0.532330
H330	H	0.878802	0.533496	-0.323782
H331	H	1.327301	0.222939	-0.000012
O332	O	1.206502	0.404218	0.078288
C333	C	1.297399	0.361721	0.113297
H334	H	1.337904	0.296048	0.121147
H335	H	1.319784	0.404220	0.076109
C336	C	1.261985	0.427267	0.181528
C337	C	1.311733	0.346602	0.191175
H338	H	1.270828	0.417943	0.229565
H339	H	1.200746	0.455900	0.157939
H340	H	1.280644	0.462674	0.150535
H341	H	1.293065	0.311200	0.222159
H342	H	1.372970	0.317962	0.214771
O343	O	0.886127	0.404317	0.351408
C344	C	0.927199	0.361812	0.428931
H345	H	0.890711	0.335104	0.463485
H346	H	0.999420	0.305534	0.448043
C347	C	0.968611	0.460289	0.398676
C348	C	0.923791	0.427492	0.441116
H349	H	0.966513	0.500801	0.406194
H350	H	0.940943	0.488924	0.346448
H351	H	1.028791	0.413384	0.414608
H352	H	0.863610	0.474395	0.425178
H353	H	0.951448	0.398867	0.493342
H354	H	1.173943	0.281750	-0.072006
H355	H	0.878825	0.281738	0.467709
H356	H	0.794414	0.222940	0.454536
