data_functionalizedCrystal
_audit_creation_method	'MofGen! by Chris Wilmer'
_symmetry_space_group_name_H-M	'P1'
_symmetry_Int_Tables_number	1
_symmetry_cell_setting	triclinic
loop_
_symmetry_equiv_pos_as_xyz
  x,y,z
_cell_length_a	11.792241
_cell_length_b	8.965430
_cell_length_c	11.792241
_cell_angle_alpha	90.000275
_cell_angle_beta	95.806584
_cell_angle_gamma	89.999632
loop_
_atom_site_label
_atom_site_type_symbol
_atom_site_fract_x
_atom_site_fract_y
_atom_site_fract_z
O1	O	1.506909	0.123895	-0.155559
O2	O	2.006909	0.623895	0.344441
O3	O	1.176567	0.123930	-0.171592
O4	O	1.676567	0.623930	0.328408
O5	O	1.349754	0.123901	0.001595
O6	O	1.849754	0.623901	0.501595
O7	O	1.333722	0.123924	-0.328746
O8	O	1.833722	0.623924	0.171254
O9	O	1.349740	-0.124178	0.001583
O10	O	1.849740	0.375822	0.501583
O11	O	1.176553	-0.124149	-0.171604
O12	O	1.676553	0.375851	0.328396
O13	O	1.506894	-0.124184	-0.155571
O14	O	2.006894	0.375816	0.344429
Cu15	Cu	1.341722	-0.146818	-0.163588
Cu16	Cu	1.841722	0.353182	0.336412
Cu17	Cu	1.341739	0.146564	-0.163575
Cu18	Cu	1.841739	0.646564	0.336425
O19	O	1.333707	-0.124155	-0.328758
O20	O	1.833707	0.375845	0.171242
C21	C	1.134269	-0.000105	-0.170591
C22	C	1.634269	0.499895	0.329409
C23	C	1.008255	-0.000092	-0.167576
C24	C	1.508255	0.499908	0.332424
C25	C	0.777543	-0.000135	-0.162034
C26	C	1.277543	0.499865	0.337966
C27	C	0.905928	-0.000112	-0.165113
C28	C	1.405928	0.499888	0.334887
N29	N	1.341718	-0.353167	-0.163597
N30	N	1.841718	0.146833	0.336403
C31	C	1.261600	-0.450460	-0.243664
C32	C	1.761600	0.049540	0.256336
C33	C	1.364301	-0.549883	-0.266319
C34	C	1.864301	-0.049883	0.233681
C35	C	1.239061	-0.549872	-0.140952
C36	C	1.739061	-0.049872	0.359048
C37	C	1.444471	-0.450401	-0.186304
C38	C	1.944471	0.049599	0.313696
C39	C	1.319163	-0.450381	-0.060892
C40	C	1.819163	0.049619	0.439108
C41	C	1.421938	-0.549759	-0.083504
C42	C	1.921938	-0.049759	0.416496
C43	C	1.549192	-0.000145	-0.156572
C44	C	2.049192	0.499855	0.343428
C45	C	1.675206	-0.000149	-0.159587
C46	C	2.175206	0.499851	0.340413
C47	C	1.348740	-0.000138	0.043880
C48	C	1.848740	0.499862	0.543880
C49	C	1.345726	-0.000136	0.169894
C50	C	1.845726	0.499864	0.669894
N51	N	1.341752	0.352913	-0.163557
N52	N	1.841752	0.852913	0.336443
C53	C	1.334721	-0.000113	-0.371043
C54	C	1.834721	0.499887	0.128957
C55	C	1.337736	-0.000105	-0.497057
C56	C	1.837736	0.499895	0.002943
C57	C	1.340183	-0.000110	0.400606
C58	C	1.840183	0.499890	0.900606
C59	C	1.343262	-0.000124	0.272221
C60	C	1.843262	0.499876	0.772221
H61	H	1.383402	-0.593587	-0.353157
H62	H	1.883402	-0.093587	0.146843
C63	C	1.512171	-0.764437	0.007840
C64	C	2.012171	-0.264437	0.507840
C65	C	1.513510	-0.608266	0.007934
C66	C	2.013510	-0.108266	0.507934
H67	H	1.568701	-0.800555	0.064292
H68	H	2.068701	-0.300555	0.564292
H69	H	1.527596	-0.800005	-0.064903
H70	H	2.027596	-0.300005	0.435097
H71	H	1.439309	-0.798664	0.024085
H72	H	1.939309	-0.298664	0.524085
H73	H	1.586370	-0.574038	-0.008320
H74	H	2.086370	-0.074038	0.491680
H75	H	1.498093	-0.572684	0.080694
H76	H	1.998093	-0.072684	0.580694
C77	C	1.185716	-0.441437	0.079818
C78	C	1.685716	0.058563	0.579818
C79	C	1.293335	-0.391315	0.056296
C80	C	1.793335	0.108685	0.556296
H81	H	1.169761	-0.404959	0.152162
H82	H	1.669761	0.095041	0.652162
H83	H	1.184851	-0.547368	0.080486
H84	H	1.684851	-0.047368	0.580486
H85	H	1.129546	-0.405950	0.022766
H86	H	1.629546	0.094050	0.522766
H87	H	1.349506	-0.426810	0.113344
H88	H	1.849506	0.073190	0.613344
H89	H	1.294209	-0.285361	0.055639
H90	H	1.794209	0.214639	0.555639
H91	H	1.531321	-0.406891	-0.205544
H92	H	2.031321	0.093109	0.294456
C93	C	1.038074	-0.558708	-0.199082
C94	C	1.538074	-0.058708	0.300918
C95	C	1.121845	-0.608845	-0.115102
C96	C	1.621845	-0.108845	0.384898
H97	H	0.965709	-0.595105	-0.183124
H98	H	1.465709	-0.095105	0.316876
H99	H	1.054656	-0.594251	-0.271468
H100	H	1.554656	-0.094251	0.228532
H101	H	1.037034	-0.452762	-0.199594
H102	H	1.537034	0.047238	0.300406
H103	H	1.122891	-0.714792	-0.114596
H104	H	1.622891	-0.214792	0.385404
H105	H	1.105259	-0.573310	-0.042698
H106	H	1.605259	-0.073310	0.457302
H107	H	1.193909	-0.406860	-0.311436
H108	H	1.693909	0.093140	0.188564
