data_functionalizedCrystal
_audit_creation_method	'MofGen! by Chris Wilmer'
_symmetry_space_group_name_H-M	'P1'
_symmetry_Int_Tables_number	1
_symmetry_cell_setting	triclinic
loop_
_symmetry_equiv_pos_as_xyz
  x,y,z
_cell_length_a	16.109318
_cell_length_b	17.019294
_cell_length_c	14.586319
_cell_angle_alpha	93.883317
_cell_angle_beta	90.000556
_cell_angle_gamma	83.431560
loop_
_atom_site_label
_atom_site_type_symbol
_atom_site_fract_x
_atom_site_fract_y
_atom_site_fract_z
O1	O	1.103031	0.101460	0.084173
O2	O	1.603031	0.601460	0.584173
O3	O	0.860960	0.114065	0.085186
O4	O	1.360960	0.614065	0.585186
O5	O	0.988748	-0.007072	0.075609
O6	O	1.488748	0.492928	0.575609
O7	O	0.975243	0.222597	0.093750
O8	O	1.475243	0.722597	0.593750
O9	O	0.988738	-0.007074	-0.076872
O10	O	1.488738	0.492926	0.423128
O11	O	0.860950	0.114062	-0.067295
O12	O	1.360950	0.614062	0.432705
O13	O	1.103021	0.101458	-0.068308
O14	O	1.603021	0.601458	0.431692
Cu15	Cu	0.981984	0.107759	-0.081724
Cu16	Cu	1.481984	0.607759	0.418276
Cu17	Cu	0.981996	0.107763	0.098602
Cu18	Cu	1.481996	0.607763	0.598602
O19	O	0.975232	0.222594	-0.058731
O20	O	1.475232	0.722594	0.441269
C21	C	0.829981	0.113550	0.008907
C22	C	1.329981	0.613550	0.508907
C23	C	0.737687	0.112012	0.008793
C24	C	1.237687	0.612012	0.508793
C25	C	0.438624	0.107047	0.091502
C26	C	0.938624	0.607047	0.591502
C27	C	0.525344	0.108487	0.091621
C28	C	1.025344	0.608487	0.591621
C29	C	0.525351	0.108473	-0.074623
C30	C	1.025351	0.608473	0.425377
C31	C	0.438634	0.107027	-0.074742
C32	C	0.938634	0.607027	0.425258
C33	C	0.395272	0.106319	0.008324
C34	C	0.895272	0.606319	0.508324
C35	C	0.568709	0.109204	0.008562
C36	C	1.068709	0.609204	0.508562
C37	C	0.662735	0.110765	0.008691
C38	C	1.162735	0.610765	0.508691
C39	C	0.301240	0.104756	0.008195
C40	C	0.801240	0.604756	0.508195
C41	C	0.988231	-0.036462	-0.002951
C42	C	1.488231	0.463538	0.497049
C43	C	0.986695	-0.124032	-0.009862
C44	C	1.486695	0.375968	0.490138
C45	C	0.985981	-0.165167	0.070008
C46	C	1.485981	0.334833	0.570008
C47	C	0.984532	-0.247448	0.063512
C48	C	1.484532	0.252552	0.563512
C49	C	0.983803	-0.288593	-0.022856
C50	C	1.483803	0.211407	0.477144
C51	C	0.984515	-0.247452	-0.102732
C52	C	1.484515	0.252548	0.397268
C53	C	0.985958	-0.165172	-0.096234
C54	C	1.485958	0.334828	0.403766
C55	C	0.979441	-0.537025	-0.046631
C56	C	1.479441	-0.037025	0.453369
C57	C	0.978000	-0.619311	-0.053122
C58	C	1.478000	-0.119311	0.446878
C59	C	0.978016	-0.619300	0.113122
C60	C	1.478016	-0.119300	0.613122
C61	C	0.979463	-0.537019	0.119611
C62	C	1.479463	-0.037019	0.619611
C63	C	0.980171	-0.495885	0.039735
C64	C	1.480171	0.004115	0.539735
C65	C	0.982325	-0.372697	-0.029498
C66	C	1.482325	0.127303	0.470502
C67	C	0.981643	-0.411782	0.046379
C68	C	1.481643	0.088218	0.546379
C69	C	1.134000	0.101972	0.007972
C70	C	1.634000	0.601972	0.507972
C71	C	1.226293	0.103510	0.008093
C72	C	1.726293	0.603510	0.508093
C73	C	0.975750	0.251984	0.019831
C74	C	1.475750	0.751984	0.519831
C75	C	0.977286	0.339554	0.026748
C76	C	1.477286	0.839554	0.526748
N77	N	0.981982	0.107756	-0.208556
N78	N	1.481982	0.607756	0.291444
C79	C	1.038589	0.054135	-0.543790
C80	C	1.538589	0.554135	-0.043790
C81	C	1.038587	0.054135	-0.447808
C82	C	1.538587	0.554135	0.052192
C83	C	0.925396	0.161387	-0.439339
C84	C	1.425396	0.661387	0.060661
C85	C	0.925403	0.161389	-0.535319
C86	C	1.425403	0.661389	-0.035319
C87	C	0.981998	0.107759	-0.587542
C88	C	1.481998	0.607759	-0.087542
C89	C	0.981989	0.107757	-0.395581
C90	C	1.481989	0.607757	0.104419
C91	C	0.981987	0.107758	-0.291514
C92	C	1.481987	0.607758	0.208486
C93	C	0.982002	0.107759	-0.691615
C94	C	1.482002	0.607759	-0.191615
N95	N	0.982005	0.107759	0.225434
N96	N	1.482005	0.607759	0.725434
H97	H	0.986578	-0.131673	0.140338
H98	H	1.486578	0.368327	0.640338
H99	H	0.403321	0.106469	0.159139
H100	H	0.903321	0.606469	0.659139
C101	C	0.863138	0.220371	-0.381886
C102	C	1.363138	0.720371	0.118114
N103	N	0.816241	0.264796	-0.338613
N104	N	1.316241	0.764796	0.161387
H105	H	0.560667	0.109051	-0.142252
H106	H	1.060667	0.609051	0.357748
H107	H	0.403336	0.106433	-0.142479
H108	H	0.903336	0.606433	0.357521
H109	H	1.084673	0.010467	-0.586308
H110	H	1.584673	0.510467	-0.086308
H111	H	0.983954	-0.280936	0.128551
H112	H	1.483954	0.219064	0.628551
H113	H	0.986528	-0.131680	-0.161273
H114	H	1.486528	0.368320	0.338727
C115	C	0.983707	-0.292715	-0.197737
C116	C	1.483707	0.207285	0.302263
N117	N	0.983101	-0.326805	-0.269297
N118	N	1.483101	0.173195	0.230703
H119	H	0.977403	-0.652809	-0.123456
H120	H	1.477403	-0.152809	0.376544
H121	H	0.980058	-0.503525	0.189941
H122	H	1.480058	-0.003525	0.689941
C123	C	0.977228	-0.664553	0.200979
C124	C	1.477228	-0.164553	0.700979
N125	N	0.976630	-0.698637	0.267157
N126	N	1.476630	-0.198637	0.767157
H127	H	0.980033	-0.503546	-0.111672
H128	H	1.480033	-0.003546	0.388328
H129	H	0.982231	-0.378277	0.116698
H130	H	1.482231	0.121723	0.616698
C131	C	0.573027	0.109286	0.183124
C132	C	1.073027	0.609286	0.683124
N133	N	0.608942	0.109886	0.252047
N134	N	1.108942	0.609886	0.752047
H135	H	0.981734	-0.406208	-0.099818
H136	H	1.481734	0.093792	0.400182
H137	H	1.084669	0.010471	-0.412188
H138	H	1.584669	0.510471	0.087812
C139	C	0.863144	0.220382	-0.583448
C140	C	1.363144	0.720382	-0.083448
N141	N	0.816253	0.264814	-0.619700
N142	N	1.316253	0.764814	-0.119700
