data_functionalizedCrystal
_audit_creation_method	'MofGen! by Chris Wilmer'
_symmetry_space_group_name_H-M	'P1'
_symmetry_Int_Tables_number	1
_symmetry_cell_setting	triclinic
loop_
_symmetry_equiv_pos_as_xyz
  x,y,z
_cell_length_a	16.959455
_cell_length_b	16.959453
_cell_length_c	16.959447
_cell_angle_alpha	89.968853
_cell_angle_beta	89.977004
_cell_angle_gamma	90.017008
loop_
_atom_site_label
_atom_site_type_symbol
_atom_site_fract_x
_atom_site_fract_y
_atom_site_fract_z
Zn1	Zn	1.208405	-0.314728	-0.447032
Zn2	Zn	1.708405	0.185272	0.052968
Zn3	Zn	1.208321	-0.446921	-0.314852
Zn4	Zn	1.708321	0.053079	0.185148
Zn5	Zn	1.076227	-0.314753	-0.314856
Zn6	Zn	1.576227	0.185247	0.185144
Zn7	Zn	1.076198	-0.446862	-0.446977
Zn8	Zn	1.576198	0.053138	0.053023
O9	O	1.142288	-0.380816	-0.380929
O10	O	1.642288	0.119184	0.119071
O11	O	1.319005	-0.332278	-0.429520
O12	O	1.819005	0.167722	0.070480
O13	O	1.190776	-0.429424	-0.204242
O14	O	1.690776	0.070576	0.295758
O15	O	1.093808	-0.204139	-0.332414
O16	O	1.593808	0.295861	0.167586
O17	O	1.318943	-0.429399	-0.332408
O18	O	1.818943	0.070601	0.167592
O19	O	1.190918	-0.204121	-0.429524
O20	O	1.690918	0.295879	0.070476
O21	O	1.093727	-0.332321	-0.204244
O22	O	1.593727	0.167679	0.295756
O23	O	0.965612	-0.332264	-0.332360
O24	O	1.465612	0.167736	0.167640
O25	O	1.093758	-0.429299	-0.557595
O26	O	1.593758	0.070701	-0.057595
O27	O	0.965591	-0.429323	-0.429429
O28	O	1.465591	0.070677	0.070571
O29	O	1.190890	-0.332221	-0.557636
O30	O	1.690890	0.167779	-0.057636
O31	O	1.190748	-0.557524	-0.332354
O32	O	1.690748	-0.057524	0.167646
O33	O	1.093677	-0.557480	-0.429425
O34	O	1.593677	-0.057480	0.070575
C35	C	0.936922	-0.380790	-0.380889
C36	C	1.436922	0.119210	0.119111
C37	C	0.849065	-0.380798	-0.380891
C38	C	1.349065	0.119202	0.119109
C39	C	0.477547	-0.431337	-0.330337
C40	C	0.977547	0.068663	0.169663
C41	C	0.477632	-0.330361	-0.431617
C42	C	0.977632	0.169639	0.068383
C43	C	0.560178	-0.330348	-0.431598
C44	C	1.060178	0.169652	0.068402
C45	C	0.601412	-0.380831	-0.380948
C46	C	1.101412	0.119169	0.119052
C47	C	0.560100	-0.431327	-0.330318
C48	C	1.060100	0.068673	0.169682
C49	C	0.601496	-0.279858	-0.482234
C50	C	1.101496	0.220142	0.017766
C51	C	0.684047	-0.279843	-0.482217
C52	C	1.184047	0.220157	0.017783
C53	C	0.725282	-0.330323	-0.431563
C54	C	1.225282	0.169677	0.068437
C55	C	0.683966	-0.380821	-0.380929
C56	C	1.183966	0.119179	0.119071
C57	C	0.725200	-0.431304	-0.330280
C58	C	1.225200	0.068696	0.169720
C59	C	0.683885	-0.481799	-0.279642
C60	C	1.183885	0.018201	0.220358
C61	C	0.601336	-0.481807	-0.279663
C62	C	1.101336	0.018193	0.220337
C63	C	0.807831	-0.330315	-0.431541
C64	C	1.307831	0.169685	0.068459
C65	C	0.807753	-0.431294	-0.330260
C66	C	1.307753	0.068706	0.169740
C67	C	1.142222	-0.586182	-0.380900
C68	C	1.642222	-0.086182	0.119100
C69	C	1.142266	-0.674039	-0.380914
C70	C	1.642266	-0.174039	0.119086
C71	C	1.192918	-1.045446	-0.431589
C72	C	1.692918	-0.545446	0.068411
C73	C	1.091879	-1.045582	-0.330386
C74	C	1.591879	-0.545582	0.169614
C75	C	1.091849	-0.963037	-0.330368
C76	C	1.591849	-0.463037	0.169632
C77	C	1.142354	-0.921692	-0.380962
C78	C	1.642354	-0.421692	0.119038
C79	C	1.192888	-0.962893	-0.431575
C80	C	1.692888	-0.462893	0.068425
C81	C	1.041310	-0.921829	-0.279762
C82	C	1.541310	-0.421829	0.220238
C83	C	1.041278	-0.839278	-0.279743
C84	C	1.541278	-0.339278	0.220257
C85	C	1.091788	-0.797932	-0.330334
C86	C	1.591788	-0.297932	0.169666
C87	C	1.142325	-0.839138	-0.380947
C88	C	1.642325	-0.339138	0.119053
C89	C	1.192830	-0.797793	-0.431541
C90	C	1.692830	-0.297793	0.068459
C91	C	1.243371	-0.838998	-0.482152
C92	C	1.743371	-0.338998	0.017848
C93	C	1.243398	-0.921546	-0.482165
C94	C	1.743398	-0.421546	0.017835
C95	C	1.091761	-0.715384	-0.330320
C96	C	1.591761	-0.215384	0.169680
C97	C	1.192800	-0.715240	-0.431527
C98	C	1.692800	-0.215240	0.068473
C99	C	1.348456	-0.380842	-0.380970
C100	C	1.848456	0.119158	0.119030
C101	C	1.436313	-0.380854	-0.380987
C102	C	1.936313	0.119146	0.119013
C103	C	1.142330	-0.380750	-0.587097
C104	C	1.642330	0.119250	-0.087097
C105	C	1.142348	-0.380722	-0.674954
C106	C	1.642348	0.119278	-0.174954
C107	C	1.142376	-0.174648	-0.380976
C108	C	1.642376	0.325352	0.119024
C109	C	1.142413	-0.086791	-0.380995
C110	C	1.642413	0.413209	0.119005
C111	C	1.091889	-0.330082	-1.046438
C112	C	1.591889	0.169918	-0.546438
C113	C	1.192947	-0.431196	-1.046422
C114	C	1.692947	0.068804	-0.546422
C115	C	1.192933	-0.431214	-0.963876
C116	C	1.692933	0.068786	-0.463876
C117	C	1.142396	-0.380667	-0.922607
C118	C	1.642396	0.119333	-0.422607
C119	C	1.091872	-0.330100	-0.963884
C120	C	1.591872	0.169900	-0.463884
C121	C	1.243450	-0.481785	-0.922593
C122	C	1.743450	0.018215	-0.422593
C123	C	1.243438	-0.481807	-0.840042
C124	C	1.743438	0.018193	-0.340042
C125	C	1.192904	-0.431254	-0.798772
C126	C	1.692904	0.068746	-0.298772
C127	C	1.142379	-0.380685	-0.840054
C128	C	1.642379	0.119315	-0.340054
C129	C	1.091841	-0.330137	-0.798785
C130	C	1.591841	0.169863	-0.298785
C131	C	1.041320	-0.279564	-0.840065
C132	C	1.541320	0.220436	-0.340065
C133	C	1.041338	-0.279548	-0.922614
C134	C	1.541338	0.220452	-0.422614
C135	C	1.192886	-0.431270	-0.716223
C136	C	1.692886	0.068730	-0.216223
C137	C	1.091824	-0.330156	-0.716231
C138	C	1.591824	0.169844	-0.216231
C139	C	1.142291	-0.380824	-0.175563
C140	C	1.642291	0.119176	0.324437
C141	C	1.142426	-0.380630	-0.087707
C142	C	1.642426	0.119370	0.412293
H143	H	0.443904	-0.472446	-0.289107
H144	H	0.943904	0.027554	0.210893
H145	H	1.234070	-1.078999	-0.472793
H146	H	1.734070	-0.578999	0.027207
O147	O	0.433164	-0.275907	-0.486240
O148	O	0.933164	0.224093	0.013760
H149	H	0.368822	-0.284392	-0.477743
H150	H	0.868822	0.215608	0.022257
O151	O	0.557020	-0.225418	-0.536863
O152	O	1.057020	0.274582	-0.036863
H153	H	0.599615	-0.190312	-0.572077
H154	H	1.099615	0.309688	-0.072077
H155	H	1.050756	-1.079250	-0.289198
H156	H	1.550756	-0.579250	0.210802
O157	O	1.037413	-0.275521	-1.090952
O158	O	1.537413	0.224479	-0.590952
H159	H	1.045915	-0.283992	-1.155288
H160	H	1.545915	0.216008	-0.655288
H161	H	0.717679	-0.238727	-0.523449
H162	H	1.217679	0.261273	-0.023449
H163	H	0.717468	-0.522906	-0.238407
H164	H	1.217468	-0.022906	0.261593
H165	H	1.000169	-0.238411	-0.806453
H166	H	1.500169	0.261589	-0.306453
O167	O	0.986852	-0.966418	-0.225181
O168	O	1.486852	-0.466418	0.274819
H169	H	0.995377	-1.030741	-0.233683
H170	H	1.495377	-0.530741	0.266317
H171	H	1.000126	-0.805735	-0.238533
H172	H	1.500126	-0.305735	0.261467
H173	H	1.000205	-0.238375	-0.956231
H174	H	1.500205	0.261625	-0.456231
O175	O	0.556778	-0.536268	-0.225052
O176	O	1.056778	-0.036268	0.274948
H177	H	0.492450	-0.527799	-0.233582
H178	H	0.992450	-0.027799	0.266418
O179	O	1.297894	-0.965985	-0.536763
O180	O	1.797894	-0.465985	-0.036763
H181	H	1.289418	-1.030332	-0.528282
H182	H	1.789418	-0.530332	-0.028282
H183	H	1.234025	-0.472441	-0.682616
H184	H	1.734025	0.027559	-0.182616
O185	O	0.852395	-0.275858	-0.486146
O186	O	1.352395	0.224142	0.013854
H187	H	0.809854	-0.240754	-0.521367
H188	H	1.309854	0.259246	-0.021367
H189	H	1.284489	-0.805325	-0.523350
H190	H	1.784489	-0.305325	-0.023350
O191	O	1.297952	-0.536302	-0.967107
O192	O	1.797952	-0.036302	-0.467107
H193	H	1.333074	-0.571476	-0.924536
H194	H	1.833074	-0.071476	-0.424536
O195	O	1.247283	-0.670646	-0.486088
O196	O	1.747283	-0.170646	0.013912
H197	H	1.282429	-0.713168	-0.521279
H198	H	1.782429	-0.213168	-0.021279
O199	O	1.037260	-0.670939	-0.275738
O200	O	1.537260	-0.170939	0.224262
H201	H	1.002148	-0.713557	-0.240557
H202	H	1.502148	-0.213557	0.259443
O203	O	1.037320	-0.275631	-0.671719
O204	O	1.537320	0.224369	-0.171719
H205	H	1.002194	-0.240467	-0.714294
H206	H	1.502194	0.259533	-0.214294
H207	H	1.284575	-0.522987	-0.806439
H208	H	1.784575	-0.022987	-0.306439
O209	O	0.852228	-0.485743	-0.275628
O210	O	1.352228	0.014257	0.224372
H211	H	0.809629	-0.520856	-0.240427
H212	H	1.309629	-0.020856	0.259573
O213	O	1.247454	-0.485714	-1.090927
O214	O	1.747454	0.014286	-0.590927
H215	H	1.238980	-0.477203	-1.155264
H216	H	1.738980	0.022797	-0.655264
