data_functionalizedCrystal
_audit_creation_method	'MofGen! by Chris Wilmer'
_symmetry_space_group_name_H-M	'P1'
_symmetry_Int_Tables_number	1
_symmetry_cell_setting	triclinic
loop_
_symmetry_equiv_pos_as_xyz
  x,y,z
_cell_length_a	20.919287
_cell_length_b	19.376997
_cell_length_c	19.377574
_cell_angle_alpha	75.065037
_cell_angle_beta	101.335081
_cell_angle_gamma	67.781875
loop_
_atom_site_label
_atom_site_type_symbol
_atom_site_fract_x
_atom_site_fract_y
_atom_site_fract_z
Zr1	Zr	0.765298	0.619962	0.019748
O2	O	0.672504	0.738123	-0.057824
O3	O	0.770137	0.501800	0.023796
O4	O	0.770147	0.619962	-0.094362
O5	O	0.699341	0.619961	0.175985
O6	O	0.874024	0.619963	-0.100738
O7	O	0.672494	0.619961	0.060334
O8	O	0.874007	0.408593	0.110624
O9	O	0.699358	0.831331	-0.035377
O10	O	0.878245	0.550402	0.044604
O11	O	0.820758	0.550401	0.135671
O12	O	0.820770	0.689522	-0.003444
O13	O	0.763283	0.689521	0.087623
Zr14	Zr	0.973788	0.619961	0.194029
Zr15	Zr	0.930970	0.619962	0.009579
Zr16	Zr	0.808116	0.619961	0.204198
Zr17	Zr	0.808128	0.768617	0.055547
Zr18	Zr	0.930958	0.471306	0.158230
O19	O	0.968949	0.738123	0.189982
O20	O	0.908068	0.738124	-0.072283
O21	O	0.733384	0.738122	0.204441
O22	O	1.066582	0.501800	0.271601
O23	O	1.005702	0.501801	0.009337
O24	O	0.831018	0.501799	0.286060
O25	O	1.039745	0.619963	0.037792
O26	O	0.968939	0.619961	0.308139
O27	O	0.865062	0.619960	0.314515
O28	O	1.066592	0.619962	0.153443
O29	O	0.831045	0.831331	-0.043460
O30	O	0.908041	0.408592	0.257238
O31	O	1.039728	0.408592	0.249155
O32	O	1.005694	0.408593	0.102541
O33	O	0.733392	0.831330	0.111236
O34	O	0.865079	0.831331	0.103153
O35	O	0.918316	0.550401	0.217222
O36	O	0.975803	0.550402	0.126154
O37	O	0.918328	0.689522	0.078106
O38	O	0.860841	0.689521	0.169174
C39	C	0.815970	0.434016	0.062109
C40	C	0.797788	0.370908	0.046912
C41	C	0.714942	0.333305	-0.022341
C42	C	0.732033	0.392599	-0.008055
C43	C	0.846478	0.289909	0.087611
C44	C	0.829398	0.230605	0.073330
C45	C	0.763628	0.252310	0.018354
C46	C	0.878085	0.149610	0.114026
C47	C	0.861004	0.090312	0.099748
C48	C	0.795236	0.112008	0.044776
C49	C	0.746547	0.193012	0.004077
C50	C	0.943852	0.127907	0.169006
C51	C	0.992539	0.046912	0.209701
C52	C	0.975460	-0.012388	0.195420
C53	C	0.909693	0.009308	0.140448
C54	C	1.024149	-0.093392	0.236119
C55	C	1.007068	-0.152690	0.221842
C56	C	0.892612	-0.049990	0.126170
C57	C	0.662313	0.619961	0.119609
C58	C	0.591981	0.619960	0.123926
C59	C	0.544148	0.619963	0.062239
C60	C	0.478066	0.619959	0.066299
C61	C	0.459815	0.619958	0.132043
C62	C	0.507654	0.619953	0.193735
C63	C	0.573737	0.619951	0.189677
C64	C	0.261028	0.619956	0.147485
C65	C	0.194938	0.619960	0.151538
C66	C	0.165355	0.619965	0.024102
C67	C	0.231439	0.619968	0.020048
C68	C	0.279274	0.619959	0.081741
C69	C	0.392267	0.619956	0.136193
C70	C	0.346822	0.619955	0.077592
C71	C	1.076773	0.619962	0.094169
C72	C	1.147105	0.619963	0.089852
C73	C	0.815985	0.619963	-0.123830
C74	C	0.797808	0.619963	-0.202134
C75	C	0.923116	0.805907	0.151668
C76	C	0.941298	0.869015	0.166866
C77	C	1.024137	0.619960	-0.477248
C78	C	1.007037	0.619962	-0.550825
C79	C	0.892591	0.619961	-0.543782
C80	C	0.909680	0.619963	-0.470204
C81	C	0.975455	0.619962	-0.436942
C82	C	0.860997	0.619965	-0.429898
C83	C	0.878087	0.619963	-0.356325
C84	C	0.943859	0.619960	-0.323057
C85	C	0.992544	0.619960	-0.363369
C86	C	0.795225	0.619961	-0.463159
C87	C	0.746542	0.619963	-0.422854
C88	C	0.763629	0.619967	-0.349281
C89	C	0.829401	0.619963	-0.316013
C90	C	0.714944	0.619966	-0.308969
C91	C	0.732033	0.619965	-0.235396
C92	C	0.846491	0.619961	-0.242440
C93	C	0.923101	0.619960	0.337608
C94	C	0.941278	0.619960	0.415912
C95	C	1.023200	0.434017	0.049390
C96	C	1.075350	0.370909	0.029875
C97	C	0.869528	0.434015	0.292828
C98	C	0.869522	0.370907	0.355935
C99	C	1.076758	0.434016	0.280109
C100	C	1.147085	0.370908	0.338898
C101	C	0.662328	0.805907	-0.066331
C102	C	0.592001	0.869015	-0.125120
C103	C	0.715886	0.805906	0.164388
C104	C	0.663736	0.869014	0.183903
C105	C	0.869558	0.805908	-0.079051
C106	C	0.869564	0.869016	-0.142157
C107	C	1.048914	0.341273	-0.021866
C108	C	1.097907	0.281985	-0.040217
C109	C	1.173334	0.252329	-0.006822
C110	C	1.199771	0.281971	0.044921
C111	C	1.150779	0.341263	0.063267
C112	C	0.920446	0.341270	0.428146
C113	C	0.920442	0.281981	0.487451
C114	C	0.869518	0.252326	0.474540
C115	C	0.818589	0.281968	0.402322
C116	C	0.818590	0.341260	0.343020
C117	C	1.210126	0.341272	0.318969
C118	C	1.276212	0.281983	0.374202
C119	C	1.279255	0.252327	0.449363
C120	C	1.216208	0.281969	0.469292
C121	C	1.150124	0.341261	0.414060
C122	C	0.528962	0.898659	-0.105190
C123	C	0.462881	0.957966	-0.160419
C124	C	0.459839	0.987624	-0.235579
C125	C	0.522885	0.957979	-0.255508
C126	C	0.588966	0.898677	-0.200279
C127	C	0.690172	0.898656	0.235637
C128	C	0.641179	0.957961	0.253972
C129	C	0.565752	0.987618	0.220575
C130	C	0.539315	0.957974	0.168834
C131	C	0.588307	0.898674	0.150496
C132	C	0.920497	0.898653	-0.129224
C133	C	0.920516	0.957942	-0.188515
C134	C	0.869598	0.987598	-0.260737
C135	C	0.818663	0.957956	-0.273670
C136	C	0.818647	0.898663	-0.214381
H137	H	0.839060	-0.032314	0.081396
H138	H	1.261190	0.257817	0.072107
H139	H	0.961916	0.365409	0.438673
H140	H	0.777123	0.365382	0.284223
H141	H	0.961917	0.257854	0.546249
H142	H	0.411553	0.982093	-0.144178
H143	H	0.777168	0.874540	-0.224921
H144	H	0.961961	0.874517	-0.070422
H145	H	0.439120	0.619960	0.016070
H146	H	0.957774	0.619954	-0.263147
H147	H	0.531425	0.874514	-0.043996
H148	H	1.076368	0.257857	-0.082349
H149	H	1.046087	0.029250	0.254464
H150	H	1.218697	0.257815	0.530494
H151	H	0.869525	0.204047	0.522834
H152	H	0.640291	0.874542	-0.216517
H153	H	1.077695	-0.111052	0.280886
H154	H	0.492793	0.619947	0.247268
H155	H	0.406027	1.035912	-0.280543
H156	H	0.961994	0.982071	-0.177970
H157	H	0.839038	0.619959	-0.570871
H158	H	0.525867	1.035904	0.235513
H159	H	1.098796	0.365383	0.430296
H160	H	0.692391	0.619965	-0.202578
H161	H	0.869619	1.035878	-0.309007
H162	H	1.327541	0.257855	0.357962
H163	H	0.126403	0.619971	-0.026125
H164	H	0.781329	0.063722	0.033155
H165	H	0.520399	0.982135	-0.316710
H166	H	1.046713	-0.218641	0.254982
H167	H	0.777128	0.257814	0.391821
H168	H	1.207661	0.365409	0.257773
H169	H	0.781315	0.619959	-0.523067
H170	H	0.751587	0.874514	0.262841
H171	H	1.333070	0.204048	0.494329
H172	H	0.361686	0.619952	0.024065
H173	H	0.662718	0.982088	0.296104
H174	H	0.559000	0.619969	0.008702
H175	H	1.172314	0.365385	0.105403
H176	H	1.213219	0.204050	-0.021767
H177	H	0.246296	0.619969	-0.033486
H178	H	0.477896	0.982130	0.141647
H179	H	0.377401	0.619957	0.189723
H180	H	0.566772	0.874541	0.108372
H181	H	0.180083	0.619960	0.205078
H182	H	0.661390	0.350981	-0.067115
H183	H	0.692995	0.210687	-0.040697
H184	H	0.692372	0.458552	-0.041183
H185	H	0.900027	0.272247	0.132375
H186	H	0.957753	0.176194	0.180634
H187	H	0.299969	0.619951	0.197717
H188	H	0.612684	0.619948	0.239908
H189	H	1.077695	0.619967	-0.450168
H190	H	0.777207	0.982110	-0.332480
H191	H	0.900048	0.619968	-0.215360
H192	H	1.046101	0.619967	-0.336289
H193	H	0.692989	0.619961	-0.449943
H194	H	0.661393	0.619960	-0.336058
H195	H	1.046687	0.619959	-0.583639
H196	H	0.987499	0.365418	-0.049072
