data_functionalizedCrystal
_audit_creation_method	'MofGen! by Chris Wilmer'
_symmetry_space_group_name_H-M	'P1'
_symmetry_Int_Tables_number	1
_symmetry_cell_setting	triclinic
loop_
_symmetry_equiv_pos_as_xyz
  x,y,z
_cell_length_a	17.699097
_cell_length_b	16.109298
_cell_length_c	14.586319
_cell_angle_alpha	89.994791
_cell_angle_beta	90.009439
_cell_angle_gamma	83.374310
loop_
_atom_site_label
_atom_site_type_symbol
_atom_site_fract_x
_atom_site_fract_y
_atom_site_fract_z
O1	O	1.004221	0.105184	0.076306
O2	O	0.783863	0.118852	0.076289
O3	O	0.900096	-0.009023	0.076304
O4	O	0.887987	0.233059	0.076290
O5	O	0.900082	-0.009016	-0.076176
O6	O	0.783849	0.118859	-0.076192
O7	O	1.004206	0.105192	-0.076175
Cu8	Cu	0.894026	0.112026	-0.090106
Cu9	Cu	0.894043	0.112017	0.090220
O10	O	0.887973	0.233067	-0.076190
C11	C	0.755658	0.118364	0.000047
C12	C	0.671639	0.116889	0.000041
C13	C	0.155915	0.107845	0.083196
C14	C	0.234861	0.109225	0.083192
C15	C	0.274321	0.109921	0.000070
C16	C	0.234831	0.109228	-0.083051
C17	C	0.155887	0.107842	-0.083046
C18	C	0.553203	0.114816	-0.083076
C19	C	0.632152	0.116205	-0.083075
C20	C	0.632177	0.116200	0.083161
C21	C	0.553233	0.114814	0.083167
C22	C	0.513751	0.114116	0.000046
C23	C	0.428149	0.112618	0.000052
C24	C	0.359921	0.111425	0.000063
C25	C	0.899599	-0.039993	0.000068
C26	C	0.898130	-0.132286	0.000078
C27	C	1.032411	0.105680	0.000069
C28	C	1.116431	0.107155	0.000081
C29	C	0.893343	-0.431351	0.083176
C30	C	0.894734	-0.344634	0.083183
C31	C	0.894729	-0.344611	-0.083060
C32	C	0.893344	-0.431328	-0.083066
C33	C	0.892647	-0.474695	0.000055
C34	C	0.895423	-0.301261	0.000067
C35	C	0.896931	-0.207238	0.000074
C36	C	0.891140	-0.568725	0.000049
C37	C	0.888470	0.264037	0.000048
C38	C	0.889939	0.356330	0.000044
N39	N	0.894020	0.112032	-0.216938
C40	C	0.939921	0.162384	-0.451944
C41	C	0.939929	0.162378	-0.547925
C42	C	0.848152	0.061647	-0.547936
C43	C	0.848149	0.061649	-0.451956
C44	C	0.894032	0.112022	-0.403963
C45	C	0.894043	0.112015	-0.595923
C46	C	0.894052	0.112008	-0.699991
C47	C	0.894025	0.112028	-0.299889
N48	N	0.894055	0.112005	0.217052
H49	H	0.521109	0.114252	0.150853
H50	H	0.266965	0.109789	-0.150730
H51	H	0.977298	0.203387	-0.586987
C52	C	0.895497	-0.296959	0.174623
N53	N	0.896073	-0.261051	0.243499
C54	C	0.990401	0.217789	-0.399154
N55	N	1.028426	0.259518	-0.359396
C56	C	0.892575	-0.479009	-0.174510
N57	N	0.891998	-0.514922	-0.243384
H58	H	0.664277	0.116771	-0.150766
C59	C	0.895483	-0.296897	-0.174488
N60	N	0.896047	-0.260959	-0.243354
C61	C	0.278292	0.109974	0.174625
N62	N	0.311005	0.110533	0.243497
H63	H	0.810795	0.020636	-0.587024
C64	C	0.797664	0.006245	-0.399174
N65	N	0.759641	-0.035484	-0.359418
C66	C	0.675616	0.116956	0.174598
N67	N	0.708334	0.117526	0.243465
C68	C	0.112454	0.107086	-0.174479
N69	N	0.079741	0.106514	-0.243350
C70	C	0.112518	0.107079	0.174638
N71	N	0.079833	0.106498	0.243514
H72	H	0.521067	0.114236	-0.150758
H73	H	0.892774	-0.466658	0.150858
