data_functionalizedCrystal
_audit_creation_method	'MofGen! by Chris Wilmer'
_symmetry_space_group_name_H-M	'P1'
_symmetry_Int_Tables_number	1
_symmetry_cell_setting	triclinic
loop_
_symmetry_equiv_pos_as_xyz
  x,y,z
_cell_length_a	14.971486
_cell_length_b	14.586319
_cell_length_c	14.971486
_cell_angle_alpha	89.999606
_cell_angle_beta	96.385871
_cell_angle_gamma	90.000901
loop_
_atom_site_label
_atom_site_type_symbol
_atom_site_fract_x
_atom_site_fract_y
_atom_site_fract_z
O1	O	1.186947	0.076135	-0.116556
O2	O	0.926547	0.076160	-0.130515
O3	O	1.063726	0.076141	0.006664
O4	O	1.049768	0.076155	-0.253736
O5	O	1.063710	-0.076340	0.006656
O6	O	0.926530	-0.076320	-0.130523
O7	O	1.186930	-0.076345	-0.116565
Cu8	Cu	1.056729	-0.090256	-0.123545
Cu9	Cu	1.056749	0.090071	-0.123535
O10	O	1.049751	-0.076326	-0.253744
C11	C	0.893214	-0.000077	-0.129895
C12	C	0.793917	-0.000067	-0.128024
C13	C	0.736692	-0.000064	-0.208614
C14	C	0.643392	-0.000078	-0.206850
C15	C	0.607320	-0.000088	-0.124497
C16	C	0.664552	-0.000094	-0.043902
C17	C	0.757850	-0.000087	-0.045666
C18	C	0.470090	-0.000107	-0.040231
C19	C	0.376786	-0.000113	-0.038466
C20	C	0.355632	-0.000098	-0.201415
C21	C	0.448930	-0.000091	-0.203179
C22	C	0.506156	-0.000095	-0.122584
N23	N	1.056721	-0.217087	-0.123551
C24	C	1.111041	-0.452096	-0.177877
C25	C	1.111050	-0.548077	-0.177870
C26	C	1.002441	-0.548082	-0.069190
C27	C	1.002437	-0.452103	-0.069192
C28	C	1.056736	-0.404112	-0.123541
C29	C	1.056749	-0.596073	-0.123532
C30	C	1.056759	-0.700140	-0.123525
C31	C	1.056727	-0.300038	-0.123547
C32	C	1.220263	-0.000106	-0.117185
C33	C	1.319561	-0.000110	-0.119056
C34	C	1.063094	-0.000099	0.039985
C35	C	1.061223	-0.000098	0.139282
N36	N	1.056763	0.216902	-0.123522
C37	C	1.050384	-0.000084	-0.287065
C38	C	1.052254	-0.000079	-0.386362
C39	C	1.141812	-0.000107	0.196507
C40	C	1.140049	-0.000097	0.289807
C41	C	1.057696	-0.000086	0.325879
C42	C	0.977101	-0.000075	0.268646
C43	C	0.978865	-0.000078	0.175349
C44	C	0.973430	-0.000071	0.463109
C45	C	0.971665	-0.000070	0.556413
C46	C	1.134614	-0.000091	0.577567
C47	C	1.136378	-0.000094	0.484269
C48	C	1.055782	-0.000084	0.427043
H49	H	0.766054	-0.000055	-0.275675
H50	H	0.596802	-0.000074	-0.272474
H51	H	0.516682	-0.000112	0.025399
H52	H	1.155272	-0.587142	-0.222115
O53	O	0.337881	-0.000141	0.050359
H54	H	0.263391	-0.000138	0.038041
O55	O	0.487843	-0.000092	-0.292000
H56	H	0.432377	-0.000103	-0.347747
H57	H	0.635175	-0.000116	0.023152
O58	O	0.293917	-0.000104	-0.288348
H59	H	0.222981	-0.000124	-0.273290
O60	O	1.226977	-0.000113	0.351521
H61	H	1.230091	0.062043	0.394525
O62	O	0.819579	-0.000088	0.041254
H63	H	0.778823	-0.000088	0.098817
O64	O	1.169609	-0.400330	-0.236485
H65	H	1.207378	-0.449825	-0.274260
H66	H	0.907800	-0.000061	0.416517
H67	H	0.958233	-0.587168	-0.024942
H68	H	0.910047	-0.000060	0.298024
H69	H	0.958215	-0.413033	-0.024940
H70	H	1.208874	-0.000122	0.167145
H71	H	1.203437	-0.000109	0.454903
H72	H	1.200238	-0.000096	0.624165
O73	O	0.882844	-0.000042	0.595326
H74	H	0.827097	-0.000019	0.539861
O75	O	0.891945	-0.000079	0.113620
H76	H	0.834382	-0.000081	0.154375
