data_functionalizedCrystal
_audit_creation_method	'MofGen! by Chris Wilmer'
_symmetry_space_group_name_H-M	'P1'
_symmetry_Int_Tables_number	1
_symmetry_cell_setting	triclinic
loop_
_symmetry_equiv_pos_as_xyz
  x,y,z
_cell_length_a	13.897449
_cell_length_b	11.169416
_cell_length_c	11.169406
_cell_angle_alpha	89.956706
_cell_angle_beta	89.966813
_cell_angle_gamma	90.006344
loop_
_atom_site_label
_atom_site_type_symbol
_atom_site_fract_x
_atom_site_fract_y
_atom_site_fract_z
Zn1	Zn	1.474906	-0.477488	-0.678649
Zn2	Zn	1.974906	0.022512	-0.178649
Zn3	Zn	1.474800	-0.678282	-0.477981
Zn4	Zn	1.974800	-0.178282	0.022019
Zn5	Zn	1.313560	-0.477616	-0.477976
Zn6	Zn	1.813560	0.022384	0.022024
Zn7	Zn	1.313612	-0.678132	-0.678619
Zn8	Zn	1.813612	-0.178132	-0.178619
O9	O	1.394220	-0.577879	-0.578306
O10	O	1.894220	-0.077879	-0.078306
O11	O	1.609873	-0.504133	-0.652045
O12	O	2.109873	-0.004133	-0.152045
O13	O	1.453345	-0.651779	-0.310031
O14	O	1.953345	-0.151779	0.189969
O15	O	1.334985	-0.309649	-0.504606
O16	O	1.834985	0.190351	-0.004606
O17	O	1.609796	-0.651655	-0.504616
O18	O	2.109796	-0.151655	-0.004616
O19	O	1.453525	-0.309555	-0.652040
O20	O	1.953525	0.190445	-0.152040
O21	O	1.334883	-0.504351	-0.310027
O22	O	1.834883	-0.004351	0.189973
O23	O	1.178585	-0.504206	-0.504577
O24	O	1.678585	-0.004206	-0.004577
O25	O	1.335074	-0.651400	-0.846573
O26	O	1.835074	-0.151400	-0.346573
O27	O	1.178624	-0.651524	-0.651988
O28	O	1.678624	-0.151524	-0.151988
O29	O	1.453576	-0.503987	-0.846595
O30	O	1.953576	-0.003987	-0.346595
O31	O	1.453396	-0.846212	-0.504586
O32	O	1.953396	-0.346212	-0.004586
O33	O	1.334972	-0.846102	-0.651993
O34	O	1.834972	-0.346102	-0.151993
C35	C	1.143605	-0.577863	-0.578279
C36	C	1.643605	-0.077863	-0.078279
C37	C	1.036391	-0.577885	-0.578296
C38	C	1.536391	-0.077885	-0.078296
C39	C	0.840096	-0.577890	-0.578327
C40	C	1.340096	-0.077890	-0.078327
C41	C	0.949329	-0.577884	-0.578306
C42	C	1.449329	-0.077884	-0.078306
C43	C	1.394204	-0.889704	-0.578313
C44	C	1.894204	-0.389704	-0.078313
C45	C	1.394286	-1.023104	-0.578356
C46	C	1.894286	-0.523104	-0.078356
C47	C	1.394343	-0.577663	-0.891349
C48	C	1.894343	-0.077663	-0.391349
C49	C	1.394395	-0.577570	-1.024749
C50	C	1.894395	-0.077570	-0.524749
C51	C	1.645813	-0.577896	-0.578335
C52	C	2.145813	-0.077896	-0.078335
C53	C	1.753026	-0.577904	-0.578347
C54	C	2.253026	-0.077904	-0.078347
C55	C	1.394261	-0.264837	-0.578326
C56	C	1.894261	0.235163	-0.078326
C57	C	1.394279	-0.131437	-0.578335
C58	C	1.894279	0.368563	-0.078335
C59	C	1.394152	-0.578009	-0.266481
C60	C	1.894152	-0.078009	0.233519
C61	C	1.394287	-0.577763	-0.133082
C62	C	1.894287	-0.077763	0.366918
