data_functionalizedCrystal
_audit_creation_method	'MofGen! by Chris Wilmer'
_symmetry_space_group_name_H-M	'P1'
_symmetry_Int_Tables_number	1
_symmetry_cell_setting	triclinic
loop_
_symmetry_equiv_pos_as_xyz
  x,y,z
_cell_length_a	38.077507
_cell_length_b	38.067005
_cell_length_c	38.067077
_cell_angle_alpha	89.996982
_cell_angle_beta	59.999325
_cell_angle_gamma	60.000154
loop_
_atom_site_label
_atom_site_type_symbol
_atom_site_fract_x
_atom_site_fract_y
_atom_site_fract_z
O1	O	-0.251364	-0.299414	0.010450
O2	O	-0.179450	-0.248330	-0.010400
O3	O	-0.251362	-0.248329	0.061532
O4	O	-0.179451	-0.299415	-0.061482
O5	O	-0.309770	-0.189904	0.061527
O6	O	-0.237857	-0.189905	-0.010405
O7	O	-0.309771	-0.240989	0.010445
Zn8	Zn	-0.283088	-0.206171	0.000020
Zn9	Zn	-0.206133	-0.283148	0.000026
O10	O	-0.237859	-0.240990	-0.061487
C11	C	-0.102951	-0.064615	-0.025245
C12	C	-0.123885	-0.085952	-0.025545
C13	C	-0.039352	-0.128230	-0.025249
C14	C	-0.060383	-0.149470	-0.025549
C15	C	-0.102947	-0.128230	-0.025251
C16	C	-0.060387	-0.085951	-0.025543
C17	C	-0.107950	0.004139	-0.020076
C18	C	-0.131228	0.047583	-0.016814
C19	C	-0.174742	0.069372	-0.015178
C20	C	-0.199985	0.116478	-0.011639
C21	C	-0.194982	0.047721	-0.016808
C22	C	-0.171704	0.004278	-0.020072
C23	C	-0.128190	-0.017511	-0.021704
C24	C	-0.171845	-0.128066	-0.020091
C25	C	-0.195256	-0.148091	-0.016836
C26	C	-0.175157	-0.189984	-0.015205
C27	C	-0.200541	-0.211698	-0.011674
C28	C	-0.131643	-0.211858	-0.016834
C29	C	-0.108231	-0.191835	-0.020091
C30	C	-0.128334	-0.149939	-0.021718
C31	C	0.024220	-0.128065	-0.020086
C32	C	0.064392	-0.148089	-0.016823
C33	C	0.084543	-0.189981	-0.015192
C34	C	0.128102	-0.211695	-0.011658
C35	C	0.064526	-0.211854	-0.016820
C36	C	0.024354	-0.191833	-0.020081
C37	C	0.004203	-0.149938	-0.021714
C38	C	-0.431919	-0.463703	0.031683
C39	C	-0.474480	-0.442368	0.031978
C40	C	-0.431915	-0.400092	0.031677
C41	C	-0.474477	-0.378854	0.031972
C42	C	-0.495511	-0.400092	0.031677
C43	C	-0.410982	-0.442368	0.031978
C44	C	-0.317400	-0.617101	0.020179
C45	C	-0.293989	-0.660541	0.016926
C46	C	-0.314087	-0.682334	0.015294
C47	C	-0.288700	-0.729438	0.011759
C48	C	-0.357599	-0.660682	0.016917
C49	C	-0.381010	-0.617243	0.020175
C50	C	-0.360909	-0.595452	0.021806
C51	C	-0.637355	-0.361250	0.020158
C52	C	-0.677528	-0.341229	0.016900
C53	C	-0.697679	-0.299337	0.015260
C54	C	-0.741232	-0.277628	0.011721
C55	C	-0.677655	-0.277465	0.016883
C56	C	-0.637489	-0.297483	0.020148
C57	C	-0.617339	-0.339380	0.021783
C58	C	-0.317388	-0.361247	0.020156
C59	C	-0.293970	-0.341227	0.016892
C60	C	-0.314064	-0.299333	0.015254
C61	C	-0.288674	-0.277624	0.011714
C62	C	-0.357573	-0.277463	0.016876
C63	C	-0.380987	-0.297486	0.020138
C64	C	-0.360893	-0.339377	0.021782
C65	C	-0.386296	-0.548350	0.025335
C66	C	-0.406532	-0.510805	0.028150
C67	C	-0.406525	-0.378385	0.028138
C68	C	-0.386287	-0.361082	0.025319
C69	C	-0.539064	-0.378386	0.028139
C70	C	-0.573782	-0.361084	0.025320
C71	C	-0.057321	-0.400364	-0.406363
C72	C	-0.014760	-0.442640	-0.427599
C73	C	-0.057321	-0.400365	-0.342750
C74	C	-0.014760	-0.442641	-0.364083
C75	C	0.006272	-0.463976	-0.406359
C76	C	-0.078256	-0.379126	-0.364087
C77	C	-0.171844	-0.297325	-0.445213
C78	C	-0.195256	-0.277162	-0.465237
C79	C	-0.175161	-0.298898	-0.507130
C80	C	-0.200549	-0.277041	-0.528840
C81	C	-0.131649	-0.340797	-0.529000
C82	C	-0.108236	-0.360955	-0.508978
C83	C	-0.128335	-0.339217	-0.467083
C84	C	0.148111	-0.617374	-0.509391
C85	C	0.188284	-0.660815	-0.529552
C86	C	0.208436	-0.682609	-0.507815
C87	C	0.251988	-0.729711	-0.529668
C88	C	0.188414	-0.660957	-0.465917
C89	C	0.148249	-0.617516	-0.445760
C90	C	0.128097	-0.595727	-0.467501
C91	C	-0.171842	-0.297327	-0.189354
C92	C	-0.195258	-0.277166	-0.145912
C93	C	-0.175162	-0.298902	-0.124118
C94	C	-0.200550	-0.277046	-0.077014
C95	C	-0.131654	-0.340800	-0.145767
C96	C	-0.108241	-0.360959	-0.189208
C97	C	-0.128337	-0.339217	-0.211000
C98	C	-0.102947	-0.361080	-0.445375
C99	C	-0.082710	-0.378505	-0.428071
C100	C	-0.082709	-0.378506	-0.295648
C101	C	-0.102946	-0.361081	-0.258103
C102	C	0.049824	-0.511078	-0.428216
C103	C	0.084541	-0.548623	-0.445639
O104	O	0.244509	-0.240993	0.010453
O105	O	0.142363	-0.189902	-0.010389
O106	O	0.142367	-0.189914	0.061540
O107	O	0.244504	-0.240981	-0.061475
O108	O	0.142370	-0.248342	0.061533
O109	O	0.142366	-0.248331	-0.010395
O110	O	0.244512	-0.299421	0.010447
Zn111	Zn	0.193439	-0.283153	0.000025
Zn112	Zn	0.193435	-0.206171	0.000033
O113	O	0.244507	-0.299410	-0.061482
O114	O	-0.309796	0.255030	0.010489
O115	O	-0.237879	0.132013	-0.010366
O116	O	-0.309789	0.203934	0.061568
O117	O	-0.237886	0.183108	-0.061445
O118	O	-0.251380	0.203935	0.061569
O119	O	-0.179470	0.132013	-0.010365
O120	O	-0.251386	0.255030	0.010491
Zn121	Zn	-0.206154	0.193522	0.000063
Zn122	Zn	-0.283111	0.193521	0.000061
O123	O	-0.179476	0.183109	-0.061443
O124	O	0.368384	-0.868258	-0.558375
O125	O	0.266246	-0.745244	-0.507296
O126	O	0.266242	-0.817174	-0.507291
O127	O	0.368388	-0.796329	-0.558380
O128	O	0.266241	-0.817172	-0.565717
O129	O	0.266245	-0.745243	-0.565722
O130	O	0.368383	-0.868257	-0.616801
Zn131	Zn	0.317314	-0.806750	-0.600538
Zn132	Zn	0.317315	-0.806752	-0.523559
O133	O	0.368386	-0.796328	-0.616806
O134	O	-0.251363	-0.248328	-0.616562
O135	O	-0.179454	-0.299412	-0.565472
O136	O	-0.251366	-0.299412	-0.565472
O137	O	-0.179451	-0.248328	-0.616563
O138	O	-0.309774	-0.240987	-0.507049
O139	O	-0.237863	-0.240987	-0.507050
O140	O	-0.309771	-0.189903	-0.558139
Zn141	Zn	-0.283091	-0.206168	-0.523319
Zn142	Zn	-0.206135	-0.283147	-0.600293
O143	O	-0.237860	-0.189902	-0.558140
C144	C	-0.449870	-0.064625	0.321758
C145	C	-0.428838	-0.085960	0.342998
C146	C	-0.386277	-0.128237	0.258149
C147	C	-0.365342	-0.149475	0.279486
C148	C	-0.386277	-0.128236	0.321762
C149	C	-0.428838	-0.085960	0.279482
C150	C	-0.513440	0.004126	0.321588
C151	C	-0.553612	0.047569	0.341609
C152	C	-0.573760	0.069357	0.383498
C153	C	-0.617316	0.116461	0.405208
C154	C	-0.553743	0.047706	0.405374
C155	C	-0.513574	0.004265	0.385355
C156	C	-0.493422	-0.017523	0.343461
C157	C	-0.381282	-0.128071	0.385518
C158	C	-0.358007	-0.148095	0.405681
C159	C	-0.314495	-0.189985	0.383947
C160	C	-0.289256	-0.211697	0.405806
C161	C	-0.294255	-0.211858	0.342050
C162	C	-0.317529	-0.191837	0.321889
C163	C	-0.361041	-0.149943	0.343623
C164	C	-0.381281	-0.128072	0.189396
C165	C	-0.358002	-0.148093	0.145951
C166	C	-0.314491	-0.189984	0.124165
C167	C	-0.289251	-0.211696	0.077062
C168	C	-0.294250	-0.211855	0.145817
C169	C	-0.317525	-0.191835	0.189259
C170	C	-0.361041	-0.149943	0.211047
C171	C	-0.102945	-0.128275	0.321760
C172	C	-0.123884	-0.085999	0.343002
C173	C	-0.039350	-0.128268	0.258154
C174	C	-0.060385	-0.085992	0.279492
C175	C	-0.102949	-0.064661	0.321767
C176	C	-0.060381	-0.149510	0.279485
C177	C	-0.107937	-0.192034	0.321588
C178	C	-0.131211	-0.212198	0.341607
C179	C	-0.174726	-0.190466	0.383496
C180	C	-0.199965	-0.212327	0.405204
C181	C	-0.194970	-0.148569	0.405373
C182	C	-0.171695	-0.128406	0.385355
C183	C	-0.128181	-0.150138	0.343462
C184	C	-0.171851	0.004086	0.385523
C185	C	-0.195267	0.047529	0.405687
C186	C	-0.175171	0.069321	0.383954
C187	C	-0.200559	0.116425	0.405814
C188	C	-0.131657	0.047674	0.342058
C189	C	-0.108241	0.004233	0.321896
C190	C	-0.128341	-0.017559	0.343628
C191	C	0.024227	-0.192017	0.189400
C192	C	0.064399	-0.212172	0.145956
C193	C	0.084547	-0.190432	0.124172
C194	C	0.128106	-0.212285	0.077069
C195	C	0.064526	-0.148537	0.145824
C196	C	0.024353	-0.128380	0.189266
C197	C	0.004206	-0.150122	0.211052
C198	C	-0.386278	0.218755	0.321796
C199	C	-0.428839	0.219049	0.343034
C200	C	-0.386283	0.218765	0.258186
C201	C	-0.428844	0.219059	0.279520
C202	C	-0.449873	0.218755	0.321795
C203	C	-0.365345	0.219059	0.279521
C204	C	-0.317379	0.213594	0.321631
C205	C	-0.293964	0.210332	0.341654
C206	C	-0.314057	0.208691	0.383543
C207	C	-0.288670	0.205153	0.405255
C208	C	-0.357569	0.210315	0.405416
C209	C	-0.380984	0.213578	0.385395
C210	C	-0.360887	0.215215	0.343502
C211	C	-0.513440	0.213582	0.385547
C212	C	-0.553612	0.210321	0.405707
C213	C	-0.573762	0.208689	0.383971
C214	C	-0.617318	0.205150	0.405826
C215	C	-0.553747	0.210323	0.342074
C216	C	-0.513579	0.213587	0.321916
C217	C	-0.493425	0.215214	0.343653
C218	C	-0.317390	0.213615	0.189436
C219	C	-0.293976	0.210358	0.145992
C220	C	-0.314074	0.208726	0.124204
C221	C	-0.288693	0.205199	0.077101
C222	C	-0.357582	0.210348	0.145852
C223	C	-0.380996	0.213603	0.189294
C224	C	-0.360898	0.215236	0.211084
C225	C	0.568099	-0.463664	-0.406355
C226	C	0.589034	-0.442325	-0.427589
C227	C	0.504501	-0.400057	-0.342742
C228	C	0.525532	-0.378815	-0.364073
C229	C	0.568096	-0.400049	-0.406348
C230	C	0.525535	-0.442333	-0.364080
C231	C	0.618454	-0.617065	-0.445210
C232	C	0.641728	-0.660506	-0.465235
C233	C	0.685246	-0.682294	-0.507127
C234	C	0.710489	-0.729398	-0.528838
C235	C	0.705487	-0.660638	-0.528995
C236	C	0.682209	-0.617199	-0.508973
C237	C	0.638691	-0.595413	-0.467078
C238	C	0.682619	-0.361191	-0.509373
C239	C	0.706031	-0.341165	-0.529532
C240	C	0.685936	-0.299274	-0.507794
C241	C	0.711320	-0.277560	-0.529645
C242	C	0.642421	-0.277406	-0.465896
C243	C	0.619005	-0.297428	-0.445741
C244	C	0.639112	-0.339325	-0.467484
C245	C	0.362651	-0.361230	-0.189349
C246	C	0.322479	-0.341214	-0.145907
C247	C	0.302324	-0.299320	-0.124112
C248	C	0.258768	-0.277617	-0.077009
C249	C	0.322345	-0.277447	-0.145759
C250	C	0.362518	-0.297464	-0.189199
C251	C	0.382665	-0.339356	-0.210992
C252	C	0.613455	-0.548311	-0.445369
C253	C	0.593338	-0.510766	-0.428064
C254	C	0.460945	-0.378355	-0.295640
C255	C	0.426225	-0.361056	-0.258096
C256	C	0.593484	-0.378339	-0.428202
C257	C	0.613720	-0.361033	-0.445624
O258	O	-0.251400	0.254980	0.434531
O259	O	-0.179474	0.131965	0.383444
O260	O	-0.251397	0.203889	0.383450
O261	O	-0.179477	0.183055	0.434524
O262	O	-0.309796	0.203878	0.441878
O263	O	-0.237873	0.131953	0.441872
O264	O	-0.309799	0.254968	0.492959
Zn265	Zn	-0.283108	0.193459	0.476692
Zn266	Zn	-0.206165	0.193474	0.399710
O267	O	-0.237875	0.183043	0.492952
C268	C	0.005950	0.161947	-0.406317
C269	C	-0.015084	0.161653	-0.427555
C270	C	-0.057639	0.161937	-0.342707
C271	C	-0.078577	0.161643	-0.364042
C272	C	-0.057645	0.161947	-0.406317
C273	C	-0.015078	0.161643	-0.364042
C274	C	0.147792	0.173471	-0.445159
C275	C	0.187965	0.176731	-0.465179
C276	C	0.208113	0.178372	-0.507072
C277	C	0.251665	0.181915	-0.528780
C278	C	0.188089	0.176750	-0.528944
C279	C	0.147924	0.173485	-0.508925
C280	C	0.127775	0.171845	-0.467030
C281	C	-0.108002	0.173480	-0.509353
C282	C	-0.131276	0.176739	-0.529515
C283	C	-0.174792	0.178372	-0.507781
C284	C	-0.200034	0.181912	-0.529635
C285	C	-0.195029	0.176740	-0.465883
C286	C	-0.171751	0.173473	-0.445724
C287	C	-0.128236	0.171846	-0.467464
C288	C	-0.107973	0.173429	-0.189311
C289	C	-0.131245	0.176684	-0.145869
C290	C	-0.174761	0.178315	-0.124078
C291	C	-0.199997	0.181846	-0.076974
C292	C	-0.195004	0.176695	-0.145728
C293	C	-0.171732	0.173442	-0.189168
C294	C	-0.128213	0.171805	-0.210958
C295	C	0.084219	0.168309	-0.445325
C296	C	0.049502	0.165488	-0.428023
C297	C	-0.082872	0.165466	-0.295606
C298	C	-0.102984	0.168278	-0.258061
C299	C	-0.082884	0.165487	-0.428176
C300	C	-0.103001	0.168308	-0.445600
H301	H	-0.072516	-0.013601	-0.021408
F302	F	-0.378960	-0.232876	0.015131
H303	H	0.131953	-0.599889	-0.411647
F304	F	-0.193239	-0.083478	-0.021827
F305	F	0.502516	-0.333410	-0.341684
H306	H	-0.374493	-0.130281	0.439794
H307	H	0.007817	-0.093954	-0.021417
F308	F	-0.427593	-0.083485	0.408652
F309	F	-0.061623	-0.215166	0.277003
H310	H	-0.112503	-0.344389	-0.346962
H311	H	-0.158131	-0.068822	-0.026028
H312	H	-0.072539	0.172099	-0.207050
F313	F	-0.427279	0.215288	0.408665
F314	F	-0.247681	-0.683582	0.015195
H315	H	-0.376731	-0.459499	0.032454
H316	H	0.305934	-0.243334	-0.128011
F317	F	-0.247663	-0.364505	0.015164
H318	H	0.625246	-0.678135	-0.447426
H319	H	-0.188178	-0.094294	0.403168
F320	F	0.008241	-0.465032	-0.472998
H321	H	-0.072814	-0.013390	0.287783
F322	F	-0.110270	0.070872	0.318930
F323	F	-0.037391	-0.063556	-0.026150
H324	H	0.583019	-0.599330	-0.411099
F325	F	-0.492268	-0.018776	0.408634
F326	F	-0.193279	0.171718	-0.212208
F327	F	-0.109685	0.070622	-0.015081
F328	F	-0.061937	-0.405548	-0.212246
H329	H	-0.492082	-0.459500	0.032457
H330	H	0.002505	0.161196	-0.346903
F331	F	0.703749	-0.594153	-0.532247
H332	H	-0.446450	0.219546	0.262391
F333	F	-0.241297	0.070915	-0.015068
F334	F	-0.451844	0.219669	0.388435
F335	F	-0.241285	-0.125441	0.449958
F336	F	-0.193234	-0.274188	-0.212544
F337	F	-0.320581	0.219687	0.257133
F338	F	-0.037381	-0.063598	0.257106
H339	H	-0.230684	-0.243052	-0.128288
F340	F	0.085967	-0.125396	0.122636
F341	F	-0.295992	-0.215116	0.277302
F342	F	-0.491996	-0.019062	0.277002
F343	F	-0.427317	-0.594202	0.021905
H344	H	-0.112825	0.161162	-0.346912
F345	F	0.502531	-0.464727	-0.341694
H346	H	-0.115291	-0.358499	-0.128020
H347	H	-0.258541	0.209014	0.323844
H348	H	-0.446443	-0.068830	0.377734
H349	H	-0.188213	-0.279620	-0.411101
F350	F	0.003044	-0.083791	0.212309
F351	F	-0.168632	-0.063625	0.388412
F352	F	-0.615916	-0.405836	0.021903
H353	H	-0.446433	-0.068825	0.262348
F354	F	0.751798	-0.683826	-0.573580
H355	H	-0.373925	0.208976	0.439527
F356	F	-0.193243	-0.019106	0.408656
H357	H	-0.230457	0.178063	-0.448188
F358	F	-0.061689	0.171743	-0.532492
F359	F	0.007921	0.161033	-0.472957
H360	H	-0.258552	0.209038	0.128370
F361	F	-0.247943	-0.256446	0.318920
F362	F	-0.427595	-0.083487	0.212583
F363	F	-0.037375	-0.194910	0.257092
H364	H	-0.621190	-0.279672	0.021471
F365	F	0.085696	-0.124810	-0.015096
F366	F	-0.497482	-0.333452	0.032592
H367	H	-0.188230	0.172142	-0.411612
H368	H	0.379054	-0.395340	-0.207091
H369	H	-0.188182	-0.013351	-0.021402
H370	H	-0.114766	0.178014	-0.128241
H371	H	-0.230684	-0.130277	-0.015513
F372	F	0.085706	-0.256760	0.122917
H373	H	0.002840	-0.459769	-0.346951
H374	H	0.204264	0.178053	-0.447368
H375	H	-0.497035	0.214911	0.403250
H376	H	0.131391	0.172136	-0.411047
F377	F	-0.427293	-0.274208	0.021866
F378	F	-0.295999	0.215354	0.212626
F379	F	0.633798	-0.464708	-0.472992
H380	H	-0.230683	-0.243049	-0.447427
F381	F	-0.295982	-0.215113	0.212301
F382	F	0.301176	-0.364497	-0.122871
F383	F	-0.110262	-0.363925	-0.573585
H384	H	-0.373960	-0.678428	0.015590
F385	F	0.002787	-0.215159	0.212586
F386	F	-0.427299	0.215327	0.212333
F387	F	0.704016	-0.405777	-0.532515
F388	F	0.383822	-0.274182	-0.212235
H389	H	-0.569904	0.208991	0.439819
H390	H	0.204499	0.178085	-0.563053
H391	H	-0.331090	-0.184209	0.262355
F392	F	0.126618	0.171757	-0.532203
H393	H	-0.258815	-0.245966	0.128073
H394	H	-0.072808	-0.395067	-0.526788
H395	H	-0.301020	-0.395359	0.021490
H396	H	-0.115280	-0.245973	-0.015507
F397	F	-0.109664	-0.256786	0.318324
F398	F	-0.698833	-0.364509	0.015170
F399	F	0.621028	-0.232819	-0.442762
F400	F	-0.699104	-0.232879	0.015144
F401	F	-0.241576	0.070562	0.450274
F402	F	0.085972	-0.256442	-0.015081
H403	H	0.583576	-0.279620	-0.411629
F404	F	-0.295990	0.215339	0.277046
F405	F	-0.575198	0.208588	0.318942
F406	F	-0.492283	0.215333	0.277332
H407	H	-0.114797	0.178070	-0.563627
H408	H	0.741460	-0.358973	-0.563644
H409	H	-0.072800	-0.209647	-0.021419
H410	H	-0.374488	-0.130282	0.128328
H411	H	-0.570153	0.065454	0.439486
F412	F	0.003049	-0.215112	-0.021812
H413	H	-0.373947	0.209019	0.128108
F414	F	-0.241314	0.178425	-0.122538
F415	F	0.126669	-0.594187	-0.532532
H416	H	-0.301029	-0.599362	0.021508
F417	F	-0.037374	-0.194874	-0.026177
H418	H	0.204827	-0.678701	-0.448220
F419	F	-0.574914	0.070607	0.318327
F420	F	0.209586	-0.683856	-0.574139
