data_functionalizedCrystal
_audit_creation_method	'MofGen! by Chris Wilmer'
_symmetry_space_group_name_H-M	'P1'
_symmetry_Int_Tables_number	1
_symmetry_cell_setting	triclinic
loop_
_symmetry_equiv_pos_as_xyz
  x,y,z
_cell_length_a	18.266242
_cell_length_b	19.188928
_cell_length_c	19.188924
_cell_angle_alpha	96.857113
_cell_angle_beta	90.009637
_cell_angle_gamma	89.984096
loop_
_atom_site_label
_atom_site_type_symbol
_atom_site_fract_x
_atom_site_fract_y
_atom_site_fract_z
O1	O	0.061167	-0.926138	0.087164
O2	O	0.311167	-0.676138	0.337164
O3	O	0.561167	-0.426138	0.587164
O4	O	0.811167	-0.176138	0.837164
O5	O	0.061107	-0.722826	0.098900
O6	O	0.311107	-0.472826	0.348900
O7	O	0.561107	-0.222826	0.598900
O8	O	0.811107	0.027174	0.848900
O9	O	0.061130	-0.830352	-0.008624
O10	O	0.311130	-0.580352	0.241376
O11	O	0.561130	-0.330352	0.491376
O12	O	0.811130	-0.080352	0.741376
O13	O	0.061144	-0.818612	0.194688
O14	O	0.311144	-0.568612	0.444688
O15	O	0.561144	-0.318612	0.694688
O16	O	0.811144	-0.068612	0.944688
O17	O	-0.060632	-0.830354	-0.008635
O18	O	0.189368	-0.580354	0.241365
O19	O	0.439368	-0.330354	0.491365
O20	O	0.689368	-0.080354	0.741365
O21	O	-0.060655	-0.722828	0.098889
O22	O	0.189345	-0.472828	0.348889
O23	O	0.439345	-0.222828	0.598889
O24	O	0.689345	0.027172	0.848889
O25	O	-0.060595	-0.926140	0.087153
O26	O	0.189405	-0.676140	0.337153
O27	O	0.439405	-0.426140	0.587153
O28	O	0.689405	-0.176140	0.837153
Zn29	Zn	-0.079957	-0.824485	0.093020
Zn30	Zn	0.170043	-0.574485	0.343020
Zn31	Zn	0.420043	-0.324485	0.593020
Zn32	Zn	0.670043	-0.074485	0.843020
Zn33	Zn	0.080470	-0.824482	0.093033
Zn34	Zn	0.330470	-0.574482	0.343033
Zn35	Zn	0.580470	-0.324482	0.593033
Zn36	Zn	0.830470	-0.074482	0.843033
O37	O	-0.060618	-0.818615	0.194677
O38	O	0.189382	-0.568615	0.444677
O39	O	0.439382	-0.318615	0.694677
O40	O	0.689382	-0.068615	0.944677
C41	C	0.000218	-0.696816	0.098515
C42	C	0.250218	-0.446816	0.348515
C43	C	0.500218	-0.196816	0.598515
C44	C	0.750218	0.053184	0.848515
C45	C	0.000195	-0.619312	0.097375
C46	C	0.250195	-0.369312	0.347375
C47	C	0.500195	-0.119312	0.597375
C48	C	0.750195	0.130688	0.847375
N49	N	-0.189444	-0.824492	0.093010
N50	N	0.060556	-0.574492	0.343010
N51	N	0.310556	-0.324492	0.593010
N52	N	0.560556	-0.074492	0.843010
N53	N	0.189957	-0.824480	0.093037
N54	N	0.439957	-0.574480	0.343037
N55	N	0.689957	-0.324480	0.593037
N56	N	0.939957	-0.074480	0.843037
C57	C	0.000209	-0.574386	0.160466
C58	C	0.250209	-0.324386	0.410466
C59	C	0.500209	-0.074386	0.660466
C60	C	0.750209	0.175614	0.910466
C61	C	0.000213	-0.501562	0.159395
C62	C	0.250213	-0.251562	0.409395
C63	C	0.500213	-0.001562	0.659395
C64	C	0.750213	0.248438	0.909395
C65	C	0.000218	-0.473667	0.095229
C66	C	0.250218	-0.223667	0.345229
C67	C	0.500218	0.026333	0.595229
C68	C	0.750218	0.276333	0.845229
C69	C	0.000200	-0.518603	0.032129
C70	C	0.250200	-0.268603	0.282129
C71	C	0.500200	-0.018603	0.532129
C72	C	0.750200	0.231397	0.782129
C73	C	0.000189	-0.591425	0.033202
C74	C	0.250189	-0.341425	0.283202
C75	C	0.500189	-0.091425	0.533202
C76	C	0.750189	0.158575	0.783202
N77	N	0.041680	-0.365687	0.046186
N78	N	0.291680	-0.115687	0.296186
N79	N	0.541680	0.134313	0.546186
N80	N	0.791680	0.384313	0.796186
N81	N	0.041692	-0.296509	0.045171
N82	N	0.291692	-0.046509	0.295171
N83	N	0.541692	0.203491	0.545171
N84	N	0.791692	0.453491	0.795171
C85	C	0.000251	-0.254258	0.091993
C86	C	0.250251	-0.004258	0.341993
C87	C	0.500251	0.245742	0.591993
C88	C	0.750251	0.495742	0.841993
N89	N	-0.041193	-0.283799	0.139878
N90	N	0.208807	-0.033799	0.389878
N91	N	0.458807	0.216201	0.639878
N92	N	0.708807	0.466201	0.889878
N93	N	-0.041202	-0.352984	0.140895
N94	N	0.208798	-0.102984	0.390895
N95	N	0.458798	0.147016	0.640895
N96	N	0.708798	0.397016	0.890895
C97	C	0.000230	-0.394705	0.094058
C98	C	0.250230	-0.144705	0.344058
C99	C	0.500230	0.105295	0.594058
C100	C	0.750230	0.355295	0.844058
C101	C	0.000269	-0.130368	0.153927
C102	C	0.250269	0.119632	0.403927
C103	C	0.500269	0.369632	0.653927
C104	C	0.750269	0.619632	0.903927
C105	C	0.000268	-0.057543	0.152853
C106	C	0.250268	0.192457	0.402853
C107	C	0.500268	0.442457	0.652853
C108	C	0.750268	0.692457	0.902853
C109	C	0.000263	-0.074586	0.025586
C110	C	0.250263	0.175414	0.275586
C111	C	0.500263	0.425414	0.525586
C112	C	0.750263	0.675414	0.775586
C113	C	0.000256	-0.147409	0.026661
C114	C	0.250256	0.102591	0.276661
C115	C	0.500256	0.352591	0.526661
C116	C	0.750256	0.602591	0.776661
C117	C	0.000262	-0.175296	0.090834
C118	C	0.250262	0.074704	0.340834
C119	C	0.500262	0.324704	0.590834
C120	C	0.750262	0.574704	0.840834
C121	C	0.228276	-0.872177	0.045518
C122	C	0.478276	-0.622177	0.295518
C123	C	0.728276	-0.372177	0.545518
C124	C	0.978276	-0.122177	0.795518
C125	C	0.304921	-0.872183	0.045517
C126	C	0.554921	-0.622183	0.295517
C127	C	0.804921	-0.372183	0.545517
C128	C	1.054921	-0.122183	0.795517
C129	C	0.343244	-0.824481	0.093028
C130	C	0.593244	-0.574481	0.343028
C131	C	0.843244	-0.324481	0.593028
C132	C	1.093244	-0.074481	0.843028
C133	C	0.304915	-0.776780	0.140556
C134	C	0.554915	-0.526780	0.390556
C135	C	0.804915	-0.276780	0.640556
C136	C	1.054915	-0.026780	0.890556
C137	C	0.228272	-0.776780	0.140561
C138	C	0.478272	-0.526780	0.390561
C139	C	0.728272	-0.276780	0.640561
C140	C	0.978272	-0.026780	0.890561
N141	N	0.463565	-0.762673	0.101955
N142	N	0.713565	-0.512673	0.351955
N143	N	0.963565	-0.262673	0.601955
N144	N	1.213565	-0.012673	0.851955
N145	N	0.536373	-0.762676	0.101946
N146	N	0.786373	-0.512676	0.351946
N147	N	1.036373	-0.262676	0.601946
N148	N	1.286373	-0.012676	0.851946
C149	C	0.574166	-0.824479	0.093017
C150	C	0.824166	-0.574479	0.343017
C151	C	1.074166	-0.324479	0.593017
C152	C	1.324166	-0.074479	0.843017
N153	N	0.536400	-0.886283	0.084084
N154	N	0.786400	-0.636283	0.334084
N155	N	1.036400	-0.386283	0.584084
N156	N	1.286400	-0.136283	0.834084
N157	N	0.463586	-0.886280	0.084089
N158	N	0.713586	-0.636280	0.334089
N159	N	0.963586	-0.386280	0.584089
N160	N	1.213586	-0.136280	0.834089
C161	C	0.426350	-0.824476	0.093028
C162	C	0.676350	-0.574476	0.343028
C163	C	0.926350	-0.324476	0.593028
C164	C	1.176350	-0.074476	0.843028
C165	C	0.695592	-0.872187	0.045494
C166	C	0.945592	-0.622187	0.295494
C167	C	1.195592	-0.372187	0.545494
C168	C	1.445592	-0.122187	0.795494
C169	C	0.772239	-0.872194	0.045498
C170	C	1.022239	-0.622194	0.295498
C171	C	1.272239	-0.372194	0.545498
C172	C	1.522239	-0.122194	0.795498
C173	C	0.772231	-0.776785	0.140533
C174	C	1.022231	-0.526785	0.390533
C175	C	1.272231	-0.276785	0.640533
C176	C	1.522231	-0.026785	0.890533
C177	C	0.695587	-0.776784	0.140533
C178	C	0.945587	-0.526784	0.390533
C179	C	1.195587	-0.276784	0.640533
C180	C	1.445587	-0.026784	0.890533
C181	C	0.657272	-0.824484	0.093010
C182	C	0.907272	-0.574484	0.343010
C183	C	1.157272	-0.324484	0.593010
C184	C	1.407272	-0.074484	0.843010
C185	C	0.000249	-0.829973	-0.034641
C186	C	0.250249	-0.579973	0.215359
C187	C	0.500249	-0.329973	0.465359
C188	C	0.750249	-0.079973	0.715359
C189	C	0.000246	-0.828835	-0.112145
C190	C	0.250246	-0.578835	0.137855
C191	C	0.500246	-0.328835	0.387855
C192	C	0.750246	-0.078835	0.637855
C193	C	0.000283	0.047850	0.087540
C194	C	0.250283	0.297850	0.337540
C195	C	0.500283	0.547850	0.587540
C196	C	0.750283	0.797850	0.837540
C197	C	0.000272	-0.029654	0.088687
C198	C	0.250272	0.220346	0.338687
C199	C	0.500272	0.470346	0.588687
C200	C	0.750272	0.720346	0.838687
C201	C	0.066619	-0.828302	-0.148539
C202	C	0.316619	-0.578302	0.101461
C203	C	0.566619	-0.328302	0.351461
C204	C	0.816619	-0.078302	0.601461
C205	C	0.066624	-0.827222	-0.221361
C206	C	0.316624	-0.577222	0.028639
C207	C	0.566624	-0.327222	0.278639
C208	C	0.816624	-0.077222	0.528639
C209	C	0.000253	-0.826689	-0.257790
C210	C	0.250253	-0.576689	-0.007790
C211	C	0.500253	-0.326689	0.242210
C212	C	0.750253	-0.076689	0.492210
C213	C	-0.066128	-0.827218	-0.221387
C214	C	0.183872	-0.577218	0.028613
C215	C	0.433872	-0.327218	0.278613
C216	C	0.683872	-0.077218	0.528613
C217	C	-0.066131	-0.828291	-0.148565
C218	C	0.183869	-0.578291	0.101435
C219	C	0.433869	-0.328291	0.351435
C220	C	0.683869	-0.078291	0.601435
N221	N	-0.049134	-0.864738	-0.377458
N222	N	0.200866	-0.614738	-0.127458
N223	N	0.450866	-0.364738	0.122542
N224	N	0.700866	-0.114738	0.372542
N225	N	-0.049126	-0.863720	-0.446636
N226	N	0.200874	-0.613720	-0.196636
N227	N	0.450874	-0.363720	0.053364
N228	N	0.700874	-0.113720	0.303364
C229	C	0.000259	-0.823455	-0.477199
C230	C	0.250259	-0.573455	-0.227199
C231	C	0.500259	-0.323455	0.022801
C232	C	0.750259	-0.073455	0.272801
N233	N	0.049648	-0.784255	-0.435972
N234	N	0.299648	-0.534255	-0.185972
N235	N	0.549648	-0.284255	0.064028
N236	N	0.799648	-0.034255	0.314028
N237	N	0.049642	-0.785276	-0.366787
N238	N	0.299642	-0.535276	-0.116787
N239	N	0.549642	-0.285276	0.133213
N240	N	0.799642	-0.035276	0.383213
C241	C	0.000249	-0.825525	-0.336753
C242	C	0.250249	-0.575525	-0.086753
C243	C	0.500249	-0.325525	0.163247
C244	C	0.750249	-0.075525	0.413247
C245	C	0.066642	-0.821750	-0.592555
C246	C	0.316642	-0.571750	-0.342555
C247	C	0.566642	-0.321750	-0.092555
C248	C	0.816642	-0.071750	0.157445
C249	C	0.066644	-0.820666	-0.665378
C250	C	0.316644	-0.570666	-0.415378
C251	C	0.566644	-0.320666	-0.165378
C252	C	0.816644	-0.070666	0.084622
C253	C	-0.066110	-0.820669	-0.665404
C254	C	0.183890	-0.570669	-0.415404
C255	C	0.433890	-0.320669	-0.165404
C256	C	0.683890	-0.070669	0.084596
C257	C	-0.066110	-0.821746	-0.592581
C258	C	0.183890	-0.571746	-0.342581
C259	C	0.433890	-0.321746	-0.092581
C260	C	0.683890	-0.071746	0.157419
C261	C	0.000268	-0.822290	-0.556161
C262	C	0.250268	-0.572290	-0.306161
C263	C	0.500268	-0.322290	-0.056161
C264	C	0.750268	-0.072290	0.193839
C265	C	0.000266	-0.818993	0.220694
C266	C	0.250266	-0.568993	0.470694
C267	C	0.500266	-0.318993	0.720694
C268	C	0.750266	-0.068993	0.970694
C269	C	0.000273	-0.820132	0.298198
C270	C	0.250273	-0.570132	0.548198
C271	C	0.500273	-0.320132	0.798198
C272	C	0.750273	-0.070132	1.048198
H273	H	0.000215	-0.597086	0.212720
H274	H	0.250215	-0.347086	0.462720
H275	H	0.500215	-0.097086	0.712720
H276	H	0.750215	0.152914	0.962720
F277	F	0.000245	-0.195224	-0.040490
F278	F	0.250245	0.054776	0.209510
F279	F	0.500245	0.304776	0.459510
F280	F	0.750245	0.554776	0.709510
H281	H	0.000222	-0.464977	0.210773
H282	H	0.250222	-0.214977	0.460773
H283	H	0.500222	0.035023	0.710773
H284	H	0.750222	0.285023	0.960773
F285	F	0.345701	-0.726013	0.191123
F286	F	0.595701	-0.476013	0.441123
F287	F	0.845701	-0.226013	0.691123
F288	F	1.095701	0.023987	0.941123
H289	H	0.197082	-0.911019	0.006824
H290	H	0.447082	-0.661019	0.256824
H291	H	0.697082	-0.411019	0.506824
H292	H	0.947082	-0.161019	0.756824
F293	F	0.187488	-0.726012	0.191139
F294	F	0.437488	-0.476012	0.441139
F295	F	0.687488	-0.226012	0.691139
F296	F	0.937488	0.023988	0.941139
F297	F	0.654801	-0.726015	0.191106
F298	F	0.904801	-0.476015	0.441106
F299	F	1.154801	-0.226015	0.691106
F300	F	1.404801	0.023985	0.941106
H301	H	0.664395	-0.911030	0.006800
H302	H	0.914395	-0.661030	0.256800
H303	H	1.164395	-0.411030	0.506800
H304	H	1.414395	-0.161030	0.756800
F305	F	-0.136777	-0.828856	-0.109831
F306	F	0.113223	-0.578856	0.140169
F307	F	0.363223	-0.328856	0.390169
F308	F	0.613223	-0.078856	0.640169
H309	H	0.120691	-0.822189	-0.562900
H310	H	0.370691	-0.572189	-0.312900
H311	H	0.620691	-0.322189	-0.062900
H312	H	0.870691	-0.072189	0.187100
F313	F	0.345710	-0.922952	-0.005062
F314	F	0.595710	-0.672952	0.244938
F315	F	0.845710	-0.422952	0.494938
F316	F	1.095710	-0.172952	0.744938
F317	F	0.813022	-0.922966	-0.005077
F318	F	1.063022	-0.672966	0.244923
F319	F	1.313022	-0.422966	0.494923
F320	F	1.563022	-0.172966	0.744923
F321	F	0.813014	-0.726020	0.191102
F322	F	1.063014	-0.476020	0.441102
F323	F	1.313014	-0.226020	0.691102
F324	F	1.563014	0.023980	0.941102
H325	H	0.120695	-0.820229	-0.695008
H326	H	0.370695	-0.570229	-0.445008
H327	H	0.620695	-0.320229	-0.195008
H328	H	0.870695	-0.070229	0.054992
H329	H	0.120669	-0.828743	-0.118890
H330	H	0.370669	-0.578743	0.131110
H331	H	0.620669	-0.328743	0.381110
H332	H	0.870669	-0.078743	0.631110
F333	F	-0.136747	-0.820098	-0.704169
F334	F	0.113253	-0.570098	-0.454169
F335	F	0.363253	-0.320098	-0.204169
F336	F	0.613253	-0.070098	0.045831
F337	F	0.137270	-0.826654	-0.260102
F338	F	0.387270	-0.576654	-0.010102
F339	F	0.637270	-0.326654	0.239898
F340	F	0.887270	-0.076654	0.489898
F341	F	-0.136754	-0.822313	-0.553847
F342	F	0.113246	-0.572313	-0.303847
F343	F	0.363246	-0.322313	-0.053847
F344	F	0.613246	-0.072313	0.196153
H345	H	-0.120168	-0.826782	-0.251052
H346	H	0.129832	-0.576782	-0.001052
H347	H	0.379832	-0.326782	0.248948
H348	H	0.629832	-0.076782	0.498948
F349	F	0.000262	-0.044902	-0.042705
F350	F	0.250262	0.205098	0.207295
F351	F	0.500262	0.455098	0.457295
F352	F	0.750262	0.705098	0.707295
F353	F	0.000203	-0.488914	-0.036161
F354	F	0.250203	-0.238914	0.213839
F355	F	0.500203	0.011086	0.463839
F356	F	0.750203	0.261086	0.713839
H357	H	0.000178	-0.628004	-0.018176
H358	H	0.250178	-0.378004	0.231824
H359	H	0.500178	-0.128004	0.481824
H360	H	0.750178	0.121996	0.731824
F361	F	0.000270	-0.160050	0.222224
F362	F	0.250270	0.089950	0.472224
F363	F	0.500270	0.339950	0.722224
F364	F	0.750270	0.589950	0.972224
H365	H	0.000275	-0.020965	0.204232
H366	H	0.250275	0.229035	0.454232
H367	H	0.500275	0.479035	0.704232
H368	H	0.750275	0.729035	0.954232
