data_functionalizedCrystal
_audit_creation_method	'MofGen! by Chris Wilmer'
_symmetry_space_group_name_H-M	'P1'
_symmetry_Int_Tables_number	1
_symmetry_cell_setting	triclinic
loop_
_symmetry_equiv_pos_as_xyz
  x,y,z
_cell_length_a	10.908891
_cell_length_b	10.065875
_cell_length_c	17.699091
_cell_angle_alpha	98.772671
_cell_angle_beta	71.685082
_cell_angle_gamma	83.443185
loop_
_atom_site_label
_atom_site_type_symbol
_atom_site_fract_x
_atom_site_fract_y
_atom_site_fract_z
O1	O	-1.723043	0.113483	0.130444
O2	O	-1.348998	0.113487	0.071317
O3	O	-1.546582	0.113479	0.212387
O4	O	-1.525459	0.113490	-0.010626
O5	O	-1.508905	-0.113508	0.185398
O6	O	-1.311321	-0.113501	0.044328
O7	O	-1.685366	-0.113505	0.103455
Zn8	Zn	-1.492362	-0.149542	0.069606
Zn9	Zn	-1.542003	0.149524	0.105166
O10	O	-1.487782	-0.113498	-0.037615
C11	C	-1.282301	-0.000007	0.052297
C12	C	-1.139698	-0.000005	0.035841
C13	C	-1.090873	-0.000008	0.095884
C14	C	-0.943486	-0.000006	0.078877
N15	N	-1.458492	-0.353646	0.045340
C16	C	-1.530210	-0.421428	0.096726
C17	C	-1.504154	-0.578594	0.078046
C18	C	-0.752063	-0.000010	0.122475
C19	C	-0.894666	-0.000008	0.138928
C20	C	-1.526986	-0.000013	0.226995
C21	C	-1.524711	-0.000008	0.310729
N22	N	-1.575882	0.353628	0.129440
C23	C	-1.544182	0.123724	0.364775
C24	C	-1.542036	0.123724	0.443451
C25	C	-1.520426	-0.000009	0.468080
C26	C	-1.500949	-0.123750	0.414026
C27	C	-1.503087	-0.123749	0.335351
C28	C	-1.492327	-0.123757	0.731314
C29	C	-1.490194	-0.123749	0.809997
C30	C	-1.531275	0.123716	0.839414
C31	C	-1.533413	0.123717	0.760739
C32	C	-1.513929	-0.000024	0.706691
C33	C	-1.516254	-0.000022	0.621382
C34	C	-1.518110	-0.000011	0.553389
C35	C	-1.507379	-0.000007	0.947778
C36	C	-1.509657	-0.000016	0.864043
H37	H	-0.876176	0.000003	0.014878
O38	O	-0.983815	-0.000015	0.223706
H39	H	-0.950252	-0.092530	0.243763
H40	H	-1.483347	-0.224495	0.434084
O41	O	-1.637077	-0.344163	0.173327
H42	H	-1.732771	-0.371472	0.173216
O43	O	-1.180027	-0.000027	0.180654
H44	H	-1.257177	0.092481	0.202044
O45	O	-1.397263	-0.655826	0.001441
H46	H	-1.393578	-0.767150	-0.001214
H47	H	-1.072384	0.000004	-0.028154
H48	H	-1.656574	-0.588054	0.187270
H49	H	-1.377796	-0.411969	-0.012482
O50	O	-1.567479	0.257179	0.338210
H51	H	-1.580641	0.343217	0.389009
H52	H	-1.476488	-0.224514	0.687322
H53	H	-1.547133	0.224471	0.883429
O54	O	-1.562973	0.257176	0.501733
H55	H	-1.578350	0.343215	0.471388
O56	O	-1.556704	0.257169	0.734169
H57	H	-1.569866	0.343211	0.784966
H58	H	-1.472593	-0.224513	0.830045
O59	O	-1.482100	-0.257201	0.277055
H60	H	-1.466730	-0.343241	0.307400
