data_functionalizedCrystal
_audit_creation_method	'MofGen! by Chris Wilmer'
_symmetry_space_group_name_H-M	'P1'
_symmetry_Int_Tables_number	1
_symmetry_cell_setting	triclinic
loop_
_symmetry_equiv_pos_as_xyz
  x,y,z
_cell_length_a	6.817900
_cell_length_b	14.125369
_cell_length_c	14.858340
_cell_angle_alpha	95.620569
_cell_angle_beta	104.519754
_cell_angle_gamma	100.397648
loop_
_atom_site_label
_atom_site_type_symbol
_atom_site_fract_x
_atom_site_fract_y
_atom_site_fract_z
V1	V	-4.022529	-0.133726	-0.289593
O2	O	-4.026252	0.005795	-0.284457
O3	O	-3.958563	-0.264549	-0.287251
O4	O	-3.979360	-0.131946	-0.416060
O5	O	-4.005311	-0.127726	-0.154756
V6	V	-4.507496	-0.117005	-0.273509
O7	O	-4.280620	-0.170405	-0.324874
O8	O	-4.699603	-0.080326	-0.238229
O9	O	-4.348256	0.013818	-0.275852
O10	O	-4.621171	-0.256526	-0.278646
O11	O	-4.642111	-0.123005	-0.408347
O12	O	-4.327459	-0.118785	-0.147043
C13	C	-3.799608	-0.296433	-0.282589
C14	C	-3.828630	-0.403384	-0.281517
C15	C	-3.826135	-0.127283	-0.446896
C16	C	-3.872020	-0.126693	-0.550281
C17	C	-3.909281	-0.126213	-0.634241
C18	C	-3.956043	-0.125607	-0.739572
C19	C	-3.993328	-0.125124	-0.823525
C20	C	-4.040094	-0.124520	-0.928863
C21	C	-4.067532	-0.651529	-0.283517
C22	C	-3.881873	-0.599203	-0.279589
C23	C	-3.852249	-0.490239	-0.280662
C24	C	-4.097164	-0.760502	-0.282445
C25	C	-4.170552	0.045696	-0.280511
C26	C	-4.120769	0.152647	-0.281589
C27	C	-4.144025	-0.123452	-0.116201
C28	C	-4.077380	-0.124036	-0.012816
H29	H	-3.745173	-0.636239	-0.275419
H30	H	-4.204220	-0.614495	-0.287685
