data_functionalizedCrystal
_audit_creation_method	'MofGen! by Chris Wilmer'
_symmetry_space_group_name_H-M	'P1'
_symmetry_Int_Tables_number	1
_symmetry_cell_setting	triclinic
loop_
_symmetry_equiv_pos_as_xyz
  x,y,z
_cell_length_a	14.853566
_cell_length_b	13.330367
_cell_length_c	14.971493
_cell_angle_alpha	90.005894
_cell_angle_beta	96.374201
_cell_angle_gamma	90.004068
loop_
_atom_site_label
_atom_site_type_symbol
_atom_site_fract_x
_atom_site_fract_y
_atom_site_fract_z
O1	O	1.196352	0.083355	-0.116761
O2	O	1.696352	0.583355	0.383239
O3	O	0.933890	0.083371	-0.130673
O4	O	1.433890	0.583371	0.369327
O5	O	1.072152	0.083359	0.006482
O6	O	1.572152	0.583359	0.506482
O7	O	1.058090	0.083368	-0.253915
O8	O	1.558090	0.583368	0.246085
O9	O	1.072131	-0.083489	0.006460
O10	O	1.572131	0.416511	0.506460
O11	O	0.933869	-0.083476	-0.130695
O12	O	1.433869	0.416524	0.369305
O13	O	1.196331	-0.083492	-0.116783
O14	O	1.696331	0.416508	0.383217
Cu15	Cu	1.065098	-0.098718	-0.123741
Cu16	Cu	1.565098	0.401282	0.376259
Cu17	Cu	1.065123	0.098598	-0.123715
Cu18	Cu	1.565123	0.598598	0.376285
O19	O	1.058068	-0.083479	-0.253937
O20	O	1.558068	0.416521	0.246063
C21	C	0.900291	-0.000050	-0.130054
C22	C	1.400291	0.499950	0.369946
C23	C	0.800207	-0.000044	-0.128165
C24	C	1.300207	0.499956	0.371835
C25	C	0.377035	0.090887	-0.120166
C26	C	0.877035	0.590887	0.379834
C27	C	0.377033	-0.091017	-0.120191
C28	C	0.877033	0.408983	0.379809
C29	C	0.471067	-0.091013	-0.121964
C30	C	0.971067	0.408987	0.378036
C31	C	0.518089	-0.000059	-0.122840
C32	C	1.018089	0.499941	0.377160
C33	C	0.471077	0.090893	-0.121942
C34	C	0.971077	0.590893	0.378058
C35	C	0.518085	-0.181963	-0.122871
C36	C	1.018085	0.318037	0.377129
C37	C	0.612124	-0.181964	-0.124645
C38	C	1.112124	0.318036	0.375355
C39	C	0.659149	-0.091008	-0.125514
C40	C	1.159149	0.408992	0.374486
C41	C	0.612131	-0.000053	-0.124616
C42	C	1.112131	0.499947	0.375384
C43	C	0.659153	0.090902	-0.125492
C44	C	1.159153	0.590902	0.374508
C45	C	0.612138	0.181858	-0.124587
C46	C	1.112138	0.681858	0.375413
C47	C	0.518102	0.181848	-0.122812
C48	C	1.018102	0.681848	0.377188
C49	C	0.753185	-0.090998	-0.127290
C50	C	1.253185	0.409002	0.372710
C51	C	0.753195	0.090908	-0.127268
C52	C	1.253195	0.590908	0.372732
N53	N	1.065087	-0.237500	-0.123758
N54	N	1.565087	0.262500	0.376242
C55	C	1.119870	-0.710114	-0.178047
C56	C	1.619870	-0.210114	0.321953
C57	C	1.010403	-0.710100	-0.069346
C58	C	1.510403	-0.210100	0.430654
C59	C	1.010390	-0.605081	-0.069360
C60	C	1.510390	-0.105081	0.430640
C61	C	1.065118	-0.552574	-0.123717
C62	C	1.565118	-0.052574	0.376283
C63	C	1.119860	-0.605086	-0.178061
C64	C	1.619860	-0.105086	0.321939
C65	C	0.955656	-0.552562	-0.015011
C66	C	1.455656	-0.052562	0.484989
C67	C	0.955641	-0.447537	-0.015022
C68	C	1.455641	0.052463	0.484978
C69	C	1.010366	-0.395029	-0.069385
C70	C	1.510366	0.104971	0.430615
C71	C	1.065109	-0.447546	-0.123731
C72	C	1.565109	0.052454	0.376269
C73	C	1.119838	-0.395039	-0.178088
C74	C	1.619838	0.104961	0.321912
C75	C	1.174577	-0.447555	-0.232440
C76	C	1.674577	0.052445	0.267560
C77	C	1.174585	-0.552577	-0.232424
C78	C	1.674585	-0.052577	0.267576
C79	C	1.010358	-0.290007	-0.069401
C80	C	1.510358	0.209993	0.430599
C81	C	1.119828	-0.290011	-0.178102
C82	C	1.619828	0.209989	0.321898
C83	C	1.229930	-0.000068	-0.117402
C84	C	1.729930	0.499932	0.382598
C85	C	1.330013	-0.000068	-0.119290
C86	C	1.830013	0.499932	0.380710
C87	C	1.071511	-0.000064	0.039795
C88	C	1.571511	0.499936	0.539795
C89	C	1.069623	-0.000061	0.139092
C90	C	1.569623	0.499939	0.639092
N91	N	1.065141	0.237379	-0.123690
N92	N	1.565141	0.737379	0.376310
C93	C	1.068750	0.090888	0.185749
C94	C	1.568750	0.590888	0.685749
C95	C	1.066970	0.090888	0.279049
C96	C	1.566970	0.590888	0.779049
C97	C	1.066070	-0.000062	0.325690
C98	C	1.566070	0.499938	0.825690
C99	C	1.066940	-0.091018	0.279027
C100	C	1.566940	0.408982	0.779027
C101	C	1.068714	-0.091017	0.185728
C102	C	1.568714	0.408983	0.685728
C103	C	1.063246	-0.091014	0.473490
C104	C	1.563246	0.408986	0.973490
C105	C	1.061474	-0.091015	0.566796
C106	C	1.561474	0.408985	1.066796
C107	C	1.061502	0.090891	0.566811
C108	C	1.561502	0.590891	1.066811
C109	C	1.063275	0.090892	0.473513
C110	C	1.563275	0.590892	0.973513
C111	C	1.064148	-0.000064	0.426855
C112	C	1.564148	0.499936	0.926855
C113	C	1.058710	-0.000058	0.712749
C114	C	1.558710	0.499942	1.212749
C115	C	1.060601	-0.000067	0.613453
C116	C	1.560601	0.499933	1.113453
H117	H	0.479792	-0.256013	-0.122163
H118	H	0.979792	0.243987	0.377837
F119	F	0.662192	0.278655	-0.125525
F120	F	1.162192	0.778655	0.374475
F121	F	0.803217	-0.187793	-0.128259
F122	F	1.303217	0.312207	0.371741
H123	H	0.479814	0.255900	-0.122074
H124	H	0.979814	0.755900	0.377926
F125	F	0.327002	0.187684	-0.119182
F126	F	0.827002	0.687684	0.380818
F127	F	1.069714	0.187691	0.136119
F128	F	1.569714	0.687691	0.636119
F129	F	0.662153	-0.278766	-0.125607
F130	F	1.162153	0.221234	0.374393
F131	F	1.232827	-0.391661	-0.290284
F132	F	1.732827	0.108339	0.209716
H133	H	0.965851	-0.752857	-0.025085
H134	H	1.465851	-0.252857	0.474915
F135	F	1.232835	-0.608474	-0.290265
F136	F	1.732835	-0.108474	0.209735
H137	H	1.164391	-0.247267	-0.222371
H138	H	1.664391	0.252733	0.277629
H139	H	1.066262	0.164948	0.317033
H140	H	1.566262	0.664948	0.817033
F141	F	0.952119	-0.234120	-0.011546
F142	F	1.452119	0.265880	0.488454
F143	F	0.326986	-0.187811	-0.119268
F144	F	0.826986	0.312189	0.380732
F145	F	1.178118	-0.766004	-0.235895
F146	F	1.678118	-0.266004	0.264105
F147	F	0.897414	-0.608449	0.042835
F148	F	1.397414	-0.108449	0.542835
H149	H	1.064015	0.164952	0.435540
H150	H	1.564015	0.664952	0.935540
F151	F	1.065972	-0.187814	0.328667
F152	F	1.565972	0.312186	0.828667
F153	F	1.069642	-0.187817	0.136073
F154	F	1.569642	0.312183	0.636073
F155	F	0.897372	-0.391656	0.042811
F156	F	1.397372	0.108344	0.542811
F157	F	1.060518	-0.187815	0.616434
F158	F	1.560518	0.312185	1.116434
F159	F	0.803233	0.187716	-0.128193
F160	F	1.303233	0.687716	0.371807
H161	H	1.060789	0.164951	0.604803
H162	H	1.560789	0.664951	1.104803
F163	F	1.064176	-0.187820	0.423837
F164	F	1.564176	0.312180	0.923837
