data_functionalizedCrystal
_audit_creation_method	'MofGen! by Chris Wilmer'
_symmetry_space_group_name_H-M	'P1'
_symmetry_Int_Tables_number	1
_symmetry_cell_setting	triclinic
loop_
_symmetry_equiv_pos_as_xyz
  x,y,z
_cell_length_a	14.853567
_cell_length_b	14.853567
_cell_length_c	13.930277
_cell_angle_alpha	89.999243
_cell_angle_beta	89.995755
_cell_angle_gamma	83.634930
loop_
_atom_site_label
_atom_site_type_symbol
_atom_site_fract_x
_atom_site_fract_y
_atom_site_fract_z
O1	O	1.196368	0.117704	-0.079756
O2	O	0.933909	0.131725	-0.079772
O3	O	1.072149	-0.006516	-0.079767
O4	O	1.058128	0.255944	-0.079762
O5	O	1.072130	-0.006519	0.079895
O6	O	0.933890	0.131722	0.079890
O7	O	1.196349	0.117701	0.079905
Zn8	Zn	1.065116	0.124711	0.105247
Zn9	Zn	1.065142	0.124715	-0.105114
O10	O	1.058109	0.255941	0.079900
C11	C	0.900311	0.131088	0.000057
C12	C	0.800227	0.129184	0.000051
C13	C	0.387693	0.039019	0.000070
C14	C	0.366412	0.203251	0.000073
C15	C	0.460446	0.205042	0.000070
C16	C	0.518108	0.123819	0.000066
C17	C	0.481736	0.040806	0.000065
C18	C	0.496825	0.288053	0.000061
C19	C	0.590864	0.289846	0.000057
C20	C	0.648528	0.208623	0.000060
C21	C	0.612150	0.125607	0.000060
C22	C	0.669812	0.044384	0.000056
C23	C	0.633437	-0.038633	0.000063
C24	C	0.539399	-0.040417	0.000067
C25	C	0.742565	0.210407	0.000055
C26	C	0.763855	0.046172	0.000050
C27	C	1.071504	-0.040106	0.000061
C28	C	1.069601	-0.140189	0.000053
C29	C	0.979435	-0.552723	0.000066
C30	C	1.143668	-0.574004	0.000076
C31	C	1.145458	-0.479971	0.000070
C32	C	1.064235	-0.422309	0.000064
C33	C	0.981223	-0.458680	0.000063
C34	C	1.228469	-0.443591	0.000080
C35	C	1.230262	-0.349552	0.000076
C36	C	1.149039	-0.291889	0.000063
C37	C	1.066023	-0.328266	0.000061
C38	C	0.984800	-0.270604	0.000055
C39	C	0.901783	-0.306979	0.000047
C40	C	0.899999	-0.401017	0.000050
C41	C	1.150823	-0.197851	0.000059
C42	C	0.986588	-0.176561	0.000052
C43	C	1.229947	0.118337	0.000075
C44	C	1.330031	0.120241	0.000075
C45	C	1.058754	0.289531	0.000070
C46	C	1.060657	0.389615	0.000072
N47	N	1.065106	0.124708	0.248814
N48	N	1.065160	0.124711	-0.248680
C49	C	1.003926	0.185904	0.701081
C50	C	1.126382	0.063519	0.701055
C51	C	1.126371	0.063516	0.600559
C52	C	1.065138	0.124709	0.550319
C53	C	1.003916	0.185904	0.600576
C54	C	1.187598	0.002328	0.550295
C55	C	1.187591	0.002323	0.449793
C56	C	1.126353	0.063512	0.399552
C57	C	1.065127	0.124710	0.449814
C58	C	1.003894	0.185902	0.399575
C59	C	0.942664	0.247096	0.449835
C60	C	0.942677	0.247094	0.550334
C61	C	1.126339	0.063515	0.299053
C62	C	1.003883	0.185903	0.299070
H63	H	0.449870	0.354180	0.000054
N64	N	0.630084	0.379385	0.000047
H65	H	0.609061	0.414973	0.059234
H66	H	0.698400	0.368127	0.000008
N67	N	0.304226	0.290852	0.000069
H68	H	0.264740	0.293767	-0.059118
H69	H	0.264789	0.293716	0.059295
H70	H	0.892827	0.296916	0.591263
H71	H	1.237447	-0.047505	0.408877
H72	H	1.218414	-0.168238	0.000072
H73	H	0.772178	0.277998	0.000051
H74	H	1.237457	-0.047489	0.591203
N75	N	0.810466	-0.440249	0.000045
H76	H	0.821661	-0.508571	0.000054
H77	H	0.774915	-0.419161	0.059232
H78	H	1.176196	0.013696	0.258136
N79	N	0.898982	-0.114371	0.000038
H80	H	0.846125	-0.151686	0.000032
H81	H	0.896136	-0.074891	0.059227
H82	H	0.810798	-0.019971	0.000050
H83	H	1.209795	-0.620958	0.000088
N84	N	0.876622	0.313090	0.395636
H85	H	0.812628	0.302587	0.413130
H86	H	0.887155	0.377069	0.413141
N87	N	0.814188	-0.244773	0.000058
H88	H	0.811278	-0.205275	-0.059123
H89	H	0.761370	-0.282135	0.000093
N90	N	0.695628	-0.126239	0.000057
H91	H	0.735116	-0.129155	-0.059135
H92	H	0.735062	-0.129100	0.059278
N93	N	1.316061	-0.505791	0.000085
H94	H	1.352282	-0.494081	-0.059098
H95	H	1.352195	-0.494059	0.059314
H96	H	0.954016	0.235731	0.258171
N97	N	0.889898	-0.591948	0.000052
H98	H	0.901085	-0.660270	0.000052
H99	H	0.854345	-0.570863	0.059239
N100	N	1.319796	-0.310321	0.000085
H101	H	1.370977	-0.361120	0.000091
H102	H	1.324123	-0.271773	-0.059107
H103	H	0.509774	-0.108005	0.000096
H104	H	0.954071	0.235724	0.742005
N105	N	1.192423	-0.002470	0.755246
H106	H	1.157928	-0.042447	0.796954
H107	H	1.231192	-0.041179	0.708102
N108	N	0.348468	-0.050518	0.000091
H109	H	0.280146	-0.039331	0.000101
H110	H	0.369550	-0.086069	-0.059097
