data_functionalizedCrystal
_audit_creation_method	'MofGen! by Chris Wilmer'
_symmetry_space_group_name_H-M	'P1'
_symmetry_Int_Tables_number	1
_symmetry_cell_setting	triclinic
loop_
_symmetry_equiv_pos_as_xyz
  x,y,z
_cell_length_a	19.805407
_cell_length_b	21.295416
_cell_length_c	19.805399
_cell_angle_alpha	89.971630
_cell_angle_beta	90.019573
_cell_angle_gamma	89.969669
loop_
_atom_site_label
_atom_site_type_symbol
_atom_site_fract_x
_atom_site_fract_y
_atom_site_fract_z
Zn1	Zn	1.034717	0.250624	0.382716
Zn2	Zn	1.034624	0.355893	0.269526
Zn3	Zn	0.921532	0.250641	0.269541
Zn4	Zn	0.921488	0.355859	0.382673
O5	O	0.978090	0.303254	0.326114
O6	O	1.129421	0.264595	0.367713
O7	O	1.019602	0.341952	0.174811
O8	O	0.936604	0.162549	0.284578
O9	O	1.129353	0.341935	0.284553
O10	O	1.019760	0.162537	0.367727
O11	O	0.936513	0.264624	0.174822
O12	O	0.826809	0.264592	0.284536
O13	O	0.936528	0.341878	0.477395
O14	O	0.826777	0.341895	0.367654
O15	O	1.019717	0.264562	0.477427
O16	O	1.019559	0.443977	0.284511
O17	O	0.936438	0.443953	0.367640
C18	C	0.802234	0.303242	0.326092
C19	C	0.727002	0.303252	0.326099
C20	C	0.691659	0.343564	0.369308
C21	C	0.620970	0.343566	0.369318
C22	C	0.585627	0.303257	0.326114
C23	C	0.620975	0.262940	0.282903
C24	C	0.691662	0.262936	0.282897
C25	C	0.335902	0.262954	0.282925
C26	C	0.265210	0.262962	0.282932
C27	C	0.265210	0.343583	0.369346
C28	C	0.335897	0.343579	0.369340
C29	C	0.371239	0.303261	0.326132
C30	C	0.447888	0.303259	0.326123
C31	C	0.508980	0.303261	0.326119
C32	C	0.978002	0.466806	0.326084
C33	C	0.978026	0.536774	0.326094
C34	C	1.021346	0.569632	0.282855
C35	C	1.021378	0.635375	0.282873
C36	C	0.978078	0.668256	0.326123
C37	C	0.934755	0.635390	0.369371
C38	C	0.934729	0.569649	0.369356
N39	N	0.918868	0.771522	0.331281
N40	N	0.918895	0.833974	0.331291
C41	C	0.978155	0.866331	0.326171
N42	N	1.037388	0.833878	0.321028
N43	N	1.037361	0.771421	0.321015
C44	C	0.978102	0.739542	0.326144
C45	C	1.021513	0.970475	0.282950
C46	C	1.021546	1.036219	0.282973
C47	C	0.934917	1.036233	0.369467
C48	C	0.934890	0.970490	0.369447
C49	C	0.978187	0.937615	0.326185
C50	C	1.154633	0.303267	0.326136
C51	C	1.229865	0.303272	0.326146
C52	C	0.978128	0.303214	0.502657
C53	C	0.978144	0.303198	0.577889
C54	C	0.978198	1.139064	0.326170
C55	C	0.978246	1.069096	0.326224
C56	C	0.978091	0.303248	0.150258
C57	C	0.978206	0.303088	0.075026
C58	C	1.021462	0.262937	0.613250
C59	C	1.021469	0.262919	0.683939
C60	C	0.978161	0.303165	0.719264
C61	C	0.934839	0.343427	0.683898
C62	C	0.934829	0.343442	0.613210
C63	C	0.934877	0.343368	0.968971
C64	C	0.934892	0.343352	1.039663
C65	C	1.021517	0.262846	1.039700
C66	C	1.021507	0.262860	0.969012
C67	C	0.978183	0.303120	0.933652
C68	C	0.978175	0.303138	0.857003
C69	C	0.978172	0.303150	0.795912
H70	H	0.236435	0.230134	0.247751
O71	O	0.230982	0.382802	0.411350
C72	C	0.277337	0.418366	0.449492
H73	H	0.327709	0.420512	0.421755
H74	H	0.284894	0.395374	0.500939
C75	C	0.187850	0.482740	0.493193
C76	C	0.249717	0.485379	0.459124
H77	H	0.170812	0.524076	0.499138
H78	H	0.156619	0.458778	0.467499
H79	H	0.194156	0.463577	0.536063
H80	H	0.243409	0.504535	0.416252
H81	H	0.280946	0.509346	0.484811
O82	O	0.726026	0.223712	0.241017
C83	C	0.766963	0.183108	0.279627
H84	H	0.745686	0.179287	0.332945
H85	H	0.820527	0.202570	0.281915
C86	C	0.794198	0.122322	0.181200
C87	C	0.768062	0.117624	0.246685
H88	H	0.794879	0.081928	0.160879
H89	H	0.766620	0.149678	0.155187
H90	H	0.838833	0.138542	0.183116
H91	H	0.723426	0.101411	0.244768
H92	H	0.795633	0.090263	0.272697
O93	O	0.892787	0.667397	0.411417
C94	C	0.931313	0.705354	0.455187
H95	H	0.982624	0.715176	0.431364
H96	H	0.938711	0.679980	0.505348
C97	C	0.831067	0.755761	0.496679
C98	C	0.894087	0.767829	0.467417
H99	H	0.808104	0.794298	0.504227
H100	H	0.805111	0.730188	0.467193
H101	H	0.837241	0.734615	0.538477
H102	H	0.887911	0.788967	0.425616
H103	H	0.920041	0.793408	0.496897
H104	H	0.899453	0.542895	0.404567
H105	H	0.592197	0.376393	0.404502
H106	H	1.056770	0.943707	0.247725
H107	H	0.720431	0.376391	0.404487
H108	H	1.056826	1.062971	0.247764
O109	O	1.063356	0.667365	0.240819
C110	C	1.024839	0.705429	0.197070
H111	H	0.973545	0.715307	0.220915
H112	H	1.017403	0.680119	0.146908
C113	C	1.125103	0.755720	0.155543
C114	C	1.062104	0.767857	0.184833
H115	H	1.148090	0.794228	0.147992
H116	H	1.151053	0.730074	0.185015
H117	H	1.118897	0.734627	0.113745
H118	H	1.068312	0.788942	0.226634
H119	H	1.036156	0.793508	0.155368
H120	H	0.899664	1.063004	0.404685
H121	H	0.899609	0.376159	0.940189
O122	O	0.370303	0.382646	0.411344
C123	C	0.411213	0.346854	0.455136
H124	H	0.421816	0.299120	0.431352
H125	H	0.383994	0.339997	0.505309
C126	C	0.465324	0.440124	0.496534
C127	C	0.478352	0.381499	0.467320
H128	H	0.506738	0.461495	0.504053
H129	H	0.437761	0.464239	0.467032
H130	H	0.442640	0.434402	0.538342
H131	H	0.501028	0.387222	0.425509
H132	H	0.505921	0.357386	0.496815
O133	O	0.892831	0.382501	0.718315
C134	C	0.902117	0.373845	0.788289
H135	H	0.954367	0.353233	0.797960
H136	H	0.861995	0.340315	0.808351
C137	C	0.831700	0.462847	0.812682
C138	C	0.895878	0.437535	0.824560
H139	H	0.827849	0.502132	0.835057
H140	H	0.825442	0.468677	0.765539
H141	H	0.798273	0.434899	0.829400
H142	H	0.929303	0.465479	0.807834
H143	H	0.902141	0.431711	0.871701
O144	O	0.892786	0.382360	1.074056
C145	C	0.849095	0.346505	1.114938
H146	H	0.873003	0.298800	1.125541
H147	H	0.798933	0.339589	1.087694
C148	C	0.807470	0.439714	1.169051
C149	C	0.836837	0.381124	1.182078
H150	H	0.799905	0.461069	1.210465
H151	H	0.836903	0.463871	1.141506
H152	H	0.765671	0.433943	1.146346
H153	H	0.878638	0.386896	1.204775
H154	H	0.807410	0.356969	1.209629
H155	H	1.056792	0.230062	1.068499
H156	H	0.364669	0.230129	0.247737
H157	H	0.592192	0.230118	0.247728
H158	H	0.899548	0.376219	0.584420
H159	H	1.056602	0.542868	0.247630
H160	H	0.899612	0.943735	0.404654
H161	H	1.056730	0.230166	0.584493
O162	O	1.063614	0.223792	0.718184
C163	C	1.101828	0.188267	0.671848
H164	H	1.104145	0.214063	0.621453
H165	H	1.077077	0.140456	0.664337
C166	C	1.171030	0.147515	0.761347
C167	C	1.173881	0.179201	0.699454
H168	H	1.215475	0.141920	0.778376
H169	H	1.145283	0.171447	0.792566
H170	H	1.150401	0.107676	0.755080
H171	H	1.194502	0.219042	0.705723
H172	H	1.199633	0.155275	0.668236
H173	H	1.056775	0.230090	0.940254
