data_functionalizedCrystal
_audit_creation_method	'MofGen! by Chris Wilmer'
_symmetry_space_group_name_H-M	'P1'
_symmetry_Int_Tables_number	1
_symmetry_cell_setting	triclinic
loop_
_symmetry_equiv_pos_as_xyz
  x,y,z
_cell_length_a	19.188928
_cell_length_b	14.519709
_cell_length_c	12.996460
_cell_angle_alpha	89.998766
_cell_angle_beta	89.977105
_cell_angle_gamma	83.411978
loop_
_atom_site_label
_atom_site_type_symbol
_atom_site_fract_x
_atom_site_fract_y
_atom_site_fract_z
O1	O	-0.926558	-0.115119	0.085967
O2	O	-0.426558	0.384881	0.585967
O3	O	-0.723302	-0.130620	0.085882
O4	O	-0.223302	0.369380	0.585882
O5	O	-0.830319	0.011403	0.085918
O6	O	-0.330319	0.511403	0.585918
O7	O	-0.819541	-0.257141	0.085932
O8	O	-0.319541	0.242859	0.585932
O9	O	-0.830305	0.011394	-0.085216
O10	O	-0.330305	0.511394	0.414784
O11	O	-0.723288	-0.130628	-0.085252
O12	O	-0.223288	0.369372	0.414748
O13	O	-0.926544	-0.115127	-0.085167
O14	O	-0.426544	0.384873	0.414833
Cu15	Cu	-0.824915	-0.122878	-0.100835
Cu16	Cu	-0.324915	0.377122	0.399165
Cu17	Cu	-0.824931	-0.122869	0.101551
Cu18	Cu	-0.324931	0.377131	0.601551
O19	O	-0.819527	-0.257150	-0.085202
O20	O	-0.319527	0.242850	0.414798
C21	C	-0.697282	-0.130123	0.000304
C22	C	-0.197282	0.369877	0.500304
C23	C	-0.619772	-0.128617	0.000272
C24	C	-0.119772	0.371383	0.500272
C25	C	-0.829810	0.045755	0.000350
C26	C	-0.329810	0.545755	0.500350
C27	C	-0.828305	0.148127	0.000349
C28	C	-0.328305	0.648127	0.500349
C29	C	-0.575145	-0.211951	0.000289
C30	C	-0.075145	0.288049	0.500289
C31	C	-0.502316	-0.210536	0.000295
C32	C	-0.002316	0.289464	0.500295
C33	C	-0.474117	-0.125783	0.000304
C34	C	0.025883	0.374217	0.500304
C35	C	-0.518755	-0.042438	0.000281
C36	C	-0.018755	0.457562	0.500281
C37	C	-0.591582	-0.043855	0.000265
C38	C	-0.091582	0.456145	0.500265
N39	N	-0.365911	-0.060997	0.058578
N40	N	0.134089	0.439003	0.558578
N41	N	-0.296728	-0.059657	0.058596
N42	N	0.203272	0.440343	0.558596
C43	C	-0.254693	-0.121508	0.000351
C44	C	0.245307	0.378492	0.500351
N45	N	-0.284455	-0.184764	-0.057900
N46	N	0.215545	0.315236	0.442100
N47	N	-0.353644	-0.186108	-0.057913
N48	N	0.146356	0.313892	0.442087
C49	C	-0.395149	-0.124237	0.000321
C50	C	0.104851	0.375763	0.500321
C51	C	-0.131096	-0.203314	0.000373
C52	C	0.368904	0.296686	0.500373
C53	C	-0.058266	-0.201896	0.000373
C54	C	0.441734	0.298104	0.500373
C55	C	-0.074707	-0.033795	0.000369
C56	C	0.425293	0.466205	0.500369
C57	C	-0.147535	-0.035215	0.000359
C58	C	0.352465	0.464785	0.500359
C59	C	-0.175725	-0.119978	0.000366
C60	C	0.324275	0.380022	0.500366
N61	N	-0.824908	-0.122885	-0.243182
N62	N	-0.324908	0.377115	0.256818
C63	C	0.047436	-0.115627	0.000395
C64	C	0.547436	0.384373	0.500395
C65	C	-0.030073	-0.117141	0.000380
C66	C	0.469927	0.382859	0.500380
C67	C	-0.820036	-0.291502	0.000368
C68	C	-0.320036	0.208498	0.500368
C69	C	-0.821541	-0.393874	0.000375
C70	C	-0.321541	0.106126	0.500375
C71	C	-0.822763	0.522988	0.000374
C72	C	-0.322763	1.022988	0.500374
C73	C	-0.824302	0.418690	0.000367
C74	C	-0.324302	0.918690	0.500367
C75	C	-0.825534	0.335561	0.000360
C76	C	-0.325534	0.835561	0.500360
C77	C	-0.827073	0.231256	0.000355
C78	C	-0.327073	0.731256	0.500355
C79	C	-0.824912	-0.122887	-0.336288
C80	C	-0.324912	0.377113	0.163712
C81	C	-0.824918	-0.122881	-0.453093
C82	C	-0.324918	0.377119	0.046907
C83	C	-0.824927	-0.122871	-0.546191
C84	C	-0.324927	0.377129	-0.046191
C85	C	-0.824934	-0.122865	-0.663004
C86	C	-0.324934	0.377135	-0.163004
N87	N	-0.824943	-0.122855	0.243898
N88	N	-0.324943	0.377145	0.743898
H89	H	-0.598092	-0.280971	0.000297
H90	H	-0.098092	0.219029	0.500297
H91	H	-0.465973	-0.278399	0.000306
H92	H	0.034027	0.221601	0.500306
H93	H	-0.154050	-0.272332	0.000364
H94	H	0.345950	0.227668	0.500364
H95	H	-0.627918	0.024008	0.000251
H96	H	-0.127918	0.524008	0.500251
O97	O	-0.491332	0.039868	0.000475
O98	O	0.008668	0.539868	0.500475
C99	C	-0.449720	0.045712	0.089106
C100	C	0.050280	0.545712	0.589106
H101	H	-0.467029	-0.002406	0.151050
H102	H	0.032971	0.497594	0.651050
H103	H	-0.392309	0.024204	0.069084
H104	H	0.107691	0.524204	0.569084
C105	C	-0.437177	0.205249	0.053209
C106	C	0.062823	0.705249	0.553209
C107	C	-0.458440	0.146155	0.129294
C108	C	0.041560	0.646155	0.629294
H109	H	-0.442553	0.267206	0.077997
H110	H	0.057447	0.767206	0.577997
H111	H	-0.465210	0.201311	-0.006505
H112	H	0.034790	0.701311	0.493495
H113	H	-0.389336	0.187314	0.036531
H114	H	0.110664	0.687314	0.536531
H115	H	-0.506282	0.164083	0.145961
H116	H	-0.006282	0.664083	0.645961
H117	H	-0.430415	0.150098	0.189012
H118	H	0.069585	0.650098	0.689012
H119	H	-0.021931	-0.269759	0.000381
H120	H	0.478069	0.230241	0.500381
H121	H	-0.051748	0.035213	0.000440
H122	H	0.448252	0.535213	0.500440
H123	H	-0.183872	0.032644	0.000351
H124	H	0.316128	0.532644	0.500351
