data_functionalizedCrystal
_audit_creation_method	'MofGen! by Chris Wilmer'
_symmetry_space_group_name_H-M	'P1'
_symmetry_Int_Tables_number	1
_symmetry_cell_setting	triclinic
loop_
_symmetry_equiv_pos_as_xyz
  x,y,z
_cell_length_a	19.902436
_cell_length_b	14.560438
_cell_length_c	14.560438
_cell_angle_alpha	59.997945
_cell_angle_beta	89.996219
_cell_angle_gamma	60.007781
loop_
_atom_site_label
_atom_site_type_symbol
_atom_site_fract_x
_atom_site_fract_y
_atom_site_fract_z
Zr1	Zr	0.647334	1.005322	-0.120614
O2	O	0.540072	1.196897	-0.267242
O3	O	0.680204	0.813737	-0.075667
O4	O	0.680221	1.005330	-0.267268
O5	O	0.540055	1.005301	0.075500
O6	O	0.790787	1.005348	-0.267286
O7	O	0.540055	1.005304	-0.075641
O8	O	0.790756	0.662623	0.075454
O9	O	0.540085	1.348026	-0.267240
O10	O	0.776751	0.892556	-0.056508
O11	O	0.694237	0.892541	0.056300
O12	O	0.694257	1.118116	-0.169286
O13	O	0.611743	1.118101	-0.056478
Zr14	Zr	0.823674	1.005346	0.120410
Zr15	Zr	0.823674	1.005350	-0.120642
Zr16	Zr	0.647334	1.005318	0.120438
Zr17	Zr	0.647356	1.246355	-0.120610
Zr18	Zr	0.823652	0.764313	0.120406
O19	O	0.790804	1.196931	0.075463
O20	O	0.790804	1.196937	-0.267283
O21	O	0.540072	1.196891	0.075503
O22	O	0.930937	0.813772	0.267038
O23	O	0.930936	0.813778	-0.075707
O24	O	0.680204	0.813731	0.267079
O25	O	0.930953	1.005367	-0.075704
O26	O	0.790787	1.005339	0.267064
O27	O	0.680221	1.005321	0.267082
O28	O	0.930954	1.005364	0.075437
O29	O	0.680252	1.348048	-0.267262
O30	O	0.790756	0.662620	0.267058
O31	O	0.930923	0.662643	0.267036
O32	O	0.930923	0.662646	0.075432
O33	O	0.540085	1.348023	-0.075636
O34	O	0.680252	1.348045	-0.075658
O35	O	0.776751	0.892552	0.169082
O36	O	0.859265	0.892567	0.056274
O37	O	0.776771	1.118128	-0.056504
O38	O	0.694257	1.118113	0.056304
C39	C	0.735477	0.703838	-0.000107
C40	C	0.735468	0.601513	-0.000108
C41	C	0.796394	0.470205	0.083147
C42	C	0.796429	0.374025	0.083156
C43	C	0.674608	0.540476	-0.083356
C44	C	0.674571	0.636654	-0.083359
C45	C	0.866728	0.374105	0.179279
C46	C	0.866763	0.277925	0.179288
C47	C	0.514930	1.005299	-0.000067
C48	C	0.440069	1.005287	-0.000055
C49	C	0.168021	1.005350	-0.000118
C50	C	0.248550	0.863063	0.070686
C51	C	0.326453	0.862973	0.071085
C52	C	0.302988	1.005318	-0.000086
C53	C	0.248874	1.075979	0.051807
C54	C	0.171312	1.075070	0.052325
C55	C	0.170173	1.077995	-0.122845
C56	C	0.249050	1.075321	-0.122651
C57	C	0.379262	1.005307	-0.000070
C58	C	0.091744	1.005365	-0.000130
C59	C	0.956078	1.005370	-0.000137
C60	C	1.030939	1.005382	-0.000149
C61	C	0.735504	1.005339	-0.301622
C62	C	0.735504	1.005341	-0.403955
C63	C	0.735531	1.306830	-0.000097
C64	C	0.735540	1.409155	-0.000096
C65	C	0.692440	1.123079	-0.510900
C66	C	0.692442	1.123073	-0.607048
C67	C	0.778574	0.887580	-0.489293
C68	C	0.778576	0.887588	-0.393147
C69	C	0.642709	1.259039	-0.578886
C70	C	0.642711	1.259033	-0.675034
C71	C	0.735504	1.005329	0.301417
C72	C	0.735504	1.005327	0.403750
C73	C	0.956051	0.703874	-0.000142
C74	C	1.030903	0.601561	-0.000156
C75	C	0.735477	0.703833	0.301413
C76	C	0.735468	0.601506	0.403744
C77	C	0.956051	0.703868	0.301377
C78	C	1.030903	0.601554	0.403697
C79	C	0.514957	1.306800	-0.301581
C80	C	0.440105	1.409115	-0.403901
C81	C	0.514957	1.306795	-0.000062
C82	C	0.440105	1.409108	-0.000048
C83	C	0.735531	1.306835	-0.301617
C84	C	0.735540	1.409162	-0.403948
C85	C	1.022982	0.553507	-0.059043
C86	C	1.093307	0.457387	-0.059078
C87	C	1.171551	0.409315	-0.000219
C88	C	1.179469	0.457377	0.058670
C89	C	1.109146	0.553503	0.058698
C90	C	1.109133	0.553514	0.392862
C91	C	1.179471	0.457392	0.488993
C92	C	1.171577	0.409305	0.595957
C93	C	1.093339	0.457354	0.606789
C94	C	1.023003	0.553481	0.510659
C95	C	0.361875	1.457166	-0.393066
C96	C	0.291537	1.553318	-0.489197
C97	C	0.299431	1.601410	-0.596161
C98	C	0.377669	1.553355	-0.606993
C99	C	0.448006	1.457211	-0.510864
C100	C	0.448026	1.457171	0.058829
C101	C	0.377702	1.553318	0.058838
C102	C	0.299458	1.601394	-0.000025
C103	C	0.291539	1.553326	-0.058909
C104	C	0.361862	1.457188	-0.058924
C105	C	0.778537	0.553434	0.510690
C106	C	0.778522	0.457292	0.606838
C107	C	0.692368	0.457299	0.489078
C108	C	0.692379	0.553446	0.392934
C109	C	0.828280	0.553425	0.578678
C110	C	0.828264	0.457283	0.674826
H111	H	0.625028	0.569073	-0.151136
H112	H	0.813653	0.791714	-0.306070
H113	H	0.624957	0.743569	-0.151151
H114	H	0.511730	1.418035	0.106769
Br115	Br	0.856614	0.356057	0.316147
H116	H	0.511702	1.418088	-0.519698
H117	H	0.227839	1.592429	-0.480355
H118	H	0.959279	0.592647	-0.106987
Br119	Br	0.959936	0.374207	0.151242
Br120	Br	0.171624	0.991374	0.202848
H121	H	0.250240	0.807210	0.036061
Br122	Br	0.388468	1.618528	0.138761
Br123	Br	1.119869	0.618760	0.247709
Br124	Br	0.697397	1.329382	-0.759939
H125	H	0.227823	1.592484	-0.106834
Br126	Br	0.633891	0.392073	0.474417
H127	H	0.242202	1.679676	-0.000004
Br128	Br	1.285640	0.392199	0.474266
H129	H	0.355402	1.418057	-0.106866
H130	H	0.657299	0.592596	0.305856
H131	H	1.086843	0.418266	-0.107033
Br132	Br	1.285664	0.392119	0.138549
Br133	Br	0.532953	1.346015	-0.762019
Br134	Br	0.966951	0.172840	0.165646
H135	H	0.355432	1.418015	-0.305980
Br136	Br	0.916836	0.618661	0.525384
Br137	Br	0.782189	0.703437	0.578709
H138	H	0.854484	0.218236	0.255770
Br139	Br	0.934410	0.493231	0.564099
H140	H	0.795454	0.493406	0.725755
H141	H	0.813642	0.791710	-0.480507
H142	H	1.228806	0.331042	-0.000250
Br143	Br	0.688822	1.346070	-0.578919
Br144	Br	0.203966	1.731893	-0.726613
H145	H	0.249293	0.807492	0.160674
Br146	Br	0.938019	0.307280	0.761839
H147	H	0.384087	1.592523	-0.694095
H148	H	0.365836	0.807553	0.036260
H149	H	1.086924	0.418188	0.693892
H150	H	1.115606	0.592615	0.106657
H151	H	0.579032	1.301222	-0.570147
H152	H	0.365542	0.807024	0.161626
Br153	Br	0.215935	1.250429	-0.030009
Br154	Br	0.076261	1.249063	-0.028080
H155	H	0.286324	1.026903	0.141261
H156	H	0.167179	1.032460	-0.166193
Br157	Br	1.267043	0.278845	0.726409
Br158	Br	0.311247	0.989442	-0.187267
H159	H	0.230536	1.179170	-0.179844
H160	H	0.113411	1.182815	-0.175846
