data_functionalizedCrystal
_audit_creation_method	'MofGen! by Chris Wilmer'
_symmetry_space_group_name_H-M	'P1'
_symmetry_Int_Tables_number	1
_symmetry_cell_setting	triclinic
loop_
_symmetry_equiv_pos_as_xyz
  x,y,z
_cell_length_a	11.026607
_cell_length_b	12.376457
_cell_length_c	11.026607
_cell_angle_alpha	103.801422
_cell_angle_beta	71.413983
_cell_angle_gamma	103.813714
loop_
_atom_site_label
_atom_site_type_symbol
_atom_site_fract_x
_atom_site_fract_y
_atom_site_fract_z
O1	O	1.745836	0.094003	-0.514537
O2	O	1.379256	0.094004	-0.453773
O3	O	1.532163	0.094000	-0.300866
O4	O	1.592928	0.094007	-0.667445
O5	O	1.493939	-0.094011	-0.339030
O6	O	1.341032	-0.094006	-0.491937
O7	O	1.707612	-0.094008	-0.552701
Zn8	Zn	1.518253	-0.123858	-0.528379
Zn9	Zn	1.568615	0.123854	-0.478096
O10	O	1.554705	-0.094003	-0.705608
C11	C	1.312485	-0.000001	-0.461646
C12	C	1.170471	-0.000000	-0.428228
C13	C	1.116822	0.000003	-0.520497
C14	C	0.970043	0.000003	-0.485962
N15	N	1.483892	-0.292915	-0.562696
C16	C	1.682742	-0.647907	-0.364082
C17	C	1.706785	-0.529568	-0.340062
C18	C	1.651063	-0.470399	-0.395718
C19	C	1.571296	-0.529581	-0.475400
C20	C	1.547259	-0.647931	-0.499431
C21	C	1.515580	-0.470423	-0.531067
C22	C	1.435813	-0.529605	-0.610749
C23	C	1.411779	-0.647944	-0.634776
C24	C	1.467501	-0.707113	-0.579119
C25	C	1.539617	-0.352073	-0.507035
C26	C	1.404133	-0.352097	-0.642384
C27	C	1.380091	-0.470436	-0.666405
C28	C	1.774384	-0.000001	-0.544829
C29	C	1.916399	0.000006	-0.578244
C30	C	1.501842	-0.000004	-0.272288
C31	C	1.468426	-0.000000	-0.130273
N32	N	1.602984	0.292912	-0.443770
C33	C	1.585026	0.000003	-0.734186
C34	C	1.618444	0.000006	-0.876199
C35	C	1.560696	0.000001	-0.076624
C36	C	1.526161	0.000005	0.070156
H37	H	0.979125	0.000001	-0.682816
H38	H	1.107743	0.000027	-0.323660
H39	H	1.179554	-0.000002	-0.625061
Cl40	Cl	0.873200	-0.000008	-0.324515
H41	H	1.604564	-0.303897	-0.442159
H42	H	1.665257	-0.000007	-0.139359
Cl43	Cl	1.681285	-0.321627	-0.365515
Cl44	Cl	1.364714	0.000017	0.166999
H45	H	1.315143	-0.518637	-0.731285
Cl46	Cl	1.779895	0.000011	0.026964
H47	H	1.771732	-0.481386	-0.275187
H48	H	1.363864	0.000008	-0.067539
Cl49	Cl	1.752797	-0.722291	-0.294135
H50	H	1.447922	-0.803475	-0.598672
Cl51	Cl	1.311519	-0.722346	-0.734964
H52	H	1.358763	-0.303923	-0.687708
