data_functionalizedCrystal
_audit_creation_method	'MofGen! by Chris Wilmer'
_symmetry_space_group_name_H-M	'P1'
_symmetry_Int_Tables_number	1
_symmetry_cell_setting	triclinic
loop_
_symmetry_equiv_pos_as_xyz
  x,y,z
_cell_length_a	12.594517
_cell_length_b	25.639239
_cell_length_c	12.594510
_cell_angle_alpha	89.959196
_cell_angle_beta	89.988729
_cell_angle_gamma	90.035172
loop_
_atom_site_label
_atom_site_type_symbol
_atom_site_fract_x
_atom_site_fract_y
_atom_site_fract_z
Zn1	Zn	1.627093	-0.208161	-0.601533
Zn2	Zn	2.127093	0.291839	-0.101533
Zn3	Zn	1.626912	-0.295613	-0.423534
Zn4	Zn	2.126912	0.204387	0.076466
Zn5	Zn	1.449097	-0.208187	-0.423592
Zn6	Zn	1.949097	0.291813	0.076408
Zn7	Zn	1.449007	-0.295561	-0.601495
Zn8	Zn	1.949007	0.204439	-0.101495
O9	O	1.538027	-0.251880	-0.512538
O10	O	2.038027	0.248120	-0.012538
O11	O	1.776015	-0.219772	-0.577912
O12	O	2.276015	0.280228	-0.077912
O13	O	1.603287	-0.284048	-0.274596
O14	O	2.103287	0.215952	0.225404
O15	O	1.472822	-0.135018	-0.447236
O16	O	1.972822	0.364982	0.052764
O17	O	1.775882	-0.284023	-0.447137
O18	O	2.275882	0.215977	0.052863
O19	O	1.603595	-0.134999	-0.577969
O20	O	2.103595	0.365001	-0.077969
O21	O	1.472647	-0.219816	-0.274638
O22	O	1.972647	0.280184	0.225362
O23	O	1.300140	-0.219766	-0.447200
O24	O	1.800140	0.280234	0.052800
O25	O	1.472668	-0.283935	-0.750446
O26	O	1.972668	0.216065	-0.250446
O27	O	1.300073	-0.283960	-0.577904
O28	O	1.800073	0.216040	-0.077904
O29	O	1.603507	-0.219722	-0.750473
O30	O	2.103507	0.280278	-0.250473
O31	O	1.603199	-0.368771	-0.447101
O32	O	2.103199	0.131229	0.052899
O33	O	1.472493	-0.368733	-0.577848
O34	O	1.972493	0.131267	-0.077848
C35	C	1.261486	-0.251860	-0.512554
C36	C	1.761486	0.248140	-0.012554
C37	C	1.143181	-0.251865	-0.512587
C38	C	1.643181	0.248135	-0.012587
C39	C	1.073922	-0.286848	-0.583539
C40	C	1.573922	0.213152	-0.083539
C41	C	1.003153	-0.239176	-0.609728
C42	C	1.503153	0.260824	-0.109728
C43	C	1.003151	-0.299576	-0.486374
C44	C	1.503151	0.200424	0.013626
C45	C	1.073970	-0.204167	-0.538827
C46	C	1.573970	0.295833	-0.038827
C47	C	1.073974	-0.264600	-0.415427
C48	C	1.573974	0.235400	0.084573
C49	C	1.003237	-0.216895	-0.441579
C50	C	1.503237	0.283105	0.058421
C51	C	1.537845	-0.387723	-0.512487
C52	C	2.037845	0.112277	-0.012487
C53	C	1.537865	-0.445837	-0.512500
C54	C	2.037865	0.054163	-0.012500
C55	C	1.469956	-0.697023	-0.580597
C56	C	1.969956	-0.197023	-0.080597
C57	C	1.469916	-0.642419	-0.580584
C58	C	1.969916	-0.142419	-0.080584
O59	O	1.412003	-0.614176	-0.638446
O60	O	1.912003	-0.114176	-0.138446
N61	N	1.537999	-0.615111	-0.512556
N62	N	2.037999	-0.115111	-0.012556
C63	C	1.606133	-0.642410	-0.444544
C64	C	2.106133	-0.142410	0.055456
O65	O	1.664040	-0.614168	-0.386680
O66	O	2.164040	-0.114168	0.113320
C67	C	1.606177	-0.697013	-0.444562
C68	C	2.106177	-0.197013	0.055438
C69	C	1.538082	-0.724318	-0.512587
C70	C	2.038082	-0.224318	-0.012587
C71	C	1.401867	-0.724328	-0.648617
C72	C	1.901867	-0.224328	-0.148617
C73	C	1.401906	-0.778929	-0.648627
C74	C	1.901906	-0.278929	-0.148627
C75	C	1.470032	-0.806224	-0.580618
C76	C	1.970032	-0.306224	-0.080618
C77	C	1.538121	-0.778919	-0.512598
C78	C	2.038121	-0.278919	-0.012598
C79	C	1.674316	-0.724311	-0.376556
C80	C	2.174316	-0.224311	0.123444
C81	C	1.674355	-0.778918	-0.376581
C82	C	2.174355	-0.278918	0.123419
C83	C	1.606260	-0.806224	-0.444606
C84	C	2.106260	-0.306224	0.055394
C85	C	1.606286	-0.860815	-0.444599
C86	C	2.106286	-0.360815	0.055401
N87	N	1.538203	-0.888123	-0.512627
N88	N	2.038203	-0.388123	-0.012627
C89	C	1.470076	-0.860827	-0.580636
C90	C	1.970076	-0.360827	-0.080636
C91	C	1.606037	-0.527739	-0.444511
C92	C	2.106037	-0.027739	0.055489
C93	C	1.605988	-0.473137	-0.444486
C94	C	2.105988	0.026863	0.055514
C95	C	1.469772	-0.473150	-0.580529
C96	C	1.969772	0.026850	-0.080529
C97	C	1.469816	-0.527753	-0.580547
C98	C	1.969816	-0.027753	-0.080547
C99	C	1.537954	-0.555047	-0.512539
C100	C	2.037954	-0.055047	-0.012539
C101	C	1.470161	-0.975492	-0.580653
C102	C	1.970161	-0.475492	-0.080653
C103	C	1.470202	-1.030098	-0.580655
C104	C	1.970202	-0.530098	-0.080655
C105	C	1.606422	-1.030080	-0.444617
C106	C	2.106422	-0.530080	0.055383
C107	C	1.606377	-0.975480	-0.444611
C108	C	2.106377	-0.475480	0.055389
C109	C	1.538243	-0.948187	-0.512638
C110	C	2.038243	-0.448187	-0.012638
O111	O	1.664173	-0.889092	-0.386769
O112	O	2.164173	-0.389092	0.113231
O113	O	1.412189	-0.889075	-0.638500
O114	O	1.912189	-0.389075	-0.138500
C115	C	1.815648	-0.251900	-0.512523
C116	C	2.315648	0.248100	-0.012523
C117	C	1.933954	-0.251909	-0.512516
C118	C	2.433954	0.248091	-0.012516
C119	C	1.538098	-0.251820	-0.790159
C120	C	2.038098	0.248180	-0.290159
C121	C	1.538128	-0.251794	-0.908465
C122	C	2.038128	0.248206	-0.408465
C123	C	1.538239	-0.115507	-0.512613
C124	C	2.038239	0.384493	-0.012613
C125	C	1.538329	-0.057393	-0.512645
C126	C	2.038329	0.442607	-0.012645
C127	C	1.609312	-0.216867	-0.977733
C128	C	2.109312	0.283133	-0.477733
C129	C	1.512247	-0.204065	-1.048544
C130	C	2.012247	0.295935	-0.548544
C131	C	1.635250	-0.264559	-1.048453
C132	C	2.135250	0.235441	-0.548453
C133	C	1.441010	-0.238969	-0.977717
C134	C	1.941010	0.261031	-0.477717
C135	C	1.564079	-0.299484	-0.977621
C136	C	2.064079	0.200516	-0.477621
C137	C	1.466947	-0.286701	-1.048399
C138	C	1.966947	0.213299	-0.548399
C139	C	1.538019	-0.251903	-0.235997
C140	C	2.038019	0.248097	0.264003
C141	C	1.538195	-0.251781	-0.117692
C142	C	2.038195	0.248219	0.382308
H143	H	1.104963	-0.316375	-0.643619
H144	H	1.604963	0.183625	-0.143619
F145	F	1.483586	-0.151345	-1.089266
F146	F	1.983586	0.348655	-0.589266
H147	H	1.406708	-0.316233	-1.079232
H148	H	1.906708	0.183767	-0.579232
H149	H	1.669405	-0.187312	-0.946701
H150	H	2.169405	0.312688	-0.446701
F151	F	1.742569	-0.278679	-1.089067
F152	F	2.242569	0.221321	-0.589067
H153	H	1.729845	-0.801139	-0.321202
H154	H	2.229845	-0.301139	0.178798
F155	F	1.746802	-0.695263	-0.304162
F156	F	2.246802	-0.195263	0.195838
F157	F	1.114637	-0.278669	-0.308084
F158	F	1.614637	0.221331	0.191916
H159	H	0.972045	-0.228420	-0.691864
H160	H	1.472045	0.271580	-0.191864
H161	H	0.972395	-0.187295	-0.381547
H162	H	1.472395	0.312705	0.118453
F163	F	1.114455	-0.151436	-0.567889
F164	F	1.614455	0.348564	-0.067889
H165	H	0.972039	-0.339907	-0.464236
H166	H	1.472039	0.160093	0.035764
F167	F	1.397723	-1.059155	-0.653059
F168	F	1.897723	-0.559155	-0.153059
H169	H	1.661815	-0.953248	-0.389208
H170	H	2.161815	-0.453248	0.110792
H171	H	1.358880	-0.228120	-0.946775
H172	H	1.858880	0.271880	-0.446775
F173	F	1.678926	-1.059140	-0.372243
F174	F	2.178926	-0.559140	0.127757
H175	H	1.414682	-0.953277	-0.636048
H176	H	1.914682	-0.453277	-0.136048
F177	F	1.592778	-0.352191	-0.936870
F178	F	2.092778	0.147809	-0.436870
H179	H	1.346454	-0.801156	-0.704019
H180	H	1.846454	-0.301156	-0.204019
F181	F	1.329353	-0.695287	-0.721010
F182	F	1.829353	-0.195287	-0.221010
F183	F	1.397342	-0.556808	-0.652948
F184	F	1.897342	-0.056808	-0.152948
H185	H	1.414301	-0.450916	-0.635907
H186	H	1.914301	0.049084	-0.135907
H187	H	1.661521	-0.549959	-0.389122
H188	H	2.161521	-0.049959	0.110878
F189	F	1.678452	-0.444083	-0.372073
F190	F	2.178452	0.055917	0.127927
