data_functionalizedCrystal
_audit_creation_method	'MofGen! by Chris Wilmer'
_symmetry_space_group_name_H-M	'P1'
_symmetry_Int_Tables_number	1
_symmetry_cell_setting	triclinic
loop_
_symmetry_equiv_pos_as_xyz
  x,y,z
_cell_length_a	19.288864
_cell_length_b	9.798715
_cell_length_c	19.288865
_cell_angle_alpha	89.991627
_cell_angle_beta	96.863755
_cell_angle_gamma	90.017526
loop_
_atom_site_label
_atom_site_type_symbol
_atom_site_fract_x
_atom_site_fract_y
_atom_site_fract_z
O1	O	0.921348	0.113944	-0.086646
O2	O	1.254681	0.447278	0.246687
O3	O	1.588014	0.780611	0.580021
O4	O	0.719087	0.113853	-0.098335
O5	O	1.052420	0.447186	0.234998
O6	O	1.385754	0.780520	0.568332
O7	O	0.826062	0.113874	0.008640
O8	O	1.159395	0.447208	0.341973
O9	O	1.492728	0.780541	0.675306
O10	O	0.814373	0.113923	-0.193621
O11	O	1.147706	0.447256	0.139713
O12	O	1.481040	0.780590	0.473046
O13	O	0.826054	-0.113108	0.008640
O14	O	1.159387	0.220225	0.341973
O15	O	1.492720	0.553559	0.675307
O16	O	0.719079	-0.113129	-0.098335
O17	O	1.052412	0.220204	0.234999
O18	O	1.385746	0.553537	0.568332
O19	O	0.921340	-0.113038	-0.086646
O20	O	1.254673	0.220295	0.246687
O21	O	1.588006	0.553629	0.580021
Zn22	Zn	0.820208	-0.149122	-0.092490
Zn23	Zn	1.153541	0.184211	0.240843
Zn24	Zn	1.486875	0.517545	0.574176
Zn25	Zn	0.820219	0.149937	-0.092491
Zn26	Zn	1.153552	0.483270	0.240843
Zn27	Zn	1.486885	0.816604	0.574176
O28	O	0.814365	-0.113059	-0.193621
O29	O	1.147698	0.220274	0.139713
O30	O	1.481032	0.553607	0.473046
C31	C	0.693207	0.000350	-0.097959
C32	C	1.026540	0.333683	0.235375
C33	C	1.359873	0.667016	0.568708
C34	C	0.616103	0.000314	-0.096830
C35	C	0.949436	0.333647	0.236504
C36	C	1.282770	0.666980	0.569837
C37	C	0.571407	0.000350	-0.159598
C38	C	0.904740	0.333684	0.173736
C39	C	1.238073	0.667017	0.507069
C40	C	0.498960	0.000365	-0.158537
C41	C	0.832293	0.333699	0.174796
C42	C	1.165626	0.667032	0.508130
C43	C	0.471212	0.000371	-0.094705
C44	C	0.804545	0.333704	0.238629
C45	C	1.137879	0.667038	0.571962
C46	C	0.515918	0.000327	-0.031929
C47	C	0.849252	0.333660	0.301405
C48	C	1.182585	0.666993	0.634738
C49	C	0.588364	0.000298	-0.032991
C50	C	0.921697	0.333631	0.300342
C51	C	1.255030	0.666965	0.633676
C52	C	0.362953	0.079927	-0.044526
C53	C	0.696286	0.413260	0.288808
C54	C	1.029620	0.746593	0.622141
C55	C	0.290508	0.079963	-0.043466
C56	C	0.623842	0.413297	0.289868
C57	C	0.957175	0.746630	0.623201
C58	C	0.247767	0.000453	-0.091425
C59	C	0.581100	0.333786	0.241908
C60	C	0.914433	0.667119	0.575242
C61	C	0.277476	-0.079077	-0.140456
C62	C	0.610810	0.254256	0.192877
C63	C	0.944143	0.587589	0.526211
C64	C	0.349922	-0.079106	-0.141519
C65	C	0.683255	0.254227	0.191815
C66	C	1.016589	0.587561	0.525148
C67	C	0.392658	0.000401	-0.093546
C68	C	0.725991	0.333734	0.239788
C69	C	1.059325	0.667068	0.573121
C70	C	0.124514	0.000503	-0.153047
C71	C	0.457848	0.333837	0.180286
C72	C	0.791181	0.667170	0.513619
C73	C	0.052066	0.000510	-0.151984
C74	C	0.385400	0.333843	0.181349
C75	C	0.718733	0.667176	0.514683
C76	C	0.069026	0.000485	-0.025374
C77	C	0.402360	0.333818	0.307960
C78	C	0.735693	0.667151	0.641293
C79	C	0.141473	0.000465	-0.026439
C80	C	0.474806	0.333798	0.306894
C81	C	0.808140	0.667131	0.640228
C82	C	0.169212	0.000480	-0.090278
C83	C	0.502546	0.333814	0.243056
C84	C	0.835879	0.667147	0.576389
N85	N	0.820206	-0.353222	-0.092490
N86	N	1.153539	-0.019888	0.240844
N87	N	1.486873	0.313445	0.574177
C88	C	0.865124	-0.420990	-0.047378
C89	C	1.198457	-0.087656	0.285955
C90	C	1.531791	0.245677	0.619288
C91	C	0.865135	-0.578152	-0.047376
C92	C	1.198469	-0.244819	0.285958
C93	C	1.531802	0.088514	0.619291
C94	C	0.947220	0.000468	-0.087022
C95	C	1.280553	0.333802	0.246311
C96	C	1.613887	0.667135	0.579645
C97	C	1.024324	0.000513	-0.088151
C98	C	1.357657	0.333846	0.245182
C99	C	1.690990	0.667180	0.578516
C100	C	0.825682	0.000379	0.034516
C101	C	1.159015	0.333712	0.367850
C102	C	1.492348	0.667046	0.701183
C103	C	0.824553	0.000366	0.111620
C104	C	1.157886	0.333700	0.444953
C105	C	1.491219	0.667033	0.778287
N106	N	0.820226	0.354037	-0.092486
N107	N	1.153559	0.687370	0.240848
N108	N	1.486893	1.020703	0.574181
C109	C	0.814745	0.000439	-0.219497
C110	C	1.148078	0.333772	0.113836
C111	C	1.481412	0.667106	0.447169
C112	C	0.815874	0.000461	-0.296601
C113	C	1.149207	0.333794	0.036733
C114	C	1.482541	0.667127	0.370066
C115	C	0.887321	0.000388	0.156316
C116	C	1.220654	0.333721	0.489650
C117	C	1.553987	0.667055	0.822983
C118	C	0.886260	0.000409	0.228763
C119	C	1.219593	0.333742	0.562097
C120	C	1.552927	0.667076	0.895430
C121	C	0.822428	0.000381	0.256511
C122	C	1.155761	0.333714	0.589844
C123	C	1.489094	0.667048	0.923178
C124	C	0.759652	0.000367	0.211805
C125	C	1.092985	0.333701	0.545138
C126	C	1.426318	0.667034	0.878471
C127	C	0.760714	0.000360	0.139359
C128	C	1.094047	0.333693	0.472693
C129	C	1.427381	0.667026	0.806026
C130	C	0.772245	-0.079148	0.364798
C131	C	1.105579	0.254185	0.698132
C132	C	1.438912	0.587518	1.031465
C133	C	0.771186	-0.079149	0.437243
C134	C	1.104519	0.254184	0.770576
C135	C	1.437852	0.587517	1.103909
C136	C	0.819148	0.000410	0.479956
C137	C	1.152481	0.333744	0.813290
C138	C	1.485815	0.667077	1.146623
C139	C	0.868182	0.079953	0.450218
C140	C	1.201516	0.413287	0.783552
C141	C	1.534849	0.746620	1.116885
C142	C	0.869245	0.079946	0.377773
C143	C	1.202578	0.413279	0.711106
C144	C	1.535911	0.746612	1.044439
C145	C	0.821269	0.000390	0.335065
C146	C	1.154602	0.333723	0.668398
C147	C	1.487935	0.667057	1.001732
C148	C	0.880770	0.000457	0.603209
C149	C	1.214104	0.333790	0.936542
C150	C	1.547437	0.667123	1.269875
C151	C	0.879707	0.000486	0.675657
C152	C	1.213040	0.333820	1.008990
C153	C	1.546374	0.667153	1.342323
C154	C	0.753097	0.000431	0.658697
C155	C	1.086430	0.333764	0.992030
C156	C	1.419763	0.667097	1.325363
C157	C	0.754162	0.000415	0.586250
C158	C	1.087495	0.333748	0.919583
C159	C	1.420829	0.667081	1.252917
C160	C	0.818000	0.000421	0.558511
C161	C	1.151334	0.333755	0.891844
C162	C	1.484667	0.667088	1.225177
H163	H	0.624756	0.000269	0.018124
H164	H	0.958090	0.333602	0.351457
H165	H	1.291423	0.666936	0.684790
H166	H	0.266324	0.144727	-0.003545
H167	H	0.599657	0.478060	0.329789
H168	H	0.932991	0.811394	0.663122
H169	H	0.939303	0.000398	0.133736
H170	H	1.272636	0.333731	0.467069
H171	H	1.605970	0.667065	0.800403
H172	H	0.903570	-0.362659	-0.008756
H173	H	1.236903	-0.029326	0.324578
H174	H	1.570237	0.304007	0.657911
F175	F	0.693905	0.000337	0.091788
F176	F	1.027238	0.333671	0.425121
F177	F	1.360571	0.667004	0.758455
H178	H	0.781756	-0.411554	-0.131107
H179	H	1.115089	-0.078220	0.202226
H180	H	1.448422	0.255113	0.535560
F181	F	0.600925	0.000363	-0.227541
F182	F	0.934258	0.333696	0.105793
F183	F	1.267591	0.667030	0.439126
H184	H	0.462561	0.000391	-0.209652
H185	H	0.795894	0.333725	0.123682
H186	H	1.129228	0.667058	0.457015
H187	H	0.397748	0.144682	-0.005470
H188	H	0.731082	0.478015	0.327863
H189	H	1.064415	0.811349	0.661197
H190	H	0.903594	-0.636430	-0.008756
H191	H	1.236927	-0.303097	0.324577
H192	H	1.570261	0.030237	0.657910
F193	F	0.769961	-0.569802	-0.142974
F194	F	1.103294	-0.236469	0.190359
F195	F	1.436627	0.096864	0.523693
H196	H	0.909169	0.144715	0.353563
H197	H	1.242502	0.478048	0.686896
H198	H	1.575835	0.811382	1.020230
H199	H	0.177866	0.000442	0.024674
H200	H	0.511199	0.333776	0.358007
H201	H	0.844533	0.667109	0.691340
H202	H	0.937375	0.000432	0.265162
H203	H	1.270708	0.333765	0.598495
H204	H	1.604041	0.667099	0.931829
H205	H	0.733187	-0.143943	0.330026
H206	H	1.066520	0.189391	0.663359
H207	H	1.399853	0.522724	0.996693
H208	H	0.493322	0.000350	0.020044
H209	H	0.826655	0.333683	0.353377
H210	H	1.159988	0.667017	0.686711
F211	F	0.919231	0.164635	0.495672
F212	F	1.252564	0.497968	0.829005
F213	F	1.585898	0.831302	1.162338
F214	F	0.948712	0.000457	0.573684
F215	F	1.282045	0.333790	0.907017
F216	F	1.615378	0.667124	1.240351
F217	F	0.381539	-0.163749	-0.193697
F218	F	0.714873	0.169584	0.139636
F219	F	1.048206	0.502918	0.472969
F220	F	0.946517	0.000518	0.723227
F221	F	1.279850	0.333851	1.056560
F222	F	1.613184	0.667185	1.389893
F223	F	0.685161	0.000408	0.688223
F224	F	1.018495	0.333741	1.021556
F225	F	1.351828	0.667075	1.354889
F226	F	0.687355	0.000386	0.538679
F227	F	1.020688	0.333720	0.872012
F228	F	1.354021	0.667053	1.205346
F229	F	0.719002	-0.163810	0.468886
F230	F	1.052336	0.169523	0.802219
F231	F	1.385669	0.502856	1.135553
F232	F	0.691717	0.000346	0.241336
F233	F	1.025050	0.333680	0.574670
F234	F	1.358384	0.667013	0.908003
F235	F	0.231993	-0.163705	-0.191503
F236	F	0.565326	0.169628	0.141831
F237	F	0.898660	0.502962	0.475164
H238	H	0.015674	0.000532	-0.203099
H239	H	0.349008	0.333865	0.130234
H240	H	0.682341	0.667198	0.463567
F241	F	0.039500	0.000477	0.042562
F242	F	0.372834	0.333811	0.375895
F243	F	0.706167	0.667144	0.709228
F244	F	0.154039	0.000510	-0.220989
F245	F	0.487372	0.333843	0.112345
F246	F	0.820706	0.667177	0.445678
