data_functionalizedCrystal
_audit_creation_method	'MofGen! by Chris Wilmer'
_symmetry_space_group_name_H-M	'P1'
_symmetry_Int_Tables_number	1
_symmetry_cell_setting	triclinic
loop_
_symmetry_equiv_pos_as_xyz
  x,y,z
_cell_length_a	11.169417
_cell_length_b	16.625545
_cell_length_c	11.169409
_cell_angle_alpha	89.963924
_cell_angle_beta	89.979747
_cell_angle_gamma	90.026807
loop_
_atom_site_label
_atom_site_type_symbol
_atom_site_fract_x
_atom_site_fract_y
_atom_site_fract_z
Zn1	Zn	1.834844	-0.320910	-0.678501
Zn2	Zn	2.334844	0.179090	-0.178501
Zn3	Zn	1.834678	-0.455772	-0.477805
Zn4	Zn	2.334678	0.044228	0.022195
Zn5	Zn	1.634127	-0.320960	-0.477837
Zn6	Zn	2.134127	0.179040	0.022163
Zn7	Zn	1.634084	-0.455707	-0.678451
Zn8	Zn	2.134084	0.044293	-0.178451
O9	O	1.734433	-0.388337	-0.578148
O10	O	2.234433	0.111663	-0.078148
O11	O	2.002772	-0.338806	-0.651886
O12	O	2.502772	0.161194	-0.151886
O13	O	1.808023	-0.437937	-0.309859
O14	O	2.308023	0.062063	0.190141
O15	O	1.660841	-0.208121	-0.504490
O16	O	2.160841	0.291879	-0.004490
O17	O	2.002649	-0.437888	-0.504435
O18	O	2.502649	0.062112	-0.004435
O19	O	1.808306	-0.208084	-0.651917
O20	O	2.308306	0.291916	-0.151917
O21	O	1.660679	-0.338891	-0.309882
O22	O	2.160679	0.161109	0.190118
O23	O	1.466172	-0.338828	-0.504441
O24	O	1.966172	0.161172	-0.004441
O25	O	1.660767	-0.437778	-0.846407
O26	O	2.160767	0.062222	-0.346407
O27	O	1.466140	-0.437827	-0.651831
O28	O	1.966140	0.062173	-0.151831
O29	O	1.808265	-0.338743	-0.846444
O30	O	2.308265	0.161257	-0.346444
O31	O	1.807981	-0.568596	-0.504386
O32	O	2.307981	-0.068596	-0.004386
O33	O	1.660606	-0.568548	-0.651800
O34	O	2.160606	-0.068548	-0.151800
C35	C	1.422609	-0.388326	-0.578135
C36	C	1.922609	0.111674	-0.078135
C37	C	1.289209	-0.388341	-0.578157
C38	C	1.789209	0.111659	-0.078157
C39	C	1.734303	-0.597828	-0.578110
C40	C	2.234303	-0.097828	-0.078110
C41	C	1.734357	-0.687449	-0.578134
C42	C	2.234357	-0.187449	-0.078134
C43	C	1.734404	-0.760232	-0.578158
C44	C	2.234404	-0.260232	-0.078158
C45	C	1.734473	-0.851540	-0.578185
C46	C	2.234473	-0.351540	-0.078185
C47	C	1.734536	-0.924316	-0.578200
C48	C	2.234536	-0.424316	-0.078200
C49	C	1.734604	-1.015631	-0.578225
C50	C	2.234604	-0.515631	-0.078225
C51	C	2.047476	-0.388349	-0.578163
C52	C	2.547476	0.111651	-0.078163
C53	C	2.180876	-0.388354	-0.578169
C54	C	2.680876	0.111646	-0.078169
C55	C	1.734530	-0.388248	-0.891191
C56	C	2.234530	0.111752	-0.391191
C57	C	1.734571	-0.388210	-1.024591
C58	C	2.234571	0.111790	-0.524591
C59	C	1.734597	-0.178028	-0.578212
C60	C	2.234597	0.321972	-0.078212
C61	C	1.734667	-0.088407	-0.578240
C62	C	2.234667	0.411593	-0.078240
C63	C	1.734407	-0.388368	-0.266323
C64	C	2.234407	0.111632	0.233677
C65	C	1.734598	-0.388179	-0.132924
C66	C	2.234598	0.111821	0.367076
