data_functionalizedCrystal
_audit_creation_method	'MofGen! by Chris Wilmer'
_symmetry_space_group_name_H-M	'P1'
_symmetry_Int_Tables_number	1
_symmetry_cell_setting	triclinic
loop_
_symmetry_equiv_pos_as_xyz
  x,y,z
_cell_length_a	11.026623
_cell_length_b	9.482900
_cell_length_c	10.723024
_cell_angle_alpha	80.575205
_cell_angle_beta	83.472714
_cell_angle_gamma	78.636013
loop_
_atom_site_label
_atom_site_type_symbol
_atom_site_fract_x
_atom_site_fract_y
_atom_site_fract_z
O1	O	-1.633307	0.120896	0.508198
O2	O	-1.133307	0.620896	1.008198
O3	O	-1.279505	0.120898	0.448584
O4	O	-0.779505	0.620898	0.948584
O5	O	-1.464566	0.120891	0.298577
O6	O	-0.964566	0.620891	0.798577
O7	O	-1.448245	0.120902	0.658205
O8	O	-0.948245	0.620902	1.158205
O9	O	-1.426977	-0.120900	0.329203
O10	O	-0.926977	0.379100	0.829203
O11	O	-1.241916	-0.120894	0.479210
O12	O	-0.741916	0.379106	0.979210
O13	O	-1.595718	-0.120895	0.538824
O14	O	-1.095718	0.379105	1.038824
Cu15	Cu	-1.415385	-0.142972	0.511814
Cu16	Cu	-0.915385	0.357028	1.011814
Cu17	Cu	-1.459838	0.142974	0.475595
Cu18	Cu	-0.959838	0.642974	0.975595
O19	O	-1.410657	-0.120889	0.688831
O20	O	-0.910657	0.379111	1.188831
C21	C	-1.215408	0.000002	0.452900
C22	C	-0.715408	0.500002	0.952900
C23	C	-1.080421	0.000003	0.420115
C24	C	-0.580421	0.500003	0.920115
N25	N	-1.384128	-0.344091	0.537289
N26	N	-0.884128	0.155909	1.037289
C27	C	-1.007370	0.000006	0.510635
C28	C	-0.507370	0.500006	1.010635
C29	C	-0.867854	0.000007	0.476753
C30	C	-0.367854	0.500007	0.976753
C31	C	-1.450610	-0.416292	0.483100
C32	C	-0.950610	0.083708	0.983100
C33	C	-1.424612	-0.583709	0.504308
C34	C	-0.924612	-0.083709	1.004308
C35	C	-0.659815	0.000003	0.534507
C36	C	-0.159815	0.500003	1.034507
C37	C	-0.794804	0.000010	0.567285
C38	C	-0.294804	0.500010	1.067285
C39	C	-1.444584	-0.000003	0.267134
C40	C	-0.944584	0.499997	0.767134
C41	C	-1.441031	0.000003	0.127812
C42	C	-0.941031	0.500003	0.627812
N43	N	-1.491104	0.344093	0.450111
N44	N	-0.991104	0.844093	0.950111
C45	C	-1.544582	0.000004	0.075180
C46	C	-1.044582	0.500004	0.575180
C47	C	-1.540912	0.000009	-0.068816
C48	C	-1.040912	0.500009	0.431184
C49	C	-1.430639	0.000008	0.720274
C50	C	-0.930639	0.500008	1.220274
C51	C	-1.434194	0.000012	0.859595
C52	C	-0.934194	0.500012	1.359595
H53	H	-1.048114	0.000001	0.613216
H54	H	-0.548114	0.500001	1.113216
Cl55	Cl	-1.608967	-0.560007	0.354559
Cl56	Cl	-1.108967	-0.060007	0.854559
H57	H	-1.526770	-0.354167	0.421000
H58	H	-1.026770	0.145833	0.921000
H59	H	-0.827119	0.000041	0.374161
H60	H	-0.327119	0.500041	0.874161
Cl61	Cl	-1.677784	0.000000	-0.138744
Cl62	Cl	-1.177784	0.500000	0.361256
Cl63	Cl	-0.857689	-0.000005	0.725677
Cl64	Cl	-0.357689	0.499995	1.225677
Cl65	Cl	-1.017522	-0.000012	0.261736
Cl66	Cl	-0.517522	0.499988	0.761736
Cl67	Cl	-1.266525	-0.440001	0.633153
Cl68	Cl	-0.766525	0.059999	1.133153
H69	H	-1.348438	-0.645831	0.566401
H70	H	-0.848438	-0.145831	1.066401
H71	H	-1.635952	-0.000005	0.136726
H72	H	-1.135952	0.499995	0.636726
Cl73	Cl	-1.297313	-0.000001	-0.070483
Cl74	Cl	-0.797313	0.499999	0.429517
Cl75	Cl	-1.299956	0.000018	0.032800
Cl76	Cl	-0.799956	0.500018	0.532800
