data_functionalizedCrystal
_audit_creation_method	'MofGen! by Chris Wilmer'
_symmetry_space_group_name_H-M	'P1'
_symmetry_Int_Tables_number	1
_symmetry_cell_setting	triclinic
loop_
_symmetry_equiv_pos_as_xyz
  x,y,z
_cell_length_a	27.732048
_cell_length_b	27.732046
_cell_length_c	9.730217
_cell_angle_alpha	89.990481
_cell_angle_beta	89.995902
_cell_angle_gamma	97.357683
loop_
_atom_site_label
_atom_site_type_symbol
_atom_site_fract_x
_atom_site_fract_y
_atom_site_fract_z
O1	O	0.640925	-0.057516	0.114131
O2	O	0.974258	0.275817	0.447465
O3	O	1.307591	0.609150	0.780798
O4	O	0.500131	-0.066262	0.114176
O5	O	0.833465	0.267072	0.447509
O6	O	1.166798	0.600405	0.780842
O7	O	0.574901	0.008508	0.114121
O8	O	0.908234	0.341841	0.447455
O9	O	1.241568	0.675174	0.780788
O10	O	0.566155	-0.132286	0.114186
O11	O	0.899488	0.201048	0.447519
O12	O	1.232821	0.534381	0.780852
O13	O	0.574899	0.008508	-0.114459
O14	O	0.908232	0.341842	0.218874
O15	O	1.241566	0.675175	0.552208
O16	O	0.500129	-0.066261	-0.114404
O17	O	0.833462	0.267072	0.218929
O18	O	1.166796	0.600406	0.552262
O19	O	0.640922	-0.057516	-0.114449
O20	O	0.974256	0.275818	0.218885
O21	O	1.307589	0.609151	0.552218
Zn22	Zn	0.570525	-0.061888	-0.150719
Zn23	Zn	0.903859	0.271445	0.182615
Zn24	Zn	1.237192	0.604778	0.515948
Zn25	Zn	0.570528	-0.061889	0.150445
Zn26	Zn	0.903862	0.271444	0.483779
Zn27	Zn	1.237195	0.604778	0.817112
O28	O	0.566153	-0.132285	-0.114394
O29	O	0.899486	0.201048	0.218939
O30	O	1.232819	0.534382	0.552272
C31	C	0.482123	-0.066078	-0.000109
C32	C	0.815456	0.267256	0.333224
C33	C	1.148790	0.600589	0.666557
C34	C	0.428468	-0.065525	-0.000094
C35	C	0.761802	0.267808	0.333240
C36	C	1.095135	0.601142	0.666573
C37	C	0.089653	-0.106229	-0.000135
C38	C	0.422986	0.227104	0.333199
C39	C	0.756320	0.560438	0.666532
C40	C	-0.112007	-0.104178	-0.000148
C41	C	0.221327	0.229156	0.333185
C42	C	0.554660	0.562489	0.666519
O43	O	-0.143262	-0.141399	-0.000190
O44	O	0.190071	0.191935	0.333143
O45	O	0.523404	0.525268	0.666476
N46	N	-0.131130	-0.059843	-0.000166
N47	N	0.202203	0.273491	0.333168
N48	N	0.535537	0.606824	0.666501
C49	C	-0.099835	-0.016017	-0.000189
C50	C	0.233498	0.317316	0.333144
C51	C	0.566831	0.650650	0.666477
O52	O	-0.120728	0.021740	-0.000219
O53	O	0.212605	0.355073	0.333114
O54	O	0.545939	0.688407	0.666448
C55	C	0.101823	-0.018068	-0.000186
C56	C	0.435157	0.315265	0.333147
C57	C	0.768490	0.648598	0.666481
C58	C	0.120944	-0.062407	-0.000154
C59	C	0.454277	0.270927	0.333179
C60	C	0.787611	0.604260	0.666513
C61	C	0.108774	-0.150563	-0.000104
C62	C	0.442107	0.182770	0.333229
C63	C	0.775441	0.516103	0.666562
C64	C	0.159186	-0.151076	-0.000094
C65	C	0.492519	0.182258	0.333240
C66	C	0.825853	0.515591	0.666573
C67	C	0.190477	-0.107253	-0.000113
C68	C	0.523810	0.226080	0.333220
C69	C	0.857144	0.559413	0.666554
C70	C	0.171356	-0.062919	-0.000143
C71	C	0.504689	0.270414	0.333190
C72	C	0.838023	0.603748	0.666523
C73	C	0.133117	0.025757	-0.000219
C74	C	0.466451	0.359090	0.333114
C75	C	0.799784	0.692423	0.666447
C76	C	0.183535	0.025240	-0.000222
C77	C	0.516868	0.358573	0.333111
C78	C	0.850201	0.691906	0.666445
C79	C	0.202655	-0.019098	-0.000190
C80	C	0.535988	0.314235	0.333143
C81	C	0.869322	0.647568	0.666476
C82	C	0.253059	-0.019609	-0.000152
C83	C	0.586392	0.313724	0.333181
C84	C	0.919725	0.647058	0.666515
N85	N	0.272182	-0.063944	-0.000134
N86	N	0.605516	0.269389	0.333199
N87	N	0.938849	0.602723	0.666533
C88	C	0.240891	-0.107766	-0.000115
C89	C	0.574225	0.225567	0.333219
C90	C	0.907558	0.558900	0.666552
C91	C	-0.205709	-0.014943	-0.000188
C92	C	0.127624	0.318390	0.333145
C93	C	0.460957	0.651724	0.666478
C94	C	-0.256124	-0.014430	-0.000187
C95	C	0.077210	0.318903	0.333147
C96	C	0.410543	0.652237	0.666480
C97	C	-0.268292	-0.102591	-0.000148
C98	C	0.065042	0.230742	0.333185
C99	C	0.398375	0.564076	0.666519
C100	C	-0.217876	-0.103104	-0.000140
C101	C	0.115457	0.230230	0.333194
C102	C	0.448790	0.563563	0.666527
C103	C	-0.186586	-0.059278	-0.000171
C104	C	0.146748	0.274055	0.333163
C105	C	0.480081	0.607388	0.666496
C106	C	0.346760	-0.108839	-0.000091
C107	C	0.680094	0.224494	0.333243
C108	C	1.013427	0.557828	0.666576
C109	C	0.397177	-0.109347	-0.000074
C110	C	0.730511	0.223986	0.333259
C111	C	1.063844	0.557319	0.666592
C112	C	0.409341	-0.021186	-0.000120
C113	C	0.742674	0.312147	0.333213
C114	C	1.076008	0.645480	0.666546
C115	C	0.358928	-0.020678	-0.000130
C116	C	0.692262	0.312656	0.333204
C117	C	1.025595	0.645989	0.666537
C118	C	0.327639	-0.064508	-0.000120
C119	C	0.660972	0.268825	0.333214
C120	C	0.994306	0.602159	0.666547
O121	O	0.284343	0.017592	-0.000125
O122	O	0.617676	0.350925	0.333208
O123	O	0.951010	0.684259	0.666542
O124	O	0.261794	-0.145518	-0.000115
O125	O	0.595127	0.187816	0.333218
O126	O	0.928460	0.521149	0.666551
C127	C	0.039241	-0.105717	-0.000145
C128	C	0.372574	0.227617	0.333188
C129	C	0.705908	0.560950	0.666521
C130	C	0.020120	-0.061382	-0.000176
C131	C	0.353453	0.271951	0.333158
C132	C	0.686787	0.605285	0.666491
C133	C	0.051411	-0.017560	-0.000195
C134	C	0.384744	0.315774	0.333138
C135	C	0.718078	0.649107	0.666471
C136	C	-0.030294	-0.060869	-0.000174
C137	C	0.303039	0.272464	0.333159
C138	C	0.636372	0.605798	0.666493
C139	C	-0.061585	-0.104691	-0.000155
C140	C	0.271748	0.228642	0.333179
C141	C	0.605081	0.561975	0.666512
C142	C	-0.042462	-0.149027	-0.000137
C143	C	0.290871	0.184307	0.333197
C144	C	0.624205	0.517640	0.666530
C145	C	0.007950	-0.149539	-0.000126
C146	C	0.341283	0.183795	0.333207
C147	C	0.674617	0.517128	0.666541
C148	C	0.032287	0.026775	-0.000213
C149	C	0.365621	0.360109	0.333120
C150	C	0.698954	0.693442	0.666454
C151	C	-0.018125	0.027284	-0.000222
C152	C	0.315208	0.360617	0.333111
C153	C	0.648542	0.693951	0.666444
C154	C	-0.049416	-0.016538	-0.000203
C155	C	0.283917	0.316795	0.333131
C156	C	0.617251	0.650129	0.666464
C157	C	0.574717	0.026515	-0.000174
C158	C	0.908050	0.359848	0.333160
C159	C	1.241383	0.693182	0.666493
C160	C	0.574164	0.080170	-0.000188
C161	C	0.907497	0.413503	0.333145
C162	C	1.240831	0.746837	0.666478
C163	C	0.614870	0.418985	-0.000153
C164	C	0.948203	0.752319	0.333180
C165	C	1.281537	1.085652	0.666513
C166	C	0.612820	0.620645	-0.000147
C167	C	0.946153	0.953978	0.333186
C168	C	1.279487	1.287312	0.666520
O169	O	0.650041	0.651901	-0.000101
O170	O	0.983374	0.985234	0.333233
O171	O	1.316708	1.318567	0.666566
N172	N	0.568485	0.639769	-0.000136
N173	N	0.901818	0.973102	0.333197
N174	N	1.235152	1.306436	0.666531
C175	C	0.524659	0.608474	-0.000117
C176	C	0.857993	0.941808	0.333216
C177	C	1.191326	1.275141	0.666549
O178	O	0.486902	0.629367	-0.000093
O179	O	0.820236	0.962701	0.333240
O180	O	1.153569	1.296034	0.666573
C181	C	0.526710	0.406815	-0.000114
C182	C	0.860043	0.740149	0.333220
C183	C	1.193376	1.073482	0.666553
C184	C	0.571047	0.387695	-0.000139
C185	C	0.904381	0.721028	0.333195
C186	C	1.237714	1.054361	0.666528
C187	C	0.659204	0.399864	-0.000177
C188	C	0.992538	0.733197	0.333156
C189	C	1.325871	1.066531	0.666490
C190	C	0.659716	0.349452	-0.000186
C191	C	0.993050	0.682785	0.333147
C192	C	1.326383	1.016119	0.666481
C193	C	0.615894	0.318161	-0.000171
C194	C	0.949227	0.651495	0.333162
C195	C	1.282560	0.984828	0.666495
C196	C	0.571559	0.337283	-0.000148
C197	C	0.904893	0.670616	0.333185
C198	C	1.238226	1.003949	0.666519
C199	C	0.482884	0.375522	-0.000085
C200	C	0.816218	0.708855	0.333248
C201	C	1.149551	1.042188	0.666581
C202	C	0.483401	0.325104	-0.000081
C203	C	0.816734	0.658438	0.333253
C204	C	1.150067	0.991771	0.666586
C205	C	0.527739	0.305984	-0.000106
C206	C	0.861072	0.639317	0.333227
C207	C	1.194405	0.972650	0.666561
C208	C	0.528249	0.255580	-0.000142
C209	C	0.861582	0.588913	0.333191
C210	C	1.194916	0.922247	0.666524
N211	N	0.572584	0.236456	-0.000154
N212	N	0.905917	0.569790	0.333180
N213	N	1.239251	0.903123	0.666513
C214	C	0.616407	0.267747	-0.000168
C215	C	0.949740	0.601080	0.333165
C216	C	1.283073	0.934414	0.666499
C217	C	0.523586	0.714348	-0.000122
C218	C	0.856919	1.047682	0.333211
C219	C	1.190253	1.381015	0.666545
C220	C	0.523073	0.764763	-0.000125
C221	C	0.856407	1.098096	0.333208
C222	C	1.189740	1.431430	0.666541
C223	C	0.611234	0.776930	-0.000152
C224	C	0.944568	1.110264	0.333181
C225	C	1.277901	1.443597	0.666514
C226	C	0.611746	0.726515	-0.000159
C227	C	0.945080	1.059848	0.333174
C228	C	1.278413	1.393182	0.666508
C229	C	0.567921	0.695225	-0.000133
C230	C	0.901254	1.028558	0.333200
C231	C	1.234588	1.361891	0.666534
C232	C	0.617478	0.161878	-0.000188
C233	C	0.950812	0.495211	0.333145
C234	C	1.284145	0.828544	0.666478
C235	C	0.617986	0.111461	-0.000203
C236	C	0.951320	0.444794	0.333130
C237	C	1.284653	0.778127	0.666464
C238	C	0.529826	0.099298	-0.000169
C239	C	0.863159	0.432631	0.333165
C240	C	1.196492	0.765964	0.666498
C241	C	0.529317	0.149710	-0.000161
C242	C	0.862651	0.483044	0.333172
C243	C	1.195984	0.816377	0.666506
C244	C	0.573148	0.180999	-0.000166
C245	C	0.906481	0.514333	0.333167
C246	C	1.239814	0.847666	0.666500
O247	O	0.491048	0.224296	-0.000173
O248	O	0.824381	0.557629	0.333160
O249	O	1.157715	0.890963	0.666493
O250	O	0.654158	0.246844	-0.000161
O251	O	0.987491	0.580178	0.333172
O252	O	1.320824	0.913511	0.666505
C253	C	0.614358	0.469397	-0.000144
C254	C	0.947691	0.802731	0.333189
C255	C	1.281025	1.136064	0.666522
C256	C	0.570024	0.488519	-0.000121
C257	C	0.903357	0.821852	0.333213
C258	C	1.236690	1.155185	0.666546
C259	C	0.526201	0.457228	-0.000106
C260	C	0.859534	0.790561	0.333227
C261	C	1.192868	1.123895	0.666560
C262	C	0.569511	0.538933	-0.000124
C263	C	0.902844	0.872266	0.333209
C264	C	1.236177	1.205600	0.666543
C265	C	0.613333	0.570224	-0.000139
C266	C	0.946667	0.903557	0.333195
C267	C	1.280000	1.236890	0.666528
C268	C	0.657668	0.551100	-0.000150
C269	C	0.991002	0.884433	0.333184
C270	C	1.324335	1.217767	0.666517
C271	C	0.658180	0.500688	-0.000159
C272	C	0.991514	0.834021	0.333175
C273	C	1.324847	1.167355	0.666508
C274	C	0.481866	0.476352	-0.000095
C275	C	0.815199	0.809685	0.333238
C276	C	1.148533	1.143018	0.666572
C277	C	0.481358	0.526764	-0.000088
C278	C	0.814691	0.860098	0.333246
C279	C	1.148024	1.193431	0.666579
C280	C	0.525180	0.558055	-0.000102
C281	C	0.858513	0.891388	0.333231
C282	C	1.191847	1.224722	0.666565
C283	C	0.658931	-0.057699	-0.000161
C284	C	0.992264	0.275634	0.333172
C285	C	1.325597	0.608967	0.666506
C286	C	0.712585	-0.058252	-0.000167
C287	C	1.045919	0.275081	0.333166
C288	C	1.379252	0.608414	0.666499
C289	C	0.566339	0.849708	-0.000113
C290	C	0.899672	1.183041	0.333220
C291	C	1.233005	1.516375	0.666553
C292	C	0.566896	0.796054	-0.000140
C293	C	0.900229	1.129387	0.333194
C294	C	1.233562	1.462720	0.666527
N295	N	0.570527	-0.061887	-0.356255
N296	N	0.903860	0.271446	-0.022922
N297	N	1.237194	0.604779	0.310412
C298	C	0.636762	0.004302	-0.356294
C299	C	0.970095	0.337636	-0.022961
C300	C	1.303429	0.670969	0.310373
C301	C	0.669883	0.037396	-0.428253
C302	C	1.003216	0.370729	-0.094920
C303	C	1.336550	0.704063	0.238413
C304	C	0.669888	0.037396	-0.572133
C305	C	1.003221	0.370730	-0.238800
C306	C	1.336555	0.704063	0.094534
C307	C	0.636767	0.004300	-0.644057
C308	C	0.970101	0.337634	-0.310723
C309	C	1.303434	0.670967	0.022610
C310	C	0.603647	-0.028793	-0.572097
C311	C	0.936980	0.304540	-0.238764
C312	C	1.270313	0.637874	0.094569
C313	C	0.603646	-0.028791	-0.428214
C314	C	0.936980	0.304543	-0.094881
C315	C	1.270313	0.637876	0.238452
C316	C	0.537410	-0.094980	-0.572059
C317	C	0.870743	0.238354	-0.238725
C318	C	1.204076	0.571687	0.094608
C319	C	0.537406	-0.094983	-0.428179
C320	C	0.870740	0.238350	-0.094846
C321	C	1.204073	0.571684	0.238488
C322	C	0.504289	-0.128075	-0.643983
C323	C	0.837623	0.205258	-0.310649
C324	C	1.170956	0.538591	0.022684
C325	C	0.471170	-0.161172	-0.572023
C326	C	0.804503	0.172161	-0.238690
C327	C	1.137837	0.505495	0.094643
C328	C	0.471167	-0.161171	-0.428135
C329	C	0.804500	0.172162	-0.094801
C330	C	1.137833	0.505495	0.238532
C331	C	0.504286	-0.128077	-0.356220
C332	C	0.837619	0.205257	-0.022886
C333	C	1.170952	0.538590	0.310447
N334	N	0.570531	-0.061886	0.355982
N335	N	0.903864	0.271447	0.689315
N336	N	1.237197	0.604781	1.022649
H337	H	-0.271687	0.021674	-0.000191
H338	H	0.061647	0.355008	0.333142
H339	H	0.394980	0.688341	0.666476
Cl340	Cl	0.504292	-0.128074	-0.824861
Cl341	Cl	0.837625	0.205260	-0.491528
Cl342	Cl	1.170959	0.538593	-0.158195
Cl343	Cl	0.715458	0.325423	-0.000178
Cl344	Cl	1.048792	0.658756	0.333155
Cl345	Cl	1.382125	0.992089	0.666488
Cl346	Cl	0.711517	0.079002	-0.337833
Cl347	Cl	1.044850	0.412335	-0.004499
Cl348	Cl	1.378184	0.745669	0.328834
H349	H	-0.293778	-0.138273	-0.000132
H350	H	0.039556	0.195060	0.333201
H351	H	0.372889	0.528394	0.666534
H352	H	0.444204	-0.188114	-0.630592
H353	H	0.777537	0.145219	-0.297259
H354	H	1.110870	0.478553	0.036074
H355	H	0.494147	0.073812	-0.000162
H356	H	0.827480	0.407145	0.333172
H357	H	1.160813	0.740478	0.666505
Cl358	Cl	-0.193845	-0.158845	-0.000105
Cl359	Cl	0.139489	0.174489	0.333229
Cl360	Cl	0.472822	0.507822	0.666562
Cl361	Cl	0.636766	0.004299	-0.175415
Cl362	Cl	0.970099	0.337633	0.157918
Cl363	Cl	1.303432	0.670966	0.491251
Cl364	Cl	0.307433	-0.163940	-0.000076
Cl365	Cl	0.640766	0.169393	0.333257
Cl366	Cl	0.974099	0.502726	0.666590
H367	H	0.057760	0.062462	-0.000232
H368	H	0.391094	0.395795	0.333101
H369	H	0.724427	0.729128	0.666434
Cl370	Cl	0.183215	-0.206818	-0.000063
Cl371	Cl	0.516548	0.126515	0.333270
Cl372	Cl	0.849882	0.459849	0.666603
Cl373	Cl	0.711524	0.079002	-0.662598
Cl374	Cl	1.044857	0.412336	-0.329265
Cl375	Cl	1.378190	0.745669	0.004068
Cl376	Cl	0.667487	0.702483	-0.000189
Cl377	Cl	1.000821	1.035816	0.333145
Cl378	Cl	1.334154	1.369150	0.666478
Cl379	Cl	0.636768	0.004307	-0.824935
Cl380	Cl	0.970101	0.337641	-0.491602
Cl381	Cl	1.303434	0.670974	-0.158269
Cl382	Cl	0.673730	0.087427	-0.000232
Cl383	Cl	1.007063	0.420760	0.333102
Cl384	Cl	1.340396	0.754094	0.666435
Cl385	Cl	0.425613	0.550795	-0.000063
Cl386	Cl	0.758946	0.884128	0.333271
Cl387	Cl	1.092279	1.217461	0.666604
Cl388	Cl	0.429524	-0.202775	-0.337685
Cl389	Cl	0.762857	0.130559	-0.004351
Cl390	Cl	1.096190	0.463892	0.328982
H391	H	0.504288	-0.128075	-0.239065
H392	H	0.837621	0.205259	0.094268
H393	H	1.170954	0.538592	0.427602
Cl394	Cl	0.222869	0.080338	-0.000263
Cl395	Cl	0.556202	0.413672	0.333070
Cl396	Cl	0.889535	0.747005	0.666403
H397	H	0.694892	0.425337	-0.000184
H398	H	1.028225	0.758670	0.333150
H399	H	1.361558	1.092003	0.666483
Cl400	Cl	0.473578	0.173748	-0.000155
Cl401	Cl	0.806911	0.507082	0.333178
Cl402	Cl	1.140244	0.840415	0.666511
Cl403	Cl	-0.166379	0.040158	-0.000223
Cl404	Cl	0.166954	0.373491	0.333110
Cl405	Cl	0.500288	0.706824	0.666443
H406	H	0.412742	-0.145454	-0.000048
H407	H	0.746075	0.187879	0.333286
H408	H	1.079409	0.521212	0.666619
H409	H	0.694285	0.485125	-0.000179
H410	H	1.027618	0.818458	0.333155
H411	H	1.360951	1.151792	0.666488
Cl412	Cl	0.672580	0.201205	-0.000197
Cl413	Cl	1.005913	0.534538	0.333136
Cl414	Cl	1.339247	0.867872	0.666470
H415	H	0.446180	0.450879	-0.000080
H416	H	0.779513	0.784212	0.333253
H417	H	1.112846	1.117546	0.666587
Cl418	Cl	0.109093	0.081500	-0.000236
Cl419	Cl	0.442426	0.414833	0.333097
Cl420	Cl	0.775760	0.748166	0.666430
Cl421	Cl	0.069445	-0.205662	-0.000076
Cl422	Cl	0.402778	0.127671	0.333257
Cl423	Cl	0.736111	0.461005	0.666590
Cl424	Cl	0.448687	0.033901	-0.000151
Cl425	Cl	0.782020	0.367235	0.333182
Cl426	Cl	1.115354	0.700568	0.666515
Cl427	Cl	0.334890	0.035062	-0.000176
Cl428	Cl	0.668224	0.368395	0.333157
Cl429	Cl	1.001557	0.701729	0.666490
H430	H	0.023513	-0.185643	-0.000102
H431	H	0.356846	0.147690	0.333231
H432	H	0.690180	0.481023	0.666565
H433	H	0.486969	0.780326	-0.000129
H434	H	0.820302	1.113659	0.333205
H435	H	1.153635	1.446993	0.666538
Cl436	Cl	-0.081809	-0.204117	-0.000107
Cl437	Cl	0.251525	0.129217	0.333227
Cl438	Cl	0.584858	0.462550	0.666560
Cl439	Cl	-0.042155	0.083029	-0.000245
Cl440	Cl	0.291178	0.416363	0.333089
Cl441	Cl	0.624512	0.749696	0.666422
H442	H	0.646916	0.802416	-0.000165
H443	H	0.980249	1.135749	0.333168
H444	H	1.313583	1.469083	0.666502
H445	H	0.487896	0.688875	-0.000101
H446	H	0.821229	1.022209	0.333232
H447	H	1.154562	1.355542	0.666566
H448	H	0.446780	0.391081	-0.000056
H449	H	0.780113	0.724414	0.333277
H450	H	1.113446	1.057747	0.666610
H451	H	0.447712	0.299630	-0.000058
H452	H	0.781045	0.632963	0.333276
H453	H	1.114379	0.966296	0.666609
H454	H	0.693350	0.576586	-0.000168
H455	H	1.026683	0.909919	0.333166
H456	H	1.360017	1.243253	0.666499
