data_functionalizedCrystal
_audit_creation_method	'MofGen! by Chris Wilmer'
_symmetry_space_group_name_H-M	'P1'
_symmetry_Int_Tables_number	1
_symmetry_cell_setting	triclinic
loop_
_symmetry_equiv_pos_as_xyz
  x,y,z
_cell_length_a	14.971491
_cell_length_b	10.723023
_cell_length_c	13.448316
_cell_angle_alpha	89.994428
_cell_angle_beta	89.991393
_cell_angle_gamma	84.041892
loop_
_atom_site_label
_atom_site_type_symbol
_atom_site_fract_x
_atom_site_fract_y
_atom_site_fract_z
O1	O	1.187818	0.162647	-0.082732
O2	O	1.687818	0.662647	0.417268
O3	O	0.927522	0.182114	-0.082725
O4	O	1.427522	0.682114	0.417275
O5	O	1.063674	-0.009258	-0.082725
O6	O	1.563674	0.490742	0.417275
O7	O	1.051666	0.354020	-0.082732
O8	O	1.551666	0.854020	0.417268
O9	O	1.063657	-0.009270	0.082659
O10	O	1.563657	0.490730	0.582659
O11	O	0.927505	0.182102	0.082659
O12	O	1.427505	0.682102	0.582659
O13	O	1.187800	0.162636	0.082652
O14	O	1.687800	0.662636	0.582652
Cu15	Cu	1.057651	0.172368	0.097756
Cu16	Cu	1.557651	0.672368	0.597756
Cu17	Cu	1.057672	0.172382	-0.097829
Cu18	Cu	1.557672	0.672382	0.402171
O19	O	1.051648	0.354008	0.082651
O20	O	1.551648	0.854008	0.582651
C21	C	0.894185	0.181237	-0.000032
C22	C	1.394185	0.681237	0.499968
C23	C	0.794874	0.178624	-0.000029
C24	C	1.294874	0.678624	0.499971
C25	C	0.367117	0.167358	-0.090202
C26	C	0.867117	0.667358	0.409798
C27	C	0.460430	0.169809	-0.090199
C28	C	0.960430	0.669809	0.409801
C29	C	0.507073	0.171036	-0.000045
C30	C	1.007073	0.671036	0.499955
C31	C	0.460399	0.169800	0.090112
C32	C	0.960399	0.669800	0.590112
C33	C	0.367088	0.167340	0.090107
C34	C	0.867088	0.667340	0.590107
C35	C	0.654888	0.174929	0.090115
C36	C	1.154888	0.674929	0.590115
C37	C	0.748206	0.177392	0.090121
C38	C	1.248206	0.677392	0.590121
C39	C	0.748231	0.177399	-0.090190
C40	C	1.248231	0.677399	0.409810
C41	C	0.654920	0.174939	-0.090195
C42	C	1.154920	0.674939	0.409805
C43	C	0.608252	0.173705	-0.000038
C44	C	1.108252	0.673705	0.499962
C45	C	1.062792	-0.055754	-0.000034
C46	C	1.562792	0.444246	0.499966
C47	C	1.060178	-0.194281	-0.000037
C48	C	1.560178	0.305719	0.499963
C49	C	1.059021	-0.256029	-0.085712
C50	C	1.559021	0.243971	0.414288
C51	C	1.056319	-0.399204	-0.085717
C52	C	1.556319	0.100796	0.414283
C53	C	1.221138	0.163513	-0.000044
C54	C	1.721138	0.663513	0.499956
C55	C	1.320449	0.166126	-0.000053
C56	C	1.820449	0.666126	0.499947
C57	C	1.052531	0.400504	-0.000042
C58	C	1.552531	0.900504	0.499958
C59	C	1.055145	0.539031	-0.000045
C60	C	1.555145	1.039031	0.499955
N61	N	1.057643	0.172357	0.235321
N62	N	1.557643	0.672357	0.735321
N63	N	1.057686	0.172383	-0.235394
N64	N	1.557686	0.672383	0.264606
C65	C	1.117950	0.087653	0.287361
C66	C	1.617950	0.587653	0.787361
C67	C	1.117956	0.087652	0.391464
C68	C	1.617956	0.587652	0.891464
C69	C	1.057658	0.172362	0.443525
C70	C	1.557658	0.672362	0.943525
C71	C	0.997344	0.257071	0.391477
C72	C	1.497344	0.757071	0.891477
C73	C	0.997335	0.257065	0.287376
C74	C	1.497335	0.757065	0.787376
C75	C	0.997369	0.257079	0.608457
C76	C	1.497369	0.757079	1.108457
C77	C	0.997379	0.257087	0.712566
C78	C	1.497379	0.757087	1.212566
C79	C	1.117990	0.087666	0.712546
C80	C	1.617990	0.587666	1.212546
C81	C	1.117981	0.087660	0.608444
C82	C	1.617981	0.587660	1.108444
C83	C	1.057668	0.172371	0.556404
C84	C	1.557668	0.672371	1.056404
H85	H	0.498424	0.170805	-0.163607
H86	H	0.998424	0.670805	0.336393
H87	H	1.056144	-0.407876	0.073308
H88	H	1.556144	0.092124	0.573308
H89	H	1.059162	-0.247413	0.073309
H90	H	1.559162	0.252587	0.573309
C91	C	1.184284	-0.005538	0.230103
C92	C	1.684284	0.494462	0.730103
N93	N	1.234245	-0.075736	0.186980
N94	N	1.734245	0.424264	0.686980
H95	H	1.167062	0.018678	0.433835
H96	H	1.667062	0.518678	0.933835
H97	H	1.060028	-0.202896	-0.159058
H98	H	1.560028	0.297104	0.340942
H99	H	1.167084	0.018688	0.566056
H100	H	1.667084	0.518688	1.066056
H101	H	0.948244	0.326040	0.433871
H102	H	1.448244	0.826040	0.933871
H103	H	0.329091	0.166349	0.163516
H104	H	0.829091	0.666349	0.663516
C105	C	1.054976	-0.470938	-0.184813
C106	C	1.554976	0.029062	0.315187
N107	N	1.053962	-0.524971	-0.259455
N108	N	1.553962	-0.024971	0.240545
C109	C	0.799512	0.178728	0.189295
C110	C	1.299512	0.678728	0.689295
N111	N	0.838157	0.179731	0.263994
N112	N	1.338157	0.679731	0.763994
C113	C	1.184331	-0.005522	0.769792
C114	C	1.684331	0.494478	1.269792
N115	N	1.234300	-0.075705	0.812915
N116	N	1.734300	0.424295	1.312915
C117	C	0.931043	0.350266	0.769831
C118	C	1.431043	0.850266	1.269831
N119	N	0.881077	0.420448	0.812963
N120	N	1.381077	0.920448	1.312963
C121	C	0.931012	0.350253	0.551215
C122	C	1.431012	0.850253	1.051215
N123	N	0.881033	0.420430	0.508101
N124	N	1.381033	0.920430	1.008101
H125	H	0.948226	0.326039	0.245006
H126	H	1.448226	0.826039	0.745006
H127	H	0.329146	0.166368	-0.163617
H128	H	0.829146	0.666368	0.336383
H129	H	0.786232	0.178405	-0.163599
H130	H	1.286232	0.678405	0.336401
C131	C	0.603615	0.173584	-0.189369
C132	C	1.103615	0.673584	0.310631
N133	N	0.564973	0.172555	-0.264069
N134	N	1.064973	0.672555	0.235931
H135	H	0.616893	0.173940	0.163531
H136	H	1.116893	0.673940	0.663531
H137	H	0.498384	0.170791	0.163517
H138	H	0.998384	0.670791	0.663517
