data_functionalizedCrystal
_audit_creation_method	'MofGen! by Chris Wilmer'
_symmetry_space_group_name_H-M	'P1'
_symmetry_Int_Tables_number	1
_symmetry_cell_setting	triclinic
loop_
_symmetry_equiv_pos_as_xyz
  x,y,z
_cell_length_a	12.759401
_cell_length_b	12.759400
_cell_length_c	12.759393
_cell_angle_alpha	89.968831
_cell_angle_beta	89.981504
_cell_angle_gamma	90.014577
loop_
_atom_site_label
_atom_site_type_symbol
_atom_site_fract_x
_atom_site_fract_y
_atom_site_fract_z
Zn1	Zn	1.606257	-0.418200	-0.593984
Zn2	Zn	1.606153	-0.593919	-0.418306
Zn3	Zn	1.430559	-0.418255	-0.418324
Zn4	Zn	1.430549	-0.593838	-0.593947
O5	O	1.518380	-0.506053	-0.506140
O6	O	1.753265	-0.441520	-0.570688
O7	O	1.582820	-0.570673	-0.271287
O8	O	1.453914	-0.271226	-0.441649
O9	O	1.753188	-0.570620	-0.441618
O10	O	1.582999	-0.271186	-0.570706
O11	O	1.453813	-0.441614	-0.271300
O12	O	1.283537	-0.441535	-0.441612
O13	O	1.453897	-0.570482	-0.740973
O14	O	1.283529	-0.570536	-0.570642
O15	O	1.582989	-0.441442	-0.741000
O16	O	1.582810	-0.740929	-0.441582
O17	O	1.453795	-0.740870	-0.570625
C18	C	1.245412	-0.506033	-0.506126
C19	C	1.128636	-0.506050	-0.506145
C20	C	1.073797	-0.573328	-0.573219
C21	C	0.964073	-0.573342	-0.573231
C22	C	0.964036	-0.438796	-0.439084
C23	C	1.073758	-0.438778	-0.439078
C24	C	1.073818	-0.651010	-0.650665
C25	C	0.964094	-0.651024	-0.650676
C26	C	1.518319	-0.779020	-0.506120
C27	C	1.518389	-0.895797	-0.506147
C28	C	1.585628	-1.060278	-0.573437
C29	C	1.585571	-0.950554	-0.573407
C30	C	1.451266	-0.950769	-0.438904
C31	C	1.451329	-1.060491	-0.438929
C32	C	1.652807	-1.115030	-0.640710
C33	C	1.719931	-1.060065	-0.707952
C34	C	1.719875	-0.950341	-0.707922
C35	C	1.652694	-0.895582	-0.640651
C36	C	1.792413	-0.506073	-0.506155
C37	C	1.909190	-0.506082	-0.506161
C38	C	1.518453	-0.505947	-0.780174
C39	C	1.518485	-0.505902	-0.896950
C40	C	1.518470	-0.232019	-0.506183
C41	C	1.518508	-0.115243	-0.506202
C42	C	1.585712	-0.438704	-0.951828
C43	C	1.585737	-0.438666	-1.061552
C44	C	1.451304	-0.573033	-1.061511
C45	C	1.451274	-0.573064	-0.951789
C46	C	1.652922	-0.371541	-0.896990
C47	C	1.720156	-0.304339	-0.951868
C48	C	1.720181	-0.304301	-1.061592
C49	C	1.652972	-0.371465	-1.116438
C50	C	1.518367	-0.506083	-0.233173
C51	C	1.518539	-0.505832	-0.116397
H52	H	0.934298	-0.732373	-0.628745
N53	N	1.792263	-0.891051	-0.780444
H54	H	1.840954	-0.845522	-0.737784
H55	H	1.834757	-0.942452	-0.823049
H56	H	1.652858	-1.204373	-0.640745
N57	N	1.118883	-0.753342	-0.611894
H58	H	1.197940	-0.749594	-0.613307
H59	H	1.094357	-0.766572	-0.537791
N60	N	1.652631	-0.777236	-0.640621
H61	H	1.599885	-0.750891	-0.587808
H62	H	1.724735	-0.750849	-0.621397
N63	N	1.792372	-1.119122	-0.780518
H64	H	1.834883	-1.067650	-0.823108
H65	H	1.841045	-1.164651	-0.737819
H66	H	1.396569	-0.906177	-0.384135
H67	H	0.919341	-0.384025	-0.384482
H68	H	1.396673	-1.105245	-0.384181
H69	H	0.930096	-0.621980	-0.728028
N70	N	1.652899	-0.371587	-0.778646
H71	H	1.705676	-0.318846	-0.752231
H72	H	1.580794	-0.352305	-0.752295
N73	N	1.792653	-0.231910	-0.892721
H74	H	1.782445	-0.242136	-0.814884
H75	H	1.867678	-0.248282	-0.911915
N76	N	1.792674	-0.231805	-1.120785
H77	H	1.835240	-0.189263	-1.069392
H78	H	1.841292	-0.274553	-1.166310
N79	N	1.653002	-0.371417	-1.234784
H80	H	1.672296	-0.443481	-1.261201
H81	H	1.580928	-0.352044	-1.261128
H82	H	1.396585	-0.627714	-1.106175
N83	N	1.113315	-0.622273	-0.758491
H84	H	1.051800	-0.609453	-0.806613
H85	H	1.157325	-0.556637	-0.753848
N86	N	1.132908	-0.366188	-0.366762
H87	H	1.081491	-0.323573	-0.324283
H88	H	1.178419	-0.408867	-0.318055
N89	N	1.378766	-0.645539	-0.892589
H90	H	1.336199	-0.688087	-0.943977
H91	H	1.421504	-0.694174	-0.847054
