data_functionalizedCrystal
_audit_creation_method	'MofGen! by Chris Wilmer'
_symmetry_space_group_name_H-M	'P1'
_symmetry_Int_Tables_number	1
_symmetry_cell_setting	triclinic
loop_
_symmetry_equiv_pos_as_xyz
  x,y,z
_cell_length_a	17.038272
_cell_length_b	22.010155
_cell_length_c	17.038272
_cell_angle_alpha	89.996037
_cell_angle_beta	88.888444
_cell_angle_gamma	90.010089
loop_
_atom_site_label
_atom_site_type_symbol
_atom_site_fract_x
_atom_site_fract_y
_atom_site_fract_z
O1	O	1.048767	0.050450	-0.170536
O2	O	0.820956	0.050468	-0.167828
O3	O	0.933508	0.050454	-0.055276
O4	O	0.936216	0.050463	-0.283088
O5	O	0.933471	-0.050596	-0.055274
O6	O	0.820920	-0.050583	-0.167825
O7	O	1.048731	-0.050601	-0.170533
Cu8	Cu	0.934822	-0.059818	-0.169179
Cu9	Cu	0.934865	0.059685	-0.169182
O10	O	0.936179	-0.050587	-0.283085
C11	C	0.791645	-0.000055	-0.165364
C12	C	0.704361	-0.000049	-0.158016
N13	N	0.934797	-0.143871	-0.169177
C14	C	0.658752	-0.000046	-0.225479
C15	C	0.576740	-0.000055	-0.218570
C16	C	0.540339	-0.000062	-0.144197
C17	C	0.585954	-0.000066	-0.076728
C18	C	0.667965	-0.000062	-0.083638
C19	C	0.292951	-0.000079	-0.119787
C20	C	0.210935	-0.000081	-0.112882
C21	C	0.201726	-0.000072	-0.254725
C22	C	0.283739	-0.000064	-0.261628
C23	C	0.329347	-0.000071	-0.194159
C24	C	0.456510	-0.000069	-0.137133
C25	C	0.413174	-0.000069	-0.201224
C26	C	0.985664	-0.563652	-0.220000
C27	C	0.985673	-0.627260	-0.219999
O28	O	1.028893	-0.660153	-0.263204
N29	N	0.934880	-0.659078	-0.169174
C30	C	0.884079	-0.627285	-0.118342
O31	O	0.840877	-0.660190	-0.075111
C32	C	0.884075	-0.563679	-0.118340
C33	C	0.934866	-0.531864	-0.169174
C34	C	1.036452	-0.531837	-0.270829
C35	C	1.036441	-0.468234	-0.270831
C36	C	0.985643	-0.436446	-0.220005
C37	C	0.934856	-0.468261	-0.169176
C38	C	0.833279	-0.531887	-0.067504
C39	C	0.833279	-0.468277	-0.067506
C40	C	0.884070	-0.436462	-0.118340
C41	C	0.884047	-0.372869	-0.118351
N42	N	0.934841	-0.341051	-0.169176
C43	C	0.985639	-0.372839	-0.220003
C44	C	0.884094	-0.760863	-0.118349
C45	C	0.884094	-0.824468	-0.118354
C46	C	0.985689	-0.824439	-0.220011
C47	C	0.985684	-0.760832	-0.220009
C48	C	0.934887	-0.729045	-0.169174
C49	C	0.985613	-0.239268	-0.220004
C50	C	0.985595	-0.175659	-0.220004
C51	C	0.884004	-0.175695	-0.118345
C52	C	0.884018	-0.239298	-0.118347
C53	C	0.934828	-0.271083	-0.169180
O54	O	0.840852	-0.339936	-0.075166
O55	O	1.028841	-0.339927	-0.263219
C56	C	1.078042	-0.000076	-0.172997
C57	C	1.165326	-0.000079	-0.180346
C58	C	0.931027	-0.000071	-0.025982
C59	C	0.923679	-0.000070	0.061301
N60	N	0.934895	0.143738	-0.169179
C61	C	0.938660	-0.000061	-0.312379
C62	C	0.946008	-0.000058	-0.399663
C63	C	0.991142	-0.000076	0.106911
C64	C	0.984233	-0.000070	0.188923
C65	C	0.909860	-0.000062	0.225324
C66	C	0.842391	-0.000054	0.179708
C67	C	0.849301	-0.000056	0.097698
C68	C	0.885449	-0.000052	0.472712
C69	C	0.878545	-0.000052	0.554728
C70	C	1.020387	-0.000066	0.563937
C71	C	1.027291	-0.000072	0.481924
C72	C	0.959822	-0.000061	0.436316
C73	C	0.902796	-0.000057	0.309153
C74	C	0.966886	-0.000061	0.352488
H75	H	0.688384	-0.000041	-0.286042
H76	H	0.181300	-0.000086	-0.052315
Cl77	Cl	1.105199	-0.000078	0.621277
H78	H	0.842650	-0.265203	-0.076964
H79	H	0.817978	-0.000055	0.584363
H80	H	0.842722	-0.734986	-0.076955
H81	H	1.027051	-0.850332	-0.261398
Cl82	Cl	0.519406	-0.000048	-0.303386
Cl83	Cl	0.764486	-0.000046	0.040360
Cl84	Cl	0.769423	-0.571868	-0.003594
H85	H	1.027441	-0.000054	0.322847
Cl86	Cl	0.350276	-0.000088	-0.034967
H87	H	0.313370	-0.000051	-0.322190
Cl88	Cl	1.100320	-0.571788	-0.334736
H89	H	0.556310	-0.000080	-0.016172
Cl90	Cl	1.049542	-0.720843	-0.283913
Cl91	Cl	0.820228	-0.864456	-0.054458
H92	H	0.791914	-0.442399	-0.026109
H93	H	0.842241	-0.000052	0.338800
H94	H	1.039170	-0.000076	0.226054
H95	H	0.842643	-0.149801	-0.076965
H96	H	1.051705	-0.000086	0.077279
H97	H	0.705099	-0.000063	-0.028702
H98	H	0.164583	-0.000067	-0.309653
Cl99	Cl	0.458937	-0.000062	-0.294718
H100	H	1.087853	-0.000078	0.452293
H101	H	0.426863	-0.000091	-0.076578
H102	H	0.830511	-0.000043	0.435587
H103	H	1.026988	-0.265140	-0.261396
Cl104	Cl	0.748893	-0.000037	0.225470
H105	H	1.026956	-0.149758	-0.261402
H106	H	1.077804	-0.442336	-0.312222
