data_functionalizedCrystal
_audit_creation_method	'MofGen! by Chris Wilmer'
_symmetry_space_group_name_H-M	'P1'
_symmetry_Int_Tables_number	1
_symmetry_cell_setting	triclinic
loop_
_symmetry_equiv_pos_as_xyz
  x,y,z
_cell_length_a	18.050591
_cell_length_b	18.215405
_cell_length_c	18.215399
_cell_angle_alpha	89.969449
_cell_angle_beta	89.974300
_cell_angle_gamma	90.020891
loop_
_atom_site_label
_atom_site_type_symbol
_atom_site_fract_x
_atom_site_fract_y
_atom_site_fract_z
Zn1	Zn	1.135345	-0.293070	-0.416218
Zn2	Zn	1.635345	0.206930	0.083782
Zn3	Zn	1.135252	-0.416141	-0.293146
Zn4	Zn	1.635252	0.083859	0.206854
Zn5	Zn	1.011154	-0.293085	-0.293152
Zn6	Zn	1.511154	0.206915	0.206848
Zn7	Zn	1.011119	-0.416091	-0.416158
Zn8	Zn	1.511119	0.083909	0.083842
O9	O	1.073217	-0.354597	-0.354669
O10	O	1.573217	0.145403	0.145331
O11	O	1.239257	-0.309411	-0.399914
O12	O	1.739257	0.190589	0.100086
O13	O	1.118766	-0.399845	-0.190162
O14	O	1.618766	0.100155	0.309838
O15	O	1.027681	-0.190099	-0.309505
O16	O	1.527681	0.309901	0.190495
O17	O	1.239189	-0.399831	-0.309494
O18	O	1.739189	0.100169	0.190506
O19	O	1.118924	-0.190088	-0.399921
O20	O	1.618924	0.309912	0.100079
O21	O	1.027591	-0.309436	-0.190167
O22	O	1.527591	0.190564	0.309833
O23	O	0.907224	-0.309387	-0.309447
O24	O	1.407224	0.190613	0.190553
O25	O	1.027622	-0.399745	-0.519150
O26	O	1.527622	0.100255	-0.019150
O27	O	0.907199	-0.399759	-0.399819
O28	O	1.407199	0.100241	0.100181
O29	O	1.118890	-0.309362	-0.519194
O30	O	1.618890	0.190638	-0.019194
O31	O	1.118733	-0.519119	-0.309436
O32	O	1.618733	-0.019119	0.190564
O33	O	1.027533	-0.519082	-0.399813
O34	O	1.527533	-0.019082	0.100187
C35	C	1.073139	-0.545803	-0.354633
C36	C	1.573139	-0.045803	0.145367
C37	C	1.073173	-0.627602	-0.354643
C38	C	1.573173	-0.127602	0.145357
C39	C	0.880265	-0.354569	-0.354628
C40	C	1.380265	0.145431	0.145372
C41	C	0.797720	-0.354575	-0.354628
C42	C	1.297720	0.145425	0.145372
C43	C	1.120773	-0.815791	-0.307670
C44	C	1.620773	-0.315791	0.192330
C45	C	1.120806	-0.892650	-0.307688
C46	C	1.620806	-0.392650	0.192312
C47	C	1.025757	-0.892651	-0.401720
C48	C	1.525757	-0.392651	0.098280
C49	C	1.025728	-0.815794	-0.401705
C50	C	1.525728	-0.315794	0.098295
C51	C	1.073235	-0.777365	-0.354676
C52	C	1.573235	-0.277365	0.145324
C53	C	1.073297	-0.931082	-0.354709
C54	C	1.573297	-0.431082	0.145291
C55	C	1.073333	-1.014415	-0.354728
C56	C	1.573333	-0.514415	0.145272
C57	C	1.073201	-0.694027	-0.354657
C58	C	1.573201	-0.194027	0.145343
C59	C	0.598261	-0.305374	-0.305597
C60	C	1.098261	0.194626	0.194403
C61	C	0.548844	-0.372499	-0.287483
C62	C	1.048844	0.127501	0.212517
C63	C	0.646589	-0.354598	-0.354661
C64	C	1.146589	0.145402	0.145339
C65	C	0.548925	-0.287496	-0.372773
C66	C	1.048925	0.212504	0.127227
C67	C	0.500604	-0.354613	-0.354692
C68	C	1.000604	0.145387	0.145308
C69	C	0.598259	-0.421758	-0.336512
C70	C	1.098259	0.078242	0.163488
C71	C	0.598344	-0.336710	-0.421833
C72	C	1.098344	0.163290	0.078167
C73	C	0.548949	-0.403881	-0.403745
C74	C	1.048949	0.096119	0.096255
C75	C	0.730687	-0.354588	-0.354642
C76	C	1.230687	0.145412	0.145358
C77	C	0.416508	-0.354631	-0.354712
C78	C	0.916508	0.145369	0.145288
C79	C	1.266923	-0.354625	-0.354710
C80	C	1.766923	0.145375	0.145290
C81	C	1.349469	-0.354637	-0.354727
C82	C	1.849469	0.145363	0.145273
C83	C	1.073263	-0.354546	-0.546622
C84	C	1.573263	0.145454	-0.046622
C85	C	1.073282	-0.354524	-0.628420
C86	C	1.573282	0.145476	-0.128420
C87	C	1.073316	-0.162644	-0.354720
C88	C	1.573316	0.337356	0.145280
C89	C	1.073359	-0.080845	-0.354742
C90	C	1.573359	0.419155	0.145258
C91	C	1.120822	-0.307418	-0.816639
C92	C	1.620822	0.192582	-0.316639
C93	C	1.120831	-0.307397	-0.893497
C94	C	1.620831	0.192603	-0.393497
C95	C	1.025794	-0.401517	-0.893440
C96	C	1.525794	0.098483	-0.393440
C97	C	1.025782	-0.401534	-0.816583
C98	C	1.525782	0.098466	-0.316583
C99	C	1.073300	-0.354486	-0.778184
C100	C	1.573300	0.145514	-0.278184
C101	C	1.073321	-0.354447	-0.931900
C102	C	1.573321	0.145553	-0.431900
C103	C	1.073331	-0.354424	-1.015234
C104	C	1.573331	0.145576	-0.515234
C105	C	1.073290	-0.354508	-0.694845
C106	C	1.573290	0.145492	-0.194845
C107	C	1.073215	-0.354594	-0.163462
C108	C	1.573215	0.145406	0.336538
C109	C	1.073340	-0.354409	-0.081664
C110	C	1.573340	0.145591	0.418336
H111	H	1.159457	-0.784504	-0.269377
H112	H	1.659457	-0.284504	0.230623
F113	F	0.975133	-0.774896	-0.451742
F114	F	1.475133	-0.274896	0.048258
H115	H	0.987108	-0.439824	-0.924714
H116	H	1.487108	0.060176	-0.424714
F117	F	1.171404	-0.933541	-0.257659
F118	F	1.671404	-0.433541	0.242341
F119	F	0.975199	-0.933555	-0.451767
F120	F	1.475199	-0.433555	0.048233
F121	F	0.626784	-0.316895	-0.496046
F122	F	1.126784	0.183105	0.003954
F123	F	0.975197	-0.451629	-0.775655
F124	F	1.475197	0.048371	-0.275655
F125	F	0.520594	-0.213317	-0.392778
F126	F	1.020594	0.286683	0.107222
F127	F	0.626564	-0.251023	-0.251308
F128	F	1.126564	0.248977	0.248692
F129	F	0.520424	-0.392290	-0.213252
F130	F	1.020424	0.107710	0.286748
F131	F	1.171415	-0.257306	-0.934420
F132	F	1.671415	0.242694	-0.434420
H133	H	0.527434	-0.445563	-0.445250
H134	H	1.027434	0.054437	0.054750
F135	F	0.626463	-0.495960	-0.316420
F136	F	1.126463	0.004040	0.183580
H137	H	1.159513	-0.269106	-0.785376
H138	H	1.659513	0.230894	-0.285376
