data_functionalizedCrystal
_audit_creation_method	'MofGen! by Chris Wilmer'
_symmetry_space_group_name_H-M	'P1'
_symmetry_Int_Tables_number	1
_symmetry_cell_setting	triclinic
loop_
_symmetry_equiv_pos_as_xyz
  x,y,z
_cell_length_a	12.759395
_cell_length_b	16.625545
_cell_length_c	12.759387
_cell_angle_alpha	90.033270
_cell_angle_beta	90.020509
_cell_angle_gamma	90.027095
loop_
_atom_site_label
_atom_site_type_symbol
_atom_site_fract_x
_atom_site_fract_y
_atom_site_fract_z
Zn1	Zn	1.606189	-0.320926	0.593987
Zn2	Zn	2.106189	0.179074	1.093987
Zn3	Zn	1.606047	-0.455781	0.418300
Zn4	Zn	2.106047	0.044219	0.918300
Zn5	Zn	1.430488	-0.320970	0.418324
Zn6	Zn	1.930488	0.179030	0.918324
Zn7	Zn	1.430447	-0.455724	0.593939
Zn8	Zn	1.930447	0.044276	1.093939
O9	O	1.518293	-0.388350	0.506137
O10	O	2.018293	0.111650	1.006137
O11	O	1.753192	-0.338821	0.570692
O12	O	2.253192	0.161179	1.070692
O13	O	1.582716	-0.437941	0.271282
O14	O	2.082716	0.062059	0.771282
O15	O	1.453872	-0.208132	0.441656
O16	O	1.953872	0.291868	0.941656
O17	O	1.753087	-0.437898	0.441615
O18	O	2.253087	0.062102	0.941615
O19	O	1.582959	-0.208099	0.570715
O20	O	2.082959	0.291901	1.070715
O21	O	1.453733	-0.338895	0.271300
O22	O	1.953733	0.161105	0.771300
O23	O	1.283461	-0.338840	0.441610
O24	O	1.783461	0.161160	0.941610
O25	O	1.453802	-0.437800	0.740967
O26	O	1.953802	0.062200	1.240967
O27	O	1.283431	-0.437843	0.570633
O28	O	1.783431	0.062157	1.070633
O29	O	1.582919	-0.338765	0.741002
O30	O	2.082919	0.161235	1.241002
O31	O	1.582676	-0.568606	0.441569
O32	O	2.082676	-0.068606	0.941569
O33	O	1.453664	-0.568564	0.570610
O34	O	1.953664	-0.068564	1.070610
C35	C	1.245325	-0.388341	0.506119
C36	C	1.745325	0.111659	1.006119
C37	C	1.128548	-0.388356	0.506137
C38	C	1.628548	0.111644	1.006137
C39	C	1.518178	-0.597841	0.506104
C40	C	2.018178	-0.097841	1.006104
C41	C	1.518226	-0.687462	0.506125
C42	C	2.018226	-0.187462	1.006125
C43	C	1.128556	-0.491615	0.640272
C44	C	1.628556	0.008385	1.140272
C45	C	1.073698	-0.543250	0.707342
C46	C	1.573698	-0.043250	1.207342
C47	C	0.963977	-0.543260	0.707355
C48	C	1.463977	-0.043260	1.207355
C49	C	0.909110	-0.491627	0.640292
C50	C	1.409110	0.008373	1.140292
C51	C	0.963967	-0.439991	0.573222
C52	C	1.463967	0.060009	1.073222
C53	C	1.073691	-0.439989	0.573214
C54	C	1.573691	0.060011	1.073214
C55	C	0.963960	-0.336730	0.439094
C56	C	1.463960	0.163270	0.939094
C57	C	1.073681	-0.336723	0.439074
C58	C	1.573681	0.163277	0.939074
C59	C	0.909093	-0.285096	0.372031
C60	C	1.409093	0.214904	0.872031
C61	C	0.963950	-0.233463	0.304954
C62	C	1.463950	0.266537	0.804954
C63	C	1.073678	-0.233456	0.304943
C64	C	1.573678	0.266544	0.804943
C65	C	1.128539	-0.285087	0.372003
C66	C	1.628539	0.214913	0.872003
C67	C	1.518267	-0.760245	0.506146
C68	C	2.018267	-0.260245	1.006146
C69	C	1.518328	-0.851553	0.506169
C70	C	2.018328	-0.351553	1.006169
C71	C	1.518382	-0.924330	0.506183
C72	C	2.018382	-0.424330	1.006183
C73	C	1.518442	-1.015644	0.506204
C74	C	2.018442	-0.515644	1.006204
C75	C	1.792326	-0.388361	0.506156
C76	C	2.292326	0.111639	1.006156
C77	C	1.909103	-0.388365	0.506164
C78	C	2.409103	0.111635	1.006164
C79	C	1.518372	-0.388271	0.780171
C80	C	2.018372	0.111729	1.280171
C81	C	1.518406	-0.388238	0.896948
C82	C	2.018406	0.111762	1.396948
C83	C	1.518436	-0.178041	0.506194
C84	C	2.018436	0.321959	1.006194
C85	C	1.518497	-0.088420	0.506218
C86	C	2.018497	0.411580	1.006218
C87	C	1.518274	-0.388371	0.233170
C88	C	2.018274	0.111629	0.733170
C89	C	1.518444	-0.388177	0.116394
C90	C	2.018444	0.111823	0.616394
C91	C	1.652865	-0.285119	0.897004
C92	C	2.152865	0.214881	1.397004
C93	C	1.720109	-0.233547	0.951893
C94	C	2.220109	0.266453	1.451893
C95	C	1.720135	-0.233518	1.061615
C96	C	2.220135	0.266482	1.561615
C97	C	1.652907	-0.285064	1.116450
C98	C	2.152907	0.214936	1.616450
C99	C	1.585662	-0.336635	1.061561
C100	C	2.085662	0.163365	1.561561
C101	C	1.585646	-0.336661	0.951837
C102	C	2.085646	0.163339	1.451837
C103	C	1.451200	-0.439749	1.061505
C104	C	1.951200	0.060251	1.561505
C105	C	1.451178	-0.439784	0.951783
C106	C	1.951178	0.060216	1.451783
C107	C	1.383971	-0.491295	1.116340
C108	C	1.883971	0.008705	1.616340
C109	C	1.316731	-0.542872	1.061451
C110	C	1.816731	-0.042872	1.561451
C111	C	1.316709	-0.542900	0.951722
C112	C	1.816709	-0.042900	1.451722
C113	C	1.383934	-0.491355	0.896894
C114	C	1.883934	0.008645	1.396894
H115	H	1.217897	-0.491618	0.640260
H116	H	1.717897	0.008382	1.140260
H117	H	1.652925	-0.285028	1.205791
H118	H	2.152925	0.214972	1.705791
O119	O	0.790767	-0.491631	0.640319
O120	O	1.290767	0.008369	1.140319
H121	H	0.761831	-0.447052	0.582426
H122	H	1.261831	0.052948	1.082426
H123	H	1.383993	-0.491264	1.205681
H124	H	1.883993	0.008736	1.705681
H125	H	1.118383	-0.585288	0.761945
H126	H	1.618383	-0.085288	1.261945
O127	O	1.383905	-0.491395	0.778551
O128	O	1.883905	0.008605	1.278551
H129	H	1.362709	-0.430586	0.749633
H130	H	1.862709	0.069414	1.249633
O131	O	1.652867	-0.285154	0.778662
O132	O	2.152867	0.214846	1.278662
H133	H	1.674059	-0.345981	0.749729
H134	H	2.174059	0.154019	1.249729
H135	H	1.261994	-0.584832	1.106106
H136	H	1.761994	-0.084832	1.606106
H137	H	0.919312	-0.585302	0.761975
H138	H	1.419312	-0.085302	1.261975
H139	H	1.118337	-0.191402	0.250333
H140	H	1.618337	0.308598	0.750333
O141	O	1.244160	-0.598508	0.892520
O142	O	1.744160	-0.098508	1.392520
H143	H	1.197419	-0.634339	0.949087
H144	H	1.697419	-0.134339	1.449087
O145	O	1.792654	-0.177880	1.120807
O146	O	2.292654	0.322120	1.620807
H147	H	1.745661	-0.136838	1.170787
H148	H	2.245661	0.363162	1.670787
O149	O	0.790750	-0.285144	0.372026
O150	O	1.290750	0.214856	0.872026
H151	H	0.761834	-0.268950	0.451309
H152	H	1.261834	0.231050	0.951309
O153	O	0.904778	-0.177795	0.232605
O154	O	1.404778	0.322205	0.732605
H155	H	0.819266	-0.186483	0.243874
H156	H	1.319266	0.313517	0.743874
O157	O	1.246881	-0.285083	0.371984
O158	O	1.746881	0.214917	0.871984
H159	H	1.275858	-0.268861	0.451263
H160	H	1.775858	0.231139	0.951263
O161	O	1.792628	-0.177959	0.892754
O162	O	2.292628	0.322041	1.392754
H163	H	1.781327	-0.186648	0.807236
H164	H	2.281327	0.313352	1.307236
