data_functionalizedCrystal
_audit_creation_method	'MofGen! by Chris Wilmer'
_symmetry_space_group_name_H-M	'P1'
_symmetry_Int_Tables_number	1
_symmetry_cell_setting	triclinic
loop_
_symmetry_equiv_pos_as_xyz
  x,y,z
_cell_length_a	19.288864
_cell_length_b	10.723024
_cell_length_c	18.366186
_cell_angle_alpha	89.994974
_cell_angle_beta	89.977106
_cell_angle_gamma	83.802058
loop_
_atom_site_label
_atom_site_type_symbol
_atom_site_fract_x
_atom_site_fract_y
_atom_site_fract_z
O1	O	0.922366	0.155659	-0.060782
O2	O	0.720242	0.176657	-0.060732
O3	O	0.825966	-0.015516	-0.060755
O4	O	0.816641	0.347832	-0.060758
O5	O	0.825948	-0.015526	0.060344
O6	O	0.720223	0.176647	0.060368
O7	O	0.922347	0.155649	0.060318
Zn8	Zn	0.821282	0.166147	0.079570
Zn9	Zn	0.821306	0.166159	-0.079984
O10	O	0.816623	0.347822	0.060341
C11	C	0.694352	0.175976	-0.000176
C12	C	0.617235	0.173948	-0.000156
C13	C	0.825278	-0.062006	-0.000206
C14	C	0.823248	-0.200518	-0.000208
C15	C	0.573272	0.286707	-0.000169
C16	C	0.500813	0.284801	-0.000177
C17	C	0.472319	0.170131	-0.000187
C18	C	0.516291	0.057358	-0.000171
C19	C	0.588749	0.059266	-0.000155
C20	C	0.363477	0.079991	-0.042637
C21	C	0.291020	0.078087	-0.042657
C22	C	0.248835	0.164239	-0.000231
C23	C	0.279115	0.252317	0.042205
C24	C	0.351573	0.254226	0.042221
C25	C	0.393752	0.168049	-0.000203
C26	C	0.126303	0.274939	-0.000251
C27	C	0.053843	0.273029	-0.000255
C28	C	0.069323	0.045582	-0.000256
C29	C	0.141782	0.047496	-0.000245
C30	C	0.170267	0.162178	-0.000246
C31	C	0.882406	-0.276743	-0.000224
C32	C	0.880309	-0.419902	-0.000226
C33	C	0.948237	0.156330	-0.000240
C34	C	1.025354	0.158358	-0.000264
C35	C	0.817311	0.394313	-0.000209
C36	C	0.819341	0.532824	-0.000212
N37	N	0.821271	0.166138	0.188461
N38	N	0.821323	0.166159	-0.188875
C39	C	0.868102	0.081085	0.226551
C40	C	0.868106	0.081079	0.302779
C41	C	0.821287	0.166148	0.340914
C42	C	0.774447	0.251207	0.302815
C43	C	0.774440	0.251202	0.226588
C44	C	0.812728	0.279840	0.461675
C45	C	0.812741	0.279847	0.537899
C46	C	0.821307	0.166164	0.576021
C47	C	0.829874	0.052468	0.537909
C48	C	0.829867	0.052463	0.461682
C49	C	0.821290	0.166162	0.423569
C50	C	0.868144	0.081098	0.696766
C51	C	0.868144	0.081091	0.772995
C52	C	0.774489	0.251229	0.773030
C53	C	0.774486	0.251225	0.696802
C54	C	0.821317	0.166161	0.658675
H55	H	0.465012	0.376626	-0.000185
C56	C	0.919648	-0.012479	0.654823
H57	H	0.947533	-0.063150	0.688429
H58	H	0.948771	0.032271	0.625069
H59	H	0.894410	-0.064311	0.625105
H60	H	0.736355	0.320488	0.665787
H61	H	0.934605	-0.236017	-0.000232
H62	H	0.266372	0.006374	-0.077214
H63	H	0.736325	0.320469	0.333868
H64	H	0.771048	-0.241244	-0.000200
C65	C	0.948727	-0.508373	-0.000248
H66	H	0.938342	-0.592985	-0.000253
H67	H	0.975021	-0.493373	0.041973
H68	H	0.975025	-0.493354	-0.042492
C69	C	0.384882	0.351091	0.088900
H70	H	0.434076	0.339890	0.082827
H71	H	0.373727	0.339810	0.138683
H72	H	0.367400	0.433341	0.073978
H73	H	0.768695	-0.401687	-0.000194
C74	C	0.190146	-0.076537	-0.000242
H75	H	0.237379	-0.058977	-0.000227
H76	H	0.181474	-0.123571	-0.042474
H77	H	0.181428	-0.123577	0.041991
H78	H	0.906233	0.011818	0.195510
H79	H	0.244769	0.322470	0.076753
H80	H	0.906277	0.011824	0.804009
C81	C	0.803322	0.404905	0.579816
H82	H	0.798208	0.472609	0.546197
H83	H	0.843043	0.411654	0.609528
H84	H	0.762892	0.407612	0.609575
C85	C	0.722988	0.344803	0.814969
H86	H	0.729701	0.332630	0.865823
H87	H	0.676570	0.331465	0.802501
H88	H	0.730929	0.428050	0.802466
C89	C	0.919623	-0.012480	0.344687
H90	H	0.947514	-0.063136	0.311062
H91	H	0.894398	-0.064307	0.374442
H92	H	0.948749	0.032294	0.374401
C93	C	0.722929	0.344772	0.184688
H94	H	0.695047	0.395442	0.218314
H95	H	0.693804	0.300020	0.154966
H96	H	0.748164	0.396605	0.154939
H97	H	0.805741	0.372421	0.430642
C98	C	0.839291	-0.072591	0.579832
H99	H	0.838060	-0.056310	0.630688
H100	H	0.882882	-0.117294	0.567324
H101	H	0.802729	-0.121312	0.567358
H102	H	0.493087	-0.036008	-0.000189
C103	C	0.637113	-0.064770	-0.000147
H104	H	0.684346	-0.047209	-0.000134
H105	H	0.628441	-0.111808	-0.042378
H106	H	0.628397	-0.111808	0.042087
C107	C	0.037989	-0.080553	-0.000271
H108	H	-0.011462	-0.065542	-0.000287
H109	H	0.053019	-0.126976	0.041958
H110	H	0.053067	-0.126953	-0.042507
C111	C	0.409877	-0.014783	-0.089306
H112	H	0.457367	-0.001042	-0.083214
H113	H	0.397285	-0.004128	-0.139094
H114	H	0.403611	-0.097656	-0.074387
C115	C	0.604606	0.412848	-0.000166
H116	H	0.654057	0.397839	-0.000161
H117	H	0.589527	0.459264	0.042058
H118	H	0.589575	0.459254	-0.042407
C119	C	0.157641	0.401081	-0.000245
H120	H	0.121077	0.467966	-0.000243
H121	H	0.185606	0.406559	-0.042471
H122	H	0.185563	0.406548	0.041995
H123	H	0.018048	0.364855	-0.000261
H124	H	0.836841	-0.040112	0.430654
