data_functionalizedCrystal
_audit_creation_method	'MofGen! by Chris Wilmer'
_symmetry_space_group_name_H-M	'P1'
_symmetry_Int_Tables_number	1
_symmetry_cell_setting	triclinic
loop_
_symmetry_equiv_pos_as_xyz
  x,y,z
_cell_length_a	17.699097
_cell_length_b	14.519731
_cell_length_c	16.176319
_cell_angle_alpha	89.992219
_cell_angle_beta	89.988988
_cell_angle_gamma	83.488642
loop_
_atom_site_label
_atom_site_type_symbol
_atom_site_fract_x
_atom_site_fract_y
_atom_site_fract_z
O1	O	1.004414	0.116682	-0.068817
O2	O	1.337747	0.450015	0.264516
O3	O	1.671080	0.783348	0.597850
O4	O	0.784081	0.131842	-0.068804
O5	O	1.117414	0.465175	0.264529
O6	O	1.450748	0.798508	0.597863
O7	O	0.900081	-0.010000	-0.068803
O8	O	1.233414	0.323333	0.264530
O9	O	1.566748	0.656667	0.597863
O10	O	0.888414	0.258523	-0.068818
O11	O	1.221747	0.591857	0.264516
O12	O	1.555081	0.925190	0.597849
O13	O	0.900065	-0.010009	0.068690
O14	O	1.233398	0.323324	0.402023
O15	O	1.566732	0.656658	0.735357
O16	O	0.784065	0.131833	0.068689
O17	O	1.117398	0.465166	0.402023
O18	O	1.450732	0.798499	0.735356
O19	O	1.004398	0.116673	0.068676
O20	O	1.337731	0.450006	0.402009
O21	O	1.671064	0.783339	0.735343
Cu22	Cu	0.894230	0.124252	0.081237
Cu23	Cu	1.227563	0.457585	0.414570
Cu24	Cu	1.560897	0.790918	0.747904
Cu25	Cu	0.894249	0.124262	-0.081365
Cu26	Cu	1.227582	0.457596	0.251969
Cu27	Cu	1.560916	0.790929	0.585302
O28	O	0.888398	0.258514	0.068676
O29	O	1.221731	0.591848	0.402009
O30	O	1.555065	0.925181	0.735342
C31	C	0.755875	0.131292	-0.000056
C32	C	1.089208	0.464625	0.333278
C33	C	1.422541	0.797959	0.666611
C34	C	0.671852	0.129656	-0.000050
C35	C	1.005186	0.462989	0.333283
C36	C	1.338519	0.796323	0.666616
C37	C	0.899526	-0.044362	-0.000056
C38	C	1.232860	0.288972	0.333277
C39	C	1.566193	0.622305	0.666610
C40	C	0.897888	-0.146735	-0.000056
C41	C	1.231221	0.186598	0.333277
C42	C	1.564555	0.519932	0.666611
C43	C	0.156114	0.119634	-0.075031
C44	C	0.489447	0.452967	0.258303
C45	C	0.822780	0.786300	0.591636
C46	C	0.235062	0.121164	-0.075027
C47	C	0.568395	0.454498	0.258307
C48	C	0.901729	0.787831	0.591640
C49	C	0.274522	0.121926	-0.000076
C50	C	0.607855	0.455260	0.333258
C51	C	0.941188	0.788593	0.666591
C52	C	0.235029	0.121148	0.074876
C53	C	0.568363	0.454481	0.408209
C54	C	0.901696	0.787815	0.741543
C55	C	0.156083	0.119611	0.074871
C56	C	0.489416	0.452944	0.408204
C57	C	0.822750	0.786277	0.741538
C58	C	0.553412	0.127347	0.074897
C59	C	0.886745	0.460680	0.408231
C60	C	1.220078	0.794014	0.741564
C61	C	0.632363	0.128887	0.074897
C62	C	0.965697	0.462221	0.408230
C63	C	1.299030	0.795554	0.741563
C64	C	0.632391	0.128901	-0.075000
C65	C	0.965724	0.462234	0.258333
C66	C	1.299057	0.795567	0.591666
C67	C	0.553444	0.127363	-0.075005
C68	C	0.886778	0.460697	0.258328
C69	C	1.220111	0.794030	0.591661
C70	C	0.513960	0.126580	-0.000054
C71	C	0.847293	0.459914	0.333279
C72	C	1.180626	0.793247	0.666613
C73	C	0.428355	0.124919	-0.000059
C74	C	0.761688	0.458252	0.333274
C75	C	1.095021	0.791585	0.666607
C76	C	0.360124	0.123595	-0.000070
C77	C	0.693458	0.456928	0.333264
C78	C	1.026791	0.790261	0.666597
C79	C	0.896557	-0.229874	-0.000058
C80	C	1.229890	0.103460	0.333276
C81	C	1.563224	0.436793	0.666609
C82	C	0.894894	-0.334175	-0.000064
C83	C	1.228227	-0.000842	0.333269
C84	C	1.561561	0.332491	0.666603
C85	C	0.893574	-0.417309	-0.000069
C86	C	1.226907	-0.083976	0.333264
C87	C	1.560241	0.249358	0.666597
C88	C	0.891911	-0.521617	-0.000074
C89	C	1.225244	-0.188284	0.333259
C90	C	1.558578	0.145049	0.666593
C91	C	1.032604	0.117222	-0.000074
C92	C	1.365938	0.450556	0.333259
C93	C	1.699271	0.783889	0.666593
C94	C	1.116627	0.118858	-0.000085
C95	C	1.449960	0.452192	0.333249
C96	C	1.783293	0.785525	0.666582
C97	C	0.888953	0.292876	-0.000073
C98	C	1.222286	0.626209	0.333260
C99	C	1.555619	0.959542	0.666594
C100	C	0.890591	0.395249	-0.000079
C101	C	1.223924	0.728583	0.333254
C102	C	1.557258	1.061916	0.666588
N103	N	0.894222	0.124244	0.195602
N104	N	1.227556	0.457577	0.528936
N105	N	1.560889	0.790910	0.862269
N106	N	0.894263	0.124263	-0.195730
N107	N	1.227596	0.457597	0.137603
N108	N	1.560929	0.790930	0.470937
C109	C	0.945602	0.061462	0.238867
C110	C	1.278936	0.394795	0.572200
C111	C	1.612269	0.728129	0.905533
C112	C	0.945606	0.061461	0.325414
C113	C	1.278940	0.394794	0.658747
C114	C	1.612273	0.728128	0.992080
C115	C	0.894233	0.124247	0.368695
C116	C	1.227566	0.457580	0.702028
C117	C	1.560900	0.790914	1.035361
C118	C	0.842847	0.187032	0.325424
C119	C	1.176181	0.520365	0.658758
C120	C	1.509514	0.853698	0.992091
C121	C	0.842840	0.187028	0.238879
C122	C	1.176174	0.520361	0.572212
C123	C	1.509507	0.853694	0.905545
C124	C	0.842873	0.187049	0.674453
C125	C	1.176206	0.520382	1.007786
C126	C	1.509540	0.853716	1.341119
C127	C	0.842886	0.187050	0.761004
C128	C	1.176219	0.520384	1.094337
C129	C	1.509552	0.853717	1.427671
C130	C	0.945639	0.061482	0.760987
C131	C	1.278972	0.394816	1.094321
C132	C	1.612306	0.728149	1.427654
C133	C	0.945632	0.061478	0.674442
C134	C	1.278966	0.394811	1.007775
C135	C	1.612299	0.728145	1.341109
C136	C	0.894244	0.124259	0.631179
C137	C	1.227578	0.457593	0.964512
C138	C	1.560911	0.790926	1.297846
C139	C	0.894240	0.124258	0.537335
C140	C	1.227573	0.457592	0.870668
C141	C	1.560906	0.790925	1.204002
C142	C	0.894240	0.124253	0.462537
C143	C	1.227574	0.457586	0.795871
C144	C	1.560907	0.790920	1.129204
H145	H	0.123991	0.119020	-0.136065
H146	H	0.457324	0.452353	0.197269
H147	H	0.790657	0.785686	0.530602
H148	H	0.987480	0.010359	0.796221
H149	H	1.320813	0.343693	1.129555
H150	H	1.654147	0.677026	1.462888
H151	H	0.521274	0.126696	0.135927
H152	H	0.854607	0.460029	0.469261
H153	H	1.187941	0.793362	0.802594
H154	H	0.267164	0.121763	0.135902
H155	H	0.600498	0.455096	0.469236
H156	H	0.933831	0.788429	0.802569
H157	H	0.664549	0.129534	-0.136029
H158	H	0.997883	0.462868	0.197304
H159	H	1.331216	0.796201	0.530637
H160	H	0.123933	0.118989	0.135900
H161	H	0.457266	0.452322	0.469233
H162	H	0.790599	0.785656	0.802566
H163	H	0.521320	0.126747	-0.136038
H164	H	0.854653	0.460081	0.197295
H165	H	1.187986	0.793414	0.530629
H166	H	0.987440	0.010338	0.203633
H167	H	1.320773	0.343671	0.536966
H168	H	1.654106	0.677005	0.870300
H169	H	0.801048	0.238180	0.796242
H170	H	1.134382	0.571513	1.129575
H171	H	1.467715	0.904847	1.462909
H172	H	0.987468	0.010355	0.639205
H173	H	1.320801	0.343688	0.972539
H174	H	1.654134	0.677022	1.305872
H175	H	0.664489	0.129507	0.135934
H176	H	0.997822	0.462841	0.469268
H177	H	1.331156	0.796174	0.802601
H178	H	0.987443	0.010339	0.360639
H179	H	1.320777	0.343672	0.693973
H180	H	1.654110	0.677005	1.027306
H181	H	0.801014	0.238150	0.360669
H182	H	1.134348	0.571484	0.694002
H183	H	1.467681	0.904817	1.027335
H184	H	0.801033	0.238169	0.639235
H185	H	1.134366	0.571503	0.972568
H186	H	1.467699	0.904836	1.305901
H187	H	0.801000	0.238150	0.203654
H188	H	1.134334	0.571483	0.536987
H189	H	1.467667	0.904816	0.870320
H190	H	0.267209	0.121790	-0.136055
H191	H	0.600543	0.455123	0.197278
H192	H	0.933876	0.788457	0.530612
