data_functionalizedCrystal
_audit_creation_method	'MofGen! by Chris Wilmer'
_symmetry_space_group_name_H-M	'P1'
_symmetry_Int_Tables_number	1
_symmetry_cell_setting	triclinic
loop_
_symmetry_equiv_pos_as_xyz
  x,y,z
_cell_length_a	16.109317
_cell_length_b	14.586319
_cell_length_c	16.109301
_cell_angle_alpha	89.995022
_cell_angle_beta	96.535152
_cell_angle_gamma	89.999094
loop_
_atom_site_label
_atom_site_type_symbol
_atom_site_fract_x
_atom_site_fract_y
_atom_site_fract_z
O1	O	-1.103122	-0.076146	0.106931
O2	O	-0.769789	0.257188	0.440264
O3	O	-0.436456	0.590521	0.773598
O4	O	-0.861062	-0.076169	0.120216
O5	O	-0.527729	0.257164	0.453549
O6	O	-0.194396	0.590497	0.786883
O7	O	-0.988742	-0.076147	-0.007457
O8	O	-0.655409	0.257186	0.325876
O9	O	-0.322075	0.590519	0.659210
O10	O	-0.975443	-0.076167	0.234604
O11	O	-0.642109	0.257166	0.567937
O12	O	-0.308776	0.590499	0.901271
O13	O	-0.988733	0.076333	-0.007458
O14	O	-0.655399	0.409667	0.325875
O15	O	-0.322066	0.743000	0.659208
O16	O	-0.861053	0.076312	0.120215
O17	O	-0.527720	0.409645	0.453548
O18	O	-0.194386	0.742978	0.786881
O19	O	-1.103113	0.076335	0.106930
O20	O	-0.769780	0.409669	0.440263
O21	O	-0.436446	0.743002	0.773596
Cu22	Cu	-0.982082	0.090246	0.113572
Cu23	Cu	-0.648749	0.423579	0.446905
Cu24	Cu	-0.315416	0.756913	0.780239
Cu25	Cu	-0.982093	-0.090080	0.113574
Cu26	Cu	-0.648760	0.243253	0.446907
Cu27	Cu	-0.315427	0.576587	0.780240
O28	O	-0.975433	0.076313	0.234603
O29	O	-0.642100	0.409647	0.567936
O30	O	-0.308767	0.742980	0.901270
C31	C	-0.830083	0.000068	0.119675
C32	C	-0.496750	0.333402	0.453008
C33	C	-0.163416	0.666735	0.786342
C34	C	-0.737788	0.000060	0.118054
C35	C	-0.404455	0.333393	0.451388
C36	C	-0.071122	0.666726	0.784721
N37	N	-0.982081	0.217078	0.113571
N38	N	-0.648747	0.550411	0.446904
N39	N	-0.315414	0.883745	0.780237
C40	C	-0.988199	0.000093	-0.038433
C41	C	-0.654865	0.333427	0.294901
C42	C	-0.321532	0.666760	0.628234
C43	C	-0.986584	0.000095	-0.130728
C44	C	-0.653250	0.333428	0.202605
C45	C	-0.319917	0.666761	0.535939
C46	C	-0.438720	-0.083047	0.112821
C47	C	-0.105386	0.250286	0.446154
C48	C	0.227947	0.583620	0.779488
C49	C	-0.525441	-0.083051	0.114338
C50	C	-0.192108	0.250282	0.447671
C51	C	0.141226	0.583616	0.781005
C52	C	-0.525450	0.083192	0.114325
C53	C	-0.192116	0.416525	0.447659
C54	C	0.141217	0.749859	0.780992
C55	C	-0.438731	0.083195	0.112802
C56	C	-0.105397	0.416528	0.446136
C57	C	0.227936	0.749862	0.779469
C58	C	-0.395367	0.000073	0.112054
C59	C	-0.062034	0.333406	0.445388
C60	C	0.271299	0.666740	0.778721
C61	C	-0.568808	0.000066	0.115095
C62	C	-0.235474	0.333399	0.448428
C63	C	0.097859	0.666732	0.781761
C64	C	-0.662835	0.000062	0.116740
C65	C	-0.329501	0.333395	0.450073
C66	C	0.003832	0.666729	0.783406
C67	C	-0.301335	0.000076	0.110408
C68	C	0.031999	0.333410	0.443741
C69	C	0.365332	0.666743	0.777074
C70	C	-0.134092	0.000091	0.107472
C71	C	0.199241	0.333424	0.440805
C72	C	0.532574	0.666758	0.774138
C73	C	-0.226387	0.000079	0.109095
C74	C	0.106947	0.333412	0.442428
C75	C	0.440280	0.666746	0.775761
C76	C	-1.038635	0.452094	0.057057
C77	C	-0.705302	0.785427	0.390390
C78	C	-0.371968	1.118761	0.723724
C79	C	-1.038637	0.548075	0.057055
C80	C	-0.705304	0.881409	0.390389
C81	C	-0.371970	1.214742	0.723722
C82	C	-0.925538	0.548065	0.170089
C83	C	-0.592204	0.881399	0.503423
C84	C	-0.258871	1.214732	0.836756
C85	C	-0.925532	0.452086	0.170086
C86	C	-0.592199	0.785419	0.503419
C87	C	-0.258866	1.118753	0.836753
C88	C	-0.982086	0.404103	0.113571
C89	C	-0.648752	0.737436	0.446904
C90	C	-0.315419	1.070769	0.780238
C91	C	-0.982093	0.596063	0.113572
C92	C	-0.648760	0.929397	0.446906
C93	C	-0.315426	1.262730	0.780239
C94	C	-0.982095	0.700131	0.113571
C95	C	-0.648762	1.033464	0.446904
C96	C	-0.315428	1.366797	0.780238
C97	C	-0.982083	0.300029	0.113571
C98	C	-0.648750	0.633362	0.446904
C99	C	-0.315416	0.966696	0.780238
N100	N	-0.982098	0.783088	0.113573
N101	N	-0.648765	1.116422	0.446906
N102	N	-0.315432	1.449755	0.780239
C103	C	-1.058591	0.000087	-0.352996
C104	C	-0.725257	0.333420	-0.019663
C105	C	-0.391924	0.666754	0.313671
C106	C	-1.057067	0.000079	-0.439717
C107	C	-0.723733	0.333413	-0.106383
C108	C	-0.390400	0.666746	0.226950
C109	C	-0.905579	0.000068	-0.419851
C110	C	-0.572246	0.333402	-0.086518
C111	C	-0.238912	0.666735	0.246815
C112	C	-0.907104	0.000069	-0.333132
C113	C	-0.573771	0.333403	0.000201
C114	C	-0.240437	0.666736	0.333534
C115	C	-0.983612	0.000083	-0.299707
C116	C	-0.650279	0.333417	0.033626
C117	C	-0.316946	0.666750	0.366959
C118	C	-0.980563	0.000075	-0.473147
C119	C	-0.647230	0.333408	-0.139813
C120	C	-0.313897	0.666741	0.193520
C121	C	-0.978910	0.000066	-0.567173
C122	C	-0.645577	0.333400	-0.233840
C123	C	-0.312244	0.666733	0.099494
C124	C	-0.985266	0.000090	-0.205675
C125	C	-0.651932	0.333423	0.127658
C126	C	-0.318599	0.666757	0.460991
C127	C	-0.975977	0.000071	0.265578
C128	C	-0.642644	0.333404	0.598912
C129	C	-0.309310	0.666737	0.932245
C130	C	-0.977592	0.000063	0.357874
C131	C	-0.644259	0.333397	0.691207
C132	C	-0.310925	0.666730	1.024540
H133	H	-0.403416	-0.150730	0.112211
H134	H	-0.070083	0.182603	0.445544
H135	H	0.263251	0.515936	0.778878
H136	H	-0.843289	0.000059	-0.447077
H137	H	-0.509955	0.333392	-0.113743
H138	H	-0.176622	0.666725	0.219590
H139	H	-0.879495	0.587143	0.216104
H140	H	-0.546161	0.920476	0.549437
H141	H	-0.212828	1.253810	0.882770
H142	H	-0.846044	0.000064	-0.289742
H143	H	-0.512710	0.333397	0.043591
H144	H	-0.179377	0.666730	0.376925
O145	O	-0.572202	-0.172701	0.115170
O146	O	-0.238869	0.160633	0.448504
O147	O	0.094464	0.493966	0.781837
H148	H	-0.527476	-0.230496	0.114400
H149	H	-0.194143	0.102838	0.447734
H150	H	0.139190	0.436171	0.781067
H151	H	-1.084684	0.587147	0.011035
H152	H	-0.751350	0.920481	0.344369
H153	H	-0.418017	1.253814	0.677702
H154	H	-1.084683	0.413028	0.011038
H155	H	-0.751350	0.746362	0.344371
H156	H	-0.418016	1.079695	0.677704
H157	H	-0.560766	0.150867	0.114936
H158	H	-0.227433	0.484200	0.448269
H159	H	0.105900	0.817534	0.781603
O160	O	-0.864540	0.400313	0.231046
O161	O	-0.531207	0.733646	0.564379
O162	O	-0.197874	1.066979	0.897713
H163	H	-0.825225	0.449801	0.270354
H164	H	-0.491892	0.783135	0.603687
H165	H	-0.158558	1.116468	0.937021
H166	H	-1.120889	0.000097	-0.325785
H167	H	-0.787555	0.333430	0.007549
H168	H	-0.454222	0.666763	0.340882
O169	O	-1.137938	0.000097	-0.497191
O170	O	-0.804605	0.333430	-0.163858
O171	O	-0.471271	0.666764	0.169475
H172	H	-1.174561	-0.062041	-0.485299
H173	H	-0.841228	0.271293	-0.151965
H174	H	-0.507894	0.604626	0.181368
O175	O	-0.391961	0.172849	0.111981
O176	O	-0.058628	0.506183	0.445314
O177	O	0.274705	0.839516	0.778647
H178	H	-0.436680	0.230649	0.112771
H179	H	-0.103347	0.563982	0.446104
H180	H	0.229987	0.897316	0.779437
