data_functionalizedCrystal
_audit_creation_method	'MofGen! by Chris Wilmer'
_symmetry_space_group_name_H-M	'P1'
_symmetry_Int_Tables_number	1
_symmetry_cell_setting	triclinic
loop_
_symmetry_equiv_pos_as_xyz
  x,y,z
_cell_length_a	6.817900
_cell_length_b	10.992410
_cell_length_c	10.992668
_cell_angle_alpha	91.832960
_cell_angle_beta	108.769342
_cell_angle_gamma	108.764651
loop_
_atom_site_label
_atom_site_type_symbol
_atom_site_fract_x
_atom_site_fract_y
_atom_site_fract_z
V1	V	-4.114280	-0.400588	-0.177763
O2	O	-4.072374	-0.392968	0.008542
O3	O	-4.091890	-0.397843	-0.352475
O4	O	-4.091871	-0.575300	-0.175029
O5	O	-4.072393	-0.214282	-0.170132
V6	V	-4.591170	-0.378305	-0.155479
O7	O	-4.390089	-0.449467	-0.226646
O8	O	-4.765558	-0.329425	-0.106597
O9	O	-4.390353	-0.381050	0.019232
O10	O	-4.750472	-0.385925	-0.341785
O11	O	-4.750453	-0.564611	-0.163110
O12	O	-4.390371	-0.203592	-0.158213
C13	C	-3.942377	-0.391522	-0.395066
C14	C	-4.005531	-0.390442	-0.537895
C15	C	-4.252012	-0.397771	-0.600203
C16	C	-4.317510	-0.396139	-0.748689
C17	C	-3.920752	-0.261985	-0.718266
C18	C	-3.856485	-0.263077	-0.569698
C19	C	-3.980036	-0.508433	-0.607725
C20	C	-4.050700	-0.509050	-0.756740
C21	C	-3.942352	-0.617885	-0.168714
C22	C	-4.005486	-0.760713	-0.167635
C23	C	-3.872608	-0.955837	-0.157798
C24	C	-3.807058	-0.807354	-0.159453
C25	C	-4.203525	-0.837814	-0.294317
C26	C	-4.267838	-0.986380	-0.293197
C27	C	-4.145561	-0.948356	-0.047894
C28	C	-4.074851	-0.799343	-0.047294
C29	C	-4.203208	-0.387367	0.061817
C30	C	-4.119294	-0.388455	0.204644
C31	C	-4.203232	-0.161001	-0.164532
C32	C	-4.119335	-0.018171	-0.165605
H33	H	-4.466340	-0.487059	-0.802018
C34	C	-4.266650	-0.755271	-0.045188
N35	N	-4.411064	-0.722030	-0.043582
C36	C	-4.246813	-1.048887	-0.413598
N37	N	-4.230962	-1.095961	-0.504284
C38	C	-4.410888	-0.521424	-0.574739
N39	N	-4.530552	-0.614563	-0.555549
C40	C	-4.119671	-0.638199	-0.580215
N41	N	-4.224865	-0.735933	-0.559494
C42	C	-3.838927	-1.020674	-0.272051
N43	N	-3.813565	-1.069514	-0.358106
C44	C	-4.284966	-0.283221	-0.535363
N45	N	-4.309779	-0.196939	-0.486524
C46	C	-3.606447	-0.735294	-0.036408
N47	N	-3.455328	-0.681025	0.056268
H48	H	-3.801239	-0.504187	-0.566899
H49	H	-4.157779	-0.812206	-0.383665
H50	H	-4.374121	-0.310189	-0.773496
H51	H	-3.871482	-0.173753	-0.523419
H52	H	-4.042629	-0.968717	0.048305
C53	C	-3.729835	-0.773822	-0.275303
N54	N	-3.671677	-0.748568	-0.362569
C55	C	-3.717787	-0.248192	-0.757219
N56	N	-3.564921	-0.237802	-0.786566
H57	H	-3.674642	-0.252431	-0.527088
H58	H	-4.324546	-0.989196	-0.052498
C59	C	-3.881298	-0.728618	0.079313
N60	N	-3.735508	-0.675339	0.174671
H61	H	-3.965929	-0.172458	-0.743867
H62	H	-4.449842	-1.029011	-0.304212
C63	C	-3.858978	-0.511556	-0.800692
N64	N	-3.714553	-0.513432	-0.833790
H65	H	-4.194355	-0.602609	-0.809075
H66	H	-3.755388	-0.974669	-0.066082
H67	H	-4.353903	-0.809010	-0.304879
