data_functionalizedCrystal
_audit_creation_method	'MofGen! by Chris Wilmer'
_symmetry_space_group_name_H-M	'P1'
_symmetry_Int_Tables_number	1
_symmetry_cell_setting	triclinic
loop_
_symmetry_equiv_pos_as_xyz
  x,y,z
_cell_length_a	12.594517
_cell_length_b	21.295417
_cell_length_c	12.594509
_cell_angle_alpha	89.963755
_cell_angle_beta	89.978673
_cell_angle_gamma	90.030306
loop_
_atom_site_label
_atom_site_type_symbol
_atom_site_fract_x
_atom_site_fract_y
_atom_site_fract_z
Zn1	Zn	1.627160	-0.250594	-0.601801
Zn2	Zn	1.627006	-0.355872	-0.423797
Zn3	Zn	1.449164	-0.250621	-0.423830
Zn4	Zn	1.449101	-0.355829	-0.601727
O5	O	1.538108	-0.303229	-0.512789
O6	O	1.776085	-0.264566	-0.578205
O7	O	1.603377	-0.341940	-0.274856
O8	O	1.472866	-0.162528	-0.447482
O9	O	1.775972	-0.341914	-0.447427
O10	O	1.603639	-0.162508	-0.578237
O11	O	1.472717	-0.264612	-0.274879
O12	O	1.300210	-0.264570	-0.447411
O13	O	1.472759	-0.341839	-0.750683
O14	O	1.300164	-0.341865	-0.578112
O15	O	1.603578	-0.264524	-0.750737
O16	O	1.603316	-0.443956	-0.447356
O17	O	1.472610	-0.443924	-0.578080
C18	C	1.261567	-0.303216	-0.512757
C19	C	1.143261	-0.303226	-0.512769
C20	C	1.074002	-0.261127	-0.441817
C21	C	1.003167	-0.318547	-0.415623
C22	C	1.003298	-0.245834	-0.538981
C23	C	1.073984	-0.360676	-0.486525
C24	C	1.074121	-0.287924	-0.609928
C25	C	1.003318	-0.345384	-0.583771
C26	C	1.537968	-0.466780	-0.512730
C27	C	1.538006	-0.536748	-0.512740
C28	C	1.606125	-0.569611	-0.444742
C29	C	1.606175	-0.635353	-0.444766
C30	C	1.538087	-0.668231	-0.512777
C31	C	1.469963	-0.635361	-0.580789
C32	C	1.469923	-0.569619	-0.580770
N33	N	1.444976	-0.771496	-0.520881
N34	N	1.445018	-0.833948	-0.520892
C35	C	1.538206	-0.866306	-0.512838
N36	N	1.631353	-0.833853	-0.504752
N37	N	1.631311	-0.771396	-0.504735
C38	C	1.538123	-0.739516	-0.512805
C39	C	1.606385	-0.970454	-0.444862
C40	C	1.606436	-1.036197	-0.444893
C41	C	1.470215	-1.036203	-0.580910
C42	C	1.470173	-0.970461	-0.580885
C43	C	1.538256	-0.937590	-0.512855
C44	C	1.815729	-0.303242	-0.512821
C45	C	1.934034	-0.303247	-0.512835
C46	C	1.538179	-0.303174	-0.790410
C47	C	1.538209	-0.303150	-0.908715
C48	C	1.538277	-0.139038	-0.512871
C49	C	1.538349	-0.069070	-0.512906
C50	C	1.467079	-0.345178	-0.977939
C51	C	1.564193	-0.360559	-1.048726
C52	C	1.441171	-0.287731	-1.048728
C53	C	1.635374	-0.318561	-0.977944
C54	C	1.512287	-0.245707	-0.977939
C55	C	1.609468	-0.261066	-1.048694
C56	C	1.538098	-0.303238	-0.236248
C57	C	1.538274	-0.303084	-0.117943
H58	H	1.104905	-0.409235	-0.464291
H59	H	1.661565	-0.542849	-0.389350
O60	O	1.110986	-0.218766	-0.370008
C61	C	1.074803	-0.235142	-0.267714
H62	H	1.054919	-0.287357	-0.265547
H63	H	1.139503	-0.224589	-0.207006
H64	H	1.000730	-0.206721	-0.247872
H65	H	1.717489	-0.331630	-0.946982
O66	O	0.965850	-0.333890	-0.317636
C67	C	0.902755	-0.284385	-0.278432
H68	H	0.871792	-0.255161	-0.347668
H69	H	0.832887	-0.304540	-0.231987
H70	H	0.952563	-0.253424	-0.223940
O71	O	1.672622	-0.938616	-0.378752
C72	C	1.732745	-0.981722	-0.318724
H73	H	1.736443	-1.028560	-0.362342
H74	H	1.816598	-0.962685	-0.307436
H75	H	1.693815	-0.988778	-0.237855
O76	O	1.672378	-0.667188	-0.378604
C77	C	1.732481	-0.624078	-0.318578
H78	H	1.688864	-0.577238	-0.314843
H79	H	1.743880	-0.643107	-0.234731
H80	H	1.813299	-0.617029	-0.357618
O81	O	1.111520	-0.272484	-0.707833
C82	C	1.223453	-0.273241	-0.706632
H83	H	1.252242	-0.304661	-0.639230
H84	H	1.254125	-0.292179	-0.785527
H85	H	1.254506	-0.223494	-0.694168
H86	H	0.972477	-0.381035	-0.643801
O87	O	1.403935	-0.667267	-0.647006
C88	C	1.427114	-0.651130	-0.753105
H89	H	1.512131	-0.633011	-0.758551
H90	H	1.417943	-0.694345	-0.805691
H91	H	1.370011	-0.612987	-0.780867
O92	O	1.681190	-0.218555	-1.085571
C93	C	1.628461	-0.172919	-1.147192
H94	H	1.541219	-0.171037	-1.123260
H95	H	1.666572	-0.125054	-1.133327
H96	H	1.634953	-0.185760	-1.234816
H97	H	1.661914	-1.062953	-0.389523
H98	H	1.586154	-0.409109	-1.079819
O99	O	0.966380	-0.187874	-0.565281
C100	C	1.002372	-0.143635	-0.490212
H101	H	1.076862	-0.162249	-0.449587
H102	H	1.021504	-0.097517	-0.532079
H103	H	0.937858	-0.135365	-0.428269
H104	H	1.359080	-0.274717	-1.079821
O105	O	1.485871	-0.187824	-0.940854
C106	C	1.383429	-0.171776	-0.976876
H107	H	1.337471	-0.216376	-0.996750
H108	H	1.339780	-0.144765	-0.912083
H109	H	1.390200	-0.141212	-1.050921
H110	H	1.414451	-0.542862	-0.636144
H111	H	1.414781	-1.062971	-0.636291
H112	H	1.414699	-0.943702	-0.636251
H113	H	1.406974	-0.380775	-0.946873
