data_functionalizedCrystal
_audit_creation_method	'MofGen! by Chris Wilmer'
_symmetry_space_group_name_H-M	'P1'
_symmetry_Int_Tables_number	1
_symmetry_cell_setting	triclinic
loop_
_symmetry_equiv_pos_as_xyz
  x,y,z
_cell_length_a	19.121063
_cell_length_b	18.101398
_cell_length_c	18.101389
_cell_angle_alpha	89.991407
_cell_angle_beta	87.580609
_cell_angle_gamma	87.536641
loop_
_atom_site_label
_atom_site_type_symbol
_atom_site_fract_x
_atom_site_fract_y
_atom_site_fract_z
Zn1	Zn	-0.279786	-1.119553	0.431097
Zn2	Zn	-0.397222	-1.114174	0.312531
Zn3	Zn	-0.279778	-0.995713	0.307292
Zn4	Zn	-0.397191	-0.990390	0.436352
O5	O	-0.338494	-1.054958	0.371818
O6	O	-0.295381	-1.222472	0.415362
O7	O	-0.381652	-1.098437	0.208204
O8	O	-0.181494	-1.016619	0.319323
O9	O	-0.381660	-1.218520	0.328252
O10	O	-0.181500	-1.107605	0.410282
O11	O	-0.295367	-1.011404	0.204354
O12	O	-0.295336	-0.891374	0.324419
O13	O	-0.381607	-1.007547	0.539288
O14	O	-0.381599	-0.887464	0.419239
O15	O	-0.295351	-1.102443	0.535427
O16	O	-0.495503	-1.093275	0.333348
O17	O	-0.495480	-1.002331	0.424319
C18	C	-0.338464	-0.862548	0.371831
C19	C	-0.338468	-0.780234	0.371855
C20	C	-0.338506	-0.481141	0.371831
C21	C	-0.393043	-0.510019	0.431218
C22	C	-0.392873	-0.595645	0.431443
C23	C	-0.338488	-0.629525	0.371843
C24	C	-0.264514	-0.601793	0.389848
C25	C	-0.264840	-0.516133	0.390269
C26	C	-0.357291	-0.511845	0.294272
C27	C	-0.358915	-0.597422	0.294762
C28	C	-0.338473	-0.713385	0.371848
C29	C	-0.338516	-0.397281	0.371828
C30	C	-0.520975	-1.046662	0.379989
C31	C	-0.599042	-1.043180	0.383509
C32	C	-0.635706	-1.088932	0.337838
C33	C	-0.709057	-1.085662	0.341153
C34	C	-0.745743	-1.036637	0.390136
C35	C	-0.709074	-0.990884	0.435812
C36	C	-0.635724	-0.994158	0.432500
C37	C	-0.967214	-1.024384	0.402507
C38	C	-1.040570	-1.021112	0.405814
C39	C	-1.040548	-1.115892	0.311156
C40	C	-0.967196	-1.119158	0.307845
C41	C	-0.930533	-1.073408	0.353524
C42	C	-0.820721	-1.033292	0.393524
C43	C	-0.855558	-1.076757	0.350139
C44	C	-0.155300	-1.063306	0.363632
C45	C	-0.077234	-1.066863	0.360143
C46	C	-0.338476	-1.055001	0.564979
C47	C	-0.338469	-1.055020	0.647293
C48	C	-0.338522	-0.248118	0.371810
C49	C	-0.338525	-0.330432	0.371820
C50	C	-0.338461	-1.054959	0.179406
C51	C	-0.338271	-1.055093	0.097084
C52	C	-0.338337	-1.055069	0.946378
C53	C	-0.392435	-0.995173	0.917475
C54	C	-0.392686	-0.995317	0.831867
C55	C	-0.338402	-1.055044	0.797999
C56	C	-0.358500	-1.132166	0.829986
C57	C	-0.358855	-1.131830	0.915647
C58	C	-0.264021	-1.038525	0.911469
C59	C	-0.264451	-1.036770	0.825838
C60	C	-0.338438	-1.055034	0.714141
C61	C	-0.338303	-1.055083	1.030236
H62	H	-0.448077	-0.486932	0.420474
N63	N	-0.377284	-0.622060	0.503620
N64	N	-0.366489	-0.577238	0.553982
H65	H	-0.355477	-0.595893	0.604961
N66	N	-0.212126	-0.492497	0.338167
N67	N	-0.163259	-0.455163	0.359417
H68	H	-0.126027	-0.438471	0.322624
N69	N	-0.929710	-1.169221	0.257807
N70	N	-0.888714	-1.218220	0.282025
H71	H	-0.862233	-1.253566	0.246678
N72	N	-1.077997	-1.162635	0.264512
N73	N	-1.069754	-1.231335	0.269103
H74	H	-1.096201	-1.264352	0.236159
N75	N	-0.746556	-0.940816	0.485849
N76	N	-0.812047	-0.937899	0.488801
H77	H	-0.838519	-0.902537	0.524140
H78	H	-0.380773	-0.489060	0.488423
N79	N	-0.244848	-0.491996	0.461275
N80	N	-0.230753	-0.538410	0.510175
H81	H	-0.216634	-0.521367	0.560325
N82	N	-0.598269	-0.947434	0.479161
N83	N	-0.606424	-0.951947	0.547868
H84	H	-0.579972	-0.918951	0.580827
N85	N	-0.213462	-1.093299	0.934632
N86	N	-0.202904	-1.101671	1.001855
H87	H	-0.167201	-1.140357	1.018218
H88	H	-0.605841	-1.128850	0.297948
H89	H	-0.413349	-0.615281	0.281122
N90	N	-0.461114	-1.008404	0.947556
N91	N	-0.488685	-1.068223	0.934877
H92	H	-0.537190	-1.077572	0.956124
N93	N	-0.858198	-0.983199	0.443540
N94	N	-0.850063	-0.915229	0.438201
H95	H	-0.876535	-0.879850	0.473523
H96	H	-0.447771	-1.005969	0.813856
H97	H	-0.322077	-0.620477	0.248406
H98	H	-1.070437	-0.981199	0.445714
H99	H	-0.222005	-1.077478	0.802537
H100	H	-0.825686	-1.116676	0.310260
N101	N	-0.929781	-0.977648	0.449169
N102	N	-0.962547	-0.933879	0.492897
H103	H	-0.936109	-0.900868	0.525855
H104	H	-0.380109	-0.938023	0.810286
H105	H	-0.317566	-0.493371	0.250064
N106	N	-0.241058	-0.969423	0.937542
N107	N	-0.279192	-0.931524	0.982175
H108	H	-0.262981	-0.882718	1.000591
N109	N	-0.212163	-0.629691	0.337090
N110	N	-0.228829	-0.670422	0.285509
H111	H	-0.191858	-0.690127	0.248246
N112	N	-0.427010	-1.149893	0.943776
N113	N	-0.462151	-1.105057	0.984397
H114	H	-0.510288	-1.117811	1.004260
N115	N	-0.746498	-1.132412	0.294508
N116	N	-0.713735	-1.176184	0.250780
H117	H	-0.740176	-1.209208	0.217838
N118	N	-0.244167	-0.629639	0.460053
N119	N	-0.284019	-0.669905	0.496943
H120	H	-0.269653	-0.689572	0.546527
H121	H	-0.410309	-0.487850	0.277272
H122	H	-0.412249	-1.146898	0.810953
H123	H	-0.379986	-0.937699	0.937517
N124	N	-0.311570	-1.189487	0.939520
N125	N	-0.278416	-1.229849	0.892919
H126	H	-0.245022	-1.270570	0.909776
H127	H	-0.249295	-0.980031	0.804841
N128	N	-0.461692	-0.618886	0.417767
N129	N	-0.510184	-0.571831	0.407991
H130	H	-0.558791	-0.588240	0.398335
N131	N	-0.310620	-1.189467	0.802295
N132	N	-0.261033	-1.174066	0.758571
H133	H	-0.227215	-1.214534	0.739013
