data_functionalizedCrystal
_audit_creation_method	'MofGen! by Chris Wilmer'
_symmetry_space_group_name_H-M	'P1'
_symmetry_Int_Tables_number	1
_symmetry_cell_setting	triclinic
loop_
_symmetry_equiv_pos_as_xyz
  x,y,z
_cell_length_a	25.639239
_cell_length_b	16.959455
_cell_length_c	25.639233
_cell_angle_alpha	90.012273
_cell_angle_beta	89.981253
_cell_angle_gamma	89.964367
loop_
_atom_site_label
_atom_site_type_symbol
_atom_site_fract_x
_atom_site_fract_y
_atom_site_fract_z
Zn1	Zn	-0.208257	-1.208265	-0.295604
Zn2	Zn	0.291743	-0.708265	0.204396
Zn3	Zn	-0.295676	-1.208150	-0.208169
Zn4	Zn	0.204324	-0.708150	0.291831
Zn5	Zn	-0.208252	-1.076099	-0.208183
Zn6	Zn	0.291748	-0.576099	0.291817
Zn7	Zn	-0.295659	-1.076016	-0.295574
Zn8	Zn	0.204341	-0.576016	0.204426
O9	O	-0.251961	-1.142132	-0.251882
O10	O	0.248039	-0.642132	0.248118
O11	O	-0.219863	-1.318861	-0.284012
O12	O	0.280137	-0.818861	0.215988
O13	O	-0.284084	-1.190619	-0.135005
O14	O	0.215916	-0.690619	0.364995
O15	O	-0.135087	-1.093714	-0.219799
O16	O	0.364913	-0.593714	0.280201
O17	O	-0.284089	-1.318776	-0.219774
O18	O	0.215911	-0.818776	0.280226
O19	O	-0.135091	-1.190816	-0.284027
O20	O	0.364909	-0.690816	0.215973
O21	O	-0.219853	-1.093602	-0.135016
O22	O	0.280147	-0.593602	0.364984
O23	O	-0.219837	-0.965477	-0.219769
O24	O	0.280163	-0.465477	0.280231
O25	O	-0.284060	-1.093573	-0.368743
O26	O	0.215940	-0.593573	0.131257
O27	O	-0.284054	-0.965416	-0.283974
O28	O	0.215946	-0.465416	0.216026
O29	O	-0.219846	-1.190736	-0.368765
O30	O	0.280154	-0.690736	0.131235
O31	O	-0.368839	-1.190539	-0.219744
O32	O	0.131161	-0.690539	0.280256
O33	O	-0.368826	-1.093460	-0.283960
O34	O	0.131174	-0.593460	0.216040
C35	C	-0.387803	-1.141999	-0.251859
C36	C	0.112197	-0.641999	0.248141
C37	C	-0.445917	-1.142015	-0.251866
C38	C	0.054083	-0.642015	0.248134
C39	C	-0.251943	-0.936766	-0.251870
C40	C	0.248057	-0.436766	0.248130
C41	C	-0.251949	-0.848910	-0.251878
C42	C	0.248051	-0.348910	0.248122
C43	C	-0.251952	-1.142158	-0.388255
C44	C	0.248048	-0.642158	0.111745
C45	C	-0.251948	-1.142169	-0.446370
C46	C	0.248052	-0.642169	0.053630
C47	C	-0.806274	-1.192813	-0.218502
C48	C	-0.306274	-0.692813	0.281498
C49	C	-0.860879	-1.192844	-0.218509
C50	C	-0.360879	-0.692844	0.281491
O51	O	-0.889110	-1.235896	-0.190116
O52	O	-0.389110	-0.735896	0.309884
N53	N	-0.888200	-1.142271	-0.251917
N54	N	-0.388200	-0.642271	0.248083
C55	C	-0.860914	-1.091671	-0.285324
C56	C	-0.360914	-0.591671	0.214676
O57	O	-0.889166	-1.048658	-0.313741
O58	O	-0.389166	-0.548658	0.186259
C59	C	-0.806310	-1.091645	-0.285319
C60	C	-0.306310	-0.591645	0.214681
C61	C	-0.778992	-1.142215	-0.251905
C62	C	-0.278992	-0.642215	0.248095
C63	C	-0.778956	-1.243379	-0.185091
C64	C	-0.278956	-0.743379	0.314909
C65	C	-0.724356	-1.243348	-0.185084
C66	C	-0.224356	-0.743348	0.314916
C67	C	-0.697073	-1.192749	-0.218487
C68	C	-0.197073	-0.692749	0.281513
C69	C	-0.724392	-1.142183	-0.251898
C70	C	-0.224392	-0.642183	0.248102
C71	C	-0.779025	-1.041049	-0.318728
C72	C	-0.279025	-0.541049	0.181272
C73	C	-0.724418	-1.041027	-0.318721
C74	C	-0.224418	-0.541027	0.181279
C75	C	-0.697100	-1.091597	-0.285307
C76	C	-0.197100	-0.591597	0.214693
C77	C	-0.642509	-1.091553	-0.285294
C78	C	-0.142509	-0.591553	0.214706
N79	N	-0.615188	-1.142125	-0.251886
N80	N	-0.115188	-0.642125	0.248114
C81	C	-0.642470	-1.192723	-0.218482
C82	C	-0.142470	-0.692723	0.281518
C83	C	-0.975584	-1.091730	-0.285332
C84	C	-0.475584	-0.591730	0.214668
C85	C	-1.030187	-1.091752	-0.285335
C86	C	-0.530187	-0.591752	0.214665
C87	C	-1.030148	-1.192926	-0.218520
C88	C	-0.530148	-0.692926	0.281480
C89	C	-0.975545	-1.192900	-0.218515
C90	C	-0.475545	-0.692900	0.281485
C91	C	-0.948263	-1.142303	-0.251924
C92	C	-0.448263	-0.642303	0.248076
C93	C	-0.527805	-1.192652	-0.218469
C94	C	-0.027805	-0.692652	0.281531
C95	C	-0.473200	-1.192613	-0.218463
C96	C	0.026800	-0.692613	0.281537
C97	C	-0.473243	-1.091442	-0.285279
C98	C	0.026757	-0.591442	0.214721
C99	C	-0.527844	-1.091478	-0.285283
C100	C	-0.027844	-0.591478	0.214717
C101	C	-0.555123	-1.142089	-0.251876
C102	C	-0.055123	-0.642089	0.248124
O103	O	-0.614243	-1.048524	-0.313674
O104	O	-0.114243	-0.548524	0.186326
O105	O	-0.614211	-1.235736	-0.190075
O106	O	-0.114211	-0.735736	0.309925
C107	C	-0.115588	-1.142287	-0.251918
C108	C	0.384412	-0.642287	0.248082
C109	C	-0.057474	-1.142353	-0.251933
C110	C	0.442526	-0.642353	0.248067
C111	C	-0.251978	-1.348301	-0.251895
C112	C	0.248022	-0.848301	0.248105
C113	C	-0.251986	-1.436157	-0.251900
C114	C	0.248014	-0.936157	0.248100
C115	C	-0.218495	-0.477441	-0.218521
C116	C	0.281505	0.022559	0.281479
C117	C	-0.285469	-0.477427	-0.285274
C118	C	0.214531	0.022573	0.214726
C119	C	-0.285462	-0.559972	-0.285271
C120	C	0.214538	-0.059972	0.214729
C121	C	-0.251971	-0.601257	-0.251892
C122	C	0.248029	-0.101257	0.248108
C123	C	-0.218488	-0.559995	-0.218515
C124	C	0.281512	-0.059995	0.281485
C125	C	-0.318948	-0.601240	-0.318643
C126	C	0.181052	-0.101240	0.181357
C127	C	-0.318942	-0.683791	-0.318641
C128	C	0.181058	-0.183791	0.181359
C129	C	-0.285449	-0.725077	-0.285263
C130	C	0.214551	-0.225077	0.214737
C131	C	-0.251964	-0.683810	-0.251886
C132	C	0.248036	-0.183810	0.248114
C133	C	-0.218473	-0.725094	-0.218507
C134	C	0.281527	-0.225094	0.281493
C135	C	-0.184985	-0.683829	-0.185132
C136	C	0.315015	-0.183829	0.314868
C137	C	-0.184994	-0.601280	-0.185138
C138	C	0.315006	-0.101280	0.314862
C139	C	-0.285439	-0.807625	-0.285257
C140	C	0.214561	-0.307625	0.214743
C141	C	-0.218465	-0.807648	-0.218501
C142	C	0.281535	-0.307648	0.281499
C143	C	-0.218412	-1.192826	-0.806750
C144	C	0.281588	-0.692826	-0.306750
C145	C	-0.218398	-1.192836	-0.861354
C146	C	0.281602	-0.692836	-0.361354
O147	O	-0.189947	-1.235842	-0.889606
O148	O	0.310053	-0.735842	-0.389606
N149	N	-0.251825	-1.142256	-0.888652
N150	N	0.248175	-0.642256	-0.388652
C151	C	-0.285265	-1.091657	-0.861343
C152	C	0.214735	-0.591657	-0.361343
O153	O	-0.313696	-1.048636	-0.889576
O154	O	0.186304	-0.548636	-0.389576
C155	C	-0.285277	-1.091644	-0.806740
C156	C	0.214723	-0.591644	-0.306740
C157	C	-0.251851	-1.142233	-0.779445
C158	C	0.248149	-0.642233	-0.279445
C159	C	-0.184989	-1.243410	-0.779455
C160	C	0.315011	-0.743410	-0.279455
C161	C	-0.185004	-1.243401	-0.724855
C162	C	0.314996	-0.743401	-0.224855
C163	C	-0.218443	-1.192808	-0.697549
C164	C	0.281557	-0.692808	-0.197549
C165	C	-0.251866	-1.142224	-0.724844
C166	C	0.248134	-0.642224	-0.224844
C167	C	-0.318714	-1.041042	-0.779431
C168	C	0.181286	-0.541042	-0.279431
C169	C	-0.318722	-1.041033	-0.724824
C170	C	0.181278	-0.541033	-0.224824
C171	C	-0.285296	-1.091622	-0.697529
C172	C	0.214704	-0.591622	-0.197529
C173	C	-0.285320	-1.091622	-0.642938
C174	C	0.214680	-0.591622	-0.142938
N175	N	-0.251893	-1.142202	-0.615640
N176	N	0.248107	-0.642202	-0.115640
C177	C	-0.218454	-1.192795	-0.642946
C178	C	0.281546	-0.692795	-0.142946
C179	C	-0.285238	-1.091688	-0.976014
C180	C	0.214762	-0.591688	-0.476014
C181	C	-0.285230	-1.091705	-1.030616
C182	C	0.214770	-0.591705	-0.530616
C183	C	-0.218361	-1.192882	-1.030624
C184	C	0.281639	-0.692882	-0.530624
C185	C	-0.218373	-1.192869	-0.976020
C186	C	0.281627	-0.692869	-0.476020
C187	C	-0.251811	-1.142268	-0.948716
C188	C	0.248189	-0.642268	-0.448716
C189	C	-0.218489	-1.192773	-0.528281
C190	C	0.281511	-0.692773	-0.028281
C191	C	-0.218509	-1.192762	-0.473675
C192	C	0.281491	-0.692762	0.026325
C193	C	-0.285375	-1.091582	-0.473672
C194	C	0.214625	-0.591582	0.026328
C195	C	-0.285357	-1.091595	-0.528273
C196	C	0.214643	-0.591595	-0.028273
C197	C	-0.251910	-1.142194	-0.555576
C198	C	0.248090	-0.642194	-0.055576
O199	O	-0.313755	-1.048635	-0.614652
O200	O	0.186245	-0.548635	-0.114652
O201	O	-0.190023	-1.235802	-0.614706
O202	O	0.309977	-0.735802	-0.114706
C203	C	-0.251932	-1.142152	-0.116040
C204	C	0.248068	-0.642152	0.383960
C205	C	-0.251789	-1.142295	-0.057926
C206	C	0.248211	-0.642295	0.442074
H207	H	-0.450959	-1.233793	-0.191251
H208	H	0.049041	-0.733793	0.308749
H209	H	-0.550087	-1.050302	-0.312493
H210	H	-0.050087	-0.550302	0.187507
Cl211	Cl	-1.064523	-1.028166	-0.327336
Cl212	Cl	-0.564523	-0.528166	0.172664
Cl213	Cl	-0.142887	-0.735739	-0.143168
Cl214	Cl	0.357113	-0.235739	0.356832
Cl215	Cl	-0.327381	-1.028002	-0.562587
Cl216	Cl	0.172619	-0.528002	-0.062587
Cl217	Cl	-1.064456	-1.256535	-0.176526
Cl218	Cl	-0.564456	-0.756535	0.323474
Cl219	Cl	-0.142900	-0.549400	-0.143185
Cl220	Cl	0.357100	-0.049400	0.356815
H221	H	-0.191133	-1.234076	-1.052866
H222	H	0.308867	-0.734076	-0.552866
H223	H	-0.191252	-1.233972	-0.550504
H224	H	0.308748	-0.733972	-0.050504
H225	H	-0.801164	-1.284587	-0.157890
H226	H	-0.301164	-0.784587	0.342110
H227	H	-0.345946	-0.999818	-0.702595
H228	H	0.154054	-0.499818	-0.202595
H229	H	-0.312706	-0.841220	-0.312429
H230	H	0.187294	-0.341220	0.187571
H231	H	-0.346218	-0.567621	-0.345815
H232	H	0.153782	-0.067621	0.154185
Cl233	Cl	-0.690021	-1.306937	-0.143083
Cl234	Cl	-0.190021	-0.806937	0.356917
H235	H	-0.191229	-0.443839	-0.191349
H236	H	0.308771	0.056161	0.308651
Cl237	Cl	-0.941207	-1.256477	-0.176509
Cl238	Cl	-0.441207	-0.756477	0.323491
H239	H	-0.157756	-1.284609	-0.801682
H240	H	0.342244	-0.784609	-0.301682
Cl241	Cl	-0.176349	-1.256466	-0.941712
Cl242	Cl	0.323651	-0.756466	-0.441712
H243	H	-0.312454	-1.050519	-1.052835
H244	H	0.187546	-0.550519	-0.552835
H245	H	-0.312739	-0.443808	-0.312447
H246	H	0.187261	0.056192	0.187553
Cl247	Cl	-0.438935	-1.027841	-0.327272
Cl248	Cl	0.061065	-0.527841	0.172728
Cl249	Cl	-0.361039	-0.735660	-0.360598
Cl250	Cl	0.138961	-0.235660	0.139402
H251	H	-0.191289	-1.233960	-0.451454
H252	H	0.308711	-0.733960	0.048546
Cl253	Cl	-0.142977	-1.306996	-0.690549
Cl254	Cl	0.357023	-0.806996	-0.190549
Cl255	Cl	-0.176357	-0.859541	-0.176539
Cl256	Cl	0.323643	-0.359541	0.323461
H257	H	-0.345932	-0.999847	-0.801645
H258	H	0.154068	-0.499847	-0.301645
Cl259	Cl	-0.327408	-1.027980	-0.439335
Cl260	Cl	0.172592	-0.527980	0.060665
H261	H	-0.312470	-1.050482	-0.953785
H262	H	0.187530	-0.550482	-0.453785
H263	H	-0.550010	-1.233866	-0.191267
H264	H	-0.050010	-0.733866	0.308733
Cl265	Cl	-0.941293	-1.028109	-0.327332
Cl266	Cl	-0.441293	-0.528109	0.172668
H267	H	-0.801258	-0.999865	-0.345935
H268	H	-0.301258	-0.499865	0.154065
H269	H	-0.702208	-0.999826	-0.345928
H270	H	-0.202208	-0.499826	0.154072
