data_functionalizedCrystal
_audit_creation_method	'MofGen! by Chris Wilmer'
_symmetry_space_group_name_H-M	'P1'
_symmetry_Int_Tables_number	1
_symmetry_cell_setting	triclinic
loop_
_symmetry_equiv_pos_as_xyz
  x,y,z
_cell_length_a	23.532355
_cell_length_b	23.532407
_cell_length_c	13.101039
_cell_angle_alpha	93.332685
_cell_angle_beta	86.670091
_cell_angle_gamma	82.838123
loop_
_atom_site_label
_atom_site_type_symbol
_atom_site_fract_x
_atom_site_fract_y
_atom_site_fract_z
O1	O	0.758425	0.065837	-0.085092
O2	O	1.258425	0.565837	0.414908
O3	O	0.592559	0.075870	-0.085128
O4	O	1.092559	0.575870	0.414872
O5	O	0.680493	-0.012078	-0.085080
O6	O	1.180493	0.487922	0.414920
O7	O	0.670491	0.153785	-0.085140
O8	O	1.170491	0.653785	0.414860
O9	O	0.674183	-0.005758	0.085346
O10	O	1.174183	0.494242	0.585346
O11	O	0.586250	0.082190	0.085299
O12	O	1.086250	0.582190	0.585299
O13	O	0.752116	0.072158	0.085334
O14	O	1.252116	0.572158	0.585334
Zn15	Zn	0.668181	0.078177	0.112375
Zn16	Zn	1.168181	0.578177	0.612375
Zn17	Zn	0.676494	0.069850	-0.112169
Zn18	Zn	1.176494	0.569850	0.387831
O19	O	0.664182	0.160105	0.085287
O20	O	1.164182	0.660105	0.585287
C21	C	0.677083	-0.030134	0.000138
C22	C	1.177083	0.469866	0.500138
C23	C	0.676317	-0.093350	0.000153
C24	C	1.176317	0.406650	0.500153
C25	C	0.568188	0.078779	0.000081
C26	C	1.068188	0.578779	0.500081
C27	C	0.504970	0.078025	0.000069
C28	C	1.004970	0.578025	0.500069
C29	C	0.621123	-0.359510	0.000078
C30	C	1.121123	0.140490	0.500078
C31	C	0.621834	-0.300110	0.000086
C32	C	1.121834	0.199890	0.500086
O33	O	0.578048	-0.263358	0.000044
O34	O	1.078048	0.236642	0.500044
N35	N	0.674110	-0.277492	0.000109
N36	N	1.174110	0.222508	0.500109
C37	C	0.725680	-0.314279	0.000113
C38	C	1.225680	0.185721	0.500113
O39	O	0.770211	-0.289587	0.000132
O40	O	1.270211	0.210413	0.500132
C41	C	0.724968	-0.373679	0.000098
C42	C	1.224968	0.126321	0.500098
C43	C	0.672688	-0.396292	0.000085
C44	C	1.172688	0.103708	0.500085
C45	C	0.568846	-0.382124	0.000064
C46	C	1.068846	0.117876	0.500064
C47	C	0.568135	-0.441520	0.000058
C48	C	1.068135	0.058480	0.500058
C49	C	0.619701	-0.478302	0.000066
C50	C	1.119701	0.021698	0.500066
C51	C	0.671977	-0.455688	0.000079
C52	C	1.171977	0.044312	0.500079
C53	C	0.776537	-0.410465	0.000095
C54	C	1.276537	0.089535	0.500095
C55	C	0.775821	-0.469868	0.000079
C56	C	1.275821	0.030132	0.500079
C57	C	0.723541	-0.492481	0.000066
C58	C	1.223541	0.007519	0.500066
C59	C	0.722831	-0.551867	0.000081
C60	C	1.222831	-0.051867	0.500081
N61	N	0.670554	-0.574484	0.000058
N62	N	1.170554	-0.074484	0.500058
C63	C	0.618989	-0.537702	0.000050
C64	C	1.118989	-0.037702	0.500050
C65	C	0.727170	-0.189536	0.000144
C66	C	1.227170	0.310464	0.500144
C67	C	0.727882	-0.130137	0.000166
C68	C	1.227882	0.369863	0.500166
C69	C	0.624036	-0.115972	0.000137
C70	C	1.124036	0.384028	0.500137
C71	C	0.623324	-0.175371	0.000122
C72	C	1.123324	0.324629	0.500122
C73	C	0.674893	-0.212153	0.000121
C74	C	1.174893	0.287847	0.500121
C75	C	0.617500	-0.662439	0.000038
C76	C	1.117500	-0.162439	0.500038
C77	C	0.616793	-0.721841	0.000036
C78	C	1.116793	-0.221841	0.500036
C79	C	0.720639	-0.736001	0.000060
C80	C	1.220639	-0.236001	0.500060
C81	C	0.721346	-0.676604	0.000068
C82	C	1.221346	-0.176604	0.500068
C83	C	0.669772	-0.639824	0.000053
C84	C	1.169772	-0.139824	0.500053
O85	O	0.766594	-0.588653	0.000118
O86	O	1.266594	-0.088653	0.500118
O87	O	0.574466	-0.562403	0.000017
O88	O	1.074466	-0.062403	0.500017
C89	C	0.109515	0.076733	0.093013
C90	C	0.609515	0.576733	0.593013
C91	C	0.050115	0.076016	0.093018
C92	C	0.550115	0.576016	0.593018
O93	O	0.016472	0.078556	0.172024
O94	O	0.516472	0.578556	0.672024
N95	N	0.023846	0.072215	0.000119
N96	N	0.523846	0.572215	0.500119
C97	C	0.056980	0.069125	-0.092791
C98	C	0.556980	0.569125	0.407209
O99	O	0.029182	0.065826	-0.171808
O100	O	0.529182	0.565826	0.328192
C101	C	0.116379	0.069839	-0.092794
C102	C	0.616379	0.569839	0.407206
C103	C	0.142645	0.073646	0.000111
C104	C	0.642645	0.573646	0.500111
C105	C	0.135781	0.080540	0.185911
C106	C	0.635781	0.580540	0.685911
C107	C	0.195176	0.081258	0.185906
C108	C	0.695176	0.581258	0.685906
C109	C	0.228306	0.078170	0.093004
C110	C	0.728306	0.578170	0.593004
C111	C	0.202040	0.074364	0.000107
C112	C	0.702040	0.574364	0.500107
C113	C	0.149513	0.066745	-0.185702
C114	C	0.649513	0.566745	0.314298
C115	C	0.208916	0.067458	-0.185697
C116	C	0.708916	0.567458	0.314303
C117	C	0.235181	0.071265	-0.092792
C118	C	0.735181	0.571265	0.407208
C119	C	0.294565	0.071994	-0.092800
C120	C	0.794565	0.571994	0.407200
N121	N	0.320834	0.075795	0.000099
N122	N	0.820834	0.575795	0.500099
C123	C	0.287705	0.078883	0.093001
C124	C	0.787705	0.578883	0.593001
C125	C	-0.067762	0.067627	-0.092777
C126	C	0.432238	0.567627	0.407223
C127	C	-0.127160	0.066918	-0.092775
C128	C	0.372840	0.566918	0.407225
C129	C	-0.134021	0.073807	0.093034
C130	C	0.365979	0.573807	0.593034
C131	C	-0.074622	0.074521	0.093031
C132	C	0.425378	0.574521	0.593031
C133	C	-0.041492	0.071428	0.000122
C134	C	0.458508	0.571428	0.500122
C135	C	0.412439	0.080392	0.092984
C136	C	0.912439	0.580392	0.592984
C137	C	0.471840	0.081112	0.092971
C138	C	0.971840	0.581112	0.592971
C139	C	0.478696	0.074220	-0.092836
C140	C	0.978696	0.574220	0.407164
C141	C	0.419300	0.073502	-0.092824
C142	C	0.919300	0.573502	0.407176
C143	C	0.386173	0.076587	0.000094
C144	C	0.886173	0.576587	0.500094
O145	O	0.328245	0.069454	-0.171766
O146	O	0.828245	0.569454	0.328234
O147	O	0.315512	0.082175	0.172005
O148	O	0.815512	0.582175	0.672005
C149	C	0.776487	0.069248	0.000123
C150	C	1.276487	0.569248	0.500123
C151	C	0.839705	0.070002	0.000128
C152	C	1.339705	0.570002	0.500128
C153	C	0.667592	0.178161	0.000066
C154	C	1.167592	0.678161	0.500066
C155	C	0.668359	0.241377	0.000044
C156	C	1.168359	0.741377	0.500044
N157	N	0.662512	0.083860	0.265621
N158	N	1.162512	0.583860	0.765621
N159	N	0.682167	0.064162	-0.265414
N160	N	1.182167	0.564162	0.234586
C161	C	0.654799	0.091598	0.474659
C162	C	1.154799	0.591598	0.974659
C163	C	0.689878	0.056427	0.525554
C164	C	1.189878	0.556427	1.025554
C165	C	0.685587	0.060732	0.641870
C166	C	1.185587	0.560732	1.141870
C167	C	0.659090	0.087293	0.358332
C168	C	1.159090	0.587293	0.858332
H169	H	0.574218	-0.740249	0.000031
H170	H	1.074218	-0.240249	0.500031
O171	O	-0.166217	0.076696	0.183258
O172	O	0.333783	0.576696	0.683258
C173	C	-0.194054	0.027161	0.188809
C174	C	0.305946	0.527161	0.688809
H175	H	-0.169495	-0.009052	0.136095
H176	H	0.330505	0.490948	0.636095
H177	H	-0.195505	0.013635	0.270978
H178	H	0.304495	0.513635	0.770978
H179	H	-0.239671	0.036845	0.163844
H180	H	0.260329	0.536845	0.663844
O181	O	0.241134	0.064356	-0.275926
O182	O	0.741134	0.564356	0.224074
C183	C	0.282443	0.015243	-0.281463
C184	C	0.782443	0.515243	0.218537
H185	H	0.267307	-0.017497	-0.228725
H186	H	0.767307	0.482503	0.271275
H187	H	0.288409	-0.004356	-0.363624
H188	H	0.788409	0.495644	0.136376
H189	H	0.325017	0.027866	-0.256520
H190	H	0.825017	0.527866	0.243480
H191	H	0.723134	0.023084	0.481769
H192	H	1.223134	0.523084	0.981769
O193	O	0.615103	0.131303	0.526998
O194	O	1.115103	0.631303	1.026998
C195	C	0.577821	0.103316	0.589054
C196	C	1.077821	0.603316	1.089054
H197	H	0.600103	0.059179	0.605005
H198	H	1.100103	0.559179	1.105005
H199	H	0.565982	0.129893	0.664549
H200	H	1.065982	0.629893	1.164549
H201	H	0.537232	0.098245	0.547792
H202	H	1.037232	0.598245	1.047792
O203	O	0.567347	-0.626795	0.000073
O204	O	1.067347	-0.126795	0.500073
C205	C	0.521061	-0.659504	0.000034
C206	C	1.021061	-0.159504	0.500034
H207	H	0.534590	-0.702730	0.032295
H208	H	1.034590	-0.202730	0.532295
H209	H	0.483119	-0.635565	0.049510
H210	H	0.983119	-0.135565	0.549510
H211	H	0.508047	-0.666665	-0.081732
H212	H	1.008047	-0.166665	0.418268
H213	H	0.397913	0.070411	-0.168475
H214	H	0.897913	0.570411	0.331525
H215	H	0.582048	-0.086012	0.000132
H216	H	1.082048	0.413988	0.500132
H217	H	0.525563	-0.459926	0.000039
H218	H	1.025563	0.040074	0.500039
H219	H	0.216556	0.084354	0.261559
H220	H	0.716556	0.584354	0.761559
O221	O	0.772182	-0.654731	0.000035
O222	O	1.272182	-0.154731	0.500035
C223	C	0.817540	-0.699935	0.000069
C224	C	1.317540	-0.199935	0.500069
H225	H	0.803002	-0.741394	-0.032190
H226	H	1.303002	-0.241394	0.467810
H227	H	0.855890	-0.689561	-0.049413
H228	H	1.355890	-0.189561	0.450587
H229	H	0.830408	-0.705404	0.081832
H230	H	1.330408	-0.205404	0.581832
O231	O	0.518719	-0.346462	-0.000076
O232	O	1.018719	0.153538	0.499924
C233	C	0.490231	-0.359919	-0.088362
C234	C	0.990231	0.140081	0.411638
H235	H	0.505577	-0.406144	-0.117803
H236	H	1.005577	0.093856	0.382197
H237	H	0.441973	-0.354749	-0.068514
H238	H	0.941973	0.145251	0.431486
H239	H	0.500106	-0.329746	-0.150156
H240	H	1.000106	0.170254	0.349844
O241	O	0.572491	-0.197243	0.000055
O242	O	1.072491	0.302757	0.500055
C243	C	0.527134	-0.152032	0.000081
C244	C	1.027134	0.347968	0.500081
H245	H	0.544063	-0.112959	-0.032165
H246	H	1.044063	0.387041	0.467835
H247	H	0.492445	-0.166060	-0.049415
H248	H	0.992445	0.333940	0.450585
H249	H	0.508217	-0.140520	0.081841
H250	H	1.008217	0.359480	0.581841
O251	O	-0.152726	0.063152	-0.182958
O252	O	0.347274	0.563152	0.317042
C253	C	-0.180131	0.013193	-0.188517
C254	C	0.319869	0.513193	0.311483
H255	H	-0.189769	-0.000371	-0.107852
H256	H	0.310231	0.499629	0.392148
H257	H	-0.221960	0.022325	-0.227847
H258	H	0.278040	0.522325	0.272153
H259	H	-0.150826	-0.022773	-0.234349
H260	H	0.349174	0.477227	0.265651
O261	O	0.510935	0.071299	-0.183011
O262	O	1.010935	0.571299	0.316989
C263	C	0.538756	0.120842	-0.188600
C264	C	1.038756	0.620842	0.311400
H265	H	0.542420	0.140392	-0.107946
H266	H	1.042420	0.640392	0.392054
H267	H	0.583496	0.108790	-0.227901
H268	H	1.083496	0.608790	0.272099
H269	H	0.512849	0.153406	-0.234473
H270	H	1.012849	0.653406	0.265527
H271	H	0.385473	0.082909	0.168648
H272	H	0.885473	0.582909	0.668648
H273	H	0.770453	-0.111731	0.000193
H274	H	1.270453	0.388269	0.500193
H275	H	-0.040791	0.065113	-0.168439
H276	H	0.459209	0.565113	0.331561
H277	H	0.108812	0.083053	0.261567
H278	H	0.608812	0.583053	0.761567
H279	H	0.769166	-0.219481	0.000150
H280	H	1.269166	0.280519	0.500150
O281	O	0.827346	-0.388544	-0.000080
O282	O	1.327346	0.111456	0.499920
C283	C	0.862023	-0.410647	-0.088333
C284	C	1.362023	0.089353	0.411667
H285	H	0.833722	-0.425101	-0.150029
H286	H	1.333722	0.074899	0.349971
H287	H	0.887148	-0.375900	-0.117955
H288	H	1.387148	0.124100	0.382045
H289	H	0.893238	-0.448814	-0.068381
H290	H	1.393238	0.051186	0.431619
O291	O	0.825909	-0.505627	-0.000101
O292	O	1.325909	-0.005627	0.499899
C293	C	0.831866	-0.543680	-0.088357
C294	C	1.331866	-0.043680	0.411643
H295	H	0.804897	-0.524040	-0.150052
H296	H	1.304897	-0.024040	0.349948
H297	H	0.878877	-0.551711	-0.117977
H298	H	1.378877	-0.051711	0.382023
H299	H	0.816642	-0.586059	-0.068409
H300	H	1.316642	-0.086059	0.431591
H301	H	0.762622	-0.765960	0.000071
H302	H	1.262622	-0.265960	0.500071
H303	H	0.128139	0.063644	-0.261355
H304	H	0.628139	0.563644	0.238645
O305	O	0.497266	0.084786	0.183316
O306	O	0.997266	0.584786	0.683316
C307	C	0.455281	0.087369	0.265311
C308	C	0.955281	0.587369	0.765311
H309	H	0.416409	0.067815	0.238079
H310	H	0.916409	0.567815	0.738079
H311	H	0.473816	0.062332	0.330297
H312	H	0.973816	0.562332	0.830297
H313	H	0.441668	0.134047	0.293860
H314	H	0.941668	0.634047	0.793860
H315	H	-0.053241	0.077621	0.168682
H316	H	0.446759	0.577621	0.668682
