data_functionalizedCrystal
_audit_creation_method	'MofGen! by Chris Wilmer'
_symmetry_space_group_name_H-M	'P1'
_symmetry_Int_Tables_number	1
_symmetry_cell_setting	triclinic
loop_
_symmetry_equiv_pos_as_xyz
  x,y,z
_cell_length_a	14.519709
_cell_length_b	10.654562
_cell_length_c	9.730223
_cell_angle_alpha	89.996961
_cell_angle_beta	89.997715
_cell_angle_gamma	84.085124
loop_
_atom_site_label
_atom_site_type_symbol
_atom_site_fract_x
_atom_site_fract_y
_atom_site_fract_z
O1	O	0.129584	1.666579	-0.114384
O2	O	0.141913	1.300984	-0.114367
O3	O	0.001560	1.493474	-0.114363
O4	O	0.269936	1.474088	-0.114387
O5	O	0.001564	1.493472	0.114217
O6	O	0.141916	1.300982	0.114213
O7	O	0.129588	1.666576	0.114196
Zn8	Zn	0.135752	1.483779	0.150497
Zn9	Zn	0.135748	1.483782	-0.150667
O10	O	0.269940	1.474086	0.114193
C11	C	0.141007	1.254194	-0.000075
C12	C	0.138291	1.114777	-0.000068
C13	C	0.137026	1.049258	0.124521
C14	C	0.134482	0.918260	0.124498
C15	C	0.134471	0.918312	-0.124713
C16	C	0.137009	1.049309	-0.124688
C17	C	0.137037	1.049225	0.268400
C18	C	0.134492	0.918228	0.268378
C19	C	-0.032802	1.492570	-0.000073
C20	C	-0.135198	1.489862	-0.000072
C21	C	-0.510145	1.479895	-0.000107
C22	C	-0.405823	1.482663	-0.000097
C23	C	-0.322675	1.484879	-0.000088
C24	C	-0.218346	1.487647	-0.000081
C25	C	0.304302	1.474990	-0.000100
C26	C	0.406698	1.477698	-0.000110
C27	C	0.130493	1.713367	-0.000099
C28	C	0.133209	1.852783	-0.000115
N29	N	0.135755	1.483786	0.356033
N30	N	0.135738	1.483784	-0.356204
C31	C	0.073628	1.569042	0.427961
C32	C	0.073617	1.569039	0.571844
C33	C	0.197868	1.398519	0.571859
C34	C	0.197874	1.398517	0.427978
C35	C	0.001896	1.667495	0.427953
C36	C	0.001885	1.667492	0.571836
H37	H	0.138025	1.102653	-0.226140
H38	H	0.204297	1.078153	0.313038
H39	H	0.133427	0.864992	-0.226174
H40	H	0.073303	1.096097	0.323659
C41	C	0.043638	0.879120	0.328721
N42	N	-0.024791	0.849662	0.374175
H43	H	0.198229	0.871328	0.323608
H44	H	0.248442	1.329094	0.630452
C45	C	-0.093864	1.639439	0.375197
N46	N	-0.165988	1.618303	0.335461
C47	C	0.266289	1.304824	0.348863
N48	N	0.317850	1.234290	0.289274
C49	C	-0.088605	1.627126	0.632127
N50	N	-0.156758	1.596714	0.677540
H51	H	0.024361	1.758462	0.383321
C52	C	0.023306	1.797634	0.624590
N53	N	0.039468	1.895642	0.664324
