data_functionalizedCrystal
_audit_creation_method	'MofGen! by Chris Wilmer'
_symmetry_space_group_name_H-M	'P1'
_symmetry_Int_Tables_number	1
_symmetry_cell_setting	triclinic
loop_
_symmetry_equiv_pos_as_xyz
  x,y,z
_cell_length_a	13.032831
_cell_length_b	16.625546
_cell_length_c	13.032268
_cell_angle_alpha	82.855386
_cell_angle_beta	89.113023
_cell_angle_gamma	82.826778
loop_
_atom_site_label
_atom_site_type_symbol
_atom_site_fract_x
_atom_site_fract_y
_atom_site_fract_z
Zn1	Zn	1.498429	-0.544521	0.780776
Zn2	Zn	1.748429	-0.294521	1.030776
Zn3	Zn	1.998429	-0.044521	1.280776
Zn4	Zn	2.248429	0.205479	1.530776
Zn5	Zn	1.520160	-0.664651	0.608784
Zn6	Zn	1.770160	-0.414651	0.858784
Zn7	Zn	2.020160	-0.164651	1.108784
Zn8	Zn	2.270160	0.085349	1.358784
Zn9	Zn	1.348291	-0.510838	0.587021
Zn10	Zn	1.598291	-0.260838	0.837021
Zn11	Zn	1.848291	-0.010838	1.087021
Zn12	Zn	2.098291	0.239162	1.337021
Zn13	Zn	1.326409	-0.660292	0.758909
Zn14	Zn	1.576409	-0.410292	1.008909
Zn15	Zn	1.826409	-0.160292	1.258909
Zn16	Zn	2.076409	0.089708	1.508909
O17	O	1.423322	-0.595075	0.683873
O18	O	1.673322	-0.345075	0.933873
O19	O	1.923322	-0.095075	1.183873
O20	O	2.173322	0.154925	1.433873
O21	O	1.645231	-0.576377	0.776220
O22	O	1.895231	-0.326377	1.026220
O23	O	2.145231	-0.076377	1.276220
O24	O	2.395231	0.173623	1.526220
O25	O	1.515614	-0.631976	0.461981
O26	O	1.765614	-0.381976	0.711981
O27	O	2.015614	-0.131976	0.961981
O28	O	2.265614	0.118024	1.211981
O29	O	1.368270	-0.402484	0.612767
O30	O	1.618270	-0.152484	0.862767
O31	O	1.868270	0.097516	1.112767
O32	O	2.118270	0.347516	1.362767
O33	O	1.661197	-0.664636	0.649858
O34	O	1.911197	-0.414636	0.899858
O35	O	2.161197	-0.164636	1.149858
O36	O	2.411197	0.085364	1.399858
O37	O	1.478576	-0.427231	0.755118
O38	O	1.728576	-0.177231	1.005118
O39	O	1.978576	0.072769	1.255118
O40	O	2.228576	0.322769	1.505118
O41	O	1.389342	-0.518970	0.445992
O42	O	1.639342	-0.268970	0.695992
O43	O	1.889342	-0.018970	0.945992
O44	O	2.139342	0.231030	1.195992
O45	O	1.201469	-0.514743	0.591563
O46	O	1.451469	-0.264743	0.841563
O47	O	1.701469	-0.014743	1.091563
O48	O	1.951469	0.235257	1.341563
O49	O	1.330976	-0.657206	0.905725
O50	O	1.580976	-0.407206	1.155725
O51	O	1.830976	-0.157206	1.405725
O52	O	2.080976	0.092794	1.655725
O53	O	1.185392	-0.624546	0.717849
O54	O	1.435392	-0.374546	0.967849
O55	O	1.685392	-0.124546	1.217849
O56	O	1.935392	0.125454	1.467849
O57	O	1.457358	-0.572150	0.921791
O58	O	1.707358	-0.322150	1.171791
O59	O	1.957358	-0.072150	1.421791
O60	O	2.207358	0.177850	1.671791
O61	O	1.494396	-0.776895	0.628654
O62	O	1.744396	-0.526895	0.878654
O63	O	1.994396	-0.276895	1.128654
O64	O	2.244396	-0.026895	1.378654
O65	O	1.352048	-0.773692	0.738951
O66	O	1.602048	-0.523692	0.988951
O67	O	1.852048	-0.273692	1.238951
O68	O	2.102048	-0.023692	1.488951
C69	C	1.156114	-0.565517	0.649972
C70	C	1.406114	-0.315517	0.899972
C71	C	1.656114	-0.065517	1.149972
C72	C	1.906114	0.184483	1.399972
C73	C	1.041798	-0.552893	0.635494
C74	C	1.291798	-0.302893	0.885494
C75	C	1.541798	-0.052893	1.135494
C76	C	1.791798	0.197107	1.385494
C77	C	0.982917	-0.601664	0.691429
C78	C	1.232917	-0.351664	0.941429
C79	C	1.482917	-0.101664	1.191429
C80	C	1.732917	0.148336	1.441429
C81	C	0.864766	-0.588618	0.676466
C82	C	1.114766	-0.338618	0.926466
C83	C	1.364766	-0.088618	1.176466
C84	C	1.614766	0.161382	1.426466
C85	C	1.423230	-0.804552	0.683817
C86	C	1.673230	-0.554552	0.933817
C87	C	1.923230	-0.304552	1.183817
C88	C	2.173230	-0.054552	1.433817
C89	C	1.423281	-0.894180	0.683840
C90	C	1.673281	-0.644180	0.933840
C91	C	1.923281	-0.394180	1.183840
C92	C	2.173281	-0.144180	1.433840
C93	C	1.423447	-1.222385	0.683970
C94	C	1.673447	-0.972385	0.933970
C95	C	1.923447	-0.722385	1.183970
C96	C	2.173447	-0.472385	1.433970
C97	C	1.423397	-1.131068	0.683936
C98	C	1.673397	-0.881068	0.933936
C99	C	1.923397	-0.631068	1.183936
C100	C	2.173397	-0.381068	1.433936
C101	C	1.423363	-1.058285	0.683904
C102	C	1.673363	-0.808285	0.933904
C103	C	1.923363	-0.558285	1.183904
C104	C	2.173363	-0.308285	1.433904
C105	C	1.423315	-0.966963	0.683872
C106	C	1.673315	-0.716963	0.933872
C107	C	1.923315	-0.466963	1.183872
C108	C	2.173315	-0.216963	1.433872
C109	C	1.691574	-0.624750	0.717906
C110	C	1.941574	-0.374750	0.967906
C111	C	2.191574	-0.124750	1.217906
C112	C	2.441574	0.125250	1.467906
C113	C	1.805887	-0.637396	0.732409
C114	C	2.055887	-0.387396	0.982409
C115	C	2.305887	-0.137396	1.232409
C116	C	2.555887	0.112604	1.482409
C117	C	1.389302	-0.617949	0.952117
C118	C	1.639302	-0.367949	1.202117
C119	C	1.889302	-0.117949	1.452117
C120	C	2.139302	0.132051	1.702117
C121	C	1.374805	-0.627696	1.066427
C122	C	1.624805	-0.377696	1.316427
C123	C	1.874805	-0.127696	1.566427
C124	C	2.124805	0.122304	1.816427
C125	C	1.423440	-0.384786	0.683954
C126	C	1.673440	-0.134786	0.933954
C127	C	1.923440	0.115214	1.183954
C128	C	2.173440	0.365214	1.433954
C129	C	1.423490	-0.295173	0.683989
C130	C	1.673490	-0.045173	0.933989
C131	C	1.923490	0.204827	1.183989
C132	C	2.173490	0.454827	1.433989
C133	C	1.457270	-0.572239	0.416679
C134	C	1.707270	-0.322239	0.666679
C135	C	1.957270	-0.072239	0.916679
C136	C	2.207270	0.177761	1.166679
C137	C	1.471966	-0.562287	0.302395
C138	C	1.721966	-0.312287	0.552395
C139	C	1.971966	-0.062287	0.802395
C140	C	2.221966	0.187713	1.052395
C141	C	1.430873	-0.589958	1.125339
C142	C	1.680873	-0.339958	1.375339
C143	C	1.930873	-0.089958	1.625339
C144	C	2.180873	0.160042	1.875339
C145	C	1.415890	-0.600031	1.243485
C146	C	1.665890	-0.350031	1.493485
C147	C	1.915890	-0.100031	1.743485
C148	C	2.165890	0.149969	1.993485
H149	H	0.827708	-0.537199	0.617501
H150	H	1.077708	-0.287199	0.867501
H151	H	1.327708	-0.037199	1.117501
H152	H	1.577708	0.212801	1.367501
Br153	Br	1.570483	-0.496012	1.240697
Br154	Br	1.820483	-0.246012	1.490697
Br155	Br	2.070483	0.003988	1.740697
Br156	Br	2.320483	0.253988	1.990697
Br157	Br	1.276298	-0.693972	1.128133
Br158	Br	1.526298	-0.443972	1.378133
Br159	Br	1.776298	-0.193972	1.628133
Br160	Br	2.026298	0.056028	1.878133
H161	H	1.019978	-0.653074	0.750398
H162	H	1.269978	-0.403074	1.000398
H163	H	1.519978	-0.153074	1.250398
H164	H	1.769978	0.096926	1.500398
H165	H	1.489963	-0.550187	1.088309
H166	H	1.739963	-0.300187	1.338309
H167	H	1.989963	-0.050187	1.588309
H168	H	2.239963	0.199813	1.838309
H169	H	1.356786	-0.639795	1.280509
H170	H	1.606786	-0.389795	1.530509
H171	H	1.856786	-0.139795	1.780509
H172	H	2.106786	0.110205	2.030509
Br173	Br	0.867636	-0.723081	0.830718
Br174	Br	1.117636	-0.473081	1.080718
Br175	Br	1.367636	-0.223081	1.330718
Br176	Br	1.617636	0.026919	1.580718
H177	H	1.004736	-0.501477	0.576533
H178	H	1.254736	-0.251477	0.826533
H179	H	1.504736	-0.001477	1.076533
H180	H	1.754736	0.248523	1.326533
