data_functionalizedCrystal
_audit_creation_method	'MofGen! by Chris Wilmer'
_symmetry_space_group_name_H-M	'P1'
_symmetry_Int_Tables_number	1
_symmetry_cell_setting	triclinic
loop_
_symmetry_equiv_pos_as_xyz
  x,y,z
_cell_length_a	10.654550
_cell_length_b	10.654550
_cell_length_c	9.730223
_cell_angle_alpha	89.996763
_cell_angle_beta	89.999957
_cell_angle_gamma	84.484917
loop_
_atom_site_label
_atom_site_type_symbol
_atom_site_fract_x
_atom_site_fract_y
_atom_site_fract_z
O1	O	1.667839	0.176399	-0.114183
O2	O	1.302361	0.193205	-0.114208
O3	O	1.493503	0.002062	-0.114190
O4	O	1.476697	0.367541	-0.114202
O5	O	1.493490	0.002057	0.114390
O6	O	1.302348	0.193199	0.114372
O7	O	1.667827	0.176393	0.114396
Zn8	Zn	1.485085	0.184796	0.150676
Zn9	Zn	1.485102	0.184802	-0.150488
O10	O	1.476684	0.367536	0.114378
C11	C	1.255556	0.191968	0.000078
C12	C	1.116113	0.188276	0.000069
C13	C	1.492263	-0.044738	0.000098
C14	C	1.488571	-0.184181	0.000093
C15	C	1.036627	0.300818	0.000069
C16	C	0.905607	0.297341	0.000093
C17	C	0.933570	0.068772	0.000111
C18	C	1.064588	0.072250	0.000097
C19	C	1.601112	-0.263667	0.000105
C20	C	1.597636	-0.394688	0.000095
C21	C	1.369066	-0.366725	0.000067
C22	C	1.372544	-0.235706	0.000067
C23	C	1.733075	-0.279813	0.000127
C24	C	1.729599	-0.410834	0.000117
C25	C	1.714631	0.177630	0.000107
C26	C	1.854074	0.181322	0.000107
C27	C	1.477924	0.414336	0.000087
C28	C	1.481616	0.553779	0.000083
N29	N	1.485083	0.184790	0.356212
N30	N	1.485114	0.184798	-0.356024
C31	C	1.569750	0.100188	0.428146
C32	C	1.569763	0.100189	0.572029
C33	C	1.400438	0.269404	0.572032
C34	C	1.400420	0.269396	0.428151
H35	H	0.840894	0.388984	0.000097
H36	H	1.078574	0.395294	0.000057
H37	H	0.891602	-0.025693	0.000142
H38	H	1.129309	-0.019401	0.000100
C39	C	1.307282	0.362465	0.349011
C40	C	1.214209	0.455584	0.428132
C41	C	1.121072	0.548644	0.348990
C42	C	1.121008	0.548584	0.190728
C43	C	1.214084	0.455461	0.111598
C44	C	1.307221	0.362401	0.190740
H45	H	1.214253	0.455632	0.545296
H46	H	1.052170	0.617580	0.407569
H47	H	1.052062	0.617472	0.132142
H48	H	1.214040	0.455413	-0.005566
H49	H	1.376123	0.293466	0.132161
H50	H	1.779315	-0.452596	0.095779
H51	H	1.638687	0.031295	0.369577
H52	H	1.280902	-0.170993	0.000039
H53	H	1.274601	-0.408693	0.000045
C54	C	1.802799	-0.240133	-0.129090
C55	C	1.855490	-0.340520	-0.233267
C56	C	1.925210	-0.300840	-0.362481
C57	C	1.942240	-0.160773	-0.387518
C58	C	1.889548	-0.060377	-0.283337
C59	C	1.819828	-0.100057	-0.154123
H60	H	1.842884	-0.444215	-0.214737
H61	H	1.964216	-0.375161	-0.439602
H62	H	1.993851	-0.131400	-0.483169
H63	H	1.902153	0.043317	-0.301868
H64	H	1.780822	-0.025737	-0.077002
H65	H	1.775092	-0.244188	0.098826
H66	H	1.638705	0.031297	0.630594
C67	C	1.783489	-0.472500	-0.133200
C68	C	1.898205	-0.571961	-0.127128
C69	C	1.952094	-0.633627	-0.260443
C70	C	1.891266	-0.595833	-0.399829
C71	C	1.776544	-0.496367	-0.405907
C72	C	1.722655	-0.434701	-0.272592
H73	H	1.943239	-0.599943	-0.023941
H74	H	2.037019	-0.707259	-0.255943
H75	H	1.931158	-0.641482	-0.498516
H76	H	1.731510	-0.468385	-0.509094
H77	H	1.637730	-0.361070	-0.277092
H78	H	1.331508	0.338290	0.630619
