data_functionalizedCrystal
_audit_creation_method	'MofGen! by Chris Wilmer'
_symmetry_space_group_name_H-M	'P1'
_symmetry_Int_Tables_number	1
_symmetry_cell_setting	triclinic
loop_
_symmetry_equiv_pos_as_xyz
  x,y,z
_cell_length_a	19.188925
_cell_length_b	19.188930
_cell_length_c	9.730217
_cell_angle_alpha	89.991643
_cell_angle_beta	89.997646
_cell_angle_gamma	83.143665
loop_
_atom_site_label
_atom_site_type_symbol
_atom_site_fract_x
_atom_site_fract_y
_atom_site_fract_z
O1	O	0.926144	0.087148	-0.114335
O2	O	0.722832	0.098887	-0.114333
O3	O	0.830355	-0.008638	-0.114307
O4	O	0.818621	0.194673	-0.114361
O5	O	0.830352	-0.008639	0.114273
O6	O	0.722829	0.098886	0.114247
O7	O	0.926141	0.087147	0.114245
Zn8	Zn	0.824485	0.093016	0.150538
Zn9	Zn	0.824489	0.093018	-0.150626
O10	O	0.818618	0.194672	0.114219
C11	C	0.696820	0.098507	-0.000043
C12	C	0.619315	0.097367	-0.000041
C13	C	0.829974	-0.034650	-0.000013
C14	C	0.828833	-0.112154	-0.000001
C15	C	0.057545	0.152831	-0.000059
C16	C	0.130368	0.153908	-0.000066
C17	C	0.175302	0.090816	-0.000047
C18	C	0.147408	0.026642	-0.000056
C19	C	0.074586	0.025568	-0.000062
N20	N	0.295978	0.045139	0.077775
N21	N	0.365156	0.046164	0.077784
C22	C	0.394712	0.094050	-0.000032
N23	N	0.352475	0.140882	-0.077839
N24	N	0.283291	0.139859	-0.077842
C25	C	0.254267	0.091974	-0.000041
C26	C	0.501561	0.159386	-0.000041
C27	C	0.574385	0.160460	-0.000058
C28	C	0.591425	0.033193	-0.000033
C29	C	0.518601	0.032121	-0.000031
C30	C	0.473673	0.095220	-0.000028
C31	C	0.891924	-0.157079	0.000005
C32	C	0.890852	-0.229903	-0.000017
C33	C	0.826686	-0.257799	-0.000018
C34	C	0.763587	-0.212864	-0.000032
C35	C	0.764660	-0.140041	-0.000023
N36	N	0.777638	-0.365803	0.077773
N37	N	0.776622	-0.434982	0.077768
C38	C	0.823448	-0.477207	-0.000046
N39	N	0.871338	-0.447642	-0.077837
N40	N	0.872356	-0.378458	-0.077826
C41	C	0.825515	-0.336761	-0.000028
C42	C	0.885381	-0.601097	-0.000065
C43	C	0.884307	-0.673922	-0.000096
C44	C	0.757040	-0.656880	-0.000096
C45	C	0.758116	-0.584057	-0.000080
C46	C	0.822289	-0.556170	-0.000058
C47	C	0.952154	0.087527	-0.000049
C48	C	1.029658	0.088666	-0.000059
C49	C	0.819000	0.220684	-0.000078
C50	C	0.820140	0.298188	-0.000099
N51	N	0.824487	0.093015	0.356075
N52	N	0.824492	0.093013	-0.356163
C53	C	0.919737	-0.002171	0.356088
C54	C	0.967366	-0.049762	0.428035
C55	C	0.967374	-0.049763	0.571915
C56	C	0.919744	-0.002168	0.643851
C57	C	0.872115	0.045423	0.571904
C58	C	0.872114	0.045419	0.428021
C59	C	0.776862	0.140604	0.571891
C60	C	0.776858	0.140609	0.428011
C61	C	0.729233	0.188199	0.643827
C62	C	0.681606	0.235794	0.571880
C63	C	0.681601	0.235793	0.427992
C64	C	0.729228	0.188200	0.356064
H65	H	0.020968	0.204211	-0.000063
H66	H	0.642813	0.274545	0.369420
N67	N	0.691500	-0.685377	-0.000085
N68	N	0.676703	-0.724123	0.096261
H69	H	0.630414	-0.744252	0.096266
H70	H	0.706740	-0.547478	-0.000077
H71	H	0.919742	-0.002170	0.238934
N72	N	1.015987	-0.098445	0.354641
N73	N	1.080527	-0.097729	0.370697
H74	H	1.114850	-0.132141	0.318900
N75	N	0.602886	0.226000	-0.000069
N76	N	0.641623	0.240802	-0.096421
H77	H	0.661755	0.287090	-0.096429
H78	H	1.006155	-0.088518	0.630494
N79	N	0.158852	0.219460	-0.000065
N80	N	0.118730	0.275791	-0.000065
H81	H	0.138844	0.322088	-0.000061
N82	N	0.632956	0.284412	0.645338
N83	N	0.590435	0.326904	0.581090
H84	H	0.556075	0.361241	0.632972
N85	N	0.919751	-0.002187	0.790820
N86	N	0.962275	-0.044688	0.855041
H87	H	0.962279	-0.044702	0.958840
N88	N	0.955308	-0.275794	-0.000013
N89	N	1.012597	-0.250886	0.000003
H90	H	1.058120	-0.283294	0.000009
H91	H	0.495896	-0.020129	-0.000023
H92	H	0.729231	0.188198	0.238910
H93	H	0.711342	-0.235581	-0.000035
N94	N	0.950935	-0.572617	-0.000039
N95	N	1.007264	-0.612741	-0.000043
H96	H	1.053562	-0.592629	-0.000022
H97	H	0.628010	-0.018178	-0.000028
H98	H	0.935686	-0.710500	-0.000099
N99	N	0.193314	-0.037799	-0.000048
N100	N	0.258332	-0.036831	-0.000041
H101	H	0.290754	-0.082344	-0.000043
N102	N	0.046109	-0.039985	-0.000068
N103	N	0.086233	-0.096314	-0.000064
H104	H	0.066121	-0.142612	-0.000067
H105	H	0.729238	0.188193	0.760982
N106	N	0.700205	-0.094157	-0.000037
N107	N	0.642916	-0.119068	-0.000051
H108	H	0.597393	-0.086662	-0.000060
N109	N	0.455661	0.223835	-0.000028
N110	N	0.458085	0.266559	0.096317
H111	H	0.425669	0.312076	0.096328
N112	N	0.957474	-0.128596	0.000039
N113	N	0.999955	-0.142444	0.096396
H114	H	1.046250	-0.122327	0.096421
