data_functionalizedCrystal
_audit_creation_method	'MofGen! by Chris Wilmer'
_symmetry_space_group_name_H-M	'P1'
_symmetry_Int_Tables_number	1
_symmetry_cell_setting	triclinic
loop_
_symmetry_equiv_pos_as_xyz
  x,y,z
_cell_length_a	6.817900
_cell_length_b	7.190339
_cell_length_c	11.102291
_cell_angle_alpha	92.053751
_cell_angle_beta	71.394248
_cell_angle_gamma	119.388276
loop_
_atom_site_label
_atom_site_type_symbol
_atom_site_fract_x
_atom_site_fract_y
_atom_site_fract_z
V1	V	4.172442	0.295121	-0.395360
O2	O	4.067650	-0.014154	-0.388759
O3	O	4.209071	0.585150	-0.391767
O4	O	4.148292	0.290594	-0.568196
O5	O	4.128849	0.282441	-0.211108
V6	V	4.641910	0.258127	-0.373430
O7	O	4.464531	0.376272	-0.443466
O8	O	4.800017	0.176977	-0.325325
O9	O	4.382074	-0.031901	-0.377024
O10	O	4.864098	0.567403	-0.380032
O11	O	4.802899	0.270808	-0.557682
O12	O	4.442853	0.262655	-0.200594
C13	C	3.996441	0.280114	-0.610352
C14	C	4.058542	0.278331	-0.751641
C15	C	4.273919	0.288131	-0.824459
C16	C	4.332236	0.286414	-0.957210
C17	C	3.959782	0.265106	-0.944314
C18	C	3.901461	0.266808	-0.811564
C19	C	4.488958	0.300443	-0.831906
C20	C	4.547275	0.298726	-0.964658
C21	C	4.073990	0.655855	-0.385307
C22	C	4.187482	0.897414	-0.383491
C23	C	4.258047	0.273141	-0.158432
C24	C	4.175181	0.274913	-0.017142
H25	H	4.552485	0.147289	-0.994220
H26	H	4.722797	0.452944	-1.017035
H27	H	3.726086	0.258830	-0.752280
H28	H	4.617178	0.459500	-0.806959
H29	H	3.831898	0.255720	-0.993119
H30	H	4.478557	0.155678	-0.785251
