data_functionalizedCrystal
_audit_creation_method	'MofGen! by Chris Wilmer'
_symmetry_space_group_name_H-M	'P1'
_symmetry_Int_Tables_number	1
_symmetry_cell_setting	triclinic
loop_
_symmetry_equiv_pos_as_xyz
  x,y,z
_cell_length_a	10.540539
_cell_length_b	10.654550
_cell_length_c	9.730223
_cell_angle_alpha	90.003749
_cell_angle_beta	90.000775
_cell_angle_gamma	95.494803
loop_
_atom_site_label
_atom_site_type_symbol
_atom_site_fract_x
_atom_site_fract_y
_atom_site_fract_z
O1	O	0.178295	-1.667897	-0.114396
O2	O	0.195282	-1.302424	-0.114373
O3	O	0.002079	-1.493499	-0.114383
O4	O	0.371498	-1.476822	-0.114386
O5	O	0.002084	-1.493496	0.114197
O6	O	0.195287	-1.302422	0.114207
O7	O	0.178300	-1.667895	0.114184
Zn8	Zn	0.186794	-1.485158	0.150487
Zn9	Zn	0.186788	-1.485161	-0.150677
O10	O	0.371503	-1.476820	0.114194
C11	C	0.194038	-1.255625	-0.000080
C12	C	0.190306	-1.116180	-0.000072
C13	C	-0.045221	-1.492247	-0.000096
C14	C	-0.186168	-1.488505	-0.000103
N15	N	0.186798	-1.485165	0.356024
C16	C	-0.369543	-1.345134	-0.000607
C17	C	-0.222926	-1.348927	-0.000093
C18	C	-0.247847	-1.555675	0.130423
C19	C	-0.394389	-1.550912	0.130533
C20	C	-0.394914	-1.553753	-0.129405
C21	C	-0.247933	-1.555039	-0.131131
C22	C	0.418803	-1.478072	-0.000096
C23	C	0.559750	-1.481813	-0.000098
C24	C	0.179545	-1.714694	-0.000112
C25	C	0.183276	-1.854139	-0.000129
C26	C	0.304061	-1.036734	-0.000093
C27	C	0.300547	-0.905712	-0.000116
C28	C	0.069513	-0.933595	-0.000104
C29	C	0.073028	-1.064614	-0.000071
C30	C	0.421338	-1.088301	-0.000094
C31	C	0.535103	-1.008854	-0.000116
C32	C	0.531589	-0.877832	-0.000140
C33	C	0.414310	-0.826256	-0.000141
N34	N	0.186774	-1.485164	-0.356213
C35	C	0.101277	-1.569795	0.427945
C36	C	0.101261	-1.569791	0.571828
C37	C	0.272299	-1.400525	0.571855
C38	C	0.272308	-1.400523	0.427975
C39	C	0.015767	-1.654437	0.355994
C40	C	-0.069760	-1.739074	0.427916
C41	C	-0.069775	-1.739071	0.571799
C42	C	0.015736	-1.654430	0.643760
H43	H	-0.180306	-1.296074	-0.093659
C44	C	0.015871	-1.654184	0.799978
C45	C	0.109045	-1.561934	0.847598
C46	C	0.109198	-1.561664	0.991493
H47	H	0.034046	-1.734528	0.832699
H48	H	-0.065407	-1.636209	0.832566
H49	H	0.190305	-1.579917	0.815024
H50	H	0.090891	-1.481577	0.814915
H51	H	0.027919	-1.543689	1.024081
H52	H	0.127370	-1.642012	1.024201
H53	H	0.172406	-1.499066	1.023822
C54	C	-0.162512	-1.830856	0.349545
C55	C	-0.144198	-1.812748	0.208146
C56	C	-0.229632	-1.897263	0.135912
H57	H	-0.247402	-1.816493	0.372980
H58	H	-0.147979	-1.914842	0.373014
H59	H	-0.158741	-1.728782	0.184687
H60	H	-0.059325	-1.827121	0.184671
H61	H	-0.215100	-1.981248	0.159381
H62	H	-0.314518	-1.882893	0.159358
H63	H	-0.217211	-1.884996	0.039966
C64	C	0.662519	-1.064670	-0.000325
C65	C	0.731361	-1.024386	-0.117914
C66	C	0.848752	-1.075760	-0.118143
H67	H	0.648506	-1.154077	-0.000380
H68	H	0.709477	-1.037416	0.079340
H69	H	0.684413	-1.051647	-0.197558
H70	H	0.745409	-0.934987	-0.117883
H71	H	0.895711	-1.048507	-0.038478
H72	H	0.834726	-1.165165	-0.118194
H73	H	0.895481	-1.048426	-0.197918
C74	C	-0.436898	-1.493739	-0.261476
C75	C	-0.395033	-1.560035	-0.374389
C76	C	-0.433699	-1.504784	-0.496066
H77	H	-0.401193	-1.408520	-0.265674
H78	H	-0.527244	-1.496530	-0.263232
H79	H	-0.304706	-1.557232	-0.372635
H80	H	-0.430734	-1.645252	-0.370237
H81	H	-0.524044	-1.507574	-0.497822
H82	H	-0.397990	-1.419566	-0.500250
H83	H	-0.405309	-1.549764	-0.572691
H84	H	0.015774	-1.654450	0.238837
C85	C	-0.162688	-1.831094	0.649639
C86	C	-0.237546	-1.905234	0.555825
C87	C	-0.323137	-1.990038	0.627478
H88	H	-0.216087	-1.785597	0.705768
H89	H	-0.116562	-1.883845	0.705740
H90	H	-0.283668	-1.852490	0.499748
H91	H	-0.184181	-1.950759	0.499694
H92	H	-0.277011	-2.042788	0.683579
H93	H	-0.376528	-1.944530	0.683604
H94	H	-0.373930	-2.040360	0.563837
C95	C	0.364939	-1.308580	0.650159
C96	C	0.296586	-1.231127	0.732791
C97	C	0.381886	-1.146426	0.804956
H98	H	0.415911	-1.258052	0.586877
H99	H	0.418186	-1.354198	0.706366
H100	H	0.243361	-1.185512	0.676590
H101	H	0.245618	-1.281620	0.796098
H102	H	0.435133	-1.192044	0.861163
H103	H	0.432854	-1.095907	0.741665
H104	H	0.335522	-1.093871	0.861040
C105	C	0.365305	-1.308590	0.350126
C106	C	0.440221	-1.234496	0.443930
C107	C	0.525913	-1.149801	0.372266
H108	H	0.319295	-1.255789	0.293993
H109	H	0.418647	-1.354209	0.294029
H110	H	0.386886	-1.188881	0.500004
H111	H	0.486258	-1.287262	0.500066
H112	H	0.579255	-1.195420	0.316169
H113	H	0.479893	-1.097009	0.316135
H114	H	0.576761	-1.099526	0.435900
H115	H	-0.398125	-1.289998	-0.094209
H116	H	-0.399729	-1.290221	0.092477
H117	H	-0.181149	-1.295701	0.093636
H118	H	-0.422569	-1.501268	0.228111
H119	H	-0.225529	-1.658178	0.135270
C120	C	-0.458571	-1.684679	0.138664
C121	C	-0.533757	-1.697664	0.257370
C122	C	-0.592903	-1.820864	0.264909
H123	H	-0.395459	-1.742551	0.141921
H124	H	-0.510827	-1.701564	0.060000
H125	H	-0.481504	-1.680793	0.336014
H126	H	-0.596890	-1.639821	0.254139
H127	H	-0.645159	-1.837749	0.186245
H128	H	-0.529783	-1.878726	0.268162
H129	H	-0.643932	-1.829687	0.345443
H130	H	-0.223748	-1.656802	-0.139019
C131	C	-0.190896	-1.493670	0.260002
C132	C	-0.132668	-1.582839	0.337545
C133	C	-0.080179	-1.525754	0.456908
H134	H	-0.256434	-1.461673	0.312784
H135	H	-0.129227	-1.426463	0.235583
H136	H	-0.194330	-1.650024	0.361967
H137	H	-0.067113	-1.614842	0.284804
H138	H	-0.018511	-1.458547	0.432489
H139	H	-0.145725	-1.493759	0.509679
H140	H	-0.040656	-1.586243	0.509530
H141	H	-0.207059	-1.505891	-0.227690
H142	H	-0.019601	-1.129301	-0.000058
H143	H	-0.442176	-1.654570	-0.130289
H144	H	-0.025970	-0.891591	-0.000128
H145	H	0.424213	-1.194984	-0.000081
H146	H	0.624221	-0.813149	-0.000144
H147	H	0.411458	-0.719568	-0.000139
