data_functionalizedCrystal
_audit_creation_method	'MofGen! by Chris Wilmer'
_symmetry_space_group_name_H-M	'P1'
_symmetry_Int_Tables_number	1
_symmetry_cell_setting	triclinic
loop_
_symmetry_equiv_pos_as_xyz
  x,y,z
_cell_length_a	14.044220
_cell_length_b	9.065218
_cell_length_c	8.140239
_cell_angle_alpha	89.997972
_cell_angle_beta	90.002157
_cell_angle_gamma	89.102381
loop_
_atom_site_label
_atom_site_type_symbol
_atom_site_fract_x
_atom_site_fract_y
_atom_site_fract_z
O1	O	1.260761	0.356074	-0.136429
O2	O	0.984682	0.343225	-0.136471
O3	O	1.128428	0.135640	-0.136444
O4	O	1.117015	0.563660	-0.136455
O5	O	1.128420	0.135636	0.136783
O6	O	0.984674	0.343222	0.136757
O7	O	1.260753	0.356071	0.136798
Zn8	Zn	1.122712	0.349646	0.180158
Zn9	Zn	1.122723	0.349650	-0.179830
O10	O	1.117007	0.563656	0.136772
C11	C	0.949315	0.337599	0.000138
C12	C	0.843945	0.320822	0.000121
C13	C	0.651021	0.290150	0.000155
C14	C	0.594409	0.409139	0.000159
C15	C	0.487059	0.392073	0.000177
C16	C	0.758381	0.307214	0.000136
C17	C	1.127327	0.080530	0.000167
C18	C	1.124048	-0.083677	0.000160
C19	C	1.296120	0.361697	0.000187
C20	C	1.401490	0.378474	0.000192
C21	C	1.118108	0.618766	0.000157
C22	C	1.121388	0.782972	0.000154
N23	N	1.122712	0.349642	0.425841
N24	N	1.122731	0.349643	-0.425513
H25	H	0.618867	0.175472	0.000167
H26	H	0.626565	0.523826	0.000148
