data_functionalizedCrystal
_audit_creation_method	'MofGen! by Chris Wilmer'
_symmetry_space_group_name_H-M	'P1'
_symmetry_Int_Tables_number	1
_symmetry_cell_setting	triclinic
loop_
_symmetry_equiv_pos_as_xyz
  x,y,z
_cell_length_a	15.021413
_cell_length_b	15.995350
_cell_length_c	15.995350
_cell_angle_alpha	83.492375
_cell_angle_beta	90.006248
_cell_angle_gamma	89.996331
loop_
_atom_site_label
_atom_site_type_symbol
_atom_site_fract_x
_atom_site_fract_y
_atom_site_fract_z
O1	O	0.073952	-1.110990	-0.107915
O2	O	0.573952	-0.610990	0.392085
O3	O	0.073970	-0.867215	-0.121243
O4	O	0.573970	-0.367215	0.378757
O5	O	0.073960	-0.995766	0.007308
O6	O	0.573960	-0.495766	0.507308
O7	O	0.073962	-0.982439	-0.236467
O8	O	0.573962	-0.482439	0.263533
O9	O	-0.074104	-0.995746	0.007290
O10	O	0.425896	-0.495746	0.507290
O11	O	-0.074094	-0.867194	-0.121261
O12	O	0.425906	-0.367194	0.378739
O13	O	-0.074112	-1.110970	-0.107934
O14	O	0.425888	-0.610970	0.392066
Zn15	Zn	-0.097612	-0.989079	-0.114600
Zn16	Zn	0.402388	-0.489079	0.385400
Zn17	Zn	0.097469	-0.989106	-0.114576
Zn18	Zn	0.597469	-0.489106	0.385424
O19	O	-0.074102	-0.982418	-0.236485
O20	O	0.425898	-0.482418	0.263515
C21	C	-0.000060	-0.836010	-0.120701
C22	C	0.499940	-0.336010	0.379299
C23	C	-0.000053	-0.743060	-0.119049
C24	C	0.499947	-0.243060	0.380951
C25	C	-0.000071	-0.995205	0.038494
C26	C	0.499929	-0.495205	0.538494
C27	C	-0.000065	-0.993553	0.131444
C28	C	0.499935	-0.493553	0.631444
N29	N	-0.230749	-0.989067	-0.114616
N30	N	0.269251	-0.489067	0.385384
C31	C	-0.470428	-0.929615	-0.174031
C32	C	0.029572	-0.429615	0.325969
C33	C	-0.529768	-1.005274	-0.190282
C34	C	-0.029768	-0.505274	0.309718
C35	C	-0.412356	-0.989088	-0.114596
C36	C	0.087644	-0.489088	0.385404
C37	C	-0.529758	-0.913450	-0.098363
C38	C	-0.029758	-0.413450	0.401637
C39	C	-0.587780	-0.989102	-0.114577
C40	C	-0.087780	-0.489102	0.385423
C41	C	-0.470390	-1.064785	-0.130884
C42	C	0.029610	-0.564785	0.369116
C43	C	-0.470375	-0.972911	-0.038933
C44	C	0.029625	-0.472911	0.461067
C45	C	-0.529688	-1.048624	-0.055152
C46	C	-0.029688	-0.548624	0.444848
C47	C	-0.311299	-0.989079	-0.114608
C48	C	0.188701	-0.489079	0.385392
C49	C	-0.688835	-0.989120	-0.114564
C50	C	-0.188835	-0.489120	0.385436
N51	N	0.230607	-0.989125	-0.114554
N52	N	0.730607	-0.489125	0.385446
C53	C	-0.000080	-1.142175	-0.108476
C54	C	0.499920	-0.642175	0.391524
C55	C	-0.000081	-1.235125	-0.110127
C56	C	0.499919	-0.735125	0.389873
C57	C	-0.000072	-0.405312	-0.113117
C58	C	0.499928	0.094688	0.386883
C59	C	-0.000403	-0.452746	-0.021565
C60	C	0.499597	0.047254	0.478435
C61	C	-0.000063	-0.549436	-0.023217
C62	C	0.499937	-0.049436	0.476783
C63	C	-0.000063	-0.572873	-0.116060
C64	C	0.499937	-0.072873	0.383940
C65	C	0.084486	-0.531797	-0.161206
C66	C	0.584486	-0.031797	0.338794
C67	C	0.084551	-0.435161	-0.158906
C68	C	0.584551	0.064839	0.341094
C69	C	-0.083826	-0.434799	-0.160818
C70	C	0.416174	0.065201	0.339182
C71	C	-0.084937	-0.531745	-0.160797
C72	C	0.415063	-0.031745	0.339203
C73	C	-0.000055	-0.667570	-0.117727
C74	C	0.499945	-0.167570	0.382273
C75	C	-0.000073	-0.310614	-0.111452
C76	C	0.499927	0.189386	0.388548
C77	C	-0.000070	-0.982980	-0.267671
C78	C	0.499930	-0.482980	0.232329
C79	C	-0.000069	-0.984631	-0.360621
C80	C	0.499931	-0.484631	0.139379
C81	C	-0.000068	-0.987621	0.469192
C82	C	0.499932	-0.487621	0.969192
C83	C	0.000271	-0.896069	0.421758
C84	C	0.500271	-0.396069	0.921758
C85	C	-0.000063	-0.897721	0.325068
C86	C	0.499937	-0.397721	0.825068
C87	C	-0.000066	-0.990564	0.301631
C88	C	0.499934	-0.490564	0.801631
C89	C	-0.084620	-1.035709	0.342698
C90	C	0.415380	-0.535709	0.842698
C91	C	-0.084691	-1.033409	0.439334
C92	C	0.415309	-0.533409	0.939334
C93	C	0.083686	-1.035323	0.439713
C94	C	0.583686	-0.535323	0.939713
C95	C	0.084803	-1.035302	0.342768
C96	C	0.584803	-0.535302	0.842768
C97	C	-0.000068	-0.992231	0.206934
C98	C	0.499932	-0.492231	0.706934
C99	C	-0.000072	-0.985956	0.563890
C100	C	0.499928	-0.485956	1.063890
H101	H	-0.444408	-0.879372	-0.224334
H102	H	0.055592	-0.379372	0.275666
H103	H	-0.088529	-1.100624	0.471582
H104	H	0.411471	-0.600624	0.971582
C105	C	-0.435094	-0.954377	0.047465
C106	C	0.064906	-0.454377	0.547465
H107	H	-0.455384	-0.900579	0.058907
H108	H	0.044616	-0.400579	0.558907
H109	H	-0.456265	-0.996079	0.089803
H110	H	0.043735	-0.496079	0.589803
H111	H	-0.371857	-0.955018	0.046977
H112	H	0.128143	-0.455018	0.546977
C113	C	-0.564978	-0.827031	-0.079815
C114	C	-0.064978	-0.327031	0.420185
H115	H	-0.544674	-0.784840	-0.122102
H116	H	-0.044674	-0.284840	0.377898
H117	H	-0.628210	-0.827801	-0.079428
H118	H	-0.128210	-0.327801	0.420572
H119	H	-0.543756	-0.815131	-0.026477
H120	H	-0.043756	-0.315131	0.473523
C121	C	-0.565024	-1.023771	-0.276705
C122	C	-0.065024	-0.523771	0.223295
H123	H	-0.544742	-0.981459	-0.318881
H124	H	-0.044742	-0.481459	0.181119
H125	H	-0.543828	-1.077100	-0.288644
H126	H	-0.043828	-0.577100	0.211356
H127	H	-0.628261	-1.024145	-0.275911
H128	H	-0.128261	-0.524145	0.224089
C129	C	-0.170063	-0.988904	0.464051
C130	C	0.329937	-0.488904	0.964051
H131	H	-0.204373	-0.972394	0.415054
H132	H	0.295627	-0.472394	0.915054
H133	H	-0.203871	-1.026306	0.502017
H134	H	0.296129	-0.526306	1.002017
H135	H	-0.154609	-0.940540	0.490315
H136	H	0.345391	-0.440540	0.990315
H137	H	-0.060671	-0.577857	0.012271
H138	H	0.439329	-0.077857	0.512271
H139	H	-0.147540	-1.004336	0.314309
H140	H	0.352460	-0.504336	0.814309
C141	C	-0.435320	-1.151225	-0.149527
C142	C	0.064680	-0.651225	0.350473
H143	H	-0.484140	-1.187313	-0.157272
H144	H	0.015860	-0.687313	0.342728
H145	H	-0.400129	-1.144514	-0.199173
H146	H	0.099871	-0.644514	0.300827
H147	H	-0.400066	-1.175183	-0.103624
H148	H	0.099934	-0.675183	0.396376
C149	C	0.091699	-1.126767	0.322024
C150	C	0.591699	-0.626767	0.822024
H151	H	0.042686	-1.138924	0.287856
H152	H	0.542686	-0.638924	0.787856
H153	H	0.145663	-1.133867	0.292686
H154	H	0.645663	-0.633867	0.792686
H155	H	0.090979	-1.163946	0.372740
H156	H	0.590979	-0.663946	0.872740
C157	C	-0.088881	-1.127849	0.323613
C158	C	0.411119	-0.627849	0.823613
H159	H	-0.039014	-1.139631	0.290346
H160	H	0.460986	-0.639631	0.790346
H161	H	-0.088100	-1.164155	0.374900
H162	H	0.411900	-0.664155	0.874900
H163	H	-0.142157	-1.136600	0.293799
H164	H	0.357843	-0.636600	0.793799
C165	C	0.169308	-0.990779	0.305898
C166	C	0.669308	-0.490779	0.805898
H167	H	0.152946	-0.945119	0.265598
H168	H	0.652946	-0.445119	0.765598
H169	H	0.202509	-0.970217	0.349802
H170	H	0.702509	-0.470217	0.849802
H171	H	0.204597	-1.029535	0.279526
H172	H	0.704597	-0.529535	0.779526
H173	H	0.059895	-0.433161	0.014869
H174	H	0.559895	0.066839	0.514869
H175	H	-0.061036	-0.434216	0.015023
H176	H	0.438964	0.065784	0.515023
C177	C	0.170262	-0.994898	0.467463
C178	C	0.670262	-0.494898	0.967463
H179	H	0.156136	-0.948544	0.497289
H180	H	0.656136	-0.448544	0.997289
H181	H	0.203276	-1.035299	0.502942
H182	H	0.703276	-0.535299	1.002942
H183	H	0.204777	-0.975888	0.419269
H184	H	0.704777	-0.475888	0.919269
C185	C	0.081807	-0.849770	0.286676
C186	C	0.581807	-0.349770	0.786676
H187	H	0.115569	-0.829099	0.330168
H188	H	0.615569	-0.329099	0.830168
H189	H	0.117582	-0.886668	0.258389
H190	H	0.617582	-0.386668	0.758389
H191	H	0.062774	-0.803940	0.247795
H192	H	0.562774	-0.303940	0.747795
C193	C	0.084460	-1.126509	0.482617
C194	C	0.584460	-0.626509	0.982617
H195	H	0.135216	-1.155015	0.464552
H196	H	0.635216	-0.655015	0.964552
H197	H	0.086632	-1.126193	0.541934
H198	H	0.586632	-0.626193	1.041934
H199	H	0.032007	-1.154578	0.467822
H200	H	0.532007	-0.654578	0.967822
C201	C	-0.564628	-1.116644	0.012759
C202	C	-0.064628	-0.616644	0.512759
H203	H	-0.544190	-1.170323	0.001094
H204	H	-0.044190	-0.670323	0.501094
H205	H	-0.543393	-1.105605	0.066364
H206	H	-0.043393	-0.605605	0.566364
H207	H	-0.627867	-1.115980	0.012702
H208	H	-0.127867	-0.615980	0.512702
H209	H	-0.084398	-0.403038	-0.228319
H210	H	0.415602	0.096962	0.271681
H211	H	0.060650	-0.577303	0.012526
H212	H	0.560650	-0.077303	0.512526
H213	H	0.147753	-0.416862	-0.125968
H214	H	0.647753	0.083138	0.374032
C215	C	0.089758	-0.391593	-0.249702
C216	C	0.589758	0.108407	0.250298
H217	H	0.091830	-0.432977	-0.287828
H218	H	0.591830	0.067023	0.212172
H219	H	0.038777	-0.357070	-0.261266
H220	H	0.538777	0.142930	0.238734
H221	H	0.141901	-0.357865	-0.256027
H222	H	0.641901	0.142135	0.243973
C223	C	-0.082075	-0.849440	0.287405
C224	C	0.417925	-0.349440	0.787405
H225	H	-0.082554	-0.850277	0.228113
H226	H	0.417446	-0.350277	0.728113
H227	H	-0.134672	-0.875395	0.310879
H228	H	0.365328	-0.375395	0.810879
H229	H	-0.079584	-0.792847	0.299976
H230	H	0.420416	-0.292847	0.799976
H231	H	0.087630	-0.545923	-0.229414
H232	H	0.587630	-0.045923	0.270586
H233	H	0.147409	-0.560180	-0.129834
H234	H	0.647409	-0.060180	0.370166
H235	H	-0.147912	-0.414255	-0.130896
H236	H	0.352088	0.085745	0.369104
H237	H	-0.060022	-0.859631	0.441344
H238	H	0.439978	-0.359631	0.941344
C239	C	-0.169438	-0.568627	-0.116276
C240	C	0.330562	-0.068627	0.383724
H241	H	-0.153071	-0.608926	-0.070617
H242	H	0.346929	-0.108926	0.429383
H243	H	-0.202644	-0.524729	-0.095713
H244	H	0.297356	-0.024729	0.404287
H245	H	-0.204723	-0.595002	-0.155035
H246	H	0.295277	-0.095002	0.344965
C247	C	-0.091840	-0.552496	-0.252260
C248	C	0.408160	-0.052496	0.247740
H249	H	-0.042827	-0.586660	-0.264416
H250	H	0.457173	-0.086660	0.235584
H251	H	-0.145804	-0.581840	-0.259352
H252	H	0.354196	-0.081840	0.240648
H253	H	-0.091127	-0.501782	-0.289443
H254	H	0.408873	-0.001782	0.210557
H255	H	0.060906	-0.859485	0.440297
H256	H	0.560906	-0.359485	0.940297
