data_functionalizedCrystal
_audit_creation_method	'MofGen! by Chris Wilmer'
_symmetry_space_group_name_H-M	'P1'
_symmetry_Int_Tables_number	1
_symmetry_cell_setting	triclinic
loop_
_symmetry_equiv_pos_as_xyz
  x,y,z
_cell_length_a	15.297475
_cell_length_b	18.050590
_cell_length_c	15.296720
_cell_angle_alpha	99.643572
_cell_angle_beta	91.617114
_cell_angle_gamma	80.320920
loop_
_atom_site_label
_atom_site_type_symbol
_atom_site_fract_x
_atom_site_fract_y
_atom_site_fract_z
Zn1	Zn	1.253450	-0.577990	-0.726578
Zn2	Zn	1.278722	-0.684928	-0.580090
Zn3	Zn	1.132324	-0.536269	-0.554820
Zn4	Zn	1.106947	-0.677628	-0.701219
O5	O	1.192861	-0.619204	-0.640677
O6	O	1.379382	-0.612691	-0.728334
O7	O	1.280498	-0.650803	-0.454164
O8	O	1.148436	-0.437891	-0.577642
O9	O	1.397949	-0.691258	-0.620710
O10	O	1.237426	-0.468543	-0.703832
O11	O	1.172941	-0.541584	-0.435598
O12	O	1.006378	-0.534505	-0.553052
O13	O	1.105185	-0.678816	-0.827157
O14	O	0.987734	-0.638361	-0.660610
O15	O	1.212819	-0.605613	-0.845788
O16	O	1.255891	-0.787873	-0.596120
O17	O	1.129689	-0.782509	-0.685113
C18	C	0.965272	-0.581114	-0.601338
C19	C	0.867905	-0.564840	-0.584529
C20	C	0.554774	-0.735526	-0.760813
C21	C	0.646255	-0.750822	-0.776603
C22	C	0.701672	-0.704328	-0.728586
C23	C	0.665599	-0.642535	-0.664776
C24	C	0.574109	-0.627241	-0.648979
C25	C	0.721008	-0.596043	-0.616753
C26	C	0.684934	-0.534250	-0.552942
C27	C	0.593453	-0.518959	-0.537149
C28	C	0.538037	-0.565453	-0.585166
C29	C	0.812497	-0.611337	-0.632549
C30	C	0.831833	-0.503052	-0.520715
C31	C	0.740351	-0.487756	-0.504925
C32	C	1.192799	-0.812141	-0.640630
C33	C	1.192848	-0.894697	-0.640653
C34	C	1.261584	-1.097067	-0.592362
C35	C	1.269139	-1.159389	-0.675998
C36	C	1.192892	-1.045840	-0.640697
C37	C	1.185420	-1.130619	-0.557112
C38	C	1.192937	-1.191836	-0.640732
C39	C	1.200481	-1.107086	-0.724382
C40	C	1.116734	-1.078299	-0.605436
C41	C	1.124248	-1.140600	-0.689122
C42	C	1.192868	-0.961735	-0.640676
C43	C	1.192959	-1.275940	-0.640762
C44	C	1.421338	-0.657443	-0.680170
C45	C	1.518701	-0.673738	-0.697000
C46	C	1.153352	-0.646054	-0.869143
C47	C	1.136516	-0.657496	-0.966502
C48	C	1.192943	-0.425520	-0.640747
C49	C	1.192978	-0.342983	-0.640776
C50	C	1.313224	-0.537303	-1.279743
C51	C	1.329048	-0.526555	-1.188271
C52	C	1.280916	-0.559289	-1.132824
C53	C	1.216958	-0.602773	-1.168859
C54	C	1.201138	-0.613527	-1.260341
C55	C	1.168830	-0.635513	-1.113422
C56	C	1.104872	-0.678998	-1.149457
C57	C	1.089053	-0.689749	-1.240930
C58	C	1.137185	-0.657015	-1.296377
C59	C	1.184650	-0.624759	-1.021940
C60	C	1.072564	-0.700984	-1.002538
C61	C	1.056740	-0.711732	-1.094010
C62	C	1.232266	-0.592413	-0.413108
C63	C	1.249272	-0.580791	-0.315779
H64	H	0.564087	-0.468650	-0.485181
C65	C	1.209154	-1.092689	-0.819943
C66	C	1.210771	-1.011404	-0.837578
C67	C	1.219448	-0.997007	-0.933136
C68	C	1.226507	-1.063894	-1.011058
C69	C	1.224889	-1.145185	-0.993425
C70	C	1.216213	-1.159582	-0.897867
H71	H	1.205546	-0.961885	-0.779894
H72	H	1.220645	-0.936830	-0.946189
H73	H	1.232930	-1.053236	-1.081795
H74	H	1.230115	-1.194704	-1.051109
H75	H	1.215016	-1.219759	-0.884814
H76	H	1.179080	-1.141389	-0.486410
C77	C	0.892780	-0.451902	-0.467889
C78	C	0.878956	-0.366247	-0.473042
C79	C	0.939909	-0.315104	-0.420216
C80	C	1.014686	-0.349616	-0.362237
C81	C	1.028514	-0.435276	-0.357082
C82	C	0.967561	-0.486419	-0.409908
H83	H	0.823599	-0.340695	-0.515964
H84	H	0.929673	-0.251693	-0.424033
H85	H	1.059807	-0.311757	-0.323133
H86	H	1.083871	-0.460828	-0.314160
H87	H	0.977797	-0.549830	-0.406091
H88	H	1.319683	-1.077874	-0.551540
C89	C	1.019612	-0.736991	-0.941552
C90	C	1.024548	-0.824081	-0.955320
C91	C	0.971604	-0.860086	-0.894328
C92	C	0.913723	-0.809000	-0.819567
C93	C	0.908785	-0.721905	-0.805795
C94	C	0.961730	-0.685900	-0.866788
H95	H	1.067396	-0.861902	-1.010666
H96	H	0.975259	-0.924559	-0.904523
H97	H	0.874531	-0.835653	-0.774417
H98	H	0.865937	-0.684084	-0.750450
H99	H	0.958074	-0.621426	-0.856593
H100	H	0.710967	-0.437444	-0.452970
H101	H	1.052334	-1.043186	-0.575572
H102	H	1.381125	-0.491152	-1.158938
H103	H	0.841859	-0.661649	-0.684505
C104	C	1.356167	-1.206805	-0.716320
C105	C	1.445601	-1.193895	-0.672893
C106	C	1.532631	-1.241307	-0.713210
C107	C	1.530227	-1.301628	-0.796954
C108	C	1.440789	-1.314541	-0.840386
C109	C	1.353759	-1.267130	-0.800069
H110	H	1.447384	-1.149240	-0.610897
H111	H	1.598839	-1.231748	-0.681059
H112	H	1.594652	-1.336725	-0.826799
H113	H	1.439006	-1.359197	-0.902382
H114	H	1.287551	-1.276689	-0.832220
H115	H	1.066167	-1.159675	-0.730070
C116	C	0.685933	-0.818785	-0.846796
C117	C	0.624982	-0.869925	-0.899619
C118	C	0.664660	-0.937890	-0.969818
C119	C	0.765289	-0.954715	-0.987195
C120	C	0.826246	-0.903574	-0.934370
C121	C	0.786568	-0.835609	-0.864171
H122	H	0.550485	-0.857471	-0.886757
H123	H	0.619535	-0.975748	-1.008922
H124	H	0.794661	-1.005027	-1.039160
H125	H	0.900743	-0.916028	-0.947232
H126	H	0.831693	-0.797751	-0.825067
H127	H	1.236725	-0.589353	-0.992609
C128	C	0.493815	-0.786663	-0.813623
C129	C	0.437485	-0.829920	-0.764673
C130	C	0.376524	-0.881062	-0.817487
C131	C	0.371893	-0.888947	-0.919251
C132	C	0.428224	-0.845689	-0.968207
C133	C	0.489185	-0.794547	-0.915393
H134	H	0.440912	-0.824084	-0.689336
H135	H	0.334824	-0.913084	-0.781246
H136	H	0.326766	-0.926805	-0.958347
H137	H	0.424797	-0.851525	-1.043544
H138	H	0.530885	-0.762525	-0.951634
H139	H	1.004664	-0.747137	-1.123363
C140	C	1.298316	-0.547462	-1.032202
C141	C	1.284498	-0.466415	-0.978025
C142	C	1.301898	-0.454582	-0.877399
C143	C	1.333117	-0.523796	-0.830950
C144	C	1.346937	-0.604848	-0.885128
C145	C	1.329537	-0.616681	-0.985754
H146	H	1.261387	-0.415174	-1.012408
H147	H	1.291667	-0.394582	-0.837293
H148	H	1.345997	-0.515037	-0.756461
H149	H	1.370048	-0.656090	-0.850745
H150	H	1.339768	-0.676682	-1.025860
H151	H	1.352411	-0.510660	-1.324896
H152	H	0.463544	-0.553001	-0.572315
H153	H	0.776160	-0.716785	-0.741447
H154	H	1.124305	-0.665764	-1.370862
H155	H	1.036982	-0.725165	-1.270267
