data_functionalizedCrystal
_audit_creation_method	'MofGen! by Chris Wilmer'
_symmetry_space_group_name_H-M	'P1'
_symmetry_Int_Tables_number	1
_symmetry_cell_setting	triclinic
loop_
_symmetry_equiv_pos_as_xyz
  x,y,z
_cell_length_a	16.974800
_cell_length_b	14.044220
_cell_length_c	16.053810
_cell_angle_alpha	87.189008
_cell_angle_beta	88.912688
_cell_angle_gamma	88.279480
loop_
_atom_site_label
_atom_site_type_symbol
_atom_site_fract_x
_atom_site_fract_y
_atom_site_fract_z
O1	O	1.057574	0.120850	-0.002053
O2	O	1.557574	0.620850	0.497947
O3	O	0.829129	0.135360	0.013390
O4	O	1.329129	0.635360	0.513390
O5	O	0.939922	-0.009888	0.005892
O6	O	1.439922	0.490112	0.505892
O7	O	0.946781	0.266098	0.005445
O8	O	1.446781	0.766098	0.505445
O9	O	0.933851	-0.001896	-0.132556
O10	O	1.433851	0.498104	0.367444
O11	O	0.823058	0.143352	-0.125058
O12	O	1.323058	0.643352	0.374942
O13	O	1.051503	0.128843	-0.140501
O14	O	1.551503	0.628843	0.359499
Zn15	Zn	0.936316	0.137366	-0.154761
Zn16	Zn	1.436316	0.637366	0.345239
Zn17	Zn	0.944316	0.126836	0.027650
Zn18	Zn	1.444316	0.626836	0.527650
O19	O	0.940710	0.274090	-0.133003
O20	O	1.440710	0.774090	0.366997
C21	C	0.796681	0.138657	-0.053846
C22	C	1.296681	0.638657	0.446154
C23	C	0.709040	0.136566	-0.047921
C24	C	1.209040	0.636566	0.452079
C25	C	0.664562	0.139937	-0.120608
C26	C	1.164562	0.639937	0.379392
C27	C	0.582214	0.137957	-0.115044
C28	C	1.082214	0.637957	0.384956
C29	C	0.544347	0.132611	-0.036792
C30	C	1.044347	0.632611	0.463208
C31	C	0.588832	0.129237	0.035900
C32	C	1.088832	0.629237	0.535900
C33	C	0.671178	0.131210	0.030335
C34	C	1.171178	0.631210	0.530335
C35	C	0.298423	0.126235	-0.012056
C36	C	0.798423	0.626235	0.487944
C37	C	0.216071	0.124264	-0.006496
C38	C	0.716071	0.624264	0.493504
C39	C	0.209459	0.132983	-0.157440
C40	C	0.709459	0.632983	0.342560
C41	C	0.291807	0.134962	-0.162998
C42	C	0.791807	0.634962	0.337002
C43	C	0.336285	0.131582	-0.090306
C44	C	0.836285	0.631582	0.409694
N45	N	0.460174	0.130590	-0.031103
N46	N	0.960174	0.630590	0.468897
N47	N	0.420456	0.133597	-0.095997
N48	N	0.920456	0.633597	0.404003
C49	C	0.933885	-0.041214	-0.063129
C50	C	1.433885	0.458786	0.436871
C51	C	0.924931	-0.146462	-0.062525
C52	C	1.424931	0.353538	0.437475
C53	C	0.908561	-0.339166	-0.061406
C54	C	1.408561	0.160834	0.438594
C55	C	0.972068	-0.396638	-0.065697
C56	C	1.472068	0.103362	0.434303
C57	C	0.962960	-0.503865	-0.065075
C58	C	1.462960	-0.003865	0.434925
C59	C	0.917668	-0.231929	-0.062029
C60	C	1.417668	0.268071	0.437971
C61	C	1.083951	0.125544	-0.073264
C62	C	1.583951	0.625544	0.426736
C63	C	1.171592	0.127636	-0.079183
C64	C	1.671592	0.627636	0.420817
C65	C	0.946747	0.305416	-0.063980
C66	C	1.446747	0.805416	0.436020
C67	C	0.955702	0.410664	-0.064579
C68	C	1.455702	0.910664	0.435421
N69	N	0.930863	0.144552	-0.279252
N70	N	1.430863	0.644552	0.220748
C71	C	0.902619	0.181430	-0.800973
C72	C	1.402619	0.681430	-0.300973
C73	C	0.906452	0.176422	-0.713826
C74	C	1.406452	0.676422	-0.213826
C75	C	0.957446	0.109629	-0.673567
C76	C	1.457446	0.609629	-0.173567
C77	C	1.004604	0.047834	-0.720460
C78	C	1.504604	0.547834	-0.220460
C79	C	1.000766	0.052839	-0.807605
C80	C	1.500766	0.552839	-0.307605
C81	C	0.974183	0.087762	-0.413290
C82	C	1.474183	0.587762	0.086710
C83	C	0.978019	0.082764	-0.326139
C84	C	1.478019	0.582764	0.173861
C85	C	0.879866	0.211351	-0.319511
C86	C	1.379866	0.711351	0.180489
C87	C	0.876036	0.216354	-0.406658
C88	C	1.376036	0.716354	0.093342
C89	C	0.923191	0.154556	-0.453543
C90	C	1.423191	0.654556	0.046457
N91	N	0.961367	0.104510	-0.584488
N92	N	1.461367	0.604510	-0.084488
N93	N	0.919265	0.159671	-0.542620
N94	N	1.419265	0.659671	-0.042620
N95	N	0.949775	0.119642	0.152141
N96	N	1.449775	0.619642	0.652141
H97	H	0.185242	0.119914	0.057229
H98	H	0.685242	0.619914	0.557229
H99	H	0.546003	0.140687	-0.174233
H100	H	1.046003	0.640687	0.325767
H101	H	1.033282	-0.365315	-0.069779
H102	H	1.533282	0.134685	0.430221
H103	H	1.012580	0.037446	-0.451457
H104	H	1.512580	0.537446	0.048543
H105	H	0.847355	-0.370490	-0.057267
H106	H	1.347355	0.129510	0.442733
H107	H	0.861098	0.235824	-0.833746
H108	H	1.361098	0.735824	-0.333746
C109	C	0.854677	0.244506	-0.662261
C110	C	1.354677	0.744506	-0.162261
N111	N	0.815713	0.295829	-0.623425
N112	N	1.315713	0.795829	-0.123425
H113	H	0.173236	0.135733	-0.216622
H114	H	0.673236	0.635733	0.283378
H115	H	0.834513	0.270742	-0.439435
H116	H	1.334513	0.770742	0.060565
H117	H	0.841474	0.261663	-0.281329
H118	H	1.341474	0.761663	0.218671
C119	C	1.034116	0.009281	-0.281856
C120	C	1.534116	0.509281	0.218144
N121	N	1.076366	-0.046064	-0.248502
N122	N	1.576366	0.453936	0.251498
C123	C	1.052642	-0.015132	-0.859180
C124	C	1.552642	0.484868	-0.359180
N125	N	1.091715	-0.066332	-0.898025
N126	N	1.591715	0.433668	-0.398025
C127	C	0.706208	0.145817	-0.206692
C128	C	1.206208	0.645817	0.293308
N129	N	0.737574	0.150241	-0.271532
N130	N	1.237574	0.650241	0.228468
C131	C	0.333455	0.140837	-0.249081
C132	C	0.833455	0.640837	0.250919
N133	N	0.364824	0.145264	-0.313920
N134	N	0.864824	0.645264	0.186080
C135	C	0.347339	0.122509	0.067909
C136	C	0.847339	0.622509	0.567909
N137	N	0.384185	0.119698	0.128142
N138	N	0.884185	0.619698	0.628142
C139	C	0.547175	0.123354	0.121978
C140	C	1.047175	0.623354	0.621978
N141	N	0.515799	0.118926	0.186814
N142	N	1.015799	0.618926	0.686814
H143	H	1.046121	-0.006555	-0.687676
H144	H	1.546121	0.493445	-0.187676
H145	H	0.707392	0.128467	0.089524
H146	H	1.207392	0.628467	0.589524
