data_functionalizedCrystal
_audit_creation_method	'MofGen! by Chris Wilmer'
_symmetry_space_group_name_H-M	'P1'
_symmetry_Int_Tables_number	1
_symmetry_cell_setting	triclinic
loop_
_symmetry_equiv_pos_as_xyz
  x,y,z
_cell_length_a	35.288113
_cell_length_b	35.277611
_cell_length_c	35.277682
_cell_angle_alpha	89.997327
_cell_angle_beta	59.999432
_cell_angle_gamma	60.000166
loop_
_atom_site_label
_atom_site_type_symbol
_atom_site_fract_x
_atom_site_fract_y
_atom_site_fract_z
O1	O	-0.271232	-0.323090	0.011273
O2	O	-0.193633	-0.267966	-0.011225
O3	O	-0.271230	-0.267965	0.066395
O4	O	-0.193635	-0.323091	-0.066346
O5	O	-0.334254	-0.204920	0.066390
O6	O	-0.256658	-0.204921	-0.011230
O7	O	-0.334256	-0.260045	0.011268
Zn8	Zn	-0.305463	-0.222473	0.000019
Zn9	Zn	-0.222426	-0.305537	0.000025
O10	O	-0.256659	-0.260046	-0.066351
C11	C	-0.139921	-0.094839	-0.023515
C12	C	-0.166526	-0.044836	-0.020291
C13	C	-0.162510	-0.117863	-0.023839
C14	C	-0.071295	-0.163484	-0.023521
C15	C	-0.024525	-0.186877	-0.020303
C16	C	-0.093988	-0.186403	-0.023845
C17	C	-0.139916	-0.163485	-0.023523
C18	C	-0.166517	-0.186877	-0.020308
C19	C	-0.093993	-0.117863	-0.023837
C20	C	-0.188008	-0.205776	-0.017709
C21	C	-0.188021	-0.004439	-0.017686
C22	C	0.013260	-0.205775	-0.017702
C23	C	-0.214969	-0.229485	-0.014449
C24	C	-0.214987	0.046242	-0.014418
C25	C	0.060663	-0.229485	-0.014440
C26	C	-0.466057	-0.500369	0.034182
C27	C	-0.511983	-0.477348	0.034501
C28	C	-0.466054	-0.431728	0.034177
C29	C	-0.511980	-0.408811	0.034496
C30	C	-0.534676	-0.431729	0.034177
C31	C	-0.443465	-0.477347	0.034501
C32	C	-0.342486	-0.665896	0.021768
C33	C	-0.317224	-0.712772	0.018258
C34	C	-0.338910	-0.736288	0.016496
C35	C	-0.311516	-0.787116	0.012682
C36	C	-0.385862	-0.712923	0.018248
C37	C	-0.411124	-0.666049	0.021764
C38	C	-0.389434	-0.642536	0.023524
C39	C	-0.687733	-0.389815	0.021747
C40	C	-0.731082	-0.368211	0.018231
C41	C	-0.752825	-0.323007	0.016462
C42	C	-0.799821	-0.299581	0.012644
C43	C	-0.731219	-0.299405	0.018214
C44	C	-0.687878	-0.321006	0.021737
C45	C	-0.666135	-0.366216	0.023501
C46	C	-0.342474	-0.389811	0.021746
C47	C	-0.317205	-0.368208	0.018224
C48	C	-0.338888	-0.323002	0.016457
C49	C	-0.311491	-0.299577	0.012637
C50	C	-0.385836	-0.299403	0.018207
C51	C	-0.411101	-0.321009	0.021727
C52	C	-0.389418	-0.366213	0.023500
C53	C	-0.416828	-0.591710	0.027333
C54	C	-0.438663	-0.551196	0.030370
C55	C	-0.438657	-0.408305	0.030359
C56	C	-0.416819	-0.389634	0.027316
C57	C	-0.581672	-0.408306	0.030359
C58	C	-0.619135	-0.389636	0.027317
C59	C	-0.061850	-0.432022	-0.438498
C60	C	-0.015925	-0.477641	-0.461414
C61	C	-0.061850	-0.432022	-0.369855
C62	C	-0.015924	-0.477642	-0.392875
C63	C	0.006770	-0.500664	-0.438494
C64	C	-0.084440	-0.409104	-0.392879
C65	C	-0.185425	-0.320835	-0.480419
C66	C	-0.210689	-0.299078	-0.502026
C67	C	-0.189005	-0.322533	-0.547232
C68	C	-0.216400	-0.298947	-0.570658
C69	C	-0.142053	-0.367745	-0.570831
C70	C	-0.116790	-0.389496	-0.549227
C71	C	-0.138478	-0.366040	-0.504019
C72	C	0.159822	-0.666191	-0.549673
C73	C	0.203170	-0.713067	-0.571429
C74	C	0.224915	-0.736585	-0.547974
C75	C	0.271910	-0.787411	-0.571555
C76	C	0.203311	-0.713220	-0.502762
C77	C	0.159971	-0.666344	-0.481011
C78	C	0.138226	-0.642833	-0.504471
C79	C	-0.185423	-0.320837	-0.204330
C80	C	-0.210690	-0.299082	-0.157452
C81	C	-0.189006	-0.322537	-0.133935
C82	C	-0.216401	-0.298952	-0.083107
C83	C	-0.142058	-0.367748	-0.157296
C84	C	-0.116795	-0.389501	-0.204172
C85	C	-0.138480	-0.366040	-0.227687
C86	C	-0.111082	-0.389631	-0.480594
C87	C	-0.089245	-0.408434	-0.461922
C88	C	-0.089244	-0.408435	-0.319029
C89	C	-0.111081	-0.389633	-0.278515
C90	C	0.053765	-0.551490	-0.462079
C91	C	0.091227	-0.592004	-0.480880
O92	O	0.184792	-0.260049	0.011276
O93	O	0.074572	-0.204918	-0.011214
O94	O	0.074577	-0.204931	0.066402
O95	O	0.184787	-0.260036	-0.066340
O96	O	0.074580	-0.267979	0.066395
O97	O	0.074575	-0.267967	-0.011221
O98	O	0.184796	-0.323098	0.011268
Zn99	Zn	0.129686	-0.305543	0.000022
Zn100	Zn	0.129681	-0.222473	0.000032
O101	O	0.184791	-0.323085	-0.066347
O102	O	-0.334280	0.196123	0.011311
O103	O	-0.256678	0.063379	-0.011194
O104	O	-0.334272	0.140988	0.066428
O105	O	-0.256685	0.118515	-0.066311
O106	O	-0.271246	0.140988	0.066430
O107	O	-0.193651	0.063380	-0.011192
O108	O	-0.271253	0.196124	0.011313
Zn109	Zn	-0.222445	0.129752	0.000061
Zn110	Zn	-0.305486	0.129751	0.000058
O111	O	-0.193659	0.118515	-0.066309
O112	O	0.397507	-0.936914	-0.602533
O113	O	0.287295	-0.804173	-0.547413
O114	O	0.287292	-0.881789	-0.547409
O115	O	0.397511	-0.859297	-0.602537
O116	O	0.287290	-0.881788	-0.610455
O117	O	0.287294	-0.804171	-0.610459
O118	O	0.397506	-0.936912	-0.665578
Zn119	Zn	0.342400	-0.870541	-0.648029
Zn120	Zn	0.342402	-0.870543	-0.564963
O121	O	0.397510	-0.859295	-0.665583
O122	O	-0.271230	-0.267964	-0.665316
O123	O	-0.193638	-0.323088	-0.610187
O124	O	-0.271233	-0.323088	-0.610187
O125	O	-0.193635	-0.267964	-0.665317
O126	O	-0.334259	-0.260042	-0.547144
O127	O	-0.256663	-0.260042	-0.547145
O128	O	-0.334256	-0.204919	-0.602274
Zn129	Zn	-0.305466	-0.222471	-0.564700
Zn130	Zn	-0.222427	-0.305536	-0.647761
O131	O	-0.256660	-0.204919	-0.602274
C132	C	-0.456595	-0.094848	0.293242
C133	C	-0.503362	-0.044847	0.316630
C134	C	-0.433901	-0.117870	0.316162
C135	C	-0.387976	-0.163489	0.224603
C136	C	-0.361374	-0.186880	0.174603
C137	C	-0.365386	-0.186407	0.247627
C138	C	-0.387976	-0.163489	0.293246
C139	C	-0.361374	-0.186880	0.316639
C140	C	-0.433901	-0.117870	0.247623
C141	C	-0.339882	-0.205777	0.335538
C142	C	-0.541144	-0.004451	0.335525
C143	C	-0.339882	-0.205778	0.134207
C144	C	-0.312920	-0.229485	0.359247
C145	C	-0.588544	0.046227	0.359230
C146	C	-0.312919	-0.229485	0.083529
C147	C	-0.139914	-0.163526	0.293243
C148	C	-0.166515	-0.186921	0.316629
C149	C	-0.162508	-0.117907	0.316165
C150	C	-0.071292	-0.163518	0.224608
C151	C	-0.024521	-0.186904	0.174608
C152	C	-0.093990	-0.117899	0.247633
C153	C	-0.139918	-0.094881	0.293251
C154	C	-0.166524	-0.044881	0.316645
C155	C	-0.093985	-0.186440	0.247625
C156	C	-0.188019	-0.004485	0.335545
C157	C	-0.188006	-0.205822	0.335522
C158	C	0.013264	-0.205797	0.134213
C159	C	-0.214985	0.046193	0.359256
C160	C	-0.214967	-0.229534	0.359225
C161	C	0.060667	-0.229500	0.083535
C162	C	-0.387977	0.153259	0.293278
C163	C	-0.361372	0.150036	0.316669
C164	C	-0.433902	0.153576	0.316195
C165	C	-0.387982	0.153270	0.224638
C166	C	-0.361384	0.150059	0.174638
C167	C	-0.433907	0.153586	0.247659
C168	C	-0.456599	0.153258	0.293277
C169	C	-0.503365	0.150035	0.316666
C170	C	-0.365390	0.153587	0.247660
C171	C	-0.541147	0.147430	0.335562
C172	C	-0.339878	0.147432	0.335565
C173	C	-0.339894	0.147463	0.134243
C174	C	-0.588546	0.144163	0.359268
C175	C	-0.312913	0.144165	0.359273
C176	C	-0.312935	0.144208	0.083566
C177	C	0.533962	-0.500327	-0.438490
C178	C	0.556552	-0.477301	-0.461404
C179	C	0.465336	-0.431691	-0.369847
C180	C	0.488030	-0.408769	-0.392865
C181	C	0.533958	-0.431682	-0.438483
C182	C	0.488034	-0.477309	-0.392872
C183	C	0.588298	-0.665858	-0.480419
C184	C	0.613412	-0.712734	-0.502027
C185	C	0.660370	-0.736245	-0.547233
C186	C	0.687609	-0.787073	-0.570661
C187	C	0.682211	-0.712876	-0.570830
C188	C	0.657092	-0.666002	-0.549224
C189	C	0.610134	-0.642493	-0.504016
C190	C	0.657534	-0.389751	-0.549653
C191	C	0.682796	-0.368142	-0.571405
C192	C	0.661112	-0.322938	-0.547949
C193	C	0.688502	-0.299507	-0.571527
C194	C	0.614158	-0.299341	-0.502738
C195	C	0.588891	-0.320946	-0.480989
C196	C	0.610587	-0.366156	-0.504452
C197	C	0.312274	-0.389793	-0.204326
C198	C	0.268926	-0.368195	-0.157448
C199	C	0.247178	-0.322989	-0.133930
C200	C	0.200179	-0.299569	-0.083102
C201	C	0.268782	-0.299385	-0.157288
C202	C	0.312130	-0.320986	-0.204163
C203	C	0.333870	-0.366190	-0.227680
C204	C	0.582904	-0.591667	-0.480590
C205	C	0.561197	-0.551153	-0.461917
C206	C	0.418337	-0.408273	-0.319021
C207	C	0.380873	-0.389606	-0.278508
C208	C	0.561353	-0.408255	-0.462065
C209	C	0.583189	-0.389581	-0.480864
O210	O	-0.271267	0.196079	0.389818
O211	O	-0.193655	0.063337	0.334690
O212	O	-0.271264	0.140949	0.334697
O213	O	-0.193658	0.118467	0.389810
O214	O	-0.334279	0.140936	0.397745
O215	O	-0.256670	0.063324	0.397738
O216	O	-0.334282	0.196067	0.452865
Zn217	Zn	-0.305481	0.129693	0.435312
Zn218	Zn	-0.222456	0.129710	0.352244
O219	O	-0.256673	0.118454	0.452858
C220	C	0.006425	0.095680	-0.438452
C221	C	-0.016272	0.095363	-0.461370
C222	C	-0.062191	0.095669	-0.369813
C223	C	-0.084784	0.095352	-0.392834
C224	C	-0.062197	0.095680	-0.438452
C225	C	-0.016266	0.095352	-0.392834
C226	C	0.159478	0.108116	-0.480364
C227	C	0.202826	0.111633	-0.501968
C228	C	0.224567	0.113404	-0.547173
C229	C	0.271562	0.117227	-0.570597
C230	C	0.202961	0.111654	-0.570774
C231	C	0.159621	0.108130	-0.549172
C232	C	0.137880	0.106361	-0.503965
C233	C	-0.116535	0.108125	-0.549635
C234	C	-0.141649	0.111642	-0.571391
C235	C	-0.188604	0.113404	-0.547939
C236	C	-0.215842	0.117224	-0.571521
C237	C	-0.210441	0.111643	-0.502728
C238	C	-0.185323	0.108118	-0.480975
C239	C	-0.138368	0.106362	-0.504434
C240	C	-0.116504	0.108070	-0.204288
C241	C	-0.141615	0.111582	-0.157411
C242	C	-0.188570	0.113342	-0.133896
C243	C	-0.215802	0.117153	-0.083069
C244	C	-0.210414	0.111594	-0.157259
C245	C	-0.185302	0.108084	-0.204134
C246	C	-0.138343	0.106318	-0.227646
C247	C	0.090881	0.102545	-0.480543
C248	C	0.053420	0.099501	-0.461874
C249	C	-0.089418	0.099477	-0.318987
C250	C	-0.111120	0.102512	-0.278474
C251	C	-0.089431	0.099500	-0.462039
C252	C	-0.111138	0.102544	-0.480841
H253	H	-0.074989	-0.223889	-0.024367
H254	H	-0.121738	0.094833	-0.374350
O255	O	0.465445	-0.364079	-0.370807
C256	C	0.502908	-0.361536	-0.368513
H257	H	0.534199	-0.397035	-0.371498
H258	H	0.523454	-0.350466	-0.398220
C259	C	0.435377	-0.282157	-0.318180
C260	C	0.473806	-0.325757	-0.321842
H261	H	0.417426	-0.260086	-0.289392
H262	H	0.410137	-0.283870	-0.319726
H263	H	0.452504	-0.272939	-0.342939
H264	H	0.456678	-0.334977	-0.297087
H265	H	0.499043	-0.324045	-0.320291
H266	H	-0.199462	-0.099379	-0.024361
O267	O	-0.456630	0.154266	0.360936
C268	C	-0.509677	0.194457	0.389155
H269	H	-0.514087	0.222045	0.371605
H270	H	-0.538502	0.185531	0.394420
C271	C	-0.517310	0.179266	0.458129
C272	C	-0.522725	0.213152	0.436576
H273	H	-0.525360	0.190797	0.487381
H274	H	-0.481572	0.152187	0.439117
H275	H	-0.541331	0.171830	0.462512
H276	H	-0.498700	0.220583	0.432188
H277	H	-0.558460	0.240233	0.455588
O278	O	-0.666536	-0.433734	0.023449
C279	C	-0.623653	-0.447739	0.026939
H280	H	-0.607079	-0.426481	0.012833
H281	H	-0.638498	-0.441922	0.064884
C282	C	-0.599502	-0.525717	0.015875
C283	C	-0.579142	-0.499611	-0.001454
H284	H	-0.572046	-0.557715	-0.001638
H285	H	-0.628394	-0.516282	0.013525
H286	H	-0.611872	-0.520865	0.047495
H287	H	-0.566779	-0.504459	-0.033072
H288	H	-0.550247	-0.509049	0.000890
H289	H	-0.328434	0.154105	0.229179
H290	H	0.220756	-0.732087	-0.608239
H291	H	0.469050	-0.495802	-0.374391
O292	O	-0.456471	-0.095859	0.360862
C293	C	-0.419021	-0.093548	0.363412
H294	H	-0.376714	-0.122162	0.332602
H295	H	-0.426393	-0.058286	0.362607
C296	C	-0.477265	-0.064860	0.446747
C297	C	-0.425303	-0.100006	0.408908
H298	H	-0.481141	-0.068841	0.474812
H299	H	-0.502498	-0.066415	0.445030
H300	H	-0.483403	-0.035478	0.446070
H301	H	-0.419169	-0.129387	0.409582
H302	H	-0.400070	-0.098456	0.410627
H303	H	-0.449352	-0.647029	0.023192
H304	H	0.593507	-0.495781	-0.498887
H305	H	-0.328426	-0.223888	0.229142
O306	O	-0.456659	0.154261	0.225681
C307	C	-0.509698	0.194463	0.250517
H308	H	-0.525117	0.207433	0.288189
H309	H	-0.510611	0.222575	0.234265
C310	C	-0.526635	0.166954	0.202443
C311	C	-0.545575	0.182881	0.248713
H312	H	-0.548766	0.159811	0.201328
H313	H	-0.490901	0.139870	0.185709
H314	H	-0.527397	0.190383	0.188904
H315	H	-0.544807	0.159451	0.262249
H316	H	-0.581310	0.209961	0.265449
H317	H	-0.074998	-0.099413	0.229150
O318	O	0.728356	-0.391018	-0.615346
C319	C	0.719823	-0.365919	-0.644650
H320	H	0.675113	-0.342663	-0.628869
H321	H	0.735451	-0.343616	-0.648594
C322	C	0.804701	-0.428609	-0.712031
C323	C	0.749787	-0.400048	-0.692651
H324	H	0.823185	-0.449661	-0.741641
H325	H	0.810451	-0.445519	-0.692289
H326	H	0.817717	-0.410019	-0.715314
H327	H	0.736770	-0.418638	-0.689363
H328	H	0.744035	-0.383143	-0.712393
O329	O	0.247992	-0.391181	-0.134834
C330	C	0.276487	-0.435715	-0.165639
H331	H	0.296651	-0.435667	-0.202893
H332	H	0.308268	-0.462172	-0.160859
C333	C	0.212677	-0.448745	-0.109667
C334	C	0.237440	-0.448685	-0.155423
H335	H	0.188592	-0.456747	-0.103364
H336	H	0.193481	-0.418742	-0.088911
H337	H	0.239167	-0.470792	-0.105689
H338	H	0.210951	-0.426634	-0.159398
H339	H	0.256631	-0.478684	-0.176178
O340	O	-0.206608	-0.095922	0.360874
C341	C	-0.221766	-0.126045	0.376255
H342	H	-0.205539	-0.153620	0.345035
H343	H	-0.204674	-0.143537	0.396312
C344	C	-0.303262	-0.064205	0.446481
C345	C	-0.283335	-0.098070	0.408136
H346	H	-0.341241	-0.046949	0.466148
H347	H	-0.293050	-0.043911	0.436120
H348	H	-0.289014	-0.078787	0.463189
H349	H	-0.297578	-0.083488	0.391425
H350	H	-0.293552	-0.118362	0.418495
O351	O	-0.071375	-0.231162	0.225645
C352	C	-0.101282	-0.246543	0.255751
H353	H	-0.124536	-0.224713	0.293258
H354	H	-0.130530	-0.242821	0.248077
C355	C	-0.034468	-0.324676	0.202272
C356	C	-0.063025	-0.297865	0.248339
H357	H	-0.010871	-0.356334	0.197699
H358	H	-0.014320	-0.314313	0.181988
H359	H	-0.058847	-0.321568	0.195883
H360	H	-0.038647	-0.300968	0.254726
H361	H	-0.083169	-0.308230	0.268624
H362	H	-0.452887	-0.099380	0.229135
H363	H	0.329974	-0.426601	-0.223470
H364	H	-0.124400	-0.386837	-0.607639
O365	O	-0.070854	0.106301	-0.227095
C366	C	-0.030839	0.067265	-0.226266
H367	H	-0.050443	0.056519	-0.195732
H368	H	-0.003815	0.037359	-0.260037
C369	C	0.026927	0.092736	-0.258488
C370	C	0.002848	0.079540	-0.220984
H371	H	0.047708	0.100307	-0.255232
H372	H	-0.000031	0.119034	-0.259049
H373	H	0.049443	0.067812	-0.286627
H374	H	-0.019673	0.104466	-0.192847
H375	H	0.029803	0.053246	-0.220419
H376	H	0.550062	-0.646721	-0.443611
H377	H	0.550661	-0.301730	-0.444180
O378	O	0.592143	-0.735369	-0.479032
C379	C	0.545306	-0.704566	-0.434504
H380	H	0.546701	-0.675034	-0.423828
H381	H	0.508698	-0.689773	-0.435207
C382	C	0.539998	-0.767067	-0.412448
C383	C	0.541714	-0.730797	-0.399333
H384	H	0.537780	-0.783248	-0.390753
H385	H	0.571552	-0.787820	-0.442448
H386	H	0.509491	-0.754734	-0.413034
H387	H	0.572224	-0.743131	-0.398753
H388	H	0.510165	-0.710047	-0.369333
O389	O	-0.256240	-0.255136	-0.134803
C390	C	-0.245722	-0.224910	-0.156880
H391	H	-0.201071	-0.240735	-0.177106
H392	H	-0.258156	-0.219442	-0.181749
C393	C	-0.332593	-0.158466	-0.095237
C394	C	-0.277753	-0.177901	-0.120076
H395	H	-0.352353	-0.129468	-0.072536
H396	H	-0.339681	-0.178829	-0.080364
H397	H	-0.342947	-0.153914	-0.115966
H398	H	-0.267398	-0.182458	-0.099348
H399	H	-0.270664	-0.157537	-0.134945
H400	H	-0.670290	-0.301786	0.023164
H401	H	0.720442	-0.732021	-0.607636
H402	H	-0.074999	-0.099378	-0.024354
O403	O	-0.256012	0.113291	-0.480017
C404	C	-0.247371	0.075436	-0.505205
H405	H	-0.212862	0.062668	-0.543159
H406	H	-0.237005	0.046149	-0.490149
C407	C	-0.340939	0.106577	-0.455175
C408	C	-0.298556	0.090897	-0.501791
H409	H	-0.372512	0.116113	-0.453068
H410	H	-0.346760	0.132080	-0.438204
H411	H	-0.332293	0.082168	-0.442634
H412	H	-0.307200	0.115307	-0.514330
H413	H	-0.292737	0.065399	-0.518765
H414	H	0.674876	-0.646978	-0.568440
O415	O	-0.534592	-0.364085	0.035138
C416	C	-0.504686	-0.348707	0.035336
H417	H	-0.481429	-0.370546	0.049577
H418	H	-0.475441	-0.352419	-0.001592
C419	C	-0.571506	-0.270568	0.048704
C420	C	-0.542945	-0.297389	0.066200
H421	H	-0.595105	-0.238913	0.067741
H422	H	-0.591653	-0.280929	0.048569
H423	H	-0.547130	-0.273667	0.017931
H424	H	-0.567321	-0.294295	0.096970
H425	H	-0.522802	-0.287027	0.066341
H426	H	-0.530976	-0.495833	0.035018
O427	O	0.138630	-0.643343	-0.572413
C428	C	0.084236	-0.626770	-0.547226
H429	H	0.076842	-0.648329	-0.524060
H430	H	0.058039	-0.588880	-0.524824
C431	C	0.079278	-0.604248	-0.609722
C432	C	0.070197	-0.630730	-0.581271
H433	H	0.070617	-0.606689	-0.630722
H434	H	0.115924	-0.615412	-0.626690
H435	H	0.057446	-0.572676	-0.591048
H436	H	0.092034	-0.662303	-0.599944
H437	H	0.033555	-0.619571	-0.564307
O438	O	-0.399388	-0.499457	0.035133
C439	C	-0.384210	-0.544751	0.035327
H440	H	-0.420282	-0.546175	0.049582
H441	H	-0.351019	-0.570285	-0.001603
C442	C	-0.319431	-0.556064	0.048663
C443	C	-0.363737	-0.557811	0.066175
H444	H	-0.306800	-0.564121	0.067689
H445	H	-0.329655	-0.525549	0.048531
H446	H	-0.291778	-0.577342	0.017888
H447	H	-0.391392	-0.536529	0.096947
H448	H	-0.353517	-0.588323	0.066313
O449	O	-0.271616	-0.391191	0.016548
C450	C	-0.257890	-0.435726	0.018854
H451	H	-0.295178	-0.435682	0.035941
H452	H	-0.226665	-0.462182	-0.017715
C453	C	-0.188907	-0.448747	0.026702
C454	C	-0.234706	-0.448692	0.047693
H455	H	-0.174604	-0.456747	0.044490
H456	H	-0.198153	-0.418744	0.025147
H457	H	-0.162892	-0.470794	-0.003771
H458	H	-0.260723	-0.426642	0.078163
H459	H	-0.225464	-0.478692	0.049254
O460	O	0.678660	-0.433656	-0.572519
C461	C	0.725522	-0.449852	-0.617080
H462	H	0.724251	-0.419004	-0.627877
H463	H	0.762121	-0.471714	-0.616370
C464	C	0.730549	-0.517569	-0.638870
C465	C	0.728986	-0.479681	-0.652132
H466	H	0.732688	-0.535971	-0.660492
H467	H	0.698979	-0.506659	-0.608847
H468	H	0.761048	-0.535781	-0.638278
H469	H	0.698484	-0.461466	-0.652718
H470	H	0.760551	-0.490589	-0.682156
H471	H	0.596497	-0.262532	-0.483641
O472	O	0.224524	-0.736092	-0.480046
C473	C	0.278908	-0.752635	-0.505229
H474	H	0.295112	-0.756069	-0.543184
H475	H	0.282764	-0.727207	-0.490172
C476	C	0.291316	-0.796196	-0.455191
C477	C	0.311219	-0.800418	-0.501808
H478	H	0.311247	-0.825669	-0.453079
H479	H	0.254676	-0.785049	-0.438223
H480	H	0.294530	-0.775004	-0.442648
H481	H	0.307998	-0.821604	-0.514349
H482	H	0.347859	-0.811569	-0.518778
O483	O	0.333033	-0.297983	-0.226790
C484	C	0.304552	-0.253457	-0.195979
H485	H	0.262960	-0.242786	-0.166452
H486	H	0.327068	-0.254160	-0.181179
C487	C	0.350292	-0.231389	-0.258468
C488	C	0.299207	-0.218282	-0.222204
H489	H	0.346997	-0.209691	-0.274645
H490	H	0.369482	-0.261388	-0.279226
H491	H	0.369050	-0.231975	-0.246129
H492	H	0.280452	-0.217702	-0.234544
H493	H	0.280013	-0.188282	-0.201449
H494	H	0.142386	-0.647324	-0.444201
O495	O	0.247659	-0.255496	-0.134380
C496	C	0.251900	-0.255602	-0.096698
H497	H	0.255237	-0.287123	-0.086219
H498	H	0.289094	-0.257216	-0.107324
C499	C	0.197683	-0.172245	-0.068211
C500	C	0.201777	-0.210957	-0.055337
H501	H	0.166767	-0.144705	-0.042697
H502	H	0.194827	-0.172173	-0.093598
H503	H	0.228681	-0.173597	-0.077066
H504	H	0.170783	-0.209608	-0.046488
H505	H	0.204627	-0.211028	-0.029947
O506	O	-0.071138	-0.433385	-0.226865
C507	C	-0.031224	-0.434292	-0.225919
H508	H	-0.040624	-0.397976	-0.220464
H509	H	-0.030193	-0.446385	-0.196271
C510	C	0.035229	-0.512608	-0.279002
C511	C	0.023685	-0.468005	-0.272307
H512	H	0.069099	-0.533405	-0.307615
H513	H	0.008338	-0.511997	-0.279638
H514	H	0.036084	-0.522679	-0.254293
H515	H	0.022823	-0.457932	-0.297012
H516	H	0.050577	-0.468614	-0.271676
H517	H	-0.248648	0.113027	-0.138110
H518	H	0.002721	0.094852	-0.498852
H519	H	-0.748926	-0.262597	0.016776
H520	H	0.002707	0.094870	-0.374340
O521	O	-0.120409	0.113223	-0.134684
C522	C	-0.107647	0.075360	-0.118155
H523	H	-0.132869	0.062597	-0.114591
H524	H	-0.063335	0.046074	-0.143658
C525	C	-0.088516	0.106481	-0.074838
C526	C	-0.119498	0.090807	-0.070457
H527	H	-0.095823	0.116008	-0.045417
H528	H	-0.097112	0.131989	-0.085975
H529	H	-0.051592	0.082072	-0.096093
H530	H	-0.156421	0.115217	-0.049207
H531	H	-0.110908	0.065304	-0.059315
O532	O	-0.120957	-0.390488	-0.134458
C533	C	-0.108306	-0.365298	-0.117897
H534	H	-0.102542	-0.342122	-0.139451
H535	H	-0.142370	-0.342905	-0.080002
C536	C	-0.063338	-0.427801	-0.095409
C537	C	-0.056254	-0.399339	-0.121885
H538	H	-0.031232	-0.448799	-0.097866
H539	H	-0.071863	-0.444772	-0.106565
H540	H	-0.091727	-0.409136	-0.063832
H541	H	-0.027870	-0.418004	-0.153462
H542	H	-0.047723	-0.382372	-0.110735
O543	O	-0.271607	-0.735403	0.016536
C544	C	-0.257888	-0.704596	0.018853
H545	H	-0.276741	-0.675064	0.006780
H546	H	-0.273377	-0.689801	0.056173
C547	C	-0.173355	-0.767091	0.002107
C548	C	-0.196507	-0.730822	-0.012725
H549	H	-0.135493	-0.783268	-0.017370
H550	H	-0.182599	-0.787846	0.000547
H551	H	-0.186269	-0.754757	0.033207
H552	H	-0.183599	-0.743157	-0.043823
H553	H	-0.187261	-0.710069	-0.011172
O554	O	0.138443	0.106378	-0.436459
C555	C	0.166799	0.108687	-0.420258
H556	H	0.208431	0.096620	-0.451103
H557	H	0.144237	0.146004	-0.398396
C558	C	0.120881	0.091923	-0.352543
C559	C	0.172015	0.077097	-0.390428
H560	H	0.124096	0.072439	-0.334141
H561	H	0.101775	0.090369	-0.363457
H562	H	0.102084	0.123020	-0.334330
H563	H	0.190808	0.046003	-0.408644
H564	H	0.191124	0.078645	-0.379517
H565	H	0.220414	0.113060	-0.482749
O566	O	0.224034	0.113460	-0.614651
C567	C	0.219807	0.155379	-0.614543
H568	H	0.186220	0.182186	-0.578262
H569	H	0.259265	0.149029	-0.624990
C570	C	0.248509	0.140607	-0.693885
C571	C	0.207254	0.173535	-0.649324
H572	H	0.240769	0.151806	-0.715341
H573	H	0.251359	0.112365	-0.693959
H574	H	0.281387	0.135319	-0.702585
H575	H	0.174379	0.178818	-0.640623
H576	H	0.204398	0.201778	-0.649250
H577	H	0.142032	0.106705	-0.568391
H578	H	-0.078302	0.106692	-0.568739
H579	H	-0.123867	0.113078	-0.608200
H580	H	-0.203090	0.106659	-0.223153
O581	O	-0.406916	-0.735797	0.016596
C582	C	-0.419587	-0.752340	0.054455
H583	H	-0.394414	-0.755774	0.067229
H584	H	-0.463916	-0.726913	0.083736
C585	C	-0.438469	-0.795902	0.023308
C586	C	-0.407547	-0.800123	0.038996
H587	H	-0.431045	-0.825376	0.013774
H588	H	-0.429934	-0.784756	-0.002197
H589	H	-0.475407	-0.774711	0.047713
H590	H	-0.370610	-0.821310	0.014590
H591	H	-0.416076	-0.811274	0.064497
O592	O	-0.751988	-0.391210	0.016514
C593	C	-0.723512	-0.435737	0.018839
H594	H	-0.681920	-0.446411	0.006765
H595	H	-0.746032	-0.435033	0.056163
C596	C	-0.769255	-0.457797	0.002102
C597	C	-0.718168	-0.470909	-0.012731
H598	H	-0.765960	-0.479492	-0.017370
H599	H	-0.788441	-0.427797	0.000537
H600	H	-0.788016	-0.457210	0.033205
H601	H	-0.699411	-0.471489	-0.043831
H602	H	-0.698979	-0.500909	-0.011172
O603	O	-0.406939	-0.255458	0.016576
C604	C	-0.419586	-0.226247	0.054421
H605	H	-0.425346	-0.242039	0.083360
H606	H	-0.385522	-0.222424	0.042740
C607	C	-0.464562	-0.158774	0.036907
C608	C	-0.471641	-0.178168	0.072451
H609	H	-0.496670	-0.129116	0.048028
H610	H	-0.456039	-0.178454	0.011409
H611	H	-0.436173	-0.155592	0.027176
H612	H	-0.500024	-0.181355	0.082178
H613	H	-0.480169	-0.158487	0.097952
O614	O	0.006781	-0.499774	-0.370881
C615	C	0.052270	-0.545056	-0.401005
H616	H	0.048638	-0.556388	-0.428594
H617	H	0.089808	-0.545454	-0.418478
C618	C	0.060620	-0.564758	-0.339152
C619	C	0.056157	-0.578677	-0.373036
H620	H	0.063020	-0.585497	-0.321899
H621	H	0.029975	-0.534250	-0.318857
H622	H	0.091901	-0.565089	-0.353718
H623	H	0.024874	-0.578340	-0.358469
H624	H	0.086798	-0.609186	-0.393327
O625	O	-0.206546	0.106349	-0.437083
C626	C	-0.208375	0.067318	-0.436177
H627	H	-0.208423	0.056575	-0.466620
H628	H	-0.171810	0.037408	-0.438961
C629	C	-0.259641	0.092790	-0.352911
C630	C	-0.259705	0.079599	-0.390300
H631	H	-0.291302	0.100365	-0.324612
H632	H	-0.258407	0.119086	-0.353522
H633	H	-0.229167	0.067863	-0.355237
H634	H	-0.290174	0.104528	-0.387977
H635	H	-0.260945	0.053308	-0.389689
O636	O	0.006829	-0.499695	-0.506159
C637	C	0.059874	-0.512555	-0.534350
H638	H	0.064257	-0.489364	-0.516787
H639	H	0.088695	-0.550308	-0.539596
C640	C	0.067581	-0.535418	-0.603355
C641	C	0.072963	-0.506931	-0.581786
H642	H	0.075657	-0.531951	-0.632616
H643	H	0.031844	-0.526755	-0.584362
H644	H	0.091599	-0.566876	-0.607722
H645	H	0.048940	-0.475473	-0.577414
H646	H	0.108696	-0.515588	-0.600779
H647	H	-0.324812	-0.426621	0.023185
O648	O	-0.128512	-0.364382	-0.370904
C649	C	-0.143690	-0.349005	-0.401015
H650	H	-0.107620	-0.370838	-0.438521
H651	H	-0.176888	-0.352728	-0.393345
C652	C	-0.208453	-0.270870	-0.347542
C653	C	-0.164149	-0.297683	-0.393606
H654	H	-0.221075	-0.239212	-0.342970
H655	H	-0.198229	-0.281230	-0.327254
H656	H	-0.236112	-0.273978	-0.341155
H657	H	-0.136489	-0.294580	-0.399990
H658	H	-0.174369	-0.287322	-0.413895
H659	H	-0.324821	-0.646755	0.023202
O660	O	-0.256249	-0.255138	-0.479085
C661	C	-0.245726	-0.224907	-0.467551
H662	H	-0.209224	-0.245575	-0.466526
H663	H	-0.237517	-0.207166	-0.494753
C664	C	-0.339462	-0.162545	-0.420854
C665	C	-0.294632	-0.187929	-0.419590
H666	H	-0.369630	-0.139734	-0.391270
H667	H	-0.346552	-0.182911	-0.428625
H668	H	-0.332614	-0.147765	-0.443524
H669	H	-0.301477	-0.202713	-0.396925
H670	H	-0.287544	-0.167564	-0.411814
H671	H	-0.449327	-0.301790	0.023152
H672	H	-0.203079	-0.301728	-0.223475
H673	H	-0.203088	-0.301731	-0.443610
O674	O	-0.071200	-0.433419	-0.572208
C675	C	-0.057467	-0.449453	-0.616745
H676	H	-0.094754	-0.429243	-0.616705
H677	H	-0.026244	-0.444112	-0.643199
C678	C	0.011518	-0.526301	-0.629766
C679	C	-0.034278	-0.501483	-0.629715
H680	H	0.025825	-0.558396	-0.637767
H681	H	0.002268	-0.515499	-0.599761
H682	H	0.037532	-0.521846	-0.651810
H683	H	-0.060293	-0.505934	-0.607666
H684	H	-0.025032	-0.512287	-0.659716
