data_functionalizedCrystal
_audit_creation_method	'MofGen! by Chris Wilmer'
_symmetry_space_group_name_H-M	'P1'
_symmetry_Int_Tables_number	1
_symmetry_cell_setting	triclinic
loop_
_symmetry_equiv_pos_as_xyz
  x,y,z
_cell_length_a	14.971482
_cell_length_b	14.971507
_cell_length_c	13.448316
_cell_angle_alpha	90.013926
_cell_angle_beta	90.001764
_cell_angle_gamma	96.382365
loop_
_atom_site_label
_atom_site_type_symbol
_atom_site_fract_x
_atom_site_fract_y
_atom_site_fract_z
O1	O	1.186947	-0.116556	-0.082684
O2	O	0.926547	-0.130518	-0.082689
O3	O	1.063717	0.006662	-0.082674
O4	O	1.049778	-0.253736	-0.082699
O5	O	1.063722	0.006686	0.082709
O6	O	0.926553	-0.130494	0.082695
O7	O	1.186952	-0.116531	0.082700
Cu8	Cu	1.056753	-0.123510	0.097798
Cu9	Cu	1.056747	-0.123539	-0.097787
O10	O	1.049783	-0.253711	0.082685
C11	C	0.893225	-0.129882	0.000002
C12	C	0.793928	-0.128013	0.000000
C13	C	0.747286	-0.127119	0.090152
C14	C	0.653987	-0.125348	0.090154
C15	C	0.607331	-0.124477	0.000002
C16	C	0.653980	-0.125369	-0.090157
C17	C	0.747278	-0.127133	-0.090157
C18	C	0.459518	-0.121693	-0.090150
C19	C	0.366214	-0.119930	-0.090150
C20	C	0.366227	-0.119908	0.090160
C21	C	0.459525	-0.121673	0.090160
C22	C	0.506167	-0.122565	0.000001
C23	C	1.063093	0.039999	0.000018
C24	C	1.061215	0.139295	0.000021
C25	C	1.220274	-0.117167	0.000006
C26	C	1.319572	-0.119037	0.000001
C27	C	1.134632	0.577578	0.000055
C28	C	1.136389	0.484278	0.000055
C29	C	1.055797	0.427057	0.000045
C30	C	0.973442	0.463140	0.000047
C31	C	0.971685	0.556439	0.000054
C32	C	0.977109	0.268677	0.000029
C33	C	0.978865	0.175372	0.000020
C34	C	1.141813	0.196516	0.000029
C35	C	1.140057	0.289815	0.000037
C36	C	1.057701	0.325892	0.000036
C37	C	1.050406	0.712952	0.000008
C38	C	1.052283	0.613656	0.000053
N39	N	1.056743	-0.123553	-0.235352
C40	C	1.002553	-0.069096	-0.287380
C41	C	1.002560	-0.069079	-0.391483
C42	C	1.056754	-0.123524	-0.443556
C43	C	1.110950	-0.177983	-0.391521
C44	C	1.110947	-0.177995	-0.287420
C45	C	1.110952	-0.177957	-0.608501
C46	C	1.110954	-0.177947	-0.712609
C47	C	1.002565	-0.069040	-0.712565
C48	C	1.002562	-0.069052	-0.608463
C49	C	1.056757	-0.123513	-0.556435
N50	N	1.056764	-0.123489	0.235362
H51	H	0.497509	-0.122387	0.163570
H52	H	0.913240	0.128785	0.000018
N53	N	0.797592	-0.128103	-0.187390
H54	H	0.843490	-0.073429	-0.191400
H55	H	0.753822	-0.127319	-0.244446
H56	H	0.904628	0.585811	0.000061
H57	H	0.615986	-0.124653	-0.163560
H58	H	0.958436	-0.024732	-0.433840
N59	N	0.944123	-0.010320	-0.552295
H60	H	0.909797	0.024189	-0.601049
H61	H	0.983163	0.033266	-0.509092
H62	H	1.200260	0.624162	0.000054
N63	N	0.944104	-0.010305	-0.768673
H64	H	0.952329	-0.018555	-0.842522
H65	H	0.961815	0.054699	-0.750448
N66	N	1.225208	0.445364	0.000062
H67	H	1.275996	0.495771	0.000064
H68	H	1.229487	0.407102	-0.061248
N69	N	1.226978	0.351535	0.000042
H70	H	1.279417	0.314525	0.000045
H71	H	1.229792	0.390713	0.061356
N72	N	1.169398	-0.236706	-0.447690
H73	H	1.151707	-0.301738	-0.429599
H74	H	1.234454	-0.219215	-0.429546
N75	N	1.169397	-0.236699	-0.552377
H76	H	1.213196	-0.197910	-0.509167
H77	H	1.203667	-0.271185	-0.601219
N78	N	1.230640	0.157609	0.000046
H79	H	1.281428	0.208015	0.000048
H80	H	1.234920	0.119345	-0.061263
N81	N	0.315880	-0.118988	-0.187376
H82	H	0.324920	-0.174700	-0.226805
H83	H	0.339321	-0.063855	-0.226703
N84	N	0.888285	0.307592	0.000035
H85	H	0.837495	0.257187	0.000025
H86	H	0.884009	0.345833	-0.061272
N87	N	0.886524	0.401414	0.000039
H88	H	0.850595	0.413017	-0.061268
H89	H	0.850670	0.413062	0.061389
H90	H	0.958417	-0.024765	-0.244989
H91	H	0.328247	-0.119182	0.163571
N92	N	1.169402	-0.236662	-0.768788
H93	H	1.151718	-0.301697	-0.750702
H94	H	1.234459	-0.219167	-0.750651
N95	N	0.797603	-0.128067	0.187388
H96	H	0.753895	-0.127231	0.244499
H97	H	0.843507	-0.073394	0.191324
N98	N	0.603677	-0.124381	0.187387
H99	H	0.647467	-0.124570	0.244497
H100	H	0.558206	-0.179376	0.191610
N101	N	1.169405	-0.236720	-0.231298
H102	H	1.203739	-0.271208	-0.280081
H103	H	1.130389	-0.280325	-0.188119
H104	H	0.497491	-0.122420	-0.163567
