data_functionalizedCrystal
_audit_creation_method	'MofGen! by Chris Wilmer'
_symmetry_space_group_name_H-M	'P1'
_symmetry_Int_Tables_number	1
_symmetry_cell_setting	triclinic
loop_
_symmetry_equiv_pos_as_xyz
  x,y,z
_cell_length_a	17.699077
_cell_length_b	14.044190
_cell_length_c	16.176319
_cell_angle_alpha	89.988653
_cell_angle_beta	89.993140
_cell_angle_gamma	88.236177
loop_
_atom_site_label
_atom_site_type_symbol
_atom_site_fract_x
_atom_site_fract_y
_atom_site_fract_z
O1	O	1.012350	0.119823	-0.068745
O2	O	1.262350	0.369823	0.181255
O3	O	1.512350	0.619823	0.431255
O4	O	1.762350	0.869823	0.681255
O5	O	0.793047	0.135422	-0.068750
O6	O	1.043047	0.385422	0.181250
O7	O	1.293047	0.635422	0.431250
O8	O	1.543047	0.885422	0.681250
O9	O	0.899404	-0.010354	-0.068731
O10	O	1.149404	0.239646	0.181269
O11	O	1.399404	0.489646	0.431269
O12	O	1.649404	0.739646	0.681269
O13	O	0.905993	0.265600	-0.068764
O14	O	1.155993	0.515600	0.181236
O15	O	1.405993	0.765600	0.431236
O16	O	1.655993	1.015600	0.681236
O17	O	0.899387	-0.010364	0.068762
O18	O	1.149387	0.239636	0.318762
O19	O	1.399387	0.489636	0.568762
O20	O	1.649387	0.739636	0.818762
O21	O	0.793030	0.135413	0.068743
O22	O	1.043030	0.385413	0.318743
O23	O	1.293030	0.635413	0.568743
O24	O	1.543030	0.885413	0.818743
O25	O	1.012333	0.119814	0.068748
O26	O	1.262333	0.369814	0.318748
O27	O	1.512333	0.619814	0.568748
O28	O	1.762333	0.869814	0.818748
Cu29	Cu	0.902680	0.127613	0.081300
Cu30	Cu	1.152680	0.377613	0.331300
Cu31	Cu	1.402680	0.627613	0.581300
Cu32	Cu	1.652680	0.877613	0.831300
Cu33	Cu	0.902700	0.127624	-0.081302
Cu34	Cu	1.152700	0.377624	0.168698
Cu35	Cu	1.402700	0.627624	0.418698
Cu36	Cu	1.652700	0.877624	0.668698
O37	O	0.905976	0.265591	0.068730
O38	O	1.155976	0.515591	0.318730
O39	O	1.405976	0.765591	0.568730
O40	O	1.655976	1.015591	0.818730
C41	C	0.764803	0.134859	-0.000004
C42	C	1.014803	0.384859	0.249996
C43	C	1.264803	0.634859	0.499996
C44	C	1.514803	0.884859	0.749996
C45	C	0.680669	0.133185	-0.000005
C46	C	0.930669	0.383185	0.249995
C47	C	1.180669	0.633185	0.499995
C48	C	1.430669	0.883185	0.749995
C49	C	0.641138	0.132392	0.074943
C50	C	0.891138	0.382392	0.324943
C51	C	1.141138	0.632392	0.574943
C52	C	1.391138	0.882392	0.824943
C53	C	0.562086	0.130804	0.074944
C54	C	0.812086	0.380804	0.324944
C55	C	1.062086	0.630804	0.574944
C56	C	1.312086	0.880804	0.824944
C57	C	0.522566	0.130016	-0.000004
C58	C	0.772566	0.380016	0.249996
C59	C	1.022566	0.630016	0.499996
C60	C	1.272566	0.880016	0.749996
C61	C	0.562103	0.130807	-0.074958
C62	C	0.812103	0.380807	0.175042
C63	C	1.062103	0.630807	0.425042
C64	C	1.312103	0.880807	0.675042
C65	C	0.641154	0.132389	-0.074958
C66	C	0.891154	0.382389	0.175042
C67	C	1.141154	0.632389	0.425042
C68	C	1.391154	0.882389	0.675042
C69	C	0.243299	0.124430	-0.074959
C70	C	0.493299	0.374430	0.175041
C71	C	0.743299	0.624430	0.425041
C72	C	0.993299	0.874430	0.675041
C73	C	0.164243	0.122851	-0.074953
C74	C	0.414243	0.372851	0.175047
C75	C	0.664243	0.622851	0.425047
C76	C	0.914243	0.872851	0.675047
C77	C	0.164232	0.122845	0.074944
C78	C	0.414232	0.372845	0.324944
C79	C	0.664232	0.622845	0.574944
C80	C	0.914232	0.872845	0.824944
C81	C	0.243283	0.124426	0.074944
C82	C	0.493283	0.374426	0.324944
C83	C	0.743283	0.624426	0.574944
C84	C	0.993283	0.874426	0.824944
C85	C	0.282813	0.125212	-0.000010
C86	C	0.532813	0.375212	0.249990
C87	C	0.782813	0.625212	0.499990
C88	C	1.032813	0.875212	0.749990
C89	C	0.368530	0.126932	-0.000010
C90	C	0.618530	0.376932	0.249990
C91	C	0.868530	0.626932	0.499990
C92	C	1.118530	0.876932	0.749990
C93	C	0.436850	0.128303	-0.000005
C94	C	0.686850	0.378303	0.249995
C95	C	0.936850	0.628303	0.499995
C96	C	1.186850	0.878303	0.749995
C97	C	0.896513	-0.045667	0.000018
C98	C	1.146513	0.204333	0.250018
C99	C	1.396513	0.454333	0.500018
C100	C	1.646513	0.704333	0.750018
C101	C	0.887915	-0.150873	0.000025
C102	C	1.137915	0.099127	0.250025
C103	C	1.387915	0.349127	0.500025
C104	C	1.637915	0.599127	0.750025
C105	C	0.933175	-0.401265	-0.000007
C106	C	1.183175	-0.151265	0.249993
C107	C	1.433175	0.098735	0.499993
C108	C	1.683175	0.348735	0.749993
C109	C	0.872208	-0.343494	-0.000002
C110	C	1.122208	-0.093494	0.249998
C111	C	1.372208	0.156506	0.499998
C112	C	1.622208	0.406506	0.749998
C113	C	0.880950	-0.236310	0.000013
C114	C	1.130950	0.013690	0.250013
C115	C	1.380950	0.263690	0.500013
C116	C	1.630950	0.513690	0.750013
C117	C	0.924435	-0.508459	-0.000022
C118	C	1.174435	-0.258459	0.249978
C119	C	1.424435	-0.008459	0.499978
C120	C	1.674435	0.241541	0.749978
C121	C	1.040577	0.120377	0.000000
C122	C	1.290577	0.370377	0.250000
C123	C	1.540577	0.620377	0.500000
C124	C	1.790577	0.870377	0.750000
C125	C	1.124711	0.122051	-0.000004
C126	C	1.374711	0.372051	0.249996
C127	C	1.624711	0.622051	0.499996
C128	C	1.874711	0.872051	0.749996
C129	C	0.908867	0.300903	-0.000021
C130	C	1.158867	0.550903	0.249979
C131	C	1.408867	0.800903	0.499979
C132	C	1.658867	1.050903	0.749979
C133	C	0.917465	0.406109	-0.000034
C134	C	1.167465	0.656109	0.249966
C135	C	1.417465	0.906109	0.499966
C136	C	1.667465	1.156109	0.749966
N137	N	0.902672	0.127604	0.195665
N138	N	1.152672	0.377604	0.445665
N139	N	1.402672	0.627604	0.695665
N140	N	1.652672	0.877604	0.945665
N141	N	0.902714	0.127624	-0.195667
N142	N	1.152714	0.377624	0.054333
N143	N	1.402714	0.627624	0.304333
N144	N	1.652714	0.877624	0.554333
C145	C	0.949784	0.063081	0.238938
C146	C	1.199784	0.313081	0.488938
C147	C	1.449784	0.563081	0.738938
C148	C	1.699784	0.813081	0.988938
C149	C	0.949788	0.063080	0.325485
C150	C	1.199788	0.313080	0.575485
C151	C	1.449788	0.563080	0.825485
C152	C	1.699788	0.813080	1.075485
C153	C	0.902683	0.127608	0.368758
C154	C	1.152683	0.377608	0.618758
C155	C	1.402683	0.627608	0.868758
C156	C	1.652683	0.877608	1.118758
C157	C	0.855565	0.192134	0.325479
C158	C	1.105565	0.442134	0.575479
C159	C	1.355565	0.692134	0.825479
C160	C	1.605565	0.942134	1.075479
C161	C	0.855558	0.192130	0.238934
C162	C	1.105558	0.442130	0.488934
C163	C	1.355558	0.692130	0.738934
C164	C	1.605558	0.942130	0.988934
C165	C	0.855593	0.192152	0.674507
C166	C	1.105593	0.442152	0.924507
C167	C	1.355593	0.692152	1.174507
C168	C	1.605593	0.942152	1.424507
C169	C	0.855605	0.192153	0.761059
C170	C	1.105605	0.442153	1.011059
C171	C	1.355605	0.692153	1.261059
C172	C	1.605605	0.942153	1.511059
C173	C	0.949822	0.063102	0.761059
C174	C	1.199822	0.313102	1.011059
C175	C	1.449822	0.563102	1.261059
C176	C	1.699822	0.813102	1.511059
C177	C	0.949815	0.063098	0.674513
C178	C	1.199815	0.313098	0.924513
C179	C	1.449815	0.563098	1.174513
C180	C	1.699815	0.813098	1.424513
C181	C	0.902695	0.127620	0.631242
C182	C	1.152695	0.377620	0.881242
C183	C	1.402695	0.627620	1.131242
C184	C	1.652695	0.877620	1.381242
C185	C	0.902690	0.127619	0.537398
C186	C	1.152690	0.377619	0.787398
C187	C	1.402690	0.627619	1.037398
C188	C	1.652690	0.877619	1.287398
C189	C	0.902691	0.127614	0.462600
C190	C	1.152691	0.377614	0.712600
C191	C	1.402691	0.627614	0.962600
C192	C	1.652691	0.877614	1.212600
H193	H	0.132038	0.122200	0.135975
H194	H	0.382038	0.372200	0.385975
H195	H	0.632038	0.622200	0.635975
H196	H	0.882038	0.872200	0.885975
F197	F	0.520042	0.129940	-0.154724
F198	F	0.770042	0.379940	0.095276
F199	F	1.020042	0.629940	0.345276
F200	F	1.270042	0.879940	0.595276
H201	H	0.813447	-0.374532	-0.000008
H202	H	1.063447	-0.124532	0.249992
H203	H	1.313447	0.125468	0.499992
H204	H	1.563447	0.375468	0.749992
F205	F	0.683191	0.133236	0.154715
F206	F	0.933191	0.383236	0.404715
F207	F	1.183191	0.633236	0.654715
F208	F	1.433191	0.883236	0.904715
F209	F	1.009975	-0.360698	0.000005
F210	F	1.259975	-0.110698	0.250005
F211	F	1.509975	0.139302	0.500005
F212	F	1.759975	0.389302	0.750005
H213	H	0.275475	0.125067	-0.135991
H214	H	0.525475	0.375067	0.114009
H215	H	0.775475	0.625067	0.364009
H216	H	1.025475	0.875067	0.614009
F217	F	0.999925	-0.005596	0.192891
F218	F	1.249925	0.244404	0.442891
F219	F	1.499925	0.494404	0.692891
F220	F	1.749925	0.744404	0.942891
F221	F	0.999929	-0.005594	0.371539
F222	F	1.249929	0.244406	0.621539
F223	F	1.499929	0.494406	0.871539
F224	F	1.749929	0.744406	1.121539
F225	F	0.999953	-0.005578	0.628462
F226	F	1.249953	0.244422	0.878462
F227	F	1.499953	0.494422	1.128462
F228	F	1.749953	0.744422	1.378462
H229	H	0.673339	0.133037	-0.135989
H230	H	0.923339	0.383037	0.114011
H231	H	1.173339	0.633037	0.364011
H232	H	1.423339	0.883037	0.614011
F233	F	0.805413	0.260802	0.192881
F234	F	1.055413	0.510802	0.442881
F235	F	1.305413	0.760802	0.692881
F236	F	1.555413	1.010802	0.942881
H237	H	0.275456	0.125072	0.135974
H238	H	0.525456	0.375072	0.385974
H239	H	0.775456	0.625072	0.635974
H240	H	1.025456	0.875072	0.885974
H241	H	0.988187	0.010561	0.796299
H242	H	1.238187	0.260561	1.046299
H243	H	1.488187	0.510561	1.296299
H244	H	1.738187	0.760561	1.546299
F245	F	0.805466	0.260835	0.807112
F246	F	1.055466	0.510835	1.057112
F247	F	1.305466	0.760835	1.307112
F248	F	1.555466	1.010835	1.557112
H249	H	0.817227	0.244690	0.639283
H250	H	1.067227	0.494690	0.889283
H251	H	1.317227	0.744690	1.139283
H252	H	1.567227	0.994690	1.389283
F253	F	0.805428	0.260806	0.371534
F254	F	1.055428	0.510806	0.621534
F255	F	1.305428	0.760806	0.871534
F256	F	1.555428	1.010806	1.121534
H257	H	0.529904	0.130141	0.135975
H258	H	0.779904	0.380141	0.385975
H259	H	1.029904	0.630141	0.635975
H260	H	1.279904	0.880141	0.885975
H261	H	0.132068	0.122209	-0.135989
H262	H	0.382068	0.372209	0.114011
H263	H	0.632068	0.622209	0.364011
H264	H	0.882068	0.872209	0.614011
