data_functionalizedCrystal
_audit_creation_method	'MofGen! by Chris Wilmer'
_symmetry_space_group_name_H-M	'P1'
_symmetry_Int_Tables_number	1
_symmetry_cell_setting	triclinic
loop_
_symmetry_equiv_pos_as_xyz
  x,y,z
_cell_length_a	10.967926
_cell_length_b	17.019294
_cell_length_c	10.065875
_cell_angle_alpha	94.957055
_cell_angle_beta	93.120479
_cell_angle_gamma	84.884424
loop_
_atom_site_label
_atom_site_type_symbol
_atom_site_fract_x
_atom_site_fract_y
_atom_site_fract_z
O1	O	1.615134	0.135993	0.250397
O2	O	1.265126	0.138220	0.167813
O3	O	1.447829	0.023860	0.224231
O4	O	1.432431	0.250352	0.193978
O5	O	1.412992	0.045759	0.440451
O6	O	1.230289	0.160118	0.384033
O7	O	1.580296	0.157891	0.466617
Zn8	Zn	1.399761	0.162481	0.459654
Zn9	Zn	1.445661	0.133629	0.174775
O10	O	1.397594	0.272250	0.410198
C11	C	1.202884	0.147352	0.265594
C12	C	1.069325	0.141930	0.234818
C13	C	0.991732	0.150856	0.333105
C14	C	0.853691	0.145252	0.301299
C15	C	1.429139	0.005732	0.335458
C16	C	1.425338	-0.080910	0.344743
C17	C	1.442545	-0.133547	0.231245
C18	C	1.438965	-0.214956	0.239971
C19	C	1.418187	-0.243727	0.362199
C20	C	1.400976	-0.191083	0.475705
C21	C	1.404547	-0.109676	0.466975
C22	C	1.406446	-0.488929	0.394451
C23	C	1.402879	-0.570343	0.403173
C24	C	1.440867	-0.594210	0.167438
C25	C	1.444444	-0.512800	0.158721
C26	C	1.427226	-0.460163	0.272225
C27	C	1.414531	-0.326940	0.371122
C28	C	1.430873	-0.376952	0.263298
C29	C	1.642539	0.148758	0.368833
C30	C	1.776100	0.154180	0.399600
C31	C	1.416284	0.290378	0.298968
C32	C	1.420086	0.377020	0.289675
N33	N	1.368445	0.182172	0.654079
N34	N	1.476987	0.113933	-0.019647
C35	C	1.434758	0.140475	0.742357
C36	C	1.410665	0.155636	0.892075
H37	H	1.033558	0.130136	0.127124
H38	H	1.551597	0.067005	0.945099
H39	H	1.293831	0.229091	0.689339
O40	O	1.311852	0.217809	0.938771
H41	H	1.266945	0.246050	0.851332
H42	H	1.027500	0.162643	0.440800
O43	O	1.533569	0.078312	0.695639
H44	H	1.623416	0.093445	0.742300
O45	O	0.823465	0.169814	0.542260
H46	H	0.780482	0.227376	0.584735
O47	O	1.464944	-0.102520	0.099407
H48	H	1.555177	-0.128440	0.064331
O49	O	0.806340	0.129635	0.158630
H50	H	0.705347	0.127691	0.156034
O51	O	1.457477	-0.271715	0.117528
H52	H	1.549083	-0.266393	0.079090
O53	O	1.466830	-0.481767	0.026884
H54	H	1.478177	-0.532045	-0.050579
O55	O	1.459417	-0.650979	0.045014
H56	H	1.453432	-0.712421	0.071609
O57	O	1.380455	-0.601378	0.535007
H58	H	1.369068	-0.551100	0.612465
H59	H	1.392450	-0.446082	0.486880
H60	H	1.384050	-0.214514	0.575223
H61	H	1.390518	-0.066817	0.559393
O62	O	1.453278	-0.345927	0.131465
H63	H	1.537635	-0.313978	0.141636
O64	O	1.392156	-0.357982	0.502955
H65	H	1.307811	-0.389944	0.492795
