data_functionalizedCrystal
_audit_creation_method	'MofGen! by Chris Wilmer'
_symmetry_space_group_name_H-M	'P1'
_symmetry_Int_Tables_number	1
_symmetry_cell_setting	triclinic
loop_
_symmetry_equiv_pos_as_xyz
  x,y,z
_cell_length_a	19.377372
_cell_length_b	19.377369
_cell_length_c	14.560432
_cell_angle_alpha	72.124937
_cell_angle_beta	89.998851
_cell_angle_gamma	62.069167
loop_
_atom_site_label
_atom_site_type_symbol
_atom_site_fract_x
_atom_site_fract_y
_atom_site_fract_z
Zr1	Zr	0.435800	0.939095	-0.001469
O2	O	0.323013	1.046526	-0.096195
O3	O	0.485417	0.808585	0.000993
O4	O	0.463727	0.949301	-0.152285
O5	O	0.344703	0.905808	0.208223
O6	O	0.557614	0.983605	-0.166298
O7	O	0.344704	0.905810	0.057083
O8	O	0.596414	0.731891	0.107888
O9	O	0.305903	1.157522	-0.065963
O10	O	0.558472	0.896415	0.023695
O11	O	0.488405	0.870812	0.146947
O12	O	0.462867	1.036487	-0.033518
O13	O	0.392800	1.010884	0.089734
Zr14	Zr	0.585538	0.993803	0.217234
Zr15	Zr	0.585539	0.993806	-0.023817
Zr16	Zr	0.435799	0.939092	0.239583
Zr17	Zr	0.408511	1.116122	0.046748
Zr18	Zr	0.612827	0.816776	0.169017
O19	O	0.535921	1.124313	0.214773
O20	O	0.535922	1.124318	-0.127972
O21	O	0.323012	1.046521	0.246549
O22	O	0.698325	0.886372	0.311961
O23	O	0.698326	0.886377	-0.030784
O24	O	0.485416	0.808580	0.343737
O25	O	0.676635	1.027090	0.007542
O26	O	0.557611	0.983597	0.368051
O27	O	0.463725	0.949293	0.382063
O28	O	0.676635	1.027088	0.158683
O29	O	0.424925	1.201010	-0.083727
O30	O	0.596413	0.731888	0.299492
O31	O	0.715435	0.775376	0.281728
O32	O	0.715436	0.775379	0.090124
O33	O	0.305902	1.157520	0.125641
O34	O	0.424924	1.201007	0.107877
O35	O	0.558471	0.896411	0.249284
O36	O	0.628538	0.922014	0.126032
O37	O	0.532933	1.062086	0.068819
O38	O	0.462866	1.036483	0.192071
C39	C	0.544804	0.745015	0.047571
C40	C	0.556388	0.669863	0.027101
C41	C	0.411915	0.355674	0.281736
C42	C	0.422897	0.285001	0.262568
C43	C	0.496042	0.311737	0.133902
C44	C	0.485069	0.382412	0.153063
C45	C	0.443005	0.404375	0.226980
C46	C	0.516159	0.431113	0.098307
C47	C	0.505184	0.501783	0.117463
C48	C	0.463120	0.523754	0.191375
C49	C	0.432030	0.475046	0.246136
C50	C	0.558219	0.409152	0.024385
C51	C	0.589308	0.457852	-0.030370
C52	C	0.578338	0.528521	-0.011210
C53	C	0.536274	0.550491	0.062701
C54	C	0.609428	0.577229	-0.065972
C55	C	0.598453	0.647900	-0.046816
C56	C	0.525299	0.621162	0.081857
C57	C	0.323369	0.898014	0.135837
C58	C	0.259801	0.874788	0.145325
C59	C	-0.198784	1.163972	0.027201
C60	C	-0.258503	1.142128	0.036125
C61	C	-0.158689	0.995903	0.095851
C62	C	-0.098961	1.017735	0.086937
C63	C	-0.119015	1.101770	0.052610
C64	C	-0.019192	0.955534	0.112346
C65	C	0.040531	0.977364	0.103427
C66	C	0.020485	1.061395	0.069099
C67	C	-0.059292	1.123601	0.043691
C68	C	0.000861	0.871499	0.146665
C69	C	0.080630	0.809297	0.172074
C70	C	0.140355	0.831127	0.163162
C71	C	0.120309	0.915159	0.128835
C72	C	0.220132	0.768922	0.188570
C73	C	0.279855	0.790752	0.179651
C74	C	0.180032	0.936989	0.119916
C75	C	0.697969	1.034884	0.079928
C76	C	0.761537	1.058110	0.070441
C77	C	0.510670	0.966453	-0.193636
C78	C	0.510671	0.966455	-0.295969
C79	C	0.476535	1.187883	0.168195
C80	C	0.464950	1.263035	0.188664
C81	C	0.614114	1.004263	-0.311429
C82	C	0.665832	1.023169	-0.367235
C83	C	0.665830	1.023168	-0.463385
C84	C	0.614106	1.004257	-0.503728
C85	C	0.562388	0.985350	-0.447922
C86	C	0.562394	0.985356	-0.351773
C87	C	0.458949	0.947537	-0.432460
C88	C	0.458946	0.947543	-0.336312
C89	C	0.407225	0.928625	-0.472803
C90	C	0.355502	0.909724	-0.417000
C91	C	0.355505	0.909727	-0.320845
C92	C	0.407228	0.928637	-0.280506
C93	C	0.510668	0.966445	0.409402
C94	C	0.510668	0.966443	0.511734
C95	C	0.732104	0.813451	0.019616
C96	C	0.807257	0.761524	-0.010341
C97	C	0.544802	0.745011	0.349090
C98	C	0.556387	0.669857	0.430953
C99	C	0.732103	0.813446	0.321135
C100	C	0.807255	0.761518	0.393511
C101	C	0.289235	1.119452	-0.105369
C102	C	0.214083	1.171380	-0.177745
C103	C	0.289234	1.119448	0.196149
C104	C	0.214081	1.171374	0.226106
C105	C	0.476536	1.187887	-0.133324
C106	C	0.464951	1.263041	-0.215187
C107	C	0.805975	0.723777	-0.077838
C108	C	0.876582	0.674994	-0.106004
C109	C	0.948470	0.663955	-0.066668
C110	C	0.949749	0.701709	0.000833
C111	C	0.879143	0.750496	0.028994
C112	C	0.598401	0.647926	0.522826
C113	C	0.609282	0.577320	0.599758
C114	C	0.578153	0.528642	0.584812
C115	C	0.536133	0.550578	0.492931
C116	C	0.525248	0.621187	0.416003
C117	C	0.879128	0.750499	0.363162
C118	C	0.949746	0.701719	0.431160
C119	C	0.948490	0.663955	0.529504
C120	C	0.876609	0.674979	0.559853
C121	C	0.805992	0.723763	0.491858
C122	C	0.142209	1.182408	-0.147394
C123	C	0.071587	1.231209	-0.215386
C124	C	0.072843	1.268977	-0.313729
C125	C	0.144724	1.257949	-0.344080
C126	C	0.215343	1.209153	-0.276087
C127	C	0.215362	1.209129	0.293595
C128	C	0.144752	1.257931	0.321741
C129	C	0.072863	1.268972	0.282401
C130	C	0.071585	1.231215	0.214904
C131	C	0.142193	1.182418	0.186754
C132	C	0.496091	1.311699	-0.200213
C133	C	0.485221	1.382310	-0.277128
C134	C	0.443207	1.404264	-0.369014
C135	C	0.412067	1.355599	-0.383988
C136	C	0.422942	1.284986	-0.307076
H137	H	0.623555	0.439963	-0.090557
Cl138	Cl	0.449318	0.612601	0.215453
Cl139	Cl	-0.018767	1.245058	-0.177211
Cl140	Cl	0.662111	0.549757	0.715254
H141	H	0.015375	1.308707	0.305331
Cl142	Cl	-0.018796	1.245099	0.165462
H143	H	0.273865	1.200175	-0.300813
H144	H	0.313393	0.894327	-0.275410
H145	H	0.096948	0.740876	0.200020
H146	H	0.875526	0.644258	-0.160966
Cl147	Cl	0.407235	0.928647	-0.159636
H148	H	0.530288	0.293849	0.073716
Cl149	Cl	0.379154	0.502657	0.339068
Cl150	Cl	0.383804	0.223780	0.331410
Cl151	Cl	0.359039	0.383286	0.374668
H152	H	1.005958	0.624227	-0.089605
H153	H	0.587021	0.471151	0.647460
Cl154	Cl	0.359241	1.383217	-0.499505
H155	H	0.510790	0.510935	0.480776
Cl156	Cl	1.037274	0.602626	0.614973
Cl157	Cl	0.472432	0.648742	0.300505
H158	H	0.141172	1.151656	-0.067323
Cl159	Cl	0.715611	0.737646	-0.127309
H160	H	0.623752	0.687554	0.535013
H161	H	0.530302	1.293836	-0.125401
H162	H	0.875598	0.644224	0.639934
H163	H	0.407229	0.928620	-0.551092
H164	H	0.397579	1.245374	-0.319280
Cl165	Cl	0.662296	0.549617	-0.158902
Cl166	Cl	0.429539	1.493041	-0.465693
Cl167	Cl	0.614112	1.004281	-0.190562
H168	H	0.707948	1.038565	-0.334378
Cl169	Cl	1.040131	0.687820	0.050281
H170	H	0.880166	0.781241	0.283089
H171	H	1.008268	0.692750	0.406431
Cl172	Cl	0.154825	1.042635	0.076775
Cl173	Cl	0.140571	1.134953	0.101914
Cl174	Cl	0.880768	0.797939	0.113858
H175	H	0.747474	0.732725	0.516581
H176	H	0.273890	1.200144	0.325642
Cl177	Cl	-0.015943	1.330318	-0.399195
Cl178	Cl	0.524369	1.443480	-0.258280
H179	H	0.491046	0.639045	0.142049
H180	H	0.145737	1.288706	-0.424159
H181	H	0.145808	1.288666	0.376703
Cl182	Cl	-0.133488	0.890263	0.139001
H183	H	0.567148	0.351610	0.008787
H184	H	0.623769	0.687554	-0.091405
Cl185	Cl	-0.084499	1.229247	0.000550
Cl186	Cl	0.095565	1.088841	0.057882
H187	H	-0.323458	1.192786	0.015429
Cl188	Cl	-0.223991	1.269618	-0.015940
H189	H	0.236449	0.700501	0.216510
Cl190	Cl	0.380140	0.712556	0.211590
Cl191	Cl	-0.074221	0.844055	0.157867
Cl192	Cl	0.614114	1.004240	-0.624596
Cl193	Cl	0.290489	0.885945	-0.467718
Cl194	Cl	0.730852	1.046930	-0.533540
