data_functionalizedCrystal
_audit_creation_method	'MofGen! by Chris Wilmer'
_symmetry_space_group_name_H-M	'P1'
_symmetry_Int_Tables_number	1
_symmetry_cell_setting	triclinic
loop_
_symmetry_equiv_pos_as_xyz
  x,y,z
_cell_length_a	19.188905
_cell_length_b	27.732048
_cell_length_c	17.666332
_cell_angle_alpha	89.988553
_cell_angle_beta	89.983521
_cell_angle_gamma	82.888605
loop_
_atom_site_label
_atom_site_type_symbol
_atom_site_fract_x
_atom_site_fract_y
_atom_site_fract_z
O1	O	0.925776	0.060290	-0.063081
O2	O	1.425776	0.560290	0.436919
O3	O	0.722411	0.068427	-0.063056
O4	O	1.222411	0.568427	0.436944
O5	O	0.830409	-0.006019	-0.063055
O6	O	1.330409	0.493981	0.436945
O7	O	0.817777	0.134736	-0.063082
O8	O	1.317777	0.634736	0.436918
O9	O	0.830391	-0.006023	0.062842
O10	O	1.330391	0.493977	0.562842
O11	O	0.722392	0.068423	0.062840
O12	O	1.222392	0.568423	0.562840
O13	O	0.925757	0.060286	0.062816
O14	O	1.425757	0.560286	0.562816
Cu15	Cu	0.824073	0.064354	0.074323
Cu16	Cu	1.324073	0.564354	0.574323
Cu17	Cu	0.824095	0.064359	-0.074564
Cu18	Cu	1.324095	0.564359	0.425436
O19	O	0.817758	0.134733	0.062814
O20	O	1.317758	0.634733	0.562814
C21	C	0.696391	0.068163	-0.000105
C22	C	1.196391	0.568163	0.499895
C23	C	0.618891	0.067379	-0.000095
C24	C	1.118891	0.567379	0.499905
C25	C	0.582512	0.067004	-0.068723
C26	C	1.082512	0.567004	0.431277
C27	C	0.509693	0.066261	-0.068732
C28	C	1.009693	0.566261	0.431268
C29	C	0.473258	0.065883	-0.000109
C30	C	0.973258	0.565883	0.499891
C31	C	0.509645	0.066261	0.068528
C32	C	1.009645	0.566261	0.568528
C33	C	0.582462	0.067008	0.068535
C34	C	1.082462	0.567008	0.568535
N35	N	0.364413	0.037200	0.050966
N36	N	0.864413	0.537200	0.550966
N37	N	0.295241	0.036489	0.050954
N38	N	0.795241	0.536489	0.550954
C39	C	0.253866	0.063631	-0.000127
C40	C	0.753866	0.563631	0.499873
N41	N	0.284278	0.091506	-0.051208
N42	N	0.784278	0.591506	0.448792
N43	N	0.353457	0.092215	-0.051198
N44	N	0.853457	0.592215	0.448802
C45	C	0.394301	0.065073	-0.000109
C46	C	0.894301	0.565073	0.499891
C47	C	0.138528	0.062452	-0.068770
C48	C	0.638528	0.562452	0.431230
C49	C	0.065707	0.061712	-0.068776
C50	C	0.565707	0.561712	0.431224
C51	C	0.065662	0.061707	0.068486
C52	C	0.565662	0.561707	0.568486
C53	C	0.138480	0.062452	0.068490
C54	C	0.638480	0.562452	0.568490
C55	C	0.174909	0.062822	-0.000140
C56	C	0.674909	0.562822	0.499860
C57	C	0.830135	-0.024029	-0.000105
C58	C	1.330135	0.475971	0.499895
C59	C	0.829336	-0.077686	-0.000098
C60	C	1.329336	0.422314	0.499902
C61	C	0.888130	-0.416325	-0.000144
C62	C	1.388130	0.083675	0.499856
C63	C	0.885167	-0.617994	-0.000154
C64	C	1.385167	-0.117994	0.499846
O65	O	0.938930	-0.649088	-0.000194
O66	O	1.438930	-0.149088	0.499806
N67	N	0.821129	-0.637309	-0.000146
N68	N	1.321129	-0.137309	0.499854
C69	C	0.757826	-0.606204	-0.000140
C70	C	1.257826	-0.106204	0.499860
O71	O	0.703289	-0.627261	-0.000141
O72	O	1.203289	-0.127261	0.499859
C73	C	0.760789	-0.404537	-0.000135
C74	C	1.260789	0.095463	0.499865
C75	C	0.824832	-0.385224	-0.000136
C76	C	1.324832	0.114776	0.499864
C77	C	0.952168	-0.397012	-0.000146
C78	C	1.452168	0.102988	0.499854
C79	C	0.952908	-0.346598	-0.000139
C80	C	1.452908	0.153402	0.499861
C81	C	0.889610	-0.315497	-0.000131
C82	C	1.389610	0.184503	0.499869
C83	C	0.825572	-0.334810	-0.000129
C84	C	1.325572	0.165190	0.499871
C85	C	0.697487	-0.373432	-0.000134
C86	C	1.197487	0.126568	0.499866
C87	C	0.698234	-0.323013	-0.000135
C88	C	1.198234	0.176987	0.499865
C89	C	0.762277	-0.303700	-0.000136
C90	C	1.262277	0.196300	0.499864
C91	C	0.763014	-0.253295	-0.000114
C92	C	1.263014	0.246705	0.499886
N93	N	0.827053	-0.233979	-0.000123
N94	N	1.327053	0.266021	0.499877
C95	C	0.890351	-0.265080	-0.000131
C96	C	1.390351	0.234920	0.499869
C97	C	0.756275	-0.712083	-0.000141
C98	C	1.256275	-0.212083	0.499859
C99	C	0.755534	-0.762499	-0.000141
C100	C	1.255534	-0.262499	0.499859
C101	C	0.882876	-0.774286	-0.000157
C102	C	1.382876	-0.274286	0.499843
C103	C	0.883616	-0.723868	-0.000152
C104	C	1.383616	-0.223868	0.499848
C105	C	0.820313	-0.692767	-0.000149
C106	C	1.320313	-0.192767	0.499851
C107	C	0.891900	-0.159206	-0.000116
C108	C	1.391900	0.340794	0.499884
C109	C	0.892634	-0.108787	-0.000107
C110	C	1.392634	0.391213	0.499893
C111	C	0.765293	-0.097006	-0.000095
C112	C	1.265293	0.402994	0.499905
C113	C	0.764558	-0.147420	-0.000100
C114	C	1.264558	0.352580	0.499900
C115	C	0.827867	-0.178520	-0.000114
C116	C	1.327867	0.321480	0.499886
O117	O	0.709280	-0.222172	-0.000083
O118	O	1.209280	0.277828	0.499917
O119	O	0.944880	-0.244014	-0.000147
O120	O	1.444880	0.255986	0.499853
C121	C	0.887390	-0.466739	-0.000151
C122	C	1.387390	0.033261	0.499849
C123	C	0.823352	-0.486052	-0.000149
C124	C	1.323352	0.013948	0.499851
C125	C	0.760054	-0.454951	-0.000141
C126	C	1.260054	0.045049	0.499859
C127	C	0.822611	-0.536469	-0.000149
C128	C	1.322611	-0.036469	0.499851
C129	C	0.885909	-0.567570	-0.000157
C130	C	1.385909	-0.067570	0.499843
C131	C	0.949948	-0.548255	-0.000166
C132	C	1.449948	-0.048255	0.499834
C133	C	0.950688	-0.497840	-0.000159
C134	C	1.450688	0.002160	0.499841
C135	C	0.696015	-0.474267	-0.000132
C136	C	1.196015	0.025733	0.499868
C137	C	0.695281	-0.524681	-0.000138
C138	C	1.195281	-0.024681	0.499862
C139	C	0.758579	-0.555783	-0.000147
C140	C	1.258579	-0.055783	0.499853
C141	C	0.951776	0.060550	-0.000138
C142	C	1.451776	0.560550	0.499862
C143	C	1.029277	0.061335	-0.000153
C144	C	1.529277	0.561335	0.499847
C145	C	0.818033	0.152742	-0.000138
C146	C	1.318033	0.652742	0.499862
C147	C	0.818831	0.206399	-0.000149
C148	C	1.318831	0.706399	0.499851
N149	N	0.824062	0.064351	0.179043
N150	N	1.324062	0.564351	0.679043
N151	N	0.824111	0.064359	-0.179284
N152	N	1.324111	0.564359	0.320716
C153	C	0.871900	0.031402	0.218653
C154	C	1.371900	0.531402	0.718653
C155	C	0.871904	0.031400	0.297901
C156	C	1.371904	0.531400	0.797901
C157	C	0.824077	0.064354	0.337535
C158	C	1.324077	0.564354	0.837535
C159	C	0.776231	0.097306	0.297915
C160	C	1.276231	0.597306	0.797915
C161	C	0.776224	0.097304	0.218669
C162	C	1.276224	0.597304	0.718669
N163	N	0.814728	0.107145	0.461946
N164	N	1.314728	0.607145	0.961946
N165	N	0.814739	0.107145	0.537226
N166	N	1.314739	0.607145	1.037226
C167	C	0.824095	0.064361	0.576299
C168	C	1.324095	0.564361	1.076299
N169	N	0.833454	0.021576	0.537247
N170	N	1.333454	0.521576	1.037247
N171	N	0.833446	0.021576	0.461960
N172	N	1.333446	0.521576	0.961960
C173	C	0.824079	0.064360	0.423464
C174	C	1.324079	0.564360	0.923464
C175	C	0.871940	0.031407	0.701839
C176	C	1.371940	0.531407	1.201839
C177	C	0.871939	0.031404	0.781088
C178	C	1.371939	0.531404	1.281088
C179	C	0.776270	0.097314	0.781101
C180	C	1.276270	0.597314	1.281101
C181	C	0.776267	0.097313	0.701853
C182	C	1.276267	0.597313	1.201853
C183	C	0.824106	0.064360	0.662227
C184	C	1.324106	0.564360	1.162227
H185	H	0.479975	0.065954	0.124401
H186	H	0.979975	0.565954	0.624401
H187	H	0.168101	0.062754	0.124375
H188	H	0.668101	0.562754	0.624375
H189	H	0.737326	0.124145	0.813370
H190	H	1.237326	0.624145	1.313370
H191	H	0.910851	0.004569	0.186392
H192	H	1.410851	0.504569	0.686392
Br193	Br	0.016332	0.061209	-0.161923
Br194	Br	0.516332	0.561209	0.338077
Br195	Br	0.631948	0.067507	-0.161863
Br196	Br	1.131948	0.567507	0.338137
Br197	Br	0.460310	0.065753	-0.161877
Br198	Br	0.960310	0.565753	0.338123
H199	H	0.910860	0.004568	0.330157
H200	H	1.410860	0.504568	0.830157
Br201	Br	0.016221	0.061201	0.161619
Br202	Br	0.516221	0.561201	0.661619
H203	H	0.910891	0.004573	0.669574
H204	H	1.410891	0.504573	1.169574
H205	H	0.644469	-0.448949	-0.000127
H206	H	1.144469	0.051051	0.499873
H207	H	0.934415	-0.799617	-0.000163
H208	H	1.434415	-0.299617	0.499837
H209	H	0.643125	-0.540400	-0.000131
H210	H	1.143125	-0.040400	0.499869
Br211	Br	0.979556	-0.082581	-0.000107
Br212	Br	1.479556	0.417419	0.499893
Br213	Br	0.631837	0.067518	0.161681
Br214	Br	1.131837	0.567518	0.661681
H215	H	0.943453	-0.184522	-0.000130
H216	H	1.443453	0.315478	0.499870
Br217	Br	0.970534	-0.697664	-0.000151
Br218	Br	1.470534	-0.197664	0.499849
Br219	Br	0.668615	-0.788703	-0.000122
Br220	Br	1.168615	-0.288703	0.499878
Br221	Br	0.711318	0.142027	0.351701
Br222	Br	1.211318	0.642027	0.851701
H223	H	0.910892	0.004571	0.813339
H224	H	1.410892	0.504571	1.313339
H225	H	0.168189	0.062758	-0.124653
H226	H	0.668189	0.562758	0.375347
H227	H	0.704723	-0.686764	-0.000139
H228	H	1.204723	-0.186764	0.499861
H229	H	0.645336	-0.389147	-0.000138
H230	H	1.145336	0.110853	0.499862
H231	H	1.002838	-0.482121	-0.000160
H232	H	1.502838	0.017879	0.499840
Br233	Br	1.039828	-0.320396	-0.000162
Br234	Br	1.539828	0.179604	0.499838
Br235	Br	1.038084	-0.439212	-0.000158
Br236	Br	1.538084	0.060788	0.499842
Br237	Br	0.612318	-0.280807	-0.000136
Br238	Br	1.112318	0.219193	0.499864
Br239	Br	0.677642	-0.173631	-0.000082
Br240	Br	1.177642	0.326369	0.499918
Br241	Br	0.711296	0.142023	0.164907
Br242	Br	1.211296	0.642023	0.664907
H243	H	1.001487	-0.573586	-0.000169
H244	H	1.501487	-0.073586	0.499831
Br245	Br	0.679393	-0.054788	-0.000083
Br246	Br	1.179393	0.445212	0.499917
Br247	Br	0.711345	0.142033	0.648090
Br248	Br	1.211345	0.642033	1.148090
