data_functionalizedCrystal
_audit_creation_method	'MofGen! by Chris Wilmer'
_symmetry_space_group_name_H-M	'P1'
_symmetry_Int_Tables_number	1
_symmetry_cell_setting	triclinic
loop_
_symmetry_equiv_pos_as_xyz
  x,y,z
_cell_length_a	16.625548
_cell_length_b	16.625539
_cell_length_c	12.759399
_cell_angle_alpha	90.026183
_cell_angle_beta	89.983816
_cell_angle_gamma	89.979432
loop_
_atom_site_label
_atom_site_type_symbol
_atom_site_fract_x
_atom_site_fract_y
_atom_site_fract_z
Zn1	Zn	1.232722	-0.455921	0.418234
Zn2	Zn	1.232642	-0.321093	0.593936
Zn3	Zn	1.097883	-0.321102	0.418274
Zn4	Zn	1.097871	-0.455883	0.593875
O5	O	1.165280	-0.388500	0.506080
O6	O	1.345543	-0.438048	0.441550
O7	O	1.214738	-0.208262	0.570676
O8	O	1.115808	-0.339005	0.271248
O9	O	1.345485	-0.338991	0.570637
O10	O	1.214873	-0.438057	0.271219
O11	O	1.115731	-0.208268	0.441618
O12	O	0.985049	-0.338968	0.441560
O13	O	1.115788	-0.568721	0.570534
O14	O	0.985040	-0.437992	0.570573
O15	O	1.214862	-0.568749	0.441492
O16	O	1.214726	-0.338954	0.740949
O17	O	1.115710	-0.437984	0.740904
C18	C	0.955789	-0.388477	0.506065
C19	C	0.866168	-0.388487	0.506084
C20	C	0.537992	-0.388521	0.506091
C21	C	0.629300	-0.388509	0.506086
C22	C	0.702077	-0.388503	0.506088
C23	C	0.793391	-0.388493	0.506082
C24	C	1.165332	-0.598809	0.506002
C25	C	1.165354	-0.688430	0.505968
C26	C	1.165392	-1.016606	0.505851
C27	C	1.165379	-0.925297	0.505887
C28	C	1.165373	-0.852521	0.505910
C29	C	1.165360	-0.761207	0.505945
C30	C	1.375588	-0.388523	0.506096
C31	C	1.465210	-0.388533	0.506103
C32	C	1.165230	-0.388482	0.779047
C33	C	1.165283	-0.388501	0.895824
C34	C	1.165274	-0.179009	0.506082
C35	C	1.165408	-0.089388	0.505819
C36	C	1.165351	-0.388536	0.232047
C37	C	1.165382	-0.388551	0.115270
C38	C	1.216899	-0.336995	0.950674
C39	C	1.216951	-0.337022	1.060398
C40	C	1.113763	-0.440063	1.060412
C41	C	1.113716	-0.440040	0.950690
C42	C	1.312123	-0.308331	1.210271
C43	C	1.363732	-0.256813	1.265125
C44	C	1.376140	-0.178141	1.229576
C45	C	1.336926	-0.150972	1.139175
C46	C	1.285311	-0.202486	1.084327
C47	C	1.272919	-0.281169	1.119874
C48	C	1.018543	-0.468722	0.800815
C49	C	0.966923	-0.520232	0.745965
C50	C	0.954507	-0.598906	0.781511
C51	C	0.993707	-0.626072	0.871916
C52	C	1.045327	-0.574561	0.926766
C53	C	1.057743	-0.495889	0.891212
H54	H	1.258889	-0.295030	0.906005
H55	H	0.983598	-0.690134	0.900859
H56	H	1.302034	-0.372395	1.239217
C57	C	1.406355	-0.286148	1.363318
C58	C	1.454189	-0.224184	1.403762
C59	C	1.493454	-0.251169	1.494224
H60	H	1.439319	-0.330998	1.346428
H61	H	1.367573	-0.301623	1.414149
H62	H	1.492967	-0.208721	1.352941
H63	H	1.421245	-0.179329	1.420674
H64	H	1.454672	-0.266644	1.545055
H65	H	1.526414	-0.296019	1.477325
H66	H	1.525908	-0.209129	1.521681
C67	C	1.031865	-0.383255	0.762295
C68	C	0.958343	-0.342173	0.760997
C69	C	0.970582	-0.263436	0.725535
H70	H	1.053710	-0.384532	0.693516
H71	H	1.068189	-0.356429	0.807916
H72	H	0.922032	-0.368992	0.715377
H73	H	0.936486	-0.340873	0.829764
H74	H	1.006906	-0.236610	0.771156
H75	H	0.992428	-0.264722	0.656758
H76	H	0.920701	-0.235550	0.724659
C77	C	1.057803	-0.495923	1.120173
C78	C	1.068873	-0.484904	1.228004
C79	C	1.017325	-0.536339	1.283086
H80	H	1.069513	-0.550138	1.102256
H81	H	1.003609	-0.484060	1.102320
H82	H	1.123054	-0.496772	1.245850
H83	H	1.057157	-0.430699	1.245953
H84	H	0.963132	-0.524476	1.265232
H85	H	1.029040	-0.590551	1.265160
H86	H	1.024824	-0.528864	1.356254
H87	H	1.253385	-0.180366	1.010723
H88	H	1.077248	-0.596688	1.000375
C89	C	1.350526	-0.065534	1.100724
C90	C	1.404137	-0.026242	1.168091
C91	C	1.416695	0.052461	1.132691
H92	H	1.300770	-0.037444	1.099760
H93	H	1.372452	-0.066893	1.031977
H94	H	1.382209	-0.024879	1.236820
H95	H	1.453903	-0.054308	1.169063
H96	H	1.438620	0.051102	1.063944
H97	H	1.366935	0.080543	1.131728
H98	H	1.453075	0.079128	1.178388
C99	C	0.898459	-0.654724	0.721788
C100	C	0.866791	-0.614103	0.634998
C101	C	0.815169	-0.665501	0.579953
H102	H	0.855822	-0.671255	0.766413
H103	H	0.927568	-0.700610	0.698678
H104	H	0.837683	-0.568231	0.658108
H105	H	0.909410	-0.597573	0.590348
H106	H	0.844278	-0.711387	0.556844
H107	H	0.772537	-0.682029	0.624586
H108	H	0.793682	-0.637950	0.521055
H109	H	1.418162	-0.136194	1.274246
H110	H	0.935009	-0.498109	0.672348
