data_functionalizedCrystal
_audit_creation_method	'MofGen! by Chris Wilmer'
_symmetry_space_group_name_H-M	'P1'
_symmetry_Int_Tables_number	1
_symmetry_cell_setting	triclinic
loop_
_symmetry_equiv_pos_as_xyz
  x,y,z
_cell_length_a	10.685904
_cell_length_b	16.625545
_cell_length_c	16.625539
_cell_angle_alpha	90.023904
_cell_angle_beta	85.608338
_cell_angle_gamma	85.606116
loop_
_atom_site_label
_atom_site_type_symbol
_atom_site_fract_x
_atom_site_fract_y
_atom_site_fract_z
Zn1	Zn	1.929125	0.226561	-0.550542
Zn2	Zn	2.179125	0.476561	-0.300542
Zn3	Zn	2.429125	0.726561	-0.050542
Zn4	Zn	2.679125	0.976561	0.199458
Zn5	Zn	1.928970	0.361408	-0.415708
Zn6	Zn	2.178970	0.611408	-0.165708
Zn7	Zn	2.428970	0.861408	0.084292
Zn8	Zn	2.678970	1.111408	0.334292
Zn9	Zn	1.718109	0.236917	-0.405373
Zn10	Zn	1.968109	0.486917	-0.155373
Zn11	Zn	2.218109	0.736917	0.094627
Zn12	Zn	2.468109	0.986917	0.344627
Zn13	Zn	1.718033	0.371691	-0.540152
Zn14	Zn	1.968033	0.621691	-0.290152
Zn15	Zn	2.218033	0.871691	-0.040152
Zn16	Zn	2.468033	1.121691	0.209848
O17	O	1.823559	0.299144	-0.477944
O18	O	2.073559	0.549144	-0.227944
O19	O	2.323559	0.799144	0.022056
O20	O	2.573559	1.049144	0.272056
O21	O	2.105693	0.235812	-0.541330
O22	O	2.355693	0.485812	-0.291330
O23	O	2.605693	0.735812	-0.041330
O24	O	2.855693	0.985812	0.208670
O25	O	1.900966	0.344924	-0.301503
O26	O	2.150966	0.594924	-0.051503
O27	O	2.400966	0.844924	0.198497
O28	O	2.650966	1.094924	0.448497
O29	O	1.746197	0.122706	-0.424653
O30	O	1.996197	0.372706	-0.174653
O31	O	2.246197	0.622706	0.075347
O32	O	2.496197	0.872706	0.325347
O33	O	2.105579	0.334883	-0.442267
O34	O	2.355579	0.584883	-0.192267
O35	O	2.605579	0.834883	0.057733
O36	O	2.855579	1.084883	0.307733
O37	O	1.901230	0.115098	-0.531308
O38	O	2.151230	0.365098	-0.281308
O39	O	2.401230	0.615098	-0.031308
O40	O	2.651230	0.865098	0.218692
O41	O	1.746047	0.253461	-0.293910
O42	O	1.996047	0.503461	-0.043910
O43	O	2.246047	0.753461	0.206090
O44	O	2.496047	1.003461	0.456090
O45	O	1.541511	0.263433	-0.414578
O46	O	1.791511	0.513433	-0.164578
O47	O	2.041511	0.763433	0.085422
O48	O	2.291511	1.013433	0.335422
O49	O	1.746068	0.352409	-0.654364
O50	O	1.996068	0.602409	-0.404364
O51	O	2.246068	0.852409	-0.154364
O52	O	2.496068	1.102409	0.095636
O53	O	1.541455	0.362451	-0.513599
O54	O	1.791455	0.612451	-0.263599
O55	O	2.041455	0.862451	-0.013599
O56	O	2.291455	1.112451	0.236401
O57	O	1.901156	0.245783	-0.661998
O58	O	2.151156	0.495783	-0.411998
O59	O	2.401156	0.745783	-0.161998
O60	O	2.651156	0.995783	0.088002
O61	O	1.900892	0.475609	-0.432192
O62	O	2.150892	0.725609	-0.182192
O63	O	2.400892	0.975609	0.067808
O64	O	2.650892	1.225609	0.317808
O65	O	1.745918	0.483164	-0.523621
O66	O	1.995918	0.733164	-0.273621
O67	O	2.245918	0.983164	-0.023621
O68	O	2.495918	1.233164	0.226379
C69	C	1.495696	0.315182	-0.461840
C70	C	1.745696	0.565182	-0.211840
C71	C	1.995696	0.815182	0.038160
C72	C	2.245696	1.065182	0.288160
C73	C	1.355434	0.322062	-0.454970
C74	C	1.605434	0.572062	-0.204970
C75	C	1.855434	0.822062	0.045030
C76	C	2.105434	1.072062	0.295030
C77	C	1.823414	0.508642	-0.477920
C78	C	2.073414	0.758642	-0.227920
C79	C	2.323414	1.008642	0.022080
C80	C	2.573414	1.258642	0.272080
C81	C	1.823468	0.598261	-0.477942
C82	C	2.073468	0.848261	-0.227942
C83	C	2.323468	1.098261	0.022058
C84	C	2.573468	1.348261	0.272058
C85	C	1.823514	0.671041	-0.477963
C86	C	2.073514	0.921041	-0.227963
C87	C	2.323514	1.171041	0.022037
C88	C	2.573514	1.421041	0.272037
C89	C	1.823584	0.762346	-0.477988
C90	C	2.073584	1.012346	-0.227988
C91	C	2.323584	1.262346	0.022012
C92	C	2.573584	1.512346	0.272012
C93	C	1.823647	0.835119	-0.478004
C94	C	2.073647	1.085119	-0.228004
C95	C	2.323647	1.335119	0.021996
C96	C	2.573647	1.585119	0.271996
C97	C	1.823715	0.926430	-0.478028
C98	C	2.073715	1.176430	-0.228028
C99	C	2.323715	1.426430	0.021972
C100	C	2.573715	1.676430	0.271972
C101	C	2.152704	0.283045	-0.494110
C102	C	2.402704	0.533045	-0.244110
C103	C	2.652704	0.783045	0.005890
C104	C	2.902704	1.033045	0.255890
C105	C	2.292965	0.276184	-0.501000
C106	C	2.542965	0.526184	-0.251000
C107	C	2.792965	0.776184	-0.001000
C108	C	3.042965	1.026184	0.249000
C109	C	1.823621	0.299088	-0.688256
C110	C	2.073621	0.549088	-0.438256
C111	C	2.323621	0.799088	-0.188256
C112	C	2.573621	1.049088	0.061744
C113	C	1.823648	0.299064	-0.777878
C114	C	2.073648	0.549064	-0.527878
C115	C	2.323648	0.799064	-0.277878
C116	C	2.573648	1.049064	-0.027878
C117	C	1.823730	1.088827	-0.477997
C118	C	2.073730	1.338827	-0.227997
C119	C	2.323730	1.588827	0.022003
C120	C	2.573730	1.838827	0.272003
C121	C	1.823778	0.999204	-0.478044
C122	C	2.073778	1.249204	-0.228044
C123	C	2.323778	1.499204	0.021956
C124	C	2.573778	1.749204	0.271956
C125	C	1.823668	0.299045	-0.850662
C126	C	2.073668	0.549045	-0.600662
C127	C	2.323668	0.799045	-0.350662
C128	C	2.573668	1.049045	-0.100662
C129	C	1.823698	0.299014	-0.941971
C130	C	2.073698	0.549014	-0.691971
C131	C	2.323698	0.799014	-0.441971
C132	C	2.573698	1.049014	-0.191971
C133	C	1.823727	0.298984	-1.014749
C134	C	2.073727	0.548984	-0.764749
C135	C	2.323727	0.798984	-0.514749
C136	C	2.573727	1.048984	-0.264749
C137	C	1.823759	0.298953	-1.106065
C138	C	2.073759	0.548953	-0.856065
C139	C	2.323759	0.798953	-0.606065
C140	C	2.573759	1.048953	-0.356065
C141	C	1.823570	0.299139	-0.268453
C142	C	2.073570	0.549139	-0.018453
C143	C	2.323570	0.799139	0.231547
C144	C	2.573570	1.049139	0.481547
C145	C	1.823789	0.298923	-0.178843
C146	C	2.073789	0.548923	0.071157
C147	C	2.323789	0.798923	0.321157
C148	C	2.573789	1.048923	0.571157
H149	H	1.346794	0.231638	-0.545661
H150	H	1.596794	0.481638	-0.295661
H151	H	1.846794	0.731638	-0.045661
H152	H	2.096794	0.981638	0.204339
H153	H	1.301612	0.366600	-0.410306
H154	H	1.551612	0.616600	-0.160306
H155	H	1.801612	0.866600	0.089694
H156	H	2.051612	1.116600	0.339694
