data_functionalizedCrystal
_audit_creation_method	'MofGen! by Chris Wilmer'
_symmetry_space_group_name_H-M	'P1'
_symmetry_Int_Tables_number	1
_symmetry_cell_setting	triclinic
loop_
_symmetry_equiv_pos_as_xyz
  x,y,z
_cell_length_a	12.837943
_cell_length_b	10.868271
_cell_length_c	12.837942
_cell_angle_alpha	90.004271
_cell_angle_beta	85.171060
_cell_angle_gamma	89.996253
loop_
_atom_site_label
_atom_site_type_symbol
_atom_site_fract_x
_atom_site_fract_y
_atom_site_fract_z
O1	O	1.402336	-0.102299	-0.272141
O2	O	1.902336	0.397701	0.227859
O3	O	1.099203	-0.102306	-0.258697
O4	O	1.599203	0.397694	0.241303
O5	O	1.244048	-0.102295	-0.113852
O6	O	1.744048	0.397705	0.386148
O7	O	1.257491	-0.102310	-0.416986
O8	O	1.757491	0.397690	0.083014
O9	O	1.244032	0.102349	-0.113845
O10	O	1.744032	0.602349	0.386155
O11	O	1.099187	0.102338	-0.258690
O12	O	1.599187	0.602338	0.241310
O13	O	1.402321	0.102345	-0.272134
O14	O	1.902321	0.602345	0.227866
Zn15	Zn	1.250751	0.134834	-0.265411
Zn16	Zn	1.750751	0.634834	0.234589
Zn17	Zn	1.250772	-0.134795	-0.265420
Zn18	Zn	1.750772	0.365205	0.234580
O19	O	1.257476	0.102334	-0.416979
O20	O	1.757476	0.602334	0.083021
C21	C	1.060126	0.000015	-0.254153
C22	C	1.560126	0.500015	0.245847
C23	C	0.943711	0.000012	-0.240608
C24	C	1.443711	0.500012	0.259392
N25	N	1.250745	0.318848	-0.265405
N26	N	1.750745	0.818848	0.234595
C27	C	0.718837	0.000022	-0.403437
C28	C	1.218837	0.500022	0.096563
C29	C	0.609454	0.000020	-0.390716
C30	C	1.109454	0.500020	0.109284
C31	C	0.615562	0.000017	-0.202445
C32	C	1.115562	0.500017	0.297555
C33	C	0.724944	0.000018	-0.215166
C34	C	1.224944	0.500018	0.284834
C35	C	0.776578	0.000019	-0.315666
C36	C	1.276578	0.500019	0.184334
C37	C	0.885962	0.000012	-0.328386
C38	C	1.385962	0.500012	0.171614
C39	C	0.892067	0.000017	-0.140116
C40	C	1.392067	0.500017	0.359884
C41	C	0.782685	0.000015	-0.127395
C42	C	1.282685	0.500015	0.372605
C43	C	1.250760	0.569854	-0.265420
C44	C	1.750760	1.069854	0.234580
C45	C	1.250748	0.430176	-0.265414
C46	C	1.750748	0.930176	0.234586
C47	C	1.441398	0.000021	-0.276679
C48	C	1.941398	0.500021	0.223321
C49	C	1.557813	0.000016	-0.290223
C50	C	2.057813	0.500016	0.209777
C51	C	1.239499	0.000026	-0.074780
C52	C	1.739499	0.500026	0.425220
C53	C	1.225954	0.000024	0.041635
C54	C	1.725954	0.500024	0.541635
N55	N	1.250777	0.681191	-0.265422
N56	N	1.750777	1.181191	0.234578
C57	C	1.262025	0.000010	-0.456052
C58	C	1.762025	0.500010	0.043948
C59	C	1.275569	0.000004	-0.572467
C60	C	1.775569	0.500004	-0.072467
C61	C	1.388784	0.000002	0.266510
C62	C	1.888784	0.500002	0.766510
C63	C	1.376062	-0.000000	0.375892
C64	C	1.876062	0.500000	0.875892
C65	C	1.187791	0.000008	0.369785
C66	C	1.687791	0.500008	0.869785
C67	C	1.200513	0.000010	0.260402
C68	C	1.700513	0.500010	0.760402
C69	C	1.301012	0.000009	0.208769
C70	C	1.801012	0.500009	0.708769
C71	C	1.313732	0.000020	0.099384
C72	C	1.813732	0.500020	0.599384
C73	C	1.125462	0.000020	0.093279
C74	C	1.625462	0.500020	0.593279
C75	C	1.112741	0.000017	0.202661
C76	C	1.612741	0.500017	0.702661
H77	H	0.928000	0.000014	-0.410218
H78	H	1.428000	0.500014	0.089782
C79	C	0.725875	0.000012	-0.016851
C80	C	1.225875	0.500012	0.483149
N81	N	0.683087	0.000005	0.066413
N82	N	1.183087	0.500005	0.566413
H83	H	1.470614	0.000013	0.224469
H84	H	1.970614	0.500013	0.724469
H85	H	0.939092	0.000006	-0.068646
H86	H	1.439092	0.500006	0.431354
C87	C	1.002197	0.000033	0.259471
C88	C	1.502197	0.500033	0.759471
N89	N	0.918933	0.000054	0.302259
N90	N	1.418933	0.500054	0.802259
C91	C	1.424283	0.000015	0.042589
C92	C	1.924283	0.500015	0.542589
N93	N	1.507553	0.000006	-0.000186
N94	N	2.007553	0.500006	0.499814
H95	H	1.447536	-0.000010	0.422901
H96	H	1.947536	0.499990	0.922901
C97	C	1.077250	0.000021	0.426601
C98	C	1.577250	0.500021	0.926601
N99	N	0.993990	0.000039	0.469396
N100	N	1.493990	0.500039	0.969396
H101	H	0.760878	0.000021	-0.485268
H102	H	1.260878	0.500021	0.014732
H103	H	1.053992	0.000035	0.046254
H104	H	1.553992	0.500035	0.546254
H105	H	0.573502	0.000117	-0.120623
H106	H	1.073502	0.500117	0.379377
H107	H	0.562446	0.000026	-0.462189
H108	H	1.062446	0.500026	0.037811
