data_functionalizedCrystal
_audit_creation_method	'MofGen! by Chris Wilmer'
_symmetry_space_group_name_H-M	'P1'
_symmetry_Int_Tables_number	1
_symmetry_cell_setting	triclinic
loop_
_symmetry_equiv_pos_as_xyz
  x,y,z
_cell_length_a	23.532407
_cell_length_b	27.732048
_cell_length_c	22.610064
_cell_angle_alpha	89.999096
_cell_angle_beta	89.997161
_cell_angle_gamma	82.745667
loop_
_atom_site_label
_atom_site_type_symbol
_atom_site_fract_x
_atom_site_fract_y
_atom_site_fract_z
O1	O	0.755138	0.058672	-0.049117
O2	O	0.589257	0.067162	-0.049135
O3	O	0.677349	-0.007472	-0.049114
O4	O	0.667046	0.133306	-0.049138
O5	O	0.677334	-0.007461	0.049255
O6	O	0.589241	0.067173	0.049234
O7	O	0.755123	0.058683	0.049252
Zn8	Zn	0.672179	0.062930	0.064861
Zn9	Zn	0.672200	0.062915	-0.064744
O10	O	0.667030	0.133317	0.049231
C11	C	0.568033	0.066952	0.000047
C12	C	0.504818	0.066302	0.000041
C13	C	0.105629	0.106391	0.000061
C14	C	0.046230	0.105787	0.000064
O15	O	0.009406	0.142951	0.000080
N16	N	0.023699	0.061418	0.000071
C17	C	0.060570	0.017649	0.000080
O18	O	0.035951	-0.020147	0.000086
C19	C	0.119967	0.018253	0.000080
C20	C	0.142495	0.062626	0.000068
C21	C	0.128158	0.150760	0.000049
C22	C	0.187552	0.151364	0.000044
C23	C	0.224419	0.107599	0.000051
C24	C	0.201890	0.063229	0.000063
C25	C	0.156837	-0.025515	0.000093
C26	C	0.216239	-0.024907	0.000094
C27	C	0.238766	0.019466	0.000082
C28	C	0.298151	0.020068	0.000065
N29	N	0.320683	0.064437	0.000059
C30	C	0.283817	0.108203	0.000052
C31	C	-0.064170	0.016383	0.000080
C32	C	-0.123567	0.015778	0.000075
C33	C	-0.137902	0.103917	0.000061
C34	C	-0.078505	0.104521	0.000061
C35	C	-0.041639	0.060753	0.000073
C36	C	0.408551	0.109467	0.000041
C37	C	0.467951	0.110067	0.000034
C38	C	0.482282	0.021928	0.000051
C39	C	0.422886	0.021328	0.000055
C40	C	0.386021	0.065102	0.000052
O41	O	0.335010	-0.017077	0.000052
O42	O	0.308444	0.145992	0.000053
C43	C	0.677125	-0.025473	0.000072
C44	C	0.676474	-0.079129	0.000077
C45	C	0.724431	-0.417871	0.000052
C46	C	0.722014	-0.619534	0.000043
O47	O	0.765867	-0.650722	0.000022
N48	N	0.669779	-0.638738	0.000038
C49	C	0.618144	-0.607523	0.000031
O50	O	0.573659	-0.628484	0.000020
C51	C	0.620561	-0.405860	0.000035
C52	C	0.672800	-0.386659	0.000046
C53	C	0.776665	-0.398669	0.000062
C54	C	0.777269	-0.348256	0.000067
C55	C	0.725638	-0.317045	0.000062
C56	C	0.673403	-0.336247	0.000052
C57	C	0.568927	-0.374646	0.000024
C58	C	0.569536	-0.324228	0.000024
C59	C	0.621775	-0.305027	0.000035
C60	C	0.622376	-0.254622	0.000052
N61	N	0.674611	-0.235418	0.000057
C62	C	0.726242	-0.266630	0.000062
C63	C	0.616879	-0.713399	0.000030
C64	C	0.616274	-0.763814	0.000030
C65	C	0.720145	-0.775822	0.000041
C66	C	0.720749	-0.725406	0.000045
C67	C	0.669114	-0.694195	0.000035
C68	C	0.727506	-0.160758	0.000074
C69	C	0.728105	-0.110341	0.000082
C70	C	0.624235	-0.098337	0.000068
C71	C	0.623635	-0.148751	0.000063
C72	C	0.675276	-0.179961	0.000064
O73	O	0.578547	-0.223406	0.000066
O74	O	0.770721	-0.245659	0.000060
C75	C	0.723827	-0.468283	0.000046
C76	C	0.671593	-0.487485	0.000036
C77	C	0.619962	-0.456274	0.000030
C78	C	0.670988	-0.537900	0.000036
C79	C	0.722619	-0.569112	0.000041
C80	C	0.774855	-0.549908	0.000046
C81	C	0.775458	-0.499495	0.000051
C82	C	0.567727	-0.475478	0.000025
C83	C	0.567127	-0.525891	0.000021
C84	C	0.618758	-0.557103	0.000026
C85	C	0.776346	0.058894	0.000068
C86	C	0.839562	0.059544	0.000071
C87	C	0.667254	0.151319	0.000044
C88	C	0.667905	0.204975	0.000035
N89	N	0.672170	0.062939	0.153314
N90	N	0.672214	0.062902	-0.153197
C91	C	0.711209	0.029873	0.561964
C92	C	0.711212	0.029869	0.623884
O93	O	0.744380	0.001762	0.655911
N94	N	0.672200	0.062905	0.654851
C95	C	0.633178	0.095944	0.623894
O96	O	0.599995	0.124044	0.655919
C97	C	0.633173	0.095945	0.561975
C98	C	0.672191	0.062910	0.531012
C99	C	0.750224	-0.003160	0.531001
C100	C	0.750222	-0.003156	0.469085
C101	C	0.711204	0.029881	0.438133
C102	C	0.672189	0.062914	0.469096
C103	C	0.594149	0.128981	0.531020
C104	C	0.594146	0.128979	0.469097
C105	C	0.633165	0.095944	0.438134
C106	C	0.633169	0.095955	0.376229
N107	N	0.672182	0.062919	0.345262
C108	C	0.711199	0.029882	0.376214
C109	C	0.633191	0.095939	0.753928
C110	C	0.633198	0.095941	0.815846
C111	C	0.711232	0.029865	0.815831
C112	C	0.711227	0.029866	0.753912
C113	C	0.672203	0.062903	0.722961
C114	C	0.711192	0.029894	0.246187
C115	C	0.711187	0.029902	0.184266
C116	C	0.633152	0.095976	0.184286
C117	C	0.633158	0.095969	0.246201
C118	C	0.672180	0.062924	0.277150
O119	O	0.600016	0.124047	0.344163
O120	O	0.744372	0.001783	0.344182
H121	H	0.770646	-0.094710	0.000092
C122	C	0.832922	-0.478377	0.000059
C123	C	0.847634	-0.445371	-0.051019
C124	C	0.905100	-0.424257	-0.051013
C125	C	0.947855	-0.436151	0.000070
C126	C	0.933145	-0.469159	0.051152
C127	C	0.875678	-0.490272	0.051146
H128	H	0.815983	-0.436565	-0.088837
H129	H	0.915990	-0.399822	-0.088827
H130	H	0.990396	-0.420521	0.000075
H131	H	0.964795	-0.477965	0.088970
H132	H	0.864788	-0.514708	0.088960
C133	C	0.754108	-0.006440	0.150206
C134	C	0.797024	-0.042782	0.184258
C135	C	0.839943	-0.079123	0.150201
C136	C	0.839946	-0.079123	0.082092
C137	C	0.797029	-0.042780	0.048037
C138	C	0.754110	-0.006438	0.082094
H139	H	0.797023	-0.042784	0.234679
H140	H	0.871713	-0.106027	0.175411
H141	H	0.871717	-0.106025	0.056881
H142	H	0.797030	-0.042778	-0.002384
H143	H	0.722340	0.020466	0.056884
C144	C	0.590231	0.132315	0.150232
C145	C	0.546848	0.113608	0.107670
C146	C	0.503923	0.149944	0.073615
C147	C	0.504383	0.204987	0.082123
C148	C	0.547768	0.223697	0.124687
C149	C	0.590692	0.187361	0.158742
H150	H	0.546506	0.072859	0.101370
H151	H	0.471807	0.136093	0.042106
H152	H	0.472607	0.231886	0.056914
H153	H	0.548109	0.264446	0.130987
H154	H	0.622809	0.201211	0.190251
H155	H	0.246253	-0.060550	0.000104
H156	H	-0.141903	-0.020355	0.000076
C157	C	0.512735	-0.289897	0.000015
C158	C	0.498853	-0.253589	0.051096
C159	C	0.442053	-0.219259	0.051089
C160	C	0.399135	-0.221238	0.000001
C161	C	0.413016	-0.257548	-0.051083
C162	C	0.469816	-0.291877	-0.051076
H163	H	0.530624	-0.252122	0.088917
H164	H	0.431777	-0.192380	0.088905
H165	H	0.357088	-0.195825	-0.000004
H166	H	0.381244	-0.259014	-0.088904
H167	H	0.480091	-0.318756	-0.088893
H168	H	0.769556	-0.186164	0.000073
C169	C	0.793137	-0.039500	0.435029
C170	C	0.771208	-0.076373	0.392467
C171	C	0.814124	-0.112721	0.358414
C172	C	0.878968	-0.112195	0.366923
C173	C	0.900900	-0.075320	0.409487
C174	C	0.857985	-0.038972	0.443540
H175	H	0.723204	-0.076764	0.386166
H176	H	0.797888	-0.140018	0.326905
H177	H	0.910737	-0.139101	0.341715
H178	H	0.948905	-0.074929	0.415788
H179	H	0.874221	-0.011675	0.475049
C180	C	0.834732	-0.327137	0.000071
C181	C	0.849439	-0.294131	-0.051009
C182	C	0.906904	-0.273016	-0.051009
C183	C	0.949663	-0.284907	0.000071
C184	C	0.934957	-0.317915	0.051155
C185	C	0.877492	-0.339030	0.051155
H186	H	0.817785	-0.285328	-0.088826
H187	H	0.917790	-0.248582	-0.088825
H188	H	0.992202	-0.269276	0.000071
H189	H	0.966611	-0.326719	0.088972
H190	H	0.866606	-0.363465	0.088971
H191	H	0.404543	-0.014804	0.000057
C192	C	0.590240	0.132311	0.280262
C193	C	0.525397	0.131778	0.271747
C194	C	0.482474	0.168118	0.305802
C195	C	0.504394	0.204990	0.348372
C196	C	0.569240	0.205524	0.356890
C197	C	0.612163	0.169185	0.322835
H198	H	0.509168	0.104482	0.240231
H199	H	0.434471	0.167722	0.299496
H200	H	0.472619	0.231890	0.373582
H201	H	0.585469	0.232820	0.388405
H202	H	0.660166	0.169580	0.329141
H203	H	0.512309	-0.013704	0.000054
C204	C	0.778211	-0.704287	0.000052
C205	C	0.820965	-0.716176	0.051138
C206	C	0.878430	-0.695060	0.051143
C207	C	0.893142	-0.662055	0.000064
C208	C	0.850387	-0.650165	-0.051026
C209	C	0.792922	-0.671280	-0.051031
H210	H	0.810075	-0.740609	0.088953
H211	H	0.910080	-0.703862	0.088963
H212	H	0.935681	-0.646424	0.000068
H213	H	0.861277	-0.625731	-0.088841
H214	H	0.761272	-0.662478	-0.088851
H215	H	0.486290	0.146202	0.000023
C216	C	0.560075	-0.679072	0.000027
C217	C	0.517150	-0.681055	-0.051054
C218	C	0.460346	-0.646731	-0.051052
C219	C	0.446467	-0.610423	0.000029
C220	C	0.489393	-0.608438	0.051113
C221	C	0.546197	-0.642762	0.051112
H222	H	0.527424	-0.707934	-0.088871
H223	H	0.428570	-0.648201	-0.088868
H224	H	0.404417	-0.585015	0.000030
H225	H	0.479119	-0.581559	0.088931
H226	H	0.577973	-0.641292	0.088928
H227	H	0.098146	0.186402	0.000045
H228	H	0.818712	-0.424077	0.000064
C229	C	0.511460	-0.395755	0.000008
C230	C	0.468685	-0.383859	0.051078
C231	C	0.411214	-0.404965	0.051060
C232	C	0.396517	-0.437966	-0.000026
C233	C	0.439293	-0.449863	-0.051100
C234	C	0.496764	-0.428758	-0.051082
H235	H	0.479564	-0.359428	0.088898
H236	H	0.379548	-0.396157	0.088869
H237	H	0.353973	-0.453589	-0.000039
H238	H	0.428414	-0.474294	-0.088920
H239	H	0.528430	-0.437565	-0.088891
H240	H	-0.167930	0.139553	0.000058
C241	C	0.754149	-0.006480	0.849887
C242	C	0.818994	-0.005952	0.841376
C243	C	0.861908	-0.042295	0.875434
C244	C	0.839977	-0.079165	0.918004
C245	C	0.775129	-0.079694	0.926517
C246	C	0.732215	-0.043351	0.892459
H247	H	0.835231	0.021342	0.809862
H248	H	0.909913	-0.041903	0.869132
H249	H	0.871745	-0.106067	0.943216
H250	H	0.758892	-0.106988	0.958031
H251	H	0.684210	-0.043743	0.898761
H252	H	0.762185	-0.801243	0.000045
H253	H	0.601432	0.122847	0.841052
C254	C	0.132070	-0.074328	0.000112
C255	C	0.093211	-0.086860	0.051200
C256	C	0.068447	-0.135677	0.051222
C257	C	0.082541	-0.171961	0.000155
C258	C	0.121401	-0.159430	-0.050937
C259	C	0.146166	-0.110613	-0.050958
H260	H	0.082776	-0.060000	0.089007
H261	H	0.039680	-0.144953	0.089044
H262	H	0.064208	-0.208098	0.000171
H263	H	0.131836	-0.186291	-0.088743
H264	H	0.174933	-0.101337	-0.088780
C265	C	0.754144	-0.006476	0.719856
C266	C	0.753677	-0.061517	0.728377
C267	C	0.796595	-0.097862	0.694324
C268	C	0.839981	-0.079165	0.651751
C269	C	0.840451	-0.024121	0.643228
C270	C	0.797532	0.012223	0.677281
H271	H	0.721559	-0.075360	0.759894
H272	H	0.796248	-0.138609	0.700633
H273	H	0.871752	-0.106070	0.626543
H274	H	0.872569	-0.010278	0.611711
H275	H	0.797880	0.052971	0.670971
H276	H	0.573737	-0.779443	0.000031
H277	H	-0.034156	-0.019261	0.000084
C278	C	0.551224	0.165317	0.565071
C279	C	0.486382	0.164776	0.556556
C280	C	0.443454	0.201113	0.590607
C281	C	0.465366	0.237992	0.633173
C282	C	0.530211	0.238535	0.641690
C283	C	0.573139	0.202198	0.607639
H284	H	0.470159	0.137474	0.525045
H285	H	0.395451	0.200711	0.584302
H286	H	0.433588	0.264891	0.658380
H287	H	0.546434	0.265836	0.673201
H288	H	0.621142	0.202600	0.613944
H289	H	0.581099	-0.164385	0.000070
H290	H	0.378542	0.145112	0.000040
H291	H	0.205889	0.187497	0.000034
H292	H	-0.060167	0.140653	0.000054
H293	H	0.582198	-0.072916	0.000066
H294	H	0.816894	-0.575329	0.000053
H295	H	0.524585	-0.541520	0.000017
H296	H	0.525681	-0.450070	0.000020
H297	H	0.742966	0.002985	0.271379
H298	H	0.781997	-0.030065	0.556197
H299	H	0.562367	0.155881	0.443900
H300	H	0.601415	0.122846	0.728730
