data_functionalizedCrystal
_audit_creation_method	'MofGen! by Chris Wilmer'
_symmetry_space_group_name_H-M	'P1'
_symmetry_Int_Tables_number	1
_symmetry_cell_setting	triclinic
loop_
_symmetry_equiv_pos_as_xyz
  x,y,z
_cell_length_a	10.685194
_cell_length_b	16.959455
_cell_length_c	10.685314
_cell_angle_alpha	85.654418
_cell_angle_beta	89.632195
_cell_angle_gamma	85.625091
loop_
_atom_site_label
_atom_site_type_symbol
_atom_site_fract_x
_atom_site_fract_y
_atom_site_fract_z
Zn1	Zn	-0.553825	-1.149678	-0.671124
Zn2	Zn	-0.053825	-0.649678	-0.171124
Zn3	Zn	-0.747588	-1.151157	-0.445268
Zn4	Zn	-0.247588	-0.651157	0.054732
Zn5	Zn	-0.537810	-1.028335	-0.461357
Zn6	Zn	-0.037810	-0.528335	0.038643
Zn7	Zn	-0.763553	-1.008205	-0.654966
Zn8	Zn	-0.263553	-0.508205	-0.154966
O9	O	-0.650694	-1.084344	-0.558179
O10	O	-0.150694	-0.584344	-0.058179
O11	O	-0.579550	-1.260483	-0.641192
O12	O	-0.079550	-0.760483	-0.141192
O13	O	-0.706378	-1.143907	-0.271856
O14	O	-0.206378	-0.643907	0.228144
O15	O	-0.364370	-1.052237	-0.502679
O16	O	0.135630	-0.552237	-0.002679
O17	O	-0.721907	-1.261569	-0.475257
O18	O	-0.221907	-0.761569	0.024743
O19	O	-0.376137	-1.141387	-0.656793
O20	O	0.123863	-0.641387	-0.156793
O21	O	-0.552255	-1.053670	-0.283676
O22	O	-0.052255	-0.553670	0.216324
O23	O	-0.567734	-0.915056	-0.487011
O24	O	-0.067734	-0.415056	0.012989
O25	O	-0.749115	-1.017929	-0.832656
O26	O	-0.249115	-0.517929	-0.332656
O27	O	-0.733586	-0.900267	-0.629254
O28	O	-0.233586	-0.400267	-0.129254
O29	O	-0.595030	-1.121869	-0.844527
O30	O	-0.095030	-0.621869	-0.344527
O31	O	-0.925271	-1.124388	-0.459590
O32	O	-0.425271	-0.624388	0.040410
O33	O	-0.936999	-1.019363	-0.613653
O34	O	-0.436999	-0.519363	-0.113653
C35	C	-0.650656	-0.878982	-0.558126
C36	C	-0.150656	-0.378982	-0.058126
C37	C	-0.650672	-0.791124	-0.558131
C38	C	-0.150672	-0.291124	-0.058131
C39	C	-0.564214	-0.757525	-0.484206
C40	C	-0.064214	-0.257525	0.015794
C41	C	-0.737137	-0.742169	-0.632068
C42	C	-0.237137	-0.242169	-0.132068
C43	C	-0.737151	-0.659622	-0.632080
C44	C	-0.237151	-0.159622	-0.132080
C45	C	-0.650694	-0.626023	-0.558155
C46	C	-0.150694	-0.126023	-0.058155
C47	C	-0.564223	-0.674971	-0.484219
C48	C	-0.064223	-0.174971	0.015781
C49	C	-0.823612	-0.610667	-0.706025
C50	C	-0.323612	-0.110667	-0.206025
C51	C	-0.823628	-0.528115	-0.706041
C52	C	-0.323628	-0.028115	-0.206041
C53	C	-0.737176	-0.494514	-0.632109
C54	C	-0.237176	0.005486	-0.132109
C55	C	-0.650702	-0.543468	-0.558168
C56	C	-0.150702	-0.043468	-0.058168
C57	C	-0.564245	-0.509869	-0.484243
C58	C	-0.064245	-0.009869	0.015757
C59	C	-0.477777	-0.558822	-0.410295
C60	C	0.022223	-0.058822	0.089705
C61	C	-0.477771	-0.641371	-0.410286
C62	C	0.022229	-0.141371	0.089714
C63	C	-0.737182	-0.411965	-0.632118
C64	C	-0.237182	0.088035	-0.132118
C65	C	-0.564254	-0.427315	-0.484256
C66	C	-0.064254	0.072685	0.015744
C67	C	-0.976659	-1.069872	-0.533149
C68	C	-0.476659	-0.569872	-0.033149
C69	C	-1.116111	-1.063751	-0.522484
C70	C	-0.616111	-0.563751	-0.022484
C71	C	-0.323459	-1.098893	-0.583333
C72	C	0.176541	-0.598893	-0.083333
C73	C	-0.184011	-1.105092	-0.594052
C74	C	0.315989	-0.605092	-0.094052
C75	C	-0.675640	-1.067489	-0.885382
C76	C	-0.175640	-0.567489	-0.385382
C77	C	-0.686270	-1.060306	-1.024816
C78	C	-0.186270	-0.560306	-0.524816
C79	C	-0.650727	-0.290509	-0.558217
C80	C	-0.150727	0.209491	-0.058217
C81	C	-0.650725	-0.378366	-0.558193
C82	C	-0.150725	0.121634	-0.058193
C83	C	-0.625755	-1.101183	-0.232256
C84	C	-0.125755	-0.601183	0.267744
C85	C	-0.614772	-1.108534	-0.092849
C86	C	-0.114772	-0.608534	0.407151
H87	H	-0.894038	-0.488264	-0.766253
H88	H	-0.394038	0.011736	-0.266253
H89	H	-0.545411	-1.155316	-1.044419
H90	H	-0.045411	-0.655316	-0.544419
H91	H	-0.893997	-0.638030	-0.766215
H92	H	-0.393997	-0.138030	-0.266215
C93	C	-0.469147	-0.390362	-0.402940
C94	C	0.030853	0.109638	0.097060
H95	H	-0.417648	-0.431340	-0.358909
H96	H	0.082352	0.068660	0.141091
H97	H	-0.512884	-0.358840	-0.344536
H98	H	-0.012884	0.141160	0.155464
H99	H	-0.418214	-0.358118	-0.455221
H100	H	0.081786	0.141882	0.044779
C101	C	-0.382647	-0.695214	-0.328971
C102	C	0.117353	-0.195214	0.171029
H103	H	-0.331160	-0.663384	-0.284939
H104	H	0.168840	-0.163384	0.215061
H105	H	-0.331722	-0.727364	-0.381245
H106	H	0.168278	-0.227364	0.118755
H107	H	-0.426377	-0.728107	-0.270547
H108	H	0.073623	-0.228107	0.229453
C109	C	-0.469097	-0.811363	-0.402875
C110	C	0.030903	-0.311363	0.097125
H111	H	-0.417613	-0.779527	-0.358849
H112	H	0.082387	-0.279527	0.141151
H113	H	-0.418168	-0.843521	-0.455135
H114	H	0.081832	-0.343521	0.044865
H115	H	-0.512833	-0.844249	-0.344446
H116	H	-0.012833	-0.344249	0.155554
H117	H	-1.135459	-1.145171	-0.663491
H118	H	-0.635459	-0.645171	-0.163491
H119	H	-0.407378	-0.531455	-0.350112
H120	H	0.092622	-0.031455	0.149888
H121	H	-0.807522	-0.769530	-0.692260
H122	H	-0.307522	-0.269530	-0.192260
H123	H	-0.807576	-0.372112	-0.692334
H124	H	-0.307576	0.127888	-0.192334
H125	H	-0.755613	-1.013519	-1.073241
H126	H	-0.255613	-0.513519	-0.573241
H127	H	-1.164671	-1.023663	-0.453052
H128	H	-0.664671	-0.523663	0.046948
