data_functionalizedCrystal
_audit_creation_method	'MofGen! by Chris Wilmer'
_symmetry_space_group_name_H-M	'P1'
_symmetry_Int_Tables_number	1
_symmetry_cell_setting	triclinic
loop_
_symmetry_equiv_pos_as_xyz
  x,y,z
_cell_length_a	15.995350
_cell_length_b	19.288865
_cell_length_c	18.366186
_cell_angle_alpha	90.010368
_cell_angle_beta	90.005438
_cell_angle_gamma	83.314311
loop_
_atom_site_label
_atom_site_type_symbol
_atom_site_fract_x
_atom_site_fract_y
_atom_site_fract_z
O1	O	-1.110653	-0.089530	-0.060497
O2	O	-0.610653	0.410470	0.439503
O3	O	-0.866836	-0.100586	-0.060513
O4	O	-0.366836	0.399414	0.439487
O5	O	-0.995790	0.006054	-0.060490
O6	O	-0.495790	0.506054	0.439510
O7	O	-0.981700	-0.196170	-0.060519
O8	O	-0.481700	0.303830	0.439481
O9	O	-0.995768	0.006057	0.060610
O10	O	-0.495768	0.506057	0.560610
O11	O	-0.866814	-0.100583	0.060587
O12	O	-0.366814	0.399417	0.560587
O13	O	-1.110631	-0.089527	0.060603
O14	O	-0.610631	0.410473	0.560603
Zn15	Zn	-0.988719	-0.095055	0.079822
Zn16	Zn	-0.488719	0.404945	0.579822
Zn17	Zn	-0.988748	-0.095059	-0.079732
Zn18	Zn	-0.488748	0.404941	0.420268
O19	O	-0.981678	-0.196167	0.060580
O20	O	-0.481678	0.303833	0.560580
C21	C	-0.835632	-0.100128	0.000035
C22	C	-0.335632	0.399872	0.500035
C23	C	-0.742687	-0.098757	0.000030
C24	C	-0.242687	0.401243	0.500030
C25	C	-0.995326	0.031933	0.000062
C26	C	-0.495326	0.531933	0.500062
C27	C	-0.993965	0.109040	0.000068
C28	C	-0.493965	0.609040	0.500068
C29	C	-1.141835	-0.089986	0.000053
C30	C	-0.641835	0.410014	0.500053
C31	C	-1.234781	-0.091356	0.000054
C32	C	-0.734781	0.408644	0.500054
C33	C	-0.404958	-0.093836	0.000046
C34	C	0.095042	0.406164	0.500046
C35	C	-0.452679	-0.017889	0.000327
C36	C	0.047321	0.482111	0.500327
C37	C	-0.549364	-0.019260	0.000049
C38	C	-0.049364	0.480740	0.500049
C39	C	-0.572509	-0.096277	0.000038
C40	C	-0.072509	0.403723	0.500038
C41	C	-0.531294	-0.133739	-0.069118
C42	C	-0.031294	0.366261	0.430882
C43	C	-0.434665	-0.131831	-0.069171
C44	C	0.065335	0.368169	0.430829
C45	C	-0.434295	-0.133397	0.068542
C46	C	0.065705	0.366603	0.568542
C47	C	-0.531240	-0.133379	0.069451
C48	C	-0.031240	0.366621	0.569451
C49	C	-0.667202	-0.097661	0.000032
C50	C	-0.167202	0.402339	0.500032
C51	C	-0.310266	-0.092455	0.000047
C52	C	0.189734	0.407545	0.500047
C53	C	-0.982142	-0.222047	0.000027
C54	C	-0.482142	0.277953	0.500027
C55	C	-0.983503	-0.299154	0.000015
C56	C	-0.483503	0.200846	0.500015
N57	N	-0.988705	-0.095052	0.188713
N58	N	-0.488705	0.404948	0.688713
C59	C	-1.069629	0.153540	0.000077
C60	C	-0.569629	0.653540	0.500077
C61	C	-1.068350	0.225990	0.000065
C62	C	-0.568350	0.725990	0.500065
C63	C	-0.991403	0.253937	0.000060
C64	C	-0.491403	0.753937	0.500060
C65	C	-0.915729	0.209428	0.000047
C66	C	-0.415729	0.709428	0.500047
C67	C	-0.917010	0.136979	0.000052
C68	C	-0.417010	0.636979	0.500052
C69	C	-0.930906	0.362383	0.042474
C70	C	-0.430906	0.862383	0.542474
C71	C	-0.929628	0.434831	0.042475
C72	C	-0.429628	0.934831	0.542475
C73	C	-0.987450	0.477393	0.000043
C74	C	-0.487450	0.977393	0.500043
C75	C	-1.046563	0.447501	-0.042379
C76	C	-0.546563	0.947501	0.457621
C77	C	-1.047844	0.375052	-0.042374
C78	C	-0.547844	0.875052	0.457626
C79	C	-0.990006	0.332495	0.000055
C80	C	-0.490006	0.832495	0.500055
C81	C	-1.061733	0.600453	0.000038
C82	C	-0.561733	1.100453	0.500038
C83	C	-1.060451	0.672904	0.000022
C84	C	-0.560451	1.172904	0.500022
C85	C	-0.907827	0.656340	0.000011
C86	C	-0.407827	1.156340	0.500011
C87	C	-0.909111	0.583890	0.000020
C88	C	-0.409111	1.083890	0.500020
C89	C	-0.986066	0.555951	0.000037
C90	C	-0.486066	1.055951	0.500037
N91	N	-0.988769	-0.095057	-0.188623
N92	N	-0.488769	0.404943	0.311377
C93	C	-1.039320	-0.137207	0.226804
C94	C	-0.539320	0.362793	0.726804
C95	C	-1.039333	-0.137205	0.303032
C96	C	-0.539333	0.362795	0.803032
C97	C	-0.988717	-0.095056	0.341166
C98	C	-0.488717	0.404944	0.841166
C99	C	-0.938099	-0.052892	0.303065
C100	C	-0.438099	0.447108	0.803065
C101	C	-0.938094	-0.052890	0.226839
C102	C	-0.438094	0.447110	0.726839
C103	C	-0.913241	-0.093103	0.461942
C104	C	-0.413241	0.406897	0.961942
C105	C	-0.913245	-0.093110	0.538167
C106	C	-0.413245	0.406890	1.038167
C107	C	-0.988736	-0.095058	0.576273
C108	C	-0.488736	0.404942	1.076273
C109	C	-1.064224	-0.097014	0.538145
C110	C	-0.564224	0.402986	1.038145
C111	C	-1.064218	-0.097012	0.461919
C112	C	-0.564218	0.402988	0.961919
C113	C	-0.988718	-0.095053	0.423821
C114	C	-0.488718	0.404947	0.923821
C115	C	-1.039369	-0.137214	0.697020
C116	C	-0.539369	0.362786	1.197020
C117	C	-1.039385	-0.137207	0.773249
C118	C	-0.539385	0.362793	1.273249
C119	C	-0.938143	-0.052898	0.773280
C120	C	-0.438143	0.447102	1.273280
C121	C	-0.938136	-0.052901	0.697053
C122	C	-0.438136	0.447099	1.197053
C123	C	-0.988747	-0.095063	0.658927
C124	C	-0.488747	0.404937	1.158927
H125	H	-0.577895	0.010187	0.049623
H126	H	-0.077895	0.510187	0.549623
H127	H	-0.851778	-0.091522	0.569206
H128	H	-0.351778	0.408478	1.069206
Cl129	Cl	-0.422614	0.028769	-0.075803
Cl130	Cl	0.077386	0.528769	0.424197
H131	H	-0.434262	0.012470	0.049922
H132	H	0.065738	0.512470	0.549922
H133	H	-1.124394	0.577704	0.000049
H134	H	-0.624394	1.077704	0.500049
H135	H	-0.847497	0.547657	0.000017
H136	H	-0.347497	1.047657	0.500017
Cl137	Cl	-1.103025	-0.190204	0.821136
Cl138	Cl	-0.603025	0.309796	1.321136
H139	H	-0.413844	-0.108566	0.120960
H140	H	0.086156	0.391434	0.620960
H141	H	-0.853078	0.232187	0.000041
H142	H	-0.353078	0.732187	0.500041
Cl143	Cl	-0.874485	0.000084	0.649164
Cl144	Cl	-0.374485	0.500084	1.149164
H145	H	-1.125695	-0.098604	0.569169
H146	H	-0.625695	0.401396	1.069169
H147	H	-0.881491	0.459163	0.077013
H148	H	-0.381491	0.959163	0.577013
H149	H	-0.896931	-0.018579	0.804328
H150	H	-0.396931	0.481421	1.304328
Cl151	Cl	-0.384548	-0.217916	-0.074029
Cl152	Cl	0.115452	0.282084	0.425971
Cl153	Cl	-0.592534	0.026306	-0.076742
Cl154	Cl	-0.092534	0.526306	0.423258
Cl155	Cl	-0.552797	-0.221092	-0.073119
Cl156	Cl	-0.052797	0.278908	0.426881
H157	H	-1.095974	0.350716	-0.076917
H158	H	-0.595974	0.850716	0.423083
Cl159	Cl	-0.874470	0.000098	0.351004
Cl160	Cl	-0.374470	0.500098	0.851004
Cl161	Cl	-1.155581	0.728849	0.000028
Cl162	Cl	-0.655581	1.228849	0.500028
Cl163	Cl	-0.858211	0.308883	0.095824
Cl164	Cl	-0.358211	0.808883	0.595824
Cl165	Cl	-0.811093	0.691467	0.000000
Cl166	Cl	-0.311093	1.191467	0.500000
H167	H	-0.559776	-0.107722	-0.120578
H168	H	-0.059776	0.392278	0.379422
Cl169	Cl	-0.573456	-0.091088	0.148440
Cl170	Cl	-0.073456	0.408912	0.648440
Cl171	Cl	-0.821881	0.081033	0.000041
Cl172	Cl	-0.321881	0.581033	0.500041
Cl173	Cl	-1.102968	-0.190204	0.350929
Cl174	Cl	-0.602968	0.309796	0.850929
Cl175	Cl	-1.103013	-0.190200	0.649086
Cl176	Cl	-0.603013	0.309800	1.149086
H177	H	-1.093646	0.482154	-0.076931
H178	H	-0.593646	0.982154	0.423069
Cl179	Cl	-1.163478	0.281943	0.000076
Cl180	Cl	-0.663478	0.781943	0.500076
H181	H	-1.080535	-0.171536	0.195767
H182	H	-0.580535	0.328464	0.695767
Cl183	Cl	-1.166372	0.118420	0.000078
Cl184	Cl	-0.666372	0.618420	0.500078
Cl185	Cl	-0.406568	-0.089656	-0.148972
Cl186	Cl	0.093432	0.410344	0.351028
H187	H	-0.851762	-0.091522	0.430923
H188	H	-0.351762	0.408478	0.930923
Cl189	Cl	-1.159112	-0.099468	0.413988
Cl190	Cl	-0.659112	0.400532	0.913988
H191	H	-0.546393	-0.189542	0.073620
H192	H	-0.046393	0.310458	0.573620
H193	H	-0.402322	-0.189392	0.069002
H194	H	0.097678	0.310608	0.569002
Cl195	Cl	-0.874453	0.000105	0.178950
Cl196	Cl	-0.374453	0.500105	0.678950
