data_functionalizedCrystal
_audit_creation_method	'MofGen! by Chris Wilmer'
_symmetry_space_group_name_H-M	'P1'
_symmetry_Int_Tables_number	1
_symmetry_cell_setting	triclinic
loop_
_symmetry_equiv_pos_as_xyz
  x,y,z
_cell_length_a	17.077404
_cell_length_b	11.169416
_cell_length_c	17.077396
_cell_angle_alpha	89.977334
_cell_angle_beta	89.980499
_cell_angle_gamma	90.010565
loop_
_atom_site_label
_atom_site_type_symbol
_atom_site_fract_x
_atom_site_fract_y
_atom_site_fract_z
Zn1	Zn	1.200123	-0.477800	-0.443874
Zn2	Zn	1.533456	-0.144467	-0.110541
Zn3	Zn	1.866790	0.188867	0.222792
Zn4	Zn	1.200059	-0.678512	-0.312622
Zn5	Zn	1.533392	-0.345178	0.020712
Zn6	Zn	1.866726	-0.011845	0.354045
Zn7	Zn	1.068855	-0.477842	-0.312622
Zn8	Zn	1.402188	-0.144509	0.020711
Zn9	Zn	1.735522	0.188825	0.354044
Zn10	Zn	1.068852	-0.678440	-0.443845
Zn11	Zn	1.402185	-0.345107	-0.110512
Zn12	Zn	1.735518	-0.011774	0.222821
O13	O	1.134472	-0.578149	-0.378241
O14	O	1.467805	-0.244815	-0.044908
O15	O	1.801139	0.088518	0.288426
O16	O	1.309961	-0.504437	-0.426475
O17	O	1.643295	-0.171104	-0.093142
O18	O	1.976628	0.162230	0.240191
O19	O	1.182629	-0.651940	-0.202775
O20	O	1.515962	-0.318607	0.130558
O21	O	1.849296	0.014727	0.463892
O22	O	1.086296	-0.309887	-0.330046
O23	O	1.419629	0.023447	0.003288
O24	O	1.752963	0.356780	0.336621
O25	O	1.309914	-0.651899	-0.330045
O26	O	1.643248	-0.318566	0.003289
O27	O	1.976581	0.014768	0.336622
O28	O	1.182738	-0.309856	-0.426476
O29	O	1.516072	0.023478	-0.093143
O30	O	1.849405	0.356811	0.240191
O31	O	1.086234	-0.504509	-0.202775
O32	O	1.419567	-0.171175	0.130558
O33	O	1.752901	0.162158	0.463891
O34	O	0.959008	-0.504440	-0.330017
O35	O	1.292341	-0.171106	0.003316
O36	O	1.625674	0.162227	0.336649
O37	O	1.086291	-0.651778	-0.553696
O38	O	1.419624	-0.318444	-0.220363
O39	O	1.752957	0.014889	0.112970
O40	O	0.959005	-0.651818	-0.426426
O41	O	1.292338	-0.318485	-0.093093
O42	O	1.625672	0.014848	0.240240
O43	O	1.182735	-0.504368	-0.553718
O44	O	1.516068	-0.171035	-0.220384
O45	O	1.849402	0.162299	0.112949
O46	O	1.182626	-0.846452	-0.330016
O47	O	1.515959	-0.513119	0.003317
O48	O	1.849292	-0.179785	0.336650
O49	O	1.086228	-0.846400	-0.426426
O50	O	1.419562	-0.513066	-0.093093
O51	O	1.752895	-0.179733	0.240241
C52	C	0.930524	-0.578127	-0.378219
C53	C	1.263858	-0.244793	-0.044886
C54	C	1.597191	0.088540	0.288447
C55	C	0.843274	-0.578146	-0.378229
C56	C	1.176608	-0.244813	-0.044895
C57	C	1.509941	0.088520	0.288438
C58	C	0.802304	-0.655002	-0.428348
C59	C	1.135637	-0.321669	-0.095015
C60	C	1.468970	0.011664	0.238318
C61	C	0.720323	-0.655005	-0.428361
C62	C	1.053656	-0.321672	-0.095028
C63	C	1.386990	0.011662	0.238306
C64	C	0.679315	-0.578157	-0.378249
C65	C	1.012648	-0.244823	-0.044916
C66	C	1.345982	0.088510	0.288417
C67	C	0.720292	-0.501292	-0.328127
C68	C	1.053625	-0.167959	0.005206
C69	C	1.386958	0.165374	0.338539
C70	C	0.802271	-0.501285	-0.328119
C71	C	1.135604	-0.167951	0.005214
C72	C	1.468937	0.165382	0.338547
C73	C	0.549422	-0.501316	-0.328146
C74	C	0.882755	-0.167983	0.005187
C75	C	1.216088	0.165351	0.338520
C76	C	0.467437	-0.501325	-0.328153
C77	C	0.800770	-0.167992	0.005180
C78	C	1.134104	0.165342	0.338514
C79	C	0.467474	-0.655036	-0.428388
C80	C	0.800807	-0.321703	-0.095054
C81	C	1.134141	0.011630	0.238279
C82	C	0.549453	-0.655029	-0.428380
C83	C	0.882786	-0.321695	-0.095046
C84	C	1.216120	0.011638	0.238287
C85	C	0.590424	-0.578165	-0.378257
C86	C	0.923757	-0.244832	-0.044923
C87	C	1.257091	0.088501	0.288410
C88	C	1.134441	-0.889973	-0.378235
C89	C	1.467774	-0.556640	-0.044902
C90	C	1.801108	-0.223307	0.288432
C91	C	1.134500	-1.023373	-0.378259
C92	C	1.467833	-0.690040	-0.044925
C93	C	1.801166	-0.356706	0.288408
C94	C	1.339216	-0.578171	-0.378263
C95	C	1.672550	-0.244838	-0.044930
C96	C	2.005883	0.088495	0.288403
C97	C	1.426466	-0.578181	-0.378273
C98	C	1.759799	-0.244848	-0.044939
C99	C	2.093133	0.088486	0.288394
C100	C	1.134520	-0.578060	-0.582985
C101	C	1.467853	-0.244727	-0.249652
C102	C	1.801186	0.088607	0.083681
C103	C	1.134540	-0.578022	-0.670235
C104	C	1.467873	-0.244689	-0.336902
C105	C	1.801206	0.088644	-0.003569
C106	C	1.134525	-0.265106	-0.378264
C107	C	1.467858	0.068227	-0.044931
C108	C	1.801191	0.401560	0.288402
C109	C	1.134547	-0.131706	-0.378274
C110	C	1.467880	0.201627	-0.044941
C111	C	1.801214	0.534960	0.288393
C112	C	1.184760	-0.501260	-0.711238
C113	C	1.518094	-0.167926	-0.377904
C114	C	1.851427	0.165407	-0.044571
C115	C	1.184770	-0.501220	-0.793218
C116	C	1.518103	-0.167886	-0.459885
C117	C	1.851436	0.165447	-0.126552
C118	C	1.134562	-0.577949	-0.834195
C119	C	1.467895	-0.244616	-0.500861
C120	C	1.801229	0.088717	-0.167528
C121	C	1.084336	-0.654715	-0.793186
C122	C	1.417669	-0.321382	-0.459853
C123	C	1.751003	0.011951	-0.126520
C124	C	1.084323	-0.654748	-0.711207
C125	C	1.417657	-0.321415	-0.377874
C126	C	1.750990	0.011918	-0.044541
C127	C	1.084368	-0.654643	-0.964057
C128	C	1.417701	-0.321310	-0.630723
C129	C	1.751034	0.012023	-0.297390
C130	C	1.084381	-0.654612	-1.046041
C131	C	1.417715	-0.321279	-0.712708
C132	C	1.751048	0.012054	-0.379375
C133	C	1.184814	-0.501115	-1.046067
C134	C	1.518148	-0.167781	-0.712734
C135	C	1.851481	0.165552	-0.379401
C136	C	1.184801	-0.501148	-0.964088
C137	C	1.518135	-0.167814	-0.630755
C138	C	1.851468	0.165519	-0.297422
C139	C	1.134576	-0.577916	-0.923086
C140	C	1.467909	-0.244582	-0.589752
C141	C	1.801243	0.088751	-0.256419
C142	C	1.134470	-0.578150	-0.174293
C143	C	1.467803	-0.244817	0.159040
C144	C	1.801137	0.088517	0.492373
C145	C	1.134602	-0.577850	-0.087044
C146	C	1.467935	-0.244516	0.246290
C147	C	1.801268	0.088817	0.579623
H148	H	0.434112	-0.717618	-0.469202
H149	H	0.767445	-0.384284	-0.135869
H150	H	1.100778	-0.050951	0.197465
H151	H	1.225666	-0.438715	-0.826599
H152	H	1.559000	-0.105382	-0.493266
H153	H	1.892333	0.227952	-0.159932
H154	H	1.043457	-0.717137	-0.930675
H155	H	1.376790	-0.383804	-0.597341
H156	H	1.710123	-0.050471	-0.264008
H157	H	1.225708	-0.438605	-1.079456
H158	H	1.559041	-0.105272	-0.746122
H159	H	1.892375	0.228061	-0.412789
H160	H	0.686896	-0.438716	-0.287329
H161	H	1.020230	-0.105383	0.046004
H162	H	1.353563	0.227951	0.379338
H163	H	0.835687	-0.717585	-0.469153
H164	H	1.169020	-0.384252	-0.135819
H165	H	1.502353	-0.050918	0.197514
H166	H	0.686968	-0.717590	-0.469173
H167	H	1.020302	-0.384256	-0.135839
H168	H	1.353635	-0.050923	0.197494
H169	H	1.043496	-0.717090	-1.079402
H170	H	1.376829	-0.383756	-0.746069
H171	H	1.710163	-0.050423	-0.412735
H172	H	0.434050	-0.438734	-0.287357
H173	H	0.767384	-0.105401	0.045976
H174	H	1.100717	0.227933	0.379310
H175	H	1.225648	-0.438781	-0.677881
H176	H	1.558981	-0.105448	-0.344547
H177	H	1.892314	0.227885	-0.011214
Br178	Br	0.605025	-0.396998	-0.260123
Br179	Br	0.938358	-0.063665	0.073210
Br180	Br	1.271691	0.269668	0.406544
Br181	Br	1.016191	-0.758843	-0.848796
Br182	Br	1.349524	-0.425510	-0.515463
Br183	Br	1.682858	-0.092176	-0.182130
H184	H	0.582840	-0.717612	-0.469181
H185	H	0.916173	-0.384278	-0.135847
H186	H	1.249506	-0.050945	0.197486
Br187	Br	1.252948	-0.397024	-0.908477
Br188	Br	1.586281	-0.063691	-0.575144
Br189	Br	1.919615	0.269642	-0.241811
Br190	Br	1.016159	-0.758923	-0.655560
Br191	Br	1.349493	-0.425590	-0.322227
Br192	Br	1.682826	-0.092256	0.011107
H193	H	0.835628	-0.438694	-0.287311
H194	H	1.168961	-0.105361	0.046022
H195	H	1.502295	0.227972	0.379356
