data_functionalizedCrystal
_audit_creation_method	'MofGen! by Chris Wilmer'
_symmetry_space_group_name_H-M	'P1'
_symmetry_Int_Tables_number	1
_symmetry_cell_setting	triclinic
loop_
_symmetry_equiv_pos_as_xyz
  x,y,z
_cell_length_a	19.121379
_cell_length_b	16.625546
_cell_length_c	16.625539
_cell_angle_alpha	90.030397
_cell_angle_beta	87.585746
_cell_angle_gamma	92.463154
loop_
_atom_site_label
_atom_site_type_symbol
_atom_site_fract_x
_atom_site_fract_y
_atom_site_fract_z
Zn1	Zn	-1.073729	0.268438	-0.403463
Zn2	Zn	-0.823729	0.518438	-0.153463
Zn3	Zn	-0.573729	0.768438	0.096537
Zn4	Zn	-0.323729	1.018438	0.346537
Zn5	Zn	-1.073644	0.403286	-0.268629
Zn6	Zn	-0.823644	0.653286	-0.018629
Zn7	Zn	-0.573644	0.903286	0.231371
Zn8	Zn	-0.323644	1.153286	0.481371
Zn9	Zn	-0.956278	0.274216	-0.274379
Zn10	Zn	-0.706278	0.524216	-0.024379
Zn11	Zn	-0.456278	0.774216	0.225621
Zn12	Zn	-0.206278	1.024216	0.475621
Zn13	Zn	-0.956252	0.408984	-0.409152
Zn14	Zn	-0.706252	0.658984	-0.159152
Zn15	Zn	-0.456252	0.908984	0.090848
Zn16	Zn	-0.206252	1.158984	0.340848
O17	O	-1.014976	0.338731	-0.338906
O18	O	-0.764976	0.588731	-0.088906
O19	O	-0.514976	0.838731	0.161094
O20	O	-0.264976	1.088731	0.411094
O21	O	-1.172000	0.281524	-0.380790
O22	O	-0.922000	0.531524	-0.130790
O23	O	-0.672000	0.781524	0.119210
O24	O	-0.422000	1.031524	0.369210
O25	O	-1.058051	0.386198	-0.156561
O26	O	-0.808051	0.636198	0.093439
O27	O	-0.558051	0.886198	0.343439
O28	O	-0.308051	1.136198	0.593439
O29	O	-0.971904	0.160615	-0.291528
O30	O	-0.721904	0.410615	-0.041528
O31	O	-0.471904	0.660615	0.208472
O32	O	-0.221904	0.910615	0.458472
O33	O	-1.171939	0.380595	-0.281728
O34	O	-0.921939	0.630595	-0.031728
O35	O	-0.671939	0.880595	0.218272
O36	O	-0.421939	1.130595	0.468272
O37	O	-1.058195	0.156370	-0.386365
O38	O	-0.808195	0.406370	-0.136365
O39	O	-0.558195	0.656370	0.113635
O40	O	-0.308195	0.906370	0.363635
O41	O	-0.971822	0.291371	-0.160785
O42	O	-0.721822	0.541371	0.089215
O43	O	-0.471822	0.791371	0.339215
O44	O	-0.221822	1.041371	0.589215
O45	O	-0.857991	0.296896	-0.297044
O46	O	-0.607991	0.546896	-0.047044
O47	O	-0.357991	0.796896	0.202956
O48	O	-0.107991	1.046896	0.452956
O49	O	-0.971860	0.390307	-0.521229
O50	O	-0.721860	0.640307	-0.271229
O51	O	-0.471860	0.890307	-0.021229
O52	O	-0.221860	1.140307	0.228771
O53	O	-0.857972	0.395909	-0.396061
O54	O	-0.607972	0.645909	-0.146061
O55	O	-0.357972	0.895909	0.103939
O56	O	-0.107972	1.145909	0.353939
O57	O	-1.058170	0.287049	-0.517049
O58	O	-0.808170	0.537049	-0.267049
O59	O	-0.558170	0.787049	-0.017049
O60	O	-0.308170	1.037049	0.232951
O61	O	-1.058026	0.516876	-0.287245
O62	O	-0.808026	0.766876	-0.037245
O63	O	-0.558026	1.016876	0.212755
O64	O	-0.308026	1.266876	0.462755
O65	O	-0.971778	0.521062	-0.390486
O66	O	-0.721778	0.771062	-0.140486
O67	O	-0.471778	1.021062	0.109514
O68	O	-0.221778	1.271062	0.359514
C69	C	-0.832498	0.347648	-0.347795
C70	C	-0.582498	0.597648	-0.097795
C71	C	-0.332498	0.847648	0.152205
C72	C	-0.082498	1.097648	0.402205
C73	C	-0.754434	0.351483	-0.351616
C74	C	-0.504434	0.601483	-0.101616
C75	C	-0.254434	0.851483	0.148384
C76	C	-0.004434	1.101483	0.398384
C77	C	-0.717748	0.301655	-0.301944
C78	C	-0.467748	0.551655	-0.051944
C79	C	-0.217748	0.801655	0.198056
C80	C	0.032252	1.051655	0.448056
C81	C	-0.644398	0.305265	-0.305534
C82	C	-0.394398	0.555265	-0.055534
C83	C	-0.144398	0.805265	0.194466
C84	C	0.105602	1.055265	0.444466
C85	C	-0.607735	0.358698	-0.358802
C86	C	-0.357735	0.608698	-0.108802
C87	C	-0.107735	0.858698	0.141198
C88	C	0.142265	1.108698	0.391198
C89	C	-0.644426	0.408531	-0.408477
C90	C	-0.394426	0.658531	-0.158477
C91	C	-0.144426	0.908531	0.091523
C92	C	0.105574	1.158531	0.341523
C93	C	-0.717774	0.404925	-0.404882
C94	C	-0.467774	0.654925	-0.154882
C95	C	-0.217774	0.904925	0.095118
C96	C	0.032226	1.154925	0.345118
C97	C	-0.386270	0.372173	-0.372229
C98	C	-0.136270	0.622173	-0.122229
C99	C	0.113730	0.872173	0.127771
C100	C	0.363730	1.122173	0.377771
C101	C	-0.312916	0.375774	-0.375822
C102	C	-0.062916	0.625774	-0.125822
C103	C	0.187084	0.875774	0.124178
C104	C	0.437084	1.125774	0.374178
C105	C	-0.312893	0.272509	-0.272878
C106	C	-0.062893	0.522509	-0.022878
C107	C	0.187107	0.772509	0.227122
C108	C	0.437107	1.022509	0.477122
C109	C	-0.386243	0.268904	-0.269291
C110	C	-0.136243	0.518904	-0.019291
C111	C	0.113757	0.768904	0.230709
C112	C	0.363757	1.018904	0.480709
C113	C	-0.422928	0.318739	-0.318962
C114	C	-0.172928	0.568739	-0.068962
C115	C	0.077072	0.818739	0.181038
C116	C	0.327072	1.068739	0.431038
C117	C	-0.532759	0.362388	-0.362476
C118	C	-0.282759	0.612388	-0.112476
C119	C	-0.032759	0.862388	0.137524
C120	C	0.217241	1.112388	0.387524
C121	C	-0.497902	0.315054	-0.315285
C122	C	-0.247902	0.565054	-0.065285
C123	C	0.002098	0.815054	0.184715
C124	C	0.252098	1.065054	0.434715
C125	C	-1.014909	0.548225	-0.338875
C126	C	-0.764909	0.798225	-0.088875
C127	C	-0.514909	1.048225	0.161125
C128	C	-0.264909	1.298225	0.411125
C129	C	-1.014945	0.637844	-0.338886
C130	C	-0.764945	0.887844	-0.088886
C131	C	-0.514945	1.137844	0.161114
C132	C	-0.264945	1.387844	0.411114
C133	C	-1.015021	0.338669	-0.549213
C134	C	-0.765021	0.588669	-0.299213
C135	C	-0.515021	0.838669	-0.049213
C136	C	-0.265021	1.088669	0.200787
C137	C	-1.015041	0.338642	-0.638833
C138	C	-0.765041	0.588642	-0.388833
C139	C	-0.515041	0.838642	-0.138833
C140	C	-0.265041	1.088642	0.111167
C141	C	-0.198166	0.329775	-0.329975
C142	C	0.051834	0.579775	-0.079975
C143	C	0.301834	0.829775	0.170025
C144	C	0.551834	1.079775	0.420025
C145	C	-0.276230	0.325947	-0.326149
C146	C	-0.026230	0.575947	-0.076149
C147	C	0.223770	0.825947	0.173851
C148	C	0.473770	1.075947	0.423851
C149	C	-1.015062	0.128418	-0.338953
C150	C	-0.765062	0.378418	-0.088953
C151	C	-0.515062	0.628418	0.161047
C152	C	-0.265062	0.878418	0.411047
C153	C	-1.015098	0.038795	-0.338973
C154	C	-0.765098	0.288795	-0.088973
C155	C	-0.515098	0.538795	0.161027
C156	C	-0.265098	0.788795	0.411027
C157	C	-1.015068	0.966014	-0.338964
C158	C	-0.765068	1.216014	-0.088964
C159	C	-0.515068	1.466014	0.161036
C160	C	-0.265068	1.716014	0.411036
C161	C	-1.015031	0.874707	-0.338945
C162	C	-0.765031	1.124707	-0.088945
C163	C	-0.515031	1.374707	0.161055
C164	C	-0.265031	1.624707	0.411055
C165	C	-1.015006	0.801932	-0.338925
C166	C	-0.765006	1.051932	-0.088925
C167	C	-0.515006	1.301932	0.161075
C168	C	-0.265006	1.551932	0.411075
C169	C	-1.014971	0.710620	-0.338906
C170	C	-0.764971	0.960620	-0.088906
C171	C	-0.514971	1.210620	0.161094
C172	C	-0.264971	1.460620	0.411094
C173	C	-1.015073	0.338550	-0.967007
C174	C	-0.765073	0.588550	-0.717007
C175	C	-0.515073	0.838550	-0.467007
C176	C	-0.265073	1.088550	-0.217007
C177	C	-1.015062	0.338578	-0.875699
C178	C	-0.765062	0.588578	-0.625699
C179	C	-0.515062	0.838578	-0.375699
C180	C	-0.265062	1.088578	-0.125699
C181	C	-1.015057	0.338597	-0.802923
C182	C	-0.765057	0.588597	-0.552923
C183	C	-0.515057	0.838597	-0.302923
C184	C	-0.265057	1.088597	-0.052923
C185	C	-1.015046	0.338624	-0.711609
C186	C	-0.765046	0.588624	-0.461609
C187	C	-0.515046	0.838624	-0.211609
C188	C	-0.265046	1.088624	0.038391
C189	C	-1.014971	0.338733	-0.129415
C190	C	-0.764971	0.588733	0.120585
C191	C	-0.514971	0.838733	0.370585
C192	C	-0.264971	1.088733	0.620585
C193	C	-1.015087	0.338526	-0.039789
C194	C	-0.765087	0.588526	0.210211
C195	C	-0.515087	0.838526	0.460211
C196	C	-0.265087	1.088526	0.710211
H197	H	-0.527756	0.271552	-0.271911
H198	H	-0.277756	0.521552	-0.021911
H199	H	-0.027756	0.771552	0.228089
H200	H	0.222244	1.021552	0.478089
H201	H	-0.747594	0.258138	-0.258573
H202	H	-0.497594	0.508138	-0.008573
H203	H	-0.247594	0.758138	0.241427
H204	H	0.002406	1.008138	0.491427
N205	N	-0.425771	0.211268	-0.211830
N206	N	-0.175771	0.461268	0.038170
N207	N	0.074229	0.711268	0.288170
N208	N	0.324229	0.961268	0.538170
H209	H	-0.456183	0.242486	-0.172911
H210	H	-0.206183	0.492486	0.077089
H211	H	0.043817	0.742486	0.327089
H212	H	0.293817	0.992486	0.577089
H213	H	-0.456182	0.172455	-0.243229
H214	H	-0.206182	0.422455	0.006771
H215	H	0.043818	0.672455	0.256771
H216	H	0.293818	0.922455	0.506771
N217	N	-0.273327	0.218777	-0.219290
N218	N	-0.023327	0.468777	0.030710
N219	N	0.226673	0.718777	0.280710
N220	N	0.476673	0.968777	0.530710
H221	H	-0.221298	0.229172	-0.229642
H222	H	0.028702	0.479172	0.020358
H223	H	0.278702	0.729172	0.270358
H224	H	0.528702	0.979172	0.520358
H225	H	-0.286129	0.230641	-0.161060
H226	H	-0.036129	0.480641	0.088940
H227	H	0.213871	0.730641	0.338940
H228	H	0.463871	0.980641	0.588940
N229	N	-0.273370	0.433401	-0.433285
N230	N	-0.023370	0.683401	-0.183285
N231	N	0.226630	0.933401	0.066715
N232	N	0.476630	1.183401	0.316715
H233	H	-0.307738	0.464424	-0.464208
H234	H	-0.057738	0.714424	-0.214208
H235	H	0.192262	0.964424	0.035792
H236	H	0.442262	1.214424	0.285792
H237	H	-0.242909	0.472167	-0.401893
H238	H	0.007091	0.722167	-0.151893
H239	H	0.257091	0.972167	0.098107
H240	H	0.507091	1.222167	0.348107
H241	H	-0.416129	0.412753	-0.412675
H242	H	-0.166129	0.662753	-0.162675
H243	H	0.083871	0.912753	0.087325
H244	H	0.333871	1.162753	0.337325
N245	N	-0.604829	0.251526	-0.251956
N246	N	-0.354829	0.501526	-0.001956
N247	N	-0.104829	0.751526	0.248044
N248	N	0.145171	1.001526	0.498044
H249	H	-0.639185	0.217126	-0.217669
H250	H	-0.389185	0.467126	0.032331
H251	H	-0.139185	0.717126	0.282331
H252	H	0.110815	0.967126	0.532331
H253	H	-0.574415	0.215751	-0.286335
H254	H	-0.324415	0.465751	-0.036335
H255	H	-0.074415	0.715751	0.213665
H256	H	0.175585	0.965751	0.463665
N257	N	-0.604886	0.466170	-0.465925
N258	N	-0.354886	0.716170	-0.215925
N259	N	-0.104886	0.966170	0.034075
N260	N	0.145114	1.216170	0.284075
H261	H	-0.552853	0.460893	-0.460668
H262	H	-0.302853	0.710893	-0.210668
H263	H	-0.052853	0.960893	0.039332
H264	H	0.197147	1.210893	0.289332
H265	H	-0.617736	0.453064	-0.522904
H266	H	-0.367736	0.703064	-0.272904
H267	H	-0.117736	0.953064	-0.022904
H268	H	0.132264	1.203064	0.227096
H269	H	-0.747643	0.445499	-0.445330
H270	H	-0.497643	0.695499	-0.195330
H271	H	-0.247643	0.945499	0.054670
H272	H	0.002357	1.195499	0.304670
H273	H	-0.502900	0.405892	-0.405847
H274	H	-0.252900	0.655892	-0.155847
H275	H	-0.002900	0.905892	0.094153
H276	H	0.247100	1.155892	0.344153
