data_functionalizedCrystal
_audit_creation_method	'MofGen! by Chris Wilmer'
_symmetry_space_group_name_H-M	'P1'
_symmetry_Int_Tables_number	1
_symmetry_cell_setting	triclinic
loop_
_symmetry_equiv_pos_as_xyz
  x,y,z
_cell_length_a	6.817900
_cell_length_b	11.102244
_cell_length_c	17.982968
_cell_angle_alpha	94.232195
_cell_angle_beta	102.451960
_cell_angle_gamma	108.604870
loop_
_atom_site_label
_atom_site_type_symbol
_atom_site_fract_x
_atom_site_fract_y
_atom_site_fract_z
V1	V	-4.041367	-0.177029	-0.237546
O2	O	-4.001741	0.007282	-0.233027
O3	O	-4.018618	-0.349840	-0.235920
O4	O	-3.987550	-0.174843	-0.341150
O5	O	-4.033024	-0.168927	-0.127068
V6	V	-4.522373	-0.154920	-0.224333
O7	O	-4.308146	-0.225527	-0.266532
O8	O	-4.705791	-0.106421	-0.195347
O9	O	-4.321915	0.017892	-0.225959
O10	O	-4.679396	-0.339231	-0.228853
O11	O	-4.648112	-0.163022	-0.334811
O12	O	-4.352983	-0.157105	-0.120730
C13	C	-3.870034	-0.391951	-0.232172
C14	C	-3.932685	-0.533230	-0.231533
C15	C	-3.922552	-0.581114	-0.161465
C16	C	-3.981432	-0.713863	-0.160873
C17	C	-4.060567	-0.750835	-0.300423
C18	C	-4.001702	-0.618088	-0.301014
C19	C	-3.876856	-0.559769	-0.080897
C20	C	-3.935736	-0.692519	-0.080305
C21	C	-3.830402	-0.168724	-0.366402
C22	C	-3.867854	-0.168080	-0.451098
C23	C	-4.068315	-0.174146	-0.494770
C24	C	-4.103492	-0.173541	-0.574350
C25	C	-3.938211	-0.166878	-0.610259
C26	C	-3.737732	-0.160808	-0.566581
C27	C	-3.702553	-0.161404	-0.487001
C28	C	-3.879603	-0.158401	-0.887518
C29	C	-3.914801	-0.157809	-0.967104
C30	C	-4.280542	-0.170538	-0.974867
C31	C	-4.245363	-0.171134	-0.895287
C32	C	-4.044885	-0.165057	-0.851616
C33	C	-4.006742	-0.165711	-0.765325
C34	C	-3.976356	-0.166233	-0.696549
C35	C	-4.133842	0.059996	-0.229705
C36	C	-4.050429	0.201274	-0.230349
C37	C	-4.173474	-0.163229	-0.095473
C38	C	-4.115259	-0.163866	-0.010776
H39	H	-3.699556	-0.506828	-0.053071
O40	O	-3.684909	-0.152420	-0.845024
C41	C	-3.378906	-0.035396	-0.740210
C42	C	-3.599285	-0.041904	-0.788306
H43	H	-3.309633	0.053935	-0.694332
H44	H	-3.266599	-0.030509	-0.779462
H45	H	-3.397408	-0.124862	-0.711196
H46	H	-3.580988	0.047540	-0.817326
H47	H	-3.711511	-0.046855	-0.749017
O48	O	-4.004424	-0.512834	-0.047774
C49	C	-4.260655	-0.403234	-0.063975
C50	C	-4.116250	-0.456301	-0.101573
H51	H	-4.351138	-0.357539	-0.107458
H52	H	-4.158079	-0.327794	-0.011743
H53	H	-4.379770	-0.485177	-0.044898
H54	H	-3.997112	-0.374445	-0.120697
H55	H	-4.218962	-0.531775	-0.153771
H56	H	-3.793759	-0.715367	-0.046297
H57	H	-4.202915	-0.179580	-0.465540
O58	O	-4.405964	-0.177834	-0.860394
C59	C	-4.632553	-0.296517	-0.785352
C60	C	-4.450689	-0.289107	-0.824847
H61	H	-4.668739	-0.386460	-0.756588
H62	H	-4.781977	-0.300832	-0.830212
H63	H	-4.581469	-0.207676	-0.739968
H64	H	-4.501569	-0.377926	-0.870226
H65	H	-4.301310	-0.284728	-0.779941
H66	H	-4.084687	-0.732209	-0.058129
H67	H	-4.266720	-0.178473	-0.609904
O68	O	-4.127644	-0.833092	-0.367985
C69	C	-4.199804	-0.855746	-0.506458
C70	C	-4.123850	-0.762453	-0.430000
H71	H	-4.196720	-0.798670	-0.556617
H72	H	-4.369805	-0.923779	-0.512640
H73	H	-4.088964	-0.913865	-0.506713
H74	H	-4.234536	-0.704248	-0.429692
H75	H	-3.953810	-0.694506	-0.423849
H76	H	-4.443782	-0.175481	-1.010434
H77	H	-3.780195	-0.152380	-0.996338
H78	H	-3.603157	-0.155375	-0.595823
H79	H	-3.539304	-0.156433	-0.451441
H80	H	-4.009974	-0.579109	-0.358070
