data_functionalizedCrystal
_audit_creation_method	'MofGen! by Chris Wilmer'
_symmetry_space_group_name_H-M	'P1'
_symmetry_Int_Tables_number	1
_symmetry_cell_setting	triclinic
loop_
_symmetry_equiv_pos_as_xyz
  x,y,z
_cell_length_a	14.519709
_cell_length_b	9.065218
_cell_length_c	8.140239
_cell_angle_alpha	90.004899
_cell_angle_beta	89.995533
_cell_angle_gamma	95.651952
loop_
_atom_site_label
_atom_site_type_symbol
_atom_site_fract_x
_atom_site_fract_y
_atom_site_fract_z
O1	O	0.135226	-1.957864	-0.136702
O2	O	0.146318	-1.528371	-0.136687
O3	O	0.006617	-1.754505	-0.136680
O4	O	0.274927	-1.731730	-0.136709
O5	O	0.006615	-1.754492	0.136547
O6	O	0.146316	-1.528358	0.136540
O7	O	0.135224	-1.957851	0.136525
Zn8	Zn	0.140770	-1.743103	0.179913
Zn9	Zn	0.140772	-1.743119	-0.180075
O10	O	0.274925	-1.731717	0.136518
C11	C	0.145251	-1.473398	-0.000071
C12	C	0.142063	-1.309615	-0.000065
C13	C	-0.027752	-1.753437	-0.000066
C14	C	-0.130156	-1.750256	-0.000065
C15	C	-0.505138	-1.738547	-0.000107
C16	C	-0.400806	-1.741799	-0.000095
C17	C	-0.317650	-1.744401	-0.000085
C18	C	-0.213312	-1.747654	-0.000075
C19	C	0.309294	-1.732785	-0.000099
C20	C	0.411698	-1.735966	-0.000111
N21	N	0.140768	-1.743102	0.425596
C22	C	0.136291	-1.012824	-0.000084
C23	C	0.139478	-1.176607	-0.000070
N24	N	0.140767	-1.743131	-0.425758
