data_functionalizedCrystal
_audit_creation_method	'MofGen! by Chris Wilmer'
_symmetry_space_group_name_H-M	'P1'
_symmetry_Int_Tables_number	1
_symmetry_cell_setting	triclinic
loop_
_symmetry_equiv_pos_as_xyz
  x,y,z
_cell_length_a	19.188900
_cell_length_b	17.666332
_cell_length_c	19.188930
_cell_angle_alpha	90.006765
_cell_angle_beta	96.861366
_cell_angle_gamma	89.985047
loop_
_atom_site_label
_atom_site_type_symbol
_atom_site_fract_x
_atom_site_fract_y
_atom_site_fract_z
O1	O	-0.926161	0.063104	0.087064
O2	O	-0.592827	0.396437	0.420397
O3	O	-0.259494	0.729770	0.753731
O4	O	-0.722846	0.063074	0.098820
O5	O	-0.389513	0.396407	0.432154
O6	O	-0.056180	0.729741	0.765487
O7	O	-0.830371	0.063075	-0.008714
O8	O	-0.497037	0.396408	0.324619
O9	O	-0.163704	0.729742	0.657953
O10	O	-0.818636	0.063103	0.194599
O11	O	-0.485303	0.396436	0.527932
O12	O	-0.151970	0.729769	0.861265
O13	O	-0.830357	-0.062822	-0.008710
O14	O	-0.497023	0.270511	0.324623
O15	O	-0.163690	0.603845	0.657956
O16	O	-0.722832	-0.062823	0.098824
O17	O	-0.389499	0.270511	0.432157
O18	O	-0.056166	0.603844	0.765491
O19	O	-0.926146	-0.062793	0.087068
O20	O	-0.592813	0.270540	0.420401
O21	O	-0.259480	0.603874	0.753734
Cu22	Cu	-0.824488	-0.074303	0.092946
Cu23	Cu	-0.491155	0.259030	0.426279
Cu24	Cu	-0.157821	0.592363	0.759613
Cu25	Cu	-0.824505	0.074584	0.092942
Cu26	Cu	-0.491172	0.407918	0.426275
Cu27	Cu	-0.157838	0.741251	0.759609
O28	O	-0.818622	-0.062794	0.194602
O29	O	-0.485289	0.270539	0.527935
O30	O	-0.151955	0.603873	0.861269
C31	C	-0.696828	0.000122	0.098445
C32	C	-0.363495	0.333455	0.431778
C33	C	-0.030161	0.666788	0.765112
C34	C	-0.619322	0.000110	0.097313
C35	C	-0.285989	0.333443	0.430646
C36	C	0.047344	0.666776	0.763979
N37	N	-0.824481	-0.179023	0.092949
N38	N	-0.491148	0.154311	0.426282
N39	N	-0.157815	0.487644	0.759615
C40	C	-0.582938	0.068737	0.096767
C41	C	-0.249605	0.402070	0.430100
C42	C	0.083728	0.735404	0.763433
C43	C	-0.510114	0.068745	0.095695
C44	C	-0.176781	0.402078	0.429028
C45	C	0.156552	0.735411	0.762362
C46	C	-0.473679	0.000121	0.095155
C47	C	-0.140346	0.333454	0.428488
C48	C	0.192987	0.666788	0.761822
C49	C	-0.510072	-0.068516	0.095705
C50	C	-0.176738	0.264818	0.429038
C51	C	0.156595	0.598151	0.762372
C52	C	-0.582893	-0.068521	0.096784
C53	C	-0.249560	0.264812	0.430117
C54	C	0.083773	0.598146	0.763450
N55	N	-0.364653	-0.050957	0.053730
N56	N	-0.031320	0.282377	0.387063
N57	N	0.302014	0.615710	0.720397
N58	N	-0.295476	-0.050947	0.052704
N59	N	0.037857	0.282386	0.386037
N60	N	0.371191	0.615720	0.719370
C61	C	-0.254272	0.000133	0.091907
C62	C	0.079061	0.333467	0.425240
C63	C	0.412394	0.666800	0.758573
N64	N	-0.284860	0.051215	0.132166
N65	N	0.048473	0.384548	0.465499
N66	N	0.381807	0.717882	0.798832
N67	N	-0.354044	0.051207	0.133189
N68	N	-0.020711	0.384541	0.466522
N69	N	0.312623	0.717874	0.799855
C70	C	-0.394717	0.000119	0.093986
C71	C	-0.061383	0.333453	0.427319
C72	C	0.271950	0.666786	0.760653
C73	C	-0.138924	0.068774	0.090200
C74	C	0.194409	0.402107	0.423533
C75	C	0.527743	0.735440	0.756866
C76	C	-0.066098	0.068778	0.089132
C77	C	0.267235	0.402112	0.422466
C78	C	0.600568	0.735445	0.755799
C79	C	-0.066058	-0.068484	0.089135
C80	C	0.267275	0.264850	0.422469
C81	C	0.600609	0.598183	0.755802
C82	C	-0.138881	-0.068486	0.090210
C83	C	0.194452	0.264847	0.423543
C84	C	0.527785	0.598180	0.756876
C85	C	-0.175310	0.000144	0.090738
C86	C	0.158023	0.333478	0.424072
C87	C	0.491356	0.666811	0.757405
C88	C	-0.866732	-0.781059	0.135165
C89	C	-0.533399	-0.447726	0.468498
C90	C	-0.200065	-0.114393	0.801832
C91	C	-0.866725	-0.701812	0.135172
C92	C	-0.533392	-0.368478	0.468505
C93	C	-0.200058	-0.035145	0.801838
C94	C	-0.824511	-0.662204	0.092935
C95	C	-0.491178	-0.328871	0.426268
C96	C	-0.157845	0.004462	0.759601
C97	C	-0.782288	-0.701851	0.050701
C98	C	-0.448955	-0.368517	0.384034
C99	C	-0.115621	-0.035184	0.717368
C100	C	-0.782291	-0.781097	0.050701
C101	C	-0.448958	-0.447764	0.384034
C102	C	-0.115624	-0.114430	0.717367
N103	N	-0.822821	-0.537789	0.031774
N104	N	-0.489487	-0.204455	0.365108
N105	N	-0.156154	0.128878	0.698441
N106	N	-0.822822	-0.462508	0.031777
N107	N	-0.489489	-0.129175	0.365110
N108	N	-0.156155	0.204158	0.698443
C109	C	-0.824499	-0.423440	0.092935
C110	C	-0.491166	-0.090107	0.426268
C111	C	-0.157832	0.243226	0.759601
N112	N	-0.826188	-0.462496	0.154091
N113	N	-0.492855	-0.129163	0.487424
N114	N	-0.159521	0.204170	0.820758
N115	N	-0.826191	-0.537784	0.154088
N116	N	-0.492857	-0.204450	0.487421
N117	N	-0.159524	0.128883	0.820754
C118	C	-0.824503	-0.576275	0.092931
C119	C	-0.491170	-0.242942	0.426264
C120	C	-0.157836	0.090392	0.759598
C121	C	-0.866708	-0.297874	0.135177
C122	C	-0.533375	0.035459	0.468510
C123	C	-0.200042	0.368793	0.801844
C124	C	-0.866696	-0.218625	0.135185
C125	C	-0.533363	0.114709	0.468519
C126	C	-0.200030	0.448042	0.801852
C127	C	-0.782263	-0.218665	0.050708
C128	C	-0.448930	0.114668	0.384041
C129	C	-0.115597	0.448001	0.717375
C130	C	-0.782271	-0.297913	0.050706
C131	C	-0.448938	0.035420	0.384039
C132	C	-0.115604	0.368754	0.717373
C133	C	-0.824497	-0.337512	0.092939
C134	C	-0.491164	-0.004179	0.426273
C135	C	-0.157831	0.329154	0.759606
C136	C	0.047836	0.000155	0.087448
C137	C	0.381169	0.333488	0.420781
C138	C	0.714502	0.666822	0.754114
C139	C	-0.029668	0.000154	0.088594
C140	C	0.303665	0.333487	0.421927
C141	C	0.636999	0.666821	0.755260
C142	C	-0.829984	0.000124	-0.034723
C143	C	-0.496650	0.333458	0.298610
C144	C	-0.163317	0.666791	0.631943
C145	C	-0.828843	0.000118	-0.112228
C146	C	-0.495510	0.333451	0.221106
C147	C	-0.162176	0.666784	0.554439
N148	N	-0.824517	0.179304	0.092934
N149	N	-0.491184	0.512637	0.426267
N150	N	-0.157851	0.845970	0.759600
C151	C	-0.891935	0.000123	-0.157158
C152	C	-0.558601	0.333456	0.176175
C153	C	-0.225268	0.666790	0.509508
C154	C	-0.890863	0.000135	-0.229982
C155	C	-0.557530	0.333468	0.103351
C156	C	-0.224196	0.666802	0.436685
C157	C	-0.826696	0.000126	-0.257872
C158	C	-0.493363	0.333460	0.075462
C159	C	-0.160029	0.666793	0.408795
C160	C	-0.763596	0.000125	-0.212931
C161	C	-0.430263	0.333458	0.120402
C162	C	-0.096929	0.666792	0.453736
C163	C	-0.764669	0.000121	-0.140109
C164	C	-0.431336	0.333454	0.193224
C165	C	-0.098003	0.666787	0.526558
N166	N	-0.777643	-0.042726	-0.365870
N167	N	-0.444310	0.290607	-0.032537
N168	N	-0.110976	0.623941	0.300796
N169	N	-0.776628	-0.042723	-0.435049
N170	N	-0.443294	0.290610	-0.101715
N171	N	-0.109961	0.623943	0.231618
C172	C	-0.823458	0.000141	-0.477280
C173	C	-0.490124	0.333475	-0.143947
C174	C	-0.156791	0.666808	0.189387
N175	N	-0.871352	0.042994	-0.447721
N176	N	-0.538019	0.376327	-0.114388
N177	N	-0.204686	0.709660	0.218946
N178	N	-0.872370	0.042988	-0.378536
N179	N	-0.539037	0.376321	-0.045203
N180	N	-0.205703	0.709654	0.288130
C181	C	-0.825525	0.000132	-0.336834
C182	C	-0.492192	0.333465	-0.003501
C183	C	-0.158858	0.666798	0.329833
C184	C	-0.885392	0.000161	-0.601175
C185	C	-0.552059	0.333494	-0.267842
C186	C	-0.218725	0.666827	0.065492
C187	C	-0.884318	0.000177	-0.674000
C188	C	-0.550984	0.333511	-0.340666
C189	C	-0.217651	0.666844	-0.007333
C190	C	-0.757049	0.000160	-0.656947
C191	C	-0.423715	0.333493	-0.323614
C192	C	-0.090382	0.666826	0.009720
C193	C	-0.758125	0.000151	-0.584124
C194	C	-0.424792	0.333484	-0.250791
C195	C	-0.091458	0.666817	0.082543
C196	C	-0.822298	0.000148	-0.556243
C197	C	-0.488965	0.333481	-0.222909
C198	C	-0.155632	0.666814	0.110424
C199	C	-0.819009	0.000158	0.220611
C200	C	-0.485676	0.333492	0.553945
C201	C	-0.152343	0.666825	0.887278
C202	C	-0.820150	0.000170	0.298116
C203	C	-0.486817	0.333503	0.631449
C204	C	-0.153483	0.666837	0.964782
H205	H	-0.480485	0.124631	0.095252
H206	H	-0.147151	0.457964	0.428585
H207	H	0.186182	0.791298	0.761918
H208	H	-0.036393	-0.124359	0.088700
H209	H	0.296941	0.208975	0.422033
H210	H	0.630274	0.542308	0.755367
H211	H	-0.937646	0.000162	-0.578473
H212	H	-0.604312	0.333495	-0.245140
H213	H	-0.270979	0.666828	0.088194
O214	O	-0.736746	-0.340654	0.005137
O215	O	-0.403413	-0.007320	0.338470
O216	O	-0.070079	0.326013	0.671803
H217	H	-0.699110	-0.376764	0.038696
H218	H	-0.365776	-0.043431	0.372029
H219	H	-0.032443	0.289902	0.705363
O220	O	-0.961147	0.000141	-0.127084
O221	O	-0.627814	0.333474	0.206249
O222	O	-0.294480	0.666808	0.539583
H223	H	-1.004839	0.000158	-0.170567
H224	H	-0.671506	0.333491	0.162767
H225	H	-0.338172	0.666825	0.496100
O226	O	-0.958914	0.000131	-0.278457
O227	O	-0.625580	0.333464	0.054876
O228	O	-0.292247	0.666798	0.388209
H229	H	-1.003717	0.000122	-0.246835
H230	H	-0.670384	0.333455	0.086498
H231	H	-0.337050	0.666789	0.419832
H232	H	-0.901101	-0.669533	0.169564
H233	H	-0.567767	-0.336200	0.502898
H234	H	-0.234434	-0.002866	0.836231
H235	H	-0.901115	-0.813296	0.169556
H236	H	-0.567781	-0.479963	0.502889
H237	H	-0.234448	-0.146630	0.836222
H238	H	-0.711351	0.000120	-0.235643
H239	H	-0.378017	0.333453	0.097690
H240	H	-0.044684	0.666786	0.431023
O241	O	-0.952372	0.000176	-0.722463
O242	O	-0.619039	0.333510	-0.389130
O243	O	-0.285706	0.666843	-0.055796
H244	H	-0.983107	0.051484	-0.712561
H245	H	-0.649774	0.384817	-0.379228
H246	H	-0.316441	0.718150	-0.045894
O247	O	-0.696618	0.000102	-0.091640
O248	O	-0.363285	0.333435	0.241693
O249	O	-0.029952	0.666768	0.575026
H250	H	-0.651817	0.000092	-0.123265
H251	H	-0.318483	0.333425	0.210069
H252	H	0.014850	0.666759	0.543402
H253	H	-0.704803	0.000156	-0.679654
H254	H	-0.371469	0.333490	-0.346321
H255	H	-0.038136	0.666823	-0.012987
O256	O	-0.690076	0.000126	-0.535655
O257	O	-0.356742	0.333459	-0.202322
O258	O	-0.023409	0.666793	0.131011
H259	H	-0.645275	0.000113	-0.567281
H260	H	-0.311942	0.333446	-0.233947
H261	H	0.021392	0.666779	0.099386
H262	H	-0.612594	0.124622	0.097197
H263	H	-0.279261	0.457955	0.430531
H264	H	0.054072	0.791288	0.763864
O265	O	-0.470620	-0.142454	0.095378
O266	O	-0.137287	0.190879	0.428711
O267	O	0.196046	0.524213	0.762044
H268	H	-0.443692	-0.145860	0.047396
H269	H	-0.110358	0.187473	0.380730
H270	H	0.222975	0.520807	0.714063
O271	O	-0.622142	-0.142543	0.097382
O272	O	-0.288809	0.190790	0.430715
O273	O	0.044525	0.524124	0.764048
H274	H	-0.584575	-0.190263	0.096829
H275	H	-0.251242	0.143071	0.430162
H276	H	0.082092	0.476404	0.763496
H277	H	-0.036475	0.124665	0.088692
H278	H	0.296858	0.457999	0.422025
H279	H	0.630192	0.791332	0.755359
O280	O	-0.178222	0.142791	0.090782
O281	O	0.155111	0.476125	0.424116
O282	O	0.488444	0.809458	0.757449
H283	H	-0.140682	0.190516	0.090236
H284	H	0.192651	0.523849	0.423569
H285	H	0.525984	0.857182	0.756902
H286	H	-0.747913	-0.813369	0.016310
H287	H	-0.414580	-0.480036	0.349644
H288	H	-0.081246	-0.146702	0.682977
O289	O	-0.912240	-0.340594	0.180734
O290	O	-0.578906	-0.007261	0.514068
O291	O	-0.245573	0.326073	0.847401
H292	H	-0.941585	-0.299715	0.210112
H293	H	-0.608252	0.033619	0.543445
H294	H	-0.274918	0.366952	0.876779
H295	H	-0.168506	-0.124370	0.090650
H296	H	0.164827	0.208963	0.423983
H297	H	0.498160	0.542296	0.757316
O298	O	-0.736790	-0.659138	0.005109
O299	O	-0.403457	-0.325805	0.338442
O300	O	-0.070124	0.007528	0.671776
H301	H	-0.743898	-0.597374	0.012186
H302	H	-0.410565	-0.264040	0.345519
H303	H	-0.077231	0.069293	0.678853
H304	H	-0.901071	-0.186354	0.169579
H305	H	-0.567738	0.146980	0.502913
H306	H	-0.234405	0.480313	0.836246
H307	H	-0.747888	-0.186418	0.016322
H308	H	-0.414554	0.146916	0.349655
H309	H	-0.081221	0.480249	0.682989
