data_functionalizedCrystal
_audit_creation_method	'MofGen! by Chris Wilmer'
_symmetry_space_group_name_H-M	'P1'
_symmetry_Int_Tables_number	1
_symmetry_cell_setting	triclinic
loop_
_symmetry_equiv_pos_as_xyz
  x,y,z
_cell_length_a	14.908783
_cell_length_b	14.908579
_cell_length_c	11.169409
_cell_angle_alpha	93.262951
_cell_angle_beta	93.322817
_cell_angle_gamma	83.206933
loop_
_atom_site_label
_atom_site_type_symbol
_atom_site_fract_x
_atom_site_fract_y
_atom_site_fract_z
Zn1	Zn	1.363085	0.280524	0.804947
Zn2	Zn	1.354230	0.431926	0.615194
Zn3	Zn	1.211700	0.289302	0.593305
Zn4	Zn	1.202942	0.440570	0.804861
O5	O	1.282989	0.360580	0.704577
O6	O	1.488581	0.293317	0.788972
O7	O	1.335283	0.413063	0.444342
O8	O	1.239153	0.161468	0.612255
O9	O	1.482075	0.404552	0.649562
O10	O	1.350375	0.155020	0.767747
O11	O	1.230567	0.308277	0.428260
O12	O	1.083868	0.316658	0.612172
O13	O	1.224225	0.419283	0.972821
O14	O	1.077434	0.427795	0.767601
O15	O	1.341882	0.301698	0.972884
O16	O	1.326790	0.559742	0.649479
O17	O	1.215639	0.566092	0.788826
C18	C	1.047807	0.374118	0.687502
C19	C	0.947193	0.379931	0.680228
C20	C	0.764894	0.275184	0.811973
C21	C	0.670359	0.280642	0.805141
C22	C	0.663587	0.396301	0.659729
C23	C	0.758122	0.390843	0.666560
C24	C	0.808772	0.330283	0.742686
C25	C	0.903309	0.324829	0.749523
C26	C	0.896535	0.440483	0.604104
C27	C	0.802000	0.445942	0.597273
C28	C	1.269328	0.595759	0.721546
C29	C	1.263566	0.696365	0.728852
C30	C	1.368600	0.878733	0.597610
C31	C	1.363189	0.973261	0.604471
C32	C	1.247340	0.979950	0.749439
C33	C	1.252750	0.885422	0.742578
C34	C	1.313381	0.834817	0.666660
C35	C	1.318787	0.740287	0.659794
C36	C	1.202942	0.746978	0.804768
C37	C	1.197532	0.841506	0.811628
C38	C	1.519090	0.346991	0.721718
C39	C	1.619702	0.341200	0.729023
C40	C	1.283065	0.360476	1.017617
C41	C	1.283097	0.360431	1.151016
C42	C	1.296723	1.124482	0.687584
C43	C	1.302560	1.023872	0.680381
C44	C	1.282970	0.360616	0.392753
C45	C	1.283128	0.360396	0.259349
H46	H	0.944547	0.275519	0.811509
C47	C	1.151688	0.873081	1.013706
C48	C	1.130890	0.897138	0.895075
H49	H	1.110547	0.907430	1.065220
H50	H	1.147000	0.810507	1.019493
H51	H	1.211618	0.885006	1.036863
H52	H	1.070961	0.885207	0.871914
H53	H	1.135569	0.959727	0.889282
C54	C	1.364637	0.708723	0.457718
C55	C	1.385432	0.684660	0.576347
H56	H	1.405787	0.674385	0.406205
H57	H	1.304717	0.696795	0.434554
H58	H	1.369319	0.771308	0.451941
H59	H	1.380743	0.622077	0.582127
H60	H	1.445367	0.696581	0.599518
H61	H	1.157977	0.711211	0.860989
C62	C	1.092369	1.017997	0.798739
C63	C	1.180703	1.035578	0.832896
H64	H	1.051233	1.052335	0.850271
H65	H	1.078268	1.034321	0.718269
H66	H	1.087696	0.955412	0.804533
H67	H	1.185378	1.098162	0.827094
H68	H	1.194808	1.019260	0.913387
H69	H	0.806134	0.225877	0.873963
H70	H	0.622332	0.445596	0.597737
C71	C	0.686552	0.165779	0.949570
C72	C	0.622127	0.220081	0.881311
H73	H	0.656773	0.128394	0.996600
H74	H	0.725409	0.128985	0.897512
H75	H	0.721156	0.203133	1.000905
H76	H	0.587527	0.182726	0.829969
H77	H	0.583253	0.256879	0.933374
C78	C	0.654077	0.505668	0.522238
C79	C	0.746320	0.512510	0.513603
H80	H	0.619706	0.546772	0.470589
H81	H	0.642111	0.445739	0.499282
H82	H	0.637854	0.519869	0.602698
H83	H	0.762545	0.498302	0.433145
H84	H	0.758291	0.572453	0.536552
C85	C	1.038442	0.483479	0.550009
C86	C	0.944768	0.501055	0.527938
H87	H	1.068217	0.520872	0.502986
H88	H	1.053186	0.495895	0.632695
H89	H	1.057451	0.421752	0.529294
H90	H	0.925758	0.562780	0.548661
H91	H	0.930017	0.488646	0.445234
C92	C	1.478238	0.957150	0.460480
C93	C	1.423883	1.021534	0.528563
H94	H	1.515705	0.986955	0.413612
H95	H	1.514953	0.918229	0.512644
H96	H	1.440916	0.922612	0.408997
H97	H	1.461205	1.056068	0.580053
H98	H	1.387164	1.060471	0.476394
H99	H	1.417962	0.837530	0.535785
