data_functionalizedCrystal
_audit_creation_method	'MofGen! by Chris Wilmer'
_symmetry_space_group_name_H-M	'P1'
_symmetry_Int_Tables_number	1
_symmetry_cell_setting	triclinic
loop_
_symmetry_equiv_pos_as_xyz
  x,y,z
_cell_length_a	17.699083
_cell_length_b	10.654562
_cell_length_c	9.130313
_cell_angle_alpha	89.996930
_cell_angle_beta	89.994787
_cell_angle_gamma	96.113441
loop_
_atom_site_label
_atom_site_type_symbol
_atom_site_fract_x
_atom_site_fract_y
_atom_site_fract_z
O1	O	-0.106345	1.665963	-0.121872
O2	O	-0.116463	1.300310	-0.121852
O3	O	-0.001281	1.493467	-0.121877
O4	O	-0.221527	1.472806	-0.121847
O5	O	-0.001284	1.493465	0.121722
O6	O	-0.116466	1.300307	0.121747
O7	O	-0.106348	1.665961	0.121726
Cu8	Cu	-0.111407	1.483134	0.143979
Cu9	Cu	-0.111404	1.483137	-0.144105
O10	O	-0.221530	1.472804	0.121752
C11	C	-0.115719	1.253524	-0.000050
C12	C	-0.113491	1.114120	-0.000044
C13	C	-0.112453	1.048607	0.132730
C14	C	-0.110365	0.917621	0.132706
C15	C	-0.110356	0.917674	-0.132879
C16	C	-0.112438	1.048658	-0.132853
C17	C	-0.112461	1.048574	0.286064
C18	C	-0.110373	0.917589	0.286039
C19	C	-0.249730	1.473545	-0.000044
C20	C	-0.333763	1.475766	-0.000034
C21	C	-0.381660	1.362387	-0.000027
C22	C	-0.460616	1.364481	-0.000045
C23	C	-0.491674	1.479956	-0.000058
C24	C	-0.443771	1.593344	-0.000069
C25	C	-0.364816	1.591248	-0.000062
C26	C	-0.762188	1.601798	-0.000098
C27	C	-0.841150	1.603885	-0.000101
C28	C	-0.857988	1.375031	-0.000081
C29	C	-0.779033	1.372935	-0.000074
C30	C	-0.731137	1.486323	-0.000093
C31	C	-0.645523	1.484050	-0.000077
C32	C	-0.577287	1.482230	-0.000063
C33	C	0.026920	1.492726	-0.000085
C34	C	0.110952	1.490505	-0.000105
C35	C	-0.107091	1.712747	-0.000078
C36	C	-0.109320	1.852150	-0.000095
N37	N	-0.111409	1.483141	0.346602
N38	N	-0.111395	1.483140	-0.346727
C39	C	-0.060424	1.568693	0.423243
C40	C	-0.060415	1.568689	0.576579
C41	C	-0.162383	1.397579	0.576621
C42	C	-0.162388	1.397577	0.423287
C43	C	-0.001556	1.667486	0.423220
C44	C	-0.001547	1.667483	0.576557
H45	H	-0.055177	0.888966	0.333611
Br46	Br	-0.108916	0.828827	-0.313111
Br47	Br	-0.231563	1.281458	0.680701
H48	H	0.056618	1.647062	0.381593
Br49	Br	-0.025290	1.127214	0.384196
Br50	Br	0.090072	1.618215	0.655812
Br51	Br	-0.339518	1.205662	0.000007
Br52	Br	-0.736887	1.216214	-0.000046
Br53	Br	-0.023155	1.827960	0.645929
Br54	Br	-0.299811	1.745126	-0.000086
H55	H	-0.203897	1.327903	0.360887
Br56	Br	-0.204461	1.096270	0.365369
H57	H	-0.723200	1.694126	-0.000104
H58	H	-0.019992	1.758347	0.375659
H59	H	-0.113272	1.101997	-0.240970
H60	H	-0.162680	0.870386	0.344911
H61	H	-0.896996	1.282706	-0.000072
H62	H	-0.499611	1.272156	-0.000044
Br63	Br	-0.883299	1.760612	-0.000119
Br64	Br	-0.485920	1.750063	-0.000104
