data_functionalizedCrystal
_audit_creation_method	'MofGen! by Chris Wilmer'
_symmetry_space_group_name_H-M	'P1'
_symmetry_Int_Tables_number	1
_symmetry_cell_setting	triclinic
loop_
_symmetry_equiv_pos_as_xyz
  x,y,z
_cell_length_a	8.597366
_cell_length_b	14.853576
_cell_length_c	7.681481
_cell_angle_alpha	84.250639
_cell_angle_beta	103.474720
_cell_angle_gamma	84.490539
loop_
_atom_site_label
_atom_site_type_symbol
_atom_site_fract_x
_atom_site_fract_y
_atom_site_fract_z
O1	O	2.100124	0.124667	0.172197
O2	O	1.636097	0.139034	0.101794
O3	O	1.880498	0.000612	0.138882
O4	O	1.855722	0.263089	0.135109
O5	O	1.910580	-0.016464	0.436305
O6	O	1.666178	0.121958	0.399216
O7	O	2.130205	0.107591	0.469620
Zn8	Zn	1.902968	0.112063	0.481640
Zn9	Zn	1.863334	0.134562	0.089773
O10	O	1.885803	0.246013	0.432532
C11	C	1.591753	0.129905	0.241495
C12	C	1.414805	0.128132	0.214648
C13	C	1.894414	-0.041514	0.287420
C14	C	1.891042	-0.141594	0.286903
C15	C	1.873057	-0.179300	0.124529
C16	C	1.905872	-0.197930	0.448793
C17	C	1.902713	-0.291962	0.448314
C18	C	1.884728	-0.329667	0.285941
C19	C	1.869902	-0.273340	0.124046
C20	C	1.917554	-0.348296	0.610209
C21	C	1.914397	-0.442334	0.609736
C22	C	1.896401	-0.480040	0.447359
C23	C	1.881573	-0.423707	0.285457
C24	C	1.863588	-0.461412	0.123083
C25	C	1.848748	-0.405080	-0.038822
C26	C	1.851905	-0.311046	-0.038332
C27	C	1.893243	-0.574075	0.446869
C28	C	1.860433	-0.555453	0.122600
C29	C	2.174549	0.116721	0.329914
C30	C	2.351495	0.118494	0.356750
C31	C	1.871887	0.288139	0.283989
C32	C	1.875258	0.388220	0.284495
N33	N	1.930029	0.096708	0.749081
N34	N	1.836286	0.149910	-0.177666
H35	H	1.432673	0.111597	0.498968
H36	H	1.860969	-0.133430	-0.007291
F37	F	1.841279	-0.595573	-0.050227
F38	F	1.308716	0.137135	0.028766
F39	F	1.829625	-0.445221	-0.211624
F40	F	1.836172	-0.251093	-0.210618
H41	H	1.920526	-0.167225	0.580993
F42	F	1.936705	-0.308164	0.783007
F43	F	1.930184	-0.502278	0.782047
F44	F	1.909051	-0.634024	0.619169
F45	F	1.711206	0.220889	0.705067
H46	H	2.025739	0.042408	0.838811
