data_functionalizedCrystal
_audit_creation_method	'MofGen! by Chris Wilmer'
_symmetry_space_group_name_H-M	'P1'
_symmetry_Int_Tables_number	1
_symmetry_cell_setting	triclinic
loop_
_symmetry_equiv_pos_as_xyz
  x,y,z
_cell_length_a	18.215407
_cell_length_b	14.908326
_cell_length_c	18.215399
_cell_angle_alpha	86.672976
_cell_angle_beta	90.017368
_cell_angle_gamma	86.680216
loop_
_atom_site_label
_atom_site_type_symbol
_atom_site_fract_x
_atom_site_fract_y
_atom_site_fract_z
Zn1	Zn	1.108154	0.359257	0.399141
Zn2	Zn	1.441487	0.692590	0.732474
Zn3	Zn	1.774821	1.025923	1.065808
Zn4	Zn	1.100957	0.510136	0.268966
Zn5	Zn	1.434291	0.843470	0.602299
Zn6	Zn	1.767624	1.176803	0.935633
Zn7	Zn	0.985086	0.359278	0.276093
Zn8	Zn	1.318419	0.692612	0.609426
Zn9	Zn	1.651752	1.025945	0.942759
Zn10	Zn	0.977950	0.510078	0.391999
Zn11	Zn	1.311283	0.843412	0.725332
Zn12	Zn	1.644617	1.176745	1.058666
O13	O	1.043037	0.434687	0.334050
O14	O	1.376370	0.768021	0.667383
O15	O	1.709703	1.101354	1.000716
O16	O	1.210183	0.379286	0.381880
O17	O	1.543516	0.712620	0.715213
O18	O	1.876849	1.045953	1.048546
O19	O	1.085561	0.490158	0.166926
O20	O	1.418894	0.823492	0.500259
O21	O	1.752228	1.156825	0.833592
O22	O	1.007409	0.233021	0.298387
O23	O	1.340742	0.566354	0.631720
O24	O	1.674076	0.899688	0.965054
O25	O	1.204895	0.490137	0.286241
O26	O	1.538229	0.823471	0.619574
O27	O	1.871562	1.156804	0.952907
O28	O	1.097827	0.233005	0.388790
O29	O	1.431160	0.566339	0.722123
O30	O	1.764493	0.899672	1.055457
O31	O	1.000431	0.379323	0.172162
O32	O	1.333764	0.712657	0.505495
O33	O	1.667097	1.045990	0.838828
O34	O	0.881155	0.379267	0.291462
O35	O	1.214489	0.712600	0.624795
O36	O	1.547822	1.045934	0.958128
O37	O	0.995247	0.490038	0.495932
O38	O	1.328581	0.823371	0.829266
O39	O	1.661914	1.156705	1.162599
O40	O	0.875913	0.490059	0.376617
O41	O	1.209246	0.823392	0.709951
O42	O	1.542580	1.156726	1.043284
O43	O	1.090908	0.379230	0.501180
O44	O	1.424241	0.712563	0.834513
O45	O	1.757574	1.045897	1.167846
O46	O	1.078642	0.636383	0.279315
O47	O	1.411975	0.969716	0.612649
O48	O	1.745309	1.303050	0.945982
O49	O	0.988269	0.636340	0.369707
O50	O	1.321602	0.969674	0.703040
O51	O	1.654936	1.303007	1.036374
C52	C	0.851832	0.434660	0.334038
C53	C	1.185165	0.767993	0.667372
C54	C	1.518498	1.101326	1.000705
C55	C	0.770032	0.434670	0.334050
C56	C	1.103366	0.768003	0.667383
C57	C	1.436699	1.101336	1.000716
C58	C	0.584585	0.377068	0.383918
C59	C	0.917918	0.710402	0.717251
C60	C	1.251252	1.043735	1.050584
C61	C	0.507726	0.377076	0.383920
C62	C	0.841059	0.710409	0.717253
C63	C	1.174393	1.043743	1.050586
C64	C	0.502239	0.492332	0.284194
C65	C	0.835572	0.825665	0.617527
C66	C	1.168906	1.158998	0.950860
C67	C	0.579097	0.492319	0.284189
C68	C	0.912430	0.825652	0.617522
C69	C	1.245764	1.158986	0.950855
C70	C	0.620268	0.434688	0.334055
C71	C	0.953601	0.768022	0.667388
C72	C	1.286935	1.101355	1.000721
C73	C	0.466551	0.434709	0.334062
C74	C	0.799884	0.768042	0.667395
C75	C	1.133218	1.101376	1.000729
C76	C	0.383217	0.434718	0.334064
C77	C	0.716550	0.768051	0.667397
C78	C	1.049883	1.101385	1.000730
C79	C	0.703607	0.434678	0.334052
C80	C	1.036941	0.768012	0.667385
C81	C	1.370274	1.101345	1.000719
C82	C	1.031920	0.669098	0.322979
C83	C	1.365254	1.002431	0.656312
C84	C	1.698587	1.335765	0.989646
C85	C	1.027232	0.769380	0.318267
C86	C	1.360565	1.102713	0.651601
C87	C	1.693899	1.436046	0.984934
C88	C	1.112503	0.957653	0.403651
C89	C	1.445836	1.290987	0.736985
C90	C	1.779169	1.624320	1.070318
C91	C	1.108100	1.051877	0.399227
C92	C	1.441434	1.385210	0.732560
C93	C	1.774767	1.718544	1.065894
C94	C	1.014021	1.052052	0.304998
C95	C	1.347354	1.385386	0.638331
C96	C	1.680688	1.718719	0.971665
C97	C	1.018423	0.957829	0.309423
C98	C	1.351757	1.291162	0.642756
C99	C	1.685090	1.624495	0.976089
C100	C	1.067667	0.910632	0.358750
C101	C	1.401000	1.243966	0.692083
C102	C	1.734333	1.577299	1.025417
C103	C	1.072073	0.816407	0.363170
C104	C	1.405406	1.149740	0.696504
C105	C	1.738739	1.483074	1.029837
C106	C	0.977990	0.816584	0.268946
C107	C	1.311323	1.149918	0.602279
C108	C	1.644657	1.483251	0.935612
C109	C	0.973588	0.910808	0.264521
C110	C	1.306921	1.244141	0.597855
C111	C	1.640254	1.577475	0.931188
C112	C	1.234988	0.434716	0.334062
C113	C	1.568322	0.768049	0.667395
C114	C	1.901655	1.101383	1.000728
C115	C	1.316787	0.434728	0.334067
C116	C	1.650120	0.768061	0.667400
C117	C	1.983453	1.101395	1.000734
C118	C	1.043084	0.434625	0.526006
C119	C	1.376418	0.767959	0.859339
C120	C	1.709751	1.101292	1.192672
C121	C	1.043105	0.434599	0.607806
C122	C	1.376438	0.767932	0.941139
C123	C	1.709771	1.101265	1.274473
C124	C	1.054187	1.199362	0.345175
C125	C	1.387520	1.532695	0.678508
C126	C	1.720853	1.866028	1.011841
C127	C	1.058862	1.099080	0.349901
C128	C	1.392195	1.432413	0.683235
C129	C	1.725528	1.765746	1.016568
C130	C	1.043034	0.434684	0.142844
C131	C	1.376368	0.768018	0.476177
C132	C	1.709701	1.101351	0.809510
C133	C	1.043169	0.434457	0.061056
C134	C	1.376502	0.767790	0.394389
C135	C	1.709835	1.101123	0.727723
C136	C	1.092935	0.376847	0.798736
C137	C	1.426268	0.710180	1.132069
C138	C	1.759601	1.043514	1.465403
C139	C	1.092945	0.376821	0.875596
C140	C	1.426278	0.710154	1.208929
C141	C	1.759611	1.043487	1.542263
C142	C	0.993334	0.492211	0.870120
C143	C	1.326667	0.825544	1.203454
C144	C	1.660000	1.158878	1.536787
C145	C	0.993321	0.492232	0.793262
C146	C	1.326654	0.825565	1.126595
C147	C	1.659987	1.158899	1.459929
C148	C	1.043125	0.434551	0.757572
C149	C	1.376459	0.767885	1.090905
C150	C	1.709792	1.101218	1.424238
C151	C	1.043148	0.434504	0.911290
C152	C	1.376482	0.767837	1.244623
C153	C	1.709815	1.101171	1.577957
C154	C	1.043159	0.434476	0.994625
C155	C	1.376492	0.767809	1.327958
C156	C	1.709825	1.101143	1.661292
C157	C	1.043114	0.434578	0.674231
C158	C	1.376447	0.767911	1.007565
C159	C	1.709781	1.101245	1.340898
H160	H	0.608151	0.539241	0.243580
H161	H	0.941484	0.872574	0.576914
H162	H	1.274817	1.205908	0.910247
H163	H	0.468709	0.539253	0.243595
H164	H	0.802042	0.872587	0.576928
H165	H	1.135375	1.205920	0.910262
H166	H	0.952786	0.539174	0.899189
H167	H	1.286119	0.872508	1.232522
H168	H	1.619453	1.205841	1.565856
H169	H	1.133487	0.329877	0.769679
H170	H	1.466820	0.663210	1.103013
H171	H	1.800153	0.996544	1.436346
H172	H	0.952755	0.539221	0.759745
H173	H	1.286088	0.872554	1.093078
H174	H	1.619421	1.205888	1.426412
O175	O	1.125187	0.765496	0.416366
O176	O	1.458520	1.098829	0.749699
O177	O	1.791853	1.432163	1.083032
H178	H	1.155620	0.814027	0.446848
H179	H	1.488954	1.147360	0.780181
H180	H	1.822287	1.480693	1.113514
O181	O	0.469236	0.314931	0.437701
O182	O	0.802569	0.648264	0.771034
O183	O	1.135903	0.981598	1.104368
H184	H	0.510779	0.274862	0.472376
H185	H	0.844113	0.608195	0.805709
H186	H	1.177446	0.941528	1.139042
H187	H	1.133503	0.329830	0.909109
H188	H	1.466837	0.663164	1.242442
H189	H	1.800170	0.996497	1.575775
H190	H	1.152604	0.919225	0.443811
H191	H	1.485937	1.252559	0.777144
H192	H	1.819270	1.585892	1.110477
H193	H	1.144607	1.090158	0.435794
H194	H	1.477940	1.423491	0.769127
H195	H	1.811273	1.756824	1.102461
O196	O	0.628995	0.314901	0.437689
O197	O	0.962328	0.648234	0.771022
O198	O	1.295662	0.981568	1.104356
H199	H	0.591267	0.274828	0.472356
H200	H	0.924600	0.608161	0.805689
H201	H	1.257933	0.941494	1.139022
H202	H	0.933493	0.949248	0.224362
H203	H	1.266827	1.282581	0.557695
H204	H	1.600160	1.615915	0.891029
O205	O	0.960922	1.102963	0.251787
O206	O	1.294255	1.436296	0.585121
O207	O	1.627589	1.769629	0.918454
H208	H	0.965402	1.176381	0.256251
H209	H	1.298735	1.509714	0.589585
H210	H	1.632068	1.843048	0.922918
O211	O	0.929624	0.765872	0.220513
O212	O	1.262957	1.099205	0.553846
O213	O	1.596290	1.432538	0.887180
H214	H	0.940953	0.692422	0.231877
H215	H	1.274287	1.025756	0.565211
H216	H	1.607620	1.359089	0.898544
