data_functionalizedCrystal
_audit_creation_method	'MofGen! by Chris Wilmer'
_symmetry_space_group_name_H-M	'P1'
_symmetry_Int_Tables_number	1
_symmetry_cell_setting	triclinic
loop_
_symmetry_equiv_pos_as_xyz
  x,y,z
_cell_length_a	18.050591
_cell_length_b	25.639239
_cell_length_c	25.639234
_cell_angle_alpha	90.021106
_cell_angle_beta	90.017008
_cell_angle_gamma	90.034692
loop_
_atom_site_label
_atom_site_type_symbol
_atom_site_fract_x
_atom_site_fract_y
_atom_site_fract_z
Zn1	Zn	1.135210	-0.208258	0.295704
Zn2	Zn	1.468543	0.125075	0.629037
Zn3	Zn	1.801876	0.458409	0.962370
Zn4	Zn	1.135106	-0.295680	0.208268
Zn5	Zn	1.468440	0.037653	0.541601
Zn6	Zn	1.801773	0.370986	0.874935
Zn7	Zn	1.011037	-0.208255	0.208272
Zn8	Zn	1.344371	0.125079	0.541605
Zn9	Zn	1.677704	0.458412	0.874939
Zn10	Zn	1.010954	-0.295658	0.295662
Zn11	Zn	1.344288	0.037675	0.628996
Zn12	Zn	1.677621	0.371009	0.962329
O13	O	1.073077	-0.251963	0.251977
O14	O	1.406410	0.081371	0.585310
O15	O	1.739744	0.414704	0.918643
O16	O	1.239121	-0.219865	0.284121
O17	O	1.572454	0.113468	0.617454
O18	O	1.905787	0.446801	0.950788
O19	O	1.118640	-0.284091	0.135103
O20	O	1.451973	0.049242	0.468437
O21	O	1.785306	0.382576	0.801770
O22	O	1.027587	-0.135090	0.219889
O23	O	1.360921	0.198243	0.553222
O24	O	1.694254	0.531577	0.886556
O25	O	1.239045	-0.284094	0.219882
O26	O	1.572378	0.049239	0.553216
O27	O	1.905711	0.382572	0.886549
O28	O	1.118816	-0.135092	0.284125
O29	O	1.452150	0.198241	0.617458
O30	O	1.785483	0.531574	0.950791
O31	O	1.027487	-0.219860	0.135106
O32	O	1.360820	0.113474	0.468440
O33	O	1.694154	0.446807	0.801773
O34	O	0.907102	-0.219838	0.219849
O35	O	1.240435	0.113495	0.553182
O36	O	1.573769	0.446828	0.886515
O37	O	1.027446	-0.284056	0.368833
O38	O	1.360779	0.049277	0.702166
O39	O	1.694112	0.382610	1.035500
O40	O	0.907041	-0.284053	0.284054
O41	O	1.240374	0.049280	0.617387
O42	O	1.573707	0.382614	0.950721
O43	O	1.118736	-0.219844	0.368863
O44	O	1.452069	0.113490	0.702197
O45	O	1.785402	0.446823	1.035530
O46	O	1.118559	-0.368843	0.219842
O47	O	1.451892	-0.035509	0.553175
O48	O	1.785226	0.297824	0.886509
O49	O	1.027345	-0.368826	0.284050
O50	O	1.360679	-0.035493	0.617384
O51	O	1.694012	0.297840	0.950717
C52	C	0.880125	-0.251943	0.251948
C53	C	1.213458	0.081390	0.585281
C54	C	1.546792	0.414723	0.918614
C55	C	0.797579	-0.251948	0.251948
C56	C	1.130912	0.081386	0.585281
C57	C	1.464246	0.414719	0.918614
C58	C	1.072952	-0.387805	0.251953
C59	C	1.406285	-0.054472	0.585286
C60	C	1.739619	0.278861	0.918619
C61	C	1.072967	-0.445919	0.251960
C62	C	1.406300	-0.112586	0.585293
C63	C	1.739633	0.220747	0.918627
C64	C	0.598140	-0.216987	0.217113
C65	C	0.931473	0.116346	0.550447
C66	C	1.264807	0.449680	0.883780
C67	C	0.548709	-0.264674	0.204245
C68	C	0.882043	0.068660	0.537578
C69	C	1.215376	0.401993	0.870912
C70	C	0.646449	-0.251963	0.251971
C71	C	0.979782	0.081370	0.585305
C72	C	1.313115	0.414703	0.918638
C73	C	0.548798	-0.204293	0.264838
C74	C	0.882131	0.129040	0.598172
C75	C	1.215464	0.462373	0.931505
C76	C	0.500464	-0.251975	0.251993
C77	C	0.833797	0.081359	0.585326
C78	C	1.167130	0.414692	0.918660
C79	C	0.598105	-0.299675	0.239078
C80	C	0.931438	0.033658	0.572411
C81	C	1.264772	0.366991	0.905745
C82	C	0.598198	-0.239263	0.299694
C83	C	0.931531	0.094071	0.633027
C84	C	1.264865	0.427404	0.966360
C85	C	0.548789	-0.286982	0.286843
C86	C	0.882123	0.046351	0.620177
C87	C	1.215456	0.379684	0.953510
C88	C	0.730547	-0.251956	0.251957
C89	C	1.063880	0.081377	0.585291
C90	C	1.397214	0.414710	0.918624
C91	C	0.416367	-0.251987	0.252007
C92	C	0.749700	0.081346	0.585340
C93	C	1.083034	0.414680	0.918674
C94	C	1.120696	-0.806278	0.218600
C95	C	1.454029	-0.472945	0.551934
C96	C	1.787363	-0.139612	0.885267
C97	C	1.120725	-0.860883	0.218607
C98	C	1.454058	-0.527549	0.551941
C99	C	1.787391	-0.194216	0.885274
O100	O	1.161176	-0.889116	0.190218
O101	O	1.494510	-0.555783	0.523551
O102	O	1.827843	-0.222449	0.856884
N103	N	1.073207	-0.888202	0.252011
N104	N	1.406541	-0.554868	0.585345
N105	N	1.739874	-0.221535	0.918678
C106	C	1.025664	-0.860914	0.285414
C107	C	1.358997	-0.527580	0.618747
C108	C	1.692330	-0.194247	0.952081
O109	O	0.985250	-0.889165	0.313828
O110	O	1.318583	-0.555832	0.647161
O111	O	1.651916	-0.222498	0.980494
C112	C	1.025639	-0.806310	0.285409
C113	C	1.358973	-0.472977	0.618743
C114	C	1.692306	-0.139644	0.952076
C115	C	1.073154	-0.778994	0.251999
C116	C	1.406488	-0.445661	0.585333
C117	C	1.739821	-0.112327	0.918666
C118	C	1.168208	-0.778962	0.185194
C119	C	1.501541	-0.445629	0.518527
C120	C	1.834874	-0.112295	0.851860
C121	C	1.168178	-0.724361	0.185186
C122	C	1.501511	-0.391028	0.518520
C123	C	1.834844	-0.057695	0.851853
C124	C	1.120636	-0.697077	0.218585
C125	C	1.453969	-0.363744	0.551919
C126	C	1.787303	-0.030411	0.885252
C127	C	1.073124	-0.724394	0.251992
C128	C	1.406458	-0.391060	0.585325
C129	C	1.739791	-0.057727	0.918659
C130	C	0.978100	-0.779023	0.318814
C131	C	1.311433	-0.445690	0.652148
C132	C	1.644766	-0.112357	0.985481
C133	C	0.978080	-0.724416	0.318807
C134	C	1.311413	-0.391083	0.652140
C135	C	1.644746	-0.057750	0.985474
C136	C	1.025595	-0.697100	0.285397
C137	C	1.358928	-0.363767	0.618730
C138	C	1.692261	-0.030433	0.952064
C139	C	1.025553	-0.642509	0.285383
C140	C	1.358886	-0.309176	0.618717
C141	C	1.692219	0.024158	0.952050
N142	N	1.073070	-0.615190	0.251980
N143	N	1.406403	-0.281856	0.585313
N144	N	1.739737	0.051477	0.918646
C145	C	1.120612	-0.642474	0.218581
C146	C	1.453945	-0.309141	0.551914
C147	C	1.787278	0.024193	0.885247
C148	C	1.025720	-0.975584	0.285422
C149	C	1.359053	-0.642251	0.618755
C150	C	1.692386	-0.308918	0.952089
C151	C	1.025740	-1.030187	0.285425
C152	C	1.359073	-0.696853	0.618758
C153	C	1.692406	-0.363520	0.952091
C154	C	1.120802	-1.030152	0.218619
C155	C	1.454135	-0.696818	0.551952
C156	C	1.787469	-0.363485	0.885285
C157	C	1.120778	-0.975548	0.218614
C158	C	1.454111	-0.642215	0.551947
C159	C	1.787444	-0.308882	0.885280
C160	C	1.073237	-0.948265	0.252018
C161	C	1.406570	-0.614932	0.585352
C162	C	1.739904	-0.281599	0.918685
C163	C	1.120545	-0.527809	0.218567
C164	C	1.453878	-0.194476	0.551900
C165	C	1.787211	0.138858	0.885234
C166	C	1.120508	-0.473204	0.218561
C167	C	1.453842	-0.139870	0.551894
C168	C	1.787175	0.193463	0.885227
C169	C	1.025449	-0.473243	0.285369
C170	C	1.358782	-0.139910	0.618702
C171	C	1.692116	0.193423	0.952035
C172	C	1.025482	-0.527844	0.285373
C173	C	1.358816	-0.194510	0.618706
C174	C	1.692149	0.138823	0.952040
C175	C	1.073036	-0.555125	0.251970
C176	C	1.406369	-0.221792	0.585304
C177	C	1.739703	0.111541	0.918637
O178	O	0.985124	-0.614241	0.313760
O179	O	1.318457	-0.280908	0.647093
O180	O	1.651790	0.052426	0.980427
O181	O	1.161026	-0.614216	0.190177
O182	O	1.494359	-0.280883	0.523510
O183	O	1.827692	0.052450	0.856843
C184	C	1.266783	-0.251983	0.252006
C185	C	1.600116	0.081351	0.585339
C186	C	1.933449	0.414684	0.918673
C187	C	1.349328	-0.251991	0.252018
C188	C	1.682662	0.081342	0.585352
C189	C	2.015995	0.414675	0.918685
C190	C	1.073093	-0.251948	0.388350
C191	C	1.406426	0.081385	0.721683
C192	C	1.739759	0.414719	1.055016
C193	C	1.073100	-0.251942	0.446464
C194	C	1.406433	0.081392	0.779797
C195	C	1.739766	0.414725	1.113130
C196	C	1.073223	-0.115590	0.252012
C197	C	1.406556	0.217744	0.585345
C198	C	1.739889	0.551077	0.918679
C199	C	1.073285	-0.057476	0.252027
C200	C	1.406618	0.275858	0.585360
C201	C	1.739951	0.609191	0.918694
C202	C	1.073104	-0.251940	0.116134
C203	C	1.406437	0.081394	0.449467
C204	C	1.739771	0.414727	0.782801
C205	C	1.073241	-0.251799	0.058020
C206	C	1.406574	0.081535	0.391354
C207	C	1.739908	0.414868	0.724687
C208	C	1.025614	-0.285311	0.697636
C209	C	1.358948	0.048022	1.030969
C210	C	1.692281	0.381355	1.364302
C211	C	1.025601	-0.285323	0.643031
C212	C	1.358935	0.048010	0.976365
C213	C	1.692268	0.381344	1.309698
O214	O	0.985157	-0.313747	0.614776
O215	O	1.318490	0.019586	0.948110
O216	O	1.651823	0.352919	1.281443
N217	N	1.073128	-0.251899	0.615738
N218	N	1.406461	0.081434	0.949071
N219	N	1.739795	0.414767	1.282404
C220	C	1.120665	-0.218458	0.643051
C221	C	1.453998	0.114875	0.976384
C222	C	1.787332	0.448209	1.309718
O223	O	1.161088	-0.190029	0.614822
O224	O	1.494422	0.143304	0.948155
O225	O	1.827755	0.476637	1.281488
C226	C	1.120674	-0.218444	0.697654
C227	C	1.454007	0.114889	1.030988
C228	C	1.787340	0.448223	1.364321
C229	C	1.073150	-0.251874	0.724945
C230	C	1.406483	0.081460	1.058279
C231	C	1.739816	0.414793	1.391612
C232	C	0.978093	-0.318738	0.724926
C233	C	1.311427	0.014595	1.058260
C234	C	1.644760	0.347929	1.391593
C235	C	0.978108	-0.318727	0.779527
C236	C	1.311441	0.014607	1.112860
C237	C	1.644774	0.347940	1.446194
C238	C	1.025643	-0.285289	0.806837
C239	C	1.358976	0.048044	1.140170
C240	C	1.692309	0.381378	1.473503
C241	C	1.073164	-0.251862	0.779546
C242	C	1.406497	0.081471	1.112879
C243	C	1.739830	0.414804	1.446213
C244	C	1.168207	-0.185000	0.724967
C245	C	1.501540	0.148333	1.058300
C246	C	1.834873	0.481666	1.391634
C247	C	1.168211	-0.184989	0.779574
C248	C	1.501544	0.148344	1.112907
C249	C	1.834878	0.481678	1.446241
C250	C	1.120687	-0.218419	0.806865
C251	C	1.454020	0.114915	1.140198
C252	C	1.787353	0.448248	1.473532
C253	C	1.120713	-0.218413	0.861456
C254	C	1.454046	0.114920	1.194789
C255	C	1.787380	0.448253	1.528123
N256	N	1.073187	-0.251837	0.888750
N257	N	1.406520	0.081496	1.222083
N258	N	1.739853	0.414829	1.555416
C259	C	1.025652	-0.285275	0.861440
C260	C	1.358985	0.048058	1.194773
C261	C	1.692318	0.381392	1.528107
C262	C	1.120642	-0.218489	0.528380
C263	C	1.453976	0.114844	0.861714
C264	C	1.787309	0.448177	1.195047
C265	C	1.120638	-0.218506	0.473778
C266	C	1.453971	0.114828	0.807111
C267	C	1.787305	0.448161	1.140445
C268	C	1.025573	-0.285370	0.473762
C269	C	1.358906	0.047963	0.807095
C270	C	1.692240	0.381296	1.140429
C271	C	1.025582	-0.285356	0.528365
C272	C	1.358915	0.047977	0.861699
C273	C	1.692248	0.381310	1.195032
C274	C	1.073116	-0.251913	0.555674
C275	C	1.406449	0.081420	0.889007
C276	C	1.739782	0.414754	1.222341
C277	C	1.025685	-0.285249	0.976105
C278	C	1.359019	0.048084	1.309439
C279	C	1.692352	0.381418	1.642772
C280	C	1.025706	-0.285236	1.030711
C281	C	1.359039	0.048097	1.364044
C282	C	1.692373	0.381430	1.697377
C283	C	1.120768	-0.218370	1.030722
C284	C	1.454101	0.114963	1.364055
C285	C	1.787434	0.448296	1.697389
C286	C	1.120750	-0.218385	0.976121
C287	C	1.454084	0.114949	1.309455
C288	C	1.787417	0.448282	1.642788
C289	C	1.073203	-0.251826	0.948814
C290	C	1.406536	0.081508	1.282148
C291	C	1.739870	0.414841	1.615481
O292	O	1.161135	-0.190002	0.889746
O293	O	1.494468	0.143331	1.223079
O294	O	1.827802	0.476664	1.556413
O295	O	0.985228	-0.313694	0.889676
O296	O	1.318562	0.019639	1.223009
O297	O	1.651895	0.352973	1.556343
H298	H	0.619808	-0.187440	0.187603
H299	H	0.953142	0.145893	0.520936
H300	H	1.286475	0.479226	0.854270
H301	H	0.939404	-0.801255	0.346018
H302	H	1.272738	-0.467922	0.679351
H303	H	1.606071	-0.134588	1.012684
Br304	Br	1.232739	-0.815980	0.139861
Br305	Br	1.566073	-0.482647	0.473195
Br306	Br	1.899406	-0.149313	0.806528
Br307	Br	0.512479	-0.282594	0.136996
Br308	Br	0.845812	0.050739	0.470329
Br309	Br	1.179146	0.384072	0.803662
Br310	Br	0.913607	-0.364098	0.816556
Br311	Br	1.246941	-0.030765	1.149889
Br312	Br	1.580274	0.302568	1.483223
Br313	Br	1.184996	-0.436135	0.173215
Br314	Br	1.518329	-0.102801	0.506548
Br315	Br	1.851663	0.230532	0.839882
H316	H	0.619952	-0.228497	0.340030
H317	H	0.953286	0.104836	0.673363
H318	H	1.286619	0.438170	1.006697
H319	H	1.159454	-0.191167	0.953900
H320	H	1.492787	0.142166	1.287233
H321	H	1.826120	0.475499	1.620567
H322	H	1.206871	-0.702124	0.157983
H323	H	1.540204	-0.368790	0.491316
H324	H	1.873537	-0.035457	0.824649
Br325	Br	0.913571	-0.364123	0.687874
Br326	Br	1.246904	-0.030789	1.021207
Br327	Br	1.580237	0.302544	1.354540
H328	H	1.159469	-0.953311	0.191409
H329	H	1.492802	-0.619977	0.524742
H330	H	1.826135	-0.286644	0.858076
Br331	Br	0.961189	-0.938563	0.330758
Br332	Br	1.294522	-0.605229	0.664091
Br333	Br	1.627856	-0.271896	0.997424
Br334	Br	1.185169	-0.173104	0.565437
Br335	Br	1.518502	0.160229	0.898770
Br336	Br	1.851835	0.493562	1.232104
Br337	Br	0.913559	-0.687392	0.364146
Br338	Br	1.246893	-0.354059	0.697480
Br339	Br	1.580226	-0.020726	1.030813
Br340	Br	0.961209	-0.330611	1.067745
Br341	Br	1.294542	0.002722	1.401078
Br342	Br	1.627875	0.336055	1.734412
Br343	Br	0.961062	-0.330752	0.436688
Br344	Br	1.294396	0.002581	0.770022
Br345	Br	1.627729	0.335915	1.103355
H346	H	0.986961	-0.312475	0.953878
H347	H	1.320295	0.020858	1.287212
H348	H	1.653628	0.354191	1.620545
H349	H	1.159516	-1.052376	0.191425
H350	H	1.492849	-0.719043	0.524758
H351	H	1.826182	-0.385710	0.858092
Br352	Br	0.634049	-0.366896	0.220877
Br353	Br	0.967382	-0.033563	0.554210
Br354	Br	1.300716	0.299770	0.887543
Br355	Br	0.961082	-0.330726	0.565397
Br356	Br	1.294415	0.002607	0.898730
Br357	Br	1.627749	0.335941	1.232064
H358	H	0.986739	-0.451020	0.312560
H359	H	1.320072	-0.117687	0.645893
H360	H	1.653406	0.215647	0.979227
Br361	Br	1.185150	-0.173144	0.436747
Br362	Br	1.518484	0.160189	0.770081
Br363	Br	1.851817	0.493523	1.103414
H364	H	0.527257	-0.316599	0.316331
H365	H	0.860591	0.016734	0.649664
H366	H	1.193924	0.350067	0.982998
H367	H	0.527099	-0.163980	0.275694
H368	H	0.860433	0.169354	0.609028
H369	H	1.193766	0.502687	0.942361
H370	H	0.987041	-1.052423	0.312625
H371	H	1.320375	-0.719090	0.645959
H372	H	1.653708	-0.385756	0.979292
H373	H	1.159269	-0.550015	0.191369
H374	H	1.492602	-0.216682	0.524702
H375	H	1.825936	0.116652	0.858035
H376	H	0.986794	-0.550086	0.312579
H377	H	1.320127	-0.216753	0.645913
H378	H	1.653461	0.116581	0.979246
H379	H	1.206907	-0.157779	0.702756
H380	H	1.540240	0.175555	1.036090
H381	H	1.873573	0.508888	1.369423
H382	H	1.206917	-0.157753	0.801806
H383	H	1.540250	0.175581	1.135139
H384	H	1.873583	0.508914	1.468473
Br385	Br	1.185279	-0.172994	1.067796
Br386	Br	1.518612	0.160339	1.401129
Br387	Br	1.851946	0.493672	1.734462
