data_functionalizedCrystal
_audit_creation_method	'MofGen! by Chris Wilmer'
_symmetry_space_group_name_H-M	'P1'
_symmetry_Int_Tables_number	1
_symmetry_cell_setting	triclinic
loop_
_symmetry_equiv_pos_as_xyz
  x,y,z
_cell_length_a	16.992694
_cell_length_b	16.992695
_cell_length_c	9.130313
_cell_angle_alpha	89.995176
_cell_angle_beta	90.002155
_cell_angle_gamma	90.668223
loop_
_atom_site_label
_atom_site_type_symbol
_atom_site_fract_x
_atom_site_fract_y
_atom_site_fract_z
O1	O	1.050849	0.166916	-0.121617
O2	O	1.550849	0.666916	0.378383
O3	O	0.822449	0.165085	-0.121660
O4	O	1.322449	0.665085	0.378340
O5	O	0.935734	0.051801	-0.121627
O6	O	1.435734	0.551801	0.378373
O7	O	0.937565	0.280201	-0.121650
O8	O	1.437565	0.780201	0.378350
O9	O	0.935725	0.051797	0.121972
O10	O	1.435725	0.551797	0.621972
O11	O	0.822441	0.165081	0.121939
O12	O	1.322441	0.665081	0.621939
O13	O	1.050841	0.166912	0.121982
O14	O	1.550841	0.666912	0.621982
Cu15	Cu	0.936640	0.165996	0.144203
Cu16	Cu	1.436640	0.665996	0.644203
Cu17	Cu	0.936650	0.166001	-0.143881
Cu18	Cu	1.436650	0.666001	0.356119
O19	O	0.937557	0.280197	0.121949
O20	O	1.437557	0.780197	0.621949
C21	C	0.793085	0.162727	0.000134
C22	C	1.293085	0.662727	0.500134
C23	C	0.705600	0.155699	0.000118
C24	C	1.205600	0.655699	0.500118
C25	C	0.659610	0.223517	0.000112
C26	C	1.159610	0.723517	0.500112
C27	C	0.577409	0.216908	0.000133
C28	C	1.077409	0.716908	0.500133
C29	C	0.541201	0.142480	0.000149
C30	C	1.041201	0.642480	0.500149
C31	C	0.587198	0.074657	0.000159
C32	C	1.087198	0.574657	0.500159
C33	C	0.669397	0.081267	0.000148
C34	C	1.169397	0.581267	0.500148
C35	C	0.295886	0.115086	0.000191
C36	C	0.795886	0.615086	0.500191
C37	C	0.213681	0.108481	0.000197
C38	C	0.713681	0.608481	0.500197
C39	C	0.203898	0.250732	0.000173
C40	C	0.703898	0.750732	0.500173
C41	C	0.286099	0.257336	0.000154
C42	C	0.786099	0.757336	0.500154
C43	C	0.332089	0.189512	0.000172
C44	C	0.832089	0.689512	0.500172
N45	N	0.457178	0.135723	0.000166
N46	N	0.957178	0.635723	0.500166
N47	N	0.416110	0.196270	0.000166
N48	N	0.916110	0.696270	0.500166
C49	C	0.933374	0.022439	0.000172
C50	C	1.433374	0.522439	0.500172
C51	C	0.926345	-0.065046	0.000170
C52	C	1.426345	0.434954	0.500170
C53	C	0.994163	-0.111037	0.000184
C54	C	1.494163	0.388963	0.500184
C55	C	0.987554	-0.193238	0.000169
C56	C	1.487554	0.306762	0.500169
C57	C	0.913127	-0.229446	0.000150
C58	C	1.413127	0.270554	0.500150
C59	C	0.845303	-0.183449	0.000131
C60	C	1.345303	0.316551	0.500131
C61	C	0.851913	-0.101250	0.000136
C62	C	1.351913	0.398750	0.500136
C63	C	0.885732	-0.474760	0.000125
C64	C	1.385732	0.025240	0.500125
C65	C	0.879127	-0.556966	0.000124
C66	C	1.379127	-0.056966	0.500124
C67	C	1.021379	-0.566749	0.000159
C68	C	1.521379	-0.066749	0.500159
C69	C	1.027982	-0.484547	0.000173
C70	C	1.527982	0.015453	0.500173
C71	C	0.960159	-0.438558	0.000146
C72	C	1.460159	0.061442	0.500146
N73	N	0.906369	-0.313468	0.000139
N74	N	1.406369	0.186532	0.500139
N75	N	0.966917	-0.354537	0.000147
N76	N	1.466917	0.145463	0.500147
C77	C	1.080205	0.169270	0.000184
C78	C	1.580205	0.669270	0.500184
C79	C	1.167690	0.176299	0.000191
C80	C	1.667690	0.676299	0.500191
C81	C	0.939917	0.309559	0.000147
C82	C	1.439917	0.809559	0.500147
C83	C	0.946945	0.397044	0.000139
C84	C	1.446945	0.897044	0.500139
N85	N	0.936639	0.165993	0.346825
N86	N	1.436639	0.665993	0.846825
N87	N	0.936657	0.165999	-0.346504
N88	N	1.436657	0.665999	0.153496
C89	C	0.986821	0.115854	0.423492
C90	C	1.486821	0.615854	0.923492
C91	C	0.986828	0.115855	0.576829
C92	C	1.486828	0.615855	1.076829
C93	C	0.886470	0.216140	0.576819
C94	C	1.386470	0.716140	1.076819
C95	C	0.886459	0.216135	0.423485
C96	C	1.386459	0.716135	0.923485
H97	H	0.166444	0.305950	0.000162
H98	H	0.666444	0.805950	0.500162
H99	H	0.784703	-0.212936	0.000107
H100	H	1.284703	0.287064	0.500107
H101	H	0.796688	-0.063804	0.000124
H102	H	1.296688	0.436196	0.500124
Br103	Br	0.731814	-0.010776	0.000169
Br104	Br	1.231814	0.489224	0.500169
Br105	Br	0.818373	0.284188	0.680862
Br106	Br	1.318373	0.784188	1.180862
Br107	Br	1.054930	0.047803	0.680873
Br108	Br	1.554930	0.547803	1.180873
Br109	Br	0.164541	0.007465	0.000250
Br110	Br	0.664541	0.507465	0.500250
H111	H	0.333322	0.059859	0.000206
H112	H	0.833322	0.559859	0.500206
Br113	Br	0.818345	0.284178	0.319425
Br114	Br	1.318345	0.784178	0.819425
H115	H	0.557710	0.014056	0.000193
H116	H	1.057710	0.514056	0.500193
Br117	Br	0.335233	0.358348	0.000116
Br118	Br	0.835233	0.858348	0.500116
Br119	Br	1.095177	-0.061905	0.000231
Br120	Br	1.595177	0.438095	0.500231
Br121	Br	1.054920	0.047803	0.319459
Br122	Br	1.554920	0.547803	0.819459
H123	H	0.689084	0.284124	0.000098
H124	H	1.189084	0.784124	0.500098
Br125	Br	1.079597	-0.255651	0.000188
Br126	Br	1.579597	0.244349	0.500188
Br127	Br	1.128995	-0.435413	0.000152
Br128	Br	1.628995	0.064587	0.500152
H129	H	0.539966	0.272133	0.000126
H130	H	1.039966	0.772133	0.500126
H131	H	1.076596	-0.604202	0.000178
H132	H	1.576596	-0.104202	0.500178
H133	H	0.830505	-0.437325	0.000104
H134	H	1.330505	0.062675	0.500104
Br135	Br	0.778112	-0.606105	0.000114
Br136	Br	1.278112	-0.106105	0.500114
