data_functionalizedCrystal
_audit_creation_method	'MofGen! by Chris Wilmer'
_symmetry_space_group_name_H-M	'P1'
_symmetry_Int_Tables_number	1
_symmetry_cell_setting	triclinic
loop_
_symmetry_equiv_pos_as_xyz
  x,y,z
_cell_length_a	11.792254
_cell_length_b	15.944493
_cell_length_c	10.268362
_cell_angle_alpha	89.995473
_cell_angle_beta	90.004577
_cell_angle_gamma	83.836821
loop_
_atom_site_label
_atom_site_type_symbol
_atom_site_fract_x
_atom_site_fract_y
_atom_site_fract_z
O1	O	1.505920	0.115177	0.108281
O2	O	2.005920	0.615177	0.608281
O3	O	1.175479	0.127031	0.108282
O4	O	1.675479	0.627031	0.608282
O5	O	1.349757	-0.001133	0.108292
O6	O	1.849757	0.498867	0.608292
O7	O	1.331642	0.243341	0.108271
O8	O	1.831642	0.743341	0.608271
O9	O	1.349741	-0.001128	-0.108309
O10	O	1.849741	0.498872	0.391691
O11	O	1.175463	0.127036	-0.108319
O12	O	1.675463	0.627036	0.391681
O13	O	1.505903	0.115181	-0.108320
O14	O	2.005903	0.615181	0.391680
Cu15	Cu	1.340681	0.121109	-0.128097
Cu16	Cu	1.840681	0.621109	0.371903
Cu17	Cu	1.340701	0.121104	0.128059
Cu18	Cu	1.840701	0.621104	0.628059
O19	O	1.331625	0.243346	-0.108330
O20	O	1.831625	0.743346	0.391670
C21	C	1.133187	0.126287	-0.000018
C22	C	1.633187	0.626287	0.499982
C23	C	1.007193	0.124052	-0.000017
C24	C	1.507193	0.624052	0.499983
C25	C	0.904872	0.122236	-0.000011
C26	C	1.404872	0.622236	0.499989
C27	C	0.776504	0.119965	-0.000010
C28	C	1.276504	0.619965	0.499990
C29	C	1.349009	-0.032429	-0.000003
C30	C	1.849009	0.467571	0.499997
C31	C	1.346789	-0.125687	0.000014
C32	C	1.846789	0.374313	0.500014
C33	C	1.449373	-0.360981	-0.000011
C34	C	1.949373	0.139019	0.499989
C35	C	1.394061	-0.411803	0.106784
C36	C	1.894061	0.088197	0.606784
C37	C	1.342676	-0.296427	-0.000002
C38	C	1.842676	0.203573	0.499998
C39	C	1.394020	-0.411775	-0.106767
C40	C	1.894020	0.088225	0.393233
C41	C	1.338711	-0.461355	-0.000023
C42	C	1.838711	0.038645	0.499977
C43	C	1.287393	-0.346020	0.106881
C44	C	1.787393	0.153980	0.606881
C45	C	1.287367	-0.345989	-0.106766
C46	C	1.787367	0.154011	0.393234
C47	C	1.231977	-0.396778	0.000055
C48	C	1.731977	0.103222	0.500055
C49	C	1.344963	-0.201417	0.000011
C50	C	1.844963	0.298583	0.500011
C51	C	1.336415	-0.556362	-0.000027
C52	C	1.836415	-0.056362	0.499973
C53	C	1.548196	0.115926	-0.000017
C54	C	2.048196	0.615926	0.499983
C55	C	1.674190	0.118161	-0.000010
C56	C	2.174190	0.618161	0.499990
C57	C	1.332374	0.274642	-0.000033
C58	C	1.832374	0.774642	0.499967
C59	C	1.334594	0.367900	-0.000041
C60	C	1.834594	0.867900	0.499959
N61	N	1.340676	0.121112	-0.308263
N62	N	1.840676	0.621112	0.191737
C63	C	1.340684	0.121113	-0.426105
C64	C	1.840684	0.621113	0.073895
C65	C	1.340698	0.121105	-0.573943
C66	C	1.840698	0.621105	-0.073943
N67	N	1.340716	0.121094	0.308225
N68	N	1.840716	0.621094	0.808225
H69	H	1.541279	-0.344935	0.000096
H70	H	2.041279	0.155065	0.500096
H71	H	1.140000	-0.412662	0.000114
H72	H	1.640000	0.087338	0.500114
C73	C	1.454939	-0.450640	0.228748
C74	C	1.954939	0.049360	0.728748
H75	H	1.532131	-0.438644	0.228620
H76	H	2.032131	0.061356	0.728620
H77	H	1.417804	-0.427248	0.304588
H78	H	1.917804	0.072752	0.804588
H79	H	1.452460	-0.509996	0.228258
H80	H	1.952460	-0.009996	0.728258
C81	C	1.226586	-0.307375	0.228995
C82	C	1.726586	0.192625	0.728995
H83	H	1.228429	-0.247955	0.228282
H84	H	1.728429	0.252045	0.728282
H85	H	1.149604	-0.319842	0.229311
H86	H	1.649604	0.180158	0.729311
H87	H	1.264238	-0.330480	0.304737
H88	H	1.764238	0.169520	0.804737
C89	C	1.226545	-0.307131	-0.228739
C90	C	1.726545	0.192869	0.271261
H91	H	1.264575	-0.329750	-0.304551
H92	H	1.764575	0.170250	0.195449
H93	H	1.149740	-0.319999	-0.229509
H94	H	1.649740	0.180001	0.270491
H95	H	1.227824	-0.247664	-0.227423
H96	H	1.727824	0.252336	0.272577
H97	H	1.439095	-0.440499	-0.197048
H98	H	1.939095	0.059501	0.302952
