data_functionalizedCrystal
_audit_creation_method	'MofGen! by Chris Wilmer'
_symmetry_space_group_name_H-M	'P1'
_symmetry_Int_Tables_number	1
_symmetry_cell_setting	triclinic
loop_
_symmetry_equiv_pos_as_xyz
  x,y,z
_cell_length_a	23.532407
_cell_length_b	19.188930
_cell_length_c	17.666332
_cell_angle_alpha	90.023234
_cell_angle_beta	89.988854
_cell_angle_gamma	97.003272
loop_
_atom_site_label
_atom_site_type_symbol
_atom_site_fract_x
_atom_site_fract_y
_atom_site_fract_z
O1	O	0.071102	-0.925923	-0.063199
O2	O	0.571102	-0.425923	0.436801
O3	O	0.080673	-0.722581	-0.063148
O4	O	0.580673	-0.222581	0.436852
O5	O	-0.007031	-0.830384	-0.063161
O6	O	0.492969	-0.330384	0.436839
O7	O	0.158806	-0.818120	-0.063186
O8	O	0.658806	-0.318120	0.436814
O9	O	-0.007036	-0.830365	0.062735
O10	O	0.492964	-0.330365	0.562735
O11	O	0.080669	-0.722562	0.062748
O12	O	0.580669	-0.222562	0.562748
O13	O	0.071097	-0.925904	0.062697
O14	O	0.571097	-0.425904	0.562697
Cu15	Cu	0.075883	-0.824231	0.074218
Cu16	Cu	0.575883	-0.324231	0.574218
Cu17	Cu	0.075888	-0.824253	-0.074669
Cu18	Cu	0.575888	-0.324253	0.425331
O19	O	0.158802	-0.818101	0.062711
O20	O	0.658802	-0.318101	0.562711
C21	C	0.080361	-0.696561	-0.000193
C22	C	0.580361	-0.196561	0.499807
C23	C	0.079431	-0.619060	-0.000173
C24	C	0.579431	-0.119060	0.499827
C25	C	-0.028250	-0.830062	-0.000211
C26	C	0.471750	-0.330062	0.499789
C27	C	-0.091469	-0.829123	-0.000205
C28	C	0.408531	-0.329123	0.499795
N29	N	0.075878	-0.824221	0.178938
N30	N	0.575878	-0.324221	0.678938
C31	C	-0.490449	-0.887029	-0.000261
C32	C	0.009551	-0.387029	0.499739
C33	C	-0.549851	-0.886157	-0.000267
C34	C	-0.049851	-0.386157	0.499733
O35	O	-0.586482	-0.939837	-0.000308
O36	O	-0.086482	-0.439837	0.499692
N37	N	-0.572613	-0.822068	-0.000250
N38	N	-0.072613	-0.322068	0.499750
C39	C	-0.535970	-0.758848	-0.000236
C40	C	-0.035970	-0.258848	0.499764
O41	O	-0.560786	-0.704255	-0.000223
O42	O	-0.060786	-0.204255	0.499777
C43	C	-0.476569	-0.759721	-0.000235
C44	C	0.023431	-0.259721	0.499765
C45	C	-0.453810	-0.823814	-0.000244
C46	C	0.046190	-0.323814	0.499756
C47	C	-0.467690	-0.951117	-0.000271
C48	C	0.032310	-0.451117	0.499729
C49	C	-0.408292	-0.951989	-0.000264
C50	C	0.091708	-0.451989	0.499736
C51	C	-0.371653	-0.888773	-0.000247
C52	C	0.128347	-0.388773	0.499753
C53	C	-0.394412	-0.824685	-0.000237
C54	C	0.105588	-0.324685	0.499763
C55	C	-0.439927	-0.696501	-0.000226
C56	C	0.060073	-0.196501	0.499774
C57	C	-0.380523	-0.697379	-0.000227
C58	C	0.119477	-0.197379	0.499773
C59	C	-0.357764	-0.761472	-0.000236
C60	C	0.142236	-0.261472	0.499764
C61	C	-0.298376	-0.762342	-0.000214
C62	C	0.201624	-0.262342	0.499786
N63	N	-0.275614	-0.826430	-0.000230
N64	N	0.224386	-0.326430	0.499770
C65	C	-0.312252	-0.889646	-0.000247
C66	C	0.187748	-0.389646	0.499753
C67	C	-0.660717	-0.757019	-0.000237
C68	C	-0.160717	-0.257019	0.499763
C69	C	-0.720116	-0.756146	-0.000232
C70	C	-0.220116	-0.256146	0.499768
C71	C	-0.733993	-0.883455	-0.000264
C72	C	-0.233993	-0.383455	0.499736
C73	C	-0.674592	-0.884328	-0.000264
C74	C	-0.174592	-0.384328	0.499736
C75	C	-0.637954	-0.821108	-0.000254
C76	C	-0.137954	-0.321108	0.499746
C77	C	-0.187512	-0.891472	-0.000232
C78	C	0.312488	-0.391472	0.499768
C79	C	-0.128108	-0.892339	-0.000222
C80	C	0.371892	-0.392339	0.499778
C81	C	-0.114236	-0.765029	-0.000193
C82	C	0.385764	-0.265029	0.499807
C83	C	-0.173634	-0.764163	-0.000199
C84	C	0.326366	-0.264163	0.499801
C85	C	-0.210272	-0.827390	-0.000221
C86	C	0.289728	-0.327390	0.499779
O87	O	-0.261710	-0.708690	-0.000176
O88	O	0.238290	-0.208690	0.499824
O89	O	-0.287428	-0.944230	-0.000270
O90	O	0.212572	-0.444230	0.499730
C91	C	0.180021	-0.818423	-0.000241
C92	C	0.680021	-0.318423	0.499759
C93	C	0.243240	-0.819362	-0.000252
C94	C	0.743240	-0.319362	0.499748
C95	C	0.071410	-0.951923	-0.000259
C96	C	0.571410	-0.451923	0.499741
C97	C	0.072340	-1.029425	-0.000284
C98	C	0.572340	-0.529425	0.499716
C99	C	0.130893	-0.573972	-0.000193
C100	C	0.630893	-0.073972	0.499807
C101	C	0.130019	-0.501151	-0.000201
C102	C	0.630019	-0.001151	0.499799
C103	C	0.077680	-0.473421	-0.000205
C104	C	0.577680	0.026579	0.499795
C105	C	0.026211	-0.518519	-0.000181
C106	C	0.526211	-0.018519	0.499819
C107	C	0.027086	-0.591339	-0.000165
C108	C	0.527086	-0.091339	0.499835
N109	N	0.037674	-0.365575	-0.043078
N110	N	0.537674	0.134425	0.456922
N111	N	0.036846	-0.296399	-0.043094
N112	N	0.536846	0.203601	0.456906
C113	C	0.075038	-0.254021	-0.000251
C114	C	0.575038	0.245979	0.499749
N115	N	0.114099	-0.283431	0.042600
N116	N	0.614099	0.216569	0.542600
N117	N	0.114929	-0.352613	0.042614
N118	N	0.614929	0.147387	0.542614
C119	C	0.076724	-0.394462	-0.000222
C120	C	0.576724	0.105538	0.499778
C121	C	0.125556	-0.129971	-0.000278
C122	C	0.625556	0.370029	0.499722
C123	C	0.124680	-0.057149	-0.000282
C124	C	0.624680	0.442851	0.499718
C125	C	0.020870	-0.074520	-0.000269
C126	C	0.520870	0.425480	0.499731
C127	C	0.021748	-0.147340	-0.000258
C128	C	0.521748	0.352660	0.499742
C129	C	0.074092	-0.175061	-0.000266
C130	C	0.574092	0.324939	0.499734
N131	N	0.075888	-0.824270	-0.179389
N132	N	0.575888	-0.324270	0.320611
C133	C	0.037062	-0.871971	0.218542
C134	C	0.537062	-0.371971	0.718542
C135	C	0.037059	-0.871975	0.297789
C136	C	0.537059	-0.371975	0.797789
C137	C	0.075883	-0.824236	0.337430
C138	C	0.575883	-0.324236	0.837430
C139	C	0.114702	-0.776476	0.297816
C140	C	0.614702	-0.276476	0.797816
C141	C	0.114700	-0.776469	0.218570
C142	C	0.614700	-0.276469	0.718570
N143	N	0.126298	-0.814998	0.461842
N144	N	0.626298	-0.314998	0.961842
N145	N	0.126298	-0.815010	0.537123
N146	N	0.626298	-0.315010	1.037123
C147	C	0.075891	-0.824254	0.576194
C148	C	0.575891	-0.324254	1.076194
N149	N	0.025481	-0.833500	0.537141
N150	N	0.525481	-0.333500	1.037141
N151	N	0.025482	-0.833493	0.461853
N152	N	0.525482	-0.333493	0.961853
C153	C	0.075889	-0.824238	0.423359
C154	C	0.575889	-0.324238	0.923359
C155	C	0.037068	-0.872011	0.701727
C156	C	0.537068	-0.372011	1.201727
C157	C	0.037064	-0.872010	0.780976
C158	C	0.537064	-0.372010	1.280976
C159	C	0.114713	-0.776515	0.781002
C160	C	0.614713	-0.276515	1.281002
C161	C	0.114711	-0.776512	0.701754
C162	C	0.614711	-0.276512	1.201754
C163	C	0.075889	-0.824264	0.662122
C164	C	0.575889	-0.324264	1.162122
H165	H	-0.109581	-0.944533	-0.000227
H166	H	0.390419	-0.444533	0.499773
H167	H	-0.497516	-1.002598	-0.000287
H168	H	0.002484	-0.502598	0.499713
O169	O	0.182010	-0.159877	-0.000269
O170	O	0.682010	0.340123	0.499731
H171	H	0.206739	-0.141758	-0.051582
H172	H	0.706739	0.358242	0.448418
O173	O	-0.074711	-0.696850	-0.000171
O174	O	0.425289	-0.196850	0.499829
H175	H	-0.082776	-0.666166	-0.051477
H176	H	0.417224	-0.166166	0.448523
H177	H	0.146310	-0.737584	0.186324
H178	H	0.646310	-0.237584	0.686324
O179	O	-0.464462	-0.627369	-0.000223
O180	O	0.035538	-0.127369	0.499777
H181	H	-0.491197	-0.623904	0.051091
H182	H	0.008803	-0.123904	0.551091
O183	O	-0.004808	-0.923502	0.658971
O184	O	0.495192	-0.423502	1.158971
H185	H	-0.031808	-0.956700	0.699828
H186	H	0.468192	-0.456700	1.199828
O187	O	-0.650046	-0.953455	-0.000288
O188	O	-0.150046	-0.453455	0.499712
H189	H	-0.685508	-0.997262	-0.000306
H190	H	-0.185508	-0.497262	0.499694
O191	O	-0.004798	-0.923522	0.823698
O192	O	0.495202	-0.423522	1.323698
H193	H	-0.031785	-0.956730	0.782822
H194	H	0.468215	-0.456730	1.282822
H195	H	0.173516	-0.596537	-0.000201
H196	H	0.673516	-0.096537	0.499799
O197	O	0.156578	-0.725011	0.659031
O198	O	0.656578	-0.225011	1.159031
H199	H	0.184195	-0.754201	0.622894
H200	H	0.684195	-0.254201	1.122894
O201	O	0.156599	-0.725026	0.823734
O202	O	0.656599	-0.225026	1.323734
H203	H	0.132706	-0.691258	0.859872
H204	H	0.632706	-0.191258	1.359872
H205	H	-0.014822	-0.628050	-0.000150
H206	H	0.485178	-0.128050	0.499850
O207	O	0.185524	-0.452503	-0.000224
O208	O	0.685524	0.047497	0.499776
H209	H	0.210577	-0.462338	-0.051545
H210	H	0.710577	0.037662	0.448455
O211	O	-0.227023	-0.959665	-0.000244
O212	O	0.272977	-0.459665	0.499756
H213	H	-0.201209	-1.004370	-0.000241
H214	H	0.298791	-0.504370	0.499759
H215	H	-0.020158	-0.184052	-0.000246
H216	H	0.479842	0.315948	0.499754
O217	O	-0.030243	-0.488618	-0.000185
O218	O	0.469757	0.011382	0.499815
H219	H	-0.022207	-0.430406	-0.000207
H220	H	0.477793	0.069594	0.499793
O221	O	-0.004815	-0.923463	0.175793
O222	O	0.495185	-0.423463	0.675793
H223	H	-0.031812	-0.956663	0.216651
H224	H	0.468188	-0.456663	0.716651
H225	H	-0.389768	-1.004180	-0.000274
H226	H	0.110232	-0.504180	0.499726
O227	O	0.180188	-0.008512	-0.000300
O228	O	0.680188	0.491488	0.499700
H229	H	0.216730	-0.040026	-0.000309
H230	H	0.716730	0.459974	0.499691
O231	O	-0.035584	-0.044624	-0.000274
O232	O	0.464416	0.455376	0.499726
H233	H	-0.027548	0.013588	-0.000292
H234	H	0.472452	0.513588	0.499708
O235	O	-0.773516	-0.951642	-0.000290
O236	O	-0.273516	-0.451642	0.499710
H237	H	-0.818643	-0.940262	-0.000298
H238	H	-0.318643	-0.440262	0.499702
H239	H	-0.630888	-0.705535	-0.000222
H240	H	-0.130888	-0.205535	0.499778
H241	H	0.146312	-0.737605	0.330096
H242	H	0.646312	-0.237605	0.830096
O243	O	-0.744662	-0.687018	-0.000212
O244	O	-0.244662	-0.187018	0.499788
H245	H	-0.709199	-0.643211	-0.000204
H246	H	-0.209199	-0.143211	0.499796
O247	O	-0.341004	-0.629191	-0.000207
O248	O	0.158996	-0.129191	0.499793
H249	H	-0.366814	-0.584482	-0.000193
H250	H	0.133186	-0.084482	0.499807
O251	O	-0.004803	-0.923486	0.340520
O252	O	0.495197	-0.423486	0.840520
H253	H	-0.031794	-0.956693	0.299647
H254	H	0.468206	-0.456693	0.799647
H255	H	-0.192165	-0.711973	-0.000171
H256	H	0.307835	-0.211973	0.499829
