data_functionalizedCrystal
_audit_creation_method	'MofGen! by Chris Wilmer'
_symmetry_space_group_name_H-M	'P1'
_symmetry_Int_Tables_number	1
_symmetry_cell_setting	triclinic
loop_
_symmetry_equiv_pos_as_xyz
  x,y,z
_cell_length_a	16.109302
_cell_length_b	14.044190
_cell_length_c	15.186229
_cell_angle_alpha	89.991383
_cell_angle_beta	89.994701
_cell_angle_gamma	88.326779
loop_
_atom_site_label
_atom_site_type_symbol
_atom_site_fract_x
_atom_site_fract_y
_atom_site_fract_z
O1	O	1.112198	0.121838	-0.073279
O2	O	1.445531	0.455171	0.260055
O3	O	1.778864	0.788505	0.593388
O4	O	0.871264	0.136999	-0.073273
O5	O	1.204598	0.470333	0.260060
O6	O	1.537931	0.803666	0.593394
O7	O	0.988112	-0.008565	-0.073258
O8	O	1.321445	0.324768	0.260075
O9	O	1.654778	0.658102	0.593408
O10	O	0.995350	0.267402	-0.073293
O11	O	1.328684	0.600736	0.260040
O12	O	1.662017	0.934069	0.593374
O13	O	0.988103	-0.008567	0.073199
O14	O	1.321436	0.324766	0.406532
O15	O	1.654770	0.658100	0.739866
O16	O	0.871256	0.136997	0.073184
O17	O	1.204589	0.470331	0.406518
O18	O	1.537922	0.803664	0.739851
O19	O	1.112189	0.121836	0.073179
O20	O	1.445522	0.455169	0.406512
O21	O	1.778856	0.788503	0.739845
Zn22	Zn	0.991721	0.129416	0.096435
Zn23	Zn	1.325054	0.462750	0.429768
Zn24	Zn	1.658388	0.796083	0.763101
Zn25	Zn	0.991732	0.129419	-0.096529
Zn26	Zn	1.325066	0.462752	0.236804
Zn27	Zn	1.658399	0.796086	0.570138
O28	O	0.995342	0.267400	0.073164
O29	O	1.328675	0.600734	0.406497
O30	O	1.662008	0.934067	0.739831
C31	C	0.840239	0.136384	-0.000043
C32	C	1.173573	0.469718	0.333290
C33	C	1.506906	0.803051	0.666623
C34	C	0.747807	0.134543	-0.000040
C35	C	1.081140	0.467876	0.333293
C36	C	1.414474	0.801209	0.666626
C37	C	0.535144	0.130283	0.079785
C38	C	0.868478	0.463616	0.413119
C39	C	1.201811	0.796950	0.746452
C40	C	0.448295	0.128542	0.079782
C41	C	0.781628	0.461876	0.413116
C42	C	1.114961	0.795209	0.746449
C43	C	0.448315	0.128550	-0.079893
C44	C	0.781648	0.461883	0.253440
C45	C	1.114982	0.795216	0.586773
C46	C	0.535163	0.130283	-0.079890
C47	C	0.868497	0.463617	0.253444
C48	C	1.201830	0.796950	0.586777
C49	C	0.578576	0.131155	-0.000048
C50	C	0.911909	0.464488	0.333286
C51	C	1.245242	0.797822	0.666619
C52	C	0.404878	0.127681	-0.000054
C53	C	0.738211	0.461014	0.333279
C54	C	1.071544	0.794347	0.666612
C55	C	0.310712	0.125793	-0.000058
C56	C	0.644045	0.459127	0.333275
C57	C	0.977378	0.792460	0.666609
C58	C	0.672748	0.133040	-0.000044
C59	C	1.006081	0.466374	0.333290
C60	C	1.339415	0.799707	0.666623
C61	C	0.984940	-0.043879	-0.000027
C62	C	1.318274	0.289454	0.333306
C63	C	1.651607	0.622787	0.666640
C64	C	0.975494	-0.149103	-0.000019
C65	C	1.308828	0.184231	0.333314
C66	C	1.642161	0.517564	0.666648
C67	C	1.025219	-0.399404	-0.000055
C68	C	1.358552	-0.066071	0.333279
C69	C	1.691886	0.267262	0.666612
C70	C	0.958238	-0.341755	-0.000047
C71	C	1.291571	-0.008421	0.333286
C72	C	1.624905	0.324912	0.666620
C73	C	0.967842	-0.234553	-0.000032
C74	C	1.301175	0.098780	0.333302
C75	C	1.634508	0.432113	0.666635
C76	C	1.015617	-0.506616	-0.000070
C77	C	1.348950	-0.173282	0.333263
C78	C	1.682283	0.160051	0.666596
C79	C	1.143214	0.122451	-0.000053
C80	C	1.476547	0.455785	0.333281
C81	C	1.809881	0.789118	0.666614
C82	C	1.235646	0.124293	-0.000062
C83	C	1.568980	0.457626	0.333272
C84	C	1.902313	0.790960	0.666605
C85	C	0.998513	0.302715	-0.000069
C86	C	1.331846	0.636048	0.333264
C87	C	1.665180	0.969382	0.666598
C88	C	1.007959	0.407938	-0.000083
C89	C	1.341292	0.741271	0.333251
C90	C	1.674626	1.074605	0.666584
N91	N	0.991719	0.129414	0.228127
N92	N	1.325053	0.462747	0.561461
N93	N	1.658386	0.796081	0.894794
N94	N	0.991740	0.129414	-0.228222
N95	N	1.325073	0.462747	0.105112
N96	N	1.658407	0.796081	0.438445
C97	C	1.043480	0.064980	0.453857
C98	C	1.376813	0.398313	0.787190
C99	C	1.710147	0.731646	1.120523
C100	C	1.043482	0.064977	0.546046
C101	C	1.376816	0.398311	0.879380
C102	C	1.710149	0.731644	1.212713
C103	C	0.939974	0.193851	0.546043
C104	C	1.273307	0.527185	0.879376
C105	C	1.606640	0.860518	1.212709
C106	C	0.939967	0.193848	0.453855
C107	C	1.273301	0.527182	0.787188
C108	C	1.606634	0.860515	1.120521
C109	C	0.991725	0.129414	0.407764
C110	C	1.325059	0.462747	0.741097
C111	C	1.658392	0.796080	1.074431
C112	C	0.991734	0.129414	0.592142
C113	C	1.325067	0.462748	0.925475
C114	C	1.658401	0.796081	1.258808
C115	C	0.991736	0.129412	0.692098
C116	C	1.325070	0.462746	1.025431
C117	C	1.658403	0.796079	1.358765
C118	C	0.991722	0.129414	0.307802
C119	C	1.325055	0.462747	0.641135
C120	C	1.658389	0.796081	0.974468
H121	H	0.570488	0.130993	0.144798
H122	H	0.903821	0.464326	0.478131
H123	H	1.237155	0.797659	0.811464
O124	O	0.577228	0.131171	-0.157523
O125	O	0.910561	0.464505	0.175810
O126	O	1.243894	0.797838	0.509144
C127	C	0.520290	0.130015	-0.227994
C128	C	0.853624	0.463348	0.105339
C129	C	1.186957	0.796682	0.438672
H130	H	0.457160	0.158770	-0.204599
H131	H	0.790493	0.492103	0.128734
H132	H	1.123827	0.825437	0.462067
H133	H	0.543527	0.176508	-0.283834
H134	H	0.876861	0.509841	0.049500
H135	H	1.210194	0.843175	0.382833
H136	H	0.514143	0.053834	-0.252535
H137	H	0.847477	0.387167	0.080798
H138	H	1.180810	0.720501	0.414131
H139	H	1.089770	-0.368250	-0.000047
H140	H	1.423104	-0.034917	0.333286
H141	H	1.756437	0.298416	0.666619
O142	O	0.406233	0.127744	0.157411
O143	O	0.739566	0.461077	0.490744
O144	O	1.072899	0.794410	0.824078
C145	C	0.463178	0.128859	0.227877
C146	C	0.796511	0.462192	0.561210
C147	C	1.129844	0.795525	0.894543
H148	H	0.523870	0.160089	0.204469
H149	H	0.857203	0.493422	0.537802
H150	H	1.190536	0.826755	0.871136
H151	H	0.436209	0.174346	0.283708
H152	H	0.769543	0.507680	0.617041
H153	H	1.102876	0.841013	0.950375
H154	H	0.475501	0.053046	0.252434
H155	H	0.808834	0.386379	0.585768
H156	H	1.142167	0.719712	0.919101
H157	H	0.893681	-0.372910	-0.000051
H158	H	1.227015	-0.039577	0.333283
H159	H	1.560348	0.293756	0.666616
H160	H	0.897835	0.246314	0.583579
H161	H	1.231168	0.579647	0.916912
H162	H	1.564501	0.912981	1.250245
H163	H	1.085623	0.012512	0.416332
H164	H	1.418957	0.345845	0.749665
H165	H	1.752290	0.679178	1.082999
H166	H	0.897819	0.246318	0.416323
H167	H	1.231152	0.579652	0.749657
H168	H	1.564485	0.912985	1.082990
O169	O	1.093682	0.002424	0.590957
O170	O	1.427015	0.335758	0.924290
O171	O	1.760348	0.669091	1.257624
C172	C	1.082605	0.016253	0.682209
C173	C	1.415938	0.349586	1.015542
C174	C	1.749272	0.682920	1.348875
H175	H	1.019134	0.051655	0.694805
H176	H	1.352467	0.384989	1.028139
H177	H	1.685800	0.718322	1.361472
H178	H	1.086535	-0.055527	0.717253
H179	H	1.419868	0.277806	1.050586
H180	H	1.753202	0.611140	1.383920
H181	H	1.133188	0.063811	0.708356
H182	H	1.466521	0.397144	1.041689
H183	H	1.799855	0.730478	1.375022
H184	H	0.412958	0.127841	-0.144898
H185	H	0.746292	0.461174	0.188436
H186	H	1.079625	0.794508	0.521769
