data_functionalizedCrystal
_audit_creation_method	'MofGen! by Chris Wilmer'
_symmetry_space_group_name_H-M	'P1'
_symmetry_Int_Tables_number	1
_symmetry_cell_setting	triclinic
loop_
_symmetry_equiv_pos_as_xyz
  x,y,z
_cell_length_a	18.050591
_cell_length_b	25.639239
_cell_length_c	18.050583
_cell_angle_alpha	89.961658
_cell_angle_beta	89.977979
_cell_angle_gamma	90.034692
loop_
_atom_site_label
_atom_site_type_symbol
_atom_site_fract_x
_atom_site_fract_y
_atom_site_fract_z
Zn1	Zn	1.135247	-0.208169	-0.420021
Zn2	Zn	1.635247	0.291831	0.079979
Zn3	Zn	1.135132	-0.295618	-0.295826
Zn4	Zn	1.635132	0.204382	0.204174
Zn5	Zn	1.011063	-0.208192	-0.295832
Zn6	Zn	1.511063	0.291808	0.204168
Zn7	Zn	1.010991	-0.295569	-0.419962
Zn8	Zn	1.510991	0.204431	0.080038
O9	O	1.073108	-0.251887	-0.357910
O10	O	1.573108	0.248113	0.142090
O11	O	1.239156	-0.219780	-0.403568
O12	O	1.739156	0.280220	0.096432
O13	O	1.118657	-0.284050	-0.191902
O14	O	1.618657	0.215950	0.308098
O15	O	1.027615	-0.135024	-0.312333
O16	O	1.527615	0.364976	0.187667
O17	O	1.239072	-0.284028	-0.312323
O18	O	1.739072	0.215972	0.187677
O19	O	1.118852	-0.135007	-0.403574
O20	O	1.618852	0.364993	0.096426
O21	O	1.027504	-0.219819	-0.191906
O22	O	1.527504	0.280181	0.308094
O23	O	0.907129	-0.219772	-0.312276
O24	O	1.407129	0.280228	0.187724
O25	O	1.027491	-0.283945	-0.523894
O26	O	1.527491	0.216055	-0.023894
O27	O	0.907076	-0.283968	-0.403473
O28	O	1.407076	0.216032	0.096527
O29	O	1.118781	-0.219733	-0.523938
O30	O	1.618781	0.280267	-0.023938
O31	O	1.118587	-0.368776	-0.312266
O32	O	1.618587	0.131224	0.187734
O33	O	1.027381	-0.368741	-0.403468
O34	O	1.527381	0.131259	0.096532
C35	C	0.880156	-0.251867	-0.357869
C36	C	1.380156	0.248133	0.142131
C37	C	0.797610	-0.251872	-0.357869
C38	C	1.297610	0.248128	0.142131
C39	C	1.072983	-0.387730	-0.357876
C40	C	1.572983	0.112270	0.142124
C41	C	1.072998	-0.445844	-0.357886
C42	C	1.572998	0.054156	0.142114
C43	C	0.598167	-0.216922	-0.308390
C44	C	1.098167	0.283078	0.191610
C45	C	0.548735	-0.264612	-0.290112
C46	C	1.048735	0.235388	0.209888
C47	C	0.646480	-0.251888	-0.357903
C48	C	1.146480	0.248112	0.142097
C49	C	0.548831	-0.204213	-0.376179
C50	C	1.048831	0.295787	0.123821
C51	C	0.500495	-0.251899	-0.357934
C52	C	1.000495	0.248101	0.142066
C53	C	0.598135	-0.299603	-0.339589
C54	C	1.098135	0.200397	0.160411
C55	C	0.598235	-0.239172	-0.425688
C56	C	1.098235	0.260828	0.074312
C57	C	0.548825	-0.286896	-0.407435
C58	C	1.048825	0.213104	0.092565
C59	C	0.730578	-0.251880	-0.357883
C60	C	1.230578	0.248120	0.142117
C61	C	0.416398	-0.251911	-0.357954
C62	C	0.916398	0.248089	0.142046
C63	C	1.120723	-0.806213	-0.310502
C64	C	1.620723	-0.306213	0.189498
C65	C	1.120752	-0.860817	-0.310512
C66	C	1.620752	-0.360817	0.189488
O67	O	1.161200	-0.889059	-0.270187
O68	O	1.661200	-0.389059	0.229813
N69	N	1.073239	-0.888126	-0.357959
N70	N	1.573239	-0.388126	0.142041
C71	C	1.025699	-0.860828	-0.405405
C72	C	1.525699	-0.360828	0.094595
O73	O	0.985289	-0.889070	-0.445764
O74	O	1.485289	-0.389070	0.054236
C75	C	1.025675	-0.806225	-0.405398
C76	C	1.525675	-0.306225	0.094602
C77	C	1.073186	-0.778918	-0.357943
C78	C	1.573186	-0.278918	0.142057
C79	C	1.168231	-0.778906	-0.263051
C80	C	1.668231	-0.278906	0.236949
C81	C	1.168201	-0.724306	-0.263040
C82	C	1.668201	-0.224306	0.236960
C83	C	1.120663	-0.697011	-0.310481
C84	C	1.620663	-0.197011	0.189519
C85	C	1.073156	-0.724318	-0.357932
C86	C	1.573156	-0.224318	0.142068
C87	C	0.978139	-0.778928	-0.452847
C88	C	1.478139	-0.278928	0.047153
C89	C	0.978119	-0.724321	-0.452837
C90	C	1.478119	-0.224321	0.047163
C91	C	1.025630	-0.697014	-0.405381
C92	C	1.525630	-0.197014	0.094619
C93	C	1.025588	-0.642423	-0.405362
C94	C	1.525588	-0.142423	0.094638
N95	N	1.073101	-0.615114	-0.357914
N96	N	1.573101	-0.115114	0.142086
C97	C	1.120639	-0.642408	-0.310474
C98	C	1.620639	-0.142408	0.189526
C99	C	1.025755	-0.975499	-0.405416
C100	C	1.525755	-0.475499	0.094584
C101	C	1.025775	-1.030101	-0.405420
C102	C	1.525775	-0.530101	0.094580
C103	C	1.120829	-1.030086	-0.310528
C104	C	1.620829	-0.530086	0.189472
C105	C	1.120805	-0.975483	-0.310521
C106	C	1.620805	-0.475483	0.189479
C107	C	1.073268	-0.948189	-0.357969
C108	C	1.573268	-0.448189	0.142031
C109	C	1.120572	-0.527743	-0.310455
C110	C	1.620572	-0.027743	0.189545
C111	C	1.120536	-0.473138	-0.310446
C112	C	1.620536	0.026862	0.189554
C113	C	1.025485	-0.473157	-0.405340
C114	C	1.525485	0.026843	0.094660
C115	C	1.025518	-0.527758	-0.405347
C116	C	1.525518	-0.027758	0.094653
C117	C	1.073068	-0.555049	-0.357901
C118	C	1.573068	-0.055049	0.142099
O119	O	0.985163	-0.614147	-0.445668
O120	O	1.485163	-0.114147	0.054332
O121	O	1.161049	-0.614159	-0.270129
O122	O	1.661049	-0.114159	0.229871
C123	C	1.266814	-0.251907	-0.357952
C124	C	1.766814	0.248093	0.142048
C125	C	1.349360	-0.251915	-0.357970
C126	C	1.849360	0.248085	0.142030
C127	C	1.073141	-0.251831	-0.551616
C128	C	1.573141	0.248169	-0.051616
C129	C	1.073155	-0.251807	-0.634162
C130	C	1.573155	0.248193	-0.134162
C131	C	1.073254	-0.115514	-0.357961
C132	C	1.573254	0.384486	0.142039
C133	C	1.073316	-0.057400	-0.357982
C134	C	1.573316	0.442600	0.142018
C135	C	1.122848	-0.216872	-0.833636
C136	C	1.622848	0.283128	-0.333636
C137	C	1.055118	-0.204072	-0.883024
C138	C	1.555118	0.295928	-0.383024
C139	C	1.073185	-0.251798	-0.785292
C140	C	1.573185	0.248202	-0.285292
C141	C	1.140943	-0.264565	-0.882986
C142	C	1.640943	0.235435	-0.382986
C143	C	1.073220	-0.251789	-0.931277
C144	C	1.573220	0.248211	-0.431277
C145	C	1.005419	-0.238974	-0.833593
C146	C	1.505419	0.261026	-0.333593
C147	C	1.091289	-0.299489	-0.833550
C148	C	1.591289	0.200511	-0.333550
C149	C	1.023512	-0.286708	-0.882916
C150	C	1.523512	0.213292	-0.382916
C151	C	1.073166	-0.251803	-0.701194
C152	C	1.573166	0.248197	-0.201194
C153	C	1.073231	-0.251785	-1.015374
C154	C	1.573231	0.248215	-0.515374
C155	C	1.073118	-0.251905	-0.164958
C156	C	1.573118	0.248095	0.335042
C157	C	1.073248	-0.251781	-0.082413
C158	C	1.573248	0.248219	0.417587
H159	H	0.619832	-0.187384	-0.266473
H160	H	1.119832	0.312616	0.233527
C161	C	1.173118	-1.060117	-0.258342
C162	C	1.673118	-0.560117	0.241658
H163	H	1.166328	-1.096546	-0.265150
H164	H	1.666328	-0.596546	0.234850
H165	H	1.162276	-1.051204	-0.208431
H166	H	1.662276	-0.551204	0.291569
H167	H	1.223010	-1.051133	-0.269261
H168	H	1.723010	-0.551133	0.230739
C169	C	0.519575	-0.149744	-0.397051
C170	C	1.019575	0.350256	0.102949
H171	H	0.536480	-0.124941	-0.361812
H172	H	1.036480	0.375059	0.138188
H173	H	0.466954	-0.150213	-0.397358
H174	H	0.966954	0.349787	0.102642
H175	H	0.537260	-0.140468	-0.444856
H176	H	1.037260	0.359532	0.055144
H177	H	1.164778	-0.187317	-0.811995
H178	H	1.664778	0.312683	-0.311995
H179	H	0.939447	-0.801151	-0.491487
H180	H	1.439447	-0.301151	0.008513
C181	C	0.519356	-0.279152	-0.212693
C182	C	1.019356	0.220848	0.287307
H183	H	0.536246	-0.254270	-0.177558
H184	H	1.036246	0.245730	0.322442
H185	H	0.536962	-0.312782	-0.199379
H186	H	1.036962	0.187218	0.300621
H187	H	0.466732	-0.279359	-0.213379
H188	H	0.966732	0.220641	0.286621
C189	C	1.220516	-0.808924	-0.210854
C190	C	1.720516	-0.308924	0.289146
H191	H	1.213735	-0.845356	-0.217645
H192	H	1.713735	-0.345356	0.282355
H193	H	1.209663	-0.800001	-0.160949
H194	H	1.709663	-0.300001	0.339051
H195	H	1.270407	-0.799937	-0.221769
H196	H	1.770407	-0.299937	0.278231
C197	C	1.172803	-0.443104	-0.258246
C198	C	1.672803	0.056896	0.241754
H199	H	1.201123	-0.467183	-0.230001
H200	H	1.701123	0.032817	0.269999
H201	H	1.144408	-0.421840	-0.225853
H202	H	1.644408	0.078160	0.274147
H203	H	1.205135	-0.421766	-0.286690
H204	H	1.705135	0.078234	0.213310
C205	C	0.925828	-0.694301	-0.505031
C206	C	1.425828	-0.194301	-0.005031
H207	H	0.897537	-0.718387	-0.533289
H208	H	1.397537	-0.218387	-0.033289
H209	H	0.954206	-0.672963	-0.537414
H210	H	1.454206	-0.172963	-0.037414
H211	H	0.893470	-0.673039	-0.476586
H212	H	1.393470	-0.173039	0.023414
H213	H	1.106611	-0.339813	-0.811804
H214	H	1.606611	0.160187	-0.311804
C215	C	0.519736	-0.326889	-0.464019
C216	C	1.019736	0.173111	0.035981
H217	H	0.490799	-0.309497	-0.500380
H218	H	0.990799	0.190503	-0.000380
H219	H	0.490069	-0.352090	-0.439299
H220	H	0.990069	0.147910	0.060701
H221	H	0.560398	-0.343747	-0.487298
H222	H	1.060398	0.156253	0.012702
H223	H	0.948115	-0.228125	-0.811988
H224	H	1.448115	0.271875	-0.311988
C225	C	1.173072	-0.945451	-0.258327
C226	C	1.673072	-0.445451	0.241673
H227	H	1.201387	-0.969531	-0.230079
H228	H	1.701387	-0.469531	0.269921
H229	H	1.144680	-0.924183	-0.225935
H230	H	1.644680	-0.424183	0.274065
H231	H	1.205408	-0.924117	-0.286771
H232	H	1.705408	-0.424117	0.213229
H233	H	1.039816	-0.163737	-0.904756
H234	H	1.539816	0.336263	-0.404756
C235	C	0.973509	-1.060132	-0.457616
C236	C	1.473509	-0.560132	0.042384
H237	H	0.945200	-1.036051	-0.485870
H238	H	1.445200	-0.536051	0.014130
H239	H	0.941178	-1.081472	-0.429184
H240	H	1.441178	-0.581472	0.070816
H241	H	1.001912	-1.081393	-0.490014
H242	H	1.501912	-0.581393	0.009986
C243	C	0.973257	-0.557796	-0.457545
C244	C	1.473257	-0.057796	0.042455
H245	H	0.944944	-0.533718	-0.485799
H246	H	1.444944	-0.033718	0.014201
H247	H	0.940928	-0.579140	-0.429114
H248	H	1.440928	-0.079140	0.070886
H249	H	1.001666	-0.579053	-0.489941
H250	H	1.501666	-0.079053	0.010059
H251	H	0.619703	-0.339937	-0.324080
H252	H	1.119703	0.160063	0.175920
C253	C	0.627637	-0.224613	-0.503085
C254	C	1.127637	0.275387	-0.003085
H255	H	0.610788	-0.190708	-0.515988
H256	H	1.110788	0.309292	-0.015988
H257	H	0.610010	-0.249109	-0.538395
H258	H	1.110010	0.250891	-0.038395
H259	H	0.680261	-0.225028	-0.502616
H260	H	1.180261	0.274972	-0.002616
H261	H	1.159293	-0.549957	-0.271822
H262	H	1.659293	-0.049957	0.228178
H263	H	1.198229	-0.275366	-0.904684
H264	H	1.698229	0.224634	-0.404684
H265	H	1.206890	-0.702076	-0.224400
H266	H	1.706890	-0.202076	0.275600
C267	C	0.973453	-0.945480	-0.457604
C268	C	1.473453	-0.445480	0.042396
H269	H	0.945158	-0.969569	-0.485854
H270	H	1.445158	-0.469569	0.014146
H271	H	1.001824	-0.924143	-0.489993
H272	H	1.501824	-0.424143	0.010007
H273	H	0.941098	-0.924218	-0.429155
H274	H	1.441098	-0.424218	0.070845
C275	C	0.973201	-0.443127	-0.457524
C276	C	1.473201	0.056873	0.042476
H277	H	0.979999	-0.406697	-0.450724
H278	H	1.479999	0.093303	0.049276
H279	H	0.923311	-0.452111	-0.446615
H280	H	1.423311	0.047889	0.053385
H281	H	0.984053	-0.452039	-0.507437
H282	H	1.484053	0.047961	-0.007437
C283	C	0.966734	-0.326601	-0.911973
C284	C	1.466734	0.173399	-0.411973
H285	H	0.918658	-0.317443	-0.894969
H286	H	1.418658	0.182557	-0.394969
H287	H	0.979171	-0.360380	-0.894284
H288	H	1.479171	0.139620	-0.394284
H289	H	0.967336	-0.326581	-0.964600
H290	H	1.467336	0.173419	-0.464600
