data_functionalizedCrystal
_audit_creation_method	'MofGen! by Chris Wilmer'
_symmetry_space_group_name_H-M	'P1'
_symmetry_Int_Tables_number	1
_symmetry_cell_setting	triclinic
loop_
_symmetry_equiv_pos_as_xyz
  x,y,z
_cell_length_a	10.654541
_cell_length_b	15.995350
_cell_length_c	9.730217
_cell_angle_alpha	89.998981
_cell_angle_beta	89.999932
_cell_angle_gamma	83.988152
loop_
_atom_site_label
_atom_site_type_symbol
_atom_site_fract_x
_atom_site_fract_y
_atom_site_fract_z
O1	O	1.666302	0.117591	-0.114240
O2	O	1.300677	0.128798	-0.114252
O3	O	1.493484	0.001365	-0.114244
O4	O	1.473495	0.245024	-0.114248
O5	O	1.493478	0.001364	0.114336
O6	O	1.300671	0.128797	0.114328
O7	O	1.666296	0.117590	0.114340
Zn8	Zn	1.483483	0.123193	0.150626
Zn9	Zn	1.483491	0.123195	-0.150538
O10	O	1.473489	0.245023	0.114332
C11	C	1.253887	0.127975	0.000037
C12	C	1.114475	0.125514	0.000032
C13	C	1.492655	-0.029835	0.000043
C14	C	1.490177	-0.122800	0.000035
C15	C	1.084514	0.277895	0.000013
C16	C	1.004039	0.352926	-0.000002
C17	C	0.873052	0.350609	-0.000003
C18	C	0.822537	0.273253	0.000015
C19	C	0.903011	0.198222	0.000030
C20	C	1.034000	0.200547	0.000027
C21	C	0.932972	0.045843	0.000059
C22	C	1.063961	0.048158	0.000050
C23	C	0.882458	-0.031513	0.000077
C24	C	0.962933	-0.106546	0.000082
C25	C	1.093928	-0.104226	0.000082
C26	C	1.144435	-0.026873	0.000065
C27	C	1.481280	-0.460599	0.000039
C28	C	1.343966	-0.413961	-0.000477
C29	C	1.346444	-0.317257	0.000038
C30	C	1.485693	-0.293013	0.000037
C31	C	1.553418	-0.333698	0.130567
C32	C	1.549969	-0.430354	0.130676
C33	C	1.552812	-0.430694	-0.129262
C34	C	1.552779	-0.333749	-0.130988
C35	C	1.488195	-0.198301	0.000039
C36	C	1.478783	-0.555311	0.000046
C37	C	1.713087	0.118413	0.000048
C38	C	1.852498	0.120874	0.000044
C39	C	1.474318	0.276223	0.000042
C40	C	1.476796	0.369188	0.000041
N41	N	1.483487	0.123192	0.356163
N42	N	1.483497	0.123190	-0.356075
C43	C	1.654287	0.010383	0.356160
C44	C	1.739695	-0.046019	0.428098
C45	C	1.739708	-0.046019	0.571978
C46	C	1.654301	0.010387	0.643922
C47	C	1.568892	0.066788	0.571984
C48	C	1.568891	0.066785	0.428101
C49	C	1.398088	0.179592	0.571987
C50	C	1.398079	0.179598	0.428107
C51	C	1.312681	0.235998	0.643932
C52	C	1.227276	0.292405	0.571993
C53	C	1.227268	0.292404	0.428105
C54	C	1.312671	0.236000	0.356169
H55	H	1.045183	0.415908	-0.000013
H56	H	1.500579	-0.448942	0.228250
N57	N	1.654299	0.010386	0.799106
H58	H	1.636042	-0.046618	0.833764
H59	H	1.739631	0.023135	0.833652
N60	N	1.285712	-0.024367	0.000082
H61	H	1.329032	-0.083635	0.000099
H62	H	1.311283	0.006137	-0.084660
H63	H	1.650782	-0.462017	0.136597
H64	H	1.157738	0.338323	0.630580
N65	N	0.786245	0.431531	0.000013
H66	H	0.838116	0.480888	0.000013
H67	H	0.731237	0.433890	-0.084718
H68	H	1.809251	-0.091949	0.630550
H69	H	1.292845	-0.289704	0.093763
N70	N	0.681259	0.270750	0.000053
H71	H	0.637944	0.330019	0.000055
H72	H	0.655676	0.240238	-0.084673
H73	H	1.312689	0.235991	0.761086
H74	H	1.191169	0.279789	-0.000016
H75	H	1.654326	-0.317798	-0.138870
H76	H	1.289324	-0.433873	0.092604
N77	N	1.487304	-0.297970	-0.258916
H78	H	1.454496	-0.344818	-0.313443
H79	H	1.414535	-0.255538	-0.232025
N80	N	1.135137	0.353231	0.350517
H81	H	1.081038	0.388958	0.417931
H82	H	1.183192	0.390554	0.290815
H83	H	1.293208	-0.289143	-0.093531
H84	H	0.775800	-0.033395	0.000083
N85	N	1.688945	-0.314235	0.136981
H86	H	1.707787	-0.278767	0.055143
H87	H	1.702922	-0.282506	0.224453
N88	N	0.908452	-0.189972	0.000123
H89	H	0.813261	-0.180054	0.000134
H90	H	0.937877	-0.222847	-0.084608
N91	N	1.491129	-0.296461	0.259243
H92	H	1.419054	-0.253248	0.233282
H93	H	1.457793	-0.342516	0.315195
N94	N	1.180727	-0.185151	0.000093
H95	H	1.235742	-0.187579	0.084828
H96	H	1.128761	-0.234457	0.000054
N97	N	1.312643	0.235996	0.200985
H98	H	1.330889	0.292999	0.166312
H99	H	1.379693	0.191668	0.166434
N100	N	1.271252	-0.438929	-0.124457
H101	H	1.315984	-0.423661	-0.210989
H102	H	1.265656	-0.501559	-0.122527
N103	N	1.493355	-0.458246	-0.260314
H104	H	1.402397	-0.433204	-0.264627
H105	H	1.540798	-0.438398	-0.341894
N106	N	1.686922	-0.471972	-0.130430
H107	H	1.702025	-0.506372	-0.217026
H108	H	1.747169	-0.427284	-0.127329
N109	N	1.654270	0.010397	0.200976
H110	H	1.739582	0.023116	0.166312
H111	H	1.635963	-0.046617	0.166423
N112	N	1.831779	-0.106862	0.350478
H113	H	1.887369	-0.074525	0.290764
H114	H	1.885801	-0.142589	0.417954
