data_functionalizedCrystal
_audit_creation_method	'MofGen! by Chris Wilmer'
_symmetry_space_group_name_H-M	'P1'
_symmetry_Int_Tables_number	1
_symmetry_cell_setting	triclinic
loop_
_symmetry_equiv_pos_as_xyz
  x,y,z
_cell_length_a	30.700809
_cell_length_b	30.711276
_cell_length_c	30.700862
_cell_angle_alpha	59.998386
_cell_angle_beta	89.999414
_cell_angle_gamma	60.000191
loop_
_atom_site_label
_atom_site_type_symbol
_atom_site_fract_x
_atom_site_fract_y
_atom_site_fract_z
O1	O	-0.371254	-0.311651	0.012944
O2	O	-0.307913	-0.222487	-0.012907
O3	O	-0.307911	-0.311650	0.076286
O4	O	-0.371257	-0.222488	-0.076249
O5	O	-0.235466	-0.384070	0.076286
O6	O	-0.235468	-0.294907	-0.012907
O7	O	-0.298809	-0.384071	0.012944
Zn8	Zn	-0.255636	-0.350987	0.000018
Zn9	Zn	-0.351086	-0.255571	0.000019
O10	O	-0.298812	-0.294908	-0.076249
C11	C	-0.234796	-0.137097	-0.018777
C12	C	-0.261674	-0.083360	-0.015076
C13	C	-0.182374	-0.163176	-0.019143
C14	C	-0.234798	-0.215942	-0.018783
C15	C	-0.261678	-0.246507	-0.015089
C16	C	-0.182376	-0.241901	-0.019150
C17	C	-0.155920	-0.215947	-0.018777
C18	C	-0.098463	-0.246515	-0.015075
C19	C	-0.261132	-0.163172	-0.019150
C20	C	-0.574961	-0.535511	0.039265
C21	C	-0.548506	-0.588283	0.039634
C22	C	-0.496086	-0.535509	0.039262
C23	C	-0.469751	-0.588281	0.039632
C24	C	-0.496085	-0.614360	0.039265
C25	C	-0.548507	-0.509552	0.039632
C26	C	-0.765169	-0.393516	0.024987
C27	C	-0.819034	-0.364488	0.020950
C28	C	-0.846055	-0.389406	0.018925
C29	C	-0.904462	-0.357927	0.014538
C30	C	-0.819206	-0.443357	0.020941
C31	C	-0.765344	-0.472385	0.024984
C32	C	-0.738325	-0.447463	0.027007
C33	C	-0.447920	-0.790230	0.024988
C34	C	-0.423094	-0.840041	0.020951
C35	C	-0.371150	-0.865027	0.018921
C36	C	-0.344230	-0.919028	0.014536
C37	C	-0.344030	-0.840201	0.020935
C38	C	-0.368852	-0.790399	0.024981
C39	C	-0.420803	-0.765414	0.027004
C40	C	-0.447922	-0.393510	0.024977
C41	C	-0.423099	-0.364475	0.020931
C42	C	-0.371152	-0.389391	0.018903
C43	C	-0.344235	-0.357911	0.014513
C44	C	-0.344034	-0.443338	0.020916
C45	C	-0.368860	-0.472368	0.024960
C46	C	-0.420804	-0.447452	0.026995
C47	C	-0.679920	-0.478941	0.031387
C48	C	-0.633366	-0.504032	0.034880
C49	C	-0.469171	-0.504029	0.034875
C50	C	-0.447717	-0.478936	0.031380
C51	C	-0.469170	-0.668361	0.034880
C52	C	-0.447716	-0.711408	0.031386
C53	C	-0.496432	-0.071057	-0.503890
C54	C	-0.548853	-0.018285	-0.530226
C55	C	-0.496432	-0.071056	-0.425015
C56	C	-0.548854	-0.018284	-0.451470
C57	C	-0.575308	0.007793	-0.503892
C58	C	-0.470097	-0.097014	-0.451469
C59	C	-0.368666	-0.213054	-0.552051
C60	C	-0.343664	-0.242084	-0.576877
C61	C	-0.370616	-0.217167	-0.628824
C62	C	-0.343513	-0.248647	-0.655741
C63	C	-0.422570	-0.163216	-0.655945
C64	C	-0.447565	-0.134187	-0.631122
C65	C	-0.420611	-0.159108	-0.579173
C66	C	-0.765518	0.183662	-0.631659
C67	C	-0.819384	0.233473	-0.656662
C68	C	-0.846408	0.258459	-0.629712
C69	C	-0.904813	0.312461	-0.656813
C70	C	-0.819559	0.233635	-0.577758
C71	C	-0.765694	0.183833	-0.552761
C72	C	-0.738677	0.158847	-0.579717
C73	C	-0.368668	-0.213052	-0.234803
C74	C	-0.343669	-0.242086	-0.180935
C75	C	-0.370621	-0.217169	-0.153914
C76	C	-0.343519	-0.248648	-0.095506
C77	C	-0.422573	-0.163222	-0.180762
C78	C	-0.447570	-0.134193	-0.234627
C79	C	-0.420610	-0.159111	-0.261646
C80	C	-0.447720	-0.127629	-0.552258
C81	C	-0.469327	-0.102536	-0.530805
C82	C	-0.469328	-0.102535	-0.366609
C83	C	-0.447721	-0.127627	-0.320054
C84	C	-0.633714	0.061794	-0.530997
C85	C	-0.680269	0.104841	-0.552605
O86	O	0.076277	-0.384081	0.012960
O87	O	-0.076257	-0.294916	-0.012894
O88	O	0.012931	-0.384083	0.076300
O89	O	-0.012910	-0.294914	-0.076234
O90	O	0.012933	-0.311666	0.076306
O91	O	-0.076254	-0.222499	-0.012888
O92	O	0.076280	-0.311664	0.012966
Zn93	Zn	0.000013	-0.255584	0.000040
Zn94	Zn	0.000010	-0.350996	0.000032
O95	O	-0.012908	-0.222497	-0.076228
O96	O	-0.298805	0.063292	0.012964
O97	O	-0.235462	-0.063346	-0.012888
O98	O	-0.235465	-0.063353	0.076305
O99	O	-0.298803	0.063300	-0.076229
O100	O	-0.307912	-0.063350	0.076299
O101	O	-0.307909	-0.063342	-0.012895
O102	O	-0.371252	0.063295	0.012958
Zn103	Zn	-0.351083	-0.000023	0.000031
Zn104	Zn	-0.255631	-0.000027	0.000039
O105	O	-0.371250	0.063303	-0.076236
O106	O	-1.076607	0.456783	-0.692421
O107	O	-0.924074	0.330140	-0.629074
O108	O	-1.013262	0.330138	-0.629073
O109	O	-0.987418	0.456785	-0.692422
O110	O	-1.013261	0.330136	-0.701518
O111	O	-0.924072	0.330138	-0.701518
O112	O	-1.076605	0.456781	-0.764865
Zn113	Zn	-1.000338	0.393459	-0.744694
Zn114	Zn	-1.000340	0.393461	-0.649245
O115	O	-0.987417	0.456783	-0.764866
O116	O	-0.307911	-0.311650	-0.764507
O117	O	-0.371254	-0.222491	-0.701165
O118	O	-0.371252	-0.311652	-0.701162
O119	O	-0.307912	-0.222489	-0.764510
O120	O	-0.298806	-0.384074	-0.628716
O121	O	-0.298807	-0.294912	-0.628719
O122	O	-0.235464	-0.384072	-0.692061
Zn123	Zn	-0.255634	-0.350991	-0.648887
Zn124	Zn	-0.351085	-0.255572	-0.744338
O125	O	-0.235466	-0.294910	-0.692064
C126	C	-0.155920	-0.469469	0.234827
C127	C	-0.098464	-0.523208	0.261706
C128	C	-0.182375	-0.443392	0.261162
C129	C	-0.234797	-0.390619	0.155950
C130	C	-0.261676	-0.360052	0.098494
C131	C	-0.261132	-0.364662	0.182405
C132	C	-0.234797	-0.390620	0.234826
C133	C	-0.261675	-0.360052	0.261704
C134	C	-0.182375	-0.443391	0.182406
C135	C	0.018810	-0.390643	0.234846
C136	C	0.015111	-0.360079	0.261727
C137	C	0.019176	-0.443414	0.261179
C138	C	0.018812	-0.390637	0.155967
C139	C	0.015115	-0.360067	0.098511
C140	C	0.019178	-0.443408	0.182420
C141	C	0.018807	-0.469488	0.234841
C142	C	0.015106	-0.523226	0.261717
C143	C	0.019180	-0.364683	0.182425
C144	C	-0.234799	-0.215977	0.234834
C145	C	-0.261678	-0.246545	0.261708
C146	C	-0.182376	-0.241940	0.261172
C147	C	-0.234798	-0.137119	0.155964
C148	C	-0.261676	-0.083372	0.098509
C149	C	-0.182375	-0.163202	0.182421
C150	C	-0.155921	-0.215981	0.234841
C151	C	-0.098464	-0.246554	0.261721
C152	C	-0.261134	-0.163198	0.182415
C153	C	-0.039199	0.007461	-0.503869
C154	C	-0.039568	-0.018614	-0.530207
C155	C	-0.039203	-0.071390	-0.424995
C156	C	-0.039572	-0.097344	-0.451452
C157	C	-0.039201	-0.071385	-0.503874
C158	C	-0.039570	-0.018618	-0.451448
C159	C	-0.024912	0.183325	-0.552025
C160	C	-0.020873	0.233135	-0.576849
C161	C	-0.018844	0.258123	-0.628796
C162	C	-0.014454	0.312124	-0.655711
C163	C	-0.020859	0.233301	-0.655918
C164	C	-0.024906	0.183500	-0.631097
C165	C	-0.026932	0.158512	-0.579148
C166	C	-0.024920	-0.133799	-0.631644
C167	C	-0.020882	-0.162650	-0.656647
C168	C	-0.018855	-0.216605	-0.629699
C169	C	-0.014470	-0.247897	-0.656801
C170	C	-0.020872	-0.241704	-0.577746
C171	C	-0.024919	-0.212847	-0.552747
C172	C	-0.026939	-0.158893	-0.579702
C173	C	-0.024929	-0.133823	-0.234783
C174	C	-0.020887	-0.162684	-0.180915
C175	C	-0.018862	-0.216639	-0.153896
C176	C	-0.014477	-0.247936	-0.095488
C177	C	-0.020875	-0.241733	-0.180745
C178	C	-0.024915	-0.212872	-0.234610
C179	C	-0.026947	-0.158912	-0.261627
C180	C	-0.031316	0.104507	-0.552235
C181	C	-0.034811	0.061462	-0.530782
C182	C	-0.034820	-0.102682	-0.366590
C183	C	-0.031328	-0.127624	-0.320035
C184	C	-0.034816	-0.102672	-0.530980
C185	C	-0.031322	-0.127610	-0.552588
O186	O	-0.012940	-0.294936	0.371303
O187	O	0.012923	-0.384099	0.307961
O188	O	-0.076273	-0.294935	0.307950
O189	O	0.076257	-0.384100	0.371315
O190	O	-0.076265	-0.222515	0.235508
O191	O	0.012932	-0.311679	0.235520
O192	O	-0.012931	-0.222517	0.298862
Zn193	Zn	0.000002	-0.255600	0.255689
Zn194	Zn	-0.000010	-0.351016	0.351134
O195	O	0.076266	-0.311681	0.298873
C196	C	-0.574962	0.464558	-0.503864
C197	C	-0.548506	0.490518	-0.530195
C198	C	-0.496085	0.385697	-0.424987
C199	C	-0.469749	0.411776	-0.451438
C200	C	-0.496084	0.464555	-0.503857
C201	C	-0.548507	0.411779	-0.451444
C202	C	-0.765173	0.526994	-0.552039
C203	C	-0.819039	0.555852	-0.576867
C204	C	-0.846061	0.609814	-0.628812
C205	C	-0.904469	0.641114	-0.655732
C206	C	-0.819211	0.634913	-0.655928
C207	C	-0.765348	0.606050	-0.631102
C208	C	-0.738329	0.552088	-0.579155
C209	C	-0.447916	0.606561	-0.631604
C210	C	-0.423088	0.635592	-0.656601
C211	C	-0.371143	0.610674	-0.629648
C212	C	-0.344222	0.642150	-0.656742
C213	C	-0.344023	0.556716	-0.577696
C214	C	-0.368845	0.527681	-0.552704
C215	C	-0.420798	0.552613	-0.579664
C216	C	-0.447920	0.209802	-0.234786
C217	C	-0.423096	0.159988	-0.180919
C218	C	-0.371148	0.134996	-0.153895
C219	C	-0.344230	0.080987	-0.095489
C220	C	-0.344029	0.159823	-0.180737
C221	C	-0.368856	0.209637	-0.234602
C222	C	-0.420801	0.234620	-0.261624
C223	C	-0.679923	0.520797	-0.552238
C224	C	-0.633367	0.495853	-0.530781
C225	C	-0.469169	0.331687	-0.366583
C226	C	-0.447714	0.288634	-0.320030
C227	C	-0.469167	0.496035	-0.530956
C228	C	-0.447712	0.521128	-0.552558
H229	H	-0.426680	-0.610102	0.040221
C230	C	0.019965	-0.472895	0.319360
H231	H	0.020119	-0.449788	0.331324
H232	H	0.051065	-0.513968	0.341265
H233	H	-0.010816	-0.473102	0.321379
H234	H	-0.743523	0.163324	-0.653612
C235	C	-0.286886	0.132337	-0.151017
H236	H	-0.274294	0.154260	-0.174717
H237	H	-0.264217	0.090229	-0.138181
H238	H	-0.286900	0.135577	-0.121821
C239	C	-0.286523	-0.301426	-0.547043
H240	H	-0.274053	-0.312112	-0.512549
H241	H	-0.263787	-0.294882	-0.566425
H242	H	-0.286480	-0.333900	-0.543741
H243	H	-0.304205	-0.141373	0.161175
C244	C	-0.339017	0.468337	-0.495563
H245	H	-0.304526	0.457654	-0.483086
H246	H	-0.335718	0.435865	-0.495517
H247	H	-0.358404	0.474889	-0.472830
H248	H	-0.161141	-0.284407	0.304244
H249	H	-0.040166	-0.139808	-0.430213
H250	H	-0.161139	-0.284365	-0.019743
C251	C	-0.505055	0.633978	-0.661261
H252	H	-0.517647	0.670263	-0.695780
H253	H	-0.527726	0.643800	-0.641807
H254	H	-0.505038	0.604781	-0.664497
C255	C	-0.736164	0.156531	-0.495619
H256	H	-0.759971	0.178541	-0.483145
H257	H	-0.706979	0.159782	-0.495571
H258	H	-0.723333	0.114426	-0.472883
H259	H	-0.040120	0.003178	-0.430195
H260	H	-0.040160	0.003216	-0.573279
H261	H	-0.161136	-0.141377	0.161182
C262	C	-0.577194	-0.617772	0.040443
H263	H	-0.612271	-0.594667	0.040602
H264	H	-0.558004	-0.658843	0.071550
H265	H	-0.579011	-0.617989	0.009668
C266	C	-0.452919	0.694942	-0.713739
H267	H	-0.430692	0.708660	-0.724763
H268	H	-0.484570	0.725893	-0.714503
H269	H	-0.461890	0.686883	-0.737203
C270	C	-0.849281	0.261113	-0.548111
H271	H	-0.885208	0.294325	-0.570435
H272	H	-0.832319	0.275663	-0.539144
H273	H	-0.848663	0.230299	-0.516462
C274	C	-0.452924	0.132680	-0.151394
H275	H	-0.430701	0.099438	-0.115443
H276	H	-0.461894	0.118204	-0.168438
H277	H	-0.484579	0.163553	-0.152078
C278	C	-0.577195	0.382291	-0.422754
H279	H	-0.553916	0.347058	-0.387681
H280	H	-0.587184	0.370389	-0.441948
H281	H	-0.608180	0.411233	-0.420925
C282	C	-0.319316	-0.307296	0.153715
H283	H	-0.331276	-0.295505	0.176994
H284	H	-0.341216	-0.316493	0.143728
H285	H	-0.321346	-0.274496	0.122729
H286	H	-0.019237	-0.142213	-0.698946
H287	H	-0.490217	0.230142	-0.256784
C288	C	-0.018676	-0.135079	-0.151386
H289	H	-0.020469	-0.098807	-0.175194
H290	H	0.013758	-0.164202	-0.122199
H291	H	-0.047966	-0.125182	-0.138558
H292	H	-0.427024	-0.139478	-0.430231
H293	H	-0.026563	0.162985	-0.509727
H294	H	-0.026581	-0.089888	-0.256777
C295	C	0.019980	-0.307317	0.153733
H296	H	0.020143	-0.295521	0.177009
H297	H	-0.010791	-0.274524	0.122741
H298	H	0.051090	-0.316523	0.143757
H299	H	-0.019226	-0.285667	-0.158742
H300	H	-0.841216	0.678847	-0.698222
C301	C	-0.577194	-0.452188	0.040432
H302	H	-0.553916	-0.440396	0.040596
H303	H	-0.587181	-0.461386	0.071533
H304	H	-0.608181	-0.419387	0.009651
H305	H	-0.304205	-0.141343	-0.019747
C306	C	0.019978	-0.472891	0.153729
H307	H	0.020141	-0.508118	0.177006
H308	H	0.051078	-0.484799	0.143742
H309	H	-0.010803	-0.443942	0.122741
C310	C	-0.027116	0.156195	-0.660926
H311	H	-0.025322	0.178204	-0.695416
H312	H	-0.059550	0.159442	-0.664230
H313	H	0.002174	0.114090	-0.641537
H314	H	-0.019230	0.253339	-0.554762
C315	C	-0.339009	-0.240453	-0.494919
H316	H	-0.361337	-0.215438	-0.484017
H317	H	-0.307366	-0.241890	-0.494100
H318	H	-0.330038	-0.280928	-0.471390
C319	C	-0.452931	-0.305134	0.018710
H320	H	-0.487420	-0.294456	0.020502
H321	H	-0.456233	-0.272659	-0.013729
H322	H	-0.433545	-0.311683	0.047996
H323	H	-0.743490	0.626486	-0.653184
C324	C	-0.018628	0.260787	-0.713055
H325	H	-0.015926	0.294000	-0.723953
H326	H	-0.050148	0.275338	-0.736574
H327	H	0.011576	0.229977	-0.713884
C328	C	-0.452214	-0.135812	-0.713082
H329	H	-0.429889	-0.160830	-0.723981
H330	H	-0.461179	-0.095342	-0.736601
H331	H	-0.483863	-0.134369	-0.713910
H332	H	-0.444519	-0.142934	-0.158758
H333	H	-0.840890	-0.320560	0.019306
H334	H	-0.489864	-0.090259	-0.653209
C335	C	-0.027151	-0.074448	-0.661295
H336	H	-0.025377	-0.063629	-0.695817
H337	H	0.002132	-0.081058	-0.641841
H338	H	-0.059592	-0.042036	-0.664526
C339	C	-0.577193	0.547888	-0.588378
H340	H	-0.553911	0.559674	-0.600338
H341	H	-0.608180	0.580685	-0.590411
H342	H	-0.587176	0.538689	-0.610281
C343	C	-0.018647	-0.301049	-0.548102
H344	H	-0.015945	-0.314644	-0.570428
H345	H	-0.050167	-0.293050	-0.539139
H346	H	0.011557	-0.332074	-0.516451
C347	C	-0.027136	-0.240455	-0.495604
H348	H	-0.025347	-0.276723	-0.483131
H349	H	-0.059571	-0.211329	-0.495553
H350	H	0.002153	-0.250356	-0.472870
H351	H	-0.026556	-0.233307	-0.256467
C352	C	-0.411564	0.382290	-0.422744
H353	H	-0.399599	0.347058	-0.387670
H354	H	-0.409530	0.411235	-0.420926
H355	H	-0.389666	0.370377	-0.441934
C356	C	-0.735455	0.467634	-0.494904
H357	H	-0.759156	0.456817	-0.482314
H358	H	-0.722612	0.474235	-0.472226
H359	H	-0.706264	0.435226	-0.494926
H360	H	-0.489870	-0.090268	-0.256484
H361	H	-0.570092	0.003538	-0.430229
H362	H	-0.840896	0.535415	-0.554785
H363	H	-0.301723	0.536422	-0.555753
C364	C	-0.153688	-0.472871	0.153711
H365	H	-0.176968	-0.449766	0.118637
H366	H	-0.143701	-0.513946	0.172902
H367	H	-0.122702	-0.473077	0.151884
H368	H	-0.346770	0.229846	-0.256454
H369	H	-0.490220	-0.373215	0.026628
C370	C	-0.153678	-0.133699	-0.019941
H371	H	-0.118606	-0.156801	-0.020112
H372	H	-0.151855	-0.133489	0.010835
H373	H	-0.172866	-0.092623	-0.051047
C374	C	-0.735449	-0.366106	0.027217
H375	H	-0.699527	-0.391116	0.029906
H376	H	-0.736064	-0.364659	0.057417
H377	H	-0.752419	-0.325633	-0.004308
C378	C	-0.848928	-0.470762	0.018713
H379	H	-0.884854	-0.445745	0.016012
H380	H	-0.831961	-0.511233	0.050233
H381	H	-0.848313	-0.472206	-0.011492
H382	H	-0.490218	-0.769893	0.026639
C383	C	-0.735809	-0.531733	0.027215
H384	H	-0.699858	-0.545455	0.029919
H385	H	-0.752842	-0.523679	-0.004305
H386	H	-0.736496	-0.562685	0.057419
C387	C	-0.452927	-0.867340	0.018730
H388	H	-0.487421	-0.845323	0.020510
H389	H	-0.433545	-0.909444	0.048012
H390	H	-0.456227	-0.864082	-0.013712
C391	C	-0.286898	-0.867669	0.018690
H392	H	-0.274303	-0.845752	0.020468
H393	H	-0.286926	-0.864415	-0.013752
H394	H	-0.264217	-0.909784	0.047972
C395	C	-0.339023	-0.763093	0.027193
H396	H	-0.304533	-0.785101	0.025402
H397	H	-0.335723	-0.766341	0.059628
H398	H	-0.358411	-0.720988	-0.002097
H399	H	-0.301736	-0.463624	0.019263
C400	C	-0.339024	-0.531716	0.027192
H401	H	-0.304529	-0.542403	0.025414
H402	H	-0.358401	-0.525181	-0.002087
H403	H	-0.335725	-0.564185	0.059637
C404	C	-0.153684	-0.472872	0.319346
H405	H	-0.118606	-0.508095	0.331310
H406	H	-0.172870	-0.484787	0.341246
H407	H	-0.151870	-0.443919	0.321374
H408	H	-0.301369	-0.286012	-0.159078
C409	C	-0.577644	0.011014	-0.588319
H410	H	-0.612745	0.046189	-0.600255
H411	H	-0.579397	-0.018087	-0.590125
H412	H	-0.558583	0.022971	-0.610391
C413	C	-0.339016	-0.240464	-0.264520
H414	H	-0.304499	-0.276754	-0.240816
H415	H	-0.335783	-0.211269	-0.293713
H416	H	-0.358473	-0.250291	-0.277360
C417	C	-0.848914	0.260769	-0.713801
H418	H	-0.825109	0.238751	-0.726270
H419	H	-0.861752	0.302874	-0.736541
H420	H	-0.878096	0.257510	-0.713841
