data_functionalizedCrystal
_audit_creation_method	'MofGen! by Chris Wilmer'
_symmetry_space_group_name_H-M	'P1'
_symmetry_Int_Tables_number	1
_symmetry_cell_setting	triclinic
loop_
_symmetry_equiv_pos_as_xyz
  x,y,z
_cell_length_a	19.188930
_cell_length_b	19.188930
_cell_length_c	18.266242
_cell_angle_alpha	89.988525
_cell_angle_beta	89.977082
_cell_angle_gamma	83.144779
loop_
_atom_site_label
_atom_site_type_symbol
_atom_site_fract_x
_atom_site_fract_y
_atom_site_fract_z
O1	O	0.926149	0.087169	-0.061124
O2	O	1.259483	0.420502	0.272209
O3	O	1.592816	0.753835	0.605542
O4	O	0.722838	0.098903	-0.061075
O5	O	1.056171	0.432236	0.272258
O6	O	1.389505	0.765570	0.605591
O7	O	0.830361	-0.008620	-0.061087
O8	O	1.163694	0.324714	0.272246
O9	O	1.497027	0.658047	0.605580
O10	O	0.818627	0.194691	-0.061113
O11	O	1.151960	0.528025	0.272221
O12	O	1.485293	0.861358	0.605554
O13	O	0.830343	-0.008625	0.060675
O14	O	1.163676	0.324708	0.394008
O15	O	1.497009	0.658041	0.727342
O16	O	0.722820	0.098897	0.060687
O17	O	1.056153	0.432231	0.394020
O18	O	1.389486	0.765564	0.727353
O19	O	0.926131	0.087163	0.060638
O20	O	1.259464	0.420497	0.393971
O21	O	1.592798	0.753830	0.727304
Zn22	Zn	0.824473	0.093029	0.079994
Zn23	Zn	1.157806	0.426363	0.413328
Zn24	Zn	1.491139	0.759696	0.746661
Zn25	Zn	0.824497	0.093037	-0.080432
Zn26	Zn	1.157830	0.426370	0.252901
Zn27	Zn	1.491163	0.759703	0.586234
O28	O	0.818608	0.194686	0.060649
O29	O	1.151942	0.528019	0.393983
O30	O	1.485275	0.861353	0.727316
C31	C	0.696818	0.098520	-0.000188
C32	C	1.030151	0.431854	0.333145
C33	C	1.363485	0.765187	0.666479
C34	C	0.619313	0.097380	-0.000169
C35	C	0.952647	0.430713	0.333165
C36	C	1.285980	0.764046	0.666498
C37	C	0.574389	0.160470	-0.000188
C38	C	0.907723	0.493804	0.333145
C39	C	1.241056	0.827137	0.666479
C40	C	0.501566	0.159399	-0.000196
C41	C	0.834899	0.492732	0.333137
C42	C	1.168232	0.826065	0.666471
C43	C	0.473669	0.095233	-0.000199
C44	C	0.807002	0.428566	0.333134
C45	C	1.140336	0.761899	0.666468
C46	C	0.518603	0.032133	-0.000175
C47	C	0.851936	0.365467	0.333158
C48	C	1.185270	0.698800	0.666491
C49	C	0.591425	0.033207	-0.000160
C50	C	0.924758	0.366540	0.333173
C51	C	1.258092	0.699874	0.666506
N52	N	0.365695	0.046188	-0.041663
N53	N	0.699028	0.379521	0.291670
N54	N	1.032362	0.712854	0.625003
N55	N	0.296516	0.045172	-0.041679
N56	N	0.629850	0.378505	0.291654
N57	N	0.963183	0.711839	0.624987
C58	C	0.254260	0.091994	-0.000243
C59	C	0.587594	0.425328	0.333090
C60	C	0.920927	0.758661	0.666423
N61	N	0.283795	0.139881	0.041200
N62	N	0.617128	0.473215	0.374533
N63	N	0.950462	0.806548	0.707867
N64	N	0.352980	0.140899	0.041213
N65	N	0.686313	0.474232	0.374546
N66	N	1.019646	0.807566	0.707879
C67	C	0.394707	0.094062	-0.000215
C68	C	0.728040	0.427395	0.333118
C69	C	1.061373	0.760728	0.666452
C70	C	0.130372	0.153928	-0.000270
C71	C	0.463705	0.487261	0.333063
C72	C	0.797039	0.820594	0.666396
C73	C	0.057547	0.152853	-0.000274
C74	C	0.390881	0.486187	0.333060
C75	C	0.724214	0.819520	0.666393
C76	C	0.074586	0.025586	-0.000261
C77	C	0.407919	0.358920	0.333073
C78	C	0.741253	0.692253	0.666406
C79	C	0.147409	0.026662	-0.000250
C80	C	0.480743	0.359996	0.333083
C81	C	0.814076	0.693329	0.666417
C82	C	0.175298	0.090835	-0.000258
C83	C	0.508631	0.424168	0.333075
C84	C	0.841964	0.757502	0.666408
C85	C	0.829972	-0.034634	-0.000204
C86	C	1.163305	0.298700	0.333130
C87	C	1.496638	0.632033	0.666463
C88	C	0.828831	-0.112138	-0.000197
C89	C	1.162164	0.221195	0.333136
C90	C	1.495498	0.554529	0.666469
C91	C	0.891922	-0.157062	-0.000209
C92	C	1.225255	0.176271	0.333124
C93	C	1.558589	0.509605	0.666458
C94	C	0.890850	-0.229886	-0.000220
C95	C	1.224184	0.103448	0.333113
C96	C	1.557517	0.436781	0.666446
C97	C	0.826684	-0.257782	-0.000206
C98	C	1.160017	0.075551	0.333128
C99	C	1.493351	0.408884	0.666461
C100	C	0.763585	-0.212849	-0.000198
C101	C	1.096918	0.120485	0.333135
C102	C	1.430252	0.453818	0.666469
C103	C	0.764658	-0.140026	-0.000194
C104	C	1.097992	0.193307	0.333140
C105	C	1.431325	0.526640	0.666473
N106	N	0.777631	-0.365789	0.041244
N107	N	1.110964	-0.032456	0.374578
N108	N	1.444297	0.300877	0.707911
N109	N	0.776615	-0.434968	0.041242
N110	N	1.109948	-0.101635	0.374575
N111	N	1.443282	0.231699	0.707909
C112	C	0.823446	-0.477191	-0.000220
C113	C	1.156779	-0.143858	0.333114
C114	C	1.490113	0.189476	0.666447
N115	N	0.871341	-0.447624	-0.041669
N116	N	1.204675	-0.114290	0.291664
N117	N	1.538008	0.219043	0.624997
N118	N	0.872359	-0.378439	-0.041664
N119	N	1.205692	-0.045106	0.291670
N120	N	1.539025	0.288228	0.625003
C121	C	0.825513	-0.336745	-0.000210
C122	C	1.158846	-0.003412	0.333123
C123	C	1.492180	0.329922	0.666456
C124	C	0.885379	-0.601079	-0.000245
C125	C	1.218712	-0.267746	0.333089
C126	C	1.552046	0.065587	0.666422
C127	C	0.884305	-0.673904	-0.000261
C128	C	1.217638	-0.340571	0.333073
C129	C	1.550971	-0.007238	0.666406
C130	C	0.757038	-0.656865	-0.000231
C131	C	1.090371	-0.323532	0.333103
C132	C	1.423704	0.009801	0.666436
C133	C	0.758114	-0.584042	-0.000222
C134	C	1.091447	-0.250709	0.333111
C135	C	1.424781	0.082624	0.666444
C136	C	0.822287	-0.556154	-0.000226
C137	C	1.155620	-0.222821	0.333108
C138	C	1.488953	0.110513	0.666441
C139	C	0.952151	0.087546	-0.000252
C140	C	1.285485	0.420879	0.333082
C141	C	1.618818	0.754213	0.666415
C142	C	1.029656	0.088687	-0.000276
C143	C	1.362989	0.422020	0.333058
C144	C	1.696322	0.755353	0.666391
C145	C	0.818997	0.220700	-0.000236
C146	C	1.152331	0.554033	0.333098
C147	C	1.485664	0.887366	0.666431
C148	C	0.820138	0.298204	-0.000247
C149	C	1.153471	0.631538	0.333086
C150	C	1.486805	0.964871	0.666420
N151	N	0.824461	0.093024	0.189481
N152	N	1.157795	0.426357	0.522815
N153	N	1.491128	0.759691	0.856148
N154	N	0.824513	0.093037	-0.189919
N155	N	1.157847	0.426370	0.143414
N156	N	1.491180	0.759703	0.476747
C157	C	0.872088	0.045436	0.227785
C158	C	1.205421	0.378770	0.561118
C159	C	1.538755	0.712103	0.894452
C160	C	0.872092	0.045433	0.304430
C161	C	1.205426	0.378766	0.637763
C162	C	1.538759	0.712100	0.971097
C163	C	0.824477	0.093030	0.342768
C164	C	1.157810	0.426363	0.676102
C165	C	1.491144	0.759696	1.009435
C166	C	0.776841	0.140621	0.304455
C167	C	1.110175	0.473954	0.637789
C168	C	1.443508	0.807288	0.971122
C169	C	0.776834	0.140618	0.227812
C170	C	1.110167	0.473952	0.561145
C171	C	1.443500	0.807285	0.894479
N172	N	0.815401	0.154837	0.463094
N173	N	1.148735	0.488170	0.796427
N174	N	1.482068	0.821504	1.129761
N175	N	0.815413	0.154838	0.535902
N176	N	1.148746	0.488171	0.869236
N177	N	1.482080	0.821504	1.202569
C178	C	0.824496	0.093040	0.573691
C179	C	1.157830	0.426373	0.907024
C180	C	1.491163	0.759706	1.240357
N181	N	0.833582	0.031239	0.535920
N182	N	1.166915	0.364573	0.869254
N183	N	1.500248	0.697906	1.202587
N184	N	0.833574	0.031240	0.463106
N185	N	1.166907	0.364573	0.796439
N186	N	1.500240	0.697906	1.129772
C187	C	0.824480	0.093038	0.425875
C188	C	1.157813	0.426371	0.759209
C189	C	1.491146	0.759704	1.092542
C190	C	0.872131	0.045444	0.695101
C191	C	1.205464	0.378778	1.028435
C192	C	1.538797	0.712111	1.361768
C193	C	0.872130	0.045440	0.771748
C194	C	1.205463	0.378774	1.105081
C195	C	1.538797	0.712107	1.438414
C196	C	0.776882	0.140634	0.771772
C197	C	1.110216	0.473968	1.105105
C198	C	1.443549	0.807301	1.438438
C199	C	0.776879	0.140632	0.695127
C200	C	1.110213	0.473966	1.028460
C201	C	1.443546	0.807299	1.361794
C202	C	0.824507	0.093038	0.656796
C203	C	1.157841	0.426372	0.990130
C204	C	1.491174	0.759705	1.323463
H205	H	0.464982	0.210776	-0.000210
H206	H	0.798315	0.544110	0.333124
H207	H	1.131648	0.877443	0.666457
O208	O	0.701298	-0.240027	-0.000280
O209	O	1.034631	0.093306	0.333054
O210	O	1.367964	0.426640	0.666387
C211	C	0.696873	-0.281615	-0.063351
C212	C	1.030207	0.051719	0.269983
C213	C	1.363540	0.385052	0.603316
H214	H	0.751963	-0.299915	-0.084386
H215	H	1.085297	0.033418	0.248947
H216	H	1.418630	0.366752	0.582281
H217	H	0.669186	-0.329221	-0.049163
H218	H	1.002519	0.004112	0.284170
H219	H	1.335853	0.337445	0.617503
H220	H	0.665893	-0.249338	-0.107502
H221	H	0.999227	0.083996	0.225832
H222	H	1.332560	0.417329	0.559165
H223	H	0.704792	-0.679578	-0.000222
H224	H	1.038126	-0.346245	0.333111
H225	H	1.371459	-0.012911	0.666444
H226	H	0.910911	0.006685	0.802935
H227	H	1.244245	0.340018	1.136269
H228	H	1.577578	0.673351	1.469602
H229	H	0.937632	-0.578372	-0.000251
H230	H	1.270966	-0.245038	0.333082
H231	H	1.604299	0.088295	0.666416
O232	O	0.191082	-0.034606	-0.000112
O233	O	0.524415	0.298728	0.333221
O234	O	0.857749	0.632061	0.666554
C235	C	0.233694	-0.037790	0.062947
C236	C	0.567027	0.295544	0.396281
C237	C	0.900361	0.628877	0.729614
H238	H	0.206890	-0.002010	0.107018
H239	H	0.540224	0.331324	0.440352
H240	H	0.873557	0.664657	0.773685
H241	H	0.242045	-0.094058	0.084118
H242	H	0.575378	0.239275	0.417451
H243	H	0.908711	0.572609	0.750785
H244	H	0.286603	-0.019878	0.048699
H245	H	0.619936	0.313456	0.382032
H246	H	0.953269	0.646789	0.715365
O247	O	0.601595	0.222744	-0.000239
O248	O	0.934929	0.556078	0.333094
O249	O	1.268262	0.889411	0.666428
C250	C	0.675504	0.210166	-0.000211
C251	C	1.008838	0.543500	0.333122
C252	C	1.342171	0.876833	0.666455
H253	H	0.692783	0.155621	-0.023237
H254	H	1.026117	0.488955	0.310096
H255	H	1.359450	0.822288	0.643429
H256	H	0.697755	0.251203	-0.035580
H257	H	1.031089	0.584537	0.297753
H258	H	1.364422	0.917870	0.631087
H259	H	0.695739	0.213505	0.058204
H260	H	1.029072	0.546838	0.391537
H261	H	1.362405	0.880171	0.724870
O262	O	0.157388	0.216304	-0.000367
O263	O	0.490721	0.549637	0.332967
O264	O	0.824054	0.882971	0.666300
C265	C	0.134459	0.254752	-0.063442
C266	C	0.467793	0.588085	0.269891
C267	C	0.801126	0.921419	0.603225
H268	H	0.084017	0.235885	-0.084474
H269	H	0.417351	0.569218	0.248859
H270	H	0.750684	0.902551	0.582193
H271	H	0.124171	0.312925	-0.049262
H272	H	0.457504	0.646259	0.284071
H273	H	0.790837	0.979592	0.617404
H274	H	0.176648	0.246538	-0.107593
H275	H	0.509981	0.579871	0.225740
H276	H	0.843315	0.913205	0.559073
O277	O	0.047464	-0.036729	-0.000394
O278	O	0.380798	0.296605	0.332939
O279	O	0.714131	0.629938	0.666272
C280	C	0.005871	-0.041147	-0.063454
C281	C	0.339205	0.292186	0.269879
C282	C	0.672538	0.625519	0.603212
H283	H	0.023006	-0.004711	-0.107530
H284	H	0.356339	0.328622	0.225803
H285	H	0.689672	0.661955	0.559137
H286	H	0.012592	-0.097437	-0.084617
H287	H	0.345926	0.235897	0.248717
H288	H	0.679259	0.569230	0.582050
H289	H	-0.051616	-0.024869	-0.049209
H290	H	0.281717	0.308464	0.284125
H291	H	0.615051	0.641798	0.617458
H292	H	0.495885	-0.020111	-0.000188
H293	H	0.829218	0.313222	0.333145
H294	H	1.162552	0.646556	0.666479
H295	H	0.738110	0.179386	0.802986
H296	H	1.071444	0.512719	1.136319
H297	H	1.404777	0.846052	1.469653
H298	H	0.942228	-0.266470	-0.000233
H299	H	1.275561	0.066863	0.333100
H300	H	1.608895	0.400197	0.666434
H301	H	0.706738	-0.547464	-0.000208
H302	H	1.040072	-0.214131	0.333125
H303	H	1.373405	0.119203	0.666458
O304	O	0.013836	0.214098	-0.000392
O305	O	0.347169	0.547432	0.332942
O306	O	0.680503	0.880765	0.666275
C307	C	-0.028750	0.217290	-0.063471
C308	C	0.304583	0.550623	0.269863
C309	C	0.637916	0.883956	0.603196
H310	H	-0.032255	0.161881	-0.084483
H311	H	0.301079	0.495214	0.248851
H312	H	0.634412	0.828547	0.582184
H313	H	-0.083571	0.243469	-0.049303
H314	H	0.249762	0.576802	0.284030
H315	H	0.583095	0.910135	0.617363
H316	H	-0.004863	0.249100	-0.107632
H317	H	0.328470	0.582433	0.225701
H318	H	0.661803	0.915766	0.559035
H319	H	0.628003	-0.018171	-0.000145
H320	H	0.961336	0.315162	0.333189
H321	H	1.294670	0.648496	0.666522
O322	O	0.954318	-0.130089	-0.000250
O323	O	1.287651	0.203245	0.333084
O324	O	1.620985	0.536578	0.666417
C325	C	1.009774	-0.185362	-0.000243
C326	C	1.343108	0.147971	0.333090
C327	C	1.676441	0.481305	0.666424
H328	H	0.990358	-0.234769	-0.023295
H329	H	1.323691	0.098564	0.310039
H330	H	1.657025	0.431897	0.643372
H331	H	1.054596	-0.170273	-0.035600
H332	H	1.387929	0.163060	0.297733
H333	H	1.721263	0.496394	0.631066
H334	H	1.029213	-0.195739	0.058169
H335	H	1.362546	0.137595	0.391502
H336	H	1.695880	0.470928	0.724835
O337	O	0.703305	-0.096483	-0.000146
O338	O	1.036638	0.236850	0.333187
O339	O	1.369971	0.570184	0.666521
C340	C	0.646437	-0.136716	-0.000158
C341	C	0.979771	0.196617	0.333175
C342	C	1.313104	0.529950	0.666509
H343	H	0.664321	-0.191131	0.022884
H344	H	0.997654	0.142203	0.356217
H345	H	1.330987	0.475536	0.689551
H346	H	0.602239	-0.109727	0.035204
H347	H	0.935572	0.223607	0.368538
H348	H	1.268905	0.556940	0.701871
H349	H	0.626768	-0.141825	-0.058570
H350	H	0.960101	0.191508	0.274763
H351	H	1.293435	0.524842	0.608096
H352	H	0.935683	-0.710481	-0.000274
H353	H	1.269017	-0.377148	0.333059
H354	H	1.602350	-0.043815	0.666392
O355	O	0.730639	0.186947	0.190634
O356	O	1.063972	0.520281	0.523967
O357	O	1.397306	0.853614	0.857300
C358	C	0.741763	0.256037	0.209356
C359	C	1.075096	0.589370	0.542690
C360	C	1.408430	0.922703	0.876023
H361	H	0.797660	0.256240	0.230399
H362	H	1.130993	0.589573	0.563732
H363	H	1.464327	0.922907	0.897066
H364	H	0.733621	0.291098	0.158949
H365	H	1.066954	0.624431	0.492282
H366	H	1.400288	0.957765	0.825616
H367	H	0.703004	0.276639	0.253859
H368	H	1.036337	0.609973	0.587192
H369	H	1.369671	0.943306	0.920525
H370	H	0.910868	0.006681	0.196579
H371	H	1.244201	0.340014	0.529912
H372	H	1.577534	0.673347	0.863245
H373	H	0.910910	0.006688	0.663892
H374	H	1.244243	0.340021	0.997225
H375	H	1.577577	0.673355	1.330558
H376	H	0.910877	0.006680	0.335623
H377	H	1.244210	0.340013	0.668956
H378	H	1.577544	0.673346	1.002289
H379	H	0.738071	0.179374	0.335674
H380	H	1.071404	0.512707	0.669007
H381	H	1.404738	0.846041	1.002341
O382	O	0.730593	0.186933	0.658028
O383	O	1.063927	0.520266	0.991361
O384	O	1.397260	0.853600	1.324695
C385	C	0.688554	0.228932	0.708298
C386	C	1.021888	0.562265	1.041631
C387	C	1.355221	0.895598	1.374965
H388	H	0.717181	0.229652	0.762917
H389	H	1.050514	0.562985	1.096251
H390	H	1.383847	0.896318	1.429584
H391	H	0.677728	0.284717	0.686145
H392	H	1.011062	0.618051	1.019478
H393	H	1.344395	0.951384	1.352811
H394	H	0.636761	0.206389	0.716482
H395	H	0.970095	0.539723	1.049815
H396	H	1.303428	0.873056	1.383149
