data_functionalizedCrystal
_audit_creation_method	'MofGen! by Chris Wilmer'
_symmetry_space_group_name_H-M	'P1'
_symmetry_Int_Tables_number	1
_symmetry_cell_setting	triclinic
loop_
_symmetry_equiv_pos_as_xyz
  x,y,z
_cell_length_a	15.944551
_cell_length_b	15.944551
_cell_length_c	15.021413
_cell_angle_alpha	89.996935
_cell_angle_beta	89.997174
_cell_angle_gamma	96.501262
loop_
_atom_site_label
_atom_site_type_symbol
_atom_site_fract_x
_atom_site_fract_y
_atom_site_fract_z
O1	O	1.114529	-0.108321	-0.073941
O2	O	0.869979	-0.121677	-0.073964
O3	O	0.998932	0.007276	-0.073944
O4	O	0.985576	-0.237274	-0.073961
O5	O	0.998912	0.007257	0.074121
O6	O	0.869959	-0.121695	0.074101
O7	O	1.114508	-0.108339	0.074123
Zn8	Zn	0.992230	-0.115020	0.097620
Zn9	Zn	0.992257	-0.114996	-0.097461
O10	O	0.985555	-0.237292	0.074103
C11	C	0.838675	-0.121132	0.000066
C12	C	0.745429	-0.119470	0.000057
C13	C	0.530572	-0.035565	0.000081
C14	C	0.469562	-0.074518	-0.072926
C15	C	0.574703	-0.116462	0.000068
C16	C	0.469564	-0.074556	0.073054
C17	C	0.409790	-0.113551	0.000083
C18	C	0.514921	-0.155438	-0.072998
C19	C	0.514930	-0.155464	0.073047
C20	C	0.453937	-0.194476	0.000023
C21	C	0.669705	-0.118137	0.000059
C22	C	0.314789	-0.111883	0.000085
C23	C	0.998367	0.038561	0.000089
C24	C	0.996705	0.131807	0.000089
C25	C	1.145813	-0.108885	0.000092
C26	C	1.239059	-0.110547	0.000094
C27	C	0.986120	-0.268577	0.000069
C28	C	0.987782	-0.361823	0.000063
N29	N	0.992218	-0.115036	0.230758
C30	C	0.912801	0.346663	0.000069
C31	C	0.951753	0.407672	0.073077
C32	C	0.993698	0.302533	0.000082
C33	C	0.951792	0.407673	-0.072903
C34	C	0.990787	0.467445	0.000071
C35	C	1.032672	0.362313	0.073150
C36	C	1.032700	0.362308	-0.072895
C37	C	1.071711	0.423298	0.000131
C38	C	0.995372	0.207530	0.000089
C39	C	0.989119	0.562446	0.000070
N40	N	0.992276	-0.114973	-0.230598
C41	C	0.932581	-0.174636	0.470432
C42	C	1.008481	-0.190943	0.529772
C43	C	0.992239	-0.115015	0.412365
C44	C	0.916360	-0.098727	0.529766
C45	C	0.992253	-0.114997	0.587789
C46	C	1.068178	-0.131360	0.470398
C47	C	0.976006	-0.039111	0.470387
C48	C	1.051962	-0.055386	0.529701
C49	C	0.992230	-0.115028	0.311307
C50	C	0.992271	-0.114984	0.688844
H51	H	0.535052	-0.189659	0.134767
H52	H	0.449461	-0.040295	-0.134642
H53	H	1.022224	-0.255126	0.555856
C54	C	0.906217	0.434379	0.155476
C55	C	0.947913	0.410257	0.231743
C56	C	0.905978	0.434833	0.307661
H57	H	0.905929	0.493920	0.155276
H58	H	0.849773	0.407855	0.155445
H59	H	1.004341	0.436783	0.231774
H60	H	0.948202	0.350720	0.231973
H61	H	0.849534	0.408309	0.307630
H62	H	0.905692	0.494373	0.307452
H63	H	0.934258	0.418463	0.359417
H64	H	0.534918	-0.189621	-0.134787
H65	H	0.917574	0.427758	-0.134630
C66	C	0.865484	-0.242042	0.435769
C67	C	0.882893	-0.321368	0.465842
C68	C	0.821114	-0.383484	0.433917
H69	H	0.811643	-0.231124	0.456947
H70	H	0.865618	-0.241296	0.372527
H71	H	0.882750	-0.322113	0.529071
H72	H	0.936723	-0.332314	0.444667
H73	H	0.821248	-0.382738	0.370675
H74	H	0.767277	-0.372557	0.455097
H75	H	0.832922	-0.437314	0.454310
H76	H	0.852184	-0.084959	0.555847
H77	H	1.132368	-0.145206	0.444430
H78	H	1.102474	-0.004956	0.555561
H79	H	0.449470	-0.040332	0.134773
H80	H	1.066851	0.342314	0.134941
H81	H	1.138919	0.456457	0.000178
H82	H	0.845652	0.313356	0.000136
H83	H	0.420779	-0.261683	-0.000023
C84	C	0.957479	0.046402	0.435619
C85	C	0.877910	0.063116	0.465628
C86	C	0.860799	0.141877	0.433605
H87	H	0.999235	0.088953	0.456773
H88	H	0.958077	0.045933	0.372378
H89	H	0.877319	0.063592	0.528856
H90	H	0.836137	0.020586	0.444476
H91	H	0.861397	0.141408	0.370364
H92	H	0.902559	0.184421	0.454762
H93	H	0.806807	0.153224	0.453955
C94	C	1.078153	0.335494	-0.155296
C95	C	1.035521	0.358194	-0.231535
C96	C	1.077354	0.333494	-0.307466
H97	H	1.134292	0.362771	-0.155940
H98	H	1.079297	0.276055	-0.154448
H99	H	1.034387	0.417622	-0.232382
H100	H	0.979386	0.330920	-0.230920
H101	H	1.078498	0.274054	-0.306618
H102	H	1.133491	0.360773	-0.308101
H103	H	1.048430	0.348885	-0.359203
H104	H	0.563905	0.031573	-0.000005
