data_functionalizedCrystal
_audit_creation_method	'MofGen! by Chris Wilmer'
_symmetry_space_group_name_H-M	'P1'
_symmetry_Int_Tables_number	1
_symmetry_cell_setting	triclinic
loop_
_symmetry_equiv_pos_as_xyz
  x,y,z
_cell_length_a	16.109301
_cell_length_b	11.792254
_cell_length_c	15.186229
_cell_angle_alpha	90.012130
_cell_angle_beta	90.005553
_cell_angle_gamma	83.830091
loop_
_atom_site_label
_atom_site_type_symbol
_atom_site_fract_x
_atom_site_fract_y
_atom_site_fract_z
O1	O	1.103826	0.145898	0.073181
O2	O	0.861850	0.164053	0.073193
O3	O	0.988705	-0.010245	0.073180
O4	O	0.976972	0.320197	0.073193
O5	O	0.988688	-0.010273	-0.073277
O6	O	0.861833	0.164025	-0.073264
O7	O	1.103809	0.145870	-0.073277
Zn8	Zn	0.982818	0.154943	-0.096524
Zn9	Zn	0.982841	0.154980	0.096440
O10	O	0.976954	0.320169	-0.073264
C11	C	0.987957	-0.052543	-0.000048
C12	C	0.985745	-0.178537	-0.000047
C13	C	0.830863	0.163304	-0.000034
C14	C	0.738558	0.161099	-0.000030
C15	C	0.983947	-0.280858	-0.000044
C16	C	0.981700	-0.409225	-0.000036
C17	C	0.430015	0.257316	-0.000041
C18	C	0.516745	0.259399	-0.000036
C19	C	0.535639	0.052599	-0.000032
C20	C	0.448910	0.050518	-0.000031
C21	C	0.396100	0.152880	-0.000040
C22	C	0.569559	0.157044	-0.000036
C23	C	0.663596	0.159300	-0.000030
C24	C	0.302058	0.150623	-0.000044
C25	C	1.134796	0.146620	-0.000048
C26	C	1.227102	0.148825	-0.000047
C27	C	0.977702	0.362467	-0.000034
C28	C	0.979914	0.488461	-0.000029
N29	N	0.982809	0.154917	-0.228216
C30	C	0.932101	0.086112	-0.546169
C31	C	0.932094	0.086095	-0.453979
C32	C	1.033570	0.223806	-0.453921
C33	C	1.033581	0.223815	-0.546109
C34	C	0.982842	0.154970	-0.592231
C35	C	0.982824	0.154944	-0.407853
C36	C	0.982817	0.154927	-0.307897
C37	C	0.982850	0.154986	-0.692193
N38	N	0.982857	0.154997	0.228133
H39	H	0.387020	0.340666	-0.000048
H40	H	0.890777	0.030022	-0.416479
H41	H	1.074879	0.279859	-0.416358
H42	H	1.074905	0.279889	-0.583614
H43	H	0.578647	-0.030740	-0.000027
C44	C	0.554049	0.374278	-0.000042
H45	H	0.510173	0.434938	-0.000054
H46	H	0.587492	0.379409	0.051030
H47	H	0.587485	0.379370	-0.051122
C48	C	0.411597	-0.064364	-0.000025
H49	H	0.352381	-0.050941	-0.000014
H50	H	0.429683	-0.106531	-0.051095
H51	H	0.429696	-0.106486	0.051057
C52	C	0.876291	0.010386	-0.596899
H53	H	0.846075	-0.030631	-0.556259
H54	H	0.838246	0.056890	-0.632857
H55	H	0.910127	-0.041840	-0.632868
