data_functionalizedCrystal
_audit_creation_method	'MofGen! by Chris Wilmer'
_symmetry_space_group_name_H-M	'P1'
_symmetry_Int_Tables_number	1
_symmetry_cell_setting	triclinic
loop_
_symmetry_equiv_pos_as_xyz
  x,y,z
_cell_length_a	14.853567
_cell_length_b	14.853566
_cell_length_c	9.130307
_cell_angle_alpha	90.001136
_cell_angle_beta	90.001476
_cell_angle_gamma	83.634672
loop_
_atom_site_label
_atom_site_type_symbol
_atom_site_fract_x
_atom_site_fract_y
_atom_site_fract_z
O1	O	0.117700	1.196365	0.121690
O2	O	0.131722	0.933905	0.121713
O3	O	-0.006519	1.072146	0.121705
O4	O	0.255941	1.058124	0.121697
O5	O	-0.006525	1.072135	-0.121894
O6	O	0.131716	0.933895	-0.121886
O7	O	0.117694	1.196354	-0.121909
Cu8	Cu	0.124704	1.065123	-0.144140
Cu9	Cu	0.124711	1.065136	0.143944
O10	O	0.255935	1.058114	-0.121902
C11	C	0.131084	0.900311	-0.000084
C12	C	0.129181	0.800227	-0.000075
C13	C	-0.040111	1.071505	-0.000090
C14	C	-0.140194	1.069601	-0.000077
C15	C	0.121133	0.377048	0.132686
C16	C	0.121127	0.377058	-0.132895
C17	C	0.122915	0.471092	-0.132891
C18	C	0.123813	0.518108	-0.000096
C19	C	0.122923	0.471091	0.132694
C20	C	0.123813	0.518116	-0.265679
C21	C	0.125602	0.612156	-0.265680
C22	C	0.126494	0.659174	-0.132883
C23	C	0.125603	0.612151	-0.000088
C24	C	0.126501	0.659167	0.132707
C25	C	0.125604	0.612146	0.265505
C26	C	0.123815	0.518109	0.265491
C27	C	0.128283	0.753211	-0.132869
C28	C	0.128291	0.753210	0.132716
C29	C	-0.552728	0.979435	-0.000097
C30	C	-0.574009	1.143668	-0.000111
C31	C	-0.479976	1.145458	-0.000103
C32	C	-0.422313	1.064236	-0.000094
C33	C	-0.458685	0.981223	-0.000093
C34	C	-0.443597	1.228470	-0.000118
C35	C	-0.349558	1.230263	-0.000112
C36	C	-0.291894	1.149040	-0.000092
C37	C	-0.328271	1.066023	-0.000090
C38	C	-0.270608	0.984801	-0.000081
C39	C	-0.306984	0.901784	-0.000068
C40	C	-0.401021	0.899999	-0.000074
C41	C	-0.197856	1.150824	-0.000086
C42	C	-0.176566	0.986588	-0.000077
C43	C	0.289526	1.058754	-0.000103
C44	C	0.389610	1.060658	-0.000106
C45	C	0.118332	1.229948	-0.000109
C46	C	0.120235	1.330032	-0.000109
N47	N	0.124699	1.065121	-0.346763
C48	C	0.015129	0.955646	-0.346809
C49	C	-0.039657	0.900918	-0.423499
C50	C	-0.039658	0.900931	-0.576833
C51	C	0.015137	0.955676	-0.653480
C52	C	0.069923	1.010404	-0.576790
C53	C	0.069916	1.010387	-0.423453
C54	C	0.179496	1.119873	-0.576744
C55	C	0.179493	1.119866	-0.423410
C56	C	0.234291	1.174618	-0.653391
C57	C	0.289074	1.229352	-0.576701
C58	C	0.289071	1.229337	-0.423358
C59	C	0.234280	1.174594	-0.346720
N60	N	0.124710	1.065145	0.346567
H61	H	0.129020	0.791484	0.240855
H62	H	0.234270	1.174580	-0.221868
H63	H	0.126342	0.650438	0.373626
H64	H	-0.490552	1.294597	-0.000139
H65	H	-0.260023	0.835653	-0.000071
H66	H	-0.084265	0.856363	-0.639273
H67	H	0.123084	0.479817	0.373607
H68	H	-0.129622	0.920446	-0.000063
H69	H	0.015140	0.955673	-0.778332
H70	H	-0.582349	0.911845	-0.000081
H71	H	0.120399	0.338760	0.240806
H72	H	0.120403	0.338771	-0.241011
H73	H	-0.319950	1.297861	-0.000120
H74	H	-0.430646	0.832411	-0.000065
H75	H	0.123088	0.479828	-0.373793
H76	H	-0.168244	1.218415	-0.000106
H77	H	0.126330	0.650432	-0.373811
H78	H	0.333691	1.273899	-0.360926
H79	H	0.129022	0.791490	-0.240991
H80	H	0.234291	1.174620	-0.778243
H81	H	0.333688	1.273916	-0.639119
H82	H	-0.084268	0.856345	-0.361076
H83	H	0.015118	0.955637	-0.221957
H84	H	-0.620963	1.209796	-0.000130
