data_functionalizedCrystal
_audit_creation_method	'MofGen! by Chris Wilmer'
_symmetry_space_group_name_H-M	'P1'
_symmetry_Int_Tables_number	1
_symmetry_cell_setting	triclinic
loop_
_symmetry_equiv_pos_as_xyz
  x,y,z
_cell_length_a	10.540539
_cell_length_b	16.992695
_cell_length_c	15.455313
_cell_angle_alpha	87.152573
_cell_angle_beta	92.706132
_cell_angle_gamma	87.596857
loop_
_atom_site_label
_atom_site_type_symbol
_atom_site_fract_x
_atom_site_fract_y
_atom_site_fract_z
O1	O	-1.700697	-0.107164	-0.072091
O2	O	-1.332189	-0.117581	-0.072101
O3	O	-1.514965	0.001778	-0.072089
O4	O	-1.517921	-0.226523	-0.072103
O5	O	-1.504510	-0.005019	0.072172
O6	O	-1.321734	-0.124378	0.072160
O7	O	-1.690242	-0.113961	0.072171
Cu8	Cu	-1.505033	-0.119790	0.085338
Cu9	Cu	-1.517398	-0.111752	-0.085268
O10	O	-1.507466	-0.233320	0.072159
C11	C	-1.279591	-0.120198	0.000028
C12	C	-1.138440	-0.117861	0.000024
C13	C	-1.505937	0.027613	0.000041
C14	C	-1.494596	0.114721	0.000041
C15	C	-1.742840	-0.111344	0.000039
C16	C	-1.883991	-0.113681	0.000038
C17	C	-0.947217	-0.028316	0.000366
C18	C	-1.094065	-0.030670	0.000032
C19	C	-1.086379	-0.155939	-0.082356
C20	C	-0.939580	-0.152961	-0.082415
C21	C	-0.927357	-0.162464	0.081637
C22	C	-1.074330	-0.163318	0.082716
C23	C	-1.516494	-0.259155	0.000026
C24	C	-1.527835	-0.346263	0.000021
N25	N	-1.496346	-0.125444	0.205333
C26	C	-1.604016	0.164349	0.000045
C27	C	-1.593354	0.246195	0.000036
C28	C	-1.473270	0.278413	0.000030
C29	C	-1.363842	0.228779	0.000023
C30	C	-1.374506	0.146934	0.000025
C31	C	-1.429072	0.522259	0.000017
C32	C	-1.418415	0.604110	0.000017
C33	C	-1.647928	0.621521	0.000028
C34	C	-1.658581	0.539673	0.000036
C35	C	-1.549154	0.490047	0.000025
N36	N	-1.462368	0.362073	0.000024
N37	N	-1.560057	0.406389	0.000024
N38	N	-1.526094	-0.106092	-0.205263
C39	C	-1.574027	-0.074755	0.250732
C40	C	-1.567470	-0.079037	0.341539
C41	C	-1.483238	-0.134013	0.386946
C42	C	-1.405549	-0.184704	0.341540
C43	C	-1.412100	-0.180417	0.250734
C44	C	-1.454957	-0.152496	0.658525
C45	C	-1.448413	-0.156781	0.749337
C46	C	-1.610334	-0.051113	0.749330
C47	C	-1.616883	-0.046834	0.658523
C48	C	-1.539190	-0.097522	0.613125
N49	N	-1.476536	-0.138394	0.479766
N50	N	-1.545886	-0.093137	0.520307
H51	H	-0.911361	0.003346	0.059446
H52	H	-1.685472	-0.002068	0.621555
N53	N	-1.314687	-0.243995	0.390509
H54	H	-1.322324	-0.239022	0.454924
H55	H	-1.336142	-0.298990	0.374623
N56	N	-1.328325	-0.235090	0.201760
H57	H	-1.271771	-0.202993	0.164101
H58	H	-1.274051	-0.270560	0.244355
N59	N	-1.234321	0.263523	0.000010
H60	H	-1.244166	0.322902	0.000013
H61	H	-1.182198	0.242896	0.053488
H62	H	-1.130881	-0.123903	-0.143661
N63	N	-1.119204	-0.126519	0.163447
H64	H	-1.077654	-0.156007	0.216417
H65	H	-1.095439	-0.069538	0.162849
H66	H	-1.129534	-0.000436	0.059086
N67	N	-1.711372	0.299720	0.000051
H68	H	-1.686400	0.356457	0.000044
H69	H	-1.767230	0.291730	-0.053423
H70	H	-0.888837	-0.137189	0.144080
H71	H	-1.114510	-0.219826	-0.085424
N72	N	-1.113238	-0.247834	0.089306
H73	H	-1.173238	-0.257899	0.038553
H74	H	-1.035228	-0.284351	0.088602
N75	N	-1.256497	0.093395	0.000039
H76	H	-1.259679	0.061563	-0.053436
H77	H	-1.178862	0.126268	0.000073
N78	N	-1.733539	0.129607	0.000057
H79	H	-1.746960	0.098551	-0.053416
H80	H	-1.739115	0.093562	0.053575
N81	N	-1.788100	0.504926	0.000048
H82	H	-1.855801	0.548785	0.000050
H83	H	-1.801403	0.473861	-0.053429
H84	H	-0.885554	-0.225468	0.082189
H85	H	-1.737017	0.661935	0.000036
H86	H	-1.642623	-0.029991	0.213768
H87	H	-1.673587	-0.009844	0.786302
H88	H	-0.913141	-0.119047	-0.143991
H89	H	-1.630722	-0.037762	0.378503
H90	H	-1.379818	-0.201552	0.786303
N91	N	-1.371155	-0.207161	0.609567
H92	H	-1.316804	-0.242637	0.652114
H93	H	-1.426000	-0.240359	0.571873
N94	N	-1.288888	0.638857	0.000008
H95	H	-1.244456	0.623330	-0.053475
H96	H	-1.298847	0.698228	0.000046
N97	N	-0.908874	0.020800	-0.077429
H98	H	-0.850728	-0.012006	-0.112886
H99	H	-0.987306	0.039214	-0.114162
N100	N	-1.311051	0.468740	0.000010
H101	H	-1.262904	0.481700	-0.053469
H102	H	-1.255249	0.476685	0.053522
N103	N	-0.883561	-0.235778	-0.087354
H104	H	-0.908434	-0.269262	-0.035570
H105	H	-0.916879	-0.259018	-0.142406
H106	H	-1.137212	0.005366	-0.059120
