data_functionalizedCrystal
_audit_creation_method	'MofGen! by Chris Wilmer'
_symmetry_space_group_name_H-M	'P1'
_symmetry_Int_Tables_number	1
_symmetry_cell_setting	triclinic
loop_
_symmetry_equiv_pos_as_xyz
  x,y,z
_cell_length_a	17.077402
_cell_length_b	17.077404
_cell_length_c	17.077396
_cell_angle_alpha	90.021457
_cell_angle_beta	89.970216
_cell_angle_gamma	89.978013
loop_
_atom_site_label
_atom_site_type_symbol
_atom_site_fract_x
_atom_site_fract_y
_atom_site_fract_z
Zn1	Zn	-0.312527	-1.200055	-0.443877
Zn2	Zn	-0.443802	-1.199962	-0.312608
Zn3	Zn	-0.312552	-1.068786	-0.312620
Zn4	Zn	-0.443753	-1.068754	-0.443827
O5	O	-0.378158	-1.134389	-0.378233
O6	O	-0.329951	-1.309889	-0.426479
O7	O	-0.426422	-1.182536	-0.202762
O8	O	-0.202702	-1.086252	-0.330058
O9	O	-0.426398	-1.309821	-0.330036
O10	O	-0.202683	-1.182694	-0.426491
O11	O	-0.329993	-1.086162	-0.202771
O12	O	-0.329946	-0.958935	-0.330009
O13	O	-0.426314	-1.086197	-0.553680
O14	O	-0.426338	-0.958912	-0.426406
O15	O	-0.329903	-1.182663	-0.553717
O16	O	-0.553642	-1.182505	-0.329988
O17	O	-0.553606	-1.086107	-0.426394
C18	C	-0.378140	-0.930441	-0.378204
C19	C	-0.378151	-0.843192	-0.378210
C20	C	-0.582106	-1.134314	-0.378201
C21	C	-0.669356	-1.134353	-0.378214
C22	C	-0.428418	-0.802210	-0.428322
C23	C	-0.428418	-0.720229	-0.428332
C24	C	-0.378155	-0.679232	-0.378225
C25	C	-0.327883	-0.720220	-0.328111
C26	C	-0.327879	-0.802199	-0.328106
C27	C	-0.327895	-0.549350	-0.328124
C28	C	-0.327899	-0.467365	-0.328128
C29	C	-0.428433	-0.467380	-0.428350
C30	C	-0.428430	-0.549359	-0.428345
C31	C	-0.378159	-0.590341	-0.378230
C32	C	-0.710339	-1.184598	-0.328069
C33	C	-0.792319	-1.184637	-0.328089
C34	C	-0.833315	-1.134425	-0.378251
C35	C	-0.792327	-1.084178	-0.428401
C36	C	-0.710348	-1.084144	-0.428385
C37	C	-0.963197	-1.084250	-0.428431
C38	C	-1.045181	-1.084283	-0.428447
C39	C	-1.045168	-1.184743	-0.328136
C40	C	-0.963189	-1.184709	-0.328119
C41	C	-0.922206	-1.134461	-0.378269
C42	C	-0.173414	-1.134487	-0.378281
C43	C	-0.086164	-1.134528	-0.378302
C44	C	-0.378100	-1.134437	-0.582977
C45	C	-0.378076	-1.134457	-0.670227
C46	C	-0.378172	-0.339134	-0.378253
C47	C	-0.378166	-0.426383	-0.378240
C48	C	-0.327870	-1.184689	-0.711237
C49	C	-0.327844	-1.184698	-0.793218
C50	C	-0.378028	-1.134479	-0.834186
C51	C	-0.428236	-1.084242	-0.793170
C52	C	-0.428257	-1.084229	-0.711191
C53	C	-0.428188	-1.084274	-0.964040
C54	C	-0.428168	-1.084288	-1.046025
C55	C	-0.327776	-1.184742	-1.046067
C56	C	-0.327797	-1.184730	-0.964088
C57	C	-0.378006	-1.134493	-0.923077
C58	C	-0.378159	-1.134387	-0.174285
C59	C	-0.377963	-1.134519	-0.087036
H60	H	-0.469350	-0.835584	-0.469123
H61	H	-0.676980	-1.043230	-0.469218
C62	C	-0.482869	-0.675698	-0.482836
C63	C	-0.438497	-0.628689	-0.533254
C64	C	-0.488633	-0.587667	-0.583483
H65	H	-0.517050	-0.643629	-0.452840
H66	H	-0.512791	-0.711835	-0.512716
H67	H	-0.408589	-0.592556	-0.503377
H68	H	-0.404319	-0.660739	-0.563267
H69	H	-0.518555	-0.623804	-0.613364
H70	H	-0.522811	-0.555601	-0.553481
H71	H	-0.458534	-0.555772	-0.617702
H72	H	-0.469030	-1.043393	-1.079379
C73	C	-0.482905	-1.029800	-0.666698
C74	C	-0.560567	-1.046880	-0.686607
C75	C	-0.610931	-0.996763	-0.645626
H76	H	-0.471520	-0.977035	-0.680085
H77	H	-0.475781	-1.036996	-0.612001
H78	H	-0.567687	-1.039677	-0.741292
H79	H	-0.571976	-1.099636	-0.673218
H80	H	-0.603807	-1.003959	-0.590929
H81	H	-0.599539	-0.944000	-0.659016
H82	H	-0.663630	-1.008349	-0.659123
H83	H	-0.286964	-1.225603	-0.826605
C84	C	-0.482925	-0.422748	-0.482737
C85	C	-0.472155	-0.342180	-0.472038
C86	C	-0.522332	-0.301038	-0.522128
H87	H	-0.535684	-0.436064	-0.471201
H88	H	-0.471498	-0.436169	-0.535515
H89	H	-0.483588	-0.328765	-0.419272
H90	H	-0.419407	-0.328841	-0.483580
H91	H	-0.510905	-0.314458	-0.574906
H92	H	-0.575088	-0.314359	-0.510588
H93	H	-0.515027	-0.246368	-0.514881
C94	C	-0.273238	-0.422993	-0.273702
C95	C	-0.229191	-0.476428	-0.229832
C96	C	-0.178822	-0.435581	-0.179694
H97	H	-0.303134	-0.390986	-0.239377
H98	H	-0.239039	-0.391054	-0.303782
H99	H	-0.263386	-0.508354	-0.199754
H100	H	-0.199280	-0.508437	-0.264137
H101	H	-0.144623	-0.403642	-0.209774
H102	H	-0.208724	-0.403575	-0.145374
H103	H	-0.148925	-0.471830	-0.149927
C104	C	-0.482803	-1.029718	-0.919654
C105	C	-0.526771	-0.985764	-0.973077
C106	C	-0.577105	-0.935519	-0.932217
H107	H	-0.452884	-0.995450	-0.887663
H108	H	-0.517052	-1.059724	-0.887698
H109	H	-0.492526	-0.955760	-1.005020
H110	H	-0.556706	-1.020012	-1.005070
H111	H	-0.611354	-0.965524	-0.900261
H112	H	-0.547180	-0.901255	-0.900227
H113	H	-0.606948	-0.905695	-0.968458
H114	H	-0.286952	-0.582715	-0.287322
H115	H	-0.287007	-1.225585	-0.677887
H116	H	-0.286954	-0.686834	-0.287317
H117	H	-0.929831	-1.043335	-0.469271
H118	H	-0.469363	-0.582737	-0.469142
H119	H	-0.286943	-0.835565	-0.287304
H120	H	-0.469093	-1.043350	-0.826533
C121	C	-0.665974	-1.239199	-0.273575
C122	C	-0.719416	-1.283224	-0.229680
C123	C	-0.678579	-1.333541	-0.179479
H124	H	-0.634041	-1.209266	-0.239268
H125	H	-0.633961	-1.273414	-0.303610
H126	H	-0.751416	-1.249014	-0.199647
H127	H	-0.751351	-1.313174	-0.263967
H128	H	-0.646566	-1.367755	-0.209514
H129	H	-0.646647	-1.303601	-0.145177
H130	H	-0.714833	-1.363423	-0.149695
H131	H	-0.825684	-1.225551	-0.287256
H132	H	-0.929810	-1.225591	-0.287270
H133	H	-0.286892	-1.225645	-1.079462
H134	H	-1.078540	-1.225660	-0.287305
C135	C	-1.089656	-1.029874	-0.483044
C136	C	-1.069667	-1.046939	-0.560723
C137	C	-1.110630	-0.996843	-0.611041
H138	H	-1.076310	-0.977102	-0.471619
H139	H	-1.144355	-1.037101	-0.475919
H140	H	-1.014979	-1.039705	-0.567845
H141	H	-1.083015	-1.099703	-0.572173
H142	H	-1.165330	-1.004070	-0.603915
H143	H	-1.097281	-0.944073	-0.599608
H144	H	-1.097079	-1.008419	-0.663751
C145	C	-0.836936	-1.029789	-0.482908
C146	C	-0.883946	-1.074223	-0.533258
C147	C	-0.925057	-1.024144	-0.583472
H148	H	-0.800876	-0.999841	-0.512847
H149	H	-0.869008	-0.995629	-0.452874
H150	H	-0.851876	-1.108369	-0.563289
H151	H	-0.920020	-1.104169	-0.503341
H152	H	-0.957129	-0.989985	-0.553438
H153	H	-0.888991	-0.994199	-0.613406
H154	H	-0.956963	-1.054285	-0.617635
C155	C	-0.273228	-1.239283	-0.919747
C156	C	-0.229237	-1.283265	-0.973207
C157	C	-0.178950	-1.333519	-0.932389
H158	H	-0.303181	-1.273533	-0.887764
H159	H	-0.238990	-1.209282	-0.887787
H160	H	-0.263470	-1.313264	-1.005154
H161	H	-0.199267	-1.249036	-1.005192
H162	H	-0.144713	-1.303518	-0.900428
H163	H	-0.208910	-1.367764	-0.900407
H164	H	-0.149091	-1.363362	-0.968655
