data_functionalizedCrystal
_audit_creation_method	'MofGen! by Chris Wilmer'
_symmetry_space_group_name_H-M	'P1'
_symmetry_Int_Tables_number	1
_symmetry_cell_setting	triclinic
loop_
_symmetry_equiv_pos_as_xyz
  x,y,z
_cell_length_a	15.500227
_cell_length_b	19.288864
_cell_length_c	19.288865
_cell_angle_alpha	83.136245
_cell_angle_beta	92.813035
_cell_angle_gamma	87.151552
loop_
_atom_site_label
_atom_site_type_symbol
_atom_site_fract_x
_atom_site_fract_y
_atom_site_fract_z
O1	O	0.072232	-0.924602	-0.083400
O2	O	0.405565	-0.591269	0.249933
O3	O	0.738899	-0.257936	0.583267
O4	O	0.072174	-0.722339	-0.095091
O5	O	0.405507	-0.389006	0.238242
O6	O	0.738841	-0.055672	0.571575
O7	O	0.072188	-0.829314	0.011884
O8	O	0.405521	-0.495981	0.345217
O9	O	0.738854	-0.162648	0.678551
O10	O	0.072219	-0.817627	-0.190375
O11	O	0.405552	-0.484294	0.142958
O12	O	0.738885	-0.150960	0.476291
O13	O	-0.071702	-0.822823	0.005418
O14	O	0.261631	-0.489490	0.338751
O15	O	0.594965	-0.156156	0.672084
O16	O	-0.071715	-0.715848	-0.101558
O17	O	0.261618	-0.382514	0.231776
O18	O	0.594951	-0.049181	0.565109
O19	O	-0.071658	-0.918111	-0.089866
O20	O	0.261676	-0.584778	0.243467
O21	O	0.595009	-0.251444	0.576800
Cu22	Cu	-0.084825	-0.816387	-0.096302
Cu23	Cu	0.248509	-0.483053	0.237031
Cu24	Cu	0.581842	-0.149720	0.570364
Cu25	Cu	0.085341	-0.824063	-0.088655
Cu26	Cu	0.418675	-0.490730	0.244678
Cu27	Cu	0.752008	-0.157397	0.578011
O28	O	-0.071671	-0.811136	-0.196841
O29	O	0.261662	-0.477802	0.136492
O30	O	0.594996	-0.144469	0.469825
C31	C	0.000222	-0.693217	-0.097949
C32	C	0.333555	-0.359883	0.235385
C33	C	0.666888	-0.026550	0.568718
C34	C	0.000199	-0.616112	-0.096821
C35	C	0.333532	-0.282779	0.236513
C36	C	0.666866	0.050555	0.569846
C37	C	0.000240	-0.825692	0.034527
C38	C	0.333574	-0.492359	0.367860
C39	C	0.666907	-0.159026	0.701194
C40	C	0.000232	-0.824563	0.111630
C41	C	0.333566	-0.491230	0.444964
C42	C	0.666899	-0.157896	0.778297
N43	N	-0.204510	-0.810992	-0.101680
N44	N	0.128823	-0.477659	0.231653
N45	N	0.462156	-0.144325	0.564986
C46	C	-0.249781	-0.856337	-0.056368
C47	C	0.083552	-0.523004	0.276966
C48	C	0.416885	-0.189670	0.610299
C49	C	-0.340355	-0.852264	-0.060441
C50	C	-0.007021	-0.518930	0.272892
C51	C	0.326312	-0.185597	0.606225
C52	C	-0.385655	-0.802848	-0.109832
C53	C	-0.052322	-0.469515	0.223502
C54	C	0.281011	-0.136182	0.556835
C55	C	-0.340378	-0.757499	-0.155146
C56	C	-0.007045	-0.424165	0.178187
C57	C	0.326289	-0.090832	0.511521
C58	C	-0.249806	-0.761569	-0.151069
C59	C	0.083527	-0.428236	0.182265
C60	C	0.416860	-0.094902	0.515598
C61	C	-0.659124	-0.788184	-0.124509
C62	C	-0.325791	-0.454851	0.208824
C63	C	0.007543	-0.121518	0.542158
C64	C	-0.749702	-0.784119	-0.128584
C65	C	-0.416369	-0.450785	0.204749
C66	C	-0.083035	-0.117452	0.538082
C67	C	-0.749672	-0.878883	-0.033878
C68	C	-0.416339	-0.545550	0.299455
C69	C	-0.083006	-0.212217	0.632788
C70	C	-0.659099	-0.882952	-0.029808
C71	C	-0.325766	-0.549619	0.303525
C72	C	0.007568	-0.216286	0.636859
C73	C	-0.613830	-0.837600	-0.075120
C74	C	-0.280496	-0.504267	0.258213
C75	C	0.052837	-0.170933	0.591547
C76	C	-0.478236	-0.798685	-0.113998
C77	C	-0.144903	-0.465351	0.219335
C78	C	0.188431	-0.132018	0.552669
C79	C	-0.521251	-0.841761	-0.070950
C80	C	-0.187917	-0.508427	0.262384
C81	C	0.145416	-0.175094	0.595717
N82	N	0.205027	-0.829463	-0.083272
N83	N	0.538360	-0.496130	0.250062
N84	N	0.871694	-0.162797	0.583395
C85	C	0.000297	-0.947234	-0.087009
C86	C	0.333630	-0.613900	0.246325
C87	C	0.666963	-0.280567	0.579658
C88	C	0.000325	-1.024338	-0.088137
C89	C	0.333659	-0.691005	0.245197
C90	C	0.666992	-0.357672	0.578530
C91	C	0.000222	-0.571417	-0.159588
C92	C	0.333555	-0.238083	0.173746
C93	C	0.666889	0.095250	0.507079
C94	C	0.000232	-0.498970	-0.158526
C95	C	0.333565	-0.165637	0.174807
C96	C	0.666898	0.167697	0.508140
C97	C	0.000235	-0.471223	-0.094694
C98	C	0.333568	-0.137889	0.238639
C99	C	0.666902	0.195444	0.571973
C100	C	0.000207	-0.515928	-0.031919
C101	C	0.333540	-0.182594	0.301414
C102	C	0.666874	0.150739	0.634747
C103	C	0.000189	-0.588372	-0.032983
C104	C	0.333522	-0.255039	0.300351
C105	C	0.666856	0.078294	0.633684
C106	C	0.050667	-0.365236	-0.042249
C107	C	0.384001	-0.031903	0.291085
C108	C	0.717334	0.301431	0.624418
C109	C	0.050691	-0.292792	-0.041188
C110	C	0.384024	0.040541	0.292146
C111	C	0.717357	0.373874	0.625479
C112	C	0.000287	-0.247779	-0.091412
C113	C	0.333620	0.085554	0.241921
C114	C	0.666954	0.418887	0.575254
C115	C	-0.050129	-0.275218	-0.142709
C116	C	0.283204	0.058116	0.190625
C117	C	0.616538	0.391449	0.523958
C118	C	-0.050147	-0.347662	-0.143772
C119	C	0.283186	-0.014329	0.189561
C120	C	0.616519	0.319004	0.522895
C121	C	0.000254	-0.392670	-0.093534
C122	C	0.333587	-0.059336	0.239799
C123	C	0.666921	0.273997	0.573133
C124	C	0.000319	-0.124529	-0.153033
C125	C	0.333652	0.208805	0.180300
C126	C	0.666986	0.542138	0.513634
C127	C	0.000323	-0.052081	-0.151969
C128	C	0.333657	0.281253	0.181364
C129	C	0.666990	0.614586	0.514697
C130	C	0.000307	-0.069040	-0.025360
C131	C	0.333641	0.264293	0.307973
C132	C	0.666974	0.597626	0.641307
C133	C	0.000295	-0.141486	-0.026426
C134	C	0.333628	0.191847	0.306908
C135	C	0.666961	0.525181	0.640241
C136	C	0.000305	-0.169226	-0.090264
C137	C	0.333638	0.164107	0.243069
C138	C	0.666971	0.497441	0.576403
C139	C	0.000278	-0.814758	-0.219485
C140	C	0.333612	-0.481424	0.113849
C141	C	0.666945	-0.148091	0.447182
C142	C	0.000292	-0.815887	-0.296588
C143	C	0.333625	-0.482554	0.036746
C144	C	0.666959	-0.149221	0.370079
C145	C	0.000246	-0.887332	0.156327
C146	C	0.333579	-0.553998	0.489661
C147	C	0.666913	-0.220665	0.822994
C148	C	0.000259	-0.886272	0.228775
C149	C	0.333593	-0.552938	0.562108
C150	C	0.666926	-0.219605	0.895442
C151	C	0.000242	-0.822439	0.256522
C152	C	0.333575	-0.489105	0.589855
C153	C	0.666908	-0.155772	0.923188
C154	C	0.000233	-0.759662	0.211815
C155	C	0.333566	-0.426329	0.545149
C156	C	0.666899	-0.092995	0.878482
C157	C	0.000228	-0.760724	0.139370
C158	C	0.333561	-0.427391	0.472703
C159	C	0.666895	-0.094058	0.806036
C160	C	-0.050174	-0.769985	0.362544
C161	C	0.283159	-0.436651	0.695877
C162	C	0.616493	-0.103318	1.029210
C163	C	-0.050175	-0.768925	0.434988
C164	C	0.283159	-0.435591	0.768321
C165	C	0.616492	-0.102258	1.101655
C166	C	0.000260	-0.819160	0.479968
C167	C	0.333593	-0.485826	0.813301
C168	C	0.666927	-0.152493	1.146635
C169	C	0.050684	-0.870466	0.452496
C170	C	0.384018	-0.537133	0.785829
C171	C	0.717351	-0.203799	1.119163
C172	C	0.050680	-0.871528	0.380050
C173	C	0.384013	-0.538195	0.713384
C174	C	0.717346	-0.204862	1.046717
C175	C	0.000247	-0.821280	0.335076
C176	C	0.333581	-0.487946	0.668409
C177	C	0.666914	-0.154613	1.001743
C178	C	0.000290	-0.880783	0.603222
C179	C	0.333623	-0.547450	0.936555
C180	C	0.666956	-0.214117	1.269888
C181	C	0.000308	-0.879721	0.675671
C182	C	0.333642	-0.546387	1.009004
C183	C	0.666975	-0.213054	1.342337
C184	C	0.000273	-0.753109	0.658709
C185	C	0.333606	-0.419776	0.992042
C186	C	0.666940	-0.086442	1.325375
C187	C	0.000263	-0.754174	0.586262
C188	C	0.333596	-0.420840	0.919595
C189	C	0.666930	-0.087507	1.252929
C190	C	0.000267	-0.818013	0.558523
C191	C	0.333600	-0.484679	0.891856
C192	C	0.666934	-0.151346	1.225189
H193	H	-0.212903	-0.896579	-0.016152
H194	H	0.120430	-0.563246	0.317181
H195	H	0.453763	-0.229912	0.650515
Cl196	Cl	0.000271	-0.197678	0.052486
Cl197	Cl	0.333604	0.135655	0.385820
Cl198	Cl	0.666937	0.468989	0.719153
Cl199	Cl	-0.602220	-0.731175	-0.181474
Cl200	Cl	-0.268887	-0.397841	0.151859
Cl201	Cl	0.064447	-0.064508	0.485193
Cl202	Cl	0.000348	0.004110	-0.230884
Cl203	Cl	0.333681	0.337443	0.102449
Cl204	Cl	0.667015	0.670776	0.435782
H205	H	0.000315	-0.147115	-0.205014
H206	H	0.333648	0.186218	0.128319
H207	H	0.666981	0.519552	0.461652
Cl208	Cl	-0.806586	-0.935891	0.023085
Cl209	Cl	-0.473253	-0.602558	0.356418
Cl210	Cl	-0.139920	-0.269225	0.689751
H211	H	-0.091173	-0.238569	-0.183606
H212	H	0.242160	0.094764	0.149727
H213	H	0.575493	0.428098	0.483061
Cl214	Cl	0.000161	-0.644564	0.045931
Cl215	Cl	0.333494	-0.311231	0.379264
Cl216	Cl	0.666827	0.022103	0.712598
Cl217	Cl	0.000206	-0.481046	0.048327
Cl218	Cl	0.333540	-0.147713	0.381660
Cl219	Cl	0.666873	0.185621	0.714994
H220	H	-0.622217	-0.923190	0.010409
H221	H	-0.288884	-0.589857	0.343743
H222	H	0.044450	-0.256523	0.677076
Cl223	Cl	-0.464301	-0.903879	-0.008859
Cl224	Cl	-0.130967	-0.570545	0.324474
Cl225	Cl	0.202366	-0.237212	0.657808
H226	H	-0.377267	-0.717260	-0.195358
H227	H	-0.043934	-0.383927	0.137975
H228	H	0.289399	-0.050593	0.471308
H229	H	-0.091200	-0.369999	-0.185538
H230	H	0.242133	-0.036666	0.147796
H231	H	0.575466	0.296667	0.481129
Cl232	Cl	0.114094	-0.933623	0.509035
Cl233	Cl	0.447427	-0.600289	0.842368
Cl234	Cl	0.780761	-0.266956	1.175701
Cl235	Cl	0.114079	-0.258306	0.023292
Cl236	Cl	0.447412	0.075028	0.356626
Cl237	Cl	0.780746	0.408361	0.689959
H238	H	-0.377214	-0.889186	-0.023544
H239	H	-0.043880	-0.555853	0.309789
H240	H	0.289453	-0.222520	0.643123
H241	H	-0.212948	-0.724644	-0.187966
H242	H	0.120386	-0.391310	0.145367
H243	H	0.453719	-0.057977	0.478701
Cl244	Cl	0.114038	-0.421817	0.020897
Cl245	Cl	0.447372	-0.088484	0.354231
Cl246	Cl	0.780705	0.244849	0.687564
Cl247	Cl	0.000276	-0.967587	0.121460
Cl248	Cl	0.333609	-0.634254	0.454793
Cl249	Cl	0.666942	-0.300920	0.788127
H250	H	0.000297	-0.932765	0.580636
H251	H	0.333630	-0.599431	0.913969
H252	H	0.666964	-0.266098	1.247302
Cl253	Cl	-0.535189	-0.736565	-0.176089
Cl254	Cl	-0.201856	-0.403232	0.157244
Cl255	Cl	0.131477	-0.069898	0.490577
H256	H	0.000274	-0.937387	0.265174
H257	H	0.333607	-0.604054	0.598508
H258	H	0.666941	-0.270720	0.931841
H259	H	0.091738	-0.913302	0.357686
H260	H	0.425072	-0.579969	0.691019
H261	H	0.758405	-0.246636	1.024352
Cl262	Cl	0.000231	-0.606286	-0.239841
Cl263	Cl	0.333564	-0.272952	0.093492
Cl264	Cl	0.666897	0.060381	0.426825
H265	H	0.000324	-0.930837	0.712063
H266	H	0.333658	-0.597503	1.045396
H267	H	0.666991	-0.264170	1.378730
Cl268	Cl	0.000256	-0.672861	0.693584
Cl269	Cl	0.333589	-0.339528	1.026917
Cl270	Cl	0.666922	-0.006194	1.360250
H271	H	0.000247	-0.703060	0.549868
H272	H	0.333580	-0.369727	0.883202
H273	H	0.666914	-0.036394	1.216535
Cl274	Cl	-0.113568	-0.704429	0.469517
Cl275	Cl	0.219766	-0.371096	0.802851
Cl276	Cl	0.553099	-0.037762	1.136184
Cl277	Cl	-0.113587	-0.706827	0.306004
Cl278	Cl	0.219747	-0.373494	0.639337
Cl279	Cl	0.553080	-0.040160	0.972670
Cl280	Cl	0.000302	-0.034164	0.054887
Cl281	Cl	0.333635	0.299169	0.388220
Cl282	Cl	0.666968	0.632502	0.721554
Cl283	Cl	0.000259	-0.442771	-0.237439
Cl284	Cl	0.333592	-0.109438	0.095894
Cl285	Cl	0.666925	0.223895	0.429227
H286	H	0.000220	-0.707689	0.234411
H287	H	0.333554	-0.374355	0.567745
H288	H	0.666887	-0.041022	0.901078
H289	H	-0.786582	-0.743877	-0.168807
H290	H	-0.453249	-0.410543	0.164527
H291	H	-0.119915	-0.077210	0.497860
H292	H	0.000217	-0.709609	0.102976
H293	H	0.333550	-0.376276	0.436310
H294	H	0.666883	-0.042942	0.769643
