data_functionalizedCrystal
_audit_creation_method	'MofGen! by Chris Wilmer'
_symmetry_space_group_name_H-M	'P1'
_symmetry_Int_Tables_number	1
_symmetry_cell_setting	triclinic
loop_
_symmetry_equiv_pos_as_xyz
  x,y,z
_cell_length_a	12.837943
_cell_length_b	9.616153
_cell_length_c	12.811442
_cell_angle_alpha	84.567459
_cell_angle_beta	90.586273
_cell_angle_gamma	90.005933
loop_
_atom_site_label
_atom_site_type_symbol
_atom_site_fract_x
_atom_site_fract_y
_atom_site_fract_z
O1	O	1.376646	0.150038	-0.272972
O2	O	1.074782	0.148346	-0.259487
O3	O	1.233302	0.130014	-0.114198
O4	O	1.218126	0.168369	-0.418262
O5	O	1.233280	-0.101277	-0.114199
O6	O	1.074760	-0.082945	-0.259489
O7	O	1.376624	-0.081253	-0.272973
Zn8	Zn	1.225689	-0.118822	-0.266231
Zn9	Zn	1.225717	0.185914	-0.266229
O10	O	1.218104	-0.062922	-0.418263
C11	C	1.036130	0.032127	-0.254933
C12	C	0.920994	0.030417	-0.241347
N13	N	1.225677	-0.326796	-0.266232
C14	C	0.680747	0.051000	-0.404676
C15	C	0.572565	0.049392	-0.391915
C16	C	0.596448	0.025585	-0.203066
C17	C	0.704629	0.027193	-0.215827
C18	C	0.746774	0.039902	-0.316635
C19	C	0.854958	0.041519	-0.329394
C20	C	0.878838	0.017702	-0.140546
C21	C	0.770657	0.016095	-0.127786
C22	C	1.140622	-0.537399	-0.343643
C23	C	1.140807	-0.376189	-0.343979
C24	C	1.333993	-0.380865	-0.300987
C25	C	1.333529	-0.542012	-0.301548
C26	C	1.203495	-0.560878	-0.153886
C27	C	1.201003	-0.399590	-0.154375
C28	C	1.415276	0.034969	-0.277528
C29	C	1.530412	0.036688	-0.291114
C30	C	1.232439	0.009428	-0.075009
C31	C	1.229885	-0.005293	0.041763
N32	N	1.225738	0.393888	-0.266221
C33	C	1.218967	0.057667	-0.457451
C34	C	1.221521	0.072397	-0.574224
C35	C	1.226280	-0.152115	0.206351
C36	C	1.228674	-0.138287	0.096633
C37	C	1.228698	0.113882	0.096619
C38	C	1.226303	0.100053	0.206338
C39	C	1.225095	-0.032950	0.261200
C40	C	1.222708	-0.046777	0.370920
C41	C	1.222724	0.205390	0.370904
C42	C	1.225119	0.219219	0.261186
H43	H	0.889270	0.051866	-0.411477
H44	H	0.715062	0.061350	-0.486758
O45	O	1.229991	0.257321	0.037431
H46	H	1.228757	0.337869	0.094001
H47	H	1.226099	0.327506	0.216503
O48	O	0.950052	0.005724	-0.045576
H49	H	1.032359	0.008968	-0.071381
O50	O	0.501345	0.061368	-0.486872
H51	H	0.548830	0.070484	-0.559109
O52	O	1.229954	-0.266815	0.037472
H53	H	1.301641	-0.266828	-0.010230
O54	O	0.725194	0.002378	-0.019063
H55	H	0.751694	0.091245	0.023765
H56	H	1.225303	-0.260411	0.251021
O57	O	0.550975	0.011857	-0.094348
H58	H	0.577466	0.100719	-0.051509
H59	H	1.154681	-0.567472	-0.426300
O60	O	1.159674	-0.311180	-0.454102
H61	H	1.231670	-0.247169	-0.455116
O62	O	1.034176	-0.327549	-0.314457
H63	H	0.982011	-0.419225	-0.299814
O64	O	1.419980	-0.602647	-0.230452
H65	H	1.461939	-0.516845	-0.195830
H66	H	1.221762	0.302424	0.415574
O67	O	1.033653	-0.592509	-0.314398
H68	H	1.040004	-0.669469	-0.244373
O69	O	1.359393	-0.578078	-0.410501
H70	H	1.372108	-0.480483	-0.462294
O71	O	1.285663	-0.621035	-0.077357
H72	H	1.363455	-0.581871	-0.103208
O73	O	1.419923	-0.339169	-0.228890
H74	H	1.386259	-0.279316	-0.167377
O75	O	1.360450	-0.313790	-0.408801
H76	H	1.363860	-0.198676	-0.407194
O77	O	1.101101	-0.619914	-0.113177
H78	H	1.037111	-0.580816	-0.167055
O79	O	1.095451	-0.353380	-0.119765
H80	H	1.060701	-0.278869	-0.181959
H81	H	1.258927	-0.367010	-0.093225
H82	H	1.221726	-0.155075	0.415587
