data_functionalizedCrystal
_audit_creation_method	'MofGen! by Chris Wilmer'
_symmetry_space_group_name_H-M	'P1'
_symmetry_Int_Tables_number	1
_symmetry_cell_setting	triclinic
loop_
_symmetry_equiv_pos_as_xyz
  x,y,z
_cell_length_a	18.215407
_cell_length_b	21.395361
_cell_length_c	21.395356
_cell_angle_alpha	90.030681
_cell_angle_beta	89.976270
_cell_angle_gamma	89.968844
loop_
_atom_site_label
_atom_site_type_symbol
_atom_site_fract_x
_atom_site_fract_y
_atom_site_fract_z
Zn1	Zn	1.125070	0.249447	-0.354251
Zn2	Zn	1.458404	0.582780	-0.020917
Zn3	Zn	1.791737	0.916114	0.312416
Zn4	Zn	1.124958	0.354224	-0.249468
Zn5	Zn	1.458291	0.687557	0.083866
Zn6	Zn	1.791625	1.020890	0.417199
Zn7	Zn	1.001995	0.249465	-0.249487
Zn8	Zn	1.335328	0.582798	0.083846
Zn9	Zn	1.668661	0.916131	0.417180
Zn10	Zn	1.001956	0.354191	-0.354208
Zn11	Zn	1.335290	0.687525	-0.020874
Zn12	Zn	1.668623	1.020858	0.312459
O13	O	1.063495	0.301832	-0.301853
O14	O	1.396828	0.635165	0.031480
O15	O	1.730162	0.968498	0.364813
O16	O	1.228040	0.263352	-0.340361
O17	O	1.561373	0.596685	-0.007028
O18	O	1.894706	0.930018	0.326306
O19	O	1.108616	0.340348	-0.161792
O20	O	1.441949	0.673681	0.171541
O21	O	1.775282	1.007015	0.504874
O22	O	1.018384	0.161784	-0.263410
O23	O	1.351717	0.495118	0.069923
O24	O	1.685051	0.828451	0.403256
O25	O	1.227957	0.340331	-0.263377
O26	O	1.561290	0.673664	0.069956
O27	O	1.894624	1.006997	0.403289
O28	O	1.108807	0.161771	-0.340380
O29	O	1.442141	0.495105	-0.007046
O30	O	1.775474	0.828438	0.326287
O31	O	1.018275	0.263382	-0.161807
O32	O	1.351608	0.596715	0.171527
O33	O	1.684942	0.930049	0.504860
O34	O	0.899005	0.263351	-0.263369
O35	O	1.232339	0.596684	0.069965
O36	O	1.565672	0.930018	0.403298
O37	O	1.018319	0.340276	-0.441891
O38	O	1.351652	0.673609	-0.108558
O39	O	1.684985	1.006943	0.224775
O40	O	0.898977	0.340293	-0.340306
O41	O	1.232311	0.673627	-0.006973
O42	O	1.565644	1.006960	0.326360
O43	O	1.108770	0.263321	-0.441923
O44	O	1.442104	0.596654	-0.108590
O45	O	1.775437	0.929987	0.224744
O46	O	1.108578	0.441897	-0.263336
O47	O	1.441912	0.775231	0.069998
O48	O	1.775245	1.108564	0.403331
O49	O	1.018210	0.441874	-0.340288
O50	O	1.351543	0.775207	-0.006954
O51	O	1.684876	1.108540	0.326379
C52	C	0.872289	0.301821	-0.301835
C53	C	1.205622	0.635154	0.031498
C54	C	1.538955	0.968488	0.364831
C55	C	0.790490	0.301831	-0.301842
C56	C	1.123823	0.635165	0.031491
C57	C	1.457156	0.968498	0.364824
C58	C	1.063398	0.464619	-0.301818
C59	C	1.396731	0.797953	0.031515
C60	C	1.730064	1.131286	0.364848
C61	C	1.063423	0.534261	-0.301824
C62	C	1.396757	0.867594	0.031509
C63	C	1.730090	1.200927	0.364842
C64	C	1.063553	0.301793	-0.465277
C65	C	1.396886	0.635126	-0.131943
C66	C	1.730219	0.968459	0.201390
C67	C	1.063577	0.301776	-0.534918
C68	C	1.396911	0.635110	-0.201585
C69	C	1.730244	0.968443	0.131749
C70	C	0.602300	0.341958	-0.341854
C71	C	0.935634	0.675292	-0.008520
C72	C	1.268967	1.008625	0.324813
C73	C	0.525442	0.341960	-0.341861
C74	C	0.858775	0.675294	-0.008528
C75	C	1.192108	1.008627	0.324805
C76	C	0.525441	0.261716	-0.261867
C77	C	0.858775	0.595050	0.071467
C78	C	1.192108	0.928383	0.404800
C79	C	0.602299	0.261712	-0.261862
C80	C	0.935632	0.595045	0.071471
C81	C	1.268965	0.928378	0.404804
C82	C	0.640726	0.301836	-0.301855
C83	C	0.974060	0.635170	0.031478
C84	C	1.307393	0.968503	0.364812
C85	C	0.487010	0.301843	-0.301867
C86	C	0.820343	0.635176	0.031466
C87	C	1.153677	0.968509	0.364800
C88	C	0.403676	0.301845	-0.301875
C89	C	0.737010	0.635178	0.031458
C90	C	1.070343	0.968511	0.364791
C91	C	0.724065	0.301834	-0.301848
C92	C	1.057399	0.635167	0.031485
C93	C	1.390732	0.968500	0.364819
C94	C	1.255448	0.301843	-0.301872
C95	C	1.588781	0.635176	0.031462
C96	C	1.922114	0.968510	0.364795
C97	C	1.337247	0.301848	-0.301880
C98	C	1.670580	0.635181	0.031454
C99	C	2.003913	0.968514	0.364787
C100	C	1.063612	0.138408	-0.301902
C101	C	1.396946	0.471742	0.031431
C102	C	1.730279	0.805075	0.364765
C103	C	1.063663	0.068767	-0.301923
C104	C	1.396996	0.402100	0.031411
C105	C	1.730329	0.735434	0.364744
C106	C	1.110520	0.566965	-0.261797
C107	C	1.443854	0.900298	0.071537
C108	C	1.777187	1.233632	0.404870
C109	C	1.110554	0.632400	-0.261811
C110	C	1.443888	0.965734	0.071523
C111	C	1.777221	1.299067	0.404856
C112	C	1.063479	0.665129	-0.301846
C113	C	1.396812	0.998462	0.031487
C114	C	1.730145	1.331795	0.364821
C115	C	1.016379	0.632416	-0.341882
C116	C	1.349712	0.965750	-0.008548
C117	C	1.683045	1.299083	0.324785
C118	C	1.016351	0.566982	-0.341871
C119	C	1.349684	0.900316	-0.008538
C120	C	1.683018	1.233649	0.324796
C121	C	0.997215	0.768844	-0.306756
C122	C	1.330549	1.102177	0.026578
C123	C	1.663882	1.435510	0.359911
C124	C	0.997242	0.834277	-0.306762
C125	C	1.330575	1.167610	0.026571
C126	C	1.663909	1.500943	0.359905
C127	C	1.063565	0.866950	-0.301883
C128	C	1.396898	1.200283	0.031451
C129	C	1.730231	1.533616	0.364784
C130	C	1.129863	0.834181	-0.296984
C131	C	1.463196	1.167515	0.036350
C132	C	1.796529	1.500848	0.369683
C133	C	1.129835	0.768747	-0.296973
C134	C	1.463168	1.102081	0.036360
C135	C	1.796502	1.435414	0.369694
C136	C	1.063504	0.736081	-0.301862
C137	C	1.396837	1.069415	0.031471
C138	C	1.730171	1.402748	0.364804
C139	C	1.110702	0.970607	-0.261868
C140	C	1.444036	1.303940	0.071465
C141	C	1.777369	1.637273	0.404799
C142	C	1.110738	1.036043	-0.261886
C143	C	1.444071	1.369377	0.071447
C144	C	1.777404	1.702710	0.404780
C145	C	1.016556	1.036058	-0.341954
C146	C	1.349889	1.369391	-0.008621
C147	C	1.683222	1.702724	0.324713
C148	C	1.016527	0.970622	-0.341939
C149	C	1.349860	1.303956	-0.008606
C150	C	1.683193	1.637289	0.324728
C151	C	1.063599	0.937901	-0.301892
C152	C	1.396932	1.271234	0.031441
C153	C	1.730266	1.604567	0.364774
C154	C	1.016550	0.261696	-0.567629
C155	C	1.349883	0.595029	-0.234295
C156	C	1.683216	0.928362	0.099038
C157	C	1.016547	0.261684	-0.633064
C158	C	1.349880	0.595017	-0.299731
C159	C	1.683214	0.928351	0.033603
C160	C	1.063586	0.301746	-0.665786
C161	C	1.396919	0.635080	-0.332453
C162	C	1.730252	0.968413	0.000880
C163	C	1.110617	0.341835	-0.633068
C164	C	1.443950	0.675168	-0.299734
C165	C	1.777283	1.008502	0.033599
C166	C	1.110613	0.341850	-0.567634
C167	C	1.443946	0.675183	-0.234300
C168	C	1.777279	1.008516	0.099033
C169	C	1.129893	0.306672	-0.769473
C170	C	1.463226	0.640005	-0.436139
C171	C	1.796559	0.973339	-0.102806
C172	C	1.129898	0.306653	-0.834906
C173	C	1.463231	0.639986	-0.501572
C174	C	1.796565	0.973319	-0.168239
C175	C	1.063598	0.301704	-0.867607
C176	C	1.396931	0.635037	-0.534274
C177	C	1.730264	0.968371	-0.200941
C178	C	0.997290	0.296762	-0.834868
C179	C	1.330623	0.630095	-0.501534
C180	C	1.663957	0.963428	-0.168201
C181	C	0.997286	0.296777	-0.769434
C182	C	1.330619	0.630110	-0.436100
C183	C	1.663953	0.963443	-0.102767
C184	C	1.063595	0.301735	-0.736739
C185	C	1.396928	0.635068	-0.403405
C186	C	1.730262	0.968402	-0.070072
C187	C	1.016563	0.261609	-0.971270
C188	C	1.349897	0.594942	-0.637937
C189	C	1.683230	0.928275	-0.304604
C190	C	1.016559	0.261602	-1.036707
C191	C	1.349893	0.594935	-0.703374
C192	C	1.683226	0.928268	-0.370040
C193	C	1.110636	0.341749	-1.036710
C194	C	1.443969	0.675082	-0.703376
C195	C	1.777302	1.008416	-0.370043
C196	C	1.110633	0.341760	-0.971274
C197	C	1.443966	0.675093	-0.637941
C198	C	1.777299	1.008426	-0.304607
C199	C	1.063598	0.301686	-0.938559
C200	C	1.396931	0.635019	-0.605225
C201	C	1.730264	0.968353	-0.271892
C202	C	1.063480	0.301825	-0.139066
C203	C	1.396813	0.635158	0.194268
C204	C	1.730146	0.968492	0.527601
C205	C	1.063598	0.301665	-0.069425
C206	C	1.396931	0.634998	0.263908
C207	C	1.730264	0.968332	0.597242
H208	H	0.633586	0.374629	-0.374420
H209	H	0.966919	0.707962	-0.041086
H210	H	1.300252	1.041295	0.292247
H211	H	0.494144	0.229049	-0.229305
H212	H	0.827478	0.562383	0.104028
H213	H	1.160811	0.895716	0.437362
Cl214	Cl	0.913897	0.875464	-0.312919
Cl215	Cl	1.247230	1.208797	0.020414
Cl216	Cl	1.580563	1.542131	0.353747
Cl217	Cl	0.957201	0.673559	-0.392215
Cl218	Cl	1.290535	1.006893	-0.058881
Cl219	Cl	1.623868	1.340226	0.274452
Cl220	Cl	1.169708	0.525833	-0.211462
Cl221	Cl	1.503041	0.859166	0.121872
Cl222	Cl	1.836374	1.192499	0.455205
Cl223	Cl	0.957379	1.077196	-0.392289
Cl224	Cl	1.290712	1.410529	-0.058956
Cl225	Cl	1.624046	1.743862	0.274377
H226	H	0.633586	0.229036	-0.229291
H227	H	0.966919	0.562369	0.104043
H228	H	1.300253	0.895702	0.437376
H229	H	0.978247	0.229067	-0.540996
H230	H	1.311581	0.562400	-0.207662
H231	H	1.644914	0.895734	0.125671
H232	H	0.978264	0.228979	-0.944632
H233	H	1.311597	0.562312	-0.611299
H234	H	1.644931	0.895646	-0.277965
Cl235	Cl	1.169765	0.673524	-0.211485
Cl236	Cl	1.503098	1.006857	0.121849
Cl237	Cl	1.836432	1.340190	0.455182
H238	H	1.183817	0.742069	-0.292986
H239	H	1.517150	1.075402	0.040347
H240	H	1.850483	1.408736	0.373681
Cl241	Cl	1.169747	0.392202	-0.674203
Cl242	Cl	1.503081	0.725536	-0.340870
Cl243	Cl	1.836414	1.058869	-0.007537
Cl244	Cl	1.213245	0.875248	-0.290843
Cl245	Cl	1.546579	1.208582	0.042491
Cl246	Cl	1.879912	1.541915	0.375824
H247	H	1.149034	0.943964	-0.229262
H248	H	1.482367	1.277297	0.104072
H249	H	1.815701	1.610630	0.437405
Cl250	Cl	1.169956	1.077158	-0.211565
Cl251	Cl	1.503289	1.410492	0.121768
Cl252	Cl	1.836623	1.743825	0.455101
Cl253	Cl	0.957312	0.929506	-0.392260
Cl254	Cl	1.290646	1.262839	-0.058926
Cl255	Cl	1.623979	1.596172	0.274407
Cl256	Cl	0.477138	0.392401	-0.392149
Cl257	Cl	0.810471	0.725734	-0.058816
Cl258	Cl	1.143805	1.059067	0.274518
Cl259	Cl	0.957138	0.525866	-0.392195
Cl260	Cl	1.290471	0.859199	-0.058862
Cl261	Cl	1.623805	1.192532	0.274471
Cl262	Cl	0.913830	0.727776	-0.312891
Cl263	Cl	1.247163	1.061109	0.020443
Cl264	Cl	1.580497	1.394443	0.353776
H265	H	0.978253	0.229042	-0.659702
H266	H	1.311586	0.562376	-0.326369
H267	H	1.644919	0.895709	0.006964
Cl268	Cl	0.913932	0.290568	-0.728278
Cl269	Cl	1.247265	0.623901	-0.394944
Cl270	Cl	1.580599	0.957235	-0.061611
Cl271	Cl	0.913935	0.290537	-0.875971
Cl272	Cl	1.247269	0.623870	-0.542638
Cl273	Cl	1.580602	0.957203	-0.209304
H274	H	0.978258	0.228965	-1.063339
H275	H	1.311592	0.562298	-0.730006
H276	H	1.644925	0.895632	-0.396672
H277	H	1.148937	0.374368	-1.063351
H278	H	1.482270	0.707701	-0.730018
H279	H	1.815603	1.041034	-0.396685
H280	H	1.148930	0.374396	-0.944641
H281	H	1.482263	0.707730	-0.611307
H282	H	1.815596	1.041063	-0.277974
H283	H	1.183890	0.310674	-0.861557
H284	H	1.517223	0.644007	-0.528224
H285	H	1.850556	0.977341	-0.194890
H286	H	1.183887	0.310696	-0.742852
H287	H	1.517220	0.644030	-0.409519
H288	H	1.850553	0.977363	-0.076186
Cl289	Cl	1.169740	0.392240	-0.526509
Cl290	Cl	1.503073	0.725573	-0.193176
Cl291	Cl	1.836406	1.058907	0.140157
