data_functionalizedCrystal
_audit_creation_method	'MofGen! by Chris Wilmer'
_symmetry_space_group_name_H-M	'P1'
_symmetry_Int_Tables_number	1
_symmetry_cell_setting	triclinic
loop_
_symmetry_equiv_pos_as_xyz
  x,y,z
_cell_length_a	16.109318
_cell_length_b	17.019294
_cell_length_c	14.586319
_cell_angle_alpha	86.117240
_cell_angle_beta	90.000075
_cell_angle_gamma	83.431560
loop_
_atom_site_label
_atom_site_type_symbol
_atom_site_fract_x
_atom_site_fract_y
_atom_site_fract_z
O1	O	1.103030	0.101460	-0.084173
O2	O	1.353030	0.351460	0.165827
O3	O	1.603030	0.601460	0.415827
O4	O	1.853030	0.851460	0.665827
O5	O	0.860959	0.114064	-0.085186
O6	O	1.110959	0.364064	0.164814
O7	O	1.360959	0.614064	0.414814
O8	O	1.610959	0.864064	0.664814
O9	O	0.988748	-0.007072	-0.075609
O10	O	1.238748	0.242928	0.174391
O11	O	1.488748	0.492928	0.424391
O12	O	1.738748	0.742928	0.674391
O13	O	0.975242	0.222596	-0.093750
O14	O	1.225242	0.472596	0.156250
O15	O	1.475242	0.722596	0.406250
O16	O	1.725242	0.972596	0.656250
O17	O	0.988739	-0.007074	0.076872
O18	O	1.238739	0.242926	0.326872
O19	O	1.488739	0.492926	0.576872
O20	O	1.738739	0.742926	0.826872
O21	O	0.860950	0.114062	0.067295
O22	O	1.110950	0.364062	0.317295
O23	O	1.360950	0.614062	0.567295
O24	O	1.610950	0.864062	0.817295
O25	O	1.103022	0.101458	0.068308
O26	O	1.353022	0.351458	0.318308
O27	O	1.603022	0.601458	0.568308
O28	O	1.853022	0.851458	0.818308
Cu29	Cu	0.981985	0.107760	0.081724
Cu30	Cu	1.231985	0.357760	0.331724
Cu31	Cu	1.481985	0.607760	0.581724
Cu32	Cu	1.731985	0.857760	0.831724
Cu33	Cu	0.981996	0.107762	-0.098602
Cu34	Cu	1.231996	0.357762	0.151398
Cu35	Cu	1.481996	0.607762	0.401398
Cu36	Cu	1.731996	0.857762	0.651398
O37	O	0.975233	0.222594	0.058731
O38	O	1.225233	0.472594	0.308731
O39	O	1.475233	0.722594	0.558731
O40	O	1.725233	0.972594	0.808731
C41	C	0.829980	0.113550	-0.008907
C42	C	1.079980	0.363550	0.241093
C43	C	1.329980	0.613550	0.491093
C44	C	1.579980	0.863550	0.741093
C45	C	0.737687	0.112012	-0.008793
C46	C	0.987687	0.362012	0.241207
C47	C	1.237687	0.612012	0.491207
C48	C	1.487687	0.862012	0.741207
C49	C	0.438623	0.107046	-0.091502
C50	C	0.688623	0.357046	0.158498
C51	C	0.938623	0.607046	0.408498
C52	C	1.188623	0.857046	0.658498
C53	C	0.525343	0.108486	-0.091621
C54	C	0.775343	0.358486	0.158379
C55	C	1.025343	0.608486	0.408379
C56	C	1.275343	0.858486	0.658379
C57	C	0.525352	0.108473	0.074623
C58	C	0.775352	0.358473	0.324623
C59	C	1.025352	0.608473	0.574623
C60	C	1.275352	0.858473	0.824623
C61	C	0.438634	0.107028	0.074742
C62	C	0.688634	0.357028	0.324742
C63	C	0.938634	0.607028	0.574742
C64	C	1.188634	0.857028	0.824742
C65	C	0.395272	0.106318	-0.008324
C66	C	0.645272	0.356318	0.241676
C67	C	0.895272	0.606318	0.491676
C68	C	1.145272	0.856318	0.741676
C69	C	0.568709	0.109204	-0.008562
C70	C	0.818709	0.359204	0.241438
C71	C	1.068709	0.609204	0.491438
C72	C	1.318709	0.859204	0.741438
C73	C	0.662735	0.110765	-0.008691
C74	C	0.912735	0.360765	0.241309
C75	C	1.162735	0.610765	0.491309
C76	C	1.412735	0.860765	0.741309
C77	C	0.301240	0.104756	-0.008195
C78	C	0.551240	0.354756	0.241805
C79	C	0.801240	0.604756	0.491805
C80	C	1.051240	0.854756	0.741805
C81	C	0.988231	-0.036462	0.002951
C82	C	1.238231	0.213538	0.252951
C83	C	1.488231	0.463538	0.502951
C84	C	1.738231	0.713538	0.752951
C85	C	0.986695	-0.124032	0.009862
C86	C	1.236695	0.125968	0.259862
C87	C	1.486695	0.375968	0.509862
C88	C	1.736695	0.625968	0.759862
C89	C	0.985980	-0.165167	-0.070008
C90	C	1.235980	0.084833	0.179992
C91	C	1.485980	0.334833	0.429992
C92	C	1.735980	0.584833	0.679992
C93	C	0.984531	-0.247448	-0.063512
C94	C	1.234531	0.002552	0.186488
C95	C	1.484531	0.252552	0.436488
C96	C	1.734531	0.502552	0.686488
C97	C	0.983803	-0.288593	0.022856
C98	C	1.233803	-0.038593	0.272856
C99	C	1.483803	0.211407	0.522856
C100	C	1.733803	0.461407	0.772856
C101	C	0.984516	-0.247452	0.102731
C102	C	1.234516	0.002548	0.352731
C103	C	1.484516	0.252548	0.602731
C104	C	1.734516	0.502548	0.852731
C105	C	0.985959	-0.165172	0.096234
C106	C	1.235959	0.084828	0.346234
C107	C	1.485959	0.334828	0.596234
C108	C	1.735959	0.584828	0.846234
C109	C	0.979441	-0.537025	0.046631
C110	C	1.229441	-0.287025	0.296631
C111	C	1.479441	-0.037025	0.546631
C112	C	1.729441	0.212975	0.796631
C113	C	0.978001	-0.619311	0.053122
C114	C	1.228001	-0.369311	0.303122
C115	C	1.478001	-0.119311	0.553122
C116	C	1.728001	0.130689	0.803122
C117	C	0.978014	-0.619301	-0.113122
C118	C	1.228014	-0.369301	0.136878
C119	C	1.478014	-0.119301	0.386878
C120	C	1.728014	0.130699	0.636878
C121	C	0.979462	-0.537020	-0.119611
C122	C	1.229462	-0.287020	0.130389
C123	C	1.479462	-0.037020	0.380389
C124	C	1.729462	0.212980	0.630389
C125	C	0.980170	-0.495886	-0.039735
C126	C	1.230170	-0.245886	0.210265
C127	C	1.480170	0.004114	0.460265
C128	C	1.730170	0.254114	0.710265
C129	C	0.982325	-0.372697	0.029498
C130	C	1.232325	-0.122697	0.279498
C131	C	1.482325	0.127303	0.529498
C132	C	1.732325	0.377303	0.779498
C133	C	0.981643	-0.411782	-0.046379
C134	C	1.231643	-0.161782	0.203621
C135	C	1.481643	0.088218	0.453621
C136	C	1.731643	0.338218	0.703621
C137	C	1.134000	0.101972	-0.007972
C138	C	1.384000	0.351972	0.242028
C139	C	1.634000	0.601972	0.492028
C140	C	1.884000	0.851972	0.742028
C141	C	1.226293	0.103510	-0.008093
C142	C	1.476293	0.353510	0.241907
C143	C	1.726293	0.603510	0.491907
C144	C	1.976293	0.853510	0.741907
C145	C	0.975749	0.251984	-0.019831
C146	C	1.225749	0.501984	0.230169
C147	C	1.475749	0.751984	0.480169
C148	C	1.725749	1.001984	0.730169
C149	C	0.977286	0.339554	-0.026748
C150	C	1.227286	0.589554	0.223252
C151	C	1.477286	0.839554	0.473252
C152	C	1.727286	1.089554	0.723252
N153	N	0.981984	0.107758	0.208556
N154	N	1.231984	0.357758	0.458556
N155	N	1.481984	0.607758	0.708556
N156	N	1.731984	0.857758	0.958556
N157	N	0.982003	0.107758	-0.225433
N158	N	1.232003	0.357758	0.024567
N159	N	1.482003	0.607758	0.274567
N160	N	1.732003	0.857758	0.524567
C161	C	1.038587	0.054137	0.447802
C162	C	1.288587	0.304137	0.697802
C163	C	1.538587	0.554137	0.947802
C164	C	1.788587	0.804137	1.197802
C165	C	1.038590	0.054135	0.543784
C166	C	1.288590	0.304135	0.793784
C167	C	1.538590	0.554135	1.043784
C168	C	1.788590	0.804135	1.293784
C169	C	0.925394	0.161381	0.535314
C170	C	1.175394	0.411381	0.785314
C171	C	1.425394	0.661381	1.035314
C172	C	1.675394	0.911381	1.285314
C173	C	0.925388	0.161379	0.439334
C174	C	1.175388	0.411379	0.689334
C175	C	1.425388	0.661379	0.939334
C176	C	1.675388	0.911379	1.189334
C177	C	0.981990	0.107758	0.395581
C178	C	1.231990	0.357758	0.645581
C179	C	1.481990	0.607758	0.895581
C180	C	1.731990	0.857758	1.145581
C181	C	0.981998	0.107758	0.587542
C182	C	1.231998	0.357758	0.837542
C183	C	1.481998	0.607758	1.087542
C184	C	1.731998	0.857758	1.337542
C185	C	0.982000	0.107757	0.691609
C186	C	1.232000	0.357757	0.941609
C187	C	1.482000	0.607757	1.191609
C188	C	1.732000	0.857757	1.441609
C189	C	0.981987	0.107758	0.291507
C190	C	1.231987	0.357758	0.541507
C191	C	1.481987	0.607758	0.791507
C192	C	1.731987	0.857758	1.041507
H193	H	0.403320	0.106468	-0.159139
H194	H	0.653320	0.356468	0.090861
H195	H	0.903320	0.606468	0.340861
H196	H	1.153320	0.856468	0.590861
F197	F	0.571477	0.109258	-0.180151
F198	F	0.821477	0.359258	0.069849
F199	F	1.071477	0.609258	0.319849
F200	F	1.321477	0.859258	0.569849
F201	F	0.865143	0.218449	0.383753
F202	F	1.115143	0.468449	0.633753
F203	F	1.365143	0.718449	0.883753
F204	F	1.615143	0.968449	1.133753
H205	H	0.560668	0.109053	0.142251
H206	H	0.810668	0.359053	0.392251
H207	H	1.060668	0.609053	0.642251
H208	H	1.310668	0.859053	0.892251
H209	H	0.403337	0.106434	0.142479
H210	H	0.653337	0.356434	0.392479
H211	H	0.903337	0.606434	0.642479
H212	H	1.153337	0.856434	0.892479
F213	F	0.982419	-0.367992	-0.138294
F214	F	1.232419	-0.117992	0.111706
F215	F	1.482419	0.132008	0.361706
F216	F	1.732419	0.382008	0.611706
H217	H	0.986577	-0.131674	-0.140338
H218	H	1.236577	0.118326	0.109662
H219	H	1.486577	0.368326	0.359662
H220	H	1.736577	0.618326	0.609662
H221	H	1.084674	0.010474	0.412181
H222	H	1.334674	0.260474	0.662181
H223	H	1.584674	0.510474	0.912181
H224	H	1.834674	0.760474	1.162181
H225	H	0.983952	-0.280937	-0.128551
H226	H	1.233952	-0.030937	0.121449
H227	H	1.483952	0.219063	0.371449
H228	H	1.733952	0.469063	0.621449
H229	H	0.986529	-0.131679	0.161273
H230	H	1.236529	0.118321	0.411273
H231	H	1.486529	0.368321	0.661273
H232	H	1.736529	0.618321	0.911273
H233	H	0.980056	-0.503526	-0.189941
H234	H	1.230056	-0.253526	0.060059
H235	H	1.480056	-0.003526	0.310059
H236	H	1.730056	0.246474	0.560059
F237	F	0.977260	-0.663085	-0.198125
F238	F	1.227260	-0.413085	0.051875
F239	F	1.477260	-0.163085	0.301875
F240	F	1.727260	0.086915	0.551875
H241	H	0.981735	-0.406207	0.099818
H242	H	1.231735	-0.156207	0.349818
H243	H	1.481735	0.093793	0.599818
H244	H	1.731735	0.343793	0.849818
H245	H	0.879311	0.205040	0.570947
H246	H	1.129311	0.455040	0.820947
H247	H	1.379311	0.705040	1.070947
H248	H	1.629311	0.955040	1.320947
H249	H	0.977404	-0.652808	0.123456
H250	H	1.227404	-0.402808	0.373456
H251	H	1.477404	-0.152808	0.623456
H252	H	1.727404	0.097192	0.873456
H253	H	0.980034	-0.503545	0.111672
H254	H	1.230034	-0.253545	0.361672
H255	H	1.480034	-0.003545	0.611672
H256	H	1.730034	0.246455	0.861672
F257	F	0.983732	-0.291242	0.194650
F258	F	1.233732	-0.041242	0.444650
F259	F	1.483732	0.208758	0.694650
F260	F	1.733732	0.458758	0.944650
H261	H	1.084676	0.010471	0.586300
H262	H	1.334676	0.260471	0.836300
H263	H	1.584676	0.510471	1.086300
H264	H	1.834676	0.760471	1.336300
