data_functionalizedCrystal
_audit_creation_method	'MofGen! by Chris Wilmer'
_symmetry_space_group_name_H-M	'P1'
_symmetry_Int_Tables_number	1
_symmetry_cell_setting	triclinic
loop_
_symmetry_equiv_pos_as_xyz
  x,y,z
_cell_length_a	17.038272
_cell_length_b	10.540539
_cell_length_c	9.616153
_cell_angle_alpha	89.994587
_cell_angle_beta	89.991258
_cell_angle_gamma	92.181476
loop_
_atom_site_label
_atom_site_type_symbol
_atom_site_fract_x
_atom_site_fract_y
_atom_site_fract_z
O1	O	1.038943	-0.275818	0.115461
O2	O	0.811287	-0.271439	0.115502
O3	O	0.930309	-0.089406	0.115479
O4	O	0.919921	-0.457850	0.115484
O5	O	0.930316	-0.089388	-0.115813
O6	O	0.811294	-0.271420	-0.115790
O7	O	1.038950	-0.275800	-0.115831
Zn8	Zn	0.925123	-0.273607	-0.152533
Zn9	Zn	0.925114	-0.273631	0.152204
O10	O	0.919928	-0.457832	-0.115807
C11	C	0.782139	-0.267446	-0.000139
C12	C	0.695278	-0.255562	-0.000123
C13	C	0.929533	-0.042021	-0.000164
C14	C	0.927202	0.099144	-0.000157
N15	N	0.925108	-0.273639	0.360178
C16	C	0.645791	-0.364672	-0.000122
C17	C	0.564176	-0.353498	-0.000142
C18	C	0.532050	-0.233213	-0.000151
C19	C	0.581544	-0.124094	-0.000156
C20	C	0.663157	-0.135270	-0.000147
C21	C	0.286065	-0.193733	-0.000189
C22	C	0.204446	-0.182566	-0.000194
C23	C	0.187084	-0.411971	-0.000182
C24	C	0.268699	-0.423136	-0.000165
C25	C	0.318186	-0.314017	-0.000177
C26	C	0.448627	-0.221788	-0.000167
C27	C	0.401607	-0.325443	-0.000171
C28	C	1.068097	-0.279792	-0.000187
C29	C	1.154959	-0.291676	-0.000194
C30	C	0.920703	-0.505217	-0.000161
C31	C	0.923034	-0.646382	-0.000160
C32	C	0.837895	0.290901	0.000379
C33	C	0.840258	0.144063	-0.000142
C34	C	0.969048	0.156909	-0.132243
C35	C	0.966081	0.303731	-0.132354
C36	C	0.967841	0.304063	0.130668
C37	C	0.968642	0.157006	0.132414
N38	N	0.925135	-0.273590	-0.360507
C39	C	0.861518	-0.371119	0.580561
C40	C	0.861272	-0.370853	0.419393
C41	C	0.906752	-0.139100	0.418654
C42	C	0.906310	-0.139635	0.579873
C43	C	1.007289	-0.309440	0.580051
C44	C	1.006743	-0.312420	0.418824
H45	H	0.671941	-0.462621	-0.000113
N46	N	0.510799	-0.471181	-0.000298
H47	H	0.543535	-0.549076	-0.000333
H48	H	0.476504	-0.471636	0.085387
H49	H	0.803547	0.322697	0.095101
N50	N	1.030494	-0.437244	0.633937
H51	H	0.987982	-0.473200	0.697437
H52	H	1.037652	-0.496856	0.553088
N53	N	0.133708	-0.529654	-0.000218
H54	H	0.166444	-0.607549	-0.000221
H55	H	0.099449	-0.530040	0.085511
H56	H	0.703449	-0.046420	-0.000146
N57	N	0.436255	-0.455174	-0.000142
H58	H	0.392524	-0.522608	-0.000136
H59	H	0.469751	-0.464807	-0.085878
H60	H	0.294849	-0.521084	-0.000141
N61	N	0.928151	0.106535	0.261856
H62	H	0.955065	0.144080	0.346776
H63	H	0.871360	0.130697	0.260901
N64	N	0.781229	-0.339907	0.634232
H65	H	0.785886	-0.262867	0.696555
H66	H	0.745683	-0.321615	0.553209
H67	H	1.030641	0.345431	0.131545
N68	N	0.875848	-0.502931	0.367013
H69	H	0.925085	-0.501086	0.308432
H70	H	0.882456	-0.561774	0.448725
H71	H	0.847500	-0.108416	0.378281
H72	H	0.422461	-0.123851	-0.000214
H73	H	1.020652	-0.411447	0.380630
N74	N	0.780530	-0.339247	0.368316
H75	H	0.740668	-0.404932	0.403635
H76	H	0.766865	-0.252657	0.403820
N77	N	0.796643	0.091674	0.125272
H78	H	0.775706	0.163981	0.181393
H79	H	0.751502	0.033855	0.093625
N80	N	0.792584	0.335138	-0.124368
H81	H	0.826967	0.395628	-0.181229
H82	H	0.775959	0.259455	-0.183237
H83	H	1.032031	0.126871	0.140378
N84	N	0.796355	0.092854	-0.125766
H85	H	0.833080	0.043654	-0.185952
H86	H	0.751179	0.034964	-0.094384
N87	N	1.070011	-0.215379	0.630520
H88	H	1.045375	-0.149857	0.691589
H89	H	1.110566	-0.261484	0.685622
N90	N	0.169793	-0.052824	-0.000197
H91	H	0.213526	0.014608	-0.000204
H92	H	0.136315	-0.043191	-0.085938
N93	N	0.925126	0.344929	-0.263122
H94	H	0.909164	0.267732	-0.320151
H95	H	0.876872	0.392514	-0.237408
N96	N	0.875874	-0.503597	0.631946
H97	H	0.923754	-0.501684	0.693929
H98	H	0.828654	-0.536592	0.686304
H99	H	1.028610	0.345867	-0.138357
H100	H	0.950856	-0.064409	0.618853
H101	H	1.056338	-0.246707	0.378512
H102	H	1.032898	0.128600	-0.137165
H103	H	0.326348	-0.104880	-0.000200
H104	H	0.939986	0.117029	-0.230526
N105	N	0.546899	0.005644	-0.000189
H106	H	0.487687	-0.003830	-0.000194
H107	H	0.564945	0.053782	0.085548
H108	H	0.939698	0.338233	0.230780
H109	H	0.846379	-0.109442	0.617489
H110	H	0.951828	-0.064413	0.380294
