data_functionalizedCrystal
_audit_creation_method	'MofGen! by Chris Wilmer'
_symmetry_space_group_name_H-M	'P1'
_symmetry_Int_Tables_number	1
_symmetry_cell_setting	triclinic
loop_
_symmetry_equiv_pos_as_xyz
  x,y,z
_cell_length_a	12.837943
_cell_length_b	11.792241
_cell_length_c	11.892095
_cell_angle_alpha	93.915739
_cell_angle_beta	85.689438
_cell_angle_gamma	89.511178
loop_
_atom_site_label
_atom_site_type_symbol
_atom_site_fract_x
_atom_site_fract_y
_atom_site_fract_z
O1	O	1.383703	0.288690	-0.093984
O2	O	1.081816	0.274106	-0.093991
O3	O	1.240085	0.116971	-0.093980
O4	O	1.225434	0.445825	-0.093996
O5	O	1.226889	0.130050	0.094027
O6	O	1.068620	0.287185	0.094016
O7	O	1.370507	0.301770	0.094022
Zn8	Zn	1.217468	0.296554	0.123869
Zn9	Zn	1.234855	0.279322	-0.123838
O10	O	1.212238	0.458904	0.094011
C11	C	1.036570	0.275719	0.000012
C12	C	0.921410	0.261025	0.000009
C13	C	0.681444	0.437671	0.000017
C14	C	0.573241	0.423870	0.000015
C15	C	0.596797	0.219624	0.000013
C16	C	0.705001	0.233425	0.000015
C17	C	0.747320	0.342452	0.000015
C18	C	0.855526	0.356251	0.000008
C19	C	0.879080	0.152006	0.000014
C20	C	0.770877	0.138205	0.000013
C21	C	1.232566	0.081126	0.000023
C22	C	1.229812	-0.045167	0.000022
C23	C	1.224748	-0.276394	0.000003
C24	C	1.227561	-0.147723	0.000014
C25	C	1.415753	0.300157	0.000017
C26	C	1.530913	0.314850	0.000012
C27	C	1.219756	0.494749	0.000005
C28	C	1.222512	0.621042	-0.000001
N29	N	1.205610	0.308315	0.292922
N30	N	1.246721	0.267553	-0.292891
C31	C	1.329237	0.185651	0.529579
C32	C	1.320956	0.193880	0.647920
C33	C	1.180761	0.332997	0.647948
C34	C	1.189043	0.324768	0.529607
C35	C	1.263284	0.251093	0.470427
C36	C	1.271570	0.242870	0.352083
C37	C	1.131371	0.381980	0.352113
C38	C	1.123090	0.390210	0.470454
H39	H	0.519607	0.501409	0.000020
N40	N	0.727099	0.555255	-0.000001
H41	H	0.668947	0.613483	-0.000007
H42	H	0.766590	0.570281	0.069694
H43	H	1.332023	0.182884	0.303899
N44	N	1.060220	0.452557	0.288310
H45	H	1.011934	0.500473	0.343762
H46	H	1.103644	0.503669	0.239199
N47	N	0.901167	0.473842	0.000002
H48	H	0.872296	0.520928	0.069698
H49	H	0.979705	0.468045	-0.000045
N50	N	0.551142	0.102041	0.000046
H51	H	0.472598	0.107753	0.000056
H52	H	0.580076	0.054996	-0.069645
H53	H	1.374660	0.140589	0.696079
H54	H	1.120309	0.392973	0.696148
N55	N	1.043014	0.469664	0.534287
H56	H	1.047772	0.464947	0.618232
H57	H	1.056899	0.550094	0.513600
H58	H	0.736404	0.049439	0.000026
N59	N	0.950125	0.049291	0.000024
H60	H	0.941330	-0.002601	-0.069670
H61	H	1.025063	0.074661	0.000067
H62	H	1.389694	0.125670	0.481393
