data_functionalizedCrystal
_audit_creation_method	'MofGen! by Chris Wilmer'
_symmetry_space_group_name_H-M	'P1'
_symmetry_Int_Tables_number	1
_symmetry_cell_setting	triclinic
loop_
_symmetry_equiv_pos_as_xyz
  x,y,z
_cell_length_a	20.919309
_cell_length_b	12.970454
_cell_length_c	12.970454
_cell_angle_alpha	59.999426
_cell_angle_beta	57.441317
_cell_angle_gamma	89.998731
loop_
_atom_site_label
_atom_site_type_symbol
_atom_site_fract_x
_atom_site_fract_y
_atom_site_fract_z
Zr1	Zr	0.641764	-0.095045	1.047965
O2	O	0.535393	-0.266344	1.276409
O3	O	0.674373	-0.042532	0.828781
O4	O	0.674373	-0.257624	1.043873
O5	O	0.535393	0.118415	1.061316
O6	O	0.784003	-0.250747	1.030112
O7	O	0.535393	-0.051252	1.061317
O8	O	0.784002	0.134013	0.645352
O9	O	0.535393	-0.266345	1.446076
O10	O	0.770095	-0.015005	0.905235
O11	O	0.688280	0.106484	0.915504
O12	O	0.688280	-0.146759	1.168747
O13	O	0.606465	-0.025271	1.179017
Zr14	Zr	0.816611	0.186523	1.026016
Zr15	Zr	0.816611	-0.084077	1.026018
Zr16	Zr	0.641764	0.175555	1.047964
Zr17	Zr	0.641765	-0.095047	1.318565
Zr18	Zr	0.816611	0.186525	0.755416
O19	O	0.784002	0.134010	1.245201
O20	O	0.784003	-0.250748	1.245203
O21	O	0.535393	0.118414	1.276407
O22	O	0.922982	0.357822	0.797573
O23	O	0.922982	-0.026936	0.797575
O24	O	0.674372	0.342226	0.828779
O25	O	0.922982	-0.026937	1.012665
O26	O	0.784002	0.349102	1.030109
O27	O	0.674373	0.342225	1.043870
O28	O	0.922982	0.142730	1.012665
O29	O	0.674373	-0.257626	1.428631
O30	O	0.784002	0.349104	0.645350
O31	O	0.922982	0.357823	0.627905
O32	O	0.922982	0.142732	0.627906
O33	O	0.535393	-0.051254	1.446075
O34	O	0.674373	-0.042535	1.428630
O35	O	0.770095	0.238237	0.905234
O36	O	0.851911	0.116749	0.894965
O37	O	0.770095	-0.015006	1.158477
O38	O	0.688280	0.106482	1.168746
C39	C	0.510481	0.032019	1.064444
C40	C	0.436254	0.027362	1.073761
C41	C	0.729188	0.045741	0.698512
C42	C	0.729188	0.045741	0.583635
C43	C	0.729187	0.384218	1.036989
C44	C	0.729187	0.499095	1.036988
C45	C	0.444087	0.093943	0.940591
C46	C	0.374340	0.089564	0.949355
C47	C	0.296761	0.018598	1.091289
C48	C	0.288930	-0.047985	1.224469
C49	C	0.358676	-0.043598	1.215704
C50	C	0.084036	0.001920	1.124636
C51	C	0.014289	-0.002465	1.133390
C52	C	0.099703	0.135087	0.858275
C53	C	0.169447	0.139461	0.849522
C54	C	0.161610	0.072884	0.982702
C55	C	0.225467	0.014117	1.100250
C56	C	0.232903	0.077372	0.973739
C57	C	0.947894	0.059459	1.009538
C58	C	1.022121	0.064116	1.000221
C59	C	0.729188	-0.292740	1.036993
C60	C	0.729188	-0.407617	1.036993
C61	C	0.729188	0.045737	1.375470
C62	C	0.729188	0.045737	1.490347
C63	C	0.947894	0.059461	0.671059
C64	C	1.022121	0.064118	0.546865
C65	C	0.729187	0.384220	0.698510
C66	C	0.729187	0.499097	0.583632
C67	C	0.947894	0.397940	0.671057
C68	C	1.022121	0.517474	0.546862
C69	C	0.510482	-0.306462	1.402925
C70	C	0.436255	-0.425996	1.527119
C71	C	0.510481	0.032017	1.402923
C72	C	0.436254	0.027360	1.527117
C73	C	0.729188	-0.292742	1.375472
C74	C	0.729188	-0.407619	1.490349
C75	C	1.014272	-0.002480	0.493903
C76	C	1.084010	0.001870	0.377225
C77	C	1.161595	0.072826	0.313504
C78	C	1.169442	0.139427	0.366477
C79	C	1.099706	0.135068	0.483160
C80	C	1.099692	0.510193	0.483178
C81	C	1.169443	0.622498	0.366498
C82	C	1.161620	0.742083	0.313498
C83	C	1.084040	0.749360	0.377194
C84	C	1.014291	0.637057	0.493879
C85	C	0.358683	-0.418715	1.590817
C86	C	0.288932	-0.531020	1.707530
C87	C	0.296755	-0.650605	1.760536
C88	C	0.374335	-0.657882	1.696833
C89	C	0.444084	-0.545579	1.580129
C90	C	0.444103	0.093947	1.580090
C91	C	0.374366	0.089567	1.696797
C92	C	0.296780	0.018607	1.760522
C93	C	0.288933	-0.047989	1.707545
C94	C	0.358669	-0.043615	1.590847
H95	H	0.507251	0.151737	0.825012
C96	C	0.529412	-0.553604	1.510058
C97	C	0.589097	-0.493864	1.339325
C98	C	0.674422	-0.501902	1.269263
C99	C	0.700063	-0.569680	1.369932
C100	C	0.640376	-0.629425	1.540675
C101	C	0.555051	-0.621387	1.610738
H102	H	0.570117	-0.443686	1.264794
H103	H	0.718605	-0.457674	1.142867
H104	H	0.763226	-0.575630	1.318068
H105	H	0.659356	-0.679602	1.615206
H106	H	0.510867	-0.665614	1.737134
C107	C	0.928963	0.645078	0.563907
C108	C	0.920368	0.776624	0.505586
C109	C	0.835041	0.784657	0.575606
C110	C	0.758309	0.661144	0.703949
C111	C	0.766901	0.529588	0.762278
C112	C	0.852228	0.521555	0.692257
H113	H	0.977172	0.868065	0.410572
H114	H	0.828681	0.882043	0.532427
H115	H	0.695145	0.667090	0.755782
H116	H	0.710097	0.438148	0.857291
H117	H	0.858588	0.424169	0.735437
C118	C	0.350028	-0.116853	1.532570
C119	C	0.426724	-0.112054	1.404202
C120	C	0.418075	-0.185297	1.345933
C121	C	0.332729	-0.263338	1.416031
C122	C	0.256027	-0.268139	1.544406
C123	C	0.264676	-0.194897	1.602675
H124	H	0.489908	-0.054281	1.352304
H125	H	0.474856	-0.181742	1.250901
H126	H	0.326327	-0.317556	1.372897
H127	H	0.192843	-0.325913	1.596304
H128	H	0.207895	-0.198452	1.697707
C129	C	0.108321	0.208329	0.711784
C130	C	0.031607	0.203516	0.721410
C131	C	0.040228	0.276767	0.574912
C132	C	0.125561	0.354832	0.418788
C133	C	0.202281	0.359648	0.409156
C134	C	0.193660	0.286397	0.555654
H135	H	-0.031567	0.145726	0.836988
H136	H	-0.016566	0.273202	0.582044
H137	H	0.131943	0.409057	0.310342
H138	H	0.265455	0.417439	0.293578
H139	H	0.250454	0.289963	0.548523
C140	C	0.203602	-0.522994	1.777573
C141	C	0.177972	-0.455191	1.854945
C142	C	0.092645	-0.447160	1.924982
C143	C	0.032947	-0.506932	1.917647
C144	C	0.058575	-0.574740	1.840271
C145	C	0.143902	-0.582770	1.770235
H146	H	0.222165	-0.410940	1.860378
H147	H	0.073673	-0.396965	1.982260
H148	H	-0.030218	-0.500987	1.969492
H149	H	0.014382	-0.618991	1.834839
H150	H	0.162874	-0.632966	1.712957
C151	C	0.203584	-0.126025	1.777640
C152	C	0.143885	-0.236978	1.948387
C153	C	0.058533	-0.315002	2.018476
C154	C	0.032880	-0.282074	1.917818
C155	C	0.092580	-0.171116	1.747062
C156	C	0.177932	-0.093092	1.676972
H157	H	0.162873	-0.261358	2.022908
H158	H	0.014339	-0.397140	2.144882
H159	H	-0.030302	-0.339832	1.969703
H160	H	0.073592	-0.146736	1.672540
H161	H	0.222126	-0.010953	1.550566
C162	C	1.254773	0.614470	0.296439
C163	C	1.314471	0.674239	0.125700
C164	C	1.399798	0.666207	0.055645
C165	C	1.425427	0.598405	0.156330
C166	C	1.365728	0.538632	0.327080
C167	C	1.280401	0.546664	0.397135
H168	H	1.295500	0.724434	0.051158
H169	H	1.443991	0.710455	-0.070756
H170	H	1.488591	0.592459	0.104471
H171	H	1.384700	0.488437	0.401622
H172	H	1.236208	0.502416	0.523535
H173	H	1.218421	0.833517	0.218484
H174	H	0.380771	0.143802	1.739912
H175	H	0.380724	0.143783	0.840914
H176	H	0.239954	-0.742040	1.855564
H177	H	1.077604	-0.052364	0.334110
C178	C	1.254792	0.217490	0.296355
C179	C	1.314491	0.150375	0.303676
C180	C	1.399842	0.228448	0.233537
C181	C	1.425495	0.373637	0.156078
C182	C	1.365795	0.440759	0.148754
C183	C	1.280443	0.362686	0.218893
H184	H	1.295502	0.042891	0.361018
H185	H	1.444036	0.178758	0.238959
H186	H	1.488678	0.431431	0.104158
H187	H	1.384783	0.548244	0.091412
H188	H	1.236249	0.412376	0.213471
H189	H	0.232612	0.197225	0.733944
H190	H	0.951104	-0.060276	0.545783
H191	H	1.106108	0.189309	0.526266
H192	H	0.380695	-0.755261	1.740006
H193	H	-0.048881	-0.060260	1.248977
H194	H	0.077645	-0.052315	1.233080
H195	H	0.507271	0.151739	1.528213
H196	H	0.225759	-0.105760	1.340035
H197	H	0.240003	0.015056	1.855544
H198	H	0.296070	0.135159	0.858177
H199	H	0.162295	-0.043663	1.215814
H200	H	0.352294	-0.097800	1.324145
H201	H	1.218373	0.076366	0.218493
H202	H	1.106078	0.412832	0.526313
H203	H	1.077683	0.846741	0.334023
H204	H	0.352298	-0.321355	1.547667
