data_functionalizedCrystal
_audit_creation_method	'MofGen! by Chris Wilmer'
_symmetry_space_group_name_H-M	'P1'
_symmetry_Int_Tables_number	1
_symmetry_cell_setting	triclinic
loop_
_symmetry_equiv_pos_as_xyz
  x,y,z
_cell_length_a	14.971486
_cell_length_b	9.130313
_cell_length_c	10.654550
_cell_angle_alpha	90.000355
_cell_angle_beta	95.950471
_cell_angle_gamma	89.997824
loop_
_atom_site_label
_atom_site_type_symbol
_atom_site_fract_x
_atom_site_fract_y
_atom_site_fract_z
O1	O	1.187833	0.121617	-0.163655
O2	O	0.927540	0.121655	-0.183253
O3	O	1.063671	0.121641	0.009349
O4	O	1.051702	0.121631	-0.356258
O5	O	1.063663	-0.121958	0.009353
O6	O	0.927532	-0.121944	-0.183250
O7	O	1.187825	-0.121982	-0.163652
Cu8	Cu	1.057678	-0.144206	-0.173450
Cu9	Cu	1.057687	0.143878	-0.173455
O10	O	1.051694	-0.121968	-0.356254
C11	C	0.894206	-0.000139	-0.182375
C12	C	0.794895	-0.000124	-0.179749
C13	C	0.738285	-0.000129	-0.292898
C14	C	0.644972	-0.000151	-0.290422
C15	C	0.608271	-0.000157	-0.174797
C16	C	0.664888	-0.000156	-0.061639
C17	C	0.758199	-0.000145	-0.064116
C18	C	0.470397	-0.000176	-0.056485
C19	C	0.377080	-0.000185	-0.054007
C20	C	0.357171	-0.000183	-0.282791
C21	C	0.450482	-0.000171	-0.285268
C22	C	0.507092	-0.000168	-0.172110
N23	N	1.057678	-0.346828	-0.173447
C24	C	1.117982	-0.576833	-0.088194
C25	C	1.117976	-0.423496	-0.088195
C26	C	0.997388	-0.423505	-0.258710
C27	C	0.997398	-0.576839	-0.258714
C28	C	1.221159	-0.000185	-0.164530
C29	C	1.320470	-0.000190	-0.167156
C30	C	1.052577	-0.000170	-0.403044
C31	C	1.055206	-0.000175	-0.542460
N32	N	1.057694	0.346501	-0.173448
C33	C	0.975054	-0.000160	-0.622805
C34	C	0.977530	-0.000137	-0.753799
C35	C	1.140317	-0.000150	-0.724090
C36	C	1.137840	-0.000163	-0.593098
C37	C	1.062788	-0.000154	0.056139
C38	C	1.060159	-0.000139	0.195555
H39	H	0.768160	-0.000123	-0.387053
H40	H	0.948294	-0.361073	-0.328130
Cl41	Cl	0.618749	-0.000173	0.083720
H42	H	0.804290	-0.000140	0.028022
Cl43	Cl	1.193786	-0.673199	0.018992
Cl44	Cl	1.193772	-0.327120	0.018983
H45	H	0.948304	-0.639265	-0.328144
H46	H	0.907768	-0.000175	-0.581580
Cl47	Cl	0.876763	-0.000110	-0.854800
Cl48	Cl	1.238611	-0.000173	-0.492084
Cl49	Cl	0.573809	-0.000149	-0.432673
Cl50	Cl	0.496620	-0.000148	-0.430628
H51	H	1.207595	-0.000155	-0.765336
H52	H	0.347201	-0.000192	0.040145
H53	H	0.311074	-0.000192	-0.374929
Cl54	Cl	0.541564	-0.000175	0.085774
