data_functionalizedCrystal
_audit_creation_method	'MofGen! by Chris Wilmer'
_symmetry_space_group_name_H-M	'P1'
_symmetry_Int_Tables_number	1
_symmetry_cell_setting	triclinic
loop_
_symmetry_equiv_pos_as_xyz
  x,y,z
_cell_length_a	17.038272
_cell_length_b	16.992695
_cell_length_c	15.455301
_cell_angle_alpha	87.173129
_cell_angle_beta	87.189812
_cell_angle_gamma	90.889890
loop_
_atom_site_label
_atom_site_type_symbol
_atom_site_fract_x
_atom_site_fract_y
_atom_site_fract_z
O1	O	-1.051350	-0.174258	0.072023
O2	O	-0.551350	0.325742	0.572023
O3	O	-0.823550	-0.171544	0.072049
O4	O	-0.323550	0.328456	0.572049
O5	O	-0.936536	-0.058698	0.072029
O6	O	-0.436536	0.441302	0.572029
O7	O	-0.938363	-0.287105	0.072043
O8	O	-0.438363	0.212895	0.572043
O9	O	-0.930006	-0.052132	-0.072233
O10	O	-0.430006	0.447868	0.427767
O11	O	-0.817019	-0.164979	-0.072213
O12	O	-0.317019	0.335021	0.427787
O13	O	-1.044819	-0.167693	-0.072239
O14	O	-0.544819	0.332307	0.427761
Cu15	Cu	-0.930323	-0.165736	-0.085398
Cu16	Cu	-0.430323	0.334264	0.414602
Cu17	Cu	-0.938046	-0.173501	0.085208
Cu18	Cu	-0.438046	0.326499	0.585208
O19	O	-0.931833	-0.280540	-0.072219
O20	O	-0.431833	0.219460	0.427781
C21	C	-0.791002	-0.165793	-0.000079
C22	C	-0.291002	0.334207	0.499921
C23	C	-0.703747	-0.158426	-0.000069
C24	C	-0.203747	0.341574	0.499931
C25	C	-0.930922	-0.026045	-0.000101
C26	C	-0.430922	0.473955	0.499899
C27	C	-0.923911	0.061466	-0.000100
C28	C	-0.423911	0.561466	0.499900
C29	C	-1.077368	-0.173445	-0.000109
C30	C	-0.577368	0.326555	0.499891
C31	C	-1.164623	-0.180812	-0.000113
C32	C	-0.664623	0.319188	0.499887
C33	C	-0.657877	-0.226066	-0.000066
C34	C	-0.157877	0.273934	0.499934
C35	C	-0.575891	-0.219138	-0.000078
C36	C	-0.075891	0.280862	0.499922
C37	C	-0.539777	-0.144570	-0.000088
C38	C	-0.039777	0.355430	0.499912
C39	C	-0.585653	-0.076925	-0.000094
C40	C	-0.085653	0.423075	0.499906
C41	C	-0.667637	-0.083853	-0.000088
C42	C	-0.167637	0.416147	0.499912
C43	C	-0.292483	-0.120095	-0.000113
C44	C	0.207517	0.379905	0.499887
C45	C	-0.210493	-0.113172	-0.000116
C46	C	0.289507	0.386828	0.499884
C47	C	-0.200736	-0.255386	-0.000102
C48	C	0.299264	0.244614	0.499898
C49	C	-0.282722	-0.262308	-0.000091
C50	C	0.217278	0.237692	0.499909
C51	C	-0.328591	-0.194662	-0.000102
C52	C	0.171409	0.305338	0.499898
C53	C	-0.455975	-0.137487	-0.000098
C54	C	0.044025	0.362513	0.499902
C55	C	-0.412391	-0.201745	-0.000098
C56	C	0.087609	0.298255	0.499902
C57	C	-0.937448	-0.313192	-0.000087
C58	C	-0.437448	0.186808	0.499913
C59	C	-0.944458	-0.400704	-0.000082
C60	C	-0.444458	0.099296	0.499918
N61	N	-0.924896	-0.160275	-0.205394
N62	N	-0.424896	0.339725	0.294606
C63	C	-0.991551	0.107195	-0.000109
C64	C	-0.491551	0.607195	0.499891
C65	C	-0.984960	0.189421	-0.000100
C66	C	-0.484960	0.689421	0.499900
C67	C	-0.910728	0.225917	-0.000089
C68	C	-0.410728	0.725917	0.499911
C69	C	-0.843083	0.180182	-0.000078
C70	C	-0.343083	0.680182	0.499922
C71	C	-0.849675	0.097957	-0.000080
C72	C	-0.349675	0.597957	0.499920
C73	C	-0.883406	0.471336	-0.000074
C74	C	-0.383406	0.971336	0.499926
C75	C	-0.876819	0.553567	-0.000073
C76	C	-0.376819	1.053567	0.499927
C77	C	-1.018696	0.562801	-0.000094
C78	C	-0.518696	1.062801	0.499906
C79	C	-1.025281	0.480574	-0.000102
C80	C	-0.525281	0.980574	0.499898
C81	C	-0.957637	0.434846	-0.000086
C82	C	-0.457637	0.934846	0.499914
N83	N	-0.903989	0.309965	-0.000082
N84	N	-0.403989	0.809965	0.499918
N85	N	-0.964377	0.350800	-0.000087
N86	N	-0.464377	0.850800	0.499913
C87	C	-0.973445	-0.209171	-0.250787
C88	C	-0.473445	0.290829	0.249213
C89	C	-0.969351	-0.205036	-0.341595
C90	C	-0.469351	0.294964	0.158405
C91	C	-0.916705	-0.152010	-0.387008
C92	C	-0.416705	0.347990	0.112992
C93	C	-0.868154	-0.103109	-0.341609
C94	C	-0.368154	0.396891	0.158391
C95	C	-0.872252	-0.107240	-0.250803
C96	C	-0.372252	0.392760	0.249197
C97	C	-0.899026	-0.134186	-0.658590
C98	C	-0.399026	0.365814	-0.158590
C99	C	-0.894930	-0.130061	-0.749403
C100	C	-0.394930	0.369939	-0.249403
C101	C	-0.996129	-0.231988	-0.749383
C102	C	-0.496129	0.268012	-0.249383
C103	C	-1.000219	-0.236117	-0.658575
C104	C	-0.500219	0.263883	-0.158575
C105	C	-0.951671	-0.187214	-0.613183
C106	C	-0.451671	0.312786	-0.113183
N107	N	-0.912517	-0.147784	-0.479829
N108	N	-0.412517	0.352216	0.020171
N109	N	-0.955863	-0.191436	-0.520364
N110	N	-0.455863	0.308564	-0.020364
N111	N	-0.943478	-0.178956	0.205204
N112	N	-0.443478	0.321044	0.705204
H113	H	-0.687274	-0.286787	-0.000058
H114	H	-0.187274	0.213213	0.499942
Cl115	Cl	-1.057157	-0.293461	-0.806451
Cl116	Cl	-0.557157	0.206539	-0.306451
Cl117	Cl	-0.837965	-0.072736	-0.601538
Cl118	Cl	-0.337965	0.427264	-0.101538
Cl119	Cl	-1.066374	-0.302814	-0.601490
Cl120	Cl	-0.566374	0.197186	-0.101490
Cl121	Cl	-0.764639	0.040469	-0.000066
Cl122	Cl	-0.264639	0.540469	0.499934
H123	H	-0.852055	-0.086880	-0.786376
H124	H	-0.352055	0.413120	-0.286376
H125	H	-1.073768	0.600041	-0.000105
H126	H	-0.573768	1.100041	0.499895
H127	H	-0.828324	0.434114	-0.000061
H128	H	-0.328324	0.934114	0.499939
Cl129	Cl	-1.030385	-0.266510	-0.398657
Cl130	Cl	-0.530385	0.233490	0.101343
Cl131	Cl	-0.749763	0.226062	-0.000053
Cl132	Cl	-0.249763	0.726062	0.499947
H133	H	-0.825292	-0.059929	-0.378592
H134	H	-0.325292	0.440071	0.121408
Cl135	Cl	-0.165093	-0.019421	-0.000148
Cl136	Cl	0.334907	0.480579	0.499852
H137	H	-0.538547	-0.274218	-0.000075
H138	H	-0.038547	0.225782	0.499925
H139	H	-1.016311	-0.252355	-0.213818
H140	H	-0.516311	0.247645	0.286182
H141	H	-0.832719	-0.067424	-0.213845
H142	H	-0.332719	0.432576	0.286155
H143	H	-0.163381	-0.310459	-0.000096
H144	H	0.336619	0.189541	0.499904
Cl145	Cl	-0.328116	-0.356055	-0.000073
Cl146	Cl	0.171884	0.143945	0.499927
Cl147	Cl	-0.350136	-0.035053	-0.000125
Cl148	Cl	0.149864	0.464947	0.499875
H149	H	-0.704984	-0.028773	-0.000090
H150	H	-0.204984	0.471227	0.499910
Cl151	Cl	-0.457793	-0.295485	-0.000089
Cl152	Cl	0.042207	0.204515	0.499911
Cl153	Cl	-0.540253	0.016819	-0.000111
Cl154	Cl	-0.040253	0.516819	0.499889
H155	H	-1.040039	0.226650	-0.000109
H156	H	-0.540039	0.726650	0.499891
H157	H	-0.426561	-0.076772	-0.000130
H158	H	0.073439	0.423228	0.499870
H159	H	-1.085729	0.450866	-0.000111
H160	H	-0.585729	0.950866	0.499889
Cl161	Cl	-0.783491	0.599447	-0.000065
Cl162	Cl	-0.283491	1.099447	0.499935
Cl163	Cl	-1.084876	0.061324	-0.000132
Cl164	Cl	-0.584876	0.561324	0.499868
