data_functionalizedCrystal
_audit_creation_method	'MofGen! by Chris Wilmer'
_symmetry_space_group_name_H-M	'P1'
_symmetry_Int_Tables_number	1
_symmetry_cell_setting	triclinic
loop_
_symmetry_equiv_pos_as_xyz
  x,y,z
_cell_length_a	8.559649
_cell_length_b	10.723022
_cell_length_c	7.681481
_cell_angle_alpha	84.204373
_cell_angle_beta	94.913240
_cell_angle_gamma	77.122945
loop_
_atom_site_label
_atom_site_type_symbol
_atom_site_fract_x
_atom_site_fract_y
_atom_site_fract_z
O1	O	2.104705	-0.029042	-0.146401
O2	O	1.640205	0.035334	-0.146409
O3	O	1.883171	-0.179530	-0.146398
O4	O	1.861739	0.185821	-0.146412
O5	O	1.913076	-0.206029	0.146461
O6	O	1.670110	0.008834	0.146450
O7	O	2.134609	-0.055542	0.146458
Zn8	Zn	1.907108	-0.027561	0.192952
Zn9	Zn	1.867707	0.007353	-0.192903
O10	O	1.891643	0.159322	0.146447
C11	C	1.595681	0.026963	0.000019
C12	C	1.418460	0.041484	0.000016
C13	C	1.896564	-0.239119	0.000029
C14	C	1.891899	-0.377195	0.000023
C15	C	1.751789	-0.411391	0.000017
C16	C	1.746964	-0.554098	0.000011
C17	C	2.179133	-0.047170	0.000026
C18	C	2.356353	-0.061691	0.000018
C19	C	1.878250	0.218911	0.000016
C20	C	1.882914	0.356988	0.000011
N21	N	1.934009	-0.051391	0.456287
N22	N	1.840818	0.031172	-0.456238
H23	H	1.438760	-0.161133	0.000012
H24	H	1.635409	-0.335017	0.000026
Cl25	Cl	2.080910	-0.181500	0.572396
Cl26	Cl	1.561741	-0.599654	-0.000010
Cl27	Cl	1.291223	0.195031	-0.000007
H28	H	2.002875	-0.613502	-0.000050
Cl29	Cl	2.071594	-0.495103	0.000037
H30	H	1.745689	0.115444	0.468561
