data_functionalizedCrystal
_audit_creation_method	'MofGen! by Chris Wilmer'
_symmetry_space_group_name_H-M	'P1'
_symmetry_Int_Tables_number	1
_symmetry_cell_setting	triclinic
loop_
_symmetry_equiv_pos_as_xyz
  x,y,z
_cell_length_a	10.685980
_cell_length_b	10.686285
_cell_length_c	12.759393
_cell_angle_alpha	85.601879
_cell_angle_beta	85.605663
_cell_angle_gamma	89.665709
loop_
_atom_site_label
_atom_site_type_symbol
_atom_site_fract_x
_atom_site_fract_y
_atom_site_fract_z
Zn1	Zn	1.956318	-0.352361	-0.696631
Zn2	Zn	2.456318	0.147639	-0.196631
Zn3	Zn	1.972320	-0.562179	-0.508600
Zn4	Zn	2.472320	-0.062179	-0.008600
Zn5	Zn	1.746534	-0.368503	-0.506525
Zn6	Zn	2.246534	0.131497	-0.006525
Zn7	Zn	1.762628	-0.578149	-0.669813
Zn8	Zn	2.262628	-0.078149	-0.169813
O9	O	1.859450	-0.465298	-0.595392
O10	O	2.359450	0.034702	-0.095392
O11	O	2.133993	-0.366754	-0.683780
O12	O	2.633993	0.133246	-0.183780
O13	O	1.942330	-0.536559	-0.361296
O14	O	2.442330	-0.036559	0.138704
O15	O	1.760930	-0.190814	-0.542099
O16	O	2.260930	0.309186	-0.042099
O17	O	2.145749	-0.520907	-0.545634
O18	O	2.645749	-0.020907	-0.045634
O19	O	1.915057	-0.178954	-0.681769
O20	O	2.415057	0.321046	-0.181769
O21	O	1.776446	-0.394266	-0.359772
O22	O	2.276446	0.105734	0.140228
O23	O	1.573116	-0.409752	-0.516094
O24	O	2.073116	0.090248	-0.016094
O25	O	1.788359	-0.548126	-0.820398
O26	O	2.288359	-0.048126	-0.320398
O27	O	1.584940	-0.563778	-0.636061
O28	O	2.084940	-0.063778	-0.136061
O29	O	1.930663	-0.382240	-0.840102
O30	O	2.430663	0.117760	-0.340102
O31	O	1.957936	-0.739845	-0.519629
O32	O	2.457936	-0.239845	-0.019629
O33	O	1.803876	-0.751578	-0.638072
O34	O	2.303876	-0.251578	-0.138072
C35	C	1.533510	-0.490251	-0.572943
C36	C	2.033510	0.009749	-0.072943
C37	C	1.394074	-0.500956	-0.563362
C38	C	1.894074	-0.000956	-0.063362
C39	C	1.884423	-0.791227	-0.576191
C40	C	2.384423	-0.291227	-0.076191
C41	C	1.895221	-0.930651	-0.568020
C42	C	2.395221	-0.430651	-0.068020
C43	C	2.186662	-0.440249	-0.617930
C44	C	2.686662	0.059751	-0.117930
C45	C	2.326101	-0.429574	-0.627534
C46	C	2.826101	0.070426	-0.127534
C47	C	1.859521	-0.465164	-0.869439
C48	C	2.359521	0.034836	-0.369439
C49	C	1.859552	-0.465107	-0.986221
C50	C	2.359552	0.034893	-0.486221
C51	C	1.834413	-0.138094	-0.614694
C52	C	2.334413	0.361906	-0.114694
C53	C	1.823745	0.001341	-0.622919
C54	C	2.323745	0.501341	-0.122919
C55	C	1.773209	-0.390997	-1.040299
C56	C	2.273209	0.109003	-0.540299
C57	C	1.773244	-0.390957	-1.150028
C58	C	2.273244	0.109043	-0.650028
C59	C	1.945976	-0.539139	-1.151592
C60	C	2.445976	-0.039139	-0.651592
C61	C	1.945934	-0.539185	-1.041864
C62	C	2.445934	-0.039185	-0.541864
C63	C	1.673487	-0.305442	-1.039397
C64	C	2.173487	0.194558	-0.539397
C65	C	1.673522	-0.305402	-1.149126
C66	C	2.173522	0.194598	-0.649126
C67	C	1.859444	-0.465335	-0.322422
C68	C	2.359444	0.034665	0.177578
C69	C	1.859629	-0.465020	-0.205678
C70	C	2.359629	0.034980	0.294322
H71	H	1.374579	-0.360264	-0.689803
H72	H	1.874579	0.139736	-0.189803
C73	C	1.328578	-0.594590	-0.479226
C74	C	1.828578	-0.094590	0.020774
N75	N	1.279246	-0.665116	-0.415857
N76	N	1.779246	-0.165116	0.084143
C77	C	1.729920	-0.933220	-0.694872
C78	C	2.229920	-0.433220	-0.194872
N79	N	1.659251	-0.883923	-0.749070
N80	N	2.159251	-0.383923	-0.249070
C81	C	1.989048	-0.996096	-0.496061
C82	C	2.489048	-0.496096	0.003939
N83	N	2.059718	-1.045389	-0.441862
N84	N	2.559718	-0.545389	0.058138
C85	C	1.552441	-0.361924	-1.183753
C86	C	2.052441	0.138076	-0.683753
N87	N	1.461244	-0.404496	-1.209835
N88	N	1.961244	0.095504	-0.709835
C89	C	2.040947	-0.620677	-0.982387
C90	C	2.540947	-0.120677	-0.482387
N91	N	2.112528	-0.682044	-0.937590
N92	N	2.612528	-0.182044	-0.437590
H93	H	2.016306	-0.599449	-1.196910
H94	H	2.516306	-0.099449	-0.696910
H95	H	1.578303	-0.338905	-1.001399
H96	H	2.078303	0.161095	-0.501399
H97	H	1.701219	-0.210503	-1.013207
H98	H	2.201219	0.289497	-0.513207
C99	C	1.698668	-0.171443	-1.199533
C100	C	2.198668	0.328557	-0.699533
N101	N	1.717613	-0.070551	-1.237499
N102	N	2.217613	0.429449	-0.737499
