data_functionalizedCrystal
_audit_creation_method	'MofGen! by Chris Wilmer'
_symmetry_space_group_name_H-M	'P1'
_symmetry_Int_Tables_number	1
_symmetry_cell_setting	triclinic
loop_
_symmetry_equiv_pos_as_xyz
  x,y,z
_cell_length_a	12.827893
_cell_length_b	18.101395
_cell_length_c	12.827885
_cell_angle_alpha	90.032375
_cell_angle_beta	90.019272
_cell_angle_gamma	90.031265
loop_
_atom_site_label
_atom_site_type_symbol
_atom_site_fract_x
_atom_site_fract_y
_atom_site_fract_z
Zn1	Zn	1.597556	-0.294791	0.590830
Zn2	Zn	2.097556	0.205209	1.090830
Zn3	Zn	1.597402	-0.418650	0.416082
Zn4	Zn	2.097402	0.081350	0.916082
Zn5	Zn	1.422797	-0.294827	0.416103
Zn6	Zn	1.922797	0.205173	0.916103
Zn7	Zn	1.422734	-0.418595	0.590782
Zn8	Zn	1.922734	0.081405	1.090782
O9	O	1.510122	-0.356716	0.503449
O10	O	2.010122	0.143284	1.003449
O11	O	1.743771	-0.311228	0.567660
O12	O	2.243771	0.188772	1.067660
O13	O	1.574202	-0.402263	0.269849
O14	O	2.074202	0.097737	0.769849
O15	O	1.446070	-0.191189	0.439310
O16	O	1.946070	0.308811	0.939310
O17	O	1.743658	-0.402227	0.439274
O18	O	2.243658	0.097773	0.939274
O19	O	1.574464	-0.191162	0.567681
O20	O	2.074464	0.308838	1.067681
O21	O	1.445920	-0.311291	0.269865
O22	O	1.945920	0.188709	0.769865
O23	O	1.276553	-0.311238	0.439264
O24	O	1.776553	0.188762	0.939264
O25	O	1.445963	-0.402134	0.737025
O26	O	1.945963	0.097866	1.237025
O27	O	1.276507	-0.402169	0.567600
O28	O	1.776507	0.097831	1.067600
O29	O	1.574403	-0.311175	0.737060
O30	O	2.074403	0.188825	1.237060
O31	O	1.574141	-0.522276	0.439228
O32	O	2.074141	-0.022276	0.939228
O33	O	1.445814	-0.522235	0.567579
O34	O	1.945814	-0.022235	1.067579
C35	C	1.238612	-0.356702	0.503430
C36	C	1.738612	0.143298	1.003430
C37	C	1.122459	-0.356714	0.503446
C38	C	1.622459	0.143286	1.003446
C39	C	1.070730	-0.311765	0.567074
C40	C	1.570730	0.188235	1.067074
C41	C	0.950680	-0.311776	0.567093
C42	C	1.450680	0.188224	1.067093
C43	C	1.509982	-0.549126	0.503419
C44	C	2.009982	-0.049126	1.003419
C45	C	1.510018	-0.631440	0.503440
C46	C	2.010018	-0.131440	1.003440
C47	C	1.510247	-0.930531	0.503497
C48	C	2.010247	-0.430531	1.003497
C49	C	1.429695	-0.899212	0.584452
C50	C	1.929695	-0.399212	1.084452
C51	C	1.429312	-0.813594	0.584199
C52	C	1.929312	-0.313594	1.084199
C53	C	1.510134	-0.782149	0.503470
C54	C	2.010134	-0.282149	1.003470
C55	C	1.480314	-0.813307	0.393335
C56	C	1.980314	-0.313307	0.893335
C57	C	1.479795	-0.898952	0.393820
C58	C	1.979795	-0.398952	0.893820
C59	C	1.620796	-0.898873	0.531706
C60	C	2.120796	-0.398873	1.031706
C61	C	1.620146	-0.813222	0.534121
C62	C	2.120146	-0.313222	1.034121
C63	C	1.510071	-0.698289	0.503448
C64	C	2.010071	-0.198289	1.003448
C65	C	1.510307	-1.014391	0.503511
C66	C	2.010307	-0.514391	1.003511
C67	C	1.782692	-0.356730	0.503470
C68	C	2.282692	0.143270	1.003470
C69	C	1.898845	-0.356736	0.503479
C70	C	2.398845	0.143264	1.003479
C71	C	1.510193	-0.356645	0.776020
C72	C	2.010193	0.143355	1.276020
C73	C	1.510224	-0.356614	0.892173
C74	C	2.010224	0.143386	1.392173
C75	C	1.510291	-0.163554	0.503503
C76	C	2.010291	0.336446	1.003503
C77	C	1.510363	-0.081240	0.503526
C78	C	2.010363	0.418760	1.003526
C79	C	1.510111	-0.356733	0.231940
C80	C	2.010111	0.143267	0.731940
C81	C	1.510284	-0.356555	0.115787
C82	C	2.010284	0.143445	0.615787
C83	C	1.573787	-0.311596	0.943975
C84	C	2.073787	0.188404	1.443975
C85	C	1.573820	-0.311564	1.064025
C86	C	2.073820	0.188436	1.564025
H87	H	1.115320	-0.273271	0.621532
H88	H	1.615320	0.226729	1.121532
H89	H	1.455822	-0.395127	0.936700
H90	H	1.955822	0.104873	1.436700
H91	H	1.683338	-0.791813	0.479455
H92	H	2.183338	-0.291813	0.979455
Cl93	Cl	1.713460	-0.930158	0.440690
Cl94	Cl	2.213460	-0.430158	0.940690
Cl95	Cl	1.654870	-0.781776	0.659261
Cl96	Cl	2.154870	-0.281776	1.159261
H97	H	0.943325	-0.395225	0.449007
H98	H	1.443325	0.104775	0.949007
Cl99	Cl	0.882003	-0.252363	0.651208
Cl100	Cl	1.382003	0.247637	1.151208
Cl101	Cl	1.657746	-0.252106	0.875237
Cl102	Cl	2.157746	0.247894	1.375237
Cl103	Cl	1.657849	-0.252059	1.132799
Cl104	Cl	2.157849	0.247941	1.632799
H105	H	1.348251	-0.920799	0.566002
H106	H	1.848251	-0.420799	1.066002
H107	H	1.077869	-0.395204	0.448982
H108	H	1.577869	0.104796	0.948982
Cl109	Cl	1.458111	-0.781061	0.710283
Cl110	Cl	1.958111	-0.281061	1.210283
Cl111	Cl	1.426263	-0.416070	1.047020
Cl112	Cl	1.926263	0.083930	1.547020
Cl113	Cl	1.458206	-0.930930	0.710948
Cl114	Cl	1.958206	-0.430930	1.210948
H115	H	1.398984	-0.918997	0.369923
H116	H	1.898984	-0.418997	0.869923
H117	H	1.347370	-0.793172	0.565514
H118	H	1.847370	-0.293172	1.065514
Cl119	Cl	1.566435	-0.930948	0.297510
Cl120	Cl	2.066435	-0.430948	0.797510
H121	H	1.537139	-0.792941	0.331373
H122	H	2.037139	-0.292941	0.831373
H123	H	1.400359	-0.791924	0.369010
H124	H	1.900359	-0.291924	0.869010
H125	H	1.647982	-0.920416	0.610647
H126	H	2.147982	-0.420416	1.110647
