data_functionalizedCrystal
_audit_creation_method	'MofGen! by Chris Wilmer'
_symmetry_space_group_name_H-M	'P1'
_symmetry_Int_Tables_number	1
_symmetry_cell_setting	triclinic
loop_
_symmetry_equiv_pos_as_xyz
  x,y,z
_cell_length_a	16.109301
_cell_length_b	14.853569
_cell_length_c	14.586319
_cell_angle_alpha	89.995037
_cell_angle_beta	89.998857
_cell_angle_gamma	83.548574
loop_
_atom_site_label
_atom_site_type_symbol
_atom_site_fract_x
_atom_site_fract_y
_atom_site_fract_z
O1	O	1.103294	0.115882	-0.076192
O2	O	0.861252	0.130303	-0.076206
O3	O	0.988738	-0.008148	-0.076190
O4	O	0.975809	0.254332	-0.076208
O5	O	0.988729	-0.008150	0.076291
O6	O	0.861244	0.130301	0.076275
O7	O	1.103285	0.115880	0.076288
Cu8	Cu	0.982264	0.123090	0.090205
Cu9	Cu	0.982274	0.123092	-0.090122
O10	O	0.975800	0.254330	0.076273
C11	C	0.830272	0.129717	0.000033
C12	C	0.737975	0.127966	0.000028
C13	C	0.429084	0.204395	0.000039
C14	C	0.515807	0.206049	0.000034
C15	C	0.535448	0.041781	0.000033
C16	C	0.448727	0.040128	0.000032
C17	C	0.395547	0.121438	0.000040
C18	C	0.568991	0.124745	0.000035
C19	C	0.663019	0.126537	0.000029
C20	C	0.301512	0.119645	0.000044
C21	C	0.988147	-0.041737	0.000051
C22	C	0.986391	-0.141818	0.000052
C23	C	0.909838	-0.178068	0.000049
C24	C	1.061294	-0.199607	0.000047
C25	C	1.059647	-0.293639	0.000043
C26	C	0.983094	-0.329889	0.000041
C27	C	0.908188	-0.272108	0.000042
C28	C	1.134551	-0.351427	0.000033
C29	C	1.132906	-0.445465	0.000028
C30	C	1.056352	-0.481716	0.000032
C31	C	0.981444	-0.423929	0.000034
C32	C	0.904891	-0.460179	0.000031
C33	C	0.829981	-0.402393	0.000041
C34	C	0.831634	-0.308359	0.000046
C35	C	1.054700	-0.575750	0.000026
C36	C	0.903241	-0.554219	0.000025
C37	C	1.134265	0.116465	0.000048
C38	C	1.226563	0.118216	0.000046
C39	C	0.976390	0.287919	0.000030
C40	C	0.978146	0.388000	0.000023
N41	N	0.982262	0.123088	0.217036
N42	N	0.982282	0.123087	-0.216953
C43	C	1.038732	0.061802	0.452050
C44	C	1.038734	0.061800	0.548031
C45	C	0.925807	0.184376	0.548026
C46	C	0.925801	0.184373	0.452047
C47	C	0.982268	0.123087	0.404061
C48	C	0.982276	0.123088	0.596022
C49	C	0.982278	0.123086	0.700089
C50	C	0.982265	0.123088	0.299987
H51	H	0.543108	0.273600	0.000033
O52	O	1.093665	0.002235	0.594505
C53	C	1.143483	-0.051870	0.531566
H54	H	1.144460	-0.014905	0.463145
H55	H	1.116414	-0.118852	0.521365
C56	C	1.231950	-0.115823	0.653054
C57	C	1.233155	-0.070419	0.569021
H58	H	1.287263	-0.127270	0.676158
H59	H	1.198384	-0.079375	0.695458
H60	H	1.209388	-0.171637	0.644541
H61	H	1.255707	-0.014602	0.577536
H62	H	1.266727	-0.106859	0.526618
H63	H	1.115690	-0.622795	0.000009
H64	H	0.578758	-0.024418	0.000029
O65	O	1.093511	0.002317	0.405293
C66	C	1.081370	0.015418	0.310288
H67	H	1.050429	0.087103	0.297158
H68	H	1.039561	-0.035589	0.283096
C69	C	1.204383	-0.086246	0.277105
C70	C	1.166387	0.001801	0.260978
H71	H	1.256824	-0.094650	0.246686
H72	H	1.212561	-0.095076	0.341112
H73	H	1.169533	-0.128742	0.254445
H74	H	1.201231	0.044295	0.283648
H75	H	1.158216	0.010638	0.196973
O76	O	0.871043	0.243878	0.594784
C77	C	0.883142	0.230727	0.689789
H78	H	0.949201	0.197051	0.702895
H79	H	0.836035	0.185498	0.717039
C80	C	0.789624	0.364313	0.722956
C81	C	0.870760	0.322958	0.739054
H82	H	0.781983	0.421204	0.753347
H83	H	0.781469	0.373171	0.658950
H84	H	0.750377	0.326613	0.745665
H85	H	0.910005	0.360652	0.716335
H86	H	0.878921	0.314108	0.803058
H87	H	0.770647	-0.261302	0.000051
H88	H	0.879818	0.234279	0.412972
O89	O	0.837151	-0.121813	0.000016
C90	C	0.855016	-0.031040	0.000051
H91	H	0.920322	-0.027441	-0.028816
H92	H	0.851894	-0.003860	0.073208
C93	C	0.710319	0.022116	-0.024282
C94	C	0.790527	0.026538	-0.059745
H95	H	0.670538	0.057635	-0.061164
H96	H	0.698282	-0.039038	-0.024302
H97	H	0.707729	0.044765	0.036681
H98	H	0.793119	0.003879	-0.120703
H99	H	0.802563	0.087691	-0.059737
H100	H	1.196876	-0.321905	0.000091
O101	O	0.377306	0.283291	0.000077
C102	C	0.293571	0.264048	0.000054
H103	H	0.290163	0.193236	0.028926
H104	H	0.268498	0.267474	-0.073100
C105	C	0.244759	0.421027	0.024383
C106	C	0.240573	0.334058	0.059852
H107	H	0.212066	0.464214	0.061266
H108	H	0.301172	0.433993	0.024395
H109	H	0.223866	0.423869	-0.036578
H110	H	0.261475	0.331214	0.120807
H111	H	0.184161	0.321093	0.059851
O112	O	0.416282	-0.040540	0.000073
C113	C	0.481814	-0.111951	0.000052
H114	H	0.540754	-0.086702	0.028923
H115	H	0.494059	-0.137022	-0.073101
C116	C	0.384850	-0.221209	0.024386
C117	C	0.457239	-0.190199	0.059853
H118	H	0.369690	-0.269478	0.061271
H119	H	0.340699	-0.173099	0.024398
H120	H	0.395063	-0.242095	-0.036574
H121	H	0.447022	-0.169304	0.120808
H122	H	0.501387	-0.238308	0.059854
O123	O	1.135601	-0.164288	-0.000075
C124	C	1.141093	-0.110548	-0.079057
H125	H	1.075589	-0.087115	-0.105386
H126	H	1.177832	-0.152094	-0.134355
C127	C	1.266400	-0.056159	-0.022729
C128	C	1.185947	-0.027372	-0.055062
H129	H	1.294071	-0.004853	-0.007930
H130	H	1.262702	-0.092366	0.030482
H131	H	1.297005	-0.090781	-0.068816
H132	H	1.155340	0.007240	-0.008970
H133	H	1.189641	0.008844	-0.108264
O134	O	0.828854	-0.589385	-0.000141
C135	C	0.783178	-0.559820	-0.079096
H136	H	0.827940	-0.540259	-0.134290
H137	H	0.736918	-0.498526	-0.061232
C138	C	0.680330	-0.660773	-0.047124
C139	C	0.735308	-0.636754	-0.114917
H140	H	0.650798	-0.708227	-0.069218
H141	H	0.711101	-0.680689	0.006072
H142	H	0.641788	-0.609687	-0.032243
H143	H	0.773856	-0.687835	-0.129788
H144	H	0.704543	-0.616848	-0.168116
O145	O	0.755599	-0.437568	-0.000127
C146	C	0.709920	-0.408008	-0.079082
H147	H	0.754679	-0.388437	-0.134275
H148	H	0.663652	-0.346722	-0.061217
C149	C	0.607088	-0.508981	-0.047115
C150	C	0.662063	-0.484951	-0.114907
H151	H	0.577565	-0.556441	-0.069212
H152	H	0.637861	-0.528894	0.006080
H153	H	0.568539	-0.457902	-0.032234
H154	H	0.700618	-0.536026	-0.129778
H155	H	0.631296	-0.465048	-0.168106
H156	H	1.193903	-0.492507	0.000022
