data_functionalizedCrystal
_audit_creation_method	'MofGen! by Chris Wilmer'
_symmetry_space_group_name_H-M	'P1'
_symmetry_Int_Tables_number	1
_symmetry_cell_setting	triclinic
loop_
_symmetry_equiv_pos_as_xyz
  x,y,z
_cell_length_a	19.188930
_cell_length_b	19.188940
_cell_length_c	16.098538
_cell_angle_alpha	92.713234
_cell_angle_beta	87.256730
_cell_angle_gamma	83.146747
loop_
_atom_site_label
_atom_site_type_symbol
_atom_site_fract_x
_atom_site_fract_y
_atom_site_fract_z
O1	O	0.929296	0.084025	-0.069526
O2	O	1.262629	0.417359	0.263808
O3	O	1.595962	0.750692	0.597141
O4	O	0.725982	0.095762	-0.069469
O5	O	1.059316	0.429095	0.263865
O6	O	1.392649	0.762429	0.597198
O7	O	0.833502	-0.011761	-0.069492
O8	O	1.166836	0.321572	0.263841
O9	O	1.500169	0.654905	0.597174
O10	O	0.821776	0.191549	-0.069502
O11	O	1.155109	0.524882	0.263831
O12	O	1.488442	0.858215	0.597165
O13	O	0.827222	-0.005505	0.069022
O14	O	1.160555	0.327828	0.402355
O15	O	1.493888	0.661162	0.735689
O16	O	0.719702	0.102018	0.069046
O17	O	1.053035	0.435352	0.402379
O18	O	1.386368	0.768685	0.735712
O19	O	0.923015	0.090282	0.068989
O20	O	1.256348	0.423615	0.402322
O21	O	1.589682	0.756948	0.735655
Zn22	Zn	0.820361	0.097143	0.091009
Zn23	Zn	1.153694	0.430477	0.424343
Zn24	Zn	1.487028	0.763810	0.757676
Zn25	Zn	0.828636	0.088900	-0.091489
Zn26	Zn	1.161970	0.422234	0.241844
Zn27	Zn	1.495303	0.755567	0.575177
O28	O	0.815495	0.197805	0.069012
O29	O	1.148828	0.531138	0.402346
O30	O	1.482162	0.864472	0.735679
C31	C	0.696831	0.098511	-0.000204
C32	C	1.030164	0.431844	0.333129
C33	C	1.363497	0.765177	0.666463
C34	C	0.619325	0.097371	-0.000182
C35	C	0.952658	0.430704	0.333151
C36	C	1.285992	0.764038	0.666484
C37	C	0.574404	0.160461	-0.000198
C38	C	0.907737	0.493794	0.333135
C39	C	1.241071	0.827127	0.666468
C40	C	0.501581	0.159389	-0.000207
C41	C	0.834914	0.492722	0.333126
C42	C	1.168247	0.826055	0.666459
C43	C	0.473682	0.095222	-0.000217
C44	C	0.807015	0.428556	0.333116
C45	C	1.140349	0.761889	0.666450
C46	C	0.518613	0.032124	-0.000196
C47	C	0.851946	0.365458	0.333137
C48	C	1.185280	0.698791	0.666470
C49	C	0.591434	0.033199	-0.000179
C50	C	0.924768	0.366532	0.333154
C51	C	1.258101	0.699865	0.666488
N52	N	0.367839	0.044045	-0.047391
N53	N	0.701173	0.377378	0.285942
N54	N	1.034506	0.710712	0.619276
N55	N	0.298662	0.043029	-0.047409
N56	N	0.631995	0.376362	0.285924
N57	N	0.965328	0.709695	0.619257
C58	C	0.254276	0.091982	-0.000268
C59	C	0.587609	0.425315	0.333065
C60	C	0.920942	0.758649	0.666399
N61	N	0.281680	0.142000	0.046882
N62	N	0.615013	0.475333	0.380215
N63	N	0.948347	0.808667	0.713549
N64	N	0.350864	0.143018	0.046897
N65	N	0.684198	0.476352	0.380230
N66	N	1.017531	0.809685	0.713563
C67	C	0.394720	0.094050	-0.000236
C68	C	0.728054	0.427384	0.333098
C69	C	1.061387	0.760717	0.666431
C70	C	0.130391	0.153914	-0.000293
C71	C	0.463724	0.487247	0.333041
C72	C	0.797057	0.820580	0.666374
C73	C	0.057566	0.152839	-0.000297
C74	C	0.390899	0.486173	0.333037
C75	C	0.724233	0.819506	0.666370
C76	C	0.074600	0.025573	-0.000294
C77	C	0.407934	0.358906	0.333039
C78	C	0.741267	0.692240	0.666373
C79	C	0.147423	0.026650	-0.000282
C80	C	0.480756	0.359983	0.333052
C81	C	0.814090	0.693316	0.666385
C82	C	0.175314	0.090822	-0.000285
C83	C	0.508647	0.424155	0.333048
C84	C	0.841980	0.757488	0.666382
C85	C	0.829981	-0.034644	-0.000235
C86	C	1.163314	0.298689	0.333098
C87	C	1.496648	0.632023	0.666431
C88	C	0.828838	-0.112148	-0.000235
C89	C	1.162171	0.221185	0.333098
C90	C	1.495504	0.554518	0.666431
C91	C	0.817280	-0.661998	0.075251
C92	C	1.150614	-0.328665	0.408585
C93	C	1.483947	0.004669	0.741918
C94	C	0.818347	-0.589173	0.075256
C95	C	1.151680	-0.255840	0.408589
C96	C	1.485013	0.077493	0.741922
C97	C	0.822307	-0.556164	-0.000248
C98	C	1.155640	-0.222831	0.333086
C99	C	1.488974	0.110503	0.666419
C100	C	0.825183	-0.595983	-0.075761
C101	C	1.158516	-0.262650	0.257572
C102	C	1.491850	0.070683	0.590906
C103	C	0.824109	-0.668806	-0.075763
C104	C	1.157443	-0.335472	0.257570
C105	C	1.490776	-0.002139	0.590904
N106	N	0.866272	-0.449679	-0.056458
N107	N	1.199605	-0.116346	0.276875
N108	N	1.532939	0.216988	0.610209
N109	N	0.867293	-0.380501	-0.056451
N110	N	1.200627	-0.047168	0.276883
N111	N	1.533960	0.286166	0.610216
C112	C	0.825541	-0.336755	-0.000246
C113	C	1.158874	-0.003421	0.333088
C114	C	1.492207	0.329912	0.666421
N115	N	0.782736	-0.364801	0.055965
N116	N	1.116070	-0.031467	0.389298
N117	N	1.449403	0.301866	0.722631
N118	N	0.781718	-0.433985	0.055960
N119	N	1.115052	-0.100652	0.389293
N120	N	1.448385	0.232681	0.722627
C121	C	0.823471	-0.477201	-0.000254
C122	C	1.156805	-0.143868	0.333080
C123	C	1.490138	0.189466	0.666413
C124	C	0.823816	-0.217979	0.075268
C125	C	1.157150	0.115354	0.408601
C126	C	1.490483	0.448688	0.741934
C127	C	0.824879	-0.145152	0.075269
C128	C	1.158212	0.188181	0.408602
C129	C	1.491545	0.521514	0.741935
C130	C	0.831722	-0.151965	-0.075750
C131	C	1.165055	0.181368	0.257583
C132	C	1.498389	0.514702	0.590917
C133	C	0.830653	-0.224789	-0.075749
C134	C	1.163986	0.108544	0.257584
C135	C	1.497319	0.441878	0.590918
C136	C	0.826703	-0.257792	-0.000238
C137	C	1.160036	0.075541	0.333095
C138	C	1.493370	0.408875	0.666429
C139	C	0.952167	0.087533	-0.000278
C140	C	1.285500	0.420866	0.333056
C141	C	1.618833	0.754200	0.666389
C142	C	1.029673	0.088672	-0.000305
C143	C	1.363006	0.422006	0.333028
C144	C	1.696339	0.755339	0.666362
C145	C	0.819016	0.220688	-0.000247
C146	C	1.152350	0.554021	0.333087
C147	C	1.485683	0.887354	0.666420
C148	C	0.820160	0.298192	-0.000252
C149	C	1.153493	0.631525	0.333081
C150	C	1.486827	0.964858	0.666415
N151	N	0.814719	0.102769	0.215560
N152	N	1.148052	0.436102	0.548893
N153	N	1.481385	0.769435	0.882226
N154	N	0.834284	0.083269	-0.216040
N155	N	1.167618	0.416603	0.117294
N156	N	1.500951	0.749936	0.450627
C157	C	0.860371	0.057148	0.259135
C158	C	1.193704	0.390481	0.592468
C159	C	1.527038	0.723814	0.925801
C160	C	0.856430	0.061089	0.346325
C161	C	1.189764	0.394423	0.679658
C162	C	1.523097	0.727756	1.012991
C163	C	0.806840	0.110656	0.389938
C164	C	1.140173	0.443989	0.723271
C165	C	1.473507	0.777323	1.056605
C166	C	0.761183	0.156279	0.346357
C167	C	1.094516	0.489612	0.679690
C168	C	1.427849	0.822946	1.013023
C169	C	0.765121	0.152334	0.259169
C170	C	1.098454	0.485667	0.592502
C171	C	1.431787	0.819000	0.925835
C172	C	0.792565	0.124947	0.653191
C173	C	1.125898	0.458280	0.986524
C174	C	1.459231	0.791614	1.319858
C175	C	0.788632	0.128891	0.740385
C176	C	1.121965	0.462224	1.073719
C177	C	1.455298	0.795557	1.407052
C178	C	0.883879	0.033699	0.740347
C179	C	1.217212	0.367033	1.073680
C180	C	1.550546	0.700366	1.407014
C181	C	0.887815	0.029761	0.653157
C182	C	1.221149	0.363094	0.986491
C183	C	1.554482	0.696428	1.319824
C184	C	0.842156	0.075382	0.609584
C185	C	1.175489	0.408715	0.942917
C186	C	1.508822	0.742048	1.276250
C187	C	0.802812	0.114688	0.479060
C188	C	1.136146	0.448021	0.812393
C189	C	1.469479	0.781354	1.145727
C190	C	0.846180	0.071346	0.520463
C191	C	1.179514	0.404679	0.853797
C192	C	1.512847	0.738013	1.187130
H193	H	0.183999	-0.024725	-0.000273
H194	H	0.517332	0.308608	0.333060
H195	H	0.850666	0.641941	0.666393
H196	H	0.822532	-0.112739	0.136755
H197	H	1.155865	0.220594	0.470088
H198	H	1.489199	0.553928	0.803422
H199	H	0.833002	-0.257204	-0.137232
H200	H	1.166335	0.076129	0.196101
H201	H	1.499669	0.409462	0.529435
H202	H	0.762436	0.155047	0.514577
H203	H	1.095769	0.488380	0.847910
H204	H	1.429103	0.821714	1.181244
H205	H	0.815989	-0.556751	0.136742
H206	H	1.149322	-0.223418	0.470075
H207	H	1.482655	0.109915	0.803408
H208	H	0.153100	0.206167	-0.000283
H209	H	0.486433	0.539500	0.333050
H210	H	0.819766	0.872834	0.666384
H211	H	0.814063	-0.688864	0.136739
H212	H	1.147397	-0.355531	0.470072
H213	H	1.480730	-0.022197	0.803405
H214	H	0.900756	0.016788	0.223631
H215	H	1.234089	0.350121	0.556964
H216	H	1.567422	0.683455	0.890297
H217	H	0.834938	-0.125089	-0.137226
H218	H	1.168272	0.208245	0.196107
H219	H	1.501605	0.541578	0.529440
H220	H	0.826453	-0.701219	-0.137249
H221	H	1.159787	-0.367886	0.196084
H222	H	1.493120	-0.034553	0.529418
H223	H	0.893604	0.023941	0.381803
H224	H	1.226937	0.357274	0.715136
H225	H	1.560270	0.690607	1.048470
H226	H	0.727945	0.189482	0.223691
H227	H	1.061278	0.522816	0.557024
H228	H	1.394611	0.856149	0.890357
H229	H	0.748247	0.169257	0.775891
H230	H	1.081581	0.502590	1.109225
H231	H	1.414914	0.835923	1.442558
H232	H	0.828405	-0.569102	-0.137236
H233	H	1.161738	-0.235769	0.196097
H234	H	1.495072	0.097564	0.529430
H235	H	0.597108	0.212715	-0.000202
H236	H	0.930441	0.546048	0.333131
H237	H	1.263774	0.879381	0.666464
H238	H	0.755388	0.162095	0.617720
H239	H	1.088721	0.495428	0.951054
H240	H	1.422055	0.828761	1.284387
H241	H	0.921052	-0.003444	0.775833
H242	H	1.254386	0.329890	1.109166
H243	H	1.587719	0.663223	1.442499
H244	H	0.051889	-0.026675	-0.000354
H245	H	0.385222	0.306658	0.332980
H246	H	0.718555	0.639992	0.666313
H247	H	0.720802	0.196635	0.381872
H248	H	1.054135	0.529969	0.715205
H249	H	1.387468	0.863302	1.048538
H250	H	0.820594	-0.244851	0.136753
H251	H	1.153928	0.088483	0.470087
H252	H	1.487261	0.421816	0.803420
H253	H	0.886555	0.030986	0.484951
H254	H	1.219888	0.364320	0.818284
H255	H	1.553221	0.697653	1.151618
H256	H	0.928196	-0.010600	0.617649
H257	H	1.261529	0.322733	0.950982
H258	H	1.594862	0.656067	1.284316
H259	H	0.495894	-0.020121	-0.000216
H260	H	0.829227	0.313213	0.333117
H261	H	1.162561	0.646546	0.666451
H262	H	0.464999	0.210766	-0.000218
H263	H	0.798332	0.544099	0.333115
H264	H	1.131665	0.877432	0.666449
H265	H	0.628010	-0.018178	-0.000166
H266	H	0.961343	0.315155	0.333167
H267	H	1.294677	0.648488	0.666500
H268	H	0.020991	0.204217	-0.000305
H269	H	0.354324	0.537550	0.333029
H270	H	0.687658	0.870884	0.666362
