data_functionalizedCrystal
_audit_creation_method	'MofGen! by Chris Wilmer'
_symmetry_space_group_name_H-M	'P1'
_symmetry_Int_Tables_number	1
_symmetry_cell_setting	triclinic
loop_
_symmetry_equiv_pos_as_xyz
  x,y,z
_cell_length_a	12.759401
_cell_length_b	18.101395
_cell_length_c	12.759393
_cell_angle_alpha	89.967467
_cell_angle_beta	89.982824
_cell_angle_gamma	90.031265
loop_
_atom_site_label
_atom_site_type_symbol
_atom_site_fract_x
_atom_site_fract_y
_atom_site_fract_z
Zn1	Zn	1.606122	-0.294789	-0.593968
Zn2	Zn	1.605970	-0.418649	-0.418282
Zn3	Zn	1.430428	-0.294826	-0.418307
Zn4	Zn	1.430362	-0.418594	-0.593923
O5	O	1.518221	-0.356715	-0.506120
O6	O	1.753123	-0.311227	-0.570671
O7	O	1.582648	-0.402262	-0.271264
O8	O	1.453825	-0.191188	-0.441638
O9	O	1.753011	-0.402226	-0.441595
O10	O	1.582907	-0.191161	-0.570695
O11	O	1.453678	-0.311290	-0.271283
O12	O	1.283398	-0.311237	-0.441595
O13	O	1.453713	-0.402133	-0.740950
O14	O	1.283350	-0.402168	-0.570619
O15	O	1.582843	-0.311174	-0.740983
O16	O	1.582584	-0.522275	-0.441552
O17	O	1.453566	-0.522234	-0.570595
C18	C	1.245253	-0.356701	-0.506106
C19	C	1.128477	-0.356713	-0.506125
C20	C	1.073617	-0.404137	-0.573197
C21	C	0.963893	-0.404146	-0.573208
C22	C	0.963898	-0.309306	-0.439066
C23	C	1.073620	-0.309293	-0.439061
C24	C	1.073613	-0.458895	-0.650639
C25	C	0.963889	-0.458904	-0.650650
C26	C	1.518080	-0.549125	-0.506089
C27	C	1.518116	-0.631439	-0.506111
C28	C	1.518347	-0.930530	-0.506168
C29	C	1.437360	-0.899210	-0.587559
C30	C	1.436975	-0.813593	-0.587305
C31	C	1.518232	-0.782148	-0.506140
C32	C	1.488254	-0.813306	-0.395415
C33	C	1.487732	-0.898951	-0.395903
C34	C	1.629488	-0.898872	-0.534526
C35	C	1.628835	-0.813221	-0.536954
C36	C	1.518169	-0.698288	-0.506118
C37	C	1.518407	-1.014390	-0.506182
C38	C	1.792254	-0.356729	-0.506135
C39	C	1.909030	-0.356735	-0.506141
C40	C	1.518288	-0.356643	-0.780153
C41	C	1.518316	-0.356613	-0.896930
C42	C	1.518390	-0.163553	-0.506174
C43	C	1.518463	-0.081239	-0.506197
C44	C	1.451101	-0.403952	-0.951777
C45	C	1.451140	-0.403926	-1.061501
C46	C	1.585612	-0.309213	-1.061522
C47	C	1.585578	-0.309244	-0.951800
C48	C	1.373461	-0.458632	-0.951766
C49	C	1.373500	-0.458605	-1.061490
C50	C	1.518214	-0.356733	-0.233153
C51	C	1.518389	-0.356555	-0.116376
H52	H	1.118282	-0.270671	-0.384452
H53	H	1.640374	-0.270647	-1.106210
N54	N	1.412040	-0.530766	-1.106563
H55	H	1.476134	-0.521432	-1.151124
H56	H	1.430575	-0.565618	-1.047581
N57	N	1.118649	-0.531026	-0.611864
H58	H	1.197707	-0.528384	-0.613277
H59	H	1.094121	-0.540351	-0.537761
N60	N	1.380121	-0.925511	-0.364078
H61	H	1.333468	-0.881583	-0.349867
H62	H	1.349076	-0.956134	-0.422488
H63	H	1.455930	-0.919753	-0.669927
H64	H	1.355480	-0.920798	-0.569012
H65	H	1.354594	-0.793171	-0.568521
H66	H	0.934071	-0.516246	-0.628715
N67	N	1.381777	-0.784983	-0.363024
H68	H	1.327566	-0.801398	-0.415777
H69	H	1.363276	-0.805345	-0.291663
H70	H	1.292154	-0.443226	-1.091274
N71	N	1.402229	-0.534623	-0.912310
H72	H	1.474306	-0.548276	-0.938666
H73	H	1.402148	-0.534632	-0.833156
N74	N	1.271095	-0.431410	-0.906699
H75	H	1.212100	-0.464398	-0.931114
H76	H	1.274893	-0.432413	-0.827649
N77	N	0.904731	-0.258173	-0.366721
H78	H	0.826897	-0.265379	-0.376897
H79	H	0.923884	-0.269646	-0.291662
N80	N	1.658812	-0.786232	-0.644880
H81	H	1.669718	-0.829945	-0.692811
H82	H	1.600968	-0.753999	-0.673620
N83	N	1.562469	-0.926407	-0.312836
H84	H	1.595603	-0.882872	-0.276061
H85	H	1.522829	-0.957395	-0.260231
N86	N	1.113116	-0.438639	-0.758467
H87	H	1.051603	-0.429604	-0.806589
H88	H	1.157145	-0.392374	-0.753826
N89	N	1.563924	-0.786334	-0.312888
H90	H	1.618495	-0.753578	-0.346563
H91	H	1.524437	-0.757354	-0.257999
H92	H	0.929898	-0.438432	-0.728003
H93	H	1.692366	-0.791812	-0.481993
N94	N	1.461811	-0.785676	-0.696055
H95	H	1.473108	-0.829006	-0.744592
H96	H	1.401469	-0.754791	-0.722550
N97	N	1.665715	-0.927406	-0.639644
H98	H	1.614315	-0.911829	-0.695626
H99	H	1.737178	-0.906394	-0.656181
H100	H	1.689826	-0.919125	-0.475245
N101	N	1.658089	-0.258195	-0.892641
H102	H	1.700700	-0.228184	-0.944053
H103	H	1.615349	-0.223930	-0.847123
