data_functionalizedCrystal
_audit_creation_method	'MofGen! by Chris Wilmer'
_symmetry_space_group_name_H-M	'P1'
_symmetry_Int_Tables_number	1
_symmetry_cell_setting	triclinic
loop_
_symmetry_equiv_pos_as_xyz
  x,y,z
_cell_length_a	18.050591
_cell_length_b	18.050590
_cell_length_c	16.120256
_cell_angle_alpha	92.872767
_cell_angle_beta	92.873632
_cell_angle_gamma	90.015000
loop_
_atom_site_label
_atom_site_type_symbol
_atom_site_fract_x
_atom_site_fract_y
_atom_site_fract_z
Zn1	Zn	1.114083	-0.317057	-0.471484
Zn2	Zn	1.614083	0.182943	0.028516
Zn3	Zn	1.120301	-0.434948	-0.332071
Zn4	Zn	1.620301	0.065052	0.167929
Zn5	Zn	0.996188	-0.310769	-0.332076
Zn6	Zn	1.496188	0.189231	0.167924
Zn7	Zn	0.989874	-0.441199	-0.471424
Zn8	Zn	1.489874	0.058801	0.028576
O9	O	1.055111	-0.375993	-0.401764
O10	O	1.555111	0.124007	0.098236
O11	O	1.218831	-0.332711	-0.453014
O12	O	1.718831	0.167289	0.046986
O13	O	1.109082	-0.413227	-0.215409
O14	O	1.609082	0.086773	0.284591
O15	O	1.011867	-0.207679	-0.350597
O16	O	1.511867	0.292321	0.149403
O17	O	1.223399	-0.419325	-0.350587
O18	O	1.723399	0.080675	0.149413
O19	O	1.098484	-0.212299	-0.453019
O20	O	1.598484	0.287701	0.046981
O21	O	1.017897	-0.321994	-0.215413
O22	O	1.517897	0.178006	0.284587
O23	O	0.891427	-0.328055	-0.350539
O24	O	1.391427	0.171945	0.149461
O25	O	1.001105	-0.429979	-0.588095
O26	O	1.501105	0.070021	-0.088095
O27	O	0.886788	-0.423882	-0.452917
O28	O	1.386788	0.076118	0.047083
O29	O	1.092361	-0.338772	-0.588139
O30	O	1.592361	0.161228	-0.088139
O31	O	1.102959	-0.539700	-0.350528
O32	O	1.602959	-0.039700	0.149472
O33	O	1.007135	-0.544293	-0.452911
O34	O	1.507135	-0.044293	0.047089
C35	C	0.862161	-0.375965	-0.401722
C36	C	1.362161	0.124035	0.098278
C37	C	0.779615	-0.375972	-0.401724
C38	C	1.279615	0.124028	0.098276
C39	C	0.533285	-0.323816	-0.346183
C40	C	1.033285	0.176184	0.153817
C41	C	0.579283	-0.309169	-0.422266
C42	C	1.079283	0.190831	0.077734
C43	C	0.482492	-0.376013	-0.401792
C44	C	0.982492	0.123987	0.098208
C45	C	0.583576	-0.390605	-0.325679
C46	C	1.083576	0.109395	0.174321
C47	C	0.628478	-0.375991	-0.401755
C48	C	1.128478	0.124009	0.098245
C49	C	0.527401	-0.361332	-0.477917
C50	C	1.027401	0.138668	0.022083
C51	C	0.531692	-0.442798	-0.381278
C52	C	1.031692	0.057202	0.118722
C53	C	0.577666	-0.428179	-0.457415
C54	C	1.077666	0.071821	0.042585
C55	C	0.398392	-0.376024	-0.401813
C56	C	0.898392	0.123976	0.098187
C57	C	0.712575	-0.375980	-0.401743
C58	C	1.212575	0.124020	0.098257
C59	C	1.055056	-0.568944	-0.401731
C60	C	1.555056	-0.068944	0.098269
C61	C	1.055099	-0.651490	-0.401744
C62	C	1.555099	-0.151490	0.098256
C63	C	1.107307	-0.848420	-0.346146
C64	C	1.607307	-0.348420	0.153854
C65	C	1.122012	-0.901193	-0.422236
C66	C	1.622012	-0.401193	0.077764
C67	C	1.055139	-0.802622	-0.401778
C68	C	1.555139	-0.302622	0.098222
C69	C	1.040509	-0.896931	-0.325722
C70	C	1.540509	-0.396931	0.174278
C71	C	1.055180	-0.948608	-0.401803
C72	C	1.555180	-0.448608	0.098197
C73	C	1.069877	-0.854310	-0.477907
C74	C	1.569877	-0.354310	0.022093
C75	C	0.988344	-0.850041	-0.381342
C76	C	1.488344	-0.350041	0.118658
C77	C	1.003021	-0.902795	-0.457484
C78	C	1.503021	-0.402795	0.042516
C79	C	1.055118	-0.718523	-0.401762
C80	C	1.555118	-0.218523	0.098238
C81	C	1.055201	-1.032706	-0.401827
C82	C	1.555201	-0.532706	0.098173
C83	C	1.248815	-0.376022	-0.401806
C84	C	1.748815	0.123978	0.098194
C85	C	1.331360	-0.376034	-0.401824
C86	C	1.831360	0.123966	0.098176
C87	C	1.045335	-0.385774	-0.619212
C88	C	1.545335	0.114226	-0.119212
C89	C	1.041169	-0.389942	-0.711876
C90	C	1.541169	0.110058	-0.211876
C91	C	1.055186	-0.182290	-0.401816
C92	C	1.555186	0.317710	0.098184
C93	C	1.055218	-0.099745	-0.401838
C94	C	1.555218	0.400255	0.098162
C95	C	1.076835	-0.354237	-0.922842
C96	C	1.576835	0.145763	-0.422842
C97	C	1.033539	-0.397521	-0.881527
C98	C	1.533539	0.102479	-0.381527
C99	C	1.037786	-0.393303	-0.787124
C100	C	1.537786	0.106697	-0.287124
C101	C	1.072588	-0.358455	-1.017253
C102	C	1.572588	0.141545	-0.517253
C103	C	1.064892	-0.366196	-0.185162
C104	C	1.564892	0.133804	0.314838
C105	C	1.069202	-0.361819	-0.092499
C106	C	1.569202	0.138181	0.407501
H107	H	0.510743	-0.499268	-0.363916
H108	H	1.010743	0.000732	0.136084
C109	C	0.979158	-0.451867	-0.929514
C110	C	1.479158	0.048133	-0.429514
H111	H	0.952550	-0.478468	-0.891177
H112	H	1.452550	0.021532	-0.391177
H113	H	1.006059	-0.485715	-0.963493
H114	H	1.506059	0.014285	-0.463493
H115	H	0.945309	-0.424940	-0.963471
H116	H	1.445309	0.075060	-0.463471
C117	C	0.506836	-0.264163	-0.282759
C118	C	1.006836	0.235837	0.217241
H119	H	0.523102	-0.216732	-0.297461
H120	H	1.023102	0.283268	0.202539
H121	H	0.526874	-0.274069	-0.228840
H122	H	1.026874	0.225931	0.271160
H123	H	0.454206	-0.264877	-0.282863
H124	H	0.954206	0.235123	0.217137
C125	C	0.607570	-0.232863	-0.445691
C126	C	1.107570	0.267137	0.054309
H127	H	0.592445	-0.195837	-0.406139
H128	H	1.092445	0.304163	0.093861
H129	H	0.587542	-0.222128	-0.499365
H130	H	1.087542	0.277872	0.000635
H131	H	0.660181	-0.233545	-0.445999
H132	H	1.160181	0.266455	0.054001
C133	C	1.131216	-0.299901	-0.874855
C134	C	1.631216	0.200099	-0.374855
H135	H	1.157822	-0.273292	-0.913189
H136	H	1.657822	0.226708	-0.413189
H137	H	1.165057	-0.326828	-0.840896
H138	H	1.665057	0.173172	-0.340896
H139	H	1.104313	-0.266048	-0.840877
H140	H	1.604313	0.233952	-0.340877
C141	C	0.616754	-0.407299	-0.238748
C142	C	1.116754	0.092701	0.261252
H143	H	0.601607	-0.370175	-0.199321
H144	H	1.101607	0.129825	0.300679
H145	H	0.669342	-0.407622	-0.239473
H146	H	1.169342	0.092378	0.260527
H147	H	0.599763	-0.454394	-0.223810
H148	H	1.099763	0.045606	0.276190
H149	H	0.502928	-0.348915	-0.542287
H150	H	1.002928	0.151085	-0.042287
H151	H	0.597095	-0.472313	-0.504480
H152	H	1.097095	0.027687	-0.004480
C153	C	1.166917	-0.816272	-0.282661
C154	C	1.666917	-0.316272	0.217339
H155	H	1.214361	-0.833816	-0.297330
H156	H	1.714361	-0.333816	0.202670
H157	H	1.156977	-0.831510	-0.228761
H158	H	1.656977	-0.331510	0.271239
H159	H	1.166196	-0.763651	-0.282743
H160	H	1.666196	-0.263651	0.217257
H161	H	1.178516	-0.923634	-0.439537
H162	H	1.678516	-0.423634	0.060463
H163	H	1.082209	-0.835570	-0.542292
H164	H	1.582209	-0.335570	-0.042292
H165	H	0.958919	-0.926454	-0.504595
H166	H	1.458919	-0.426454	-0.004595
C167	C	0.912039	-0.819694	-0.357939
C168	C	1.412039	-0.319694	0.142061
H169	H	0.901703	-0.834168	-0.303846
H170	H	1.401703	-0.334168	0.196154
H171	H	0.874895	-0.839084	-0.396913
H172	H	1.374895	-0.339084	0.103087
H173	H	0.912451	-0.767098	-0.358599
H174	H	1.412451	-0.267098	0.141401
C175	C	1.023762	-0.922371	-0.238821
C176	C	1.523762	-0.422371	0.261179
H177	H	1.060860	-0.903682	-0.199357
H178	H	1.560860	-0.403682	0.300643
H179	H	1.023446	-0.975025	-0.239572
H180	H	1.523446	-0.475025	0.260428
H181	H	0.976653	-0.904082	-0.223914
H182	H	1.476653	-0.404082	0.276086
