data_functionalizedCrystal
_audit_creation_method	'MofGen! by Chris Wilmer'
_symmetry_space_group_name_H-M	'P1'
_symmetry_Int_Tables_number	1
_symmetry_cell_setting	triclinic
loop_
_symmetry_equiv_pos_as_xyz
  x,y,z
_cell_length_a	16.974897
_cell_length_b	12.811415
_cell_length_c	15.455313
_cell_angle_alpha	87.254642
_cell_angle_beta	83.675220
_cell_angle_gamma	83.375521
loop_
_atom_site_label
_atom_site_type_symbol
_atom_site_fract_x
_atom_site_fract_y
_atom_site_fract_z
O1	O	1.057037	0.123912	-0.155999
O2	O	0.826183	0.141876	-0.141225
O3	O	0.946845	-0.019168	-0.137014
O4	O	0.936375	0.284956	-0.160210
O5	O	0.939945	-0.009996	0.007010
O6	O	0.819283	0.151047	0.002799
O7	O	1.050137	0.133083	-0.011974
Cu8	Cu	0.934080	0.142903	0.008563
Cu9	Cu	0.942240	0.132057	-0.161762
O10	O	0.929475	0.294127	-0.016185
C11	C	0.793171	0.145946	-0.067100
C12	C	0.705088	0.144397	-0.060802
C13	C	0.667460	0.138673	-0.136344
C14	C	0.584694	0.137235	-0.130415
C15	C	0.539559	0.141514	-0.048942
C16	C	0.577192	0.147242	0.026606
C17	C	0.659956	0.148687	0.020675
C18	C	0.291629	0.137735	-0.022788
C19	C	0.208860	0.136286	-0.016863
C20	C	0.216368	0.126281	-0.173885
C21	C	0.299133	0.127721	-0.179808
C22	C	0.336759	0.133454	-0.104260
N23	N	0.454959	0.140041	-0.042880
N24	N	0.421356	0.134934	-0.110324
C25	C	0.942597	-0.053487	-0.061886
C26	C	0.940209	-0.169411	-0.052603
C27	C	0.943232	-0.397233	-0.192191
C28	C	0.940989	-0.506154	-0.183473
C29	C	0.933474	-0.496176	-0.026448
C30	C	0.935717	-0.387255	-0.035167
C31	C	0.940597	-0.337787	-0.118041
C32	C	0.942846	-0.228865	-0.126759
C33	C	0.935326	-0.218888	0.030265
C34	C	0.933083	-0.327809	0.038983
C35	C	1.083148	0.129013	-0.086102
C36	C	1.171232	0.130562	-0.092405
C37	C	0.933723	0.328446	-0.091315
C38	C	0.936111	0.444370	-0.100604
N39	N	0.928346	0.150531	0.128360
N40	N	0.947980	0.124420	-0.281560
C41	C	0.979626	0.082139	0.175540
C42	C	0.975297	0.087917	0.266197
C43	C	0.919692	0.162093	0.309672
C44	C	0.868406	0.230488	0.262485
C45	C	0.872732	0.224704	0.171831
C46	C	0.901021	0.187031	0.580600
C47	C	0.896700	0.192812	0.671261
C48	C	1.003590	0.050239	0.674966
C49	C	1.007914	0.044466	0.584309
C50	C	0.956626	0.112857	0.537131
N51	N	0.915267	0.168004	0.402337
N52	N	0.961047	0.106941	0.444468
H53	H	0.322254	0.142396	0.038729
H54	H	0.554062	0.132574	-0.191930
H55	H	0.851418	0.253220	0.706653
H56	H	0.929106	-0.368100	0.106457
N57	N	0.845701	0.260787	0.529723
H58	H	0.809822	0.308654	0.571022
H59	H	0.878184	0.304407	0.486319
N60	N	0.528520	0.151852	0.114486
H61	H	0.536159	0.218349	0.143600
H62	H	0.470277	0.151444	0.106620
H63	H	1.017052	0.032226	0.304611
H64	H	1.024908	0.021741	0.140149
N65	N	0.347820	0.123119	-0.267679
H66	H	0.388293	0.058762	-0.268960
H67	H	0.311374	0.119319	-0.314593
H68	H	0.943131	-0.554551	-0.243853
H69	H	0.946822	-0.188591	-0.194239
N70	N	0.948508	-0.343872	-0.281570
H71	H	0.949841	-0.398061	-0.327223
H72	H	0.900514	-0.290145	-0.285857
H73	H	0.823127	0.290881	0.297888
N74	N	0.175787	0.120097	-0.255364
H75	H	0.116508	0.119830	-0.239248
H76	H	0.185925	0.182902	-0.295361
H77	H	0.830974	0.280395	0.133418
N78	N	0.700544	0.154869	0.102152
H79	H	0.659393	0.157359	0.154666
H80	H	0.740689	0.090952	0.107790
H81	H	0.933184	-0.170476	0.090643
N82	N	1.067889	-0.035537	0.537420
H83	H	1.099718	-0.077989	0.581066
H84	H	1.038987	-0.083952	0.505592
N85	N	0.716140	0.134046	-0.224219
H86	H	0.679741	0.130203	-0.271174
H87	H	0.744677	0.199163	-0.234777
H88	H	0.929494	-0.536470	0.041024
N89	N	1.058905	-0.023523	0.725849
H90	H	1.047729	-0.008607	0.789876
H91	H	1.049973	-0.098574	0.716517
H92	H	0.172110	0.139800	0.049484
