data_functionalizedCrystal
_audit_creation_method	'MofGen! by Chris Wilmer'
_symmetry_space_group_name_H-M	'P1'
_symmetry_Int_Tables_number	1
_symmetry_cell_setting	triclinic
loop_
_symmetry_equiv_pos_as_xyz
  x,y,z
_cell_length_a	10.654549
_cell_length_b	10.540510
_cell_length_c	9.730217
_cell_angle_alpha	89.999207
_cell_angle_beta	89.997559
_cell_angle_gamma	84.500114
loop_
_atom_site_label
_atom_site_type_symbol
_atom_site_fract_x
_atom_site_fract_y
_atom_site_fract_z
O1	O	1.667877	0.178330	-0.114315
O2	O	1.302403	0.195312	-0.114310
O3	O	1.493498	0.002109	-0.114312
O4	O	1.476783	0.371533	-0.114313
O5	O	1.493492	0.002107	0.114268
O6	O	1.302397	0.195310	0.114270
O7	O	1.667871	0.178329	0.114265
Zn8	Zn	1.485133	0.186819	0.150559
Zn9	Zn	1.485141	0.186821	-0.150605
O10	O	1.476777	0.371531	0.114267
C11	C	1.255602	0.194063	-0.000019
C12	C	1.116158	0.190328	-0.000017
C13	C	0.826229	0.414344	-0.000057
C14	C	0.877795	0.531615	-0.000051
C15	C	1.008814	0.535128	-0.000033
C16	C	1.088271	0.421357	-0.000025
C17	C	1.036705	0.304086	-0.000030
C18	C	0.905682	0.300586	-0.000044
C19	C	1.064592	0.073057	-0.000023
C20	C	0.933574	0.069541	-0.000031
C21	C	1.144050	-0.040713	-0.000014
C22	C	1.092484	-0.157987	-0.000010
C23	C	0.961457	-0.161495	-0.000026
C24	C	0.882008	-0.047730	-0.000037
C25	C	1.492249	-0.045195	-0.000025
C26	C	1.488523	-0.186143	-0.000033
C27	C	1.621275	-0.403644	0.000488
C28	C	1.625250	-0.257050	-0.000034
C29	C	1.418535	-0.230877	-0.130560
C30	C	1.415528	-0.377637	-0.130662
C31	C	1.412674	-0.377447	0.129276
C32	C	1.419159	-0.231108	0.130994
C33	C	1.714672	0.179578	-0.000029
C34	C	1.854116	0.183312	-0.000040
C35	C	1.478025	0.418835	-0.000023
C36	C	1.481752	0.559784	-0.000024
N37	N	1.485137	0.186817	0.356096
N38	N	1.485147	0.186814	-0.356141
C39	C	1.654421	0.015786	0.356085
C40	C	1.739071	-0.069725	0.428019
C41	C	1.739084	-0.069726	0.571899
C42	C	1.654435	0.015791	0.643847
C43	C	1.569785	0.101303	0.571913
C44	C	1.569784	0.101297	0.428030
C45	C	1.400497	0.272325	0.571925
C46	C	1.400488	0.272334	0.428045
C47	C	1.315848	0.357843	0.643874
C48	C	1.231201	0.443362	0.571939
C49	C	1.231193	0.443360	0.428051
C50	C	1.315838	0.357845	0.356111
H51	H	1.157188	-0.250609	-0.000012
H52	H	0.719545	0.411495	-0.000047
N53	N	1.687708	-0.458247	-0.116281
N54	N	1.632743	-0.523978	-0.199877
H55	H	1.679657	-0.562544	-0.282349
H56	H	1.194952	0.424228	-0.000026
N57	N	1.315825	0.357818	0.209142
N58	N	1.218623	0.335878	0.144925
H59	H	1.218618	0.335850	0.041126
H60	H	1.162280	0.512979	0.630529
H61	H	1.313264	-0.400597	-0.136574
H62	H	1.808009	-0.139361	0.630468
N63	N	1.144741	0.530712	0.354555
N64	N	1.144745	0.530712	0.226092
H65	H	1.083688	0.592406	0.174187
H66	H	0.919481	-0.256992	-0.000039
H67	H	0.775324	-0.050575	-0.000038
H68	H	1.680012	-0.227726	0.093531
N69	N	1.654424	0.015756	0.790816
N70	N	1.632790	-0.082533	0.855018
H71	H	1.632779	-0.082563	0.958817
H72	H	1.315856	0.357833	0.761028
N73	N	1.688091	-0.456312	0.117917
N74	N	1.633666	-0.521422	0.202601
H75	H	1.680855	-0.558630	0.285539
N76	N	1.277882	-0.037126	0.000036
N77	N	1.342563	-0.087131	0.096407
H78	H	1.437084	-0.084600	0.096450
N79	N	1.694365	-0.221430	-0.117605
N80	N	1.806934	-0.264518	-0.132883
H81	H	1.855748	-0.239364	-0.215925
N82	N	1.475535	-0.428096	-0.253070
N83	N	1.519342	-0.354887	-0.337827
H84	H	1.561725	-0.390516	-0.424281
N85	N	1.292272	-0.171361	-0.136648
N86	N	1.272791	-0.052637	-0.142409
H87	H	1.183619	-0.010599	-0.146706
H88	H	1.467144	-0.200036	-0.227699
H89	H	0.813086	0.624244	-0.000063
N90	N	1.466861	-0.430715	0.253396
N91	N	1.466964	-0.547389	0.276442
H92	H	1.505243	-0.585013	0.364097
N93	N	1.483054	-0.195236	0.252124
N94	N	1.579319	-0.136769	0.242097
H95	H	1.624450	-0.111428	0.327643
H96	H	1.319337	-0.182007	0.138878
H97	H	1.310017	-0.399562	0.130157
N98	N	1.654441	0.015848	0.209116
N99	N	1.751653	0.037808	0.144918
H100	H	1.751674	0.037866	0.041119
N101	N	1.825449	-0.157094	0.354438
N102	N	1.784795	-0.236210	0.274163
H103	H	1.845769	-0.297918	0.222166
H104	H	1.050797	0.630620	-0.000027
