data_functionalizedCrystal
_audit_creation_method	'MofGen! by Chris Wilmer'
_symmetry_space_group_name_H-M	'P1'
_symmetry_Int_Tables_number	1
_symmetry_cell_setting	triclinic
loop_
_symmetry_equiv_pos_as_xyz
  x,y,z
_cell_length_a	10.686220
_cell_length_b	14.908579
_cell_length_c	10.685986
_cell_angle_alpha	91.366561
_cell_angle_beta	99.031138
_cell_angle_gamma	82.566242
loop_
_atom_site_label
_atom_site_type_symbol
_atom_site_fract_x
_atom_site_fract_y
_atom_site_fract_z
Zn1	Zn	1.865866	0.224334	-0.588636
Zn2	Zn	1.867835	0.385985	-0.390525
Zn3	Zn	1.667977	0.245900	-0.394550
Zn4	Zn	1.639438	0.385921	-0.618963
O5	O	1.760279	0.310535	-0.498169
O6	O	2.044530	0.236779	-0.547980
O7	O	1.854091	0.376454	-0.214231
O8	O	1.705347	0.116788	-0.409288
O9	O	2.045977	0.355543	-0.402429
O10	O	1.850736	0.100944	-0.551883
O11	O	1.707256	0.273534	-0.217188
O12	O	1.485789	0.273472	-0.438695
O13	O	1.656707	0.355434	-0.791768
O14	O	1.464821	0.376345	-0.603570
O15	O	1.823063	0.236717	-0.769487
O16	O	1.826418	0.512227	-0.431835
O17	O	1.658616	0.512180	-0.599668
C18	C	1.429047	0.327243	-0.524861
C19	C	1.287340	0.334411	-0.536312
C20	C	1.739667	0.544936	-0.518631
C21	C	1.730962	0.645205	-0.527417
C22	C	1.889496	0.833595	-0.369281
C23	C	1.881322	0.927807	-0.377532
C24	C	1.706447	0.927843	-0.552176
C25	C	1.714621	0.833631	-0.543925
C26	C	1.806147	0.786510	-0.452473
C27	C	1.814315	0.692297	-0.444217
C28	C	1.639446	0.692334	-0.618865
C29	C	1.631272	0.786546	-0.627117
C30	C	2.092805	0.293762	-0.471372
C31	C	2.234507	0.286615	-0.459954
C32	C	1.736482	0.293663	-0.827759
C33	C	1.726341	0.286474	-0.968211
C34	C	1.780995	1.075215	-0.477668
C35	C	1.789799	0.974935	-0.468976
C36	C	1.784063	0.327272	-0.169849
C37	C	1.794473	0.334195	-0.029356
H38	H	1.224163	0.380815	-0.610445
Br39	Br	1.904648	0.411451	-0.937516
Br40	Br	1.339807	0.209276	-0.336367
Br41	Br	1.938519	0.628349	-0.320098
H42	H	1.631938	0.966224	-0.626639
Br43	Br	2.013684	0.769644	-0.245151
Br44	Br	1.994449	0.991706	-0.264630
Br45	Br	1.507070	0.850503	-0.751230
Br46	Br	1.526302	0.628431	-0.731756
Br47	Br	1.616194	0.209205	-1.060043
