data_functionalizedCrystal
_audit_creation_method	'MofGen! by Chris Wilmer'
_symmetry_space_group_name_H-M	'P1'
_symmetry_Int_Tables_number	1
_symmetry_cell_setting	triclinic
loop_
_symmetry_equiv_pos_as_xyz
  x,y,z
_cell_length_a	17.699083
_cell_length_b	14.044220
_cell_length_c	16.776229
_cell_angle_alpha	89.992645
_cell_angle_beta	89.998886
_cell_angle_gamma	88.235946
loop_
_atom_site_label
_atom_site_type_symbol
_atom_site_fract_x
_atom_site_fract_y
_atom_site_fract_z
O1	O	1.012346	0.119850	-0.066178
O2	O	1.512346	0.619850	0.433822
O3	O	0.793043	0.135443	-0.066204
O4	O	1.293043	0.635443	0.433796
O5	O	0.899403	-0.010330	-0.066183
O6	O	1.399403	0.489670	0.433817
O7	O	0.905986	0.265624	-0.066198
O8	O	1.405986	0.765624	0.433802
O9	O	0.899387	-0.010339	0.066393
O10	O	1.399387	0.489661	0.566393
O11	O	0.793027	0.135434	0.066372
O12	O	1.293027	0.635434	0.566372
O13	O	1.012330	0.119841	0.066399
O14	O	1.512330	0.619841	0.566399
Zn15	Zn	0.902676	0.127636	0.087435
Zn16	Zn	1.402676	0.627636	0.587435
Zn17	Zn	0.902697	0.127648	-0.087240
Zn18	Zn	1.402697	0.627648	0.412760
O19	O	0.905970	0.265615	0.066378
O20	O	1.405970	0.765615	0.566378
C21	C	0.764800	0.134880	0.000081
C22	C	1.264800	0.634880	0.500081
C23	C	0.680666	0.133204	0.000071
C24	C	1.180666	0.633204	0.500071
C25	C	0.637948	0.218769	0.000067
C26	C	1.137948	0.718769	0.500067
C27	C	0.558895	0.217189	0.000077
C28	C	1.058895	0.717189	0.500077
C29	C	0.522563	0.130041	0.000086
C30	C	1.022563	0.630041	0.500086
C31	C	0.565287	0.044469	0.000093
C32	C	1.065287	0.544469	0.500093
C33	C	0.644338	0.046050	0.000088
C34	C	1.144338	0.546050	0.500088
C35	C	0.246484	0.038089	0.000113
C36	C	0.746484	0.538089	0.500113
C37	C	0.167427	0.036514	0.000115
C38	C	0.667427	0.536514	0.500115
C39	C	0.161041	0.209227	0.000102
C40	C	0.661041	0.709227	0.500102
C41	C	0.240092	0.210809	0.000097
C42	C	0.740092	0.710809	0.500097
C43	C	0.282809	0.125237	0.000108
C44	C	0.782809	0.625237	0.500108
C45	C	0.368527	0.126952	0.000098
C46	C	0.868527	0.626952	0.500098
C47	C	0.436847	0.128325	0.000090
C48	C	0.936847	0.628325	0.500090
C49	C	0.896513	-0.045643	0.000105
C50	C	1.396513	0.454357	0.500105
C51	C	0.887917	-0.150849	0.000105
C52	C	1.387917	0.349151	0.500105
C53	C	0.872202	-0.343474	0.000091
C54	C	1.372202	0.156526	0.500091
C55	C	0.933168	-0.401248	0.000096
C56	C	1.433168	0.098752	0.500096
C57	C	0.924424	-0.508431	0.000089
C58	C	1.424424	-0.008431	0.500089
C59	C	0.880945	-0.236281	0.000099
C60	C	1.380945	0.263719	0.500099
C61	C	1.040574	0.120404	0.000112
C62	C	1.540574	0.620404	0.500112
C63	C	1.124707	0.122081	0.000117
C64	C	1.624707	0.622081	0.500117
C65	C	0.908860	0.300927	0.000088
C66	C	1.408860	0.800927	0.500088
C67	C	0.917456	0.406133	0.000083
C68	C	1.417456	0.906133	0.500083
N69	N	0.902667	0.127628	0.206646
N70	N	1.402667	0.627628	0.706646
N71	N	0.902712	0.127649	-0.206452
N72	N	1.402712	0.627649	0.293548
C73	C	0.949781	0.063106	0.248372
C74	C	1.449781	0.563106	0.748372
C75	C	0.949785	0.063105	0.331825
C76	C	1.449785	0.563105	0.831825
C77	C	0.902679	0.127631	0.373549
C78	C	1.402679	0.627631	0.873549
C79	C	0.855560	0.192156	0.331817
C80	C	1.355560	0.692156	0.831817
C81	C	0.855552	0.192152	0.248366
C82	C	1.355552	0.692152	0.748366
C83	C	0.855589	0.192175	0.668364
C84	C	1.355589	0.692175	1.168364
C85	C	0.855601	0.192176	0.751821
C86	C	1.355601	0.692176	1.251821
C87	C	0.949821	0.063128	0.751822
C88	C	1.449821	0.563128	1.251822
C89	C	0.949813	0.063123	0.668372
C90	C	1.449813	0.563123	1.168372
C91	C	0.902692	0.127645	0.626647
C92	C	1.402692	0.627645	1.126647
C93	C	0.902687	0.127644	0.536159
C94	C	1.402687	0.627644	1.036159
C95	C	0.902687	0.127638	0.464036
C96	C	1.402687	0.627638	0.964036
H97	H	0.535699	-0.026488	0.000112
H98	H	1.035699	0.473512	0.500112
O99	O	1.003311	-0.364341	0.000221
O100	O	1.503311	0.135659	0.500221
C101	C	1.042826	-0.395387	0.068902
C102	C	1.542826	0.104613	0.568902
H103	H	1.017658	-0.463961	0.091781
H104	H	1.517658	0.036039	0.591781
H105	H	1.104937	-0.409120	0.053475
H106	H	1.604937	0.090880	0.553475
H107	H	1.037836	-0.338184	0.116986
H108	H	1.537836	0.161816	0.616986
O109	O	0.673117	0.303509	0.000092
O110	O	1.173117	0.803509	0.500092
C111	C	0.618457	0.378692	0.000072
C112	C	1.118457	0.878692	0.500072
H113	H	0.563045	0.352244	0.025176
H114	H	1.063045	0.852244	0.525176
H115	H	0.639063	0.439545	0.038557
H116	H	1.139063	0.939545	0.538557
H117	H	0.609064	0.405081	-0.063533
H118	H	1.109064	0.905081	0.436467
H119	H	0.126251	0.278904	0.000097
H120	H	0.626251	0.778904	0.500097
O121	O	0.802158	-0.380648	0.000122
O122	O	1.302158	0.119352	0.500122
C123	C	0.808913	-0.480942	0.000099
C124	C	1.308913	0.019058	0.500099
H125	H	0.866429	-0.504174	0.025197
H126	H	1.366429	-0.004174	0.525197
H127	H	0.762344	-0.511301	0.038588
H128	H	1.262344	-0.011301	0.538588
H129	H	0.803426	-0.508451	-0.063506
H130	H	1.303426	-0.008451	0.436494
O131	O	0.995563	0.000332	0.207968
O132	O	1.495563	0.500332	0.707968
C133	C	1.037160	-0.056601	0.262696
C134	C	1.537160	0.443399	0.762696
H135	H	1.006066	-0.057618	0.322186
H136	H	1.506066	0.442382	0.822186
H137	H	1.043595	-0.132309	0.238596
H138	H	1.543595	0.367691	0.738596
H139	H	1.095452	-0.025916	0.271561
H140	H	1.595452	0.474084	0.771561
H141	H	0.524117	0.286865	0.000073
H142	H	1.024117	0.786865	0.500073
H143	H	0.269670	0.281773	0.000086
H144	H	0.769670	0.781773	0.500086
H145	H	0.817222	0.244712	0.634398
H146	H	1.317222	0.744712	1.134398
O147	O	0.132253	-0.048230	0.000164
O148	O	0.632253	0.451770	0.500164
C149	C	0.186906	-0.123420	0.000155
C150	C	0.686906	0.376580	0.500155
H151	H	0.242322	-0.096980	0.025250
H152	H	0.742322	0.403020	0.525250
H153	H	0.166296	-0.184271	0.038654
H154	H	0.666296	0.315729	0.538654
H155	H	0.196295	-0.149809	-0.063445
H156	H	0.696295	0.350191	0.436555
O157	O	0.288086	-0.044945	0.000147
O158	O	0.788086	0.455055	0.500147
C159	C	0.365651	-0.024872	0.000121
C160	C	0.865651	0.475128	0.500121
H161	H	0.373707	0.049556	0.025221
H162	H	0.873707	0.549556	0.525221
H163	H	0.397734	-0.079434	0.038607
H164	H	0.897734	0.420566	0.538607
H165	H	0.388231	-0.028506	-0.063485
H166	H	0.888231	0.471494	0.436515
O167	O	0.995446	0.000336	0.372389
O168	O	1.495446	0.500336	0.872389
C169	C	0.950989	-0.058064	0.420687
C170	C	1.450989	0.441936	0.920687
H171	H	0.891198	-0.059578	0.395550
H172	H	1.391198	0.440422	0.895550
H173	H	0.976788	-0.133440	0.421634
H174	H	1.476788	0.366560	0.921634
H175	H	0.949031	-0.028401	0.483931
H176	H	1.449031	0.471599	0.983931
H177	H	0.988174	0.010583	0.634402
H178	H	1.488174	0.510583	1.134402
H179	H	0.988187	0.010588	0.785804
H180	H	1.488187	0.510588	1.285804
O181	O	0.809811	0.254740	0.207707
O182	O	1.309811	0.754740	0.707707
C183	C	0.819917	0.240915	0.125105
C184	C	1.319917	0.740915	0.625105
H185	H	0.843117	0.165520	0.113717
H186	H	1.343117	0.665520	0.613717
H187	H	0.763317	0.251545	0.093395
H188	H	1.263317	0.751545	0.593395
H189	H	0.861488	0.294499	0.101410
H190	H	1.361488	0.794499	0.601410
H191	H	0.679119	-0.023626	0.000091
H192	H	1.179119	0.476374	0.500091
H193	H	0.817201	0.244692	0.365794
H194	H	1.317201	0.744692	0.865794
H195	H	0.817239	0.244723	0.785791
H196	H	1.317239	0.744723	1.285791
