data_functionalizedCrystal
_audit_creation_method	'MofGen! by Chris Wilmer'
_symmetry_space_group_name_H-M	'P1'
_symmetry_Int_Tables_number	1
_symmetry_cell_setting	triclinic
loop_
_symmetry_equiv_pos_as_xyz
  x,y,z
_cell_length_a	17.699083
_cell_length_b	9.130313
_cell_length_c	17.699082
_cell_angle_alpha	89.997262
_cell_angle_beta	96.717418
_cell_angle_gamma	89.997679
loop_
_atom_site_label
_atom_site_type_symbol
_atom_site_fract_x
_atom_site_fract_y
_atom_site_fract_z
O1	O	-1.004075	0.121768	0.095702
O2	O	-0.783696	0.121776	0.108155
O3	O	-0.900112	0.121769	-0.008260
O4	O	-0.887659	0.121775	0.212118
O5	O	-0.900104	-0.121829	-0.008252
O6	O	-0.783688	-0.121823	0.108164
O7	O	-1.004067	-0.121831	0.095711
Cu8	Cu	-0.893877	-0.144069	0.101938
Cu9	Cu	-0.893886	0.144015	0.101928
O10	O	-0.887651	-0.121824	0.212127
C11	C	-0.755495	-0.000023	0.107714
C12	C	-0.671477	-0.000019	0.106375
N13	N	-0.893875	-0.346692	0.101945
C14	C	-0.632005	-0.132807	0.105749
C15	C	-0.553063	-0.132808	0.104480
C16	C	-0.513593	-0.000020	0.103841
C17	C	-0.553071	0.132777	0.104465
C18	C	-0.632012	0.132777	0.105729
C19	C	-0.234708	0.132781	0.099366
C20	C	-0.155761	0.132772	0.098104
C21	C	-0.155759	-0.132803	0.098116
C22	C	-0.234700	-0.132803	0.099380
C23	C	-0.274172	-0.000007	0.100000
C24	C	-0.359770	-0.000007	0.101375
C25	C	-0.427995	-0.000018	0.102472
C26	C	-0.848074	-0.576693	0.056078
C27	C	-0.848066	-0.423356	0.056090
C28	C	-0.939701	-0.423372	0.147785
C29	C	-0.939712	-0.576706	0.147768
C30	C	-0.795167	-0.576683	0.003141
C31	C	-0.795159	-0.423346	0.003153
C32	C	-0.032268	-0.000028	0.096148
C33	C	-0.116288	-0.000017	0.097473
C34	C	-0.899662	-0.000027	-0.036453
C35	C	-0.898324	-0.000020	-0.120471
N36	N	-0.893894	0.346637	0.101916
C37	C	-0.888101	-0.000024	0.240319
C38	C	-0.889439	-0.000022	0.324338
C39	C	-0.890073	0.132766	0.363802
C40	C	-0.891340	0.132767	0.442745
C41	C	-0.891968	-0.000020	0.482222
C42	C	-0.891336	-0.132818	0.442752
C43	C	-0.890074	-0.132818	0.363810
C44	C	-0.896425	-0.132819	0.761116
C45	C	-0.897685	-0.132809	0.840063
C46	C	-0.897691	0.132766	0.840051
C47	C	-0.896429	0.132765	0.761109
C48	C	-0.895802	-0.000031	0.721645
C49	C	-0.894429	-0.000032	0.636046
C50	C	-0.893335	-0.000021	0.567820
H51	H	-0.664135	-0.240938	0.106275
H52	H	-0.977030	-0.639125	0.185086
H53	H	-0.895914	0.240894	0.728970
H54	H	-0.898204	0.240895	0.872191
C55	C	-0.455635	-0.286869	0.168086
C56	C	-0.509668	-0.278762	0.103784
H57	H	-0.428842	-0.376974	0.167648
H58	H	-0.480571	-0.281369	0.212694
H59	H	-0.420841	-0.207771	0.167516
H60	H	-0.544466	-0.357855	0.104356
H61	H	-0.484732	-0.284277	0.059164
C62	C	-0.894429	-0.250760	0.640124
C63	C	-0.895684	-0.278786	0.717749
H64	H	-0.893962	-0.340881	0.613352
H65	H	-0.850123	-0.196153	0.633055
H66	H	-0.938361	-0.196259	0.621318
H67	H	-0.851749	-0.333279	0.736556
H68	H	-0.939995	-0.333417	0.724823
H69	H	-0.898192	-0.240947	0.872204
H70	H	-0.891858	0.240896	0.474873
C71	C	-0.824635	0.359115	0.348124
C72	C	-0.889369	0.278725	0.320408
H73	H	-0.824202	0.449228	0.321336
H74	H	-0.780320	0.304538	0.341045
H75	H	-0.825491	0.378119	0.400786
H76	H	-0.888510	0.259712	0.267747
H77	H	-0.933695	0.333314	0.327480
H78	H	-0.891852	-0.240935	0.474900
H79	H	-0.737915	-0.624271	0.027527
H80	H	-0.520929	0.240895	0.103940
C81	C	-0.826372	-0.205925	-0.070239
C82	C	-0.828064	-0.359084	-0.074138
H83	H	-0.846675	-0.166254	-0.117957
H84	H	-0.775338	-0.173862	-0.058156
H85	H	-0.855969	-0.173791	-0.031965
H86	H	-0.798462	-0.391219	-0.112408
H87	H	-0.879107	-0.391160	-0.086230
C88	C	-0.624088	0.395294	0.105605
C89	C	-0.675402	0.278741	0.106426
H90	H	-0.650876	0.485407	0.106038
H91	H	-0.599157	0.389775	0.060995
H92	H	-0.587439	0.389757	0.149233
H93	H	-0.712048	0.284272	0.062794
H94	H	-0.700345	0.284263	0.151041
C95	C	-0.890186	-0.395335	0.371748
C96	C	-0.889373	-0.278782	0.320428
H97	H	-0.889751	-0.485448	0.344965
H98	H	-0.934795	-0.389814	0.396682
H99	H	-0.846556	-0.389800	0.408394
H100	H	-0.933007	-0.284311	0.283785
H101	H	-0.844760	-0.284307	0.295481
H102	H	-0.977004	-0.360940	0.185115
C103	C	-0.075610	0.286826	0.031636
C104	C	-0.112372	0.278741	0.097397
H105	H	-0.048820	0.376933	0.031205
H106	H	-0.112260	0.281310	-0.011982
H107	H	-0.040807	0.207729	0.031096
H108	H	-0.147179	0.357832	0.097935
H109	H	-0.075718	0.284272	0.141027
C110	C	-0.226769	-0.395323	0.099256
C111	C	-0.278085	-0.278767	0.100078
H112	H	-0.253554	-0.485435	0.099679
H113	H	-0.190126	-0.389805	0.142880
H114	H	-0.201832	-0.389786	0.054641
H115	H	-0.303018	-0.284298	0.144695
H116	H	-0.314742	-0.284288	0.056449
C117	C	-0.075623	-0.286905	0.031655
C118	C	-0.112373	-0.278783	0.097423
H119	H	-0.048845	-0.377029	0.031228
H120	H	-0.040819	-0.207837	0.031098
H121	H	-0.112285	-0.281382	-0.011964
H122	H	-0.075711	-0.284295	0.141042
H123	H	-0.147180	-0.357873	0.097987
C124	C	-0.250373	0.359154	0.164783
C125	C	-0.278086	0.278752	0.100053
H126	H	-0.277158	0.449270	0.165208
H127	H	-0.197716	0.378140	0.163936
H128	H	-0.257464	0.304583	0.209106
H129	H	-0.270989	0.333318	0.055730
H130	H	-0.330756	0.259769	0.100893
H131	H	-0.814437	-0.618260	-0.056752
H132	H	-0.735263	-0.381756	0.022403
