data_functionalizedCrystal
_audit_creation_method	'MofGen! by Chris Wilmer'
_symmetry_space_group_name_H-M	'P1'
_symmetry_Int_Tables_number	1
_symmetry_cell_setting	triclinic
loop_
_symmetry_equiv_pos_as_xyz
  x,y,z
_cell_length_a	17.077404
_cell_length_b	12.594516
_cell_length_c	17.077396
_cell_angle_alpha	89.975251
_cell_angle_beta	89.982940
_cell_angle_gamma	90.016278
loop_
_atom_site_label
_atom_site_type_symbol
_atom_site_fract_x
_atom_site_fract_y
_atom_site_fract_z
Zn1	Zn	1.200073	-0.423719	-0.443872
Zn2	Zn	1.533406	-0.090386	-0.110539
Zn3	Zn	1.866740	0.242948	0.222795
Zn4	Zn	1.200001	-0.601725	-0.312618
Zn5	Zn	1.533335	-0.268391	0.020715
Zn6	Zn	1.866668	0.064942	0.354049
Zn7	Zn	1.068810	-0.423761	-0.312620
Zn8	Zn	1.402144	-0.090428	0.020714
Zn9	Zn	1.735477	0.242905	0.354047
Zn10	Zn	1.068788	-0.601656	-0.443842
Zn11	Zn	1.402122	-0.268323	-0.110508
Zn12	Zn	1.735455	0.065010	0.222825
O13	O	1.134418	-0.512715	-0.378238
O14	O	1.467752	-0.179382	-0.044904
O15	O	1.801085	0.153951	0.288429
O16	O	1.309910	-0.447343	-0.426473
O17	O	1.643244	-0.114009	-0.093139
O18	O	1.976577	0.219324	0.240194
O19	O	1.182578	-0.578164	-0.202771
O20	O	1.515911	-0.244830	0.130562
O21	O	1.849244	0.088503	0.463895
O22	O	1.086262	-0.274810	-0.330044
O23	O	1.419595	0.058524	0.003289
O24	O	1.752929	0.391857	0.336623
O25	O	1.309858	-0.578123	-0.330041
O26	O	1.643191	-0.244789	0.003292
O27	O	1.976524	0.088544	0.336626
O28	O	1.182700	-0.274779	-0.426474
O29	O	1.516033	0.058555	-0.093141
O30	O	1.849367	0.391888	0.240192
O31	O	1.086192	-0.447415	-0.202773
O32	O	1.419526	-0.114081	0.130561
O33	O	1.752859	0.219252	0.463894
O34	O	0.958961	-0.447349	-0.330015
O35	O	1.292294	-0.114015	0.003319
O36	O	1.625627	0.219318	0.336652
O37	O	1.086224	-0.578006	-0.553693
O38	O	1.419558	-0.244673	-0.220359
O39	O	1.752891	0.088660	0.112974
O40	O	0.958944	-0.578047	-0.426423
O41	O	1.292278	-0.244714	-0.093090
O42	O	1.625611	0.088619	0.240244
O43	O	1.182679	-0.447276	-0.553715
O44	O	1.516012	-0.113943	-0.220381
O45	O	1.849345	0.219390	0.112952
O46	O	1.182556	-0.750661	-0.330012
O47	O	1.515890	-0.417328	0.003322
O48	O	1.849223	-0.083995	0.336655
O49	O	1.086155	-0.750611	-0.426421
O50	O	1.419488	-0.417278	-0.093088
O51	O	1.752822	-0.083945	0.240245
C52	C	0.930470	-0.512696	-0.378216
C53	C	1.263804	-0.179363	-0.044883
C54	C	1.597137	0.153971	0.288451
C55	C	0.843221	-0.512713	-0.378226
C56	C	1.176554	-0.179380	-0.044892
C57	C	1.509887	0.153953	0.288441
C58	C	0.802243	-0.580871	-0.428345
C59	C	1.135576	-0.247538	-0.095011
C60	C	1.468909	0.085796	0.238322
C61	C	0.720262	-0.580873	-0.428357
C62	C	1.053596	-0.247540	-0.095024
C63	C	1.386929	0.085793	0.238309
C64	C	0.679261	-0.512723	-0.378246
C65	C	1.012595	-0.179389	-0.044913
C66	C	1.345928	0.153944	0.288421
C67	C	0.720245	-0.444557	-0.328125
C68	C	1.053578	-0.111224	0.005209
C69	C	1.386912	0.222109	0.338542
C70	C	0.802224	-0.444551	-0.328117
C71	C	1.135557	-0.111217	0.005217
C72	C	1.468891	0.222116	0.338550
C73	C	0.549375	-0.444578	-0.328144
C74	C	0.882708	-0.111245	0.005190
C75	C	1.216042	0.222088	0.338523
C76	C	0.467390	-0.444586	-0.328150
C77	C	0.800724	-0.111253	0.005183
C78	C	1.134057	0.222080	0.338516
C79	C	0.467413	-0.580901	-0.428384
C80	C	0.800747	-0.247568	-0.095051
C81	C	1.134080	0.085766	0.238283
C82	C	0.549392	-0.580894	-0.428376
C83	C	0.882725	-0.247561	-0.095043
C84	C	1.216059	0.085772	0.238291
C85	C	0.590370	-0.512730	-0.378253
C86	C	0.923704	-0.179397	-0.044920
C87	C	1.257037	0.153936	0.288413
C88	C	1.134367	-0.789256	-0.378230
C89	C	1.467700	-0.455923	-0.044897
C90	C	1.801034	-0.122590	0.288437
C91	C	1.134417	-0.907562	-0.378253
C92	C	1.467750	-0.574228	-0.044920
C93	C	1.801083	-0.240895	0.288414
C94	C	1.081979	-0.976826	-0.430653
C95	C	1.415312	-0.643493	-0.097320
C96	C	1.748645	-0.310160	0.236013
C97	C	1.062858	-1.047689	-0.359026
C98	C	1.396191	-0.714356	-0.025692
C99	C	1.729524	-0.381023	0.307641
C100	C	1.153609	-1.047498	-0.449893
C101	C	1.486942	-0.714164	-0.116560
C102	C	1.820276	-0.380831	0.216774
C103	C	1.115258	-0.976866	-0.306587
C104	C	1.448591	-0.643533	0.026746
C105	C	1.781925	-0.310200	0.360079
C106	C	1.206042	-0.976669	-0.397503
C107	C	1.539376	-0.643335	-0.064170
C108	C	1.872709	-0.310002	0.269163
C109	C	1.186949	-1.047500	-0.325826
C110	C	1.520282	-0.714166	0.007507
C111	C	1.853615	-0.380833	0.340841
C112	C	1.339163	-0.512735	-0.378260
C113	C	1.672496	-0.179402	-0.044927
C114	C	2.005829	0.153931	0.288407
C115	C	1.426412	-0.512744	-0.378269
C116	C	1.759746	-0.179411	-0.044936
C117	C	2.093079	0.153923	0.288397
C118	C	1.134457	-0.512629	-0.582982
C119	C	1.467790	-0.179296	-0.249649
C120	C	1.801124	0.154038	0.083684
C121	C	1.134474	-0.512592	-0.670232
C122	C	1.467807	-0.179259	-0.336899
C123	C	1.801140	0.154074	-0.003565
C124	C	1.134491	-0.235094	-0.378263
C125	C	1.467825	0.098239	-0.044929
C126	C	1.801158	0.431572	0.288404
C127	C	1.134522	-0.116789	-0.378273
C128	C	1.467856	0.216544	-0.044940
C129	C	1.801189	0.549878	0.288393
C130	C	1.184733	-0.580549	-1.046048
C131	C	1.518066	-0.247216	-0.712715
C132	C	1.851399	0.086117	-0.379382
C133	C	1.184713	-0.580580	-0.964068
C134	C	1.518046	-0.247247	-0.630735
C135	C	1.851380	0.086086	-0.297401
C136	C	1.134524	-0.512517	-0.923081
C137	C	1.467857	-0.179184	-0.589748
C138	C	1.801191	0.154149	-0.256414
C139	C	1.084346	-0.444426	-0.964079
C140	C	1.417680	-0.111093	-0.630746
C141	C	1.751013	0.222241	-0.297412
C142	C	1.084363	-0.444401	-1.046058
C143	C	1.417696	-0.111068	-0.712725
C144	C	1.751029	0.222265	-0.379391
C145	C	1.084317	-0.444481	-0.793209
C146	C	1.417650	-0.111148	-0.459876
C147	C	1.750983	0.222186	-0.126542
C148	C	1.084301	-0.444504	-0.711224
C149	C	1.417635	-0.111171	-0.377891
C150	C	1.750968	0.222162	-0.044558
C151	C	1.184667	-0.580660	-0.711219
C152	C	1.518000	-0.247327	-0.377885
C153	C	1.851334	0.086006	-0.044552
C154	C	1.184684	-0.580635	-0.793198
C155	C	1.518017	-0.247302	-0.459864
C156	C	1.851350	0.086031	-0.126531
C157	C	1.134506	-0.512543	-0.834190
C158	C	1.467840	-0.179209	-0.500857
C159	C	1.801173	0.154124	-0.167523
C160	C	1.134425	-0.512724	-0.174290
C161	C	1.467758	-0.179391	0.159043
C162	C	1.801092	0.153942	0.492377
C163	C	1.134560	-0.512461	-0.087041
C164	C	1.467894	-0.179128	0.246293
C165	C	1.801227	0.154205	0.579626
H166	H	0.686902	-0.636375	-0.469169
H167	H	1.020235	-0.303042	-0.135835
H168	H	1.353568	0.030292	0.197498
H169	H	1.002334	-1.078908	-0.342760
H170	H	1.335668	-0.745575	-0.009427
H171	H	1.669001	-0.412242	0.323907
H172	H	1.098998	-0.945969	-0.245994
H173	H	1.432331	-0.612636	0.087340
H174	H	1.765664	-0.279302	0.420673
Cl175	Cl	1.255486	-1.095111	-0.257348
Cl176	Cl	1.588820	-0.761778	0.075985
Cl177	Cl	1.922153	-0.428445	0.409318
Cl178	Cl	1.013395	-0.928909	-0.498971
Cl179	Cl	1.346729	-0.595576	-0.165637
Cl180	Cl	1.680062	-0.262243	0.167696
H181	H	0.686855	-0.389063	-0.287327
H182	H	1.020189	-0.055730	0.046007
H183	H	1.353522	0.277603	0.379340
Cl184	Cl	0.853739	-0.358860	-0.265109
Cl185	Cl	1.187073	-0.025527	0.068224
Cl186	Cl	1.520406	0.307806	0.401558
Cl187	Cl	1.299465	-0.928468	-0.422669
Cl188	Cl	1.632799	-0.595134	-0.089336
Cl189	Cl	1.966132	-0.261801	0.243998
Cl190	Cl	0.415899	-0.666578	-0.491407
Cl191	Cl	0.749232	-0.333245	-0.158073
Cl192	Cl	1.082565	0.000089	0.175260
H193	H	1.225523	-0.636104	-0.677839
H194	H	1.558857	-0.302770	-0.344506
H195	H	1.892190	0.030563	-0.011172
H196	H	1.169799	-1.078523	-0.510470
H197	H	1.503133	-0.745190	-0.177137
H198	H	1.836466	-0.411857	0.156196
H199	H	1.225606	-0.635969	-1.079414
H200	H	1.558939	-0.302636	-0.746081
H201	H	1.892273	0.030697	-0.412747
H202	H	0.582737	-0.389063	-0.287335
H203	H	0.916070	-0.055729	0.045998
H204	H	1.249403	0.277604	0.379331
Cl205	Cl	1.247792	-0.666179	-0.912538
Cl206	Cl	1.581125	-0.332845	-0.579205
Cl207	Cl	1.914458	0.000488	-0.245871
H208	H	1.225556	-0.636053	-0.826567
H209	H	1.558889	-0.302720	-0.493234
H210	H	1.892222	0.030613	-0.159900
Cl211	Cl	1.021203	-0.358941	-0.659699
Cl212	Cl	1.354537	-0.025608	-0.326365
Cl213	Cl	1.687870	0.307726	0.006968
H214	H	0.434010	-0.389079	-0.287355
H215	H	0.767343	-0.055746	0.045979
H216	H	1.100676	0.277587	0.379312
H217	H	1.043457	-0.389033	-0.826582
H218	H	1.376790	-0.055699	-0.493249
H219	H	1.710124	0.277634	-0.159916
Cl220	Cl	1.021262	-0.358846	-0.912553
Cl221	Cl	1.354595	-0.025512	-0.579219
Cl222	Cl	1.687929	0.307821	-0.245886
H223	H	0.835620	-0.636371	-0.469149
H224	H	1.168953	-0.303038	-0.135815
H225	H	1.502286	0.030296	0.197518
Cl226	Cl	0.600935	-0.666578	-0.491369
Cl227	Cl	0.934269	-0.333245	-0.158035
Cl228	Cl	1.267602	0.000089	0.175298
H229	H	1.043508	-0.388956	-1.079433
H230	H	1.376841	-0.055622	-0.746100
H231	H	1.710175	0.277711	-0.412766
