data_functionalizedCrystal
_audit_creation_method	'MofGen! by Chris Wilmer'
_symmetry_space_group_name_H-M	'P1'
_symmetry_Int_Tables_number	1
_symmetry_cell_setting	triclinic
loop_
_symmetry_equiv_pos_as_xyz
  x,y,z
_cell_length_a	19.805407
_cell_length_b	19.805405
_cell_length_c	18.215399
_cell_angle_alpha	90.030610
_cell_angle_beta	90.020634
_cell_angle_gamma	90.026410
loop_
_atom_site_label
_atom_site_type_symbol
_atom_site_fract_x
_atom_site_fract_y
_atom_site_fract_z
Zn1	Zn	1.034743	-0.269470	0.416118
Zn2	Zn	1.534743	0.230530	0.916118
Zn3	Zn	1.034655	-0.382661	0.293046
Zn4	Zn	1.534655	0.117339	0.793046
Zn5	Zn	0.921555	-0.269491	0.293064
Zn6	Zn	1.421555	0.230509	0.793064
Zn7	Zn	0.921521	-0.382623	0.416069
Zn8	Zn	1.421521	0.117377	0.916069
O9	O	0.978119	-0.326061	0.354574
O10	O	1.478119	0.173939	0.854574
O11	O	1.129448	-0.284492	0.399805
O12	O	1.629448	0.215508	0.899805
O13	O	1.019630	-0.367674	0.190064
O14	O	1.519630	0.132326	0.690064
O15	O	0.936621	-0.174772	0.309415
O16	O	1.436621	0.325228	0.809415
O17	O	1.129384	-0.367653	0.309385
O18	O	1.629384	0.132347	0.809385
O19	O	1.019779	-0.174756	0.399822
O20	O	1.519779	0.325244	0.899822
O21	O	0.936536	-0.284529	0.190077
O22	O	1.436536	0.215471	0.690077
O23	O	0.826834	-0.284491	0.309368
O24	O	1.326834	0.215509	0.809368
O25	O	0.936562	-0.367588	0.519060
O26	O	1.436562	0.132412	1.019060
O27	O	0.826809	-0.367608	0.399739
O28	O	1.326809	0.132392	0.899739
O29	O	1.019746	-0.284455	0.519096
O30	O	1.519746	0.215545	1.019096
O31	O	1.019597	-0.477373	0.309337
O32	O	1.519597	0.022627	0.809337
O33	O	0.936478	-0.477344	0.399722
O34	O	1.436478	0.022656	0.899722
C35	C	0.802263	-0.326048	0.354550
C36	C	1.302263	0.173952	0.854550
C37	C	0.727031	-0.326059	0.354558
C38	C	1.227031	0.173941	0.854558
C39	C	0.691691	-0.369403	0.401538
C40	C	1.191691	0.130597	0.901538
C41	C	0.621003	-0.369404	0.401548
C42	C	1.121003	0.130596	0.901548
C43	C	0.585655	-0.326064	0.354574
C44	C	1.085655	0.173936	0.854574
C45	C	0.621000	-0.282715	0.307592
C46	C	1.121000	0.217285	0.807592
C47	C	0.691687	-0.282711	0.307586
C48	C	1.191687	0.217289	0.807586
C49	C	0.335926	-0.282730	0.307616
C50	C	0.835926	0.217270	0.807616
C51	C	0.265234	-0.282739	0.307624
C52	C	0.765234	0.217261	0.807624
C53	C	0.265242	-0.369423	0.401579
C54	C	0.765242	0.130577	0.901579
C55	C	0.335929	-0.369419	0.401573
C56	C	0.835929	0.130581	0.901573
C57	C	0.371268	-0.326068	0.354593
C58	C	0.871268	0.173932	0.854593
C59	C	0.447916	-0.326067	0.354584
C60	C	0.947916	0.173933	0.854584
C61	C	0.509008	-0.326069	0.354580
C62	C	1.009008	0.173931	0.854580
C63	C	0.978042	-0.501917	0.354539
C64	C	1.478042	-0.001917	0.854539
C65	C	0.978072	-0.577149	0.354548
C66	C	1.478072	-0.077149	0.854548
C67	C	1.021394	-0.612486	0.307534
C68	C	1.521394	-0.112486	0.807534
C69	C	1.021423	-0.683174	0.307550
C70	C	1.521423	-0.183174	0.807550
C71	C	0.978125	-0.718525	0.354577
C72	C	1.478125	-0.218525	0.854577
C73	C	0.934801	-0.683183	0.401597
C74	C	1.434801	-0.183183	0.901597
C75	C	0.934776	-0.612496	0.401583
C76	C	1.434776	-0.112496	0.901583
C77	C	0.934901	-0.968257	0.401651
C78	C	1.434901	-0.468257	0.901651
C79	C	0.934928	-1.038949	0.401659
C80	C	1.434928	-0.538949	0.901659
C81	C	1.021548	-1.038935	0.307618
C82	C	1.521548	-0.538935	0.807618
C83	C	1.021523	-0.968247	0.307605
C84	C	1.521523	-0.468247	0.807605
C85	C	0.978201	-0.932912	0.354626
C86	C	1.478201	-0.432912	0.854626
C87	C	0.978172	-0.856264	0.354609
C88	C	1.478172	-0.356264	0.854609
C89	C	0.978151	-0.795172	0.354591
C90	C	1.478151	-0.295172	0.854591
C91	C	1.154661	-0.326075	0.354598
C92	C	1.654661	0.173925	0.854598
C93	C	1.229893	-0.326081	0.354609
C94	C	1.729893	0.173919	0.854609
C95	C	0.978160	-0.326015	0.546527
C96	C	1.478160	0.173985	1.046527
C97	C	0.978177	-0.325995	0.628326
C98	C	1.478177	0.174005	1.128326
C99	C	0.978214	-0.149519	0.354626
C100	C	1.478214	0.350481	0.854626
C101	C	0.978254	-0.074287	0.354648
C102	C	1.478254	0.425713	0.854648
C103	C	0.978116	-0.326059	0.163368
C104	C	1.478116	0.173941	0.663368
C105	C	0.978230	-0.325888	0.081569
C106	C	1.478230	0.174112	0.581569
C107	C	1.021507	-0.282667	0.816540
C108	C	1.521507	0.217333	1.316540
C109	C	1.021515	-0.282647	0.893399
C110	C	1.521515	0.217353	1.393399
C111	C	0.934896	-0.369218	0.893350
C112	C	1.434896	0.130782	1.393350
C113	C	0.934885	-0.369233	0.816493
C114	C	1.434885	0.130767	1.316493
C115	C	0.978194	-0.325959	0.778090
C116	C	1.478194	0.174041	1.278090
C117	C	0.978213	-0.325924	0.931806
C118	C	1.478213	0.174076	1.431806
C119	C	0.978222	-0.325903	1.015140
C120	C	1.478222	0.174097	1.515140
C121	C	0.978185	-0.325979	0.694751
C122	C	1.478185	0.174021	1.194751
H123	H	0.236461	-0.404720	0.439834
H124	H	0.736461	0.095280	0.939834
H125	H	0.592232	-0.404700	0.439804
H126	H	1.092232	0.095300	0.939804
O127	O	0.892882	-0.411388	0.779170
O128	O	1.392882	0.088612	1.279170
C129	C	0.907631	-0.478845	0.797941
C130	C	1.407631	0.021155	1.297941
H131	H	0.961704	-0.482261	0.819082
H132	H	1.461704	0.017739	1.319082
H133	H	0.901779	-0.512291	0.747381
H134	H	1.401779	-0.012291	1.247381
H135	H	0.871339	-0.496529	0.842537
H136	H	1.371339	0.003471	1.342537
H137	H	1.056825	-1.067713	0.269333
H138	H	1.556825	-0.567713	0.769333
O139	O	1.063615	-0.933834	0.262025
O140	O	1.563615	-0.433834	0.762025
C141	C	1.107304	-0.892896	0.303965
C142	C	1.607304	-0.392896	0.803965
H143	H	1.083398	-0.882292	0.359710
H144	H	1.583398	-0.382292	0.859710
H145	H	1.116373	-0.843199	0.273991
H146	H	1.616373	-0.343199	0.773991
H147	H	1.157469	-0.920091	0.312107
H148	H	1.657469	-0.420091	0.812107
O149	O	1.063516	-0.578254	0.261826
O150	O	1.563516	-0.078254	0.761826
C151	C	1.101747	-0.624604	0.220321
C152	C	1.601747	-0.124604	0.720321
H153	H	1.104093	-0.674970	0.250478
H154	H	1.604093	-0.174970	0.750478
H155	H	1.155073	-0.604143	0.212519
H156	H	1.655073	-0.104143	0.712519
H157	H	1.076992	-0.632180	0.164405
H158	H	1.576992	-0.132180	0.664405
O159	O	0.726047	-0.240536	0.262051
O160	O	1.226047	0.259464	0.762051
C161	C	0.766982	-0.196877	0.304032
C162	C	1.266982	0.303123	0.804032
H163	H	0.745705	-0.192767	0.362004
H164	H	1.245705	0.307233	0.862004
H165	H	0.767792	-0.144757	0.277518
H166	H	1.267792	0.355243	0.777518
H167	H	0.820547	-0.217803	0.306519
H168	H	1.320547	0.282197	0.806519
H169	H	0.720466	-0.404698	0.439788
H170	H	1.220466	0.095302	0.939788
O171	O	0.892735	-0.411185	0.930623
O172	O	1.392735	0.088815	1.430623
C173	C	0.825281	-0.396406	0.911819
C174	C	1.325281	0.103594	1.411819
H175	H	0.821885	-0.342338	0.890712
H176	H	1.321885	0.157662	1.390712
H177	H	0.791846	-0.402228	0.962355
H178	H	1.291846	0.097772	1.462355
H179	H	0.807565	-0.432702	0.867189
H180	H	1.307565	0.067298	1.367189
O181	O	1.063498	-0.240530	0.779269
O182	O	1.563498	0.259470	1.279269
C183	C	1.048749	-0.173068	0.798086
C184	C	1.548749	0.326932	1.298086
H185	H	0.994681	-0.169649	0.819201
H186	H	1.494681	0.330351	1.319201
H187	H	1.054589	-0.139637	0.747556
H188	H	1.554589	0.360363	1.247556
H189	H	1.085050	-0.155368	0.842715
H190	H	1.585050	0.344632	1.342715
H191	H	0.364706	-0.404714	0.439821
H192	H	0.864706	0.095286	0.939821
O193	O	1.063492	-0.240520	0.930780
O194	O	1.563492	0.259480	1.430780
C195	C	1.024984	-0.196800	0.975252
C196	C	1.524984	0.303200	1.475252
H197	H	0.971675	-0.192626	0.952079
H198	H	1.471675	0.307374	1.452079
H199	H	1.049489	-0.144711	0.976141
H200	H	1.549489	0.355289	1.476141
H201	H	1.022651	-0.217710	1.033496
H202	H	1.522651	0.282290	1.533496
H203	H	0.236456	-0.247442	0.269372
H204	H	0.736456	0.252558	0.769372
O205	O	0.586697	-0.240516	0.262039
O206	O	1.086697	0.259484	0.762039
C207	C	0.604017	-0.173076	0.278245
C208	C	1.104017	0.326924	0.778245
H209	H	0.623471	-0.169728	0.337043
H210	H	1.123471	0.330272	0.837043
H211	H	0.557542	-0.139631	0.271973
H212	H	1.057542	0.360369	0.771973
H213	H	0.645042	-0.155335	0.238823
H214	H	1.145042	0.344665	0.738823
O215	O	0.370143	-0.240599	0.261913
O216	O	0.870143	0.259401	0.761913
C217	C	0.323784	-0.202337	0.220469
C218	C	0.823784	0.297663	0.720469
H219	H	0.273387	-0.230067	0.217867
H220	H	0.773387	0.269933	0.717867
H221	H	0.344187	-0.195039	0.162500
H222	H	0.844187	0.304961	0.662500
H223	H	0.316291	-0.150968	0.247527
H224	H	0.816291	0.349032	0.747527
H225	H	0.899670	-1.067729	0.439960
H226	H	1.399670	-0.567729	0.939960
O227	O	1.063668	-0.717479	0.262039
O228	O	1.563668	-0.217479	0.762039
C229	C	1.107365	-0.758242	0.304076
C230	C	1.607365	-0.258242	0.804076
H231	H	1.111366	-0.736899	0.362049
H232	H	1.611366	-0.236899	0.862049
H233	H	1.159517	-0.758921	0.277621
H234	H	1.659517	-0.258921	0.777621
H235	H	1.086548	-0.811868	0.306548
H236	H	1.586548	-0.311868	0.806548
H237	H	0.899626	-0.939492	0.439936
H238	H	1.399626	-0.439492	0.939936
O239	O	0.892763	-0.717626	0.447210
O240	O	1.392763	-0.217626	0.947210
C241	C	0.902084	-0.787594	0.437153
C242	C	1.402084	-0.287594	0.937153
H243	H	0.924285	-0.797266	0.380383
H244	H	1.424285	-0.297266	0.880383
H245	H	0.851391	-0.814495	0.442096
H246	H	1.351391	-0.314495	0.942096
H247	H	0.938111	-0.807598	0.480845
H248	H	1.438111	-0.307598	0.980845
H249	H	0.899500	-0.583726	0.439868
H250	H	1.399500	-0.083726	0.939868
