data_functionalizedCrystal
_audit_creation_method	'MofGen! by Chris Wilmer'
_symmetry_space_group_name_H-M	'P1'
_symmetry_Int_Tables_number	1
_symmetry_cell_setting	triclinic
loop_
_symmetry_equiv_pos_as_xyz
  x,y,z
_cell_length_a	11.169417
_cell_length_b	16.120297
_cell_length_c	11.169416
_cell_angle_alpha	92.878536
_cell_angle_beta	90.011589
_cell_angle_gamma	92.881853
loop_
_atom_site_label
_atom_site_type_symbol
_atom_site_fract_x
_atom_site_fract_y
_atom_site_fract_z
Zn1	Zn	1.800523	-0.471341	-0.512205
Zn2	Zn	2.133856	-0.138008	-0.178871
Zn3	Zn	2.467190	0.195326	0.154462
Zn4	Zn	1.810598	-0.331943	-0.702732
Zn5	Zn	2.143931	0.001390	-0.369398
Zn6	Zn	2.477264	0.334724	-0.036065
Zn7	Zn	1.609993	-0.331952	-0.502066
Zn8	Zn	1.943327	0.001381	-0.168733
Zn9	Zn	2.276660	0.334714	0.164600
Zn10	Zn	1.599818	-0.471319	-0.712847
Zn11	Zn	1.933151	-0.137985	-0.379514
Zn12	Zn	2.266485	0.195348	-0.046180
O13	O	1.705233	-0.401639	-0.607462
O14	O	2.038566	-0.068305	-0.274129
O15	O	2.371900	0.265028	0.059204
O16	O	1.969809	-0.452855	-0.537488
O17	O	2.303142	-0.119522	-0.204155
O18	O	2.636475	0.213812	0.129179
O19	O	1.792462	-0.215281	-0.667637
O20	O	2.125795	0.118053	-0.334303
O21	O	2.459129	0.451386	-0.000970
O22	O	1.635310	-0.350456	-0.335462
O23	O	1.968643	-0.017122	-0.002129
O24	O	2.301976	0.316211	0.331204
O25	O	1.977210	-0.350440	-0.677467
O26	O	2.310544	-0.017107	-0.344134
O27	O	2.643877	0.316227	-0.010801
O28	O	1.775291	-0.452864	-0.342911
O29	O	2.108624	-0.119531	-0.009578
O30	O	2.441958	0.213803	0.323756
O31	O	1.645079	-0.215287	-0.520209
O32	O	1.978412	0.118046	-0.186875
O33	O	2.311746	0.451379	0.146458
O34	O	1.440694	-0.350434	-0.530017
O35	O	1.774028	-0.017101	-0.196684
O36	O	2.107361	0.316232	0.136649
O37	O	1.617967	-0.587986	-0.694708
O38	O	1.951300	-0.254652	-0.361374
O39	O	2.284634	0.078681	-0.028041
O40	O	1.433218	-0.452826	-0.684877
O41	O	1.766552	-0.119493	-0.351544
O42	O	2.099885	0.213841	-0.018210
O43	O	1.765424	-0.588002	-0.547297
O44	O	2.098757	-0.254669	-0.213963
O45	O	2.432091	0.078665	0.119370
O46	O	1.782595	-0.350418	-0.872022
O47	O	2.115928	-0.017085	-0.538689
O48	O	2.449262	0.316248	-0.205356
O49	O	1.627736	-0.452817	-0.879454
O50	O	1.961069	-0.119484	-0.546121
O51	O	2.294403	0.213850	-0.212787
C52	C	1.393409	-0.401629	-0.607446
C53	C	1.726742	-0.068296	-0.274112
C54	C	2.060076	0.265037	0.059221
C55	C	1.260008	-0.401645	-0.607469
C56	C	1.593341	-0.068312	-0.274135
C57	C	1.926674	0.265022	0.059198
C58	C	1.689437	-0.619089	-0.623261
C59	C	2.022770	-0.285756	-0.289928
C60	C	2.356103	0.047578	0.043405
C61	C	1.682705	-0.711753	-0.629994
C62	C	2.016039	-0.378420	-0.296661
C63	C	2.349372	-0.045087	0.036673
C64	C	1.670371	-0.881412	-0.642259
C65	C	2.003705	-0.548079	-0.308926
C66	C	2.337038	-0.214746	0.024407
C67	C	1.740331	-0.922717	-0.572306
C68	C	2.073664	-0.589384	-0.238972
C69	C	2.406998	-0.256050	0.094361
C70	C	1.733468	-1.017121	-0.579130
C71	C	2.066802	-0.683788	-0.245797
C72	C	2.400135	-0.350454	0.087536
C73	C	1.677232	-0.787000	-0.635437
C74	C	2.010566	-0.453666	-0.302103
C75	C	2.343899	-0.120333	0.031230
C76	C	2.018274	-0.401649	-0.607480
C77	C	2.351608	-0.068316	-0.274147
C78	C	2.684941	0.265018	0.059186
C79	C	2.151674	-0.401653	-0.607488
C80	C	2.485007	-0.068320	-0.274155
C81	C	2.818341	0.265013	0.059179
C82	C	1.705186	-0.401632	-0.919287
C83	C	2.038519	-0.068299	-0.585953
C84	C	2.371852	0.265034	-0.252620
C85	C	1.705273	-0.401658	-1.052688
C86	C	2.038607	-0.068324	-0.719355
C87	C	2.371940	0.265009	-0.386022
C88	C	1.721037	-0.185034	-0.591638
C89	C	2.054370	0.148299	-0.258305
C90	C	2.387703	0.481632	0.075029
C91	C	1.728001	-0.092371	-0.584567
C92	C	2.061334	0.240963	-0.251234
C93	C	2.394667	0.574296	0.082099
C94	C	1.705312	-0.401663	-0.294422
C95	C	2.038645	-0.068330	0.038911
C96	C	2.371978	0.265003	0.372245
C97	C	1.705345	-0.401674	-0.161023
C98	C	2.038678	-0.068341	0.172311
C99	C	2.372012	0.264993	0.505644
H100	H	1.805378	-0.887180	-0.507290
H101	H	2.138712	-0.553846	-0.173956
H102	H	2.472045	-0.220513	0.159377
H103	H	1.605329	-0.916948	-0.707270
H104	H	1.938662	-0.583614	-0.373937
H105	H	2.271996	-0.250281	-0.040603
