data_functionalizedCrystal
_audit_creation_method	'MofGen! by Chris Wilmer'
_symmetry_space_group_name_H-M	'P1'
_symmetry_Int_Tables_number	1
_symmetry_cell_setting	triclinic
loop_
_symmetry_equiv_pos_as_xyz
  x,y,z
_cell_length_a	12.759401
_cell_length_b	19.076919
_cell_length_c	19.077569
_cell_angle_alpha	94.529709
_cell_angle_beta	87.685740
_cell_angle_gamma	87.669949
loop_
_atom_site_label
_atom_site_type_symbol
_atom_site_fract_x
_atom_site_fract_y
_atom_site_fract_z
Zn1	Zn	1.613438	0.264675	-0.387299
Zn2	Zn	1.598584	0.387307	-0.264666
Zn3	Zn	1.430399	0.269430	-0.269424
Zn4	Zn	1.430320	0.382535	-0.382517
O5	O	1.518185	0.325987	-0.325976
O6	O	1.758488	0.280950	-0.371041
O7	O	1.570090	0.375657	-0.166645
O8	O	1.460929	0.170142	-0.289053
O9	O	1.747575	0.371047	-0.280943
O10	O	1.595407	0.166649	-0.375655
O11	O	1.446525	0.289053	-0.170141
O12	O	1.283367	0.284426	-0.284417
O13	O	1.460795	0.362914	-0.481803
O14	O	1.283310	0.367524	-0.367505
O15	O	1.595330	0.276323	-0.485317
O16	O	1.570014	0.485331	-0.276307
O17	O	1.446392	0.481825	-0.362891
C18	C	1.245218	0.325974	-0.325959
C19	C	1.128441	0.325984	-0.325967
C20	C	0.958164	0.372843	-0.279019
C21	C	1.067887	0.372831	-0.279000
C22	C	1.079265	0.279142	-0.372952
C23	C	0.969544	0.279152	-0.372968
C24	C	0.951595	0.426935	-0.224779
C25	C	1.061319	0.426923	-0.224759
C26	C	1.506612	0.509158	-0.318579
C27	C	1.501758	0.587518	-0.315438
C28	C	1.569445	0.622451	-0.359088
C29	C	1.564881	0.696079	-0.356138
C30	C	1.492633	0.734773	-0.309534
C31	C	1.424939	0.699834	-0.265882
C32	C	1.429499	0.626208	-0.268836
C33	C	1.471487	0.955174	-0.295863
C34	C	1.466934	1.028806	-0.292910
C35	C	1.606875	1.025046	-0.383167
C36	C	1.611433	0.951418	-0.386114
C37	C	1.543735	0.916486	-0.342465
N38	N	1.487968	0.810032	-0.306516
N39	N	1.548396	0.841228	-0.345488
C40	C	1.792219	0.326000	-0.325995
C41	C	1.908995	0.326006	-0.326002
C42	C	1.529711	0.318555	-0.509855
C43	C	1.534622	0.315389	-0.588213
C44	C	1.529789	1.142100	-0.333411
C45	C	1.534621	1.063739	-0.336560
C46	C	1.466886	0.358981	-0.623197
C47	C	1.471510	0.356005	-0.696823
C48	C	1.543865	0.309434	-0.735462
C49	C	1.611609	0.265840	-0.700472
C50	C	1.606990	0.268819	-0.626848
C51	C	1.565197	0.295692	-0.955852
C52	C	1.569809	0.292714	-1.029481
C53	C	1.429710	0.382881	-1.025827
C54	C	1.425093	0.385853	-0.952201
C55	C	1.492840	0.342262	-0.917218
N56	N	1.548591	0.306390	-0.810720
N57	N	1.488119	0.345310	-0.841961
C58	C	1.506768	0.333338	-0.142816
C59	C	1.502072	0.336306	-0.064466
H60	H	0.915522	0.478048	-0.242161
H61	H	1.416367	0.926739	-0.260321
O62	O	1.347025	0.741563	-0.215605
H63	H	1.355236	0.798630	-0.220874
O64	O	0.908801	0.410373	-0.153285
H65	H	0.974867	0.402249	-0.118273
H66	H	1.620007	0.724518	-0.391677
H67	H	1.366189	0.423788	-0.920745
H68	H	1.374555	0.418371	-1.054319
H69	H	1.662148	0.233322	-0.598364
H70	H	1.416353	0.391504	-0.725304
H71	H	1.628726	0.254783	-1.060940
H72	H	1.088574	0.480957	-0.237086
O73	O	1.356503	0.588524	-0.221752
H74	H	1.305507	0.627798	-0.188843
O75	O	1.638262	0.248677	-0.918123
H76	H	1.689343	0.215790	-0.957363
O77	O	1.689637	0.215607	-0.742158
H78	H	1.770449	0.228273	-0.727557
H79	H	1.628281	0.590952	-0.397035
O80	O	0.916507	0.228628	-0.423634
H81	H	0.977046	0.196051	-0.456291
H82	H	1.093312	0.409379	-0.173711
O83	O	1.689392	0.909698	-0.436366
H84	H	1.673924	0.921574	-0.491124
O85	O	1.144569	0.228610	-0.423610
H86	H	1.229127	0.236473	-0.415709
H87	H	1.661990	1.053495	-0.418704
O88	O	1.388999	1.070544	-0.242648
H89	H	1.342682	1.033885	-0.212797
H90	H	1.407954	0.396896	-0.591743
