data_functionalizedCrystal
_audit_creation_method	'MofGen! by Chris Wilmer'
_symmetry_space_group_name_H-M	'P1'
_symmetry_Int_Tables_number	1
_symmetry_cell_setting	triclinic
loop_
_symmetry_equiv_pos_as_xyz
  x,y,z
_cell_length_a	16.109301
_cell_length_b	12.837942
_cell_length_c	14.586319
_cell_angle_alpha	89.996741
_cell_angle_beta	89.999213
_cell_angle_gamma	89.145211
loop_
_atom_site_label
_atom_site_type_symbol
_atom_site_fract_x
_atom_site_fract_y
_atom_site_fract_z
O1	O	1.113716	0.133240	-0.076181
O2	O	0.872971	0.149822	-0.076196
O3	O	0.988005	-0.009370	-0.076183
O4	O	0.998682	0.292432	-0.076194
O5	O	0.987996	-0.009372	0.076298
O6	O	0.872962	0.149819	0.076285
O7	O	1.113707	0.133238	0.076299
Cu8	Cu	0.993333	0.141528	0.090215
Cu9	Cu	0.993344	0.141531	-0.090111
O10	O	0.998673	0.292430	0.076287
C11	C	0.841938	0.149149	0.000043
C12	C	0.749483	0.147135	0.000037
C13	C	0.534343	0.236914	0.000045
C14	C	0.447471	0.235014	0.000051
C15	C	0.452341	0.046138	0.000054
C16	C	0.539211	0.048040	0.000054
C17	C	0.580209	0.143431	0.000045
C18	C	0.406468	0.139629	0.000050
C19	C	0.312278	0.137568	0.000057
C20	C	0.674405	0.145492	0.000040
C21	C	0.984394	-0.047991	0.000056
C22	C	0.973637	-0.163064	0.000054
C23	C	1.102954	-0.404066	0.000043
C24	C	1.092851	-0.512188	0.000041
C25	C	0.943328	-0.487433	0.000041
C26	C	0.953431	-0.379311	0.000043
C27	C	1.033247	-0.337632	0.000046
C28	C	1.043349	-0.229507	0.000054
C29	C	0.893827	-0.204754	0.000048
C30	C	0.883724	-0.312876	0.000046
C31	C	1.144739	0.133911	0.000059
C32	C	1.237195	0.135924	0.000058
C33	C	1.002284	0.331050	0.000045
C34	C	1.013041	0.446124	0.000041
N35	N	0.993332	0.141526	0.217047
N36	N	0.993352	0.141526	-0.216943
C37	C	1.044290	0.071059	0.452059
C38	C	1.044292	0.071057	0.548040
C39	C	0.942388	0.211995	0.548038
C40	C	0.942382	0.211992	0.452059
C41	C	0.993338	0.141525	0.404071
C42	C	0.993346	0.141526	0.596032
C43	C	0.993348	0.141524	0.700099
C44	C	0.993335	0.141526	0.299998
H45	H	0.576557	-0.028091	0.000057
C46	C	0.407240	-0.058788	0.000057
C47	C	0.457695	-0.161619	0.000063
C48	C	0.412597	-0.266548	0.000065
C49	C	0.317044	-0.268645	0.000061
C50	C	0.266583	-0.165810	0.000056
C51	C	0.311682	-0.060881	0.000054
H52	H	0.528434	-0.160070	0.000065
H53	H	0.449951	-0.342673	0.000069
H54	H	0.283659	-0.346319	0.000063
H55	H	0.195844	-0.167359	0.000053
H56	H	0.274327	0.015244	0.000049
H57	H	1.167943	-0.370130	0.000054
C58	C	0.886346	0.289515	0.600825
C59	C	0.886398	0.289584	0.706398
C60	C	0.830356	0.367109	0.759182
C61	C	0.774262	0.444564	0.706391
C62	C	0.774207	0.444497	0.600812
C63	C	0.830249	0.366973	0.548028
H64	H	0.927925	0.232245	0.745482
H65	H	0.830397	0.367157	0.837339
H66	H	0.732776	0.501952	0.745464
H67	H	0.732680	0.501837	0.561728
H68	H	0.830208	0.366924	0.469871
H69	H	0.567721	0.314588	0.000044
H70	H	0.410130	0.311138	0.000052
H71	H	1.108339	-0.195574	0.000059
C72	C	1.169530	-0.585268	0.000042
C73	C	1.232593	-0.580620	0.079222
C74	C	1.309276	-0.653700	0.079221
C75	C	1.322895	-0.731428	0.000040
C76	C	1.259829	-0.736079	-0.079146
C77	C	1.183147	-0.662999	-0.079145
H78	H	1.222513	-0.523078	0.137842
H79	H	1.355961	-0.650256	0.137840
H80	H	1.379659	-0.785526	0.000040
H81	H	1.269909	-0.793620	-0.137765
H82	H	1.136462	-0.666442	-0.137764
H83	H	0.878346	-0.521388	0.000030
H84	H	0.818741	-0.346827	0.000041
C85	C	1.100332	-0.006460	0.399272
C86	C	1.089583	-0.124502	0.412479
C87	C	1.145625	-0.202027	0.359696
C88	C	1.212416	-0.161509	0.293706
C89	C	1.223168	-0.043461	0.280496
C90	C	1.167126	0.034064	0.333279
H91	H	1.040138	-0.154501	0.461332
H92	H	1.137665	-0.289414	0.369475
H93	H	1.253902	-0.218897	0.254632
H94	H	1.272614	-0.013462	0.231643
H95	H	1.175086	0.121451	0.323499
H96	H	0.837067	-0.150651	0.000058
C97	C	1.100342	-0.006454	0.600827
C98	C	1.156397	-0.083953	0.548041
C99	C	1.212449	-0.161468	0.600828
C100	C	1.212446	-0.161484	0.706402
C101	C	1.156389	-0.083982	0.759194
C102	C	1.100337	-0.006467	0.706407
H103	H	1.156401	-0.083943	0.469883
H104	H	1.253945	-0.218840	0.561747
H105	H	1.253939	-0.218865	0.745478
H106	H	1.156385	-0.083991	0.837351
H107	H	1.058841	0.050905	0.745488
H108	H	0.900887	0.269375	0.412985
