data_functionalizedCrystal
_audit_creation_method	'MofGen! by Chris Wilmer'
_symmetry_space_group_name_H-M	'P1'
_symmetry_Int_Tables_number	1
_symmetry_cell_setting	triclinic
loop_
_symmetry_equiv_pos_as_xyz
  x,y,z
_cell_length_a	12.594517
_cell_length_b	12.594516
_cell_length_c	14.908308
_cell_angle_alpha	93.270509
_cell_angle_beta	93.276844
_cell_angle_gamma	90.017605
loop_
_atom_site_label
_atom_site_type_symbol
_atom_site_fract_x
_atom_site_fract_y
_atom_site_fract_z
Zn1	Zn	1.592490	-0.458472	-0.510145
Zn2	Zn	1.602653	-0.626208	-0.359300
Zn3	Zn	1.424772	-0.448242	-0.359301
Zn4	Zn	1.414472	-0.636404	-0.510105
O5	O	1.508597	-0.542332	-0.434713
O6	O	1.742783	-0.480736	-0.490152
O7	O	1.587621	-0.594052	-0.233058
O8	O	1.447078	-0.300655	-0.379328
O9	O	1.750249	-0.603971	-0.379326
O10	O	1.570299	-0.308170	-0.490153
O11	O	1.456933	-0.463302	-0.233059
O12	O	1.274461	-0.473188	-0.379289
O13	O	1.429523	-0.621349	-0.636352
O14	O	1.266894	-0.611430	-0.490084
O15	O	1.560312	-0.490623	-0.636382
O16	O	1.577633	-0.776505	-0.379287
O17	O	1.439377	-0.783996	-0.490083
C18	C	1.232058	-0.542306	-0.434683
C19	C	1.113752	-0.542323	-0.434691
C20	C	0.977811	-0.467064	-0.374567
C21	C	1.043061	-0.446738	-0.456888
C22	C	1.050073	-0.562602	-0.352379
C23	C	0.968209	-0.521995	-0.517121
C24	C	0.975218	-0.637901	-0.412557
C25	C	1.040433	-0.617615	-0.494935
C26	C	1.508518	-0.818872	-0.434700
C27	C	1.508579	-0.937179	-0.434725
C28	C	1.433442	-1.081307	-0.494957
C29	C	1.528969	-1.011904	-0.517092
C30	C	1.413060	-1.005013	-0.412630
C31	C	1.604326	-1.078567	-0.456936
C32	C	1.488354	-1.071679	-0.352437
C33	C	1.583950	-1.002306	-0.374541
C34	C	1.786216	-0.542358	-0.434744
C35	C	1.904520	-0.542369	-0.434757
C36	C	1.492635	-0.558265	-0.670015
C37	C	1.485832	-0.565054	-0.770287
C38	C	1.508704	-0.264713	-0.434745
C39	C	1.508750	-0.146408	-0.434759
C40	C	1.609238	-0.441663	-0.958741
C41	C	1.602850	-0.448039	-1.052956
C42	C	1.466664	-0.584176	-1.052932
C43	C	1.473052	-0.577800	-0.958718
C44	C	1.544342	-0.506542	-0.911626
C45	C	1.550735	-0.500173	-0.817409
C46	C	1.414544	-0.636304	-0.817387
C47	C	1.408157	-0.642679	-0.911602
C48	C	1.524558	-0.526384	-0.200326
C49	C	1.531567	-0.519294	-0.100054
H50	H	1.067861	-0.681283	-0.545866
C51	C	1.687662	-0.363285	-0.906938
N52	N	1.746731	-0.304248	-0.867921
C53	C	1.303831	-0.961432	-0.387361
N54	N	1.221558	-0.928612	-0.368334
C55	C	1.083390	-0.337571	-0.482223
N56	N	1.113763	-0.255343	-0.501299
H57	H	1.369901	-1.115860	-0.545917
C58	C	1.343155	-0.707676	-0.765553
N59	N	1.289388	-0.761435	-0.726510
H60	H	1.408623	-0.642190	-1.091291
H61	H	1.608785	-0.442152	-0.779068
H62	H	1.655692	-0.395205	-1.091314
H63	H	1.685196	-1.110703	-0.475719
C64	C	1.329733	-0.721051	-0.963414
N65	N	1.270663	-0.780082	-1.002438
H66	H	0.950179	-0.403360	-0.323758
H67	H	1.647631	-0.967949	-0.323619
H68	H	0.932562	-0.504768	-0.586779
H69	H	1.546155	-0.985465	-0.586695
C70	C	1.465093	-1.107440	-0.258434
N71	N	1.447560	-1.134378	-0.187632
C72	C	1.098400	-0.585753	-0.258301
N73	N	1.134796	-0.603183	-0.187440
C74	C	0.934854	-0.747032	-0.387185
N75	N	0.904449	-0.829229	-0.368063
