data_functionalizedCrystal
_audit_creation_method	'MofGen! by Chris Wilmer'
_symmetry_space_group_name_H-M	'P1'
_symmetry_Int_Tables_number	1
_symmetry_cell_setting	triclinic
loop_
_symmetry_equiv_pos_as_xyz
  x,y,z
_cell_length_a	8.634740
_cell_length_b	19.188924
_cell_length_c	7.681481
_cell_angle_alpha	84.275467
_cell_angle_beta	96.618670
_cell_angle_gamma	91.856135
loop_
_atom_site_label
_atom_site_type_symbol
_atom_site_fract_x
_atom_site_fract_y
_atom_site_fract_z
O1	O	2.029892	0.233163	-0.146461
O2	O	1.581070	0.214083	-0.146460
O3	O	1.818441	0.122856	-0.146440
O4	O	1.792522	0.324390	-0.146481
O5	O	1.847657	0.111597	0.146421
O6	O	1.610287	0.202824	0.146400
O7	O	2.059109	0.221904	0.146400
Zn8	Zn	1.839337	0.210577	0.192898
Zn9	Zn	1.800842	0.225410	-0.192958
O10	O	1.821738	0.313132	0.146379
C11	C	1.538258	0.204131	-0.000030
C12	C	1.367162	0.191244	-0.000029
C13	C	1.832212	0.091158	-0.000008
C14	C	1.829698	0.013480	-0.000003
C15	C	1.812599	-0.016862	-0.159642
C16	C	1.810214	-0.089848	-0.159655
C17	C	1.824960	-0.132489	-0.000021
C18	C	1.842053	-0.102138	0.159639
C19	C	1.844422	-0.029154	0.159648
N20	N	1.920806	-0.250953	0.118791
N21	N	1.918557	-0.320285	0.118772
C22	C	1.817819	-0.352387	-0.000038
N23	N	1.719431	-0.312538	-0.118854
N24	N	1.721686	-0.243200	-0.118840
C25	C	1.822391	-0.211629	-0.000013
C26	C	1.798130	-0.461869	-0.159702
C27	C	1.795735	-0.534857	-0.159709
C28	C	1.827590	-0.547146	0.159590
C29	C	1.829969	-0.474159	0.159592
C30	C	1.815245	-0.431525	-0.000059
C31	C	2.101921	0.231856	-0.000035
C32	C	2.273015	0.244744	-0.000047
C33	C	1.807967	0.344830	-0.000056
C34	C	1.810479	0.422508	-0.000073
N35	N	1.865619	0.200454	0.456234
N36	N	1.774572	0.235529	-0.456295
H37	H	1.796280	-0.114558	-0.289656
H38	H	1.681632	0.271329	0.468500
O39	O	1.332789	0.311191	-0.000291
C40	C	1.267071	0.352013	-0.152003
H41	H	1.150587	0.327499	-0.202575
H42	H	1.247922	0.407333	-0.117907
H43	H	1.349560	0.354216	-0.258201
H44	H	1.786132	-0.427155	-0.289699
O45	O	1.306908	0.124880	-0.000102
C46	C	1.143763	0.126350	-0.000070
H47	H	1.100260	0.180428	-0.055524
H48	H	1.086077	0.085230	-0.085094
H49	H	1.113027	0.114580	0.140427
O50	O	1.798193	0.024448	-0.314879
C51	C	1.782627	-0.017989	-0.455784
H52	H	1.736825	-0.072208	-0.408985
H53	H	1.697358	0.006794	-0.567438
H54	H	1.901105	-0.022871	-0.504869
H55	H	1.781803	-0.559559	-0.289711
H56	H	1.854054	-0.136861	0.289614
O57	O	1.861239	0.000406	0.314617
C58	C	1.997048	0.043307	0.324199
H59	H	2.028074	0.059931	0.185594
H60	H	1.975443	0.091790	0.391770
H61	H	2.097442	0.012893	0.402982
O62	O	1.841666	-0.588626	0.314558
C63	C	1.707752	-0.632256	0.324105
H64	H	1.649101	-0.638216	0.185488
H65	H	1.742810	-0.685938	0.391697
H66	H	1.623062	-0.607895	0.402850
O67	O	1.976714	0.157828	0.545868
C68	C	2.124808	0.181082	0.500874
H69	H	2.120321	0.238947	0.450072
H70	H	2.214223	0.173602	0.622179
H71	H	2.159633	0.149500	0.393993
O72	O	1.846323	-0.444651	0.314623
C73	C	1.715209	-0.403855	0.324170
H74	H	1.612174	-0.423108	0.233577
H75	H	1.684530	-0.408822	0.465368
H76	H	1.742902	-0.346649	0.281289
