data_functionalizedCrystal
_audit_creation_method	'MofGen! by Chris Wilmer'
_symmetry_space_group_name_H-M	'P1'
_symmetry_Int_Tables_number	1
_symmetry_cell_setting	triclinic
loop_
_symmetry_equiv_pos_as_xyz
  x,y,z
_cell_length_a	17.038272
_cell_length_b	17.019294
_cell_length_c	16.098538
_cell_angle_alpha	88.846036
_cell_angle_beta	87.069734
_cell_angle_gamma	87.244363
loop_
_atom_site_label
_atom_site_type_symbol
_atom_site_fract_x
_atom_site_fract_y
_atom_site_fract_z
O1	O	1.041327	0.167431	-0.081157
O2	O	0.813690	0.164719	-0.080987
O3	O	0.933445	0.052057	-0.072891
O4	O	0.921573	0.280093	-0.089254
O5	O	0.926449	0.058611	0.065151
O6	O	0.806695	0.171273	0.057055
O7	O	1.034332	0.173985	0.056885
Zn8	Zn	0.919402	0.173669	0.078887
Zn9	Zn	0.928619	0.165035	-0.102989
O10	O	0.914577	0.286647	0.048788
C11	C	0.781057	0.165531	-0.011792
C12	C	0.694245	0.158175	-0.011274
C13	C	0.929359	0.026012	-0.001768
C14	C	0.927597	-0.061357	0.004496
C15	C	0.644318	0.225705	-0.016119
C16	C	0.562747	0.218790	-0.015612
C17	C	0.531106	0.144344	-0.010265
C18	C	0.581039	0.076809	-0.005417
C19	C	0.662607	0.083725	-0.005919
C20	C	0.285279	0.119910	-0.008489
C21	C	0.203704	0.112999	-0.007990
C22	C	0.185418	0.254981	-0.018183
C23	C	0.266989	0.261890	-0.018690
C24	C	0.316915	0.194355	-0.013838
C25	C	0.447728	0.137273	-0.009748
C26	C	0.400291	0.201427	-0.014348
C27	C	0.930585	-0.105972	-0.067808
C28	C	0.928924	-0.188065	-0.061920
C29	C	0.924282	-0.225542	0.016272
C30	C	0.921292	-0.180921	0.088581
C31	C	0.922947	-0.098830	0.082692
C32	C	0.919090	-0.473227	0.037815
C33	C	0.917437	-0.555325	0.043698
C34	C	0.925068	-0.562462	-0.106803
C35	C	0.926727	-0.480369	-0.112685
C36	C	0.923733	-0.435755	-0.040376
C37	C	0.922587	-0.309454	0.022292
C38	C	0.925422	-0.351844	-0.046397
C39	C	1.066964	0.173173	-0.012312
C40	C	1.153777	0.180529	-0.012835
C41	C	0.918663	0.312692	-0.022336
C42	C	0.920425	0.400061	-0.028605
N43	N	0.913118	0.179562	0.203013
N44	N	0.934910	0.159136	-0.227115
C45	C	0.963965	0.131763	0.250033
C46	C	0.959576	0.135893	0.336925
C47	C	0.904343	0.187827	0.376795
C48	C	0.853490	0.235628	0.329769
C49	C	0.857876	0.231493	0.242878
C50	C	0.888443	0.202802	0.638969
C51	C	0.884063	0.206935	0.725865
C52	C	0.990148	0.107199	0.733016
C53	C	0.994532	0.103072	0.646123
C54	C	0.943677	0.150870	0.599105
C55	C	0.899857	0.192052	0.465613
C56	C	0.948160	0.146641	0.510289
H57	H	0.670073	0.286327	-0.020474
Cl58	Cl	0.499985	0.303689	-0.021708
H59	H	0.934369	-0.075464	-0.131480
Cl60	Cl	0.122650	0.339876	-0.024280
Cl61	Cl	1.063970	0.037785	0.596001
Cl62	Cl	0.928830	-0.618552	-0.197700
Cl63	Cl	0.541261	-0.016782	0.001310
H64	H	0.703258	0.028734	-0.001974
H65	H	0.292746	0.322512	-0.023053
H66	H	0.426057	0.262041	-0.018697
Cl67	Cl	0.407943	0.043686	-0.003031
Cl68	Cl	0.911606	-0.602438	0.142005
H69	H	0.916667	-0.436913	0.096695
Cl70	Cl	0.932682	-0.244148	-0.152821
Cl71	Cl	0.932566	-0.433261	-0.210987
H72	H	0.993128	0.104353	0.477825
H73	H	0.854886	0.234339	0.498082
Cl74	Cl	0.915446	-0.228035	0.186880
H75	H	0.929197	-0.321326	-0.110060
Cl76	Cl	0.163927	0.019403	-0.001249
H77	H	0.839083	0.249229	0.758323
H78	H	0.920503	-0.062505	0.141570
H79	H	0.918810	-0.339977	0.085956
H80	H	1.008945	0.089477	0.217576
Cl81	Cl	1.023499	0.075801	0.396038
H82	H	1.031552	0.068283	0.771306
H83	H	0.847036	0.241723	0.600693
Cl84	Cl	0.348032	0.035008	-0.002390
Cl85	Cl	0.784049	0.300913	0.379889
Cl86	Cl	0.793947	0.291583	0.183768
