data_functionalizedCrystal
_audit_creation_method	'MofGen! by Chris Wilmer'
_symmetry_space_group_name_H-M	'P1'
_symmetry_Int_Tables_number	1
_symmetry_cell_setting	triclinic
loop_
_symmetry_equiv_pos_as_xyz
  x,y,z
_cell_length_a	14.044220
_cell_length_b	14.044220
_cell_length_c	13.101039
_cell_angle_alpha	93.659868
_cell_angle_beta	93.667477
_cell_angle_gamma	86.811122
loop_
_atom_site_label
_atom_site_type_symbol
_atom_site_fract_x
_atom_site_fract_y
_atom_site_fract_z
O1	O	0.225348	-1.281968	-0.085109
O2	O	0.725348	-0.781968	0.414891
O3	O	0.217041	-1.005298	-0.085135
O4	O	0.717041	-0.505298	0.414865
O5	O	0.082860	-1.139480	-0.085112
O6	O	0.582860	-0.639480	0.414888
O7	O	0.359530	-1.147787	-0.085132
O8	O	0.859530	-0.647787	0.414868
O9	O	0.092504	-1.129854	0.085316
O10	O	0.592504	-0.629854	0.585316
O11	O	0.226686	-0.995673	0.085293
O12	O	0.726686	-0.495673	0.585293
O13	O	0.234993	-1.272343	0.085319
O14	O	0.734993	-0.772343	0.585319
Zn15	Zn	0.232371	-1.132479	0.112365
Zn16	Zn	0.732371	-0.632479	0.612365
Zn17	Zn	0.219663	-1.145162	-0.112181
Zn18	Zn	0.719663	-0.645162	0.387819
O19	O	0.369175	-1.138161	0.085296
O20	O	0.869175	-0.638161	0.585296
C21	C	0.052060	-1.131031	0.000102
C22	C	0.552060	-0.631031	0.500102
C23	C	-0.054083	-1.120187	0.000102
C24	C	0.445917	-0.620187	0.500102
C25	C	0.218228	-0.964864	0.000076
C26	C	0.718228	-0.464864	0.500076
C27	C	0.207383	-0.858722	0.000066
C28	C	0.707383	-0.358722	0.500066
C29	C	0.233806	-1.312777	0.000106
C30	C	0.733806	-0.812777	0.500106
C31	C	0.244651	-1.418920	0.000109
C32	C	0.744651	-0.918920	0.500109
C33	C	-0.248421	-1.100362	0.000086
C34	C	0.251579	-0.600362	0.500086
C35	C	-0.299551	-1.177276	0.000090
C36	C	0.200449	-0.677276	0.500090
C37	C	-0.407688	-1.166245	0.000080
C38	C	0.092312	-0.666245	0.500080
C39	C	-0.140275	-1.111391	0.000095
C40	C	0.359725	-0.611391	0.500095
C41	C	0.399974	-1.146610	0.000080
C42	C	0.899974	-0.646610	0.500080
C43	C	0.506116	-1.157455	0.000073
C44	C	1.006116	-0.657455	0.500073
N45	N	0.241043	-1.123831	0.265612
N46	N	0.741043	-0.623831	0.765612
C47	C	0.187558	-0.664383	0.000088
C48	C	0.687558	-0.164383	0.500088
C49	C	0.264472	-0.613253	0.000087
C50	C	0.764472	-0.113253	0.500087
C51	C	0.253441	-0.505116	0.000099
C52	C	0.753441	-0.005116	0.500099
C53	C	0.198587	-0.772529	0.000076
C54	C	0.698587	-0.272529	0.500076
N55	N	0.210984	-1.153817	-0.265428
N56	N	0.710984	-0.653817	0.234572
C57	C	0.252851	-1.112065	0.474653
C58	C	0.752851	-0.612065	0.974653
C59	C	0.199179	-1.165580	0.525538
C60	C	0.699179	-0.665580	1.025538
C61	C	0.205749	-1.159034	0.641855
C62	C	0.705749	-0.659034	1.141855
C63	C	0.246282	-1.118610	0.358325
C64	C	0.746282	-0.618610	0.858325
H65	H	-0.285859	-1.026235	0.000076
H66	H	0.214141	-0.526235	0.500076
H67	H	0.148295	-1.216314	0.481744
H68	H	0.648295	-0.716314	0.981744
C69	C	0.320681	-1.044520	0.533223
C70	C	0.820681	-0.544520	1.033223
C71	C	0.313819	-1.051405	0.638619
C72	C	0.813819	-0.551405	1.138619
C73	C	0.376301	-0.989212	0.692618
C74	C	0.876301	-0.489212	1.192618
H75	H	0.304100	-0.980829	0.515834
H76	H	0.804100	-0.480829	1.015834
H77	H	0.384310	-1.061367	0.515757
H78	H	0.884310	-0.561367	1.015757
H79	H	0.250205	-1.034553	0.656077
H80	H	0.750205	-0.534553	1.156077
H81	H	0.330409	-1.115082	0.656038
H82	H	0.830409	-0.615082	1.156038
H83	H	0.439930	-1.006058	0.675152
H84	H	0.939930	-0.506058	1.175152
H85	H	0.359715	-0.925525	0.675221
H86	H	0.859715	-0.425525	1.175221
H87	H	0.371660	-0.993881	0.764134
H88	H	0.871660	-0.493881	1.264134
C89	C	0.363407	-0.662987	0.000115
C90	C	0.863407	-0.162987	0.500115
C91	C	0.432203	-0.594558	0.000136
C92	C	0.932203	-0.094558	0.500136
C93	C	0.523348	-0.640341	0.000171
C94	C	1.023348	-0.140341	0.500171
H95	H	0.367662	-0.705075	-0.059308
H96	H	0.867662	-0.205075	0.440692
H97	H	0.374319	-0.698365	0.059564
H98	H	0.874319	-0.198365	0.559564
H99	H	0.421294	-0.559196	-0.059307
H100	H	0.921294	-0.059196	0.440693
H101	H	0.427979	-0.552467	0.059555
H102	H	0.927979	-0.052467	0.559555
H103	H	0.534260	-0.675719	0.059620
H104	H	1.034260	-0.175719	0.559620
H105	H	0.527593	-0.682428	-0.059253
H106	H	1.027593	-0.182428	0.440747
H107	H	0.570037	-0.593919	0.000195
H108	H	1.070037	-0.093919	0.500195
C109	C	0.088725	-0.614429	-0.000120
C110	C	0.588725	-0.114429	0.499880
C111	C	0.072982	-0.562356	-0.087812
C112	C	0.572982	-0.062356	0.412188
C113	C	-0.018054	-0.516325	-0.088051
C114	C	0.481946	-0.016325	0.411949
H115	H	0.084492	-0.572263	0.059244
H116	H	0.584492	-0.072263	0.559244
H117	H	0.041878	-0.660700	-0.000181
H118	H	0.541878	-0.160700	0.499819
H119	H	0.119816	-0.516090	-0.087742
H120	H	0.619816	-0.016090	0.412258
H121	H	0.077196	-0.604500	-0.147191
H122	H	0.577196	-0.104500	0.352809
H123	H	-0.064901	-0.562596	-0.088111
H124	H	0.435099	-0.062596	0.411889
H125	H	-0.022279	-0.474164	-0.028682
H126	H	0.477721	0.025836	0.471318
H127	H	-0.028751	-0.480996	-0.147552
H128	H	0.471249	0.019004	0.352448
C129	C	-0.249457	-1.276042	0.000163
C130	C	0.250543	-0.776042	0.500163
C131	C	-0.150603	-1.267491	0.000198
C132	C	0.349397	-0.767491	0.500198
C133	C	-0.104421	-1.358448	0.000283
C134	C	0.395579	-0.858448	0.500283
H135	H	-0.270642	-1.313188	-0.059247
H136	H	0.229358	-0.813188	0.440753
H137	H	-0.263991	-1.306391	0.059625
H138	H	0.236009	-0.806391	0.559625
H139	H	-0.136076	-1.237155	-0.059258
H140	H	0.363924	-0.737155	0.440742
H141	H	-0.129391	-1.230362	0.059604
H142	H	0.370609	-0.730362	0.559604
H143	H	-0.118955	-1.388798	0.059744
H144	H	0.381045	-0.888798	0.559744
H145	H	-0.125614	-1.395587	-0.059129
H146	H	0.374386	-0.895587	0.440871
H147	H	-0.037344	-1.352659	0.000316
H148	H	0.462656	-0.852659	0.500316
