data_functionalizedCrystal
_audit_creation_method	'MofGen! by Chris Wilmer'
_symmetry_space_group_name_H-M	'P1'
_symmetry_Int_Tables_number	1
_symmetry_cell_setting	triclinic
loop_
_symmetry_equiv_pos_as_xyz
  x,y,z
_cell_length_a	16.992694
_cell_length_b	14.519709
_cell_length_c	15.455313
_cell_angle_alpha	92.669068
_cell_angle_beta	87.142206
_cell_angle_gamma	87.174184
loop_
_atom_site_label
_atom_site_type_symbol
_atom_site_fract_x
_atom_site_fract_y
_atom_site_fract_z
O1	O	1.044092	0.191795	-0.072025
O2	O	0.815805	0.189648	-0.072051
O3	O	0.936001	0.056918	-0.072029
O4	O	0.923896	0.324525	-0.072046
O5	O	0.929127	0.064474	0.072232
O6	O	0.808932	0.197205	0.072210
O7	O	1.037219	0.199352	0.072236
Cu8	Cu	0.922447	0.198968	0.085395
Cu9	Cu	0.930576	0.190031	-0.085210
O10	O	0.917023	0.332082	0.072215
C11	C	0.783152	0.190666	0.000077
C12	C	0.696097	0.182430	0.000067
C13	C	0.932000	0.026296	0.000101
C14	C	0.930309	-0.076207	0.000102
C15	C	0.645968	0.261890	0.000063
C16	C	0.564170	0.254147	0.000075
C17	C	0.532502	0.166943	0.000086
C18	C	0.582638	0.087478	0.000093
C19	C	0.664434	0.095222	0.000087
C20	C	0.288859	0.134847	0.000111
C21	C	0.207056	0.127109	0.000115
C22	C	0.188594	0.293779	0.000099
C23	C	0.270393	0.301515	0.000087
C24	C	0.320520	0.222050	0.000099
N25	N	0.448892	0.159027	0.000096
N26	N	0.404129	0.229968	0.000095
C27	C	0.924087	-0.451550	0.000078
C28	C	0.925815	-0.347118	0.000085
C29	C	0.927198	-0.263882	0.000091
C30	C	0.928926	-0.159443	0.000096
C31	C	1.069872	0.198333	0.000107
C32	C	1.156927	0.206569	0.000111
C33	C	0.921024	0.362704	0.000082
C34	C	0.922715	0.465206	0.000076
N35	N	0.916736	0.205254	0.205390
N36	N	0.936294	0.183739	-0.205204
C37	C	0.967817	0.148889	0.250793
C38	C	0.963505	0.153651	0.341600
C39	C	0.908115	0.214784	0.387002
C40	C	0.857028	0.271151	0.341593
C41	C	0.861337	0.266383	0.250787
C42	C	0.889516	0.235339	0.658581
C43	C	0.885212	0.240104	0.749392
C44	C	0.991689	0.122602	0.749393
C45	C	0.995996	0.117844	0.658586
C46	C	0.944907	0.174208	0.613185
N47	N	0.903708	0.219655	0.479822
N48	N	0.949311	0.169331	0.520367
H49	H	0.523358	0.318852	0.000071
H50	H	1.033283	0.076712	0.786368
C51	C	0.805148	0.328388	0.200841
C52	C	0.744247	0.395667	0.250779
C53	C	0.688053	0.457671	0.200834
C54	C	0.692760	0.452395	0.100952
C55	C	0.753664	0.385112	0.051008
C56	C	0.809858	0.323109	0.100953
H57	H	0.740761	0.399576	0.324723
H58	H	0.642968	0.507477	0.237806
H59	H	0.651162	0.498293	0.063980
H60	H	0.757150	0.381204	-0.022936
H61	H	0.854942	0.273302	0.063981
H62	H	0.296170	0.372525	0.000069
C63	C	0.343989	0.047434	0.000111
C64	C	0.336793	-0.018461	0.075023
C65	C	0.391927	-0.105880	0.075020
C66	C	0.454256	-0.127405	0.000106
C67	C	0.461455	-0.061509	-0.074811
C68	C	0.406321	0.025911	-0.074808
H69	H	0.290651	-0.002528	0.130483
H70	H	0.386597	-0.154661	0.130478
H71	H	0.495069	-0.192119	0.000104
H72	H	0.507597	-0.077442	-0.130271
H73	H	0.411651	0.074691	-0.130267
C74	C	0.172216	0.031182	0.000131
C75	C	0.114955	0.006880	0.075045
C76	C	0.080112	-0.089041	0.075059
C77	C	0.102531	-0.160660	0.000159
C78	C	0.159795	-0.136360	-0.074760
C79	C	0.194638	-0.040439	-0.074774
H80	H	0.098356	0.059898	0.130495
H81	H	0.037721	-0.107029	0.130520
H82	H	0.076738	-0.231666	0.000169
H83	H	0.176394	-0.189378	-0.130211
H84	H	0.237029	-0.022451	-0.130235
H85	H	0.671744	0.332900	0.000054
H86	H	1.041099	0.068065	0.621621
C87	C	0.824275	0.307353	0.799333
C88	C	0.735572	0.298499	0.786868
C89	C	0.674639	0.365746	0.836807
C90	C	0.702410	0.441847	0.899212
C91	C	0.791118	0.450703	0.911680
C92	C	0.852051	0.383456	0.861740
H93	H	0.715010	0.242162	0.740670
H94	H	0.608972	0.359190	0.827577
H95	H	0.657304	0.491627	0.936180
H96	H	0.811680	0.507040	0.957878
H97	H	0.917718	0.390013	0.870970
H98	H	0.147771	0.358475	0.000091
H99	H	0.556847	0.016475	0.000114
H100	H	0.705249	0.030517	0.000090
H101	H	1.012925	0.099112	0.213832
H102	H	1.005099	0.107754	0.378567
H103	H	0.847918	0.281234	0.621622
H104	H	0.811924	0.320923	0.378565
