data_functionalizedCrystal
_audit_creation_method	'MofGen! by Chris Wilmer'
_symmetry_space_group_name_H-M	'P1'
_symmetry_Int_Tables_number	1
_symmetry_cell_setting	triclinic
loop_
_symmetry_equiv_pos_as_xyz
  x,y,z
_cell_length_a	17.699104
_cell_length_b	12.503572
_cell_length_c	17.699083
_cell_angle_alpha	93.515225
_cell_angle_beta	83.287266
_cell_angle_gamma	86.486892
loop_
_atom_site_label
_atom_site_type_symbol
_atom_site_fract_x
_atom_site_fract_y
_atom_site_fract_z
O1	O	-1.008441	0.089365	-0.091398
O2	O	-0.788064	0.089358	-0.103834
O3	O	-0.904478	0.089353	0.012572
O4	O	-0.892027	0.089371	-0.207804
O5	O	-0.895723	-0.089289	0.003803
O6	O	-0.779309	-0.089283	-0.112603
O7	O	-0.999685	-0.089276	-0.100167
Cu8	Cu	-0.888698	-0.105591	-0.107186
Cu9	Cu	-0.899052	0.105673	-0.096815
O10	O	-0.883272	-0.089270	-0.216573
C11	C	-0.755490	0.000037	-0.107770
C12	C	-0.671472	0.000034	-0.106426
C13	C	-0.146602	0.000039	-0.167169
C14	C	-0.225546	0.000044	-0.168428
C15	C	-0.274163	0.000039	-0.100093
C16	C	-0.243833	0.000040	-0.030494
C17	C	-0.164891	0.000043	-0.029236
C18	C	-0.562199	0.000030	-0.035568
C19	C	-0.641146	0.000024	-0.036832
C20	C	-0.622853	0.000031	-0.174760
C21	C	-0.543911	0.000034	-0.173502
C22	C	-0.513589	0.000041	-0.103903
C23	C	-0.427989	0.000038	-0.102539
C24	C	-0.359761	0.000035	-0.101457
N25	N	-0.881421	-0.254183	-0.114479
C26	C	-0.870716	-0.473298	-0.125214
C27	C	-0.917037	-0.526627	-0.078783
C28	C	-0.911080	-0.648550	-0.084756
C29	C	-0.876672	-0.351364	-0.119242
C30	C	-0.032260	0.000043	-0.096231
C31	C	-0.116277	0.000037	-0.097576
C32	C	-0.899654	0.000032	0.036385
C33	C	-0.898316	0.000031	0.120403
N34	N	-0.906335	0.254265	-0.089516
C35	C	-0.888095	0.000053	-0.240386
C36	C	-0.889434	0.000060	-0.324403
C37	C	-0.966648	0.000032	0.169019
C38	C	-0.965387	0.000041	0.247963
C39	C	-0.895791	0.000042	0.278289
C40	C	-0.827453	0.000045	0.229667
C41	C	-0.828716	0.000043	0.150725
C42	C	-0.822358	0.000054	0.548031
C43	C	-0.821100	0.000052	0.626979
C44	C	-0.959029	0.000052	0.645269
C45	C	-0.960292	0.000050	0.566327
C46	C	-0.891955	0.000058	0.517712
C47	C	-0.893324	0.000050	0.432112
C48	C	-0.894421	0.000043	0.363887
H49	H	-0.250232	0.000056	-0.225097
F50	F	-0.749628	0.000065	0.496301
F51	F	-0.974943	-0.466623	-0.021188
H52	H	-0.770787	0.000053	0.254365
H53	H	-0.764424	0.000051	0.651666
F54	F	-1.040722	0.000020	0.136751
F55	F	-1.031760	0.000047	0.697015
F56	F	-0.132618	0.000041	0.044835
H57	H	-0.826591	-0.519203	-0.169449
H58	H	-0.537520	0.000032	0.021103
H59	H	-0.504330	0.000033	-0.229147
H60	H	-0.773072	0.000043	0.111142
H61	H	-1.021030	0.000039	0.287543
F62	F	-1.034365	0.000050	0.534056
H63	H	-0.107022	0.000035	-0.222816
H64	H	-0.647551	0.000030	-0.231431
F65	F	-0.295578	0.000038	0.042233
F66	F	-0.692887	0.000020	0.035903
