data_functionalizedCrystal
_audit_creation_method	'MofGen! by Chris Wilmer'
_symmetry_space_group_name_H-M	'P1'
_symmetry_Int_Tables_number	1
_symmetry_cell_setting	triclinic
loop_
_symmetry_equiv_pos_as_xyz
  x,y,z
_cell_length_a	17.699083
_cell_length_b	10.723024
_cell_length_c	16.176319
_cell_angle_alpha	89.994397
_cell_angle_beta	89.998611
_cell_angle_gamma	83.875442
loop_
_atom_site_label
_atom_site_type_symbol
_atom_site_fract_x
_atom_site_fract_y
_atom_site_fract_z
O1	O	1.005074	0.157797	-0.068628
O2	O	1.505074	0.657797	0.431372
O3	O	0.784825	0.178327	-0.068655
O4	O	1.284825	0.678327	0.431345
O5	O	0.900030	-0.013601	-0.068638
O6	O	1.400030	0.486399	0.431362
O7	O	0.889869	0.349725	-0.068646
O8	O	1.389869	0.849725	0.431354
O9	O	0.900014	-0.013613	0.068855
O10	O	1.400014	0.486387	0.568855
O11	O	0.784809	0.178315	0.068838
O12	O	1.284809	0.678315	0.568838
O13	O	1.005058	0.157785	0.068865
O14	O	1.505058	0.657785	0.568865
Cu15	Cu	0.894932	0.168049	0.081406
Cu16	Cu	1.394932	0.668049	0.581406
Cu17	Cu	0.894951	0.168063	-0.081196
Cu18	Cu	1.394951	0.668063	0.418804
O19	O	0.889853	0.349713	0.068848
O20	O	1.389853	0.849713	0.568848
C21	C	0.756616	0.177585	0.000088
C22	C	1.256616	0.677585	0.500088
C23	C	0.672584	0.175378	0.000078
C24	C	1.172584	0.675378	0.500078
C25	C	0.624673	0.288036	0.000076
C26	C	1.124673	0.788036	0.500076
C27	C	0.545717	0.285955	0.000086
C28	C	1.045717	0.785955	0.500086
C29	C	0.514672	0.171215	0.000093
C30	C	1.014672	0.671215	0.500093
C31	C	0.562589	0.058549	0.000098
C32	C	1.062589	0.558549	0.500098
C33	C	0.641544	0.060631	0.000093
C34	C	1.141544	0.560631	0.500093
C35	C	0.244173	0.050148	0.000118
C36	C	0.744173	0.550148	0.500118
C37	C	0.165212	0.048075	0.000121
C38	C	0.665212	0.548075	0.500121
C39	C	0.148346	0.275473	0.000112
C40	C	0.648346	0.775473	0.500112
C41	C	0.227301	0.277555	0.000107
C42	C	0.727301	0.777555	0.500107
C43	C	0.275210	0.164889	0.000116
C44	C	0.775210	0.664889	0.500116
C45	C	0.360824	0.167147	0.000106
C46	C	0.860824	0.667147	0.500106
C47	C	0.429060	0.168956	0.000097
C48	C	0.929060	0.668956	0.500097
C49	C	0.899283	-0.060094	0.000107
C50	C	1.399283	0.439906	0.500107
C51	C	0.897070	-0.198610	0.000104
C52	C	1.397070	0.301390	0.500104
C53	C	0.961533	-0.274698	0.000111
C54	C	1.461533	0.225302	0.500111
C55	C	0.959248	-0.417863	0.000108
C56	C	1.459248	0.082137	0.500108
C57	C	1.033268	0.158527	0.000120
C58	C	1.533268	0.658527	0.500120
C59	C	1.117300	0.160734	0.000125
C60	C	1.617300	0.660734	0.500125
C61	C	0.890601	0.396206	0.000100
C62	C	1.390601	0.896206	0.500100
C63	C	0.892813	0.534723	0.000098
C64	C	1.392813	1.034723	0.500098
N65	N	0.894924	0.168038	0.195771
N66	N	1.394924	0.668038	0.695771
N67	N	0.894965	0.168064	-0.195561
N68	N	1.394965	0.668064	0.304439
C69	C	0.945953	0.083087	0.239042
C70	C	1.445953	0.583087	0.739042
C71	C	0.945957	0.083085	0.325590
C72	C	1.445957	0.583085	0.825590
C73	C	0.894935	0.168042	0.368863
C74	C	1.394935	0.668042	0.868863
C75	C	0.843901	0.252997	0.325586
C76	C	1.343901	0.752997	0.825586
C77	C	0.843894	0.252992	0.239040
C78	C	1.343894	0.752992	0.739040
C79	C	0.843927	0.253021	0.674614
C80	C	1.343927	0.753021	1.174614
C81	C	0.843940	0.253022	0.761165
C82	C	1.343940	0.753022	1.261165
C83	C	0.945989	0.083115	0.761163
C84	C	1.445989	0.583115	1.261163
C85	C	0.945983	0.083109	0.674618
C86	C	1.445983	0.583109	1.174618
C87	C	0.894946	0.168059	0.631348
C88	C	1.394946	0.668059	1.131348
C89	C	0.894942	0.168058	0.537503
C90	C	1.394942	0.668058	1.037503
C91	C	0.894943	0.168050	0.462706
C92	C	1.394943	0.668050	0.962706
H93	H	1.018413	-0.233851	0.000123
H94	H	1.518413	0.266149	0.500123
N95	N	1.001009	-0.008519	0.627938
N96	N	1.501009	0.491481	1.127938
H97	H	1.054800	0.005736	0.642988
H98	H	1.554800	0.505736	1.142988
H99	H	0.991770	-0.097022	0.643025
H100	H	1.491770	0.402978	1.143025
H101	H	0.537306	-0.034875	0.000115
H102	H	1.037306	0.465125	0.500115
H103	H	0.680552	-0.031107	0.000094
H104	H	1.180552	0.468893	0.500094
H105	H	0.840190	-0.239457	0.000092
H106	H	1.340190	0.260543	0.500092
H107	H	0.802389	0.322207	0.796397
H108	H	1.302389	0.822207	1.296397
H109	H	0.987507	0.013911	0.360821
H110	H	1.487507	0.513911	0.860821
H111	H	0.987544	0.013939	0.796403
H112	H	1.487544	0.513939	1.296403
H113	H	1.014433	-0.483241	0.000117
H114	H	1.514433	0.016759	0.500117
N115	N	0.096682	0.397007	0.000115
N116	N	0.596682	0.897007	0.500115
H117	H	0.063542	0.401227	-0.050849
H118	H	0.563542	0.901227	0.449151
H119	H	0.063601	0.401147	0.051122
H120	H	0.563601	0.901147	0.551122
N121	N	0.788880	0.344635	0.627950
N122	N	1.288880	0.844635	1.127950
H123	H	0.756562	0.398453	0.668499
H124	H	1.256562	0.898453	1.168499
H125	H	0.818127	0.399743	0.592027
H126	H	1.318127	0.899743	1.092027
N127	N	0.819711	-0.378683	0.000102
N128	N	1.319711	0.121317	0.500102
H129	H	0.817549	-0.324000	-0.050863
H130	H	1.317549	0.176000	0.449137
H131	H	0.775101	-0.430082	0.000129
H132	H	1.275101	0.069918	0.500129
N133	N	0.788864	0.344623	0.372255
N134	N	1.288864	0.844623	0.872255
H135	H	0.796612	0.331740	0.433647
H136	H	1.296612	0.831740	0.933647
H137	H	0.798060	0.433126	0.357116
H138	H	1.298060	0.933126	0.857116
N139	N	0.494009	0.407430	0.000097
N140	N	0.994009	0.907430	0.500097
H141	H	0.460889	0.411582	0.051076
H142	H	0.960889	0.911582	0.551076
H143	H	0.525677	0.480403	0.000061
H144	H	1.025677	0.980403	0.500061
H145	H	0.283172	-0.041591	0.000126
H146	H	0.783172	0.458409	0.500126
H147	H	0.987503	0.013910	0.203815
H148	H	1.487503	0.513910	0.703815
H149	H	0.802341	0.322166	0.203809
H150	H	1.302341	0.822166	0.703809
H151	H	0.139939	-0.045366	0.000127
H152	H	0.639939	0.454634	0.500127
H153	H	0.252572	0.370988	0.000098
H154	H	0.752572	0.870988	0.500098
N155	N	0.658154	0.411793	0.000058
N156	N	1.158154	0.911793	0.500058
H157	H	0.615819	0.482844	0.000060
H158	H	1.115819	0.982844	0.500060
H159	H	0.690549	0.417610	0.051025
H160	H	1.190549	0.917610	0.551025
