data_functionalizedCrystal
_audit_creation_method	'MofGen! by Chris Wilmer'
_symmetry_space_group_name_H-M	'P1'
_symmetry_Int_Tables_number	1
_symmetry_cell_setting	triclinic
loop_
_symmetry_equiv_pos_as_xyz
  x,y,z
_cell_length_a	18.101398
_cell_length_b	12.594516
_cell_length_c	12.594509
_cell_angle_alpha	89.973801
_cell_angle_beta	89.973660
_cell_angle_gamma	90.011320
loop_
_atom_site_label
_atom_site_type_symbol
_atom_site_fract_x
_atom_site_fract_y
_atom_site_fract_z
Zn1	Zn	1.132213	-0.423844	-0.602017
Zn2	Zn	1.632213	0.076156	-0.102017
Zn3	Zn	1.132137	-0.601855	-0.424045
Zn4	Zn	1.632137	-0.101855	0.075955
Zn5	Zn	1.008368	-0.423876	-0.424031
Zn6	Zn	1.508368	0.076124	0.075969
Zn7	Zn	1.008355	-0.601767	-0.601960
Zn8	Zn	1.508355	-0.101767	-0.101960
O9	O	1.070268	-0.512835	-0.513013
O10	O	1.570268	-0.012835	-0.013013
O11	O	1.235836	-0.447481	-0.578439
O12	O	1.735836	0.052519	-0.078439
O13	O	1.115692	-0.578295	-0.275097
O14	O	1.615692	-0.078295	0.224903
O15	O	1.024833	-0.274926	-0.447659
O16	O	1.524833	0.225074	0.052341
O17	O	1.235780	-0.578265	-0.447684
O18	O	1.735780	-0.078265	0.052316
O19	O	1.115822	-0.274903	-0.578425
O20	O	1.615822	0.225097	-0.078425
O21	O	1.024759	-0.447535	-0.275087
O22	O	1.524759	0.052465	0.224913
O23	O	0.904733	-0.447450	-0.447603
O24	O	1.404733	0.052550	0.052397
O25	O	1.024812	-0.578115	-0.750913
O26	O	1.524812	-0.078115	-0.250913
O27	O	0.904724	-0.578145	-0.578327
O28	O	1.404724	-0.078145	-0.078327
O29	O	1.115810	-0.447396	-0.750956
O30	O	1.615810	0.052604	-0.250956
O31	O	1.115680	-0.750789	-0.447628
O32	O	1.615680	-0.250789	0.052372
O33	O	1.024738	-0.750724	-0.578341
O34	O	1.524738	-0.250724	-0.078341
C35	C	0.877858	-0.512792	-0.512958
C36	C	1.377858	-0.012792	-0.012958
C37	C	0.795544	-0.512799	-0.512959
C38	C	1.295544	-0.012799	-0.012959
C39	C	0.496453	-0.512866	-0.513049
C40	C	0.996453	-0.012866	-0.013049
C41	C	0.527759	-0.430224	-0.431202
C42	C	1.027759	0.069776	0.068798
C43	C	0.613377	-0.430446	-0.430853
C44	C	1.113377	0.069554	0.069147
C45	C	0.644835	-0.512832	-0.513004
C46	C	1.144835	-0.012832	-0.013004
C47	C	0.613737	-0.624956	-0.482367
C48	C	1.113737	-0.124956	0.017633
C49	C	0.528092	-0.624496	-0.481798
C50	C	1.028092	-0.124496	0.018202
C51	C	0.528065	-0.484358	-0.625725
C52	C	1.028065	0.015642	-0.125725
C53	C	0.613715	-0.481861	-0.625110
C54	C	1.113715	0.018139	-0.125110
C55	C	0.728695	-0.512820	-0.512981
C56	C	1.228695	-0.012820	-0.012981
C57	C	0.412593	-0.512885	-0.513069
C58	C	0.912593	-0.012885	-0.013069
C59	C	1.070220	-0.789376	-0.513003
C60	C	1.570220	-0.289376	-0.013003
C61	C	1.070267	-0.907682	-0.513034
C62	C	1.570267	-0.407682	-0.013034
C63	C	1.020799	-0.976938	-0.584079
C64	C	1.520799	-0.476938	-0.084079
C65	C	1.002755	-1.047802	-0.486953
C66	C	1.502755	-0.547802	0.013047
C67	C	1.088378	-1.047617	-0.610176
C68	C	1.588378	-0.547617	-0.110176
C69	C	1.052187	-0.976987	-0.415857
C70	C	1.552187	-0.476987	0.084143
C71	C	1.137842	-0.976796	-0.539145
C72	C	1.637842	-0.476796	-0.039145
C73	C	1.119824	-1.047628	-0.441953
C74	C	1.619824	-0.547628	0.058047
C75	C	1.263430	-0.512879	-0.513070
C76	C	1.763430	-0.012879	-0.013070
C77	C	1.345744	-0.512898	-0.513094
C78	C	1.845744	-0.012898	-0.013094
C79	C	1.070318	-0.512742	-0.790634
C80	C	1.570318	-0.012742	-0.290634
C81	C	1.070339	-0.512702	-0.908940
C82	C	1.570339	-0.012702	-0.408940
C83	C	1.070337	-0.235214	-0.513047
C84	C	1.570337	0.264786	-0.013047
C85	C	1.070367	-0.116909	-0.513061
C86	C	1.570367	0.383091	-0.013061
C87	C	1.020861	-0.583760	-0.978170
C88	C	1.520861	-0.083760	-0.478170
C89	C	1.088435	-0.609774	-1.048970
C90	C	1.588435	-0.109774	-0.548970
C91	C	1.002818	-0.486624	-1.048939
C92	C	1.502818	0.013376	-0.548939
C93	C	1.137949	-0.538768	-0.978181
C94	C	1.637949	-0.038768	-0.478181
C95	C	1.052286	-0.415572	-0.978145
C96	C	1.552286	0.084428	-0.478145
C97	C	1.119906	-0.441550	-1.048912
C98	C	1.619906	0.058450	-0.548912
C99	C	1.070262	-0.512851	-0.236472
C100	C	1.570262	-0.012851	0.263528
C101	C	1.070384	-0.512591	-0.118167
C102	C	1.570384	-0.012591	0.381833
H103	H	0.633832	-0.449293	-0.347361
H104	H	1.133832	0.050707	0.152639
H105	H	1.036843	-0.946089	-0.333694
H106	H	1.536843	-0.446089	0.166306
O107	O	1.175414	-0.361883	-1.089802
O108	O	1.675414	0.138117	-0.589802
H109	H	1.174704	-0.361907	-1.177924
H110	H	1.674704	0.138093	-0.677924
H111	H	0.508082	-0.648672	-0.399427
H112	H	1.008082	-0.148672	0.100573
O113	O	0.499485	-0.377935	-0.662629
O114	O	0.999485	0.122065	-0.162629
H115	H	0.438278	-0.380501	-0.667245
H116	H	0.938278	0.119499	-0.167245
H117	H	1.036972	-0.333503	-0.947011
H118	H	1.536972	0.166497	-0.447011
H119	H	0.634045	-0.399350	-0.648211
H120	H	1.134045	0.100650	-0.148211
O121	O	0.965481	-0.663477	-0.937018
O122	O	1.465481	-0.163477	-0.437018
H123	H	0.923219	-0.621933	-0.888528
H124	H	1.423219	-0.121933	-0.388528
H125	H	0.945697	-0.464613	-1.080021
H126	H	1.445697	0.035387	-0.580021
H127	H	1.161700	-1.078470	-0.381815
H128	H	1.661700	-0.578470	0.118185
O129	O	0.642055	-0.555801	-0.710219
O130	O	1.142055	-0.055801	-0.210219
H131	H	0.678926	-0.616049	-0.673782
H132	H	1.178926	-0.116049	-0.173782
H133	H	0.634403	-0.347302	-0.450055
H134	H	1.134403	0.152698	0.049945
H135	H	0.635154	-0.649550	-0.400885
H136	H	1.135154	-0.149550	0.099115
H137	H	0.507821	-0.544550	-0.686708
H138	H	1.007821	-0.044550	-0.186708
H139	H	0.507174	-0.346826	-0.450193
H140	H	1.007174	0.153174	0.049807
O141	O	1.213546	-0.935686	-0.568305
O142	O	1.713546	-0.435686	-0.068305
H143	H	1.228447	-0.964009	-0.648960
H144	H	1.728447	-0.464009	-0.148960
H145	H	0.506211	-0.448858	-0.348196
H146	H	1.006211	0.051142	0.151804
H147	H	0.978890	-0.945899	-0.644072
H148	H	1.478890	-0.445899	-0.144072
O149	O	1.108623	-1.088712	-0.718978
O150	O	1.608623	-0.588712	-0.218978
H151	H	1.067429	-1.060399	-0.777779
H152	H	1.567429	-0.560399	-0.277779
H153	H	1.103729	-0.691867	-1.080079
H154	H	1.603729	-0.191867	-0.580079
H155	H	0.507383	-0.688156	-0.538813
H156	H	1.007383	-0.188156	-0.038813
H157	H	0.945654	-1.079014	-0.464891
H158	H	1.445654	-0.579014	0.035109
H159	H	1.195086	-0.560872	-0.947230
H160	H	1.695086	-0.060872	-0.447230
H161	H	0.634114	-0.688180	-0.540115
H162	H	1.134114	-0.188180	-0.040115
