data_functionalizedCrystal
_audit_creation_method	'MofGen! by Chris Wilmer'
_symmetry_space_group_name_H-M	'P1'
_symmetry_Int_Tables_number	1
_symmetry_cell_setting	triclinic
loop_
_symmetry_equiv_pos_as_xyz
  x,y,z
_cell_length_a	12.837943
_cell_length_b	13.101018
_cell_length_c	12.837942
_cell_angle_alpha	93.715237
_cell_angle_beta	85.171060
_cell_angle_gamma	93.717446
loop_
_atom_site_label
_atom_site_type_symbol
_atom_site_fract_x
_atom_site_fract_y
_atom_site_fract_z
O1	O	1.407530	0.085196	-0.266938
O2	O	1.104397	0.085202	-0.253494
O3	O	1.249241	0.085192	-0.108650
O4	O	1.262685	0.085205	-0.411782
O5	O	1.238836	-0.085237	-0.119051
O6	O	1.093992	-0.085228	-0.263895
O7	O	1.397125	-0.085234	-0.277339
Zn8	Zn	1.243907	-0.112290	-0.272269
Zn9	Zn	1.257615	0.112258	-0.258565
O10	O	1.252281	-0.085225	-0.422184
C11	C	1.060125	-0.000012	-0.254153
C12	C	0.943710	-0.000010	-0.240609
N13	N	1.234558	-0.265539	-0.281621
C14	C	0.718836	-0.000018	-0.403439
C15	C	0.609453	-0.000017	-0.390717
C16	C	0.615561	-0.000014	-0.202446
C17	C	0.724943	-0.000015	-0.215167
C18	C	0.776577	-0.000016	-0.315667
C19	C	0.885962	-0.000010	-0.328387
C20	C	0.892066	-0.000014	-0.140117
C21	C	0.782684	-0.000013	-0.127395
C22	C	1.279684	-0.525451	-0.236475
C23	C	1.221849	-0.474575	-0.294348
C24	C	1.228922	-0.358256	-0.287265
C25	C	1.272611	-0.641780	-0.243556
C26	C	1.441397	-0.000018	-0.276680
C27	C	1.557812	-0.000013	-0.290224
C28	C	1.239498	-0.000022	-0.074781
C29	C	1.225953	-0.000020	0.041634
N30	N	1.266971	0.265506	-0.249204
C31	C	1.262024	-0.000008	-0.456052
C32	C	1.275569	-0.000004	-0.572467
C33	C	1.388784	-0.000002	0.266509
C34	C	1.376062	0.000000	0.375892
C35	C	1.187791	-0.000007	0.369784
C36	C	1.200512	-0.000009	0.260402
C37	C	1.301012	-0.000008	0.208768
C38	C	1.313731	-0.000017	0.099383
C39	C	1.125461	-0.000016	0.093278
C40	C	1.112740	-0.000014	0.202661
H41	H	0.928000	-0.000012	-0.410219
H42	H	1.334507	-0.481655	-0.181614
Br43	Br	1.450120	-0.000026	0.029308
H44	H	0.573496	-0.000098	-0.120629
H45	H	0.740628	-0.000024	-0.045572
Br46	Br	0.970436	0.000011	-0.020989
H47	H	1.470614	-0.000011	0.224468
H48	H	0.760877	-0.000017	-0.485269
Br49	Br	1.495187	0.000015	0.454254
H50	H	0.562444	-0.000022	-0.462191
Br51	Br	1.130469	-0.547577	-0.385796
Br52	Br	1.051412	0.000029	0.439879
H53	H	1.030916	-0.000011	0.244716
H54	H	1.053990	-0.000029	0.046253
