data_functionalizedCrystal
_audit_creation_method	'MofGen! by Chris Wilmer'
_symmetry_space_group_name_H-M	'P1'
_symmetry_Int_Tables_number	1
_symmetry_cell_setting	triclinic
loop_
_symmetry_equiv_pos_as_xyz
  x,y,z
_cell_length_a	18.215407
_cell_length_b	29.839131
_cell_length_c	18.215407
_cell_angle_alpha	90.025546
_cell_angle_beta	90.004987
_cell_angle_gamma	90.035676
loop_
_atom_site_label
_atom_site_type_symbol
_atom_site_fract_x
_atom_site_fract_y
_atom_site_fract_z
Zn1	Zn	1.124911	-0.178910	0.416061
Zn2	Zn	1.624911	0.321090	0.916061
Zn3	Zn	1.124829	-0.254022	0.292973
Zn4	Zn	1.624829	0.245978	0.792973
Zn5	Zn	1.001876	-0.178908	0.293009
Zn6	Zn	1.501876	0.321092	0.793009
Zn7	Zn	1.001787	-0.254014	0.415997
Zn8	Zn	1.501787	0.245986	0.915997
O9	O	1.063351	-0.216464	0.354510
O10	O	1.563351	0.283536	0.854510
O11	O	1.227885	-0.188878	0.399745
O12	O	1.727885	0.311122	0.899745
O13	O	1.108522	-0.244061	0.189993
O14	O	1.608522	0.255939	0.689993
O15	O	1.018268	-0.116041	0.309374
O16	O	1.518268	0.383959	0.809374
O17	O	1.227824	-0.244063	0.309312
O18	O	1.727824	0.255937	0.809312
O19	O	1.108661	-0.116043	0.399780
O20	O	1.608661	0.383957	0.899780
O21	O	1.018188	-0.188874	0.190020
O22	O	1.518188	0.311126	0.690020
O23	O	0.898880	-0.188867	0.309312
O24	O	1.398880	0.311133	0.809312
O25	O	1.018117	-0.244049	0.518990
O26	O	1.518117	0.255951	1.018990
O27	O	0.898815	-0.244047	0.399671
O28	O	1.398815	0.255953	0.899671
O29	O	1.108576	-0.188871	0.519037
O30	O	1.608576	0.311129	1.019037
O31	O	1.108436	-0.316889	0.309250
O32	O	1.608436	0.183111	0.809250
O33	O	1.018038	-0.316883	0.399636
O34	O	1.518038	0.183117	0.899636
C35	C	0.872145	-0.216456	0.354489
C36	C	1.372145	0.283544	0.854489
C37	C	0.790346	-0.216464	0.354497
C38	C	1.290346	0.283536	0.854497
C39	C	0.602137	-0.245241	0.401488
C40	C	1.102137	0.254759	0.901488
C41	C	0.525279	-0.245243	0.401497
C42	C	1.025279	0.254757	0.901497
C43	C	0.525316	-0.187694	0.307548
C44	C	1.025316	0.312306	0.807548
C45	C	0.602174	-0.187691	0.307543
C46	C	1.102174	0.312309	0.807543
C47	C	0.640582	-0.216467	0.354512
C48	C	1.140582	0.283533	0.854512
C49	C	0.486866	-0.216472	0.354526
C50	C	0.986866	0.283528	0.854526
C51	C	0.403532	-0.216473	0.354536
C52	C	0.903532	0.283527	0.854536
C53	C	0.723921	-0.216465	0.354504
C54	C	1.223921	0.283535	0.854504
C55	C	1.063239	-0.333186	0.354448
C56	C	1.563239	0.166814	0.854448
C57	C	1.063258	-0.383121	0.354446
C58	C	1.563258	0.116879	0.854446
C59	C	1.110409	-0.692730	0.401652
C60	C	1.610409	-0.192730	0.901652
C61	C	1.110488	-0.880403	0.401696
C62	C	1.610488	-0.380403	0.901696
O63	O	1.150468	-0.904639	0.441786
O64	O	1.650468	-0.404639	0.941786
N65	N	1.063476	-0.903906	0.354592
N66	N	1.563476	-0.403906	0.854592
C67	C	1.016436	-0.880487	0.307477
C68	C	1.516436	-0.380487	0.807477
O69	O	0.976446	-0.904784	0.267418
O70	O	1.476446	-0.404784	0.767418
C71	C	1.016353	-0.692815	0.307437
C72	C	1.516353	-0.192815	0.807437
C73	C	1.063374	-0.669315	0.354539
C74	C	1.563374	-0.169315	0.854539
C75	C	1.157425	-0.669230	0.448750
C76	C	1.657425	-0.169230	0.948750
C77	C	1.157408	-0.622314	0.448736
C78	C	1.657408	-0.122314	0.948736
C79	C	1.110373	-0.598899	0.401623
C80	C	1.610373	-0.098899	0.901623
C81	C	1.063357	-0.622399	0.354524
C82	C	1.563357	-0.122399	0.854524
C83	C	0.969311	-0.669397	0.260326
C84	C	1.469311	-0.169397	0.760326
C85	C	0.969293	-0.622476	0.260321
C86	C	1.469293	-0.122476	0.760321
C87	C	1.016314	-0.598976	0.307423
C88	C	1.516314	-0.098976	0.807423
C89	C	1.016305	-0.552069	0.307397
C90	C	1.516305	-0.052069	0.807397
N91	N	1.063318	-0.528566	0.354501
N92	N	1.563318	-0.028566	0.854501
C93	C	1.110352	-0.551981	0.401614
C94	C	1.610352	-0.051981	0.901614
C95	C	1.016484	-0.979018	0.307500
C96	C	1.516484	-0.479018	0.807500
C97	C	1.016506	-1.025936	0.307509
C98	C	1.516506	-0.525936	0.807509
C99	C	1.110557	-1.025848	0.401729
C100	C	1.610557	-0.525848	0.901729
C101	C	1.110539	-0.978930	0.401716
C102	C	1.610539	-0.478930	0.901716
C103	C	1.063497	-0.955515	0.354604
C104	C	1.563497	-0.455515	0.854604
C105	C	1.110312	-0.453456	0.401580
C106	C	1.610312	0.046544	0.901580
C107	C	1.110292	-0.406536	0.401559
C108	C	1.610292	0.093464	0.901559
C109	C	1.016239	-0.406627	0.307342
C110	C	1.516239	0.093373	0.807342
C111	C	1.016261	-0.453543	0.307359
C112	C	1.516261	0.046457	0.807359
C113	C	1.063300	-0.476956	0.354484
C114	C	1.563300	0.023044	0.854484
O115	O	0.976341	-0.527804	0.267334
O116	O	1.476341	-0.027804	0.767334
O117	O	1.150325	-0.527677	0.441678
O118	O	1.650325	-0.027677	0.941678
C119	C	1.110426	-0.739646	0.401666
C120	C	1.610426	-0.239646	0.901666
C121	C	1.063410	-0.763146	0.354567
C122	C	1.563410	-0.263146	0.854567
C123	C	1.016375	-0.739731	0.307454
C124	C	1.516375	-0.239731	0.807454
C125	C	1.063431	-0.810064	0.354576
C126	C	1.563431	-0.310064	0.854576
C127	C	1.110465	-0.833479	0.401689
C128	C	1.610465	-0.333479	0.901689
C129	C	1.157478	-0.809976	0.448793
C130	C	1.657478	-0.309976	0.948793
C131	C	1.157460	-0.763061	0.448779
C132	C	1.657460	-0.263061	0.948779
C133	C	0.969363	-0.763233	0.260350
C134	C	1.469363	-0.263233	0.760350
C135	C	0.969385	-0.810149	0.260368
C136	C	1.469385	-0.310149	0.760368
C137	C	1.016419	-0.833564	0.307481
C138	C	1.516419	-0.333564	0.807481
C139	C	1.255304	-0.216472	0.354532
C140	C	1.755304	0.283528	0.854532
C141	C	1.337103	-0.216475	0.354541
C142	C	1.837103	0.283525	0.854541
C143	C	1.063346	-0.216459	0.546463
C144	C	1.563346	0.283541	1.046463
C145	C	1.063344	-0.216457	0.628262
C146	C	1.563344	0.283543	1.128262
C147	C	1.063484	-0.099285	0.354588
C148	C	1.563484	0.400715	0.854588
C149	C	1.063540	-0.049351	0.354622
C150	C	1.563540	0.450649	0.854622
C151	C	1.016308	-0.187733	0.816471
C152	C	1.516308	0.312267	1.316471
C153	C	1.016305	-0.187737	0.893329
C154	C	1.516305	0.312263	1.393329
C155	C	1.110374	-0.245202	0.893291
C156	C	1.610374	0.254798	1.393291
C157	C	1.110373	-0.245201	0.816433
C158	C	1.610373	0.254799	1.316433
C159	C	1.063341	-0.216464	0.778025
C160	C	1.563341	0.283536	1.278025
C161	C	1.063339	-0.216469	0.931741
C162	C	1.563339	0.283531	1.431741
C163	C	1.063336	-0.216473	1.015075
C164	C	1.563336	0.283527	1.515075
C165	C	1.063343	-0.216460	0.694686
C166	C	1.563343	0.283540	1.194686
C167	C	1.063346	-0.216477	1.163304
C168	C	1.563346	0.283523	1.663304
C169	C	1.063336	-0.216475	1.081505
C170	C	1.563336	0.283525	1.581505
H171	H	1.148610	-0.472513	0.439959
H172	H	1.648610	0.027487	0.939959
H173	H	0.633407	-0.268671	0.439735
H174	H	1.133407	0.231329	0.939735
H175	H	1.148666	-0.268599	0.924572
H176	H	1.648666	0.231401	1.424572
N177	N	0.968274	-0.158384	0.777224
N178	N	1.468274	0.341616	1.277224
N179	N	0.994199	-0.129756	0.734361
N180	N	1.494199	0.370244	1.234361
H181	H	0.960273	-0.109028	0.706642
H182	H	1.460273	0.390972	1.206642
N183	N	0.486020	-0.274635	0.449491
N184	N	0.986020	0.225365	0.949491
N185	N	0.520325	-0.300322	0.491425
N186	N	1.020325	0.199678	0.991425
H187	H	0.492599	-0.321082	0.525324
H188	H	0.992599	0.178918	1.025324
H189	H	0.494035	-0.164267	0.269306
H190	H	0.994035	0.335733	0.769306
H191	H	0.633477	-0.164257	0.269289
H192	H	1.133477	0.335743	0.769289
H193	H	1.195694	-0.603183	0.487093
H194	H	1.695694	-0.103183	0.987093
H195	H	0.978005	-0.164342	0.924628
H196	H	1.478005	0.335658	1.424628
H197	H	1.148585	-0.387403	0.439915
H198	H	1.648585	0.112597	0.939915
N199	N	1.158432	-0.274549	0.777172
N200	N	1.658432	0.225451	1.277172
N201	N	1.226342	-0.271570	0.785766
N202	N	1.726342	0.228430	1.285766
H203	H	1.260283	-0.292297	0.758039
H204	H	1.760283	0.207703	1.258039
N205	N	1.158612	-1.049770	0.449847
N206	N	1.658612	-0.549770	0.949847
N207	N	1.205541	-1.075934	0.424004
N208	N	1.705541	-0.575934	0.924004
H209	H	1.239476	-1.092831	0.457987
H210	H	1.739476	-0.592831	0.957987
H211	H	1.148827	-0.959799	0.440071
H212	H	1.648827	-0.459799	0.940071
N213	N	1.205475	-0.693136	0.496888
N214	N	1.705475	-0.193136	0.996888
N215	N	1.247444	-0.672139	0.538934
N216	N	1.747444	-0.172139	1.038934
H217	H	1.281386	-0.689020	0.572932
H218	H	1.781386	-0.189020	1.072932
H219	H	0.978225	-1.045066	0.269146
H220	H	1.478225	-0.545066	0.769146
H221	H	0.931022	-0.688523	0.221970
H222	H	1.431022	-0.188523	0.721970
N223	N	0.968423	-0.955111	0.259369
N224	N	1.468423	-0.455111	0.759369
N225	N	0.926456	-0.976106	0.217319
N226	N	1.426456	-0.476106	0.717319
H227	H	0.892513	-0.959225	0.183324
H228	H	1.392513	-0.459225	0.683324
H229	H	0.930984	-0.603415	0.221958
H230	H	1.430984	-0.103415	0.721958
N231	N	0.968258	-0.477544	0.259211
N232	N	1.468258	0.022456	0.759211
N233	N	0.926286	-0.456629	0.217131
N234	N	1.426286	0.043371	0.717131
H235	H	0.892387	-0.473576	0.183120
H236	H	1.392387	0.026424	0.683120
H237	H	0.977946	-0.387555	0.268981
H238	H	1.477946	0.112445	0.768981
N239	N	1.205507	-0.739065	0.496885
N240	N	1.705507	-0.239065	0.996885
N241	N	1.273418	-0.744282	0.492058
N242	N	1.773418	-0.244282	0.992058
H243	H	1.307356	-0.727339	0.526035
H244	H	1.807356	-0.227339	1.026035
N245	N	1.205524	-0.833906	0.496909
N246	N	1.705524	-0.333906	0.996909
N247	N	1.205527	-0.875797	0.496905
N248	N	1.705527	-0.375797	0.996905
H249	H	1.239456	-0.892700	0.530886
H250	H	1.739456	-0.392700	1.030886
N251	N	0.921352	-0.834144	0.212240
N252	N	1.421352	-0.334144	0.712240
N253	N	0.879362	-0.813226	0.170181
N254	N	1.379362	-0.313226	0.670181
H255	H	0.845436	-0.830170	0.136194
H256	H	1.345436	-0.330170	0.636194
N257	N	0.921309	-0.739326	0.212220
N258	N	1.421309	-0.239326	0.712220
N259	N	0.879339	-0.760321	0.170172
N260	N	1.379339	-0.260321	0.670172
H261	H	0.845399	-0.743439	0.136175
H262	H	1.345399	-0.243439	0.636175
