data_functionalizedCrystal
_audit_creation_method	'MofGen! by Chris Wilmer'
_symmetry_space_group_name_H-M	'P1'
_symmetry_Int_Tables_number	1
_symmetry_cell_setting	triclinic
loop_
_symmetry_equiv_pos_as_xyz
  x,y,z
_cell_length_a	10.723024
_cell_length_b	15.995350
_cell_length_c	9.798715
_cell_angle_alpha	89.999084
_cell_angle_beta	89.996609
_cell_angle_gamma	83.980122
loop_
_atom_site_label
_atom_site_type_symbol
_atom_site_fract_x
_atom_site_fract_y
_atom_site_fract_z
O1	O	1.655689	0.117435	-0.113475
O2	O	1.292393	0.128675	-0.113479
O3	O	1.483972	0.001224	-0.113475
O4	O	1.464110	0.244886	-0.113478
O5	O	1.483958	0.001224	0.113507
O6	O	1.292379	0.128675	0.113503
O7	O	1.655675	0.117434	0.113507
Zn8	Zn	1.474025	0.123055	0.149544
Zn9	Zn	1.474044	0.123055	-0.149515
O10	O	1.464096	0.244885	0.113504
C11	C	1.245897	0.127857	0.000012
C12	C	1.107374	0.125410	0.000010
C13	C	1.031482	0.196725	0.000008
C14	C	0.888310	0.194197	0.000007
C15	C	1.483144	-0.029975	0.000013
C16	C	1.480682	-0.122940	0.000005
C17	C	1.471842	-0.460738	0.000010
C18	C	1.335403	-0.414088	-0.000501
C19	C	1.337865	-0.317383	0.000011
C20	C	1.476227	-0.293152	0.000007
C21	C	1.543515	-0.333843	0.129623
C22	C	1.540088	-0.430499	0.129732
C23	C	1.542922	-0.430840	-0.128390
C24	C	1.542890	-0.333895	-0.130103
C25	C	1.478712	-0.198441	0.000010
C26	C	1.469360	-0.555450	0.000016
C27	C	1.702171	0.118252	0.000014
C28	C	1.840694	0.120700	0.000007
C29	C	1.464924	0.276085	0.000013
C30	C	1.467386	0.369049	0.000011
N31	N	1.474021	0.123054	0.353643
N32	N	1.474057	0.123049	-0.353615
C33	C	1.554463	0.069305	0.421422
C34	C	1.554483	0.069302	0.578584
H35	H	0.905898	0.059646	-0.000001
C36	C	1.265916	-0.280149	0.125750
N37	N	1.211723	-0.252106	0.220464
C38	C	1.680833	-0.313955	0.136154
N39	N	1.784258	-0.298968	0.141076
C40	C	1.473770	-0.455605	0.260621
N41	N	1.423813	-0.474510	0.359208
C42	C	1.647464	0.007125	0.342634
N43	N	1.717509	-0.039715	0.283293
H44	H	1.623357	0.023288	0.636871
C45	C	1.381010	0.185220	0.567654
N46	N	1.310926	0.232046	0.508344
H47	H	1.498320	-0.451636	-0.226631
H48	H	1.405162	0.169065	0.411967
H49	H	1.643790	-0.317954	-0.137932
C50	C	1.086890	0.281739	0.000013
N51	N	1.128622	0.345775	0.000016
H52	H	0.823099	0.255248	-0.000000
H53	H	1.281106	-0.433994	0.091931
C54	C	1.051965	0.040395	0.000011
N55	N	1.010234	-0.023640	0.000009
H56	H	1.640259	-0.462172	0.135610
H57	H	1.280875	-0.432932	-0.093451
C58	C	1.266398	-0.279394	-0.125506
N59	N	1.212559	-0.250783	-0.220045
C60	C	1.480357	-0.295872	0.259937
N61	N	1.432777	-0.267273	0.358087
H62	H	1.493694	-0.306929	-0.225989
H63	H	1.643518	-0.462023	-0.129264
