data_functionalizedCrystal
_audit_creation_method	'MofGen! by Chris Wilmer'
_symmetry_space_group_name_H-M	'P1'
_symmetry_Int_Tables_number	1
_symmetry_cell_setting	triclinic
loop_
_symmetry_equiv_pos_as_xyz
  x,y,z
_cell_length_a	17.000371
_cell_length_b	11.026607
_cell_length_c	10.065875
_cell_angle_alpha	79.268236
_cell_angle_beta	98.044307
_cell_angle_gamma	92.092632
loop_
_atom_site_label
_atom_site_type_symbol
_atom_site_fract_x
_atom_site_fract_y
_atom_site_fract_z
O1	O	-1.071227	-0.024275	-0.113498
O2	O	-0.845710	-0.067655	-0.113499
O3	O	-0.939777	0.128693	-0.113494
O4	O	-0.977159	-0.220623	-0.113504
O5	O	-0.921860	0.091112	0.113494
O6	O	-0.827792	-0.105236	0.113489
O7	O	-1.053310	-0.061856	0.113489
Zn8	Zn	-0.937706	-0.089513	0.149528
Zn9	Zn	-0.961313	-0.039998	-0.149538
O10	O	-0.959242	-0.258204	0.113484
C11	C	-0.807431	-0.088775	-0.000005
C12	C	-0.720065	-0.095704	-0.000005
C13	C	-1.091588	-0.040735	-0.000008
C14	C	-1.178955	-0.033805	-0.000016
C15	C	-0.672763	0.010916	0.000000
C16	C	-0.590674	0.004401	-0.000010
C17	C	-0.555889	-0.108738	-0.000016
C18	C	-0.603199	-0.215365	-0.000025
C19	C	-0.685286	-0.208847	-0.000025
C20	C	-0.308352	-0.133914	-0.000026
C21	C	-0.226258	-0.140425	-0.000022
C22	C	-0.213739	0.079342	-0.000009
C23	C	-0.295828	0.085848	-0.000001
C24	C	-0.343131	-0.020777	-0.000017
C25	C	-0.471982	-0.115401	-0.000022
C26	C	-0.427038	-0.014111	-0.000021
C27	C	-0.923923	0.154378	-0.000002
C28	C	-0.903365	0.286899	-0.000006
C29	C	-0.975097	-0.283888	-0.000011
C30	C	-0.995655	-0.416408	-0.000015
N31	N	-0.921601	-0.123304	0.353633
C32	C	-0.960129	0.366762	-0.000008
C33	C	-0.938883	0.503730	-0.000013
N34	N	-0.977423	-0.006197	-0.353643
C35	C	-0.955704	-0.051748	0.421414
C36	C	-0.943316	-0.077763	0.578580
H37	H	-0.701077	0.103045	0.000010
F38	F	-0.464060	0.106296	-0.000021
F39	F	-1.005684	0.053698	0.345186
H40	H	-0.874553	0.536753	-0.000022
H41	H	-1.015790	0.074335	0.588039
F42	F	-0.871446	-0.228549	0.429861
H43	H	-1.024454	0.333733	0.000000
H44	H	-0.552164	0.091222	-0.000007
H45	H	-0.324143	0.177977	0.000010
H46	H	-1.059994	0.550589	-0.000118
F47	F	-0.819285	0.330063	-0.000019
F48	F	-0.893158	-0.183013	0.654803
H49	H	-0.175218	0.166153	-0.000011
H50	H	-0.346857	-0.220735	-0.000048
F51	F	-0.566177	-0.335774	-0.000044
F52	F	-0.189239	-0.260850	-0.000017
H53	H	-0.723799	-0.295669	-0.000023
H54	H	-0.443651	-0.207519	-0.000025
