data_functionalizedCrystal
_audit_creation_method	'MofGen! by Chris Wilmer'
_symmetry_space_group_name_H-M	'P1'
_symmetry_Int_Tables_number	1
_symmetry_cell_setting	triclinic
loop_
_symmetry_equiv_pos_as_xyz
  x,y,z
_cell_length_a	16.120490
_cell_length_b	16.120484
_cell_length_c	11.169409
_cell_angle_alpha	92.860730
_cell_angle_beta	87.080796
_cell_angle_gamma	90.164100
loop_
_atom_site_label
_atom_site_type_symbol
_atom_site_fract_x
_atom_site_fract_y
_atom_site_fract_z
Zn1	Zn	1.254512	-0.395595	-0.798882
Zn2	Zn	1.754512	0.104405	-0.298882
Zn3	Zn	1.247346	-0.534674	-0.607804
Zn4	Zn	1.747346	-0.034674	-0.107804
Zn5	Zn	1.115442	-0.388576	-0.587559
Zn6	Zn	1.615442	0.111424	-0.087559
Zn7	Zn	1.108364	-0.527541	-0.797789
Zn8	Zn	1.608364	-0.027541	-0.297789
O9	O	1.181416	-0.461597	-0.698009
O10	O	1.681416	0.038403	-0.198009
O11	O	1.369927	-0.419968	-0.782466
O12	O	1.869927	0.080032	-0.282466
O13	O	1.229812	-0.515342	-0.437169
O14	O	1.729812	-0.015342	0.062831
O15	O	1.139850	-0.273145	-0.607576
O16	O	1.639850	0.226855	-0.107576
O17	O	1.364663	-0.522148	-0.642081
O18	O	1.864663	-0.022148	-0.142081
O19	O	1.242025	-0.278302	-0.762835
O20	O	1.742025	0.221698	-0.262835
O21	O	1.132902	-0.408004	-0.422295
O22	O	1.632902	0.091996	0.077705
O23	O	0.998137	-0.401087	-0.606516
O24	O	1.498137	0.098913	-0.106516
O25	O	1.127788	-0.509990	-0.965883
O26	O	1.627788	-0.009990	-0.465883
O27	O	0.992937	-0.503184	-0.760971
O28	O	1.492937	-0.003184	-0.260971
O29	O	1.235162	-0.413050	-0.966686
O30	O	1.735162	0.086950	-0.466686
O31	O	1.222949	-0.650090	-0.641021
O32	O	1.722949	-0.150090	-0.141021
O33	O	1.120839	-0.644849	-0.780602
O34	O	1.620839	-0.144849	-0.280602
C35	C	0.965364	-0.450600	-0.681429
C36	C	1.465364	0.049400	-0.181429
C37	C	0.872935	-0.445916	-0.674365
C38	C	1.372935	0.054084	-0.174365
C39	C	0.659968	-0.485888	-0.734648
C40	C	1.159968	0.014112	-0.234648
C41	C	0.703711	-0.437371	-0.661469
C42	C	1.203711	0.062629	-0.161469
C43	C	0.797876	-0.442127	-0.668647
C44	C	1.297876	0.057873	-0.168647
C45	C	0.565795	-0.481134	-0.727471
C46	C	1.065795	0.018866	-0.227471
C47	C	1.170371	-0.677642	-0.712918
C48	C	1.670371	-0.177642	-0.212918
C49	C	1.165722	-0.770071	-0.719342
C50	C	1.665722	-0.270071	-0.219342
C51	C	1.157240	-0.939300	-0.731096
C52	C	1.657240	-0.439300	-0.231096
C53	C	1.205741	-0.983060	-0.664953
C54	C	1.705741	-0.483060	-0.164953
C55	C	1.201022	-1.077225	-0.671492
C56	C	1.701022	-0.577225	-0.171492
C57	C	1.161958	-0.845127	-0.724557
C58	C	1.661958	-0.345127	-0.224557
C59	C	1.398311	-0.472636	-0.714654
C60	C	1.898311	0.027364	-0.214654
C61	C	1.490739	-0.477341	-0.721747
C62	C	1.990739	0.022659	-0.221747
C63	C	1.181485	-0.461508	-1.011050
C64	C	1.681485	0.038492	-0.511050
C65	C	1.181514	-0.461470	-1.144449
C66	C	1.681514	0.038530	-0.644449
C67	C	1.192526	-0.244709	-0.683069
C68	C	1.692526	0.255291	-0.183069
C69	C	1.197261	-0.152284	-0.676703
C70	C	1.697261	0.347716	-0.176703
C71	C	1.181399	-0.461628	-0.386185
C72	C	1.681399	0.038372	0.113815
C73	C	1.181542	-0.461440	-0.252782
C74	C	1.681542	0.038560	0.247218
H75	H	0.693237	-0.530993	-0.802682
H76	H	1.193237	-0.030993	-0.302682
H77	H	1.112174	-0.972554	-0.792628
H78	H	1.612174	-0.472554	-0.292628
H79	H	1.250809	-0.949804	-0.603413
H80	H	1.750809	-0.449804	-0.103413
H81	H	0.670441	-0.392263	-0.593428
H82	H	1.170441	0.107737	-0.093428
