data_functionalizedCrystal
_audit_creation_method	'MofGen! by Chris Wilmer'
_symmetry_space_group_name_H-M	'P1'
_symmetry_Int_Tables_number	1
_symmetry_cell_setting	triclinic
loop_
_symmetry_equiv_pos_as_xyz
  x,y,z
_cell_length_a	18.215407
_cell_length_b	12.594516
_cell_length_c	18.215399
_cell_angle_alpha	90.023782
_cell_angle_beta	90.017368
_cell_angle_gamma	90.009259
loop_
_atom_site_label
_atom_site_type_symbol
_atom_site_fract_x
_atom_site_fract_y
_atom_site_fract_z
Zn1	Zn	1.125139	-0.423826	0.416089
Zn2	Zn	1.625139	0.076174	0.916089
Zn3	Zn	1.125075	-0.601823	0.293031
Zn4	Zn	1.625075	-0.101823	0.793031
Zn5	Zn	1.002071	-0.423851	0.293041
Zn6	Zn	1.502071	0.076149	0.793041
Zn7	Zn	1.002065	-0.601755	0.416062
Zn8	Zn	1.502065	-0.101755	0.916062
O9	O	1.063588	-0.512814	0.354556
O10	O	1.563588	-0.012814	0.854556
O11	O	1.228115	-0.447455	0.399772
O12	O	1.728115	0.052545	0.899772
O13	O	1.108734	-0.578254	0.190048
O14	O	1.608734	-0.078254	0.690048
O15	O	1.018426	-0.274902	0.309379
O16	O	1.518426	0.225098	0.809379
O17	O	1.228068	-0.578229	0.309362
O18	O	1.728068	-0.078229	0.809362
O19	O	1.108843	-0.274883	0.399782
O20	O	1.608843	0.225117	0.899782
O21	O	1.018364	-0.447499	0.190056
O22	O	1.518364	0.052501	0.690056
O23	O	0.899086	-0.447432	0.309353
O24	O	1.399086	0.052568	0.809353
O25	O	1.018415	-0.578113	0.519050
O26	O	1.518415	-0.078113	1.019050
O27	O	0.899082	-0.578137	0.399736
O28	O	1.399082	-0.078137	0.899736
O29	O	1.108837	-0.447389	0.519069
O30	O	1.608837	0.052611	1.019069
O31	O	1.108729	-0.750760	0.309336
O32	O	1.608729	-0.250760	0.809336
O33	O	1.018354	-0.750709	0.399726
O34	O	1.518354	-0.250709	0.899726
C35	C	0.872381	-0.512781	0.354543
C36	C	1.372381	-0.012781	0.854543
C37	C	0.790583	-0.512793	0.354555
C38	C	1.290583	-0.012793	0.854555
C39	C	0.602412	-0.444839	0.401706
C40	C	1.102412	0.055161	0.901706
C41	C	0.525553	-0.444848	0.401708
C42	C	1.025553	0.055152	0.901708
C43	C	0.525515	-0.580818	0.307419
C44	C	1.025515	-0.080818	0.807419
C45	C	0.602373	-0.580803	0.307413
C46	C	1.102373	-0.080803	0.807413
C47	C	0.640819	-0.512815	0.354561
C48	C	1.140819	-0.012815	0.854561
C49	C	0.487103	-0.512839	0.354569
C50	C	0.987103	-0.012839	0.854569
C51	C	0.403769	-0.512850	0.354571
C52	C	0.903769	-0.012850	0.854571
C53	C	0.724158	-0.512803	0.354558
C54	C	1.224158	-0.012803	0.854558
C55	C	1.063554	-0.789355	0.354543
C56	C	1.563554	-0.289355	0.854543
C57	C	1.063606	-0.907660	0.354562
C58	C	1.563606	-0.407660	0.854562
C59	C	1.112818	-0.976902	0.305452
C60	C	1.612818	-0.476902	0.805452
C61	C	1.130801	-1.047606	0.372622
C62	C	1.630801	-0.547606	0.872622
C63	C	1.045716	-1.047754	0.287435
C64	C	1.545716	-0.547754	0.787435
C65	C	1.081623	-0.976806	0.421768
C66	C	1.581623	-0.476806	0.921768
C67	C	0.996507	-0.976948	0.336535
C68	C	1.496507	-0.476948	0.836535
C69	C	1.014464	-1.047621	0.403752
C70	C	1.514464	-0.547621	0.903752
C71	C	1.255541	-0.512847	0.354569
C72	C	1.755541	-0.012847	0.854569
C73	C	1.337339	-0.512862	0.354575
C74	C	1.837339	-0.012862	0.854575
C75	C	1.063632	-0.512740	0.546509
C76	C	1.563632	-0.012740	1.046509
C77	C	1.063652	-0.512709	0.628308
C78	C	1.563652	-0.012709	1.128308
C79	C	1.063642	-0.235193	0.354585
C80	C	1.563642	0.264807	0.854585
C81	C	1.063665	-0.116887	0.354597
C82	C	1.563665	0.383113	0.854597
C83	C	1.063585	-0.512810	0.163350
C84	C	1.563585	-0.012810	0.663350
C85	C	1.063709	-0.512541	0.081551
C86	C	1.563709	-0.012541	0.581551
C87	C	1.110751	-0.444578	0.816513
C88	C	1.610751	0.055422	1.316513
C89	C	1.110760	-0.444546	0.893372
C90	C	1.610760	0.055454	1.393372
C91	C	1.016604	-0.580676	0.893340
C92	C	1.516604	-0.080676	1.393340
C93	C	1.016592	-0.580701	0.816483
C94	C	1.516592	-0.080701	1.316483
C95	C	1.063670	-0.512653	0.778071
C96	C	1.563670	-0.012653	1.278071
C97	C	1.063691	-0.512597	0.931788
C98	C	1.563691	-0.012597	1.431788
C99	C	1.063700	-0.512564	1.015121
C100	C	1.563700	-0.012564	1.515121
C101	C	1.063660	-0.512685	0.694732
C102	C	1.563660	-0.012685	1.194732
H103	H	1.154442	-0.945849	0.263958
H104	H	1.654442	-0.445849	0.763958
C105	C	1.206478	-1.200674	0.393711
C106	C	1.706478	-0.700674	0.893711
C107	C	1.207433	-1.089507	0.393253
C108	C	1.707433	-0.589507	0.893253
H109	H	1.253787	-1.226532	0.406454
H110	H	1.753787	-0.726532	0.906454
H111	H	1.193431	-1.226014	0.346352
H112	H	1.693431	-0.726014	0.846352
H113	H	1.171575	-1.224868	0.428649
H114	H	1.671575	-0.724868	0.928649
H115	H	1.242332	-1.065312	0.358312
H116	H	1.742332	-0.565312	0.858312
H117	H	1.220489	-1.064157	0.440620
H118	H	1.720489	-0.564157	0.940620
C119	C	1.203834	-0.310005	0.885679
C120	C	1.703834	0.189995	1.385679
C121	C	1.162517	-0.369721	0.935627
C122	C	1.662517	0.130279	1.435627
H123	H	1.235790	-0.263813	0.911767
H124	H	1.735790	0.236187	1.411767
H125	H	1.171774	-0.269298	0.855703
H126	H	1.671774	0.230702	1.355703
H127	H	1.231968	-0.356408	0.855699
H128	H	1.731968	0.143592	1.355699
H129	H	1.134378	-0.323317	0.965603
H130	H	1.634378	0.176683	1.465603
H131	H	1.194581	-0.410431	0.965616
H132	H	1.694581	0.089569	1.465616
H133	H	0.978277	-0.636080	0.924624
H134	H	1.478277	-0.136080	1.424624
C135	C	1.101996	-0.823752	0.497722
C136	C	1.601996	-0.323752	0.997722
C137	C	1.102181	-0.934925	0.498445
C138	C	1.602181	-0.434925	0.998445
H139	H	1.114694	-0.797898	0.545057
H140	H	1.614694	-0.297898	1.045057
H141	H	1.054463	-0.798979	0.484832
H142	H	1.554463	-0.298979	0.984832
H143	H	1.136715	-0.798985	0.462794
H144	H	1.636715	-0.298985	0.962794
H145	H	1.067458	-0.959692	0.533370
H146	H	1.567458	-0.459692	1.033370
H147	H	1.149721	-0.959708	0.511345
H148	H	1.649721	-0.459708	1.011345
H149	H	0.633713	-0.389475	0.440094
H150	H	1.133713	0.110525	0.940094
H151	H	0.978248	-0.636135	0.785182
H152	H	1.478248	-0.136135	1.285182
C153	C	0.533316	-0.310459	0.494915
C154	C	1.033316	0.189541	0.994915
C155	C	0.483336	-0.370131	0.453535
C156	C	0.983336	0.129869	0.953535
H157	H	0.507251	-0.264335	0.526914
H158	H	1.007251	0.235665	1.026914
H159	H	0.563281	-0.269682	0.462897
H160	H	1.063281	0.230318	0.962897
H161	H	0.563303	-0.356894	0.523006
H162	H	1.063303	0.143106	1.023006
H163	H	0.453352	-0.323696	0.425440
H164	H	0.953352	0.176304	0.925440
H165	H	0.453358	-0.410911	0.485556
H166	H	0.953358	0.089089	0.985556
C167	C	0.594622	-0.715220	0.214215
C168	C	1.094622	-0.215220	0.714215
C169	C	0.644596	-0.655532	0.255590
C170	C	1.144596	-0.155532	0.755590
H171	H	0.620690	-0.761354	0.182226
H172	H	1.120690	-0.261354	0.682226
H173	H	0.564636	-0.668804	0.186120
H174	H	1.064636	-0.168804	0.686120
H175	H	0.564655	-0.755997	0.246242
H176	H	1.064655	-0.255997	0.746242
H177	H	0.674560	-0.614749	0.223563
H178	H	1.174560	-0.114749	0.723563
H179	H	0.674594	-0.701954	0.283687
H180	H	1.174594	-0.201954	0.783687
H181	H	0.939753	-0.945885	0.321248
H182	H	1.439753	-0.445885	0.821248
H183	H	0.972872	-1.078476	0.445346
H184	H	1.472872	-0.578476	0.945346
C185	C	1.076830	-1.054114	0.159432
C186	C	1.576830	-0.554114	0.659432
C187	C	1.025247	-1.089819	0.210781
C188	C	1.525247	-0.589819	0.710781
H189	H	1.064195	-1.080076	0.112109
H190	H	1.564195	-0.580076	0.612109
H191	H	1.124173	-1.079351	0.172588
H192	H	1.624173	-0.579351	0.672588
H193	H	1.077096	-0.978696	0.158769
H194	H	1.577096	-0.478696	0.658769
H195	H	1.024985	-1.165237	0.211448
H196	H	1.524985	-0.665237	0.711448
H197	H	0.977892	-1.064587	0.197621
H198	H	1.477892	-0.564587	0.697621
H199	H	1.149083	-0.389166	0.785241
H200	H	1.649083	0.110834	1.285241
H201	H	0.494203	-0.636173	0.269034
H202	H	0.994203	-0.136173	0.769034
