data_functionalizedCrystal
_audit_creation_method	'MofGen! by Chris Wilmer'
_symmetry_space_group_name_H-M	'P1'
_symmetry_Int_Tables_number	1
_symmetry_cell_setting	triclinic
loop_
_symmetry_equiv_pos_as_xyz
  x,y,z
_cell_length_a	21.395362
_cell_length_b	12.594516
_cell_length_c	21.395355
_cell_angle_alpha	89.988593
_cell_angle_beta	89.956060
_cell_angle_gamma	90.031933
loop_
_atom_site_label
_atom_site_type_symbol
_atom_site_fract_x
_atom_site_fract_y
_atom_site_fract_z
Zn1	Zn	0.957923	-0.423414	-0.354617
Zn2	Zn	1.457923	0.076586	0.145383
Zn3	Zn	0.957853	-0.601379	-0.249852
Zn4	Zn	1.457853	-0.101379	0.250148
Zn5	Zn	0.853138	-0.423464	-0.249818
Zn6	Zn	1.353138	0.076536	0.250182
Zn7	Zn	0.853134	-0.601400	-0.354557
Zn8	Zn	1.353134	-0.101400	0.145443
O9	O	0.905512	-0.512414	-0.302211
O10	O	1.405512	-0.012414	0.197789
O11	O	1.045592	-0.446992	-0.340759
O12	O	1.545592	0.053008	0.159241
O13	O	0.943934	-0.577789	-0.162170
O14	O	1.443934	-0.077789	0.337830
O15	O	0.867069	-0.274511	-0.263730
O16	O	1.367069	0.225489	0.236270
O17	O	1.045540	-0.577741	-0.263789
O18	O	1.545540	-0.077741	0.236211
O19	O	0.944055	-0.274475	-0.340725
O20	O	1.444055	0.225525	0.159275
O21	O	0.867001	-0.447076	-0.162144
O22	O	1.367001	0.052924	0.337856
O23	O	0.765460	-0.447097	-0.263672
O24	O	1.265460	0.052903	0.236328
O25	O	0.867063	-0.577779	-0.442243
O26	O	1.367063	-0.077779	0.057757
O27	O	0.765457	-0.577827	-0.340624
O28	O	1.265457	-0.077827	0.159376
O29	O	0.944051	-0.447013	-0.442287
O30	O	1.444051	0.052987	0.057713
O31	O	0.943930	-0.750327	-0.263731
O32	O	1.443930	-0.250327	0.236269
O33	O	0.866994	-0.750343	-0.340657
O34	O	1.366994	-0.250343	0.159343
C35	C	0.742724	-0.512471	-0.302138
C36	C	1.242724	-0.012471	0.197862
C37	C	0.673083	-0.512520	-0.302122
C38	C	1.173083	-0.012520	0.197878
C39	C	0.640385	-0.580681	-0.342130
C40	C	1.140385	-0.080681	0.157870
C41	C	0.574949	-0.580655	-0.342158
C42	C	1.074949	-0.080655	0.157842
C43	C	0.542215	-0.512479	-0.302167
C44	C	1.042215	-0.012479	0.197833
C45	C	0.574921	-0.444305	-0.262155
C46	C	1.074921	0.055695	0.237845
C47	C	0.640355	-0.444326	-0.262133
C48	C	1.140355	0.055674	0.237867
C49	C	0.438489	-0.503905	-0.245761
C50	C	0.938489	-0.003905	0.254239
C51	C	0.373056	-0.503892	-0.245782
C52	C	0.873056	-0.003892	0.254218
C53	C	0.340394	-0.512410	-0.302236
C54	C	0.840394	-0.012410	0.197764
C55	C	0.373173	-0.520963	-0.358670
C56	C	0.873173	-0.020963	0.141330
C57	C	0.438608	-0.520984	-0.358648
C58	C	0.938608	-0.020984	0.141352
C59	C	0.471262	-0.512449	-0.302187
C60	C	0.971262	-0.012449	0.197813
C61	C	0.236743	-0.580546	-0.342278
C62	C	0.736743	-0.080546	0.157722
C63	C	0.171307	-0.580513	-0.342307
C64	C	0.671307	-0.080513	0.157693
C65	C	0.171280	-0.444168	-0.262298
C66	C	0.671280	0.055832	0.237702
C67	C	0.236715	-0.444196	-0.262275
C68	C	0.736715	0.055804	0.237725
C69	C	0.269443	-0.512391	-0.302264
C70	C	0.769443	-0.012391	0.197736
C71	C	0.905471	-0.788955	-0.302205
C72	C	1.405471	-0.288955	0.197795
C73	C	0.905511	-0.907261	-0.302223
C74	C	1.405511	-0.407261	0.197777
C75	C	0.863661	-0.976561	-0.344034
C76	C	1.363661	-0.476561	0.155966
C77	C	0.848392	-1.047409	-0.286856
C78	C	1.348392	-0.547409	0.213144
C79	C	0.920837	-1.047212	-0.359410
C80	C	1.420837	-0.547212	0.140590
C81	C	0.890211	-0.976550	-0.245015
C82	C	1.390211	-0.476550	0.254985
C83	C	0.962683	-0.976347	-0.317608
C84	C	1.462683	-0.476347	0.182392
C85	C	0.947436	-1.047163	-0.260391
C86	C	1.447436	-0.547163	0.239609
C87	C	1.068935	-0.512359	-0.302284
C88	C	1.568935	-0.012359	0.197716
C89	C	1.138577	-0.512335	-0.302315
C90	C	1.638577	-0.012335	0.197685
C91	C	0.905564	-0.512393	-0.465634
C92	C	1.405564	-0.012393	0.034366
C93	C	0.905586	-0.512384	-0.535275
C94	C	1.405586	-0.012384	-0.035275
C95	C	0.905570	-0.234793	-0.302231
C96	C	1.405570	0.265207	0.197769
C97	C	0.905595	-0.116488	-0.302239
C98	C	1.405595	0.383512	0.197761
C99	C	0.945672	-0.444291	-0.568012
C100	C	1.445672	0.055709	-0.068012
C101	C	0.945671	-0.444245	-0.633448
C102	C	1.445671	0.055755	-0.133448
C103	C	0.905591	-0.512311	-0.666144
C104	C	1.405591	-0.012311	-0.166144
C105	C	0.865497	-0.580408	-0.633399
C106	C	1.365497	-0.080408	-0.133399
C107	C	0.865495	-0.580445	-0.567965
C108	C	1.365495	-0.080445	-0.067965
C109	C	0.900630	-0.608151	-0.769815
C110	C	1.400630	-0.108151	-0.269815
C111	C	0.900636	-0.608116	-0.835248
C112	C	1.400636	-0.108116	-0.335248
C113	C	0.905595	-0.512199	-0.867965
C114	C	1.405595	-0.012199	-0.367965
C115	C	0.910560	-0.416312	-0.835241
C116	C	1.410560	0.083688	-0.335241
C117	C	0.910557	-0.416349	-0.769806
C118	C	1.410557	0.083651	-0.269806
C119	C	0.905589	-0.512279	-0.737096
C120	C	1.405589	-0.012279	-0.237096
C121	C	0.945682	-0.444051	-0.971654
C122	C	1.445682	0.055949	-0.471654
C123	C	0.945677	-0.444003	-1.037091
C124	C	1.445677	0.055997	-0.537091
C125	C	0.865506	-0.580176	-1.037041
C126	C	1.365506	-0.080176	-0.537041
C127	C	0.865508	-0.580214	-0.971605
C128	C	1.365508	-0.080214	-0.471605
C129	C	0.905599	-0.512153	-0.938916
C130	C	1.405599	-0.012153	-0.438916
C131	C	0.905496	-0.512359	-0.139423
C132	C	1.405496	-0.012359	0.360577
C133	C	0.905596	-0.512068	-0.069782
C134	C	1.405596	-0.012068	0.430218
H135	H	0.465294	-0.527945	-0.404598
H136	H	0.965294	-0.027945	0.095402
H137	H	0.144685	-0.636015	-0.374891
H138	H	0.644685	-0.136015	0.125109
H139	H	0.982863	-1.077968	-0.224999
H140	H	1.482863	-0.577968	0.275001
N141	N	0.272049	-0.654090	-0.385408
N142	N	0.772049	-0.154090	0.114592
H143	H	0.241402	-0.697262	-0.410762
H144	H	0.741402	-0.197262	0.089238
H145	H	0.299252	-0.610847	-0.414435
H146	H	0.799252	-0.110847	0.085565
H147	H	1.010983	-0.945114	-0.330634
H148	H	1.510983	-0.445114	0.169366
N149	N	0.816708	-0.935478	-0.390804
N150	N	1.316708	-0.435478	0.109196
H151	H	0.795152	-0.997315	-0.411748
H152	H	1.295152	-0.497315	0.088252
H153	H	0.784671	-0.890301	-0.368566
H154	H	1.284671	-0.390301	0.131434
N155	N	0.895284	-0.711528	-0.870542
N156	N	1.395284	-0.211528	-0.370542
H157	H	0.931499	-0.759161	-0.859182
H158	H	1.431499	-0.259161	-0.359182
H159	H	0.854703	-0.747671	-0.859116
H160	H	1.354703	-0.247671	-0.359116
N161	N	0.873013	-0.935612	-0.180944
N162	N	1.373013	-0.435612	0.319056
H163	H	0.833900	-0.891044	-0.183938
H164	H	1.333900	-0.391044	0.316062
H165	H	0.865308	-0.997573	-0.151967
H166	H	1.365308	-0.497573	0.348033
N167	N	0.915901	-0.312842	-0.870513
N168	N	1.415901	0.187158	-0.370513
H169	H	0.956458	-0.276616	-0.859154
H170	H	1.456458	0.223384	-0.359154
H171	H	0.915117	-0.327441	-0.916920
H172	H	1.415117	0.172559	-0.416920
N173	N	0.822264	-0.653904	-0.532653
N174	N	1.322264	-0.153904	-0.032653
H175	H	0.828347	-0.643602	-0.486240
H176	H	1.328347	-0.143602	0.013760
H177	H	0.777519	-0.637348	-0.544053
H178	H	1.277519	-0.137348	-0.044053
N179	N	0.937965	-1.088339	-0.423459
N180	N	1.437965	-0.588339	0.076541
H181	H	0.906290	-1.062658	-0.454998
H182	H	1.406290	-0.562658	0.045002
H183	H	0.980821	-1.061373	-0.435344
H184	H	1.480821	-0.561373	0.064656
N185	N	0.822276	-0.653596	-1.072293
N186	N	1.322276	-0.153596	-0.572293
H187	H	0.777513	-0.637085	-1.060870
H188	H	1.277513	-0.137085	-0.560870
H189	H	0.828411	-0.643209	-1.118703
H190	H	1.328411	-0.143209	-0.618703
H191	H	0.978317	-0.388869	-0.541401
H192	H	1.478317	0.111131	-0.041401
H193	H	0.978313	-0.388790	-0.660108
H194	H	1.478313	0.111210	-0.160108
N195	N	0.822262	-0.653640	-0.936291
N196	N	1.322262	-0.153640	-0.436291
H197	H	0.796867	-0.696747	-0.966931
H198	H	1.296867	-0.196747	-0.466931
H199	H	0.847743	-0.702911	-0.909157
H200	H	1.347743	-0.202911	-0.409157
H201	H	0.548264	-0.388794	-0.229595
H202	H	1.048264	0.111206	0.270405
H203	H	0.144628	-0.388653	-0.229739
H204	H	0.644628	0.111347	0.270261
H205	H	0.896424	-0.686239	-0.743182
H206	H	1.396424	-0.186239	-0.243182
N207	N	0.822257	-0.653806	-0.668659
N208	N	1.322257	-0.153806	-0.168659
H209	H	0.828340	-0.643449	-0.715080
H210	H	1.328340	-0.143449	-0.215080
H211	H	0.831983	-0.729831	-0.657237
H212	H	1.331983	-0.229831	-0.157237
N213	N	0.915914	-0.312939	-0.734510
N214	N	1.415914	0.187061	-0.234510
H215	H	0.919057	-0.252166	-0.765160
H216	H	1.419057	0.247834	-0.265160
H217	H	0.877740	-0.303084	-0.707331
H218	H	1.377740	0.196916	-0.207331
H219	H	0.465077	-0.496964	-0.199786
H220	H	0.965077	0.003036	0.300214
N221	N	0.271978	-0.370683	-0.219113
N222	N	0.771978	0.129317	0.280887
H223	H	0.299076	-0.413870	-0.190024
H224	H	0.799076	0.086130	0.309976
H225	H	0.299140	-0.321440	-0.244657
H226	H	0.799140	0.178560	0.255343
N227	N	0.675684	-0.654230	-0.385260
N228	N	1.175684	-0.154230	0.114740
H229	H	0.645037	-0.697406	-0.410610
H230	H	1.145037	-0.197406	0.089390
H231	H	0.702884	-0.610989	-0.414291
H232	H	1.202884	-0.110989	0.085709
H233	H	0.978323	-0.388625	-0.945037
H234	H	1.478323	0.111375	-0.445037
H235	H	0.548321	-0.636159	-0.374740
H236	H	1.048321	-0.136159	0.125260
N237	N	0.988903	-0.370537	-1.072404
N238	N	1.488903	0.129463	-0.572404
H239	H	1.014297	-0.327427	-1.041763
H240	H	1.514297	0.172573	-0.541763
H241	H	1.017890	-0.413828	-1.099584
H242	H	1.517890	0.086172	-0.599584
H243	H	0.346372	-0.496933	-0.199830
H244	H	0.846372	0.003067	0.300170
N245	N	0.337973	-0.530180	-0.419573
N246	N	0.837973	-0.030180	0.080427
H247	H	0.310858	-0.465353	-0.425547
H248	H	0.810858	0.034647	0.074453
H249	H	0.368722	-0.535642	-0.455265
H250	H	0.868722	-0.035642	0.044735
N251	N	0.675627	-0.370798	-0.218984
N252	N	1.175627	0.129202	0.281016
H253	H	0.644964	-0.327598	-0.193655
H254	H	1.144964	0.172402	0.306345
H255	H	0.702726	-0.414054	-0.189934
H256	H	1.202726	0.085946	0.310066
N257	N	0.784397	-1.088744	-0.269614
N258	N	1.284397	-0.588744	0.230386
H259	H	0.752781	-1.063068	-0.301214
H260	H	1.252781	-0.563068	0.198786
H261	H	0.785060	-1.168925	-0.269337
H262	H	1.285060	-0.668925	0.230663
