data_functionalizedCrystal
_audit_creation_method	'MofGen! by Chris Wilmer'
_symmetry_space_group_name_H-M	'P1'
_symmetry_Int_Tables_number	1
_symmetry_cell_setting	triclinic
loop_
_symmetry_equiv_pos_as_xyz
  x,y,z
_cell_length_a	14.519731
_cell_length_b	14.044190
_cell_length_c	12.996460
_cell_angle_alpha	89.989157
_cell_angle_beta	89.994327
_cell_angle_gamma	88.440315
loop_
_atom_site_label
_atom_site_type_symbol
_atom_site_fract_x
_atom_site_fract_y
_atom_site_fract_z
O1	O	1.233891	0.124370	-0.085581
O2	O	1.567225	0.457703	0.247752
O3	O	1.900558	0.791037	0.581086
O4	O	0.966596	0.138984	-0.085584
O5	O	1.299929	0.472317	0.247749
O6	O	1.633263	0.805650	0.581083
O7	O	1.096228	-0.006315	-0.085562
O8	O	1.429562	0.327018	0.247771
O9	O	1.762895	0.660351	0.581104
O10	O	1.104259	0.269669	-0.085603
O11	O	1.437592	0.603002	0.247731
O12	O	1.770926	0.936335	0.581064
O13	O	1.096213	-0.006323	0.085571
O14	O	1.429546	0.327010	0.418905
O15	O	1.762879	0.660343	0.752238
O16	O	0.966581	0.138975	0.085550
O17	O	1.299914	0.472309	0.418883
O18	O	1.633247	0.805642	0.752216
O19	O	1.233876	0.124362	0.085553
O20	O	1.567209	0.457695	0.418886
O21	O	1.900543	0.791029	0.752219
Cu22	Cu	1.100227	0.131668	0.101177
Cu23	Cu	1.433560	0.465001	0.434510
Cu24	Cu	1.766894	0.798335	0.767844
Cu25	Cu	1.100245	0.131677	-0.101209
Cu26	Cu	1.433578	0.465011	0.232125
Cu27	Cu	1.766912	0.798344	0.565458
O28	O	1.104244	0.269661	0.085531
O29	O	1.437577	0.602994	0.418864
O30	O	1.770910	0.936327	0.752198
C31	C	0.932174	0.138295	-0.000017
C32	C	1.265507	0.471628	0.333316
C33	C	1.598840	0.804961	0.666649
C34	C	0.829628	0.136243	-0.000018
C35	C	1.162961	0.469576	0.333316
C36	C	1.496295	0.802910	0.666649
C37	C	0.746349	0.134576	-0.000021
C38	C	1.079683	0.467909	0.333312
C39	C	1.413016	0.801242	0.666645
C40	C	0.641872	0.132492	-0.000022
C41	C	0.975206	0.465826	0.333312
C42	C	1.308539	0.799159	0.666645
C43	C	0.558600	0.130839	-0.000021
C44	C	0.891933	0.464172	0.333312
C45	C	1.225267	0.797506	0.666645
C46	C	0.454117	0.128756	-0.000023
C47	C	0.787450	0.462089	0.333310
C48	C	1.120783	0.795423	0.666643
C49	C	1.092707	-0.041640	0.000007
C50	C	1.426041	0.291693	0.333341
C51	C	1.759374	0.625027	0.666674
C52	C	1.082228	-0.146884	0.000016
C53	C	1.415561	0.186449	0.333350
C54	C	1.748894	0.519782	0.666683
C55	C	1.137393	-0.397073	-0.000023
C56	C	1.470726	-0.063740	0.333310
C57	C	1.804059	0.269594	0.666643
C58	C	1.063083	-0.339576	-0.000017
C59	C	1.396417	-0.006243	0.333316
C60	C	1.729750	0.327091	0.666650
C61	C	1.073738	-0.232353	0.000001
C62	C	1.407071	0.100981	0.333335
C63	C	1.740404	0.434314	0.666668
C64	C	1.126740	-0.504306	-0.000042
C65	C	1.460073	-0.170973	0.333291
C66	C	1.793406	0.162360	0.666625
C67	C	1.268298	0.125051	-0.000016
C68	C	1.601632	0.458384	0.333317
C69	C	1.934965	0.791717	0.666650
C70	C	1.370844	0.127102	-0.000023
C71	C	1.704177	0.460436	0.333310
C72	C	2.037511	0.793769	0.666644
C73	C	1.107765	0.304985	-0.000041
C74	C	1.441098	0.638319	0.333292
C75	C	1.774431	0.971652	0.666626
C76	C	1.118244	0.410230	-0.000057
C77	C	1.451578	0.743563	0.333277
C78	C	1.784911	1.076897	0.666610
N79	N	1.100221	0.131661	0.243524
N80	N	1.433554	0.464994	0.576857
N81	N	1.766887	0.798327	0.910191
N82	N	1.100258	0.131677	-0.243556
N83	N	1.433591	0.465011	0.089778
N84	N	1.766925	0.798344	0.423111
C85	C	1.100244	0.131678	0.663338
C86	C	1.433577	0.465012	0.996672
C87	C	1.766911	0.798345	1.330005
C88	C	1.100235	0.131677	0.546533
C89	C	1.433568	0.465010	0.879867
C90	C	1.766902	0.798343	1.213200
C91	C	1.100233	0.131670	0.453435
C92	C	1.433566	0.465004	0.786768
C93	C	1.766899	0.798337	1.120102
C94	C	1.100223	0.131667	0.336622
C95	C	1.433556	0.465000	0.669956
C96	C	1.766890	0.798334	1.003289
H97	H	0.991463	-0.370878	-0.000024
H98	H	1.324796	-0.037545	0.333310
H99	H	1.658130	0.295788	0.666643
Cl100	Cl	1.247963	-0.348747	-0.000006
Cl101	Cl	1.581296	-0.015414	0.333327
Cl102	Cl	1.914629	0.317920	0.666661
