data_functionalizedCrystal
_audit_creation_method	'MofGen! by Chris Wilmer'
_symmetry_space_group_name_H-M	'P1'
_symmetry_Int_Tables_number	1
_symmetry_cell_setting	triclinic
loop_
_symmetry_equiv_pos_as_xyz
  x,y,z
_cell_length_a	19.188905
_cell_length_b	19.188930
_cell_length_c	9.730223
_cell_angle_alpha	90.006436
_cell_angle_beta	90.007319
_cell_angle_gamma	83.139668
loop_
_atom_site_label
_atom_site_type_symbol
_atom_site_fract_x
_atom_site_fract_y
_atom_site_fract_z
O1	O	0.926152	0.087081	0.114532
O2	O	0.722838	0.098834	0.114487
O3	O	0.830362	-0.008699	0.114484
O4	O	0.818628	0.194614	0.114535
O5	O	0.830361	-0.008696	-0.114096
O6	O	0.722837	0.098837	-0.114093
O7	O	0.926151	0.087084	-0.114048
Zn8	Zn	0.824494	0.092961	-0.150363
Zn9	Zn	0.824495	0.092957	0.150801
O10	O	0.818627	0.194617	-0.114045
C11	C	0.696826	0.098458	0.000191
C12	C	0.619321	0.097324	0.000172
C13	C	0.829982	-0.034708	0.000190
C14	C	0.828841	-0.112213	0.000178
C15	C	0.582930	0.096778	0.124775
C16	C	0.510106	0.095705	0.124792
C17	C	0.473678	0.095164	0.000199
C18	C	0.510078	0.095714	-0.124420
C19	C	0.582899	0.096794	-0.124433
N20	N	0.364657	0.053736	-0.092534
N21	N	0.295480	0.052709	-0.092513
C22	C	0.254272	0.091911	0.000231
N23	N	0.284854	0.132171	0.092974
N24	N	0.354038	0.133196	0.092957
C25	C	0.394716	0.093993	0.000199
C26	C	0.138917	0.090203	0.124861
C27	C	0.066091	0.089134	0.124872
C28	C	0.066065	0.089136	-0.124343
C29	C	0.138888	0.090212	-0.124351
C30	C	0.175310	0.090742	0.000255
C31	C	0.891933	-0.157142	0.000185
C32	C	0.890861	-0.229966	0.000207
C33	C	0.826694	-0.257857	0.000194
C34	C	0.763594	-0.212917	0.000194
C35	C	0.764668	-0.140095	0.000186
N36	N	0.777646	-0.365856	-0.077607
N37	N	0.776630	-0.435035	-0.077603
C38	C	0.823456	-0.477265	0.000221
N39	N	0.871346	-0.447705	0.078022
N40	N	0.872363	-0.378520	0.078011
C41	C	0.825523	-0.336819	0.000203
C42	C	0.885390	-0.601159	0.000254
C43	C	0.884315	-0.673984	0.000284
C44	C	0.757047	-0.656933	0.000257
C45	C	0.758123	-0.584110	0.000241
C46	C	0.822296	-0.556228	0.000232
C47	C	0.952163	0.087460	0.000251
C48	C	1.029668	0.088594	0.000278
C49	C	0.819007	0.220626	0.000252
C50	C	0.820148	0.298131	0.000273
N51	N	0.824498	0.092963	-0.355899
C52	C	0.872121	0.045363	-0.427827
C53	C	0.872119	0.045355	-0.571709
C54	C	0.776868	0.140551	-0.571725
C55	C	0.776867	0.140556	-0.427845
C56	C	0.927116	-0.009596	-0.427819
C57	C	0.927114	-0.009604	-0.571702
N58	N	0.824497	0.092950	0.356338
H59	H	0.612580	0.097209	0.226239
H60	H	0.704801	-0.679641	0.000253
C61	C	0.995337	0.012563	-0.367502
N62	N	1.046722	0.029253	-0.322071
H63	H	0.935694	-0.710565	0.000297
H64	H	0.480470	0.095261	0.226261
H65	H	0.612528	0.097239	-0.225903
H66	H	0.980633	0.001724	-0.610737
C67	C	0.693010	-0.243599	0.000169
N68	N	0.639844	-0.266707	0.000152
H69	H	0.713289	-0.103513	0.000179
H70	H	0.937644	-0.578456	0.000253
C71	C	0.962525	-0.126476	0.000188
N72	N	1.015696	-0.103377	0.000193
H73	H	0.738082	0.179309	-0.369283
H74	H	0.168572	0.090642	0.226322
C75	C	0.178921	0.090802	-0.261426
N76	N	0.209074	0.091248	-0.364677
C77	C	0.724476	0.192900	-0.650878
N78	N	0.685014	0.232330	-0.710495
C79	C	0.911858	-0.081909	-0.375075
N80	N	0.900363	-0.136373	-0.335348
H81	H	0.036462	0.088694	0.226343
H82	H	0.910746	-0.060122	-0.616334
H83	H	0.036406	0.088700	-0.225789
C84	C	0.470006	0.095118	-0.261472
N85	N	0.439823	0.094670	-0.364705
H86	H	0.942239	-0.266555	0.000218
H87	H	0.706747	-0.547527	0.000227
