data_functionalizedCrystal
_audit_creation_method	'MofGen! by Chris Wilmer'
_symmetry_space_group_name_H-M	'P1'
_symmetry_Int_Tables_number	1
_symmetry_cell_setting	triclinic
loop_
_symmetry_equiv_pos_as_xyz
  x,y,z
_cell_length_a	14.044220
_cell_length_b	19.188930
_cell_length_c	13.101039
_cell_angle_alpha	93.345801
_cell_angle_beta	86.340132
_cell_angle_gamma	88.166830
loop_
_atom_site_label
_atom_site_type_symbol
_atom_site_fract_x
_atom_site_fract_y
_atom_site_fract_z
O1	O	1.262233	0.164759	-0.085127
O2	O	1.595566	0.498092	0.248206
O3	O	1.928899	0.831425	0.581540
O4	O	0.986290	0.158685	-0.085152
O5	O	1.319624	0.492018	0.248181
O6	O	1.652957	0.825352	0.581514
O7	O	1.132223	0.060581	-0.085119
O8	O	1.465557	0.393914	0.248214
O9	O	1.798890	0.727248	0.581548
O10	O	1.116300	0.262863	-0.085160
O11	O	1.449633	0.596196	0.248173
O12	O	1.782966	0.929530	0.581506
O13	O	1.121753	0.067633	0.085309
O14	O	1.455086	0.400966	0.418642
O15	O	1.788419	0.734299	0.751975
O16	O	0.975820	0.165737	0.085275
O17	O	1.309153	0.499070	0.418609
O18	O	1.642486	0.832403	0.751942
O19	O	1.251762	0.171810	0.085300
O20	O	1.585095	0.505144	0.418634
O21	O	1.918429	0.838477	0.751967
Zn22	Zn	1.112128	0.169893	0.112347
Zn23	Zn	1.445462	0.503226	0.445680
Zn24	Zn	1.778795	0.836560	0.779014
Zn25	Zn	1.125924	0.160602	-0.112199
Zn26	Zn	1.459257	0.493936	0.221135
Zn27	Zn	1.792591	0.827269	0.554468
O28	O	1.105829	0.269914	0.085267
O29	O	1.439162	0.603248	0.418600
O30	O	1.772496	0.936581	0.751934
C31	C	0.945752	0.159553	0.000059
C32	C	1.279085	0.492886	0.333392
C33	C	1.612418	0.826219	0.666725
C34	C	0.840559	0.151623	0.000050
C35	C	1.173893	0.484957	0.333383
C36	C	1.507226	0.818290	0.666717
C37	C	1.126472	0.038063	0.000098
C38	C	1.459805	0.371396	0.333431
C39	C	1.793139	0.704729	0.666764
C40	C	1.124923	-0.039541	0.000106
C41	C	1.458257	0.293792	0.333440
C42	C	1.791590	0.627125	0.666773
C43	C	0.647957	0.137129	0.000073
C44	C	0.981290	0.470462	0.333407
C45	C	1.314623	0.803796	0.666740
C46	C	0.590091	0.193363	0.000066
C47	C	0.923424	0.526696	0.333399
C48	C	1.256757	0.860030	0.666733
C49	C	0.482920	0.185298	0.000079
C50	C	0.816253	0.518631	0.333412
C51	C	1.149587	0.851965	0.666746
C52	C	0.755137	0.145193	0.000060
C53	C	1.088471	0.478526	0.333394
C54	C	1.421804	0.811859	0.666727
C55	C	1.210553	-0.078939	0.000119
C56	C	1.543886	0.254394	0.333452
C57	C	1.877219	0.587728	0.666786
C58	C	1.209099	-0.151857	0.000103
C59	C	1.542432	0.181476	0.333436
C60	C	1.875766	0.514809	0.666769
C61	C	1.122010	-0.185374	0.000094
C62	C	1.455344	0.147959	0.333427
C63	C	1.788677	0.481292	0.666761
C64	C	1.036370	-0.145968	0.000075
C65	C	1.369703	0.187366	0.333409
C66	C	1.703037	0.520699	0.666742
C67	C	1.037827	-0.073051	0.000082
C68	C	1.371160	0.260282	0.333415
C69	C	1.704493	0.593615	0.666748
N70	N	1.051878	-0.295275	0.058088
N71	N	1.385211	0.038058	0.391421
N72	N	1.718544	0.371391	0.724754
N73	N	1.050500	-0.364543	0.058084
N74	N	1.383833	-0.031210	0.391417
N75	N	1.717167	0.302123	0.724750
C76	C	1.117617	-0.405067	0.000073
C77	C	1.450950	-0.071734	0.333406
C78	C	1.784283	0.261599	0.666739
N79	N	1.186177	-0.373707	-0.057921
N80	N	1.519510	-0.040374	0.275412
N81	N	1.852844	0.292960	0.608745
N82	N	1.187558	-0.304433	-0.057913
N83	N	1.520891	0.028900	0.275420
N84	N	1.854224	0.362234	0.608754
C85	C	1.120421	-0.264440	0.000086
C86	C	1.453755	0.068894	0.333420
C87	C	1.787088	0.402227	0.666753
C88	C	1.201676	-0.523532	0.000066
C89	C	1.535009	-0.190198	0.333399
C90	C	1.868342	0.143135	0.666733
C91	C	1.200219	-0.596452	0.000043
C92	C	1.533552	-0.263118	0.333377
C93	C	1.866886	0.070215	0.666710
C94	C	1.027487	-0.590560	0.000026
C95	C	1.360820	-0.257227	0.333360
C96	C	1.694154	0.076107	0.666693
C97	C	1.028947	-0.517642	0.000039
C98	C	1.362280	-0.184309	0.333372
C99	C	1.695613	0.149025	0.666706
C100	C	1.116043	-0.484132	0.000064
C101	C	1.449377	-0.150799	0.333397
C102	C	1.782710	0.182534	0.666730
C103	C	1.292301	0.170943	0.000087
C104	C	1.625634	0.504276	0.333421
C105	C	1.958967	0.837609	0.666754
C106	C	1.397494	0.178872	0.000089
C107	C	1.730827	0.512205	0.333423
C108	C	2.064160	0.845538	0.666756
C109	C	1.111580	0.292433	0.000048
C110	C	1.444914	0.625766	0.333382
C111	C	1.778247	0.959099	0.666715
C112	C	1.113129	0.370037	0.000033
C113	C	1.446463	0.703370	0.333366
C114	C	1.779796	1.036703	0.666699
N115	N	1.102720	0.176234	0.265593
N116	N	1.436054	0.509567	0.598927
N117	N	1.769387	0.842900	0.932260
N118	N	1.135340	0.154257	-0.265445
N119	N	1.468673	0.487590	0.067888
N120	N	1.802006	0.820923	0.401222
C121	C	1.089920	0.184867	0.474633
C122	C	1.423254	0.518200	0.807966
C123	C	1.756587	0.851534	1.141300
C124	C	1.148137	0.145626	0.525522
C125	C	1.481470	0.478959	0.858855
C126	C	1.814803	0.812292	1.192189
C127	C	1.141014	0.150429	0.641839
C128	C	1.474348	0.483762	0.975172
C129	C	1.807681	0.817096	1.308505
C130	C	1.097041	0.180064	0.358306
C131	C	1.430374	0.513398	0.691639
C132	C	1.763708	0.846731	1.024972
H133	H	0.621038	0.247564	0.000050
H134	H	0.954371	0.580897	0.333383
H135	H	1.287705	0.914231	0.666717
H136	H	0.617011	0.082932	0.000090
H137	H	0.950344	0.416266	0.333423
H138	H	1.283678	0.749599	0.666757
C139	C	1.306362	-0.042083	0.000138
C140	C	1.639696	0.291250	0.333471
C141	C	1.973029	0.624584	0.666804
N142	N	1.378527	-0.014322	0.000149
N143	N	1.711860	0.319011	0.333482
N144	N	2.045194	0.652345	0.666816
H145	H	1.203327	0.108423	0.481732
H146	H	1.536660	0.441756	0.815066
H147	H	1.869993	0.775090	1.148399
C148	C	0.934746	-0.474303	0.000031
C149	C	1.268079	-0.140969	0.333364
C150	C	1.601413	0.192364	0.666697
N151	N	0.863790	-0.441660	0.000020
N152	N	1.197123	-0.108326	0.333354
N153	N	1.530457	0.225007	0.666687
H154	H	0.968095	-0.040974	0.000072
H155	H	1.301428	0.292360	0.333405
H156	H	1.634761	0.625693	0.666738
H157	H	1.034735	0.222068	0.518417
H158	H	1.368068	0.555402	0.851751
H159	H	1.701402	0.888735	1.185084
H160	H	1.272595	-0.496247	0.000082
H161	H	1.605929	-0.162913	0.333415
H162	H	1.939262	0.170420	0.666748
H163	H	0.965462	-0.173262	0.000066
H164	H	1.298795	0.160071	0.333399
H165	H	1.632129	0.493405	0.666733
C166	C	1.303301	-0.195203	0.000123
C167	C	1.636634	0.138130	0.333456
C168	C	1.969968	0.471464	0.666790
N169	N	1.374254	-0.227849	0.000141
N170	N	1.707588	0.105485	0.333475
N171	N	2.040921	0.438818	0.666808
H172	H	1.269952	-0.628529	0.000048
H173	H	1.603285	-0.295195	0.333381
H174	H	1.936619	0.038138	0.666715
H175	H	0.956578	-0.617849	0.000014
H176	H	1.289911	-0.284516	0.333348
H177	H	1.623245	0.048818	0.666681
