data_functionalizedCrystal
_audit_creation_method	'MofGen! by Chris Wilmer'
_symmetry_space_group_name_H-M	'P1'
_symmetry_Int_Tables_number	1
_symmetry_cell_setting	triclinic
loop_
_symmetry_equiv_pos_as_xyz
  x,y,z
_cell_length_a	14.519731
_cell_length_b	16.109302
_cell_length_c	14.586319
_cell_angle_alpha	89.994552
_cell_angle_beta	89.998350
_cell_angle_gamma	96.424683
loop_
_atom_site_label
_atom_site_type_symbol
_atom_site_fract_x
_atom_site_fract_y
_atom_site_fract_z
O1	O	-0.118542	1.103344	-0.076270
O2	O	-0.133293	0.861308	-0.076262
O3	O	0.008333	0.988734	-0.076273
O4	O	-0.260168	0.975918	-0.076259
O5	O	0.008335	0.988725	0.076208
O6	O	-0.133291	0.861300	0.076219
O7	O	-0.118540	1.103335	0.076210
Cu8	Cu	-0.125915	0.982316	0.090137
Cu9	Cu	-0.125918	0.982327	-0.090189
O10	O	-0.260166	0.975909	0.076222
C11	C	-0.132695	0.830328	-0.000020
C12	C	-0.130903	0.738030	-0.000018
C13	C	-0.126758	0.525676	0.083090
C14	C	-0.125065	0.438953	0.083087
C15	C	-0.125072	0.438973	-0.083156
C16	C	-0.126759	0.525696	-0.083152
C17	C	-0.127607	0.569044	-0.000026
C18	C	-0.124226	0.395599	-0.000033
C19	C	-0.122390	0.301570	-0.000038
C20	C	-0.129441	0.663080	-0.000021
C21	C	-0.294525	0.976514	-0.000017
C22	C	-0.396902	0.978314	-0.000012
C23	C	-0.480043	0.979776	-0.000016
C24	C	-0.584348	0.981603	-0.000025
C25	C	-0.667484	0.983053	-0.000032
C26	C	-0.771795	0.984880	-0.000039
C27	C	0.042692	0.988129	-0.000036
C28	C	0.145069	0.986330	-0.000047
C29	C	-0.119139	1.134315	-0.000033
C30	C	-0.120930	1.226614	-0.000042
N31	N	-0.125913	0.982315	0.216969
N32	N	-0.125913	0.982335	-0.217020
C33	C	-0.063222	1.038758	0.451971
C34	C	-0.063220	1.038760	0.547952
C35	C	-0.188607	0.925886	0.547971
C36	C	-0.188604	0.925880	0.451992
C37	C	-0.125913	0.982321	0.403994
C38	C	-0.125913	0.982329	0.595955
C39	C	-0.125911	0.982331	0.700022
C40	C	-0.125913	0.982318	0.299920
H41	H	-0.124374	0.403647	0.150769
H42	H	-0.239655	0.879918	0.412926
H43	H	-0.124383	0.403668	-0.150834
N44	N	-0.127616	0.569989	-0.168066
N45	N	-0.126863	0.531277	-0.242278
H46	H	-0.127464	0.562559	-0.302247
N47	N	0.000832	1.096393	0.596964
N48	N	0.058089	1.069917	0.650512
H49	H	0.103335	1.110618	0.685124
N50	N	-0.252635	0.868241	0.597016
N51	N	-0.252630	0.868253	0.682711
H52	H	-0.297852	0.827541	0.717349
H53	H	-0.012173	1.084714	0.412893
H54	H	-0.127449	0.560968	0.150777
