data_functionalizedCrystal
_audit_creation_method	'MofGen! by Chris Wilmer'
_symmetry_space_group_name_H-M	'P1'
_symmetry_Int_Tables_number	1
_symmetry_cell_setting	triclinic
loop_
_symmetry_equiv_pos_as_xyz
  x,y,z
_cell_length_a	11.169417
_cell_length_b	12.645330
_cell_length_c	11.169409
_cell_angle_alpha	90.032220
_cell_angle_beta	90.020564
_cell_angle_gamma	90.018570
loop_
_atom_site_label
_atom_site_type_symbol
_atom_site_fract_x
_atom_site_fract_y
_atom_site_fract_z
Zn1	Zn	1.834910	-0.421929	0.678543
Zn2	Zn	1.834771	-0.599240	0.477860
Zn3	Zn	1.634193	-0.421994	0.477878
Zn4	Zn	1.634177	-0.599154	0.678505
O5	O	1.734513	-0.510579	0.578197
O6	O	2.002841	-0.445459	0.651931
O7	O	1.808112	-0.575791	0.309913
O8	O	1.660883	-0.273638	0.504519
O9	O	2.002739	-0.575728	0.504490
O10	O	1.808349	-0.273591	0.651948
O11	O	1.660749	-0.445569	0.309925
O12	O	1.466241	-0.445485	0.504483
O13	O	1.660857	-0.575582	0.846460
O14	O	1.466230	-0.575644	0.651883
O15	O	1.808334	-0.445375	0.846488
O16	O	1.808097	-0.747576	0.504453
O17	O	1.660722	-0.747513	0.651866
C18	C	1.422688	-0.510563	0.578181
C19	C	1.289288	-0.510582	0.578203
C20	C	1.734425	-0.786009	0.578180
C21	C	1.734498	-0.903839	0.578213
C22	C	1.642166	-1.071407	0.671236
C23	C	1.641694	-0.948848	0.670937
C24	C	1.700252	-0.948448	0.451730
C25	C	1.699689	-1.071046	0.452295
C26	C	1.861639	-1.070923	0.610646
C27	C	1.860860	-0.948316	0.613412
C28	C	2.047555	-0.510596	0.578213
C29	C	2.180955	-0.510603	0.578220
C30	C	1.734609	-0.510462	0.891239
C31	C	1.734650	-0.510412	1.024639
C32	C	1.734633	-0.234074	0.578240
C33	C	1.734685	-0.116244	0.578258
C34	C	1.734486	-0.510620	0.266372
C35	C	1.734678	-0.510371	0.132972
H36	H	1.663120	-0.918683	0.764723
H37	H	1.886685	-0.919154	0.706497
H38	H	1.892877	-1.101756	0.701309
H39	H	1.933421	-0.917671	0.550623
H40	H	1.606884	-1.099742	0.424857
C41	C	1.788388	-0.909065	0.355575
C42	C	1.772180	-0.942978	0.224125
C43	C	1.860316	-0.903592	0.127973
C44	C	1.964660	-0.830294	0.163270
C45	C	1.980872	-0.796377	0.294726
C46	C	1.892736	-0.835762	0.390879
H47	H	1.694935	-0.997241	0.197991
H48	H	1.848315	-0.928700	0.030660
H49	H	2.029903	-0.801138	0.092092
H50	H	2.058117	-0.742113	0.320860
H51	H	1.904737	-0.810654	0.488191
C52	C	1.515807	-1.113143	0.642622
C53	C	1.408907	-1.080335	0.721334
C54	C	1.282550	-1.122071	0.692715
C55	C	1.263093	-1.196616	0.585384
C56	C	1.369996	-1.229428	0.506666
C57	C	1.496354	-1.187692	0.535285
H58	H	1.423307	-1.025149	0.800793
H59	H	1.203413	-1.097780	0.750989
H60	H	1.169555	-1.227511	0.564199
H61	H	1.355596	-1.284614	0.427207
H62	H	1.575491	-1.211983	0.477011
C63	C	1.954763	-1.110092	0.519169
C64	C	1.915881	-1.182834	0.415589
C65	C	2.008993	-1.222008	0.324108
C66	C	2.140987	-1.188440	0.336206
C67	C	2.179876	-1.115694	0.439790
C68	C	2.086764	-1.076520	0.531271
H69	H	1.818165	-1.207687	0.406630
H70	H	1.980205	-1.275860	0.247428
H71	H	2.209915	-1.217439	0.268486
H72	H	2.277592	-1.090841	0.448750
H73	H	2.115553	-1.022668	0.607951
H74	H	1.663396	-1.100808	0.765330
H75	H	1.764151	-1.100711	0.380657
C76	C	1.514550	-0.909347	0.641945
C77	C	1.413132	-0.989358	0.618986
C78	C	1.285983	-0.949858	0.589990
C79	C	1.260252	-0.830348	0.583954
C80	C	1.361674	-0.750330	0.606914
C81	C	1.488823	-0.789829	0.635910
H82	H	1.432176	-1.077833	0.623453
H83	H	1.210904	-1.009093	0.572993
H84	H	1.166129	-0.801108	0.562490
H85	H	1.342630	-0.661854	0.602447
H86	H	1.563902	-0.730594	0.652907
C87	C	1.576181	-0.907116	0.413990
C88	C	1.554506	-0.787353	0.401713
C89	C	1.430431	-0.746024	0.363981
C90	C	1.328032	-0.824458	0.338525
C91	C	1.349704	-0.944228	0.350802
C92	C	1.473779	-0.985557	0.388534
H93	H	1.630310	-0.729286	0.420557
H94	H	1.414388	-0.657362	0.354893
H95	H	1.236185	-0.793863	0.310594
H96	H	1.273900	-1.002296	0.331958
H97	H	1.489822	-1.074219	0.397622
