data_functionalizedCrystal
_audit_creation_method	'MofGen! by Chris Wilmer'
_symmetry_space_group_name_H-M	'P1'
_symmetry_Int_Tables_number	1
_symmetry_cell_setting	triclinic
loop_
_symmetry_equiv_pos_as_xyz
  x,y,z
_cell_length_a	16.956984
_cell_length_b	10.489716
_cell_length_c	16.053802
_cell_angle_alpha	92.596368
_cell_angle_beta	87.614701
_cell_angle_gamma	80.291277
loop_
_atom_site_label
_atom_site_type_symbol
_atom_site_fract_x
_atom_site_fract_y
_atom_site_fract_z
O1	O	1.055001	0.058538	0.069431
O2	O	0.823098	0.103293	0.069430
O3	O	0.944337	-0.105319	0.069433
O4	O	0.933763	0.267150	0.069427
O5	O	0.951003	-0.116768	-0.069426
O6	O	0.829764	0.091844	-0.069429
O7	O	1.061667	0.047089	-0.069428
Zn8	Zn	0.946774	0.067648	-0.091475
Zn9	Zn	0.937991	0.082733	0.091477
O10	O	0.940429	0.255701	-0.069432
C11	C	0.796736	0.099860	0.000000
C12	C	0.708254	0.106674	0.000000
C13	C	0.675522	-0.007248	0.000000
C14	C	0.592383	-0.000838	0.000006
C15	C	0.541978	0.119495	0.000006
C16	C	0.574715	0.233425	0.000008
C17	C	0.657853	0.227014	0.000008
C18	C	0.292386	0.151228	0.000011
C19	C	0.209243	0.157630	0.000008
C20	C	0.226917	-0.076633	0.000008
C21	C	0.310055	-0.083034	0.000003
C22	C	0.342785	0.030897	0.000010
N23	N	0.456996	0.126050	0.000009
N24	N	0.427765	0.024341	0.000012
C25	C	0.946875	-0.158480	0.000006
C26	C	0.944498	-0.299825	0.000014
C27	C	1.018845	-0.406432	0.000007
C28	C	0.976272	-0.473428	0.068469
C29	C	0.982827	-0.484678	-0.068435
C30	C	0.901953	-0.364954	0.068533
C31	C	0.908522	-0.376205	-0.068433
C32	C	0.865893	-0.443144	0.000046
C33	C	1.088029	0.050522	0.000003
C34	C	1.176511	0.043709	0.000009
C35	C	0.937890	0.308862	-0.000003
C36	C	0.940268	0.450208	-0.000005
N37	N	0.931998	0.093019	0.216337
N38	N	0.952774	0.057352	-0.216336
C39	C	0.983686	0.004403	0.260033
C40	C	0.979491	0.011596	0.347439
C41	C	0.923605	0.107399	0.391149
C42	C	0.871915	0.196025	0.347447
C43	C	0.876113	0.188837	0.260042
C44	C	0.905283	0.138789	0.652558
C45	C	0.901086	0.145968	0.739969
C46	C	1.008665	-0.038460	0.739955
C47	C	1.012855	-0.045644	0.652548
C48	C	0.961168	0.042985	0.608854
N49	N	0.919314	0.114751	0.480492
N50	N	0.965463	0.035638	0.519512
H51	H	0.200258	-0.169388	0.000012
H52	H	1.058363	-0.123655	0.616962
C53	C	0.855827	-0.294928	0.146816
H54	H	0.835024	-0.356117	0.179465
H55	H	0.891023	-0.253451	0.178822
H56	H	0.812964	-0.232025	0.130453
H57	H	0.879943	-0.333693	-0.126316
H58	H	1.017006	-0.536695	-0.126313
H59	H	0.168204	0.255624	0.000004
C60	C	1.045161	-0.100983	0.211960
H61	H	1.075347	-0.152722	0.250505
H62	H	1.017903	-0.153964	0.177857
H63	H	1.080172	-0.061273	0.177870
C64	C	0.519272	0.365788	0.000005
H65	H	0.465070	0.353291	-0.000004
H66	H	0.526940	0.416860	0.048427
H67	H	0.531595	0.408864	-0.048426
C68	C	0.848425	0.236267	0.604501
H69	H	0.858932	0.218280	0.546186
H70	H	0.794503	0.228990	0.618823
H71	H	0.856775	0.321676	0.618837
C72	C	0.556377	-0.126147	0.000013
H73	H	0.499644	-0.105098	0.000026
H74	H	0.575951	-0.179322	-0.048408
H75	H	0.571312	-0.171323	0.048444
C76	C	0.693858	0.352327	0.000006
H77	H	0.651933	0.424911	-0.000001
H78	H	0.723598	0.358686	0.048430
H79	H	0.728247	0.350704	-0.048422
C80	C	0.328379	0.276545	0.000002
H81	H	0.286451	0.349124	-0.000010
H82	H	0.358121	0.282921	0.048423
H83	H	0.362766	0.274914	-0.048429
H84	H	0.801173	-0.459796	0.000083
C85	C	1.014908	-0.530837	0.146662
H86	H	0.976493	-0.566391	0.178896
H87	H	1.059013	-0.596974	0.130209
H88	H	1.033046	-0.464543	0.179130
C89	C	1.106199	-0.383573	0.000093
H90	H	1.118159	-0.340762	-0.048575
H91	H	1.113160	-0.331438	0.048276
H92	H	1.141171	-0.464427	0.000620
H93	H	1.021580	-0.060562	0.383016
C94	C	1.065525	-0.135929	0.788020
H95	H	1.055028	-0.117923	0.846335
H96	H	1.057187	-0.221339	0.773690
H97	H	1.119448	-0.128634	0.773695
C98	C	0.839613	0.251364	0.788048
H99	H	0.809437	0.303128	0.749508
H100	H	0.804603	0.211666	0.822139
H101	H	0.866884	0.304337	0.822151
H102	H	0.826413	0.274036	0.383040
C103	C	0.819238	0.286286	0.211977
H104	H	0.785342	0.344358	0.250526
H105	H	0.849756	0.333668	0.177876
H106	H	0.787509	0.240940	0.177885
H107	H	0.351091	-0.181022	0.000000
C108	C	0.730961	-0.139615	0.000006
H109	H	0.699555	-0.206542	0.000017
H110	H	0.766087	-0.150987	-0.048414
H111	H	0.761431	-0.142984	0.048438
