data_functionalizedCrystal
_audit_creation_method	'MofGen! by Chris Wilmer'
_symmetry_space_group_name_H-M	'P1'
_symmetry_Int_Tables_number	1
_symmetry_cell_setting	triclinic
loop_
_symmetry_equiv_pos_as_xyz
  x,y,z
_cell_length_a	19.188930
_cell_length_b	11.792241
_cell_length_c	10.868271
_cell_angle_alpha	90.005281
_cell_angle_beta	90.018197
_cell_angle_gamma	83.669098
loop_
_atom_site_label
_atom_site_type_symbol
_atom_site_fract_x
_atom_site_fract_y
_atom_site_fract_z
O1	O	-0.926947	-0.141694	-0.102719
O2	O	-0.723744	-0.160769	-0.102634
O3	O	-0.830277	0.014013	-0.102670
O4	O	-0.820414	-0.316476	-0.102683
O5	O	-0.830268	0.014020	0.101975
O6	O	-0.723735	-0.160762	0.102010
O7	O	-0.926938	-0.141688	0.101926
Zn8	Zn	-0.825335	-0.151224	0.134460
Zn9	Zn	-0.825347	-0.151233	-0.135168
O10	O	-0.820406	-0.316469	0.101962
C11	C	-0.697725	-0.160148	-0.000301
C12	C	-0.620210	-0.158293	-0.000269
C13	C	-0.829653	0.056298	-0.000348
C14	C	-0.827799	0.182284	-0.000348
C15	C	-0.952957	-0.142309	-0.000410
C16	C	-1.030472	-0.144163	-0.000450
C17	C	-0.575867	-0.260849	-0.000292
C18	C	-0.503033	-0.259107	-0.000306
C19	C	-0.474546	-0.154803	-0.000320
C20	C	-0.518899	-0.052234	-0.000290
C21	C	-0.591731	-0.053979	-0.000264
N22	N	-0.366117	-0.075078	-0.070016
N23	N	-0.296929	-0.073428	-0.070043
C24	C	-0.255107	-0.149540	-0.000395
N25	N	-0.285086	-0.227382	0.069265
N26	N	-0.354280	-0.229036	0.069287
C27	C	-0.395573	-0.152900	-0.000348
C28	C	-0.131789	-0.250214	-0.000432
C29	C	-0.058955	-0.248468	-0.000438
C30	C	-0.074822	-0.041591	-0.000434
C31	C	-0.147655	-0.043341	-0.000416
C32	C	-0.176134	-0.147655	-0.000421
C33	C	-0.821029	-0.358754	-0.000363
C34	C	-0.822884	-0.484740	-0.000371
N35	N	-0.825332	-0.151217	0.318474
C36	C	-0.824389	0.412945	-0.000367
C37	C	-0.826283	0.284588	-0.000357
N38	N	-0.825355	-0.151230	-0.319182
C39	C	-0.825343	-0.151230	0.569480
C40	C	-0.825335	-0.151226	0.429803
H41	H	-0.466922	-0.342624	-0.000321
O42	O	-0.159379	-0.351609	-0.000584
C43	C	-0.168171	-0.528933	-0.106629
C44	C	-0.136868	-0.414158	-0.106597
H45	H	-0.149996	-0.579527	-0.192344
H46	H	-0.149899	-0.579670	-0.021045
H47	H	-0.227843	-0.512533	-0.106555
H48	H	-0.077196	-0.430455	-0.106714
H49	H	-0.155196	-0.363459	-0.192173
H50	H	-0.022850	-0.331985	-0.000450
O51	O	-0.603415	-0.362276	-0.000229
C52	C	-0.579988	-0.567281	-0.000310
C53	C	-0.548695	-0.452497	-0.000358
H54	H	-0.535762	-0.640254	-0.000441
H55	H	-0.613637	-0.573346	0.085368
H56	H	-0.613740	-0.573212	-0.085919
H57	H	-0.514911	-0.446488	0.085193
H58	H	-0.515086	-0.446480	-0.086093
H59	H	-0.627836	0.029537	-0.000246
O60	O	-0.047042	0.059632	-0.000506
C61	C	0.058127	0.154006	-0.000470
C62	C	0.026757	0.039289	-0.000422
H63	H	0.117798	0.137598	-0.000377
H64	H	0.039922	0.204681	-0.086130
H65	H	0.039878	0.204674	0.085157
H66	H	0.044992	-0.011472	-0.085992
H67	H	0.044959	-0.011300	0.085294
H68	H	-0.183760	0.040172	-0.000404
H69	H	-0.495700	0.032691	-0.000319
