data_functionalizedCrystal
_audit_creation_method	'MofGen! by Chris Wilmer'
_symmetry_space_group_name_H-M	'P1'
_symmetry_Int_Tables_number	1
_symmetry_cell_setting	triclinic
loop_
_symmetry_equiv_pos_as_xyz
  x,y,z
_cell_length_a	12.759395
_cell_length_b	21.295417
_cell_length_c	12.759387
_cell_angle_alpha	89.961464
_cell_angle_beta	89.979491
_cell_angle_gamma	90.032044
loop_
_atom_site_label
_atom_site_type_symbol
_atom_site_fract_x
_atom_site_fract_y
_atom_site_fract_z
Zn1	Zn	1.606153	-0.250550	-0.593949
Zn2	Zn	1.605995	-0.355833	-0.418245
Zn3	Zn	1.430451	-0.250585	-0.418285
Zn4	Zn	1.430395	-0.355788	-0.593884
O5	O	1.518249	-0.303189	-0.506091
O6	O	1.753153	-0.264521	-0.570651
O7	O	1.582667	-0.341905	-0.271229
O8	O	1.453848	-0.162491	-0.441631
O9	O	1.753037	-0.341871	-0.441563
O10	O	1.582936	-0.162465	-0.570690
O11	O	1.453695	-0.264579	-0.271259
O12	O	1.283423	-0.264536	-0.441569
O13	O	1.453753	-0.341795	-0.740914
O14	O	1.283382	-0.341828	-0.570581
O15	O	1.582881	-0.264477	-0.740961
O16	O	1.582612	-0.443917	-0.441501
O17	O	1.453600	-0.443884	-0.570542
C18	C	1.245281	-0.303181	-0.506073
C19	C	1.128505	-0.303193	-0.506090
C20	C	1.518111	-0.466741	-0.506033
C21	C	1.518148	-0.536709	-0.506043
C22	C	1.128500	-0.383808	-0.640213
C23	C	1.073637	-0.424121	-0.707277
C24	C	0.963916	-0.424129	-0.707290
C25	C	0.909055	-0.383818	-0.640233
C26	C	0.963918	-0.343506	-0.573169
C27	C	1.073642	-0.343504	-0.573161
C28	C	0.963922	-0.262888	-0.439053
C29	C	1.073644	-0.262883	-0.439034
C30	C	0.909061	-0.222578	-0.371997
C31	C	0.963924	-0.182267	-0.304926
C32	C	1.073652	-0.182262	-0.304915
C33	C	1.128507	-0.222570	-0.371969
C34	C	1.585385	-0.569572	-0.438920
C35	C	1.585434	-0.635314	-0.438944
C36	C	1.518228	-0.668191	-0.506079
C37	C	1.450987	-0.635320	-0.573215
C38	C	1.450947	-0.569579	-0.573197
N39	N	1.426321	-0.771458	-0.514083
N40	N	1.426362	-0.833909	-0.514094
C41	C	1.518346	-0.866266	-0.506139
N42	N	1.610289	-0.833812	-0.498153
N43	N	1.610247	-0.771355	-0.498137
C44	C	1.518264	-0.739477	-0.506107
C45	C	1.585641	-0.970414	-0.439039
C46	C	1.585692	-1.036158	-0.439070
C47	C	1.451236	-1.036163	-0.573336
C48	C	1.451194	-0.970421	-0.573310
C49	C	1.518395	-0.937550	-0.506156
C50	C	1.792282	-0.303197	-0.506110
C51	C	1.909059	-0.303201	-0.506118
C52	C	1.518328	-0.303127	-0.780125
C53	C	1.518362	-0.303101	-0.896901
C54	C	1.518416	-0.138999	-0.506172
C55	C	1.518487	-0.069031	-0.506207
C56	C	1.652833	-0.222595	-0.896970
C57	C	1.720083	-0.182333	-0.951865
C58	C	1.720108	-0.182310	-1.061587
C59	C	1.652874	-0.222552	-1.116416
C60	C	1.585624	-0.262815	-1.061521
C61	C	1.585608	-0.262835	-0.951797
C62	C	1.451150	-0.343316	-1.061452
C63	C	1.451128	-0.343344	-0.951730
C64	C	1.383916	-0.383559	-1.116281
C65	C	1.316670	-0.423825	-1.061386
C66	C	1.316648	-0.423847	-0.951657
C67	C	1.383878	-0.383606	-0.896835
C68	C	1.518230	-0.303205	-0.233123
C69	C	1.518400	-0.303054	-0.116347
H70	H	1.118317	-0.456940	-0.761875
C71	C	1.658917	-1.071726	-0.366253
C72	C	1.762816	-1.055610	-0.389240
C73	C	1.830321	-1.088343	-0.322174
H74	H	1.649515	-1.115604	-0.375783
H75	H	1.643641	-1.060974	-0.295630
H76	H	1.778087	-1.066367	-0.459846
H77	H	1.772252	-1.011739	-0.379704
H78	H	1.815045	-1.077590	-0.251552
H79	H	1.820909	-1.132218	-0.331709
H80	H	1.900823	-1.077408	-0.337755
C81	C	1.653085	-0.222453	-1.235543
C82	C	1.726381	-0.178587	-1.271883
C83	C	1.726612	-0.178485	-1.381616
H84	H	1.585365	-0.211535	-1.260486
H85	H	1.671264	-0.263060	-1.260388
H86	H	1.708197	-0.137989	-1.247049
H87	H	1.794112	-0.189496	-1.246969
H88	H	1.744790	-0.219092	-1.406461
H89	H	1.658888	-0.167568	-1.406549
H90	H	1.776349	-0.148727	-1.406287
C91	C	1.243601	-0.467637	-0.892250
C92	C	1.184755	-0.502884	-0.963755
C93	C	1.117467	-0.543238	-0.909072
H94	H	1.197748	-0.443638	-0.849442
H95	H	1.283735	-0.495111	-0.849469
H96	H	1.144624	-0.475413	-1.006518
H97	H	1.230580	-0.526895	-1.006566
H98	H	1.157601	-0.570713	-0.866291
H99	H	1.071621	-0.519235	-0.866266
H100	H	1.077539	-0.567162	-0.957580
H101	H	1.383871	-0.383622	-0.807494
H102	H	0.819720	-0.222584	-0.372017
H103	H	1.217841	-0.383811	-0.640201
H104	H	0.919246	-0.456951	-0.761905
H105	H	0.919247	-0.149447	-0.250339
H106	H	1.383938	-0.383535	-1.205622
C107	C	1.658248	-0.671076	-0.365972
C108	C	1.598787	-0.708885	-0.298619
C109	C	1.665819	-0.741838	-0.231381
H110	H	1.698277	-0.642150	-0.325877
H111	H	1.704018	-0.696721	-0.406150
H112	H	1.553035	-0.683243	-0.258445
H113	H	1.558761	-0.737823	-0.338685
H114	H	1.711589	-0.767482	-0.271559
H115	H	1.705844	-0.712907	-0.191293
H116	H	1.625485	-0.767499	-0.185680
H117	H	1.118315	-0.149430	-0.250310
C118	C	1.658472	-0.533998	-0.365985
C119	C	1.717388	-0.576855	-0.307227
C120	C	1.784740	-0.544106	-0.240042
H121	H	1.618414	-0.508393	-0.320071
H122	H	1.704270	-0.508323	-0.406188
H123	H	1.671596	-0.602519	-0.267026
H124	H	1.757467	-0.602462	-0.353113
H125	H	1.830538	-0.518431	-0.280246
H126	H	1.744673	-0.518502	-0.194136
H127	H	1.824729	-0.573179	-0.200174
C128	C	0.789928	-0.383939	-0.640367
C129	C	0.753623	-0.427878	-0.713436
C130	C	0.643890	-0.428013	-0.713575
H131	H	0.765016	-0.343369	-0.658704
H132	H	0.765028	-0.394807	-0.572554
H133	H	0.778512	-0.417007	-0.781234
H134	H	0.778506	-0.468455	-0.695115
H135	H	0.618990	-0.438881	-0.645762
H136	H	0.618988	-0.387440	-0.731910
H137	H	0.619243	-0.457829	-0.763144
C138	C	1.243795	-0.467489	-1.121102
C139	C	1.258222	-0.458858	-1.228941
C140	C	1.191119	-0.499077	-1.283988
H141	H	1.173168	-0.458316	-1.103239
H142	H	1.259131	-0.509803	-1.103167
H143	H	1.242879	-0.416553	-1.246868
H144	H	1.328835	-0.468034	-1.246836
H145	H	1.206455	-0.541391	-1.266053
H146	H	1.120496	-0.489901	-1.266116
H147	H	1.200905	-0.493230	-1.357161
C148	C	1.378312	-1.071964	-0.646118
C149	C	1.392722	-1.136572	-0.631755
C150	C	1.325556	-1.169573	-0.698780
H151	H	1.393580	-1.061219	-0.716760
H152	H	1.307698	-1.061275	-0.630669
H153	H	1.463319	-1.147256	-0.647211
H154	H	1.377445	-1.147335	-0.561127
H155	H	1.254942	-1.158885	-0.683331
H156	H	1.340830	-1.158824	-0.769419
H157	H	1.335316	-1.213413	-0.689037
C158	C	1.247633	-0.222494	-0.371768
C159	C	1.283944	-0.178573	-0.298670
C160	C	1.393677	-0.178492	-0.298451
H161	H	1.272622	-0.211638	-0.439539
H162	H	1.272453	-0.263090	-0.353412
H163	H	1.259135	-0.137986	-0.317031
H164	H	1.258984	-0.189419	-0.230888
H165	H	1.418496	-0.219088	-0.280095
H166	H	1.418655	-0.167637	-0.366225
H167	H	1.418328	-0.148697	-0.248848
C168	C	1.378058	-0.671126	-0.645991
C169	C	1.392462	-0.735734	-0.631620
C170	C	1.325290	-0.768736	-0.698638
H171	H	1.393325	-0.660386	-0.716635
H172	H	1.307446	-0.660434	-0.630541
H173	H	1.463058	-0.746422	-0.647077
H174	H	1.377187	-0.746493	-0.560989
H175	H	1.254678	-0.758044	-0.683189
H176	H	1.340563	-0.757991	-0.769279
H177	H	1.335047	-0.812576	-0.688890
C178	C	1.378241	-0.934818	-0.646348
C179	C	1.401051	-0.950756	-0.750322
C180	C	1.333857	-0.917978	-0.817638
H181	H	1.387772	-0.890947	-0.636866
H182	H	1.307648	-0.945654	-0.630972
H183	H	1.471626	-0.939916	-0.765693
H184	H	1.391513	-0.994621	-0.759838
H185	H	1.263264	-0.928814	-0.802262
H186	H	1.343394	-0.874109	-0.808147
H187	H	1.349318	-0.928791	-0.888191
C188	C	1.378052	-0.533782	-0.646033
C189	C	1.392416	-0.469173	-0.631661
C190	C	1.325292	-0.436176	-0.698747
H191	H	1.307433	-0.544528	-0.630667
H192	H	1.393410	-0.544473	-0.716664
H193	H	1.377051	-0.458486	-0.561046
H194	H	1.463021	-0.458408	-0.647034
H195	H	1.340650	-0.446867	-0.769378
H196	H	1.254678	-0.446927	-0.683376
H197	H	1.335036	-0.392335	-0.689012
C198	C	1.658544	-0.934800	-0.365969
C199	C	1.635751	-0.950872	-0.262006
C200	C	1.702894	-0.918084	-0.194666
H201	H	1.648950	-0.890930	-0.375425
H202	H	1.729153	-0.945537	-0.381348
H203	H	1.565159	-0.940131	-0.246633
H204	H	1.645351	-0.994735	-0.252517
H205	H	1.773503	-0.928820	-0.210045
H206	H	1.693295	-0.874216	-0.204131
H207	H	1.687445	-0.928988	-0.124121
C208	C	1.652931	-0.222509	-0.777843
C209	C	1.726186	-0.178642	-0.741576
C210	C	1.726298	-0.178539	-0.631843
H211	H	1.671082	-0.263102	-0.752875
H212	H	1.585160	-0.211590	-0.752975
H213	H	1.793942	-0.189565	-0.766434
H214	H	1.708052	-0.138043	-0.766515
H215	H	1.658527	-0.167620	-0.606974
H216	H	1.744446	-0.219134	-0.606885
H217	H	1.775993	-0.148772	-0.607221
H218	H	1.774821	-0.149567	-0.907212
C219	C	1.793235	-0.138573	-1.121005
C220	C	1.852126	-0.103344	-1.049511
C221	C	1.919510	-0.063054	-1.104208
H222	H	1.753201	-0.111080	-1.163823
H223	H	1.839047	-0.162637	-1.163777
H224	H	1.806320	-0.079282	-1.006757
H225	H	1.892182	-0.130821	-1.006691
H226	H	1.965322	-0.087117	-1.146981
H227	H	1.879468	-0.035565	-1.147024
H228	H	1.959482	-0.039151	-1.055709
