data_functionalizedCrystal
_audit_creation_method	'MofGen! by Chris Wilmer'
_symmetry_space_group_name_H-M	'P1'
_symmetry_Int_Tables_number	1
_symmetry_cell_setting	triclinic
loop_
_symmetry_equiv_pos_as_xyz
  x,y,z
_cell_length_a	12.594516
_cell_length_b	12.594517
_cell_length_c	12.594509
_cell_angle_alpha	89.977786
_cell_angle_beta	89.972125
_cell_angle_gamma	90.011248
loop_
_atom_site_label
_atom_site_type_symbol
_atom_site_fract_x
_atom_site_fract_y
_atom_site_fract_z
Zn1	Zn	-0.423726	1.627298	-0.601888
Zn2	Zn	-0.601736	1.627202	-0.423910
Zn3	Zn	-0.423770	1.449302	-0.423914
Zn4	Zn	-0.601661	1.449298	-0.601838
O5	O	-0.512724	1.538275	-0.512888
O6	O	-0.447352	1.776231	-0.578298
O7	O	-0.578179	1.603565	-0.274965
O8	O	-0.274819	1.472956	-0.447545
O9	O	-0.578136	1.776161	-0.447539
O10	O	-0.274786	1.603729	-0.578302
O11	O	-0.447428	1.472863	-0.274968
O12	O	-0.447355	1.300356	-0.447496
O13	O	-0.578008	1.472948	-0.750790
O14	O	-0.578051	1.300352	-0.578216
O15	O	-0.447280	1.603724	-0.750827
O16	O	-0.750672	1.603561	-0.447490
O17	O	-0.750617	1.472855	-0.578213
C18	C	-0.512700	1.261734	-0.512852
C19	C	-0.512716	1.143429	-0.512862
C20	C	-0.789265	1.538226	-0.512869
C21	C	-0.907570	1.538302	-0.512897
C22	C	-0.441553	1.003383	-0.441926
C23	C	-0.415620	1.074240	-0.539052
C24	C	-0.538602	1.074144	-0.415746
C25	C	-0.486775	1.003500	-0.610117
C26	C	-0.609802	1.003398	-0.486746
C27	C	-0.583905	1.074222	-0.583939
C28	C	-0.976814	1.609476	-0.441873
C29	C	-1.047511	1.635486	-0.539022
C30	C	-1.047672	1.512425	-0.415809
C31	C	-0.976708	1.564362	-0.610097
C32	C	-0.976863	1.441256	-0.486818
C33	C	-1.047528	1.467229	-0.584035
C34	C	-0.235103	1.538354	-0.512929
C35	C	-0.116797	1.538387	-0.512947
C36	C	-0.512630	1.538346	-0.790509
C37	C	-0.512591	1.538377	-0.908814
C38	C	-0.512748	1.815896	-0.512924
C39	C	-0.512758	1.934201	-0.512939
C40	C	-0.583653	1.467270	-0.978047
C41	C	-0.609660	1.564392	-1.048839
C42	C	-0.486519	1.441330	-1.048821
C43	C	-0.538649	1.635550	-0.978048
C44	C	-0.415462	1.512422	-0.978024
C45	C	-0.441433	1.609612	-1.048784
C46	C	-0.512740	1.538265	-0.236347
C47	C	-0.512479	1.538441	-0.118042
H48	H	-0.381309	0.972283	-0.381979
H49	H	-0.945670	1.586203	-0.692295
O50	O	-0.707582	1.590474	-1.086086
C51	C	-0.857981	1.536522	-1.191247
C52	C	-0.747081	1.506874	-1.149165
H53	H	-0.889959	1.468940	-1.242237
H54	H	-0.852228	1.611866	-1.241120
H55	H	-0.913891	1.550688	-1.121466
H56	H	-0.691111	1.492653	-1.218882
H57	H	-0.752918	1.431559	-1.099261
H58	H	-0.560747	1.717672	-0.947090
O59	O	-0.655384	1.395455	-0.941112
C60	C	-0.710119	1.212165	-0.936672
C61	C	-0.628824	1.293378	-0.978596
H62	H	-0.688661	1.129614	-0.966943
H63	H	-0.792864	1.234433	-0.965799
H64	H	-0.708974	1.212321	-0.846163
H65	H	-0.629873	1.293265	-1.069103
H66	H	-0.546116	1.271081	-0.949388
H67	H	-0.464514	1.359232	-1.079910
O68	O	-1.084295	1.395587	-0.655937
C69	C	-1.089598	1.341962	-0.839496
C70	C	-1.047907	1.423179	-0.758182
H71	H	-1.060176	1.364229	-0.922176
H72	H	-1.180112	1.342030	-0.838596
H73	H	-1.059307	1.259446	-0.817893
H74	H	-1.078119	1.505735	-0.779728
H75	H	-0.957393	1.423018	-0.759097
O76	O	-0.317477	1.486284	-0.941003
C77	C	-0.131408	1.530622	-0.936466
C78	C	-0.242310	1.560346	-0.978487
H79	H	-0.070608	1.590497	-0.966735
H80	H	-0.109255	1.447816	-0.965520
H81	H	-0.132274	1.531583	-0.845958
H82	H	-0.241528	1.559447	-1.068992
H83	H	-0.264418	1.643134	-0.949351
O84	O	-0.317631	1.111323	-0.565276
C85	C	-0.131812	1.117249	-0.520173
C86	C	-0.242728	1.075208	-0.490349
H87	H	-0.071219	1.088049	-0.459623
H88	H	-0.132874	1.207761	-0.520594
H89	H	-0.109219	1.087001	-0.602438
H90	H	-0.265389	1.105377	-0.408077
H91	H	-0.241606	0.984697	-0.490000
O92	O	-0.460529	0.966465	-0.708091
C93	C	-0.431175	0.812717	-0.818065
C94	C	-0.460890	0.854517	-0.707059
H95	H	-0.431479	0.722203	-0.817274
H96	H	-0.348663	0.842451	-0.840526
H97	H	-0.491465	0.842563	-0.878603
H98	H	-0.400672	0.824689	-0.646447
H99	H	-0.543429	0.824792	-0.684689
O100	O	-0.369803	1.681604	-1.085564
C101	C	-0.316293	1.865230	-1.090983
C102	C	-0.397496	1.783813	-1.049277
H103	H	-0.338641	1.947880	-1.061643
H104	H	-0.316278	1.864335	-1.181497
H105	H	-0.233791	1.843728	-1.060622
H106	H	-0.480038	1.805258	-1.079558
H107	H	-0.397419	1.784723	-0.958764
H108	H	-0.644104	1.105128	-0.644029
H109	H	-1.078842	1.490502	-0.333682
O110	O	-0.707667	0.966286	-0.460131
C111	C	-0.845611	0.960162	-0.327621
C112	C	-0.734760	1.002243	-0.357633
H113	H	-0.867559	0.989234	-0.244760
H114	H	-0.844896	0.869652	-0.328606
H115	H	-0.906480	0.990508	-0.387326
H116	H	-0.673829	0.971975	-0.297958
H117	H	-0.735563	1.092752	-0.356682
H118	H	-0.560477	1.105178	-0.333584
H119	H	-0.945805	1.359173	-0.464703
H120	H	-1.078547	1.717593	-0.561108
O121	O	-0.939941	1.681365	-0.370270
C122	C	-0.984426	1.813791	-0.239577
C123	C	-1.026329	1.732431	-0.320640
H124	H	-1.054249	1.855084	-0.199413
H125	H	-0.933347	1.875287	-0.282101
H126	H	-0.934647	1.771172	-0.177149
H127	H	-1.076153	1.774959	-0.383089
H128	H	-1.077350	1.670940	-0.278042
