data_functionalizedCrystal
_audit_creation_method	'MofGen! by Chris Wilmer'
_symmetry_space_group_name_H-M	'P1'
_symmetry_Int_Tables_number	1
_symmetry_cell_setting	triclinic
loop_
_symmetry_equiv_pos_as_xyz
  x,y,z
_cell_length_a	10.654549
_cell_length_b	15.186229
_cell_length_c	10.654550
_cell_angle_alpha	90.003596
_cell_angle_beta	84.484854
_cell_angle_gamma	90.002342
loop_
_atom_site_label
_atom_site_type_symbol
_atom_site_fract_x
_atom_site_fract_y
_atom_site_fract_z
O1	O	1.667840	0.073208	0.176395
O2	O	2.167840	0.573208	0.676395
O3	O	1.302361	0.073214	0.193202
O4	O	1.802361	0.573214	0.693202
O5	O	1.493503	0.073205	0.002059
O6	O	1.993503	0.573205	0.502059
O7	O	1.476697	0.073217	0.367538
O8	O	1.976697	0.573217	0.867538
O9	O	1.493490	-0.073252	0.002056
O10	O	1.993490	0.426748	0.502056
O11	O	1.302348	-0.073243	0.193199
O12	O	1.802348	0.426757	0.693199
O13	O	1.667827	-0.073249	0.176392
O14	O	2.167827	0.426751	0.676392
Zn15	Zn	1.485085	-0.096499	0.184795
Zn16	Zn	1.985085	0.403501	0.684795
Zn17	Zn	1.485102	0.096464	0.184799
Zn18	Zn	1.985102	0.596464	0.684799
O19	O	1.476684	-0.073240	0.367535
O20	O	1.976684	0.426760	0.867535
C21	C	1.255557	-0.000014	0.191966
C22	C	1.755557	0.499986	0.691966
C23	C	1.116113	-0.000011	0.188275
C24	C	1.616113	0.499989	0.688275
N25	N	1.485083	-0.228192	0.184792
N26	N	1.985083	0.271808	0.684792
C27	C	0.905599	-0.000012	0.297338
C28	C	1.405599	0.499988	0.797338
C29	C	1.036619	-0.000006	0.300816
C30	C	1.536619	0.499994	0.800816
C31	C	1.064581	-0.000013	0.072247
C32	C	1.564581	0.499987	0.572247
C33	C	0.933563	-0.000012	0.068770
C34	C	1.433563	0.499988	0.568770
C35	C	1.569750	-0.453919	0.100183
C36	C	2.069750	0.046081	0.600183
C37	C	1.569754	-0.546108	0.100180
C38	C	2.069754	-0.046108	0.600180
C39	C	1.400438	-0.546110	0.269405
C40	C	1.900438	-0.046110	0.769405
C41	C	1.400429	-0.453922	0.269401
C42	C	1.900429	0.046078	0.769401
C43	C	1.485092	-0.407829	0.184792
C44	C	1.985092	0.092171	0.684792
C45	C	1.485105	-0.592206	0.184793
C46	C	1.985105	-0.092206	0.684793
C47	C	1.485109	-0.692162	0.184790
C48	C	1.985109	-0.192162	0.684790
C49	C	1.485087	-0.307866	0.184792
C50	C	1.985087	0.192134	0.684792
C51	C	1.714631	-0.000019	0.177628
C52	C	2.214631	0.499981	0.677628
C53	C	1.854074	-0.000016	0.181319
C54	C	2.354074	0.499984	0.681319
C55	C	1.492263	-0.000023	-0.044740
C56	C	1.992263	0.499977	0.455260
C57	C	1.488571	-0.000021	-0.184183
C58	C	1.988571	0.499979	0.315817
N59	N	1.485115	0.228157	0.184792
N60	N	1.985115	0.728157	0.684792
C61	C	1.601113	-0.000023	-0.263669
C62	C	2.101113	0.499977	0.236331
C63	C	1.597636	-0.000012	-0.394690
C64	C	2.097636	0.499988	0.105310
C65	C	1.369067	-0.000002	-0.366727
C66	C	1.869067	0.499998	0.133273
C67	C	1.372544	-0.000006	-0.235708
C68	C	1.872544	0.499994	0.264292
C69	C	1.477925	-0.000010	0.414334
C70	C	1.977925	0.499990	0.914334
C71	C	1.481617	-0.000006	0.553777
C72	C	1.981617	0.499994	1.053777
H73	H	0.840882	-0.000014	0.388983
H74	H	1.340882	0.499986	0.888983
H75	H	1.689279	-0.000011	-0.459403
H76	H	2.189279	0.499989	0.040597
H77	H	1.331485	-0.416393	0.338300
H78	H	1.831485	0.083607	0.838300
H79	H	1.638688	-0.583632	0.031283
H80	H	2.138688	-0.083632	0.531283
H81	H	1.274601	0.000009	-0.408694
H82	H	1.774601	0.500009	0.091306
H83	H	1.129316	-0.000012	-0.019386
H84	H	1.629316	0.499988	0.480614
H85	H	1.280894	-0.000002	-0.170987
H86	H	1.780894	0.499998	0.329013
H87	H	1.638686	-0.416392	0.031287
H88	H	2.138686	0.083608	0.531287
H89	H	1.078563	-0.000002	0.395290
H90	H	1.578563	0.499998	0.895290
H91	H	0.891613	-0.000013	-0.025712
H92	H	1.391613	0.499987	0.474288
H93	H	1.331509	-0.583648	0.338294
H94	H	1.831509	-0.083648	0.838294
H95	H	1.695589	-0.000033	-0.221722
H96	H	2.195589	0.499967	0.278278
