data_functionalizedCrystal
_audit_creation_method	'MofGen! by Chris Wilmer'
_symmetry_space_group_name_H-M	'P1'
_symmetry_Int_Tables_number	1
_symmetry_cell_setting	triclinic
loop_
_symmetry_equiv_pos_as_xyz
  x,y,z
_cell_length_a	18.050590
_cell_length_b	18.050590
_cell_length_c	18.050591
_cell_angle_alpha	90.005734
_cell_angle_beta	89.986577
_cell_angle_gamma	90.007719
loop_
_atom_site_label
_atom_site_type_symbol
_atom_site_fract_x
_atom_site_fract_y
_atom_site_fract_z
Zn1	Zn	1.135250	-0.296050	0.419597
Zn2	Zn	1.135209	-0.420195	0.295406
Zn3	Zn	1.011096	-0.296000	0.295456
Zn4	Zn	1.011038	-0.420180	0.419588
O5	O	1.073148	-0.358106	0.357512
O6	O	1.239169	-0.312546	0.403106
O7	O	1.118752	-0.403706	0.191488
O8	O	1.027607	-0.192082	0.311948
O9	O	1.239139	-0.403755	0.311863
O10	O	1.118822	-0.192119	0.403154
O11	O	1.027567	-0.312461	0.191524
O12	O	0.907164	-0.312445	0.311939
O13	O	1.027507	-0.403728	0.523514
O14	O	0.907121	-0.403679	0.403139
O15	O	1.118765	-0.312531	0.523521
O16	O	1.118696	-0.524118	0.311854
O17	O	1.027468	-0.524106	0.403091
C18	C	0.880196	-0.358056	0.357544
C19	C	0.797650	-0.358052	0.357575
C20	C	0.598198	-0.407807	0.407052
C21	C	0.548789	-0.340098	0.425328
C22	C	0.646520	-0.358093	0.357539
C23	C	0.548847	-0.425842	0.339262
C24	C	0.500535	-0.358139	0.357505
C25	C	0.598199	-0.290348	0.375850
C26	C	0.598260	-0.376138	0.289753
C27	C	0.548874	-0.308382	0.308003
C28	C	0.730618	-0.358068	0.357560
C29	C	0.416438	-0.358157	0.357484
C30	C	1.073091	-0.551059	0.357482
C31	C	1.073135	-0.633604	0.357494
C32	C	1.122847	-0.833034	0.307949
C33	C	1.140968	-0.882397	0.375724
C34	C	1.073177	-0.784735	0.357524
C35	C	1.055132	-0.882453	0.289779
C36	C	1.073219	-0.930720	0.357547
C37	C	1.091332	-0.833010	0.425335
C38	C	1.005464	-0.833062	0.339344
C39	C	1.023559	-0.882403	0.407166
C40	C	1.073154	-0.700636	0.357510
C41	C	1.073241	-1.014816	0.357568
C42	C	1.266854	-0.358158	0.357480
C43	C	1.349399	-0.358180	0.357467
C44	C	1.073134	-0.358133	0.551217
C45	C	1.073129	-0.358144	0.633763
C46	C	1.073226	-0.164401	0.357558
C47	C	1.073259	-0.081855	0.357577
C48	C	1.023496	-0.407731	0.833210
C49	C	1.091244	-0.425912	0.882583
C50	C	1.073132	-0.358134	0.784893
C51	C	1.005389	-0.339977	0.882603
C52	C	1.073129	-0.358126	0.930879
C53	C	1.140915	-0.376351	0.833179
C54	C	1.055015	-0.290384	0.833194
C55	C	1.122809	-0.308540	0.882545
C56	C	1.073132	-0.358141	0.700795
C57	C	1.073136	-0.358119	1.014975
C58	C	1.073149	-0.358104	1.164560
C59	C	1.073133	-0.358113	1.082014
H60	H	0.620006	-0.391405	0.232459
H61	H	1.198220	-0.391769	0.811560
H62	H	0.948200	-0.811374	0.323932
O63	O	1.178464	-0.252976	0.911068
H64	H	1.234616	-0.268219	0.891166
O65	O	1.111640	-0.804384	0.501270
H66	H	1.167679	-0.824633	0.516434
O67	O	0.520142	-0.501712	0.318804
H68	H	0.458658	-0.500915	0.318465
H69	H	0.981572	-0.903943	0.449148
H70	H	1.039852	-0.904172	0.232479
O71	O	0.520365	-0.252658	0.252520
H72	H	0.486551	-0.281551	0.210061
O73	O	0.967973	-0.463330	0.804495
H74	H	0.983195	-0.519523	0.824272
O75	O	0.626780	-0.214456	0.396399
H76	H	0.660974	-0.218582	0.447330
O77	O	0.626894	-0.463405	0.462566
H78	H	0.661550	-0.434537	0.504357
H79	H	1.198249	-0.904069	0.391116
H80	H	1.164866	-0.811357	0.266069
O81	O	1.034681	-0.214528	0.804407
H82	H	0.978396	-0.199587	0.824159
O83	O	1.111549	-0.501795	0.911332
H84	H	1.070270	-0.542871	0.891581
H85	H	0.948101	-0.324624	0.904312
H86	H	0.527060	-0.324850	0.482638
