data_functionalizedCrystal
_audit_creation_method	'MofGen! by Chris Wilmer'
_symmetry_space_group_name_H-M	'P1'
_symmetry_Int_Tables_number	1
_symmetry_cell_setting	triclinic
loop_
_symmetry_equiv_pos_as_xyz
  x,y,z
_cell_length_a	17.038272
_cell_length_b	19.188930
_cell_length_c	15.500227
_cell_angle_alpha	92.813384
_cell_angle_beta	86.956295
_cell_angle_gamma	87.128169
loop_
_atom_site_label
_atom_site_type_symbol
_atom_site_fract_x
_atom_site_fract_y
_atom_site_fract_z
O1	O	1.040536	0.148564	-0.071852
O2	O	0.812914	0.146156	-0.071877
O3	O	0.933292	0.046114	-0.071847
O4	O	0.920157	0.248607	-0.071882
O5	O	0.925988	0.052159	0.072040
O6	O	0.805609	0.152202	0.072009
O7	O	1.033231	0.154610	0.072035
Cu8	Cu	0.918753	0.153958	0.085160
Cu9	Cu	0.927392	0.146808	-0.085003
O10	O	0.912852	0.254653	0.072004
C11	C	0.780140	0.146990	0.000063
C12	C	0.693368	0.140458	0.000054
C13	C	0.643067	0.200424	0.000044
C14	C	0.561535	0.194283	0.000057
C15	C	0.530306	0.128176	0.000074
C16	C	0.580613	0.068205	0.000086
C17	C	0.662143	0.074347	0.000080
C18	C	0.284614	0.106479	0.000101
C19	C	0.203078	0.100342	0.000105
C20	C	0.184005	0.226421	0.000078
C21	C	0.265538	0.232556	0.000066
C22	C	0.315838	0.172586	0.000083
C23	C	0.446967	0.121897	0.000085
C24	C	0.399174	0.178865	0.000078
C25	C	0.929214	0.023099	0.000099
C26	C	0.927937	-0.054485	0.000106
C27	C	0.998572	-0.095020	0.000118
C28	C	0.997373	-0.167919	0.000104
C29	C	0.925534	-0.200279	0.000095
C30	C	0.854890	-0.159734	0.000079
C31	C	0.856092	-0.086837	0.000084
N32	N	0.868136	-0.309638	0.049057
N33	N	0.866999	-0.378887	0.049053
C34	C	0.921909	-0.419913	0.000077
N35	N	0.978011	-0.389074	-0.048884
N36	N	0.979150	-0.319818	-0.048877
C37	C	0.924223	-0.279323	0.000089
C38	C	0.991249	-0.539494	0.000073
C39	C	0.990047	-0.612395	0.000054
C40	C	0.847562	-0.604208	0.000037
C41	C	0.848767	-0.531310	0.000048
C42	C	0.920612	-0.498957	0.000070
C43	C	1.066004	0.153776	0.000092
C44	C	1.152777	0.160308	0.000095
C45	C	0.916930	0.277667	0.000057
C46	C	0.918208	0.355250	0.000044
N47	N	0.912682	0.158986	0.204843
N48	N	0.933468	0.141775	-0.204686
C49	C	0.963709	0.116612	0.250133
C50	C	0.959125	0.120422	0.340705
C51	C	0.903518	0.166610	0.385985
C52	C	0.852486	0.208985	0.340689
C53	C	0.857067	0.205171	0.250119
C54	C	0.887017	0.180337	0.659448
C55	C	0.882442	0.184149	0.750024
C56	C	0.989080	0.095584	0.750033
C57	C	0.993659	0.091778	0.659461
C58	C	0.942624	0.134150	0.614174
C59	C	0.898833	0.170506	0.478564
C60	C	0.947306	0.130250	0.521596
H61	H	0.520582	0.243114	0.000048
H62	H	0.290958	0.286387	0.000042
H63	H	0.791248	-0.498305	0.000043
O64	O	0.676742	0.271729	0.000026
H65	H	0.741886	0.265928	0.000015
O66	O	1.023682	0.066792	0.201295
H67	H	1.058387	0.037962	0.248008
O68	O	1.066239	-0.656115	0.000063
H69	H	1.053336	-0.712242	0.000045
H70	H	0.845464	0.214840	0.622582
H71	H	0.421530	0.068073	0.000123
O72	O	0.792517	0.258809	0.389525
H73	H	0.732489	0.245533	0.372164
H74	H	0.424604	0.232690	0.000070
O75	O	1.076058	-0.060122	0.000134
H76	H	1.082986	-0.029558	-0.058507
H77	H	0.143042	0.275245	0.000066
O78	O	0.546931	-0.003097	0.000106
H79	H	0.564178	-0.029676	0.058762
H80	H	0.815515	0.239676	0.213246
O81	O	0.770075	-0.639098	0.000032
H82	H	0.781104	-0.696599	0.000036
H83	H	0.177655	0.046506	0.000118
H84	H	1.000674	0.085917	0.377579
H85	H	0.325559	0.057647	0.000115
H86	H	0.703099	0.025516	0.000087
H87	H	1.038938	0.054168	0.622596
O88	O	1.068736	-0.504594	0.000077
H89	H	1.099697	-0.518099	0.058718
O90	O	1.073558	-0.211652	0.000128
H91	H	1.123717	-0.176908	0.000152
O92	O	0.777404	-0.194630	0.000079
H93	H	0.788434	-0.252130	0.000089
O94	O	1.007264	0.080422	0.472755
H95	H	1.047240	0.110341	0.431470
H96	H	0.798571	-0.053833	0.000074
O97	O	1.044116	0.049877	0.798877
H98	H	1.031588	0.060282	0.869463
H99	H	0.837158	0.221763	0.786888
O100	O	0.838868	0.220332	0.527405
H101	H	0.798896	0.190410	0.568690
