data_functionalizedCrystal
_audit_creation_method	'MofGen! by Chris Wilmer'
_symmetry_space_group_name_H-M	'P1'
_symmetry_Int_Tables_number	1
_symmetry_cell_setting	triclinic
loop_
_symmetry_equiv_pos_as_xyz
  x,y,z
_cell_length_a	19.851628
_cell_length_b	17.052862
_cell_length_c	19.851628
_cell_angle_alpha	129.733970
_cell_angle_beta	89.994907
_cell_angle_gamma	70.263327
loop_
_atom_site_label
_atom_site_type_symbol
_atom_site_fract_x
_atom_site_fract_y
_atom_site_fract_z
Zr1	Zr	0.762795	0.878429	0.202100
O2	O	0.676929	1.045867	0.331353
O3	O	0.774074	0.710986	0.147436
O4	O	0.795773	0.878403	0.309644
O5	O	0.655226	0.878473	0.058303
O6	O	0.906633	0.878387	0.309629
O7	O	0.655229	0.878450	0.169146
O8	O	0.867816	0.578909	0.019469
O9	O	0.694042	1.177951	0.348463
O10	O	0.879793	0.779848	0.142283
O11	O	0.797057	0.779876	0.059574
O12	O	0.822605	0.976988	0.250552
O13	O	0.739869	0.977016	0.167843
Zr14	Zr	0.939598	0.878440	0.025294
Zr15	Zr	0.939604	0.878404	0.202075
Zr16	Zr	0.762789	0.878464	0.025318
Zr17	Zr	0.790089	1.089087	0.229387
Zr18	Zr	0.912304	0.667781	-0.001994
O19	O	0.928320	1.045883	0.079957
O20	O	0.928328	1.045832	0.331318
O21	O	0.676921	1.045918	0.079992
O22	O	1.025464	0.711001	-0.103960
O23	O	1.025473	0.710951	0.147401
O24	O	0.774065	0.711036	-0.103925
O25	O	1.047167	0.878396	0.169091
O26	O	0.906620	0.878466	-0.082250
O27	O	0.795760	0.878481	-0.082235
O28	O	1.047164	0.878418	0.058248
O29	O	0.834581	1.177931	0.348443
O30	O	0.867812	0.578937	-0.121049
O31	O	1.008351	0.578917	-0.121069
O32	O	1.008356	0.578889	0.019449
O33	O	0.694037	1.177979	0.207945
O34	O	0.834577	1.177960	0.207925
O35	O	0.879788	0.779881	-0.023159
O36	O	0.962524	0.779853	0.059551
O37	O	0.905336	0.976993	0.167820
O38	O	0.822600	0.977021	0.085111
C39	C	0.817056	0.614933	0.079565
C40	C	0.805469	0.525503	0.067981
C41	C	0.945555	0.273364	0.208033
C42	C	0.956440	0.357393	0.218923
C43	C	0.918699	0.399424	0.181188
C44	C	0.870070	0.357420	0.132562
C45	C	0.859180	0.273389	0.121677
C46	C	0.832323	0.399449	0.094832
C47	C	0.783694	0.357444	0.046206
C48	C	0.772807	0.273421	0.035322
C49	C	0.810548	0.231390	0.073057
C50	C	0.843213	0.483479	0.105717
C51	C	0.756838	0.483504	0.019361
C52	C	0.745953	0.399475	0.008471
C53	C	0.630036	0.878465	0.113728
C54	C	0.554976	0.878476	0.113738
C55	C	0.342447	0.985939	0.172740
C56	C	0.313124	0.932198	0.198465
C57	C	0.417566	0.878446	0.113711
C58	C	0.313148	0.932195	0.088003
C59	C	0.284831	0.878426	0.113686
C60	C	0.389232	0.824704	0.139481
C61	C	0.389255	0.824717	0.028977
C62	C	0.359976	0.770896	0.054672
C63	C	0.494030	0.878461	0.113728
C64	C	0.208371	0.878403	0.113669
C65	C	1.072357	0.878403	0.113666
C66	C	1.147417	0.878393	0.113655
C67	C	0.851204	0.878390	0.334824
C68	C	0.851206	0.878375	0.409872
C69	C	0.885337	1.141935	0.147829
C70	C	0.896924	1.231365	0.159413
C71	C	0.882392	0.770900	0.532203
C72	C	0.811562	0.824635	0.606624
C73	C	0.851205	0.878396	0.547303
C74	C	0.922020	0.824645	0.606611
C75	C	0.851209	0.878408	0.680050
C76	C	0.780330	0.932132	0.620736
C77	C	0.890841	0.932126	0.620711
C78	C	0.819976	0.985940	0.695155
C79	C	0.851203	0.878385	0.470829
C80	C	0.851203	0.878426	0.756528
C81	C	0.851194	0.878463	0.892561
C82	C	0.851207	0.878432	0.817488
C83	C	1.038217	0.614902	0.079534
C84	C	1.101690	0.525462	0.067939
C85	C	0.817049	0.614978	-0.141562
C86	C	0.805460	0.525563	-0.228195
C87	C	1.038210	0.614947	-0.141593
C88	C	1.101680	0.525521	-0.228236
C89	C	0.664183	1.141922	0.368987
C90	C	0.600713	1.231347	0.455630
C91	C	0.664176	1.141966	0.147860
C92	C	0.600703	1.231407	0.159455
C93	C	0.885344	1.141891	0.368956
C94	C	0.896933	1.231306	0.455589
C95	C	1.088313	0.483457	0.105687
C96	C	1.147947	0.399430	0.094811
C97	C	1.220957	0.357403	0.046181
C98	C	1.234334	0.399416	0.008432
C99	C	1.174701	0.483448	0.019315
C100	C	0.843202	0.483575	-0.312072
C101	C	0.832311	0.399572	-0.393477
C102	C	0.783682	0.357553	-0.391006
C103	C	0.745935	0.399548	-0.307120
C104	C	0.756822	0.483556	-0.225715
C105	C	1.174681	0.483511	-0.225752
C106	C	1.234327	0.399499	-0.307154
C107	C	1.220969	0.357491	-0.391041
C108	C	1.147961	0.399509	-0.393523
C109	C	1.088317	0.483526	-0.312121
C110	C	0.527713	1.273367	0.453147
C111	C	0.468071	1.357406	0.534552
C112	C	0.481429	1.399418	0.618440
C113	C	0.554437	1.357394	0.620921
C114	C	0.614078	1.273363	0.539517
C115	C	0.614082	1.273420	0.121715
C116	C	0.554450	1.357471	0.132614
C117	C	0.481441	1.399500	0.181247
C118	C	0.468064	1.357483	0.218991
C119	C	0.527695	1.273440	0.208098
C120	C	0.945568	1.273299	0.453087
C121	C	0.956472	1.357302	0.534479
C122	C	0.918737	1.399317	0.618373
C123	C	0.870100	1.357316	0.620873
C124	C	0.859201	1.273308	0.539480
H125	H	0.976276	0.239143	0.238758
H126	H	0.726103	0.517728	-0.011363
H127	H	0.280236	0.977656	0.066270
H128	H	0.801692	0.162962	0.064188
N129	N	0.417122	1.490141	0.192991
H130	H	0.426130	1.559857	0.226593
H131	H	0.413340	1.460801	0.130686
N132	N	1.189104	0.528818	-0.135281
H133	H	1.140249	0.588421	-0.084081
H134	H	1.211984	0.464641	-0.137065
N135	N	0.333627	1.106322	0.238924
H136	H	0.304686	1.147367	0.220172
H137	H	0.305561	1.146687	0.302887
N138	N	1.008932	1.402590	0.531772
H139	H	1.031174	1.363230	0.466274
H140	H	0.980215	1.486943	0.570081
H141	H	0.565305	1.391611	0.689232
H142	H	0.422179	0.779334	-0.042651
N143	N	0.389314	1.402801	0.271426
H144	H	0.353573	1.462406	0.272585
H145	H	0.374472	1.338624	0.240423
N146	N	1.313065	0.354164	-0.304475
H147	H	1.346155	0.368791	-0.329903
H148	H	1.312408	0.393532	-0.238965
N149	N	1.008895	0.402675	0.271357
H150	H	1.050460	0.388052	0.229854
H151	H	0.980163	0.487007	0.325742
H152	H	0.726089	0.517731	-0.157423
N153	N	0.369001	0.650408	-0.011460
H154	H	0.317940	0.651052	-0.011504
H155	H	0.397975	0.609563	-0.075212
H156	H	0.908700	0.680013	0.462590
N157	N	0.700954	0.992259	0.627737
H158	H	0.670970	0.951973	0.622361
H159	H	0.677330	1.073230	0.688906
H160	H	0.927618	1.467722	0.684641
N161	N	0.767151	0.764474	0.599739
H162	H	0.790746	0.683274	0.538835
H163	H	0.767082	0.765657	0.651259
N164	N	0.692826	1.228109	0.069271
H165	H	0.713087	1.143765	0.014882
H166	H	0.692185	1.267572	0.047090
N167	N	1.189134	0.528745	-0.021406
H168	H	1.244434	0.489362	-0.053864
H169	H	1.159865	0.514122	-0.066715
N170	N	0.784860	1.106238	0.787455
H171	H	0.731339	1.146629	0.793315
H172	H	0.785595	1.104948	0.837615
N173	N	1.133559	0.354195	-0.484004
H174	H	1.182423	0.294594	-0.535188
H175	H	1.097870	0.319388	-0.495046
N176	N	0.771950	0.266931	-0.478810
H177	H	0.717252	0.296171	-0.475059
H178	H	0.803286	0.246742	-0.532272
N179	N	0.693491	0.354216	-0.304461
H180	H	0.692331	0.294622	-0.368763
H181	H	0.711666	0.319394	-0.277801
H182	H	1.137041	0.365233	0.125552
H183	H	0.927564	0.467844	0.190058
H184	H	0.408630	1.391607	0.532514
N185	N	0.692815	1.228028	0.542193
H186	H	0.707732	1.292126	0.581647
H187	H	0.694835	1.193156	0.568809
H188	H	0.924380	0.977512	0.625880
H189	H	0.280203	0.977619	0.270112
N190	N	0.417098	1.490051	0.706236
H191	H	0.368827	1.510287	0.691925
H192	H	0.413336	1.460740	0.736350
H193	H	0.839379	1.391537	0.689190
H194	H	1.269541	0.289079	-0.457317
N195	N	0.806730	1.228040	0.542192
H196	H	0.805543	1.168448	0.477905
H197	H	0.824895	1.193236	0.568867
N198	N	0.432682	0.764560	0.168385
H199	H	0.480527	0.697422	0.117507
H200	H	0.445244	0.818755	0.225597
N201	N	0.895659	0.528777	0.158162
H202	H	0.947767	0.464664	0.127202
H203	H	0.896769	0.588402	0.159324
H204	H	0.565356	1.391667	0.101872
N205	N	0.720359	0.228114	-0.017123
H206	H	0.698105	0.267482	-0.039382
H207	H	0.749091	0.143766	-0.071462
N208	N	1.009580	0.528828	-0.314808
H209	H	1.010175	0.489459	-0.380305
H210	H	0.976545	0.514191	-0.289332
N211	N	0.986284	1.227992	0.362613
H212	H	1.018810	1.143643	0.320503
H213	H	0.948532	1.242706	0.333400
N214	N	1.001343	0.764438	0.599682
H215	H	1.024844	0.683241	0.538773
H216	H	1.031474	0.804288	0.604511
H217	H	1.028870	0.517674	0.145297
H218	H	0.516821	1.239166	0.384848
H219	H	0.516791	1.239235	0.238828
H220	H	0.706359	0.365264	-0.031120
N221	N	1.285272	0.266771	0.034449
H222	H	1.265712	0.246543	0.065743
H223	H	1.310160	0.197105	-0.033082
N224	N	1.313084	0.354074	-0.044018
H225	H	1.333329	0.269728	-0.098391
H226	H	1.312463	0.393505	-0.066224
N227	N	0.895656	0.528883	-0.314752
H228	H	0.917905	0.489531	-0.380245
H229	H	0.866931	0.613235	-0.276440
N230	N	0.873036	0.354269	-0.483949
H231	H	0.835330	0.368910	-0.513238
H232	H	0.905501	0.393647	-0.473088
