data_functionalizedCrystal
_audit_creation_method	'MofGen! by Chris Wilmer'
_symmetry_space_group_name_H-M	'P1'
_symmetry_Int_Tables_number	1
_symmetry_cell_setting	triclinic
loop_
_symmetry_equiv_pos_as_xyz
  x,y,z
_cell_length_a	10.723022
_cell_length_b	14.519709
_cell_length_c	9.798715
_cell_angle_alpha	89.995905
_cell_angle_beta	89.996609
_cell_angle_gamma	84.073685
loop_
_atom_site_label
_atom_site_type_symbol
_atom_site_fract_x
_atom_site_fract_y
_atom_site_fract_z
O1	O	1.655979	0.129340	-0.113485
O2	O	1.989312	0.462674	0.219848
O3	O	2.322646	0.796007	0.553181
O4	O	1.292711	0.141723	-0.113490
O5	O	1.626044	0.475056	0.219843
O6	O	1.959377	0.808390	0.553176
O7	O	1.483976	0.001342	-0.113475
O8	O	1.817310	0.334676	0.219858
O9	O	2.150643	0.668009	0.553191
O10	O	1.464713	0.269721	-0.113500
O11	O	1.798047	0.603054	0.219833
O12	O	2.131380	0.936388	0.553166
O13	O	1.483962	0.001342	0.113507
O14	O	1.817295	0.334675	0.446840
O15	O	2.150629	0.668009	0.780173
O16	O	1.292696	0.141723	0.113492
O17	O	1.626030	0.475056	0.446825
O18	O	1.959363	0.808389	0.780158
O19	O	1.655965	0.129340	0.113497
O20	O	1.989298	0.462673	0.446830
O21	O	2.322631	0.796007	0.780163
Zn22	Zn	1.474328	0.135531	0.149533
Zn23	Zn	1.807662	0.468865	0.482866
Zn24	Zn	2.140995	0.802198	0.816199
Zn25	Zn	1.474347	0.135532	-0.149526
Zn26	Zn	1.807680	0.468865	0.183807
Zn27	Zn	2.141014	0.802199	0.517140
O28	O	1.464699	0.269721	0.113482
O29	O	1.798032	0.603054	0.446815
O30	O	2.131366	0.936387	0.780149
C31	C	1.246212	0.140822	0.000000
C32	C	1.579546	0.474155	0.333334
C33	C	1.912879	0.807489	0.666667
C34	C	1.107683	0.138127	-0.000001
C35	C	1.441016	0.471460	0.333332
C36	C	1.774350	0.804794	0.666665
C37	C	1.059879	0.057174	0.000005
C38	C	1.393212	0.390508	0.333339
C39	C	1.726546	0.723841	0.666672
C40	C	0.916702	0.054387	0.000004
C41	C	1.250036	0.387720	0.333337
C42	C	1.583369	0.721054	0.666671
C43	C	1.483071	-0.033022	0.000016
C44	C	1.816405	0.300311	0.333349
C45	C	2.149738	0.633645	0.666683
C46	C	1.480381	-0.135417	0.000017
C47	C	1.813715	0.197916	0.333350
C48	C	2.147048	0.531250	0.666683
C49	C	1.470477	-0.510363	-0.000019
C50	C	1.803811	-0.177030	0.333314
C51	C	2.137144	0.156303	0.666648
C52	C	1.473228	-0.406041	-0.000009
C53	C	1.806561	-0.072708	0.333325
C54	C	2.139894	0.260625	0.666658
C55	C	1.475429	-0.322894	0.000000
C56	C	1.808762	0.010440	0.333333
C57	C	2.142096	0.343773	0.666667
C58	C	1.478180	-0.218565	0.000008
C59	C	1.811513	0.114768	0.333341
C60	C	2.144847	0.448102	0.666674
C61	C	1.702463	0.130241	0.000003
C62	C	2.035796	0.463574	0.333337
C63	C	2.369130	0.796908	0.666670
C64	C	1.840992	0.132936	-0.000004
C65	C	2.174326	0.466270	0.333329
C66	C	2.507659	0.799603	0.666662
C67	C	1.465604	0.304085	-0.000012
C68	C	1.798937	0.637419	0.333321
C69	C	2.132271	0.970752	0.666654
C70	C	1.468294	0.406480	-0.000022
C71	C	1.801627	0.739814	0.333311
C72	C	2.134961	1.073147	0.666645
N73	N	1.474325	0.135530	0.353632
N74	N	1.807658	0.468864	0.686966
N75	N	2.140991	0.802197	1.020299
N76	N	1.474361	0.135525	-0.353626
N77	N	1.807694	0.468859	-0.020293
N78	N	2.141027	0.802192	0.313041
C79	C	1.554634	0.076329	0.421415
C80	C	1.887968	0.409662	0.754749
C81	C	2.221301	0.742995	1.088082
C82	C	1.554654	0.076326	0.578578
C83	C	1.887988	0.409659	0.911911
C84	C	2.221321	0.742992	1.245245
H85	H	0.882147	0.202251	-0.000002
H86	H	1.215481	0.535584	0.333331
H87	H	1.548814	0.868917	0.666664
F88	F	1.384465	0.201774	0.429854
F89	F	1.717799	0.535107	0.763188
F90	F	2.051132	0.868441	1.096521
F91	F	1.022636	0.226022	-0.000020
F92	F	1.355970	0.559355	0.333313
F93	F	1.689303	0.892689	0.666646
H94	H	1.623372	0.025642	0.363098
H95	H	1.956705	0.358976	0.696432
H96	H	2.290039	0.692309	1.029765
F97	F	0.862903	-0.036211	0.000021
F98	F	1.196237	0.297122	0.333355
F99	F	1.529570	0.630455	0.666688
F100	F	1.384490	0.201784	0.570196
F101	F	1.717824	0.535117	0.903529
F102	F	2.051157	0.868450	1.236863
F103	F	1.144926	-0.030721	0.000010
F104	F	1.478259	0.302613	0.333343
F105	F	1.811592	0.635946	0.666677
F106	F	1.644533	0.010079	0.654765
F107	F	1.977866	0.343412	0.988098
F108	F	2.311200	0.676746	1.321432
