data_functionalizedCrystal
_audit_creation_method	'MofGen! by Chris Wilmer'
_symmetry_space_group_name_H-M	'P1'
_symmetry_Int_Tables_number	1
_symmetry_cell_setting	triclinic
loop_
_symmetry_equiv_pos_as_xyz
  x,y,z
_cell_length_a	9.065215
_cell_length_b	13.596369
_cell_length_c	9.065218
_cell_angle_alpha	90.001486
_cell_angle_beta	94.984709
_cell_angle_gamma	90.005439
loop_
_atom_site_label
_atom_site_type_symbol
_atom_site_fract_x
_atom_site_fract_y
_atom_site_fract_z
O1	O	1.960408	0.081776	-0.216327
O2	O	1.531123	0.081780	-0.234078
O3	O	1.754639	0.081776	-0.010560
O4	O	1.736892	0.081780	-0.439845
O5	O	1.754611	-0.081807	-0.010572
O6	O	1.531095	-0.081803	-0.234090
O7	O	1.960380	-0.081807	-0.216339
Zn8	Zn	1.745733	-0.107778	-0.225216
Zn9	Zn	1.745770	0.107750	-0.225200
O10	O	1.736864	-0.081803	-0.439857
C11	C	1.476122	-0.000011	-0.232379
C12	C	1.312279	-0.000010	-0.227281
N13	N	1.745719	-0.254869	-0.225227
C14	C	1.745726	-0.343867	-0.225230
C15	C	1.745741	-0.455519	-0.225220
C16	C	1.745760	-0.544509	-0.225203
C17	C	1.745776	-0.656168	-0.225195
C18	C	2.015381	-0.000014	-0.218038
C19	C	2.179224	-0.000009	-0.223136
C20	C	1.752919	-0.000014	0.044421
C21	C	1.747819	-0.000010	0.208264
N22	N	1.745795	0.254842	-0.225179
C23	C	1.738584	-0.000011	-0.494837
C24	C	1.743683	-0.000009	-0.658680
