data_functionalizedCrystal
_audit_creation_method	'MofGen! by Chris Wilmer'
_symmetry_space_group_name_H-M	'P1'
_symmetry_Int_Tables_number	1
_symmetry_cell_setting	triclinic
loop_
_symmetry_equiv_pos_as_xyz
  x,y,z
_cell_length_a	10.654554
_cell_length_b	11.792241
_cell_length_c	9.730223
_cell_angle_alpha	89.998500
_cell_angle_beta	89.999030
_cell_angle_gamma	84.340129
loop_
_atom_site_label
_atom_site_type_symbol
_atom_site_fract_x
_atom_site_fract_y
_atom_site_fract_z
O1	O	1.667380	0.159440	-0.114315
O2	O	1.301859	0.174623	-0.114312
O3	O	1.493489	0.001882	-0.114304
O4	O	1.475749	0.332182	-0.114323
O5	O	1.493487	0.001886	0.114276
O6	O	1.301857	0.174628	0.114267
O7	O	1.667377	0.159445	0.114265
Zn8	Zn	1.484617	0.167037	0.150558
Zn9	Zn	1.484620	0.167031	-0.150606
O10	O	1.475747	0.332186	0.114257
C11	C	1.255063	0.173510	-0.000022
C12	C	1.115630	0.170171	-0.000021
C13	C	0.933373	0.062185	-0.000032
C14	C	1.064386	0.065322	-0.000019
C15	C	1.035853	0.271890	-0.000023
C16	C	0.904843	0.268753	-0.000027
C17	C	0.949848	-0.057076	-0.000036
C18	C	1.080860	-0.053939	-0.000022
C19	C	1.492374	-0.040409	-0.000015
C20	C	1.489038	-0.166431	-0.000016
C21	C	1.482905	-0.397157	-0.000039
C22	C	1.486313	-0.268764	-0.000026
C23	C	1.714173	0.160559	-0.000028
C24	C	1.853607	0.163897	-0.000039
C25	C	1.476862	0.374477	-0.000036
C26	C	1.480198	0.500499	-0.000044
N27	N	1.484624	0.167040	0.356095
N28	N	1.484622	0.167019	-0.356142
C29	C	1.569500	0.090576	0.428024
C30	C	1.569496	0.090563	0.571907
C31	C	1.399737	0.243486	0.571918
C32	C	1.399736	0.243494	0.428038
C33	C	1.667513	0.002290	0.428019
C34	C	1.667509	0.002277	0.571902
H35	H	0.920616	-0.103718	0.095620
C36	C	1.137462	-0.114635	-0.129244
C37	C	1.120001	-0.241062	-0.154298
C38	C	1.176604	-0.301752	-0.283514
C39	C	1.250668	-0.236017	-0.387676
C40	C	1.268132	-0.109584	-0.362625
C41	C	1.211529	-0.048893	-0.233409
H42	H	1.065172	-0.289729	-0.077188
H43	H	1.163676	-0.395347	-0.302058
H44	H	1.292568	-0.280944	-0.483330
H45	H	1.322961	-0.060916	-0.439734
H46	H	1.224457	0.044702	-0.214865
H47	H	1.077586	0.357261	-0.000012
C48	C	1.626616	-0.109103	0.632179
C49	C	1.702633	-0.223718	0.598946
C50	C	1.661740	-0.335096	0.659217
C51	C	1.544831	-0.331859	0.752722
C52	C	1.468807	-0.217239	0.785960
C53	C	1.509699	-0.105861	0.725689
H54	H	1.789183	-0.226118	0.529724
H55	H	1.718019	-0.419946	0.634612
H56	H	1.514559	-0.414308	0.797339
H57	H	1.382257	-0.214839	0.855182
H58	H	1.453421	-0.021012	0.750294
C59	C	1.306369	0.327587	0.651058
C60	C	1.306580	0.327781	0.809320
C61	C	1.213210	0.411885	0.888456
C62	C	1.119629	0.495796	0.809330
C63	C	1.119415	0.495605	0.651059
C64	C	1.212785	0.411501	0.571923
H65	H	1.375857	0.265662	0.867903
H66	H	1.213369	0.412026	1.005620
H67	H	1.050511	0.558055	0.867911
H68	H	1.050138	0.557724	0.592477
H69	H	1.212626	0.411361	0.454760
H70	H	0.839900	0.351577	-0.000016
H71	H	0.914328	-0.095054	-0.098731
H72	H	1.126600	-0.089976	0.098679
C73	C	1.638870	-0.115559	0.375252
C74	C	1.735456	-0.186415	0.284263
C75	C	1.706812	-0.304261	0.231496
C76	C	1.581584	-0.351250	0.269719
C77	C	1.484991	-0.280393	0.360714
C78	C	1.513634	-0.162548	0.413480
H79	H	1.828164	-0.151632	0.255963
H80	H	1.778318	-0.356713	0.164135
H81	H	1.560381	-0.438486	0.230658
H82	H	1.392282	-0.315176	0.389013
H83	H	1.442128	-0.110095	0.480841
H84	H	1.330612	0.305747	0.369474
H85	H	1.758618	0.029936	0.383391
H86	H	1.763966	0.021725	0.610951
