data_functionalizedCrystal
_audit_creation_method	'MofGen! by Chris Wilmer'
_symmetry_space_group_name_H-M	'P1'
_symmetry_Int_Tables_number	1
_symmetry_cell_setting	triclinic
loop_
_symmetry_equiv_pos_as_xyz
  x,y,z
_cell_length_a	10.654554
_cell_length_b	10.540510
_cell_length_c	9.730223
_cell_angle_alpha	90.001116
_cell_angle_beta	90.001137
_cell_angle_gamma	84.500028
loop_
_atom_site_label
_atom_site_type_symbol
_atom_site_fract_x
_atom_site_fract_y
_atom_site_fract_z
O1	O	1.667875	0.178325	-0.114239
O2	O	1.302401	0.195306	-0.114250
O3	O	1.493495	0.002104	-0.114244
O4	O	1.476780	0.371527	-0.114245
O5	O	1.493493	0.002108	0.114336
O6	O	1.302399	0.195311	0.114330
O7	O	1.667872	0.178329	0.114341
Zn8	Zn	1.485135	0.186821	0.150627
Zn9	Zn	1.485138	0.186815	-0.150537
O10	O	1.476778	0.371532	0.114334
C11	C	1.255602	0.194061	0.000038
C12	C	1.116158	0.190327	0.000033
C13	C	1.492249	-0.045197	0.000043
C14	C	1.488522	-0.186146	0.000035
C15	C	0.905677	0.300577	0.000045
C16	C	1.036699	0.304086	0.000035
C17	C	1.064589	0.073050	0.000029
C18	C	0.933569	0.069542	0.000030
C19	C	0.826223	0.414345	0.000061
C20	C	0.877783	0.531622	0.000063
C21	C	1.008806	0.535131	0.000052
C22	C	1.088268	0.421363	0.000039
C23	C	1.621275	-0.403647	0.000562
C24	C	1.625250	-0.257053	0.000040
C25	C	1.418532	-0.230883	-0.130495
C26	C	1.415525	-0.377643	-0.130597
C27	C	1.412675	-0.377445	0.129341
C28	C	1.419160	-0.231106	0.131059
C29	C	1.714672	0.179575	0.000049
C30	C	1.854116	0.183309	0.000045
C31	C	1.478025	0.418833	0.000044
C32	C	1.481751	0.559781	0.000044
N33	N	1.485142	0.186825	0.356164
N34	N	1.485141	0.186801	-0.356073
C35	C	1.569781	0.101304	0.428093
C36	C	1.569778	0.101288	0.571975
C37	C	1.400493	0.272326	0.571988
C38	C	1.400491	0.272334	0.428108
C39	C	1.654432	0.015794	0.356149
C40	C	1.739078	-0.069733	0.428078
C41	C	1.739075	-0.069748	0.571961
C42	C	1.654425	0.015763	0.643914
H43	H	0.719537	0.411500	0.000075
C44	C	1.307369	0.366364	0.651127
H45	H	1.256945	0.417286	0.587681
H46	H	1.352987	0.419641	0.707275
H47	H	1.254697	0.320167	0.707234
C48	C	0.876840	-0.059447	0.000033
H49	H	0.787430	-0.045239	0.000022
H50	H	0.904040	-0.106339	0.079742
H51	H	0.904038	-0.106333	-0.079690
H52	H	1.463358	-0.417877	-0.228167
C53	C	1.693250	-0.460350	0.127009
H54	H	1.777238	-0.437177	0.125401
H55	H	1.694549	-0.550574	0.125278
H56	H	1.652374	-0.428264	0.208366
H57	H	0.813077	0.624247	0.000063
C58	C	1.692823	-0.462429	-0.125180
H59	H	1.638034	-0.509158	-0.177995
H60	H	1.762979	-0.517924	-0.095163
H61	H	1.721577	-0.396459	-0.179974
H62	H	1.807991	-0.139360	0.369485
H63	H	1.313261	-0.400603	-0.136514
C64	C	1.065520	0.664127	0.000051
H65	H	0.999432	0.731375	0.000070
H66	H	1.116047	0.670305	-0.079660
H67	H	1.116053	0.670293	0.079772
H68	H	1.456125	-0.419640	0.228283
H69	H	1.654421	0.015735	0.761074
H70	H	1.807989	-0.139395	0.630524
C71	C	1.282559	-0.166813	-0.137074
H72	H	1.267232	-0.112075	-0.060092
H73	H	1.225068	-0.230342	-0.135864
H74	H	1.271501	-0.118470	-0.219322
C75	C	1.484084	-0.189074	-0.261722
H76	H	1.554108	-0.144388	-0.237242
H77	H	1.426135	-0.134910	-0.314405
H78	H	1.512446	-0.262095	-0.314464
C79	C	1.307391	0.366400	0.348974
H80	H	1.319506	0.354145	0.252981
H81	H	1.321764	0.451257	0.372554
H82	H	1.223453	0.351805	0.372553
C83	C	1.232389	0.425225	0.000023
H84	H	1.251720	0.511361	0.000029
H85	H	1.267176	0.383352	-0.079688
H86	H	1.267182	0.383361	0.079744
C87	C	1.654437	0.015815	0.197883
H88	H	1.591910	0.079002	0.165348
H89	H	1.636547	-0.065482	0.165313
H90	H	1.734860	0.033968	0.165350
H91	H	1.129297	-0.019574	0.000020
C92	C	1.699243	-0.217429	0.126427
H93	H	1.727143	-0.290987	0.178550
H94	H	1.646174	-0.160600	0.181654
H95	H	1.770092	-0.176277	0.097038
C96	C	1.699646	-0.218696	-0.126583
H97	H	1.727544	-0.292749	-0.177911
H98	H	1.770490	-0.177398	-0.097483
H99	H	1.646784	-0.162290	-0.182496
H100	H	1.319339	-0.182005	0.138938
C101	C	1.487944	-0.192465	0.261514
H102	H	1.558634	-0.149106	0.236251
H103	H	1.515653	-0.266602	0.312773
H104	H	1.431977	-0.137816	0.315990
C105	C	1.273999	-0.407319	0.130541
H106	H	1.232750	-0.369128	0.208896
H107	H	1.270523	-0.496983	0.133897
H108	H	1.233167	-0.374256	0.049563
