data_functionalizedCrystal
_audit_creation_method	'MofGen! by Chris Wilmer'
_symmetry_space_group_name_H-M	'P1'
_symmetry_Int_Tables_number	1
_symmetry_cell_setting	triclinic
loop_
_symmetry_equiv_pos_as_xyz
  x,y,z
_cell_length_a	10.654543
_cell_length_b	16.098538
_cell_length_c	10.654550
_cell_angle_alpha	92.749482
_cell_angle_beta	84.483475
_cell_angle_gamma	87.235130
loop_
_atom_site_label
_atom_site_type_symbol
_atom_site_fract_x
_atom_site_fract_y
_atom_site_fract_z
O1	O	-1.673421	0.069254	-0.170793
O2	O	-1.307941	0.069256	-0.187608
O3	O	-1.499084	0.069249	0.003539
O4	O	-1.482279	0.069260	-0.361939
O5	O	-1.487918	-0.069263	-0.007583
O6	O	-1.296775	-0.069257	-0.198730
O7	O	-1.662255	-0.069259	-0.181915
Zn8	Zn	-1.477742	-0.091250	-0.192088
Zn9	Zn	-1.492454	0.091247	-0.177435
O10	O	-1.471112	-0.069253	-0.373061
C11	C	-1.255560	-0.000000	-0.191936
C12	C	-1.116117	0.000000	-0.188248
N13	N	-1.467711	-0.215799	-0.202088
C14	C	-0.905601	-0.000002	-0.297316
C15	C	-1.036623	0.000005	-0.300791
C16	C	-1.064584	-0.000002	-0.072221
C17	C	-0.933565	-0.000002	-0.068748
C18	C	-1.548870	-0.259386	-0.120987
C19	C	-1.541864	-0.346575	-0.127994
C20	C	-1.453705	-0.390174	-0.216109
C21	C	-1.372538	-0.346581	-0.297214
C22	C	-1.379538	-0.259393	-0.290200
C23	C	-1.428328	-0.653424	-0.241515
C24	C	-1.421336	-0.740617	-0.248526
C25	C	-1.590662	-0.740605	-0.079304
C26	C	-1.597660	-0.653417	-0.072302
C27	C	-1.516488	-0.609830	-0.153402
C28	C	-1.446545	-0.479295	-0.223277
C29	C	-1.523643	-0.520711	-0.146228
C30	C	-0.714635	-0.000004	-0.177593
C31	C	-0.854076	-0.000006	-0.181299
C32	C	-1.492267	-0.000006	0.044776
C33	C	-1.488575	-0.000005	0.184219
N34	N	-1.502495	0.215795	-0.167425
C35	C	-1.477930	0.000005	-0.414298
C36	C	-1.481622	0.000009	-0.553741
C37	C	-1.601117	-0.000006	0.263707
C38	C	-1.597641	0.000005	0.394729
C39	C	-1.369072	0.000012	0.366761
C40	C	-1.372549	0.000008	0.235742
H41	H	-0.840884	-0.000005	-0.388963
H42	H	-1.274607	0.000021	0.408727
Cl43	Cl	-0.868787	0.000003	0.077116
H44	H	-1.129319	-0.000000	0.019414
H45	H	-1.280898	0.000011	0.171019
H46	H	-1.078567	0.000009	-0.395263
Cl47	Cl	-1.326291	-0.598635	-0.343472
Cl48	Cl	-1.746977	-0.000020	0.198940
Cl49	Cl	-1.659710	-0.204585	-0.010213
H50	H	-1.300751	-0.382084	-0.368955
H51	H	-1.607949	-0.382064	-0.061954
H52	H	-1.669445	-0.617920	-0.000552
Cl53	Cl	-1.692696	-0.795403	0.022649
H54	H	-1.349543	-0.776112	-0.320285
H55	H	-1.313449	-0.223905	-0.356239
H56	H	-1.595418	-0.485210	-0.074480
Cl57	Cl	-1.335721	-0.534110	-0.334052
H58	H	-1.689285	0.000006	0.459444
