data_functionalizedCrystal
_audit_creation_method	'MofGen! by Chris Wilmer'
_symmetry_space_group_name_H-M	'P1'
_symmetry_Int_Tables_number	1
_symmetry_cell_setting	triclinic
loop_
_symmetry_equiv_pos_as_xyz
  x,y,z
_cell_length_a	14.519731
_cell_length_b	14.519731
_cell_length_c	9.482900
_cell_angle_alpha	99.351580
_cell_angle_beta	80.692239
_cell_angle_gamma	83.688853
loop_
_atom_site_label
_atom_site_type_symbol
_atom_site_fract_x
_atom_site_fract_y
_atom_site_fract_z
O1	O	1.238214	0.106568	-0.120901
O2	O	1.571547	0.439901	0.212432
O3	O	1.904881	0.773235	0.545766
O4	O	0.969741	0.120784	-0.120904
O5	O	1.303075	0.454117	0.212430
O6	O	1.636408	0.787450	0.545763
O7	O	1.111084	-0.020559	-0.120889
O8	O	1.444417	0.312774	0.212444
O9	O	1.777751	0.646107	0.545778
O10	O	1.096871	0.247911	-0.120916
O11	O	1.430205	0.581244	0.212418
O12	O	1.763538	0.914577	0.545751
O13	O	1.082374	0.008266	0.120900
O14	O	1.415708	0.341599	0.454234
O15	O	1.749041	0.674933	0.787567
O16	O	0.941032	0.149609	0.120886
O17	O	1.274365	0.482942	0.454219
O18	O	1.607698	0.816276	0.787552
O19	O	1.209504	0.135393	0.120888
O20	O	1.542838	0.468727	0.454222
O21	O	1.876171	0.802060	0.787555
Cu22	Cu	1.072647	0.145133	0.142964
Cu23	Cu	1.405980	0.478466	0.476298
Cu24	Cu	1.739313	0.811800	0.809631
Cu25	Cu	1.106599	0.111044	-0.142980
Cu26	Cu	1.439932	0.444377	0.190354
Cu27	Cu	1.773266	0.777710	0.523687
O28	O	1.068162	0.276736	0.120874
O29	O	1.401495	0.610069	0.454207
O30	O	1.734828	0.943403	0.787540
C31	C	1.096063	-0.040506	0.000006
C32	C	1.429396	0.292827	0.333339
C33	C	1.762730	0.626161	0.666673
C34	C	1.094067	-0.142886	0.000007
C35	C	1.427400	0.190447	0.333340
C36	C	1.760734	0.523780	0.666673
C37	C	0.921027	0.134530	-0.000009
C38	C	1.254360	0.467863	0.333324
C39	C	1.587694	0.801197	0.666657
C40	C	0.818647	0.132534	-0.000010
C41	C	1.151980	0.465867	0.333324
C42	C	1.485313	0.799201	0.666657
C43	C	1.092445	-0.226031	0.000003
C44	C	1.425779	0.107302	0.333337
C45	C	1.759112	0.440636	0.666670
C46	C	1.090420	-0.330341	-0.000008
C47	C	1.423754	0.002992	0.333326
C48	C	1.757087	0.336325	0.666659
C49	C	1.088813	-0.413482	-0.000017
C50	C	1.422146	-0.080148	0.333316
C51	C	1.755480	0.253185	0.666650
C52	C	1.086788	-0.517798	-0.000025
C53	C	1.420121	-0.184465	0.333308
C54	C	1.753454	0.148869	0.666641
C55	C	0.735503	0.130911	-0.000015
C56	C	1.068836	0.464245	0.333318
C57	C	1.402170	0.797578	0.666651
C58	C	0.631194	0.128885	-0.000016
C59	C	0.964528	0.462218	0.333318
C60	C	1.297861	0.795551	0.666651
C61	C	0.548055	0.127276	-0.000016
C62	C	0.881388	0.460610	0.333318
C63	C	1.214722	0.793943	0.666651
C64	C	0.443740	0.125250	-0.000019
C65	C	0.777073	0.458583	0.333315
C66	C	1.110406	0.791916	0.666648
C67	C	1.258219	0.121646	-0.000009
C68	C	1.591552	0.454980	0.333324
C69	C	1.924886	0.788313	0.666657
C70	C	1.360601	0.123641	-0.000018
C71	C	1.693934	0.456975	0.333315
C72	C	2.027267	0.790308	0.666648
C73	C	1.083183	0.296682	-0.000024
C74	C	1.416516	0.630016	0.333309
C75	C	1.749850	0.963349	0.666642
C76	C	1.085180	0.399062	-0.000035
C77	C	1.418514	0.732395	0.333298
C78	C	1.751847	1.065728	0.666632
N79	N	1.048773	0.169109	0.344082
N80	N	1.382106	0.502442	0.677415
N81	N	1.715440	0.835776	1.010749
N82	N	1.130480	0.087060	-0.344097
N83	N	1.463813	0.420394	-0.010764
N84	N	1.797147	0.753727	0.322569
C85	C	1.099551	0.118111	0.416287
C86	C	1.432884	0.451444	0.749620
C87	C	1.766218	0.784777	1.082953
C88	C	1.079694	0.138066	0.583702
C89	C	1.413028	0.471400	0.917035
C90	C	1.746361	0.804733	1.250369
H91	H	1.021514	0.196502	0.645820
H92	H	1.354847	0.529835	0.979154
H93	H	1.688180	0.863169	1.312487
Cl94	Cl	1.189161	0.027682	0.320383
Cl95	Cl	1.522494	0.361015	0.653716
Cl96	Cl	1.855827	0.694349	0.987049
Cl97	Cl	1.220500	-0.002969	0.560008
Cl98	Cl	1.553833	0.330364	0.893341
Cl99	Cl	1.887166	0.663697	1.226674
Cl100	Cl	0.958950	0.259327	0.439987
Cl101	Cl	1.292283	0.592660	0.773320
Cl102	Cl	1.625617	0.925993	1.106653
