data_functionalizedCrystal
_audit_creation_method	'MofGen! by Chris Wilmer'
_symmetry_space_group_name_H-M	'P1'
_symmetry_Int_Tables_number	1
_symmetry_cell_setting	triclinic
loop_
_symmetry_equiv_pos_as_xyz
  x,y,z
_cell_length_a	25.639242
_cell_length_b	25.639240
_cell_length_c	12.594509
_cell_angle_alpha	90.041310
_cell_angle_beta	90.021966
_cell_angle_gamma	90.025061
loop_
_atom_site_label
_atom_site_type_symbol
_atom_site_fract_x
_atom_site_fract_y
_atom_site_fract_z
Zn1	Zn	0.799286	-0.208242	0.601781
Zn2	Zn	1.132619	0.125091	0.935115
Zn3	Zn	1.465953	0.458424	1.268448
Zn4	Zn	0.799207	-0.295685	0.423762
Zn5	Zn	1.132540	0.037649	0.757095
Zn6	Zn	1.465873	0.370982	1.090429
Zn7	Zn	0.711851	-0.208253	0.423808
Zn8	Zn	1.045184	0.125080	0.757141
Zn9	Zn	1.378517	0.458413	1.090475
Zn10	Zn	0.711816	-0.295637	0.601690
Zn11	Zn	1.045150	0.037696	0.935023
Zn12	Zn	1.378483	0.371030	1.268357
O13	O	0.755540	-0.251954	0.512760
O14	O	1.088873	0.081379	0.846094
O15	O	1.422207	0.414712	1.179427
O16	O	0.872441	-0.219857	0.578186
O17	O	1.205774	0.113476	0.911519
O18	O	1.539107	0.446809	1.244852
O19	O	0.787600	-0.284111	0.274822
O20	O	1.120933	0.049222	0.608156
O21	O	1.454267	0.382555	0.941489
O22	O	0.723496	-0.135087	0.447474
O23	O	1.056830	0.198247	0.780807
O24	O	1.390163	0.531580	1.114141
O25	O	0.872382	-0.284101	0.447396
O26	O	1.205716	0.049233	0.780729
O27	O	1.539049	0.382566	1.114062
O28	O	0.787735	-0.135079	0.578230
O29	O	1.121068	0.198255	0.911564
O30	O	1.454401	0.531588	1.244897
O31	O	0.723420	-0.219876	0.274856
O32	O	1.056753	0.113457	0.608189
O33	O	1.390086	0.446791	0.941523
O34	O	0.638681	-0.219830	0.447386
O35	O	0.972014	0.113504	0.780719
O36	O	1.305347	0.446837	1.114052
O37	O	0.723438	-0.284019	0.750648
O38	O	1.056771	0.049314	1.083981
O39	O	1.390105	0.382647	1.417315
O40	O	0.638656	-0.284030	0.578075
O41	O	0.971989	0.049303	0.911408
O42	O	1.305322	0.382637	1.244742
O43	O	0.787702	-0.219811	0.750715
O44	O	1.121035	0.113522	1.084048
O45	O	1.454368	0.446856	1.417382
O46	O	0.787567	-0.368844	0.447307
O47	O	1.120900	-0.035510	0.780641
O48	O	1.454233	0.297823	1.113974
O49	O	0.723361	-0.368808	0.578030
O50	O	1.056695	-0.035475	0.911364
O51	O	1.390028	0.297858	1.244697
C52	C	0.619697	-0.251926	0.512726
C53	C	0.953031	0.081407	0.846059
C54	C	1.286364	0.414741	1.179393
C55	C	0.561583	-0.251927	0.512737
C56	C	0.894917	0.081407	0.846070
C57	C	1.228250	0.414740	1.179403
C58	C	0.755466	-0.387797	0.512677
C59	C	1.088799	-0.054464	0.846010
C60	C	1.422133	0.278870	1.179344
C61	C	0.755482	-0.445911	0.512677
C62	C	1.088816	-0.112578	0.846010
C63	C	1.422149	0.220756	1.179344
C64	C	0.310428	-0.218562	0.580987
C65	C	0.643761	0.114771	0.914320
C66	C	0.977095	0.448105	1.247654
C67	C	0.365032	-0.218557	0.580981
C68	C	0.698366	0.114776	0.914314
C69	C	1.031699	0.448110	1.247648
O70	O	0.393302	-0.190167	0.639002
O71	O	0.726635	0.143167	0.972336
O72	O	1.059968	0.476500	1.305669
N73	N	0.392309	-0.251948	0.512773
N74	N	0.725643	0.081385	0.846106
N75	N	1.058976	0.414718	1.179439
C76	C	0.364979	-0.285351	0.444574
C77	C	0.698313	0.047983	0.777907
C78	C	1.031646	0.381316	1.111240
O79	O	0.393194	-0.313752	0.386557
O80	O	0.726528	0.019581	0.719891
O81	O	1.059861	0.352914	1.053224
C82	C	0.310376	-0.285358	0.444586
C83	C	0.643709	0.047975	0.777919
C84	C	0.977043	0.381309	1.111252
C85	C	0.283102	-0.251961	0.512791
C86	C	0.616435	0.081373	0.846124
C87	C	0.949768	0.414706	1.179458
C88	C	0.283154	-0.185168	0.649187
C89	C	0.616487	0.148165	0.982521
C90	C	0.949821	0.481499	1.315854
C91	C	0.228553	-0.185173	0.649192
C92	C	0.561887	0.148161	0.982525
C93	C	0.895220	0.481494	1.315858
C94	C	0.201227	-0.218571	0.580996
C95	C	0.534560	0.114762	0.914329
C96	C	0.867894	0.448095	1.247662
C97	C	0.228501	-0.251965	0.512795
C98	C	0.561835	0.081368	0.846129
C99	C	0.895168	0.414701	1.179462
C100	C	0.283047	-0.318763	0.376393
C101	C	0.616380	0.014571	0.709726
C102	C	0.949713	0.347904	1.043060
C103	C	0.228440	-0.318767	0.376412
C104	C	0.561773	0.014566	0.709745
C105	C	0.895106	0.347899	1.043078
C106	C	0.201166	-0.285370	0.444617
C107	C	0.534499	0.047963	0.777950
C108	C	0.867832	0.381296	1.111283
C109	C	0.146574	-0.285369	0.444604
C110	C	0.479908	0.047965	0.777937
C111	C	0.813241	0.381298	1.111270
N112	N	0.119297	-0.251977	0.512812
N113	N	0.452631	0.081356	0.846145
N114	N	0.785964	0.414689	1.179479
C115	C	0.146624	-0.218579	0.581008
C116	C	0.479957	0.114755	0.914341
C117	C	0.813290	0.448088	1.247675
C118	C	0.479650	-0.285333	0.444554
C119	C	0.812983	0.048000	0.777888
C120	C	1.146316	0.381333	1.111221
C121	C	0.534252	-0.285324	0.444536
C122	C	0.867585	0.048010	0.777869
C123	C	1.200919	0.381343	1.111203
C124	C	0.534302	-0.218530	0.580945
C125	C	0.867635	0.114803	0.914278
C126	C	1.200968	0.448136	1.247612
C127	C	0.479698	-0.218538	0.580957
C128	C	0.813032	0.114795	0.914291
C129	C	1.146365	0.448129	1.247624
C130	C	0.452373	-0.251942	0.512763
C131	C	0.785706	0.081391	0.846096
C132	C	1.119040	0.414725	1.179429
C133	C	0.031959	-0.218591	0.581011
C134	C	0.365292	0.114743	0.914345
C135	C	0.698625	0.448076	1.247678
C136	C	-0.022647	-0.218597	0.581007
C137	C	0.310687	0.114737	0.914340
C138	C	0.644020	0.448070	1.247673
C139	C	-0.022691	-0.285391	0.444602
C140	C	0.310642	0.047942	0.777935
C141	C	0.643975	0.381275	1.111269
C142	C	0.031909	-0.285384	0.444602
C143	C	0.365242	0.047950	0.777936
C144	C	0.698576	0.381283	1.111269
C145	C	0.059233	-0.251982	0.512816
C146	C	0.392566	0.081352	0.846149
C147	C	0.725900	0.414685	1.179482
O148	O	0.118270	-0.313746	0.386615
O149	O	0.451604	0.019587	0.719948
O150	O	0.784937	0.352920	1.053282
O151	O	0.118402	-0.190187	0.639024
O152	O	0.451735	0.143147	0.972358
O153	O	0.785069	0.476480	1.305691
C154	C	0.789005	-0.806231	0.580968
C155	C	1.122339	-0.472898	0.914301
C156	C	1.455672	-0.139565	1.247635
C157	C	0.789021	-0.860836	0.580990
C158	C	1.122354	-0.527502	0.914323
C159	C	1.455687	-0.194169	1.247656
O160	O	0.817436	-0.889036	0.638967
O161	O	1.150769	-0.555703	0.972301
O162	O	1.484102	-0.222369	1.305634
N163	N	0.755612	-0.888193	0.512863
N164	N	1.088946	-0.554860	0.846197
N165	N	1.422279	-0.221527	1.179530
C166	C	0.722183	-0.860944	0.444719
C167	C	1.055516	-0.527611	0.778052
C168	C	1.388849	-0.194277	1.111385
O169	O	0.693767	-0.889228	0.386775
O170	O	1.027101	-0.555894	0.720108
O171	O	1.360434	-0.222561	1.053441
C172	C	0.722165	-0.806341	0.444703
C173	C	1.055498	-0.473007	0.778036
C174	C	1.388832	-0.139674	1.111370
C175	C	0.755579	-0.778986	0.512826
C176	C	1.088913	-0.445652	0.846160
C177	C	1.422246	-0.112319	1.179493
C178	C	0.822417	-0.778876	0.649086
C179	C	1.155750	-0.445543	0.982420
C180	C	1.489083	-0.112210	1.315753
C181	C	0.822402	-0.724276	0.649063
C182	C	1.155735	-0.390942	0.982396
C183	C	1.489068	-0.057609	1.315730
C184	C	0.788976	-0.697030	0.580921
C185	C	1.122309	-0.363697	0.914255
C186	C	1.455642	-0.030364	1.247588
C187	C	0.755564	-0.724385	0.512803
C188	C	1.088898	-0.391052	0.846136
C189	C	1.422231	-0.057719	1.179470
C190	C	0.688733	-0.779092	0.376565
C191	C	1.022066	-0.445759	0.709898
C192	C	1.355400	-0.112426	1.043231
C193	C	0.688718	-0.724485	0.376555
C194	C	1.022051	-0.391152	0.709889
C195	C	1.355385	-0.057819	1.043222
C196	C	0.722132	-0.697130	0.444679
C197	C	1.055466	-0.363797	0.778012
C198	C	1.388799	-0.030464	1.111345
C199	C	0.722124	-0.642539	0.444638
C200	C	1.055457	-0.309206	0.777971
C201	C	1.388790	0.024128	1.111305
N202	N	0.755532	-0.615181	0.512764
N203	N	1.088865	-0.281848	0.846097
N204	N	1.422199	0.051485	1.179431
C205	C	0.788958	-0.642427	0.580906
C206	C	1.122291	-0.309094	0.914239
C207	C	1.455625	0.024240	1.247573
C208	C	0.722222	-0.975615	0.444758
C209	C	1.055555	-0.642281	0.778091
C210	C	1.388888	-0.308948	1.111424
C211	C	0.722242	-1.030217	0.444767
C212	C	1.055575	-0.696884	0.778100
C213	C	1.388908	-0.363550	1.111434
C214	C	0.789079	-1.030105	0.581040
C215	C	1.122413	-0.696771	0.914373
C216	C	1.455746	-0.363438	1.247706
C217	C	0.789062	-0.975501	0.581024
C218	C	1.122395	-0.642168	0.914357
C219	C	1.455728	-0.308835	1.247691
C220	C	0.755630	-0.948257	0.512884
C221	C	1.088963	-0.614923	0.846217
C222	C	1.422297	-0.281590	1.179551
C223	C	0.788925	-0.527762	0.580851
C224	C	1.122258	-0.194429	0.914184
C225	C	1.455591	0.138905	1.247518
C226	C	0.788908	-0.473157	0.580819
C227	C	1.122242	-0.139823	0.914152
C228	C	1.455575	0.193510	1.247485
C229	C	0.722069	-0.473273	0.444550
C230	C	1.055402	-0.139940	0.777884
C231	C	1.388736	0.193393	1.111217
C232	C	0.722087	-0.527874	0.444578
C233	C	1.055420	-0.194541	0.777912
C234	C	1.388754	0.138793	1.111245
C235	C	0.755517	-0.555117	0.512737
C236	C	1.088850	-0.221784	0.846071
C237	C	1.422183	0.111550	1.179404
O238	O	0.693722	-0.614304	0.386693
O239	O	1.027055	-0.280971	0.720026
O240	O	1.360388	0.052363	1.053359
O241	O	0.817364	-0.614136	0.638850
O242	O	1.150697	-0.280803	0.972183
O243	O	1.484030	0.052530	1.305517
C244	C	0.891913	-0.251983	0.512796
C245	C	1.225246	0.081350	0.846129
C246	C	1.558580	0.414684	1.179462
C247	C	0.950027	-0.251995	0.512811
C248	C	1.283360	0.081338	0.846144
C249	C	1.616694	0.414671	1.179477
C250	C	0.755575	-0.251909	0.790381
C251	C	1.088908	0.081425	1.123715
C252	C	1.422242	0.414758	1.457048
C253	C	0.755590	-0.251889	0.908687
C254	C	1.088923	0.081444	1.242020
C255	C	1.422256	0.414778	1.575354
C256	C	0.755628	-0.115581	0.512867
C257	C	1.088962	0.217752	0.846201
C258	C	1.422295	0.551085	1.179534
C259	C	0.755666	-0.057467	0.512913
C260	C	1.088999	0.275866	0.846246
C261	C	1.422333	0.609199	1.179580
C262	C	0.755535	-0.251962	0.236219
C263	C	1.088868	0.081371	0.569553
C264	C	1.422202	0.414704	0.902886
C265	C	0.755621	-0.251834	0.117915
C266	C	1.088955	0.081499	0.451248
C267	C	1.422288	0.414832	0.784581
C268	C	0.720648	-0.286792	0.977904
C269	C	1.053981	0.046541	1.311237
C270	C	1.387315	0.379875	1.644570
C271	C	0.768352	-0.299573	1.048689
C272	C	1.101685	0.033760	1.382023
C273	C	1.435018	0.367093	1.715356
C274	C	0.707923	-0.239076	1.048701
C275	C	1.041257	0.094257	1.382034
C276	C	1.374590	0.427590	1.715367
C277	C	0.803319	-0.264695	0.977914
C278	C	1.136652	0.068638	1.311248
C279	C	1.469985	0.401971	1.644581
C280	C	0.742858	-0.204176	0.977919
C281	C	1.076191	0.129157	1.311253
C282	C	1.409525	0.462491	1.644586
C283	C	0.790595	-0.216939	1.048673
C284	C	1.123928	0.116394	1.382006
C285	C	1.457261	0.449728	1.715340
H286	H	-0.044851	-0.191398	0.636547
H287	H	0.288482	0.141935	0.969881
H288	H	0.621816	0.475269	1.303214
F289	F	0.728742	-0.151481	0.937254
F290	F	1.062075	0.181852	1.270587
F291	F	1.395409	0.515185	1.603921
H292	H	0.667599	-0.228262	1.079795
H293	H	1.000932	0.105071	1.413128
H294	H	1.334266	0.438405	1.746461
F295	F	0.686640	-0.946623	0.372222
F296	F	1.019973	-0.613290	0.705555
F297	F	1.353307	-0.279957	1.038889
H298	H	0.849636	-0.801054	0.704582
H299	H	1.182969	-0.467721	1.037915
H300	H	1.516303	-0.134387	1.371249
F301	F	0.061031	-0.183040	0.653611
F302	F	0.394364	0.150293	0.986944
F303	F	0.727698	0.483627	1.320278
F304	F	0.682055	-0.325431	0.937286
F305	F	1.015388	0.007903	1.270620
F306	F	1.348722	0.341236	1.603953
F307	F	0.856040	-0.278895	0.937448
F308	F	1.189373	0.054439	1.270781
F309	F	1.522707	0.387772	1.604114
H310	H	0.816296	-1.052298	0.636526
H311	H	1.149629	-0.718965	0.969860
H312	H	1.482962	-0.385631	1.303193
F313	F	0.857963	-0.695169	0.721576
F314	F	1.191296	-0.361836	1.054909
F315	F	1.524630	-0.028503	1.388243
F316	F	0.686684	-1.059324	0.372247
F317	F	1.020018	-0.725991	0.705581
F318	F	1.353351	-0.392657	1.038914
F319	F	0.824625	-0.946393	0.653530
F320	F	1.157958	-0.613060	0.986864
F321	F	1.491291	-0.279726	1.320197
F322	F	0.199533	-0.149630	0.721793
F323	F	0.532866	0.183703	1.055127
F324	F	0.866200	0.517037	1.388460
F325	F	0.653167	-0.808194	0.304060
F326	F	0.986500	-0.474860	0.637393
F327	F	1.319834	-0.141527	0.970727
H328	H	0.661492	-0.702305	0.321069
H329	H	0.994826	-0.368972	0.654402
H330	H	1.328159	-0.035639	0.987735
H331	H	0.820192	-0.187399	1.079550
H332	H	1.153525	0.145934	1.412883
H333	H	1.486858	0.479267	1.746216
H334	H	0.694882	-0.550148	0.389099
H335	H	1.028216	-0.216814	0.722432
H336	H	1.361549	0.116519	1.055765
H337	H	0.779138	-0.339900	1.079776
H338	H	1.112471	-0.006566	1.413109
H339	H	1.445804	0.326767	1.746442
F340	F	0.312229	-0.149619	0.721780
F341	F	0.645562	0.183715	1.055113
F342	F	0.978895	0.517048	1.388446
F343	F	0.563394	-0.182984	0.653526
F344	F	0.896727	0.150349	0.986859
F345	F	1.230061	0.483682	1.320193
F346	F	0.450676	-0.182993	0.653551
F347	F	0.784009	0.150340	0.986884
F348	F	1.117343	0.483674	1.320217
F349	F	0.450573	-0.320884	0.371958
F350	F	0.783906	0.012449	0.705291
F351	F	1.117239	0.345783	1.038624
F352	F	0.312062	-0.354303	0.303785
F353	F	0.645395	-0.020969	0.637118
F354	F	0.978729	0.312364	0.970452
F355	F	0.563273	-0.320861	0.371925
F356	F	0.896607	0.012473	0.705259
F357	F	1.229940	0.345806	1.038592
F358	F	0.686497	-0.444267	0.372032
F359	F	1.019830	-0.110934	0.705365
F360	F	1.353164	0.222400	1.038698
H361	H	0.206194	-0.345971	0.320881
H362	H	0.539527	-0.012638	0.654214
H363	H	0.872861	0.320695	0.987548
H364	H	-0.044950	-0.312582	0.389074
H365	H	0.288383	0.020752	0.722408
H366	H	0.621716	0.354085	1.055741
F367	F	0.824475	-0.444046	0.653326
F368	F	1.157808	-0.110713	0.986659
F369	F	1.491141	0.222620	1.319993
F370	F	0.060937	-0.320930	0.372015
F371	F	0.394271	0.012403	0.705348
F372	F	0.727604	0.345737	1.038681
H373	H	0.816142	-0.549937	0.636360
H374	H	1.149476	-0.216603	0.969693
H375	H	1.482809	0.116730	1.303027
