data_functionalizedCrystal
_audit_creation_method	'MofGen! by Chris Wilmer'
_symmetry_space_group_name_H-M	'P1'
_symmetry_Int_Tables_number	1
_symmetry_cell_setting	triclinic
loop_
_symmetry_equiv_pos_as_xyz
  x,y,z
_cell_length_a	8.634740
_cell_length_b	11.792254
_cell_length_c	7.681481
_cell_angle_alpha	84.218036
_cell_angle_beta	96.618670
_cell_angle_gamma	92.384452
loop_
_atom_site_label
_atom_site_type_symbol
_atom_site_fract_x
_atom_site_fract_y
_atom_site_fract_z
O1	O	2.034676	0.379542	-0.146441
O2	O	1.585462	0.348484	-0.146443
O3	O	1.820961	0.199984	-0.146430
O4	O	1.799177	0.528042	-0.146455
O5	O	1.849947	0.181658	0.146430
O6	O	1.614448	0.330157	0.146417
O7	O	2.063662	0.361215	0.146418
Zn8	Zn	1.843657	0.342777	0.192915
Zn9	Zn	1.805467	0.366923	-0.192940
O10	O	1.828163	0.509715	0.146405
C11	C	1.542446	0.332285	-0.000013
C12	C	1.371086	0.311307	-0.000013
C13	C	1.834082	0.148386	-0.000000
C14	C	1.829975	0.021943	-0.000002
C15	C	1.826638	-0.080743	-0.000008
C16	C	1.822463	-0.209566	-0.000025
C17	C	2.106678	0.377415	-0.000016
C18	C	2.278037	0.398393	-0.000027
C19	C	1.815042	0.561313	-0.000028
C20	C	1.819148	0.687757	-0.000038
N21	N	1.869732	0.326298	0.456251
N22	N	1.779405	0.383393	-0.456276
H23	H	1.319641	0.220697	-0.000057
C24	C	1.347507	0.520803	-0.000028
C25	C	1.296011	0.611368	-0.152110
C26	C	1.365492	0.733779	-0.152112
C27	C	1.486470	0.765626	-0.000031
C28	C	1.537972	0.675059	0.152063
C29	C	1.468491	0.552647	0.152064
H30	H	1.206450	0.587795	-0.264700
H31	H	1.327366	0.800823	-0.264702
H32	H	1.537904	0.856243	-0.000031
H33	H	1.627533	0.698632	0.264653
H34	H	1.506617	0.485604	0.264655
H35	H	1.687199	0.441669	0.468522
H36	H	1.961955	0.268028	0.531462
