data_functionalizedCrystal
_audit_creation_method	'MofGen! by Chris Wilmer'
_symmetry_space_group_name_H-M	'P1'
_symmetry_Int_Tables_number	1
_symmetry_cell_setting	triclinic
loop_
_symmetry_equiv_pos_as_xyz
  x,y,z
_cell_length_a	10.723023
_cell_length_b	19.188930
_cell_length_c	9.798715
_cell_angle_alpha	90.008496
_cell_angle_beta	90.002994
_cell_angle_gamma	83.806164
loop_
_atom_site_label
_atom_site_type_symbol
_atom_site_fract_x
_atom_site_fract_y
_atom_site_fract_z
O1	O	1.655155	0.097920	0.113494
O2	O	1.291808	0.107293	0.113502
O3	O	1.483967	0.001019	0.113471
O4	O	1.462996	0.204194	0.113525
O5	O	1.483953	0.001018	-0.113511
O6	O	1.291794	0.107292	-0.113481
O7	O	1.655142	0.097919	-0.113488
Zn8	Zn	1.473466	0.102606	-0.149523
Zn9	Zn	1.473483	0.102607	0.149536
O10	O	1.462983	0.204193	-0.113457
C11	C	1.245316	0.106611	0.000011
C12	C	1.106804	0.104570	0.000013
C13	C	0.901906	0.101552	0.117596
C14	C	1.045065	0.103661	0.117597
C15	C	1.483281	-0.024997	-0.000024
C16	C	1.481242	-0.102515	-0.000036
C17	C	1.593995	-0.146706	-0.000044
C18	C	1.592080	-0.219542	-0.000023
C19	C	1.477405	-0.248184	-0.000019
C20	C	1.364638	-0.203983	-0.000003
C21	C	1.366557	-0.131148	-0.000011
N22	N	1.389746	-0.356759	-0.077264
N23	N	1.387931	-0.425949	-0.077259
C24	C	1.471618	-0.467630	0.000008
N25	N	1.557208	-0.437508	0.077254
N26	N	1.559026	-0.368312	0.077243
C27	C	1.475313	-0.327160	-0.000009
C28	C	1.582302	-0.590799	0.000025
C29	C	1.580382	-0.663637	0.000056
C30	C	1.352937	-0.648076	0.000062
C31	C	1.354861	-0.575240	0.000045
C32	C	1.469546	-0.546606	0.000020
C33	C	1.701634	0.098601	0.000006
C34	C	1.840146	0.100642	0.000013
C35	C	1.463668	0.230209	0.000041
C36	C	1.465707	0.307727	0.000061
N37	N	1.473463	0.102604	-0.353622
C38	C	1.392793	0.147421	-0.421419
C39	C	1.392810	0.147421	-0.578582
N40	N	1.473496	0.102602	0.353636
H41	H	0.848797	0.100765	0.218262
H42	H	1.098176	0.104448	0.218263
H43	H	1.053699	0.103792	-0.100659
H44	H	1.675686	-0.567485	0.000012
O45	O	0.903653	0.101483	-0.120001
C46	C	0.993378	0.042220	-0.127330
H47	H	1.017575	0.022382	-0.019879
H48	H	0.953414	-0.000784	-0.188472
C49	C	1.082972	0.086742	-0.329864
C50	C	1.112698	0.062380	-0.197890
H51	H	1.156573	0.099175	-0.373394
H52	H	1.022520	0.126667	-0.324930
H53	H	1.049666	0.050901	-0.380798
H54	H	1.145988	0.098224	-0.146953
H55	H	1.173159	0.022461	-0.202817
O56	O	1.705506	-0.119008	0.000001
C57	C	1.804615	-0.173638	-0.000038
H58	H	1.769911	-0.223271	0.042943
H59	H	1.839363	-0.183786	-0.108936
C60	C	1.955438	-0.091594	0.036173
C61	C	1.912817	-0.152554	0.088974
H62	H	2.022186	-0.078589	0.091074
H63	H	1.888668	-0.054789	0.036194
H64	H	1.984386	-0.100060	-0.054574
H65	H	1.883856	-0.144085	0.179712
H66	H	1.979585	-0.189358	0.088970
O67	O	1.701578	-0.262510	0.000201
C68	C	1.707276	-0.305111	0.117738
H69	H	1.643343	-0.278739	0.199917
H70	H	1.675256	-0.358220	0.091167
C71	C	1.921642	-0.347918	0.070082
C72	C	1.843127	-0.315525	0.171019
H73	H	2.005441	-0.354345	0.102946
H74	H	1.917803	-0.319220	-0.009108
H75	H	1.894944	-0.392173	0.047948
H76	H	1.869816	-0.271268	0.193139
H77	H	1.846974	-0.344216	0.250215
O78	O	1.555946	0.056756	-0.577040
C79	C	1.630993	0.015097	-0.670589
H80	H	1.579923	0.014077	-0.772493
H81	H	1.723714	0.038084	-0.685710
C82	C	1.719431	-0.058828	-0.489539
C83	C	1.656701	-0.060085	-0.614695
H84	H	1.735295	-0.105203	-0.455060
H85	H	1.668874	-0.030760	-0.426512
H86	H	1.796691	-0.039669	-0.502156
H87	H	1.579436	-0.079235	-0.602073
H88	H	1.707246	-0.088158	-0.677719
H89	H	1.271269	-0.227307	0.000003
O90	O	1.690032	-0.706467	-0.000012
C91	C	1.791659	-0.665571	-0.000004
H92	H	1.759682	-0.611377	-0.042983
H93	H	1.826847	-0.660204	0.108884
C94	C	1.937610	-0.767920	-0.036240
C95	C	1.898338	-0.701360	-0.089038
H96	H	2.003417	-0.789997	-0.091155
H97	H	1.869143	-0.795473	-0.036240
H98	H	1.966924	-0.763438	0.054499
H99	H	1.869010	-0.705843	-0.179769
H100	H	1.966803	-0.673808	-0.089055
O101	O	1.245216	-0.532408	-0.000024
C102	C	1.143588	-0.573303	0.000017
H103	H	1.175555	-0.627508	-0.042947
H104	H	1.108422	-0.578645	0.108914
C105	C	0.997631	-0.470962	-0.036231
C106	C	1.036892	-0.537536	-0.089011
H107	H	0.931813	-0.448898	-0.091142
H108	H	1.066099	-0.443410	-0.036254
H109	H	0.968335	-0.475423	0.054515
H110	H	1.066202	-0.533074	-0.179749
H111	H	0.968426	-0.565087	-0.089006
H112	H	1.274737	-0.095167	-0.000004
H113	H	1.542545	0.064237	-0.411929
H114	H	1.259567	-0.671395	0.000071
H115	H	1.323719	0.185794	-0.363114
H116	H	1.323740	0.185788	-0.636885
