data_functionalizedCrystal
_audit_creation_method	'MofGen! by Chris Wilmer'
_symmetry_space_group_name_H-M	'P1'
_symmetry_Int_Tables_number	1
_symmetry_cell_setting	triclinic
loop_
_symmetry_equiv_pos_as_xyz
  x,y,z
_cell_length_a	19.805407
_cell_length_b	12.759400
_cell_length_c	19.805399
_cell_angle_alpha	89.976763
_cell_angle_beta	89.980427
_cell_angle_gamma	90.014685
loop_
_atom_site_label
_atom_site_type_symbol
_atom_site_fract_x
_atom_site_fract_y
_atom_site_fract_z
Zn1	Zn	1.034791	-0.418291	-0.382740
Zn2	Zn	1.534791	0.081709	0.117260
Zn3	Zn	1.034729	-0.593984	-0.269560
Zn4	Zn	1.534729	-0.093984	0.230440
Zn5	Zn	0.921605	-0.418320	-0.269565
Zn6	Zn	1.421605	0.081680	0.230435
Zn7	Zn	0.921592	-0.593928	-0.382707
Zn8	Zn	1.421592	-0.093928	0.117293
O9	O	0.978179	-0.506131	-0.326143
O10	O	1.478179	-0.006131	0.173857
O11	O	1.129499	-0.441608	-0.367739
O12	O	1.629499	0.058392	0.132261
O13	O	1.019702	-0.570717	-0.174844
O14	O	1.519702	-0.070717	0.325156
O15	O	0.936651	-0.271295	-0.284593
O16	O	1.436651	0.228705	0.215407
O17	O	1.129454	-0.570689	-0.284586
O18	O	1.629454	-0.070689	0.215414
O19	O	1.019808	-0.271273	-0.367743
O20	O	1.519808	0.228727	0.132257
O21	O	0.936591	-0.441657	-0.174848
O22	O	1.436591	0.058343	0.325152
O23	O	0.826887	-0.441603	-0.284561
O24	O	1.326887	0.058397	0.215439
O25	O	0.936629	-0.570594	-0.477428
O26	O	1.436629	-0.070594	0.022572
O27	O	0.826877	-0.570622	-0.367687
O28	O	1.326877	-0.070622	0.132313
O29	O	1.019795	-0.441554	-0.477452
O30	O	1.519795	0.058446	0.022548
O31	O	1.019689	-0.740998	-0.284554
O32	O	1.519689	-0.240998	0.215446
O33	O	0.936568	-0.740957	-0.367682
O34	O	1.436568	-0.240957	0.132318
C35	C	0.802323	-0.506110	-0.326121
C36	C	1.302323	-0.006110	0.173879
C37	C	0.727091	-0.506127	-0.326128
C38	C	1.227091	-0.006127	0.173872
C39	C	0.691760	-0.573408	-0.369341
C40	C	1.191760	-0.073408	0.130659
C41	C	0.621071	-0.573410	-0.369351
C42	C	1.121071	-0.073410	0.130649
C43	C	0.585716	-0.506135	-0.326143
C44	C	1.085716	-0.006135	0.173857
C45	C	0.621052	-0.438847	-0.282928
C46	C	1.121052	0.061153	0.217072
C47	C	0.691739	-0.438840	-0.282922
C48	C	1.191739	0.061160	0.217078
C49	C	0.335979	-0.438870	-0.282950
C50	C	0.835979	0.061130	0.217050
C51	C	0.265287	-0.438884	-0.282958
C52	C	0.765287	0.061116	0.217042
C53	C	0.265311	-0.573440	-0.369379
C54	C	0.765311	-0.073440	0.130621
C55	C	0.335998	-0.573433	-0.369373
C56	C	0.835998	-0.073433	0.130627
C57	C	0.371328	-0.506141	-0.326161
C58	C	0.871328	-0.006141	0.173839
C59	C	0.447977	-0.506139	-0.326152
C60	C	0.947977	-0.006139	0.173848
C61	C	0.509069	-0.506142	-0.326148
C62	C	1.009069	-0.006142	0.173852
C63	C	0.978139	-0.779098	-0.326129
C64	C	1.478139	-0.279098	0.173871
C65	C	0.978184	-0.895875	-0.326146
C66	C	1.478184	-0.395875	0.173854
C67	C	1.021513	-0.950723	-0.282908
C68	C	1.521513	-0.450723	0.217092
C69	C	1.021555	-1.060447	-0.282929
C70	C	1.521555	-0.560447	0.217071
C71	C	0.934932	-1.060464	-0.369426
C72	C	1.434932	-0.560464	0.130574
C73	C	0.934894	-0.950742	-0.369408
C74	C	1.434894	-0.450742	0.130592
C75	C	1.064802	-0.895855	-0.239646
C76	C	1.564802	-0.395855	0.260354
C77	C	1.108135	-0.950704	-0.196404
C78	C	1.608135	-0.450704	0.303596
C79	C	1.108176	-1.060428	-0.196425
C80	C	1.608176	-0.560428	0.303575
C81	C	1.064886	-1.115303	-0.239687
C82	C	1.564886	-0.615303	0.260313
C83	C	1.154722	-0.506152	-0.326165
C84	C	1.654722	-0.006152	0.173835
C85	C	1.229954	-0.506160	-0.326175
C86	C	1.729954	-0.006160	0.173825
C87	C	0.978217	-0.506064	-0.502686
C88	C	1.478217	-0.006064	-0.002686
C89	C	0.978233	-0.506036	-0.577918
C90	C	1.478233	-0.006036	-0.077918
C91	C	0.978238	-0.232097	-0.326172
C92	C	1.478238	0.267903	0.173828
C93	C	0.978263	-0.115321	-0.326184
C94	C	1.478263	0.384679	0.173816
C95	C	1.021539	-0.438842	-0.613276
C96	C	1.521539	0.061158	-0.113276
C97	C	1.021546	-0.438811	-0.683964
C98	C	1.521546	0.061189	-0.183964
C99	C	0.978250	-0.505981	-0.719294
C100	C	1.478250	-0.005981	-0.219294
C101	C	0.934940	-0.573179	-0.683931
C102	C	1.434940	-0.073179	-0.183931
C103	C	0.934930	-0.573203	-0.613244
C104	C	1.434930	-0.073203	-0.113244
C105	C	0.934978	-0.573081	-0.969004
C106	C	1.434978	-0.073081	-0.469004
C107	C	0.934992	-0.573054	-1.039696
C108	C	1.434992	-0.073054	-0.539696
C109	C	1.021594	-0.438689	-1.039725
C110	C	1.521594	0.061311	-0.539725
C111	C	1.021584	-0.438713	-0.969038
C112	C	1.521584	0.061287	-0.469038
C113	C	0.978272	-0.505906	-0.933681
C114	C	1.478272	-0.005906	-0.433681
C115	C	0.978264	-0.505937	-0.857033
C116	C	1.478264	-0.005937	-0.357033
C117	C	0.978261	-0.505957	-0.795941
C118	C	1.478261	-0.005957	-0.295941
C119	C	0.978180	-0.506121	-0.150287
C120	C	1.478180	-0.006121	0.349713
C121	C	0.978295	-0.505853	-0.075055
C122	C	1.478295	-0.005853	0.424945
H123	H	0.592308	-0.628198	-0.404539
H124	H	1.092308	-0.128198	0.095461
N125	N	1.068280	-0.366261	-0.930935
N126	N	1.568280	0.133739	-0.430935
H127	H	1.061703	-0.376474	-0.880789
H128	H	1.561703	0.123526	-0.380789
H129	H	1.116619	-0.382614	-0.943298
H130	H	1.616619	0.117386	-0.443298
H131	H	1.064772	-0.806512	-0.239622
H132	H	1.564772	-0.306512	0.260378
H133	H	0.364781	-0.628219	-0.404555
H134	H	0.864781	-0.128219	0.095445
H135	H	1.056859	-0.383973	-1.068521
H136	H	1.556859	0.116027	-0.568521
N137	N	0.888225	-0.645605	-0.722032
N138	N	1.388225	-0.145605	-0.222032
H139	H	0.894800	-0.635391	-0.772178
H140	H	1.394800	-0.135391	-0.272178
H141	H	0.898729	-0.720651	-0.709675
H142	H	1.398729	-0.220651	-0.209675
H143	H	0.899733	-0.627754	-1.068460
H144	H	1.399733	-0.127754	-0.568460
H145	H	0.236536	-0.628228	-0.404567
H146	H	0.736536	-0.128228	0.095433
N147	N	0.582916	-0.366300	-0.236319
N148	N	1.082916	0.133700	0.263681
H149	H	0.595223	-0.291248	-0.246908
H150	H	1.095223	0.208752	0.253092
H151	H	0.532788	-0.376615	-0.242902
H152	H	1.032788	0.123385	0.257098
N153	N	0.888242	-0.645515	-0.930875
N154	N	1.388242	-0.145515	-0.430875
H155	H	0.860812	-0.688053	-0.963984
H156	H	1.360812	-0.188053	-0.463984
H157	H	0.915753	-0.694164	-0.901531
H158	H	1.415753	-0.194164	-0.401531
N159	N	0.227151	-0.366321	-0.236353
N160	N	0.727151	0.133679	0.263647
H161	H	0.260258	-0.323688	-0.208978
H162	H	0.760258	0.176312	0.291022
H163	H	0.197837	-0.317767	-0.263964
H164	H	0.697837	0.182233	0.236036
N165	N	1.154831	-0.891525	-0.149752
N166	N	1.654831	-0.391525	0.350248
H167	H	1.148231	-0.813693	-0.156299
H168	H	1.648231	-0.313693	0.343701
H169	H	1.144334	-0.910769	-0.101406
H170	H	1.644334	-0.410769	0.398594
N171	N	1.154915	-1.119589	-0.149796
N172	N	1.654915	-0.619589	0.350204
H173	H	1.182331	-1.068178	-0.122389
H174	H	1.682331	-0.568178	0.377611
H175	H	1.127397	-1.165183	-0.118457
H176	H	1.627397	-0.665183	0.381543
N177	N	0.729851	-0.366266	-0.236319
N178	N	1.229851	0.133734	0.263681
H179	H	0.696728	-0.323648	-0.208947
H180	H	1.196728	0.176352	0.291053
H181	H	0.759163	-0.408959	-0.204945
H182	H	1.259163	0.091041	0.295055
N183	N	0.888215	-0.645674	-0.575111
N184	N	1.388215	-0.145674	-0.075111
H185	H	0.898709	-0.720740	-0.587404
H186	H	1.398709	-0.220740	-0.087404
H187	H	0.894793	-0.635409	-0.524982
H188	H	1.394793	-0.135409	-0.024982
N189	N	0.729891	-0.645977	-0.415940
N190	N	1.229891	-0.145977	0.084060
H191	H	0.696779	-0.688598	-0.443317
H192	H	1.196779	-0.188598	0.056683
H193	H	0.759239	-0.603274	-0.447308
H194	H	1.259239	-0.103274	0.052692
N195	N	0.374080	-0.366278	-0.236356
N196	N	0.874080	0.133722	0.263644
H197	H	0.340954	-0.323660	-0.208988
H198	H	0.840954	0.176340	0.291012
H199	H	0.403398	-0.408956	-0.204978
H200	H	0.903398	0.091044	0.295022
H201	H	1.064928	-1.204648	-0.239706
H202	H	1.564928	-0.704648	0.260294
H203	H	1.056812	-0.384097	-0.712749
H204	H	1.556812	0.115903	-0.212749
H205	H	0.899686	-1.105153	-0.404648
H206	H	1.399686	-0.605153	0.095352
N207	N	0.888165	-0.891575	-0.416044
N208	N	1.388165	-0.391575	0.083956
H209	H	0.860744	-0.942981	-0.443451
H210	H	1.360744	-0.442981	0.056549
H211	H	0.856843	-0.846114	-0.388458
H212	H	1.356843	-0.346114	0.111542
H213	H	1.056798	-0.384147	-0.584516
H214	H	1.556798	0.115853	-0.084516
