data_functionalizedCrystal
_audit_creation_method	'MofGen! by Chris Wilmer'
_symmetry_space_group_name_H-M	'P1'
_symmetry_Int_Tables_number	1
_symmetry_cell_setting	triclinic
loop_
_symmetry_equiv_pos_as_xyz
  x,y,z
_cell_length_a	19.121102
_cell_length_b	18.215405
_cell_length_c	18.215399
_cell_angle_alpha	90.030551
_cell_angle_beta	92.458396
_cell_angle_gamma	87.579072
loop_
_atom_site_label
_atom_site_type_symbol
_atom_site_fract_x
_atom_site_fract_y
_atom_site_fract_z
Zn1	Zn	1.073728	-0.341065	0.464034
Zn2	Zn	1.073640	-0.464132	0.340958
Zn3	Zn	0.956277	-0.335830	0.335738
Zn4	Zn	0.956244	-0.458834	0.458742
O5	O	1.014972	-0.399965	0.399868
O6	O	1.172001	-0.361798	0.452107
O7	O	1.058049	-0.447139	0.237280
O8	O	0.971907	-0.233542	0.352787
O9	O	1.171936	-0.452215	0.361683
O10	O	1.058198	-0.237388	0.447045
O11	O	0.971822	-0.352875	0.233445
O12	O	0.857988	-0.347738	0.347656
O13	O	0.971852	-0.443186	0.562430
O14	O	0.857964	-0.438109	0.438027
O15	O	1.058166	-0.356661	0.566317
O16	O	1.058017	-0.566412	0.356553
O17	O	0.971767	-0.562519	0.443088
C18	C	1.014898	-0.591168	0.399829
C19	C	1.014931	-0.672969	0.399840
C20	C	0.832492	-0.391781	0.391701
C21	C	0.754426	-0.388298	0.388225
C22	C	1.059947	-0.863170	0.354873
C23	C	1.059978	-0.940030	0.354892
C24	C	0.970088	-0.936013	0.444921
C25	C	0.970060	-0.859154	0.444905
C26	C	1.014989	-0.822735	0.399877
C27	C	1.015048	-0.976453	0.399912
C28	C	1.015081	-1.059788	0.399933
C29	C	1.014956	-0.739394	0.399856
C30	C	0.717756	-0.433783	0.433569
C31	C	0.644405	-0.430501	0.430306
C32	C	0.607725	-0.381735	0.381695
C33	C	0.644400	-0.336244	0.336349
C34	C	0.717750	-0.339524	0.339616
C35	C	0.386256	-0.369472	0.369483
C36	C	0.312901	-0.366197	0.366218
C37	C	0.312911	-0.460453	0.460176
C38	C	0.386262	-0.463731	0.463436
C39	C	0.422931	-0.418238	0.418093
C40	C	0.532748	-0.378380	0.378356
C41	C	0.497906	-0.421590	0.421435
C42	C	1.198165	-0.408182	0.408068
C43	C	1.276231	-0.411683	0.411562
C44	C	1.015015	-0.399916	0.591823
C45	C	1.015033	-0.399896	0.673623
C46	C	1.015066	-0.208016	0.399924
C47	C	1.015106	-0.126219	0.399948
C48	C	1.014970	-0.399963	0.208662
C49	C	1.015088	-0.399782	0.126869
C50	C	1.059993	-0.354799	0.863843
C51	C	1.060002	-0.354778	0.940702
C52	C	0.970123	-0.444881	0.936643
C53	C	0.970111	-0.444897	0.859785
C54	C	1.015051	-0.399858	0.823387
C55	C	1.015070	-0.399820	0.977104
C56	C	1.015079	-0.399798	1.060438
C57	C	1.015041	-0.399879	0.740048
H58	H	1.096531	-0.833519	0.318209
Cl59	Cl	0.913634	-0.501503	0.982405
H60	H	0.933507	-0.965675	0.481580
H61	H	1.096598	-0.318085	0.973638
Cl62	Cl	0.544019	-0.482893	0.482544
H63	H	0.933508	-0.481589	0.826844
Cl64	Cl	0.913541	-0.808318	0.501490
Cl65	Cl	1.116501	-0.990859	0.298315
Cl66	Cl	0.266789	-0.304893	0.305096
H67	H	1.096584	-0.318123	0.834210
Cl68	Cl	0.763861	-0.495095	0.494680
H69	H	0.614552	-0.467541	0.467229
H70	H	0.283048	-0.497490	0.497093
Cl71	Cl	0.432369	-0.525041	0.524548
Cl72	Cl	0.486630	-0.317077	0.317247
Cl73	Cl	0.432343	-0.312278	0.312482
H74	H	0.747605	-0.302481	0.302696
Cl75	Cl	0.598287	-0.274934	0.275242
