data_functionalizedCrystal
_audit_creation_method	'MofGen! by Chris Wilmer'
_symmetry_space_group_name_H-M	'P1'
_symmetry_Int_Tables_number	1
_symmetry_cell_setting	triclinic
loop_
_symmetry_equiv_pos_as_xyz
  x,y,z
_cell_length_a	14.908783
_cell_length_b	16.625546
_cell_length_c	14.908308
_cell_angle_alpha	93.264070
_cell_angle_beta	89.788727
_cell_angle_gamma	93.313227
loop_
_atom_site_label
_atom_site_type_symbol
_atom_site_fract_x
_atom_site_fract_y
_atom_site_fract_z
Zn1	Zn	1.345304	-0.282015	-0.587817
Zn2	Zn	1.353880	-0.408665	-0.437451
Zn3	Zn	1.203617	-0.281142	-0.428788
Zn4	Zn	1.194905	-0.424105	-0.579072
O5	O	1.274427	-0.348982	-0.508282
O6	O	1.472270	-0.292719	-0.575156
O7	O	1.341183	-0.384922	-0.310479
O8	O	1.222470	-0.168425	-0.449918
O9	O	1.478570	-0.385768	-0.464683
O10	O	1.326566	-0.169066	-0.566756
O11	O	1.230785	-0.291232	-0.304114
O12	O	1.076634	-0.306203	-0.441438
O13	O	1.207620	-0.412083	-0.706055
O14	O	1.070233	-0.411237	-0.551851
O15	O	1.318118	-0.307690	-0.712480
O16	O	1.332734	-0.523547	-0.456203
O17	O	1.215936	-0.534890	-0.560251
C18	C	1.040807	-0.360301	-0.494756
C19	C	0.940863	-0.365164	-0.488991
C20	C	0.746483	-0.277561	-0.593370
C21	C	0.652576	-0.282128	-0.587956
C22	C	0.659140	-0.378860	-0.472746
C23	C	0.753047	-0.374293	-0.478160
C24	C	0.796715	-0.323643	-0.538475
C25	C	0.890624	-0.319081	-0.543893
C26	C	0.897186	-0.415808	-0.428679
C27	C	0.803279	-0.420375	-0.423265
C28	C	1.274344	-0.558475	-0.508239
C29	C	1.274389	-0.648094	-0.508256
C30	C	1.274540	-0.976267	-0.508359
C31	C	1.274495	-0.884960	-0.508333
C32	C	1.274464	-0.812184	-0.508307
C33	C	1.274420	-0.720870	-0.508282
C34	C	1.508958	-0.337619	-0.521861
C35	C	1.608901	-0.332776	-0.527647
C36	C	1.260941	-0.361706	-0.742804
C37	C	1.255194	-0.367128	-0.842743
C38	C	1.274533	-0.138671	-0.508346
C39	C	1.274579	-0.049049	-0.508373
C40	C	1.359454	-0.268595	-1.037231
C41	C	1.354057	-0.273687	-1.131134
C42	C	1.238999	-0.382400	-1.124451
C43	C	1.244396	-0.377308	-1.030549
C44	C	1.304626	-0.320404	-0.986943
C45	C	1.310027	-0.315317	-0.893039
C46	C	1.194966	-0.424025	-0.886358
C47	C	1.189569	-0.429117	-0.980260
C48	C	1.287912	-0.336246	-0.274675
C49	C	1.293833	-0.330588	-0.174747
H50	H	0.767712	-0.461609	-0.374156
H51	H	1.408500	-0.222266	-1.001727
H52	H	0.782038	-0.236324	-0.642484
H53	H	1.398700	-0.231496	-1.172075
H54	H	0.926177	-0.277840	-0.593005
H55	H	0.938095	-0.453338	-0.383986
C56	C	1.188487	-0.527371	-0.780011
C57	C	1.134691	-0.480979	-0.831080
H58	H	1.151276	-0.562528	-0.745883
H59	H	1.225536	-0.558295	-0.818905
H60	H	1.225123	-0.492748	-0.740600
H61	H	1.098060	-0.515602	-0.870497
H62	H	1.097627	-0.450052	-0.792183
H63	H	0.611681	-0.244601	-0.632655
C64	C	1.125805	-0.489343	-1.108425
C65	C	1.172794	-0.444940	-1.172392
H66	H	1.084929	-0.527949	-1.138024
H67	H	1.167071	-0.516304	-1.074065
H68	H	1.093534	-0.453888	-1.069812
H69	H	1.205070	-0.480395	-1.211001
H70	H	1.131522	-0.417979	-1.206767
H71	H	0.623570	-0.420087	-0.423631
H72	H	1.359071	-0.268984	-0.857537
H73	H	1.140530	-0.475445	-1.015777
