data_functionalizedCrystal
_audit_creation_method	'MofGen! by Chris Wilmer'
_symmetry_space_group_name_H-M	'P1'
_symmetry_Int_Tables_number	1
_symmetry_cell_setting	triclinic
loop_
_symmetry_equiv_pos_as_xyz
  x,y,z
_cell_length_a	16.992694
_cell_length_b	14.044220
_cell_length_c	15.455313
_cell_angle_alpha	92.908275
_cell_angle_beta	87.142206
_cell_angle_gamma	91.928550
loop_
_atom_site_label
_atom_site_type_symbol
_atom_site_fract_x
_atom_site_fract_y
_atom_site_fract_z
O1	O	1.057683	0.198159	-0.072025
O2	O	1.557683	0.698159	0.427975
O3	O	0.829244	0.195941	-0.072050
O4	O	1.329244	0.695941	0.427950
O5	O	0.940034	0.058806	-0.072029
O6	O	1.440034	0.558806	0.427971
O7	O	0.946893	0.335294	-0.072046
O8	O	1.446893	0.835294	0.427954
O9	O	0.933696	0.066614	0.072232
O10	O	1.433696	0.566614	0.572232
O11	O	0.822906	0.203749	0.072211
O12	O	1.322906	0.703749	0.572211
O13	O	1.051345	0.205967	0.072236
O14	O	1.551345	0.705967	0.572236
Cu15	Cu	0.936547	0.205571	0.085396
Cu16	Cu	1.436547	0.705571	0.585396
Cu17	Cu	0.944042	0.196337	-0.085210
Cu18	Cu	1.444042	0.696337	0.414790
O19	O	0.940555	0.343102	0.072215
O20	O	1.440555	0.843102	0.572215
C21	C	0.796663	0.196993	0.000077
C22	C	1.296663	0.696993	0.500077
C23	C	0.709024	0.188484	0.000068
C24	C	1.209024	0.688484	0.500068
C25	C	0.664526	0.270581	0.000063
C26	C	1.164526	0.770581	0.500063
C27	C	0.582179	0.262581	0.000076
C28	C	1.082179	0.762581	0.500076
C29	C	0.544332	0.172483	0.000086
C30	C	1.044332	0.672483	0.500086
C31	C	0.588836	0.090381	0.000093
C32	C	1.088836	0.590381	0.500093
C33	C	0.671181	0.098382	0.000087
C34	C	1.171181	0.598382	0.500087
C35	C	0.298414	0.139322	0.000112
C36	C	0.798414	0.639322	0.500112
C37	C	0.216063	0.131327	0.000115
C38	C	0.716063	0.631327	0.500115
C39	C	0.209411	0.303528	0.000100
C40	C	0.709411	0.803528	0.500100
C41	C	0.291759	0.311521	0.000088
C42	C	0.791759	0.811521	0.500088
C43	C	0.336255	0.229419	0.000099
C44	C	0.836255	0.729419	0.500099
N45	N	0.460161	0.164304	0.000096
N46	N	0.960161	0.664304	0.500096
N47	N	0.420425	0.237599	0.000096
N48	N	0.920425	0.737599	0.500096
C49	C	0.933863	0.027168	0.000101
C50	C	1.433863	0.527168	0.500101
C51	C	0.924909	-0.078736	0.000101
C52	C	1.424909	0.421264	0.500101
C53	C	0.908540	-0.272638	0.000087
C54	C	1.408540	0.227362	0.500087
C55	C	0.972046	-0.325460	0.000092
C56	C	1.472046	0.174540	0.500092
C57	C	0.962938	-0.433354	0.000084
C58	C	1.462938	0.066646	0.500084
C59	C	0.917647	-0.164734	0.000095
C60	C	1.417647	0.335266	0.500095
C61	C	1.083926	0.204915	0.000107
C62	C	1.583926	0.704915	0.500107
C63	C	1.171565	0.213424	0.000111
C64	C	1.671565	0.713424	0.500111
C65	C	0.946726	0.374740	0.000083
C66	C	1.446726	0.874740	0.500083
C67	C	0.955680	0.480644	0.000077
C68	C	1.455680	0.980644	0.500077
N69	N	0.931281	0.212065	0.205390
N70	N	1.431281	0.712065	0.705390
N71	N	0.949314	0.189836	-0.205204
N72	N	1.449314	0.689836	0.294796
C73	C	0.978368	0.153829	0.250793
C74	C	1.478368	0.653829	0.750793
C75	C	0.974393	0.158750	0.341600
C76	C	1.474393	0.658750	0.841600
C77	C	0.923335	0.221911	0.387003
C78	C	1.423335	0.721911	0.887003
C79	C	0.876243	0.280149	0.341594
C80	C	1.376243	0.780149	0.841594
C81	C	0.880214	0.275223	0.250788
C82	C	1.380214	0.775223	0.750788
C83	C	0.906193	0.243148	0.658581
C84	C	1.406193	0.743148	1.158581
C85	C	0.902227	0.248072	0.749393
C86	C	1.402227	0.748072	1.249393
C87	C	1.000377	0.126671	0.749394
C88	C	1.500377	0.626671	1.249394
C89	C	1.004347	0.121754	0.658586
C90	C	1.504347	0.621754	1.158586
C91	C	0.957251	0.179989	0.613185
C92	C	1.457251	0.679989	1.113185
N93	N	0.919273	0.226945	0.479822
N94	N	1.419273	0.726945	0.979822
N95	N	0.961310	0.174950	0.520367
N96	N	1.461310	0.674950	1.020367
H97	H	0.322568	0.384887	0.000070
H98	H	0.822568	0.884887	0.500070
O99	O	1.025182	0.095936	0.390567
O100	O	1.525182	0.595936	0.890567
H101	H	1.013837	0.109960	0.461337
H102	H	1.513837	0.609960	0.961337
H103	H	0.707411	0.031530	0.000090
H104	H	1.207411	0.531530	0.500090
O105	O	0.175238	0.034147	0.000139
O106	O	0.675238	0.534147	0.500139
H107	H	0.195215	-0.008800	-0.058649
H108	H	0.695215	0.491200	0.441351
O109	O	1.053126	-0.278032	0.000102
O110	O	1.553126	0.221968	0.500102
H111	H	1.098244	-0.333374	0.000098
H112	H	1.598244	0.166626	0.500098
H113	H	0.558015	0.017022	0.000114
H114	H	1.058015	0.517022	0.500114
H115	H	0.867847	0.290567	0.621622
H116	H	1.367847	0.790567	1.121622
O117	O	1.059409	0.053622	0.609616
O118	O	1.559409	0.553622	1.109616
H119	H	1.091479	0.013945	0.656444
H120	H	1.591479	0.513945	1.156444
H121	H	0.847335	-0.308444	0.000078
H122	H	1.347335	0.191556	0.500078
O123	O	1.033435	0.085701	0.201824
O124	O	1.533435	0.585701	0.701824
H125	H	1.065502	0.046026	0.248655
H126	H	1.565502	0.546026	0.748655
H127	H	1.038719	0.079258	0.786368
H128	H	1.538719	0.579258	1.286368
H129	H	0.834666	0.331573	0.378565
H130	H	1.334666	0.831573	0.878565
O131	O	0.847144	0.316187	0.798369
O132	O	1.347144	0.816187	1.298369
H133	H	0.815055	0.355845	0.751543
H134	H	1.315055	0.855845	1.251543
O135	O	0.346403	0.050774	0.000123
O136	O	0.846403	0.550774	0.500123
H137	H	0.306249	-0.013218	0.000124
H138	H	0.806249	0.486782	0.500124
O139	O	0.829428	0.338026	0.201803
O140	O	1.329428	0.838026	0.701803
H141	H	0.843902	0.414030	0.219202
H142	H	1.343902	0.914030	0.719202
O143	O	0.705340	0.367761	0.000062
O144	O	1.205340	0.867761	0.500062
H145	H	0.690508	0.404337	-0.058731
H146	H	1.190508	0.904337	0.441269
O147	O	0.534184	0.351129	0.000075
O148	O	1.034184	0.851129	0.500075
H149	H	0.550959	0.390761	-0.058733
H150	H	1.050959	0.890761	0.441267
O151	O	0.161420	0.392080	0.000105
O152	O	0.661420	0.892080	0.500105
H153	H	0.097802	0.371386	0.000122
H154	H	0.597802	0.871386	0.500122
