data_functionalizedCrystal
_audit_creation_method	'MofGen! by Chris Wilmer'
_symmetry_space_group_name_H-M	'P1'
_symmetry_Int_Tables_number	1
_symmetry_cell_setting	triclinic
loop_
_symmetry_equiv_pos_as_xyz
  x,y,z
_cell_length_a	6.817900
_cell_length_b	10.943624
_cell_length_c	9.514072
_cell_angle_alpha	88.513180
_cell_angle_beta	118.843421
_cell_angle_gamma	108.838799
loop_
_atom_site_label
_atom_site_type_symbol
_atom_site_fract_x
_atom_site_fract_y
_atom_site_fract_z
V1	V	-4.173025	-0.403562	-0.222162
O2	O	-4.070428	-0.394839	0.010719
O3	O	-4.207528	-0.401803	-0.440552
O4	O	-4.150098	-0.579113	-0.218726
O5	O	-4.128256	-0.216302	-0.212643
V6	V	-4.642610	-0.381043	-0.194309
O7	O	-4.464858	-0.452961	-0.283260
O8	O	-4.800974	-0.331645	-0.133211
O9	O	-4.384900	-0.382802	0.024081
O10	O	-4.862603	-0.389766	-0.427190
O11	O	-4.804775	-0.568303	-0.203829
O12	O	-4.442331	-0.205492	-0.197745
C13	C	-4.071873	-0.395695	-0.493791
C14	C	-4.181540	-0.395427	-0.672327
C15	C	-3.998612	-0.621870	-0.210828
C16	C	-4.061699	-0.765390	-0.209463
C17	C	-3.904149	-0.842496	-0.200275
C18	C	-4.128826	-0.949107	-0.336665
C19	C	-3.949461	-0.914509	-0.070657
C20	C	-4.285620	-0.870125	-0.345982
C21	C	-4.106143	-0.835503	-0.079853
C22	C	-4.330967	-0.942085	-0.216283
C23	C	-4.183900	-0.388907	0.077311
C24	C	-4.053473	-0.389183	0.255846
C25	C	-4.257159	-0.162729	-0.205648
C26	C	-4.173308	-0.019207	-0.207005
H27	H	-3.723243	-0.799017	-0.193689
H28	H	-3.859895	-0.383978	-0.669050
N29	N	-4.437886	-0.402168	-0.771774
H30	H	-4.482524	-0.401004	-0.889495
H31	H	-4.547014	-0.485472	-0.761706
N32	N	-4.473114	-0.843625	-0.500289
H33	H	-4.600965	-0.929211	-0.569195
H34	H	-4.547799	-0.789271	-0.472167
N35	N	-4.142437	-1.014628	-0.480471
H36	H	-4.267848	-0.997659	-0.584356
H37	H	-3.981664	-0.978187	-0.474210
N38	N	-4.570815	-0.999411	-0.225285
H39	H	-4.685366	-1.067973	-0.325312
H40	H	-4.550575	-1.040694	-0.125261
H41	H	-4.095805	-0.786025	0.028722
N42	N	-3.762062	-0.941259	0.083478
H43	H	-3.601529	-0.904863	0.089374
H44	H	-3.752123	-0.898160	0.180458
