data_functionalizedCrystal
_audit_creation_method	'MofGen! by Chris Wilmer'
_symmetry_space_group_name_H-M	'P1'
_symmetry_Int_Tables_number	1
_symmetry_cell_setting	triclinic
loop_
_symmetry_equiv_pos_as_xyz
  x,y,z
_cell_length_a	12.759401
_cell_length_b	12.759393
_cell_length_c	12.759399
_cell_angle_alpha	90.032185
_cell_angle_beta	89.985840
_cell_angle_gamma	89.982549
loop_
_atom_site_label
_atom_site_type_symbol
_atom_site_fract_x
_atom_site_fract_y
_atom_site_fract_z
Zn1	Zn	1.606241	-0.593980	0.418229
Zn2	Zn	1.606137	-0.418299	0.593949
Zn3	Zn	1.430546	-0.418319	0.418281
Zn4	Zn	1.430530	-0.593940	0.593864
O5	O	1.518364	-0.506135	0.506081
O6	O	1.753248	-0.570684	0.441552
O7	O	1.582808	-0.271281	0.570703
O8	O	1.453902	-0.441646	0.271253
O9	O	1.753172	-0.441612	0.570653
O10	O	1.582985	-0.570704	0.271215
O11	O	1.453802	-0.271296	0.441641
O12	O	1.283523	-0.441608	0.441559
O13	O	1.453875	-0.740967	0.570508
O14	O	1.283511	-0.570636	0.570559
O15	O	1.582969	-0.740996	0.441470
O16	O	1.582793	-0.441573	0.740958
O17	O	1.453775	-0.570616	0.740896
C18	C	1.245396	-0.506120	0.506056
C19	C	1.128620	-0.506139	0.506071
C20	C	1.073790	-0.573451	0.438975
C21	C	0.964066	-0.573458	0.438995
C22	C	0.964011	-0.438837	0.573216
C23	C	1.073733	-0.438826	0.573189
C24	C	1.128677	-0.640764	0.371856
C25	C	1.073848	-0.708082	0.304756
C26	C	0.964124	-0.708089	0.304776
C27	C	0.909229	-0.640777	0.371896
C28	C	1.518432	-0.780168	0.505974
C29	C	1.518461	-0.896945	0.505928
C30	C	1.451316	-0.951821	0.438713
C31	C	1.451348	-1.061545	0.438682
C32	C	1.585678	-1.061508	0.573083
C33	C	1.585641	-0.951786	0.573119
C34	C	1.384136	-0.896980	0.371522
C35	C	1.316987	-0.951856	0.304301
C36	C	1.317018	-1.061580	0.304269
C37	C	1.384200	-1.116429	0.371459
C38	C	1.792397	-0.506150	0.506106
C39	C	1.909173	-0.506157	0.506117
C40	C	1.518299	-0.506111	0.779048
C41	C	1.518368	-0.506136	0.895825
C42	C	1.518356	-0.233167	0.506111
C43	C	1.518531	-0.116391	0.505861
C44	C	1.518457	-0.506182	0.232047
C45	C	1.518497	-0.506202	0.115271
C46	C	1.585624	-0.439020	0.950684
C47	C	1.585691	-0.439055	1.060408
C48	C	1.451237	-0.573325	1.060403
C49	C	1.451176	-0.573295	0.950681
H50	H	1.118550	-0.762878	0.250103
H51	H	1.640337	-0.384336	0.906022
C52	C	1.134049	-0.364797	0.647005
H53	H	1.085647	-0.324723	0.686996
H54	H	1.176839	-0.319085	0.606758
H55	H	1.176861	-0.404919	0.692819
C56	C	0.903814	-0.782133	0.230970
H57	H	0.952220	-0.822223	0.191002
H58	H	0.860995	-0.742033	0.185151
H59	H	0.861030	-0.827845	0.271233
C60	C	1.249369	-0.640757	0.371836
H61	H	1.274163	-0.591031	0.421415
H62	H	1.274194	-0.622713	0.304012
H63	H	1.274209	-0.708525	0.390094
H64	H	1.396408	-0.627954	0.906012
H65	H	0.819884	-0.640765	0.371885
C66	C	0.903629	-0.364813	0.647051
H67	H	0.830430	-0.374468	0.637465
H68	H	0.921578	-0.294245	0.631595
H69	H	0.921619	-0.380075	0.717658
C70	C	1.243158	-1.121941	0.230332
H71	H	1.203151	-1.073562	0.190319
H72	H	1.197377	-1.164736	0.270498
H73	H	1.283388	-1.164753	0.184545
C74	C	1.384094	-0.776288	0.371558
H75	H	1.334463	-0.751484	0.321922
H76	H	1.451892	-0.751468	0.353413
H77	H	1.365880	-0.751453	0.439365
H78	H	1.262284	-0.907192	0.249603
H79	H	1.640330	-0.907105	0.627837
C80	C	1.384232	-1.237123	0.371426
H81	H	1.334623	-1.261952	0.321769
H82	H	1.366050	-1.261928	0.439214
H83	H	1.452049	-1.261946	0.353249
H84	H	1.640377	-1.106174	0.627784
C85	C	1.659668	-0.365222	1.120749
H86	H	1.699668	-0.325218	1.072361
H87	H	1.705451	-0.405458	1.163481
H88	H	1.619519	-0.319422	1.163622
H89	H	1.396531	-0.628002	1.105081
