data_functionalizedCrystal
_audit_creation_method	'MofGen! by Chris Wilmer'
_symmetry_space_group_name_H-M	'P1'
_symmetry_Int_Tables_number	1
_symmetry_cell_setting	triclinic
loop_
_symmetry_equiv_pos_as_xyz
  x,y,z
_cell_length_a	23.532361
_cell_length_b	23.532407
_cell_length_c	22.010155
_cell_angle_alpha	90.002880
_cell_angle_beta	90.010098
_cell_angle_gamma	82.839173
loop_
_atom_site_label
_atom_site_type_symbol
_atom_site_fract_x
_atom_site_fract_y
_atom_site_fract_z
O1	O	0.755286	0.069002	0.050470
O2	O	0.589419	0.079033	0.050486
O3	O	0.677354	-0.008915	0.050466
O4	O	0.667350	0.156950	0.050490
O5	O	0.677328	-0.008905	-0.050584
O6	O	0.589393	0.079043	-0.050565
O7	O	0.755260	0.069012	-0.050580
Cu8	Cu	0.672324	0.074029	-0.059799
Cu9	Cu	0.672354	0.074017	0.059705
O10	O	0.667325	0.156960	-0.050561
C11	C	0.568189	0.078787	-0.000038
C12	C	0.504971	0.078032	-0.000032
C13	C	0.231741	0.074723	0.055046
C14	C	0.291141	0.075438	0.055048
O15	O	0.321878	0.075783	0.101892
N16	N	0.320832	0.075804	-0.000035
C17	C	0.291122	0.075450	-0.055123
O18	O	0.321832	0.075827	-0.101975
C19	C	0.231724	0.074731	-0.055124
C20	C	0.202035	0.074370	-0.000037
C21	C	0.202051	0.074361	0.110128
C22	C	0.142656	0.073647	0.110126
C23	C	0.112949	0.073295	0.055043
C24	C	0.142639	0.073657	-0.000039
C25	C	0.202015	0.074373	-0.110211
C26	C	0.142613	0.073654	-0.110207
C27	C	0.112924	0.073293	-0.055121
C28	C	0.053537	0.072590	-0.055125
N29	N	0.023845	0.072224	-0.000042
C30	C	0.053551	0.072576	0.055042
C31	C	0.415862	0.076959	-0.055117
C32	C	0.475259	0.077682	-0.055116
C33	C	0.475273	0.077668	0.055055
C34	C	0.415875	0.076949	0.055054
C35	C	0.386171	0.076593	-0.000034
C36	C	-0.071184	0.071077	0.055034
C37	C	-0.130586	0.070366	0.055027
C38	C	-0.130595	0.070377	-0.055144
C39	C	-0.071199	0.071091	-0.055137
C40	C	-0.041495	0.071440	-0.000044
O41	O	0.022762	0.072242	-0.101945
O42	O	0.022835	0.072191	0.101886
C43	C	0.677086	-0.030126	-0.000060
C44	C	0.676320	-0.093343	-0.000065
C45	C	0.723555	-0.492454	-0.000036
C46	C	0.722844	-0.551854	-0.000031
O47	O	0.766630	-0.588606	-0.000013
N48	N	0.670566	-0.574471	-0.000027
C49	C	0.618997	-0.537685	-0.000021
O50	O	0.574465	-0.562377	-0.000016
C51	C	0.619709	-0.478286	-0.000021
C52	C	0.671990	-0.455672	-0.000032
C53	C	0.775832	-0.469839	-0.000046
C54	C	0.776543	-0.410443	-0.000052
C55	C	0.724977	-0.373662	-0.000048
C56	C	0.672701	-0.396276	-0.000038
C57	C	0.568140	-0.441501	-0.000011
C58	C	0.568857	-0.382099	-0.000011
C59	C	0.621137	-0.359485	-0.000021
C60	C	0.621847	-0.300099	-0.000039
N61	N	0.674124	-0.277481	-0.000044
C62	C	0.725690	-0.314263	-0.000048
C63	C	0.617505	-0.662427	-0.000019
C64	C	0.616793	-0.721825	-0.000023
C65	C	0.720640	-0.735990	-0.000032
C66	C	0.721352	-0.676591	-0.000033
C67	C	0.669783	-0.639810	-0.000024
C68	C	0.727179	-0.189526	-0.000061
C69	C	0.727886	-0.130124	-0.000069
C70	C	0.624039	-0.115965	-0.000057
C71	C	0.623332	-0.175361	-0.000051
C72	C	0.674907	-0.212141	-0.000051
O73	O	0.578083	-0.263312	-0.000055
O74	O	0.770214	-0.289562	-0.000045
C75	C	0.776489	0.069258	-0.000055
C76	C	0.839708	0.070014	-0.000057
C77	C	0.667592	0.178171	-0.000033
C78	C	0.668358	0.241388	-0.000024
N79	N	0.672307	0.074037	-0.143851
C80	C	0.637997	0.039651	-0.436458
C81	C	0.637992	0.039654	-0.372851
O82	O	0.608799	0.010419	-0.339955
N83	N	0.672330	0.074019	-0.341036
C84	C	0.706679	0.108380	-0.372832
O85	O	0.735886	0.137610	-0.339930
C86	C	0.706687	0.108374	-0.436438
C87	C	0.672342	0.074011	-0.468250
C88	C	0.603656	0.005290	-0.468270
C89	C	0.603660	0.005288	-0.531873
C90	C	0.638006	0.039648	-0.563665
C91	C	0.672347	0.074009	-0.531853
C92	C	0.741039	0.142731	-0.468233
C93	C	0.741044	0.142722	-0.531844
C94	C	0.706700	0.108358	-0.563655
C95	C	0.706697	0.108367	-0.627248
N96	N	0.672359	0.074001	-0.659063
C97	C	0.638014	0.039642	-0.627271
C98	C	0.706661	0.108389	-0.239254
C99	C	0.706651	0.108399	-0.175649
C100	C	0.637964	0.039672	-0.175672
C101	C	0.637972	0.039666	-0.239278
C102	C	0.672323	0.074024	-0.271069
C103	C	0.638025	0.039641	-0.760842
C104	C	0.638031	0.039644	-0.824451
C105	C	0.706719	0.108369	-0.824422
C106	C	0.706711	0.108368	-0.760819
C107	C	0.672363	0.074000	-0.729031
O108	O	0.735877	0.137585	-0.660184
O109	O	0.608817	0.010411	-0.660180
N110	N	0.672376	0.074004	0.143757
H111	H	0.118488	0.073351	0.154983
Br112	Br	0.515542	0.078187	-0.129879
Br113	Br	0.375554	0.076482	-0.129886
Br114	Br	0.242293	0.074864	-0.184976
H115	H	0.610055	0.011655	-0.734968
Br116	Br	0.790622	-0.785919	-0.000035
Br117	Br	0.753248	0.155051	-0.132484
H118	H	0.118430	0.073368	-0.155067
Br119	Br	0.787637	0.189386	-0.425076
Br120	Br	-0.030906	0.071590	-0.129898
H121	H	0.770461	-0.111716	-0.000079
Br122	Br	0.787669	0.189351	-0.574984
H123	H	0.580761	-0.193774	-0.000060
H124	H	0.734632	0.136373	-0.265134
Br125	Br	0.591414	-0.006992	-0.867620
H126	H	0.734681	0.136345	-0.850319
H127	H	0.769176	-0.219466	-0.000058
H128	H	0.582056	-0.086007	-0.000055
H129	H	0.819115	-0.392037	-0.000058
Br130	Br	0.753329	0.154997	-0.717645
Br131	Br	0.845823	-0.519747	-0.000051
H132	H	0.391706	0.076656	0.099910
Br133	Br	0.591352	-0.006960	-0.132514
H134	H	0.763923	-0.658183	-0.000041
Br135	Br	0.515600	0.078150	0.129812
H136	H	0.610006	0.011684	-0.265175
Br137	Br	0.547512	-0.612515	-0.000012
Br138	Br	-0.030881	0.071550	0.129804
Br139	Br	0.242356	0.074837	0.184895
Br140	Br	-0.170876	0.069879	0.129792
H141	H	-0.154793	0.070092	-0.099991
H142	H	0.575696	-0.022696	-0.557768
H143	H	0.574220	-0.740232	-0.000025
Br144	Br	0.557033	-0.041342	-0.425136
Br145	Br	0.498866	-0.332184	0.000004
Br146	Br	0.497183	-0.472176	0.000006
