data_functionalizedCrystal
_audit_creation_method	'MofGen! by Chris Wilmer'
_symmetry_space_group_name_H-M	'P1'
_symmetry_Int_Tables_number	1
_symmetry_cell_setting	triclinic
loop_
_symmetry_equiv_pos_as_xyz
  x,y,z
_cell_length_a	21.295417
_cell_length_b	21.295418
_cell_length_c	12.594509
_cell_angle_alpha	90.040208
_cell_angle_beta	90.035198
_cell_angle_gamma	90.045515
loop_
_atom_site_label
_atom_site_type_symbol
_atom_site_fract_x
_atom_site_fract_y
_atom_site_fract_z
Zn1	Zn	-0.250324	0.962337	0.602345
Zn2	Zn	0.249676	1.462337	1.102345
Zn3	Zn	-0.355603	0.962248	0.424345
Zn4	Zn	0.144397	1.462248	0.924345
Zn5	Zn	-0.250381	0.857067	0.424315
Zn6	Zn	0.249619	1.357067	0.924315
Zn7	Zn	-0.355589	0.857031	0.602216
Zn8	Zn	0.144411	1.357031	1.102216
O9	O	-0.302974	0.909671	0.513305
O10	O	0.197026	1.409671	1.013305
O11	O	-0.264272	1.050415	0.578799
O12	O	0.235728	1.550415	1.078799
O13	O	-0.341675	0.948273	0.275395
O14	O	0.158325	1.448273	0.775395
O15	O	-0.162284	0.871084	0.447973
O16	O	0.337716	1.371084	0.947973
O17	O	-0.341620	1.050349	0.448023
O18	O	0.158380	1.550349	0.948023
O19	O	-0.162243	0.948426	0.578770
O20	O	0.337757	1.448426	1.078770
O21	O	-0.264368	0.870997	0.275373
O22	O	0.235632	1.370997	0.775373
O23	O	-0.264354	0.768973	0.447848
O24	O	0.235646	1.268973	0.947848
O25	O	-0.341596	0.871023	0.751179
O26	O	0.158404	1.371023	1.251179
O27	O	-0.341650	0.768947	0.578551
O28	O	0.158350	1.268947	1.078551
O29	O	-0.264258	0.948391	0.751274
O30	O	0.235742	1.448391	1.251274
O31	O	-0.443691	0.948238	0.447898
O32	O	0.056309	1.448238	0.947898
O33	O	-0.443680	0.870936	0.578580
O34	O	0.056320	1.370936	1.078580
C35	C	-0.466526	0.909591	0.513251
C36	C	0.033474	1.409591	1.013251
C37	C	-0.536494	0.909614	0.513264
C38	C	-0.036494	1.409614	1.013264
C39	C	-0.303007	0.746119	0.513183
C40	C	0.196993	1.246119	1.013183
C41	C	-0.303037	0.676151	0.513156
C42	C	0.196963	1.176151	1.013156
C43	C	-0.569282	0.949863	0.581419
C44	C	-0.069282	1.449863	1.081419
C45	C	-0.635024	0.949885	0.581445
C46	C	-0.135024	1.449885	1.081445
C47	C	-0.667977	0.909665	0.513297
C48	C	-0.167977	1.409665	1.013297
C49	C	-0.635181	0.869408	0.445138
C50	C	-0.135181	1.369408	0.945138
C51	C	-0.569439	0.869383	0.445121
C52	C	-0.069439	1.369383	0.945121
N53	N	-0.771244	0.904909	0.420144
N54	N	-0.271244	1.404909	0.920144
N55	N	-0.833696	0.904937	0.420163
N56	N	-0.333696	1.404937	0.920163
C57	C	-0.866051	0.909739	0.513346
C58	C	-0.366051	1.409739	1.013346
N59	N	-0.833596	0.914524	0.606510
N60	N	-0.333596	1.414524	1.106510
N61	N	-0.771139	0.914499	0.606490
N62	N	-0.271139	1.414499	1.106490
C63	C	-0.739262	0.909688	0.513309
C64	C	-0.239262	1.409688	1.013309
C65	C	-0.970125	0.950014	0.581535
C66	C	-0.470125	1.450014	1.081535
C67	C	-1.035868	0.950031	0.581563
C68	C	-0.535868	1.450031	1.081563
C69	C	-1.036023	0.869558	0.445246
C70	C	-0.536023	1.369558	0.945246
C71	C	-0.970281	0.869537	0.445227
C72	C	-0.470281	1.369537	0.945227
C73	C	-0.937335	0.909768	0.513370
C74	C	-0.437335	1.409768	1.013370
C75	C	-0.343338	0.643287	0.581111
C76	C	0.156662	1.143287	1.081111
C77	C	-0.343323	0.577545	0.581159
C78	C	0.156677	1.077545	1.081159
C79	C	-0.303012	0.544669	0.513232
C80	C	0.196988	1.044669	1.013232
C81	C	-0.262703	0.577540	0.445272
C82	C	0.237297	1.077540	0.945272
C83	C	-0.262715	0.643282	0.445234
C84	C	0.237285	1.143282	0.945234
N85	N	-0.298099	0.441396	0.420138
N86	N	0.201901	0.941396	0.920138
N87	N	-0.298091	0.378945	0.420177
N88	N	0.201909	0.878945	0.920177
C89	C	-0.302972	0.346594	0.513345
C90	C	0.197028	0.846594	1.013345
N91	N	-0.307873	0.379054	0.606474
N92	N	0.192127	0.879054	1.106474
N93	N	-0.307885	0.441511	0.606433
N94	N	0.192115	0.941511	1.106433
C95	C	-0.302994	0.473383	0.513267
C96	C	0.197006	0.973383	1.013267
C97	C	-0.343259	0.242445	0.581358
C98	C	0.156741	0.742445	1.081358
C99	C	-0.343239	0.176701	0.581408
C100	C	0.156761	0.676701	1.081408
C101	C	-0.262623	0.176698	0.445511
C102	C	0.237377	0.676698	0.945511
C103	C	-0.262639	0.242440	0.445471
C104	C	0.237361	0.742440	0.945471
C105	C	-0.302961	0.275310	0.513393
C106	C	0.197039	0.775310	1.013393
C107	C	-0.138784	0.909769	0.513383
C108	C	0.361216	1.409769	1.013383
C109	C	-0.068816	0.909810	0.513416
C110	C	0.431184	1.409810	1.013416
C111	C	-0.302919	0.909713	0.790926
C112	C	0.197081	1.409713	1.290926
C113	C	-0.302896	0.909731	0.909232
C114	C	0.197104	1.409731	1.409232
C115	C	-0.302942	1.073861	0.513429
C116	C	0.197058	1.573861	1.013429
C117	C	-0.302928	1.143829	0.513482
C118	C	0.197072	1.643829	1.013482
C119	C	-0.302984	0.909665	0.236764
C120	C	0.197016	1.409665	0.736764
C121	C	-0.302830	0.909769	0.118459
C122	C	0.197170	1.409769	0.618459
C123	C	-0.344936	0.867664	0.978434
C124	C	0.155064	1.367664	1.478434
C125	C	-0.360300	0.925099	1.049253
C126	C	0.139700	1.425099	1.549253
C127	C	-0.287493	0.852341	1.049212
C128	C	0.212507	1.352341	1.549212
C129	C	-0.318291	0.967196	0.978493
C130	C	0.181709	1.467196	1.478493
C131	C	-0.245457	0.894399	0.978446
C132	C	0.254543	1.394399	1.478446
C133	C	-0.260799	0.951874	1.049233
C134	C	0.239201	1.451874	1.549233
H135	H	-0.542460	0.982620	0.636908
H136	H	-0.042460	1.482620	1.136908
O137	O	-0.386818	0.542100	0.654430
O138	O	0.113182	1.042100	1.154430
H139	H	-0.376109	0.554778	0.738003
H140	H	0.123891	1.054778	1.238003
H141	H	-0.380542	0.832117	0.947349
H142	H	0.119458	1.332117	1.447349
H143	H	-0.376056	0.149944	0.636752
H144	H	0.123944	0.649944	1.136752
H145	H	-0.408847	0.938088	1.080355
H146	H	0.091153	1.438088	1.580355
H147	H	-1.062852	0.836806	0.389765
H148	H	-0.562852	1.336806	0.889765
H149	H	-0.661726	0.982655	0.636958
H150	H	-0.161726	1.482655	1.136958
H151	H	-0.376170	0.670046	0.636420
H152	H	0.123830	1.170046	1.136420
H153	H	-1.062563	0.982807	0.637068
H154	H	-0.562563	1.482807	1.137068
H155	H	-0.376088	0.269209	0.636669
H156	H	0.123912	0.769209	1.136669
H157	H	-0.229881	0.550768	0.389968
H158	H	0.270119	1.050768	0.889968
O159	O	-0.534076	0.825973	0.371594
O160	O	-0.034076	1.325973	0.871594
H161	H	-0.504141	0.793916	0.419151
H162	H	-0.004141	1.293916	0.919151
H163	H	-0.662014	0.836660	0.389654
H164	H	-0.162014	1.336660	0.889654
H165	H	-0.229895	0.670039	0.389896
H166	H	0.270105	1.170039	0.889896
H167	H	-0.331346	1.015761	0.947558
H168	H	0.168654	1.515761	1.447558
H169	H	-0.943299	0.982770	0.637025
H170	H	-0.443299	1.482770	1.137025
O171	O	-0.934915	0.826128	0.371706
O172	O	-0.434915	1.326128	0.871706
H173	H	-0.883666	0.832864	0.383148
H174	H	-0.383666	1.332864	0.883148
H175	H	-0.196924	0.881393	0.947320
H176	H	0.303076	1.381393	1.447320
O177	O	-0.270267	0.788032	1.090362
O178	O	0.229733	1.288032	1.590362
H179	H	-0.222948	0.774997	1.060786
H180	H	0.277052	1.274997	1.560786
H181	H	-0.225220	0.987506	1.080122
H182	H	0.274780	1.487506	1.580122
H183	H	-0.229825	0.269198	0.390129
H184	H	0.270175	0.769198	0.890129
O185	O	-0.219149	0.141249	0.372235
O186	O	0.280851	0.641249	0.872235
H187	H	-0.225914	0.090013	0.383669
H188	H	0.274086	0.590013	0.883669
