data_functionalizedCrystal
_audit_creation_method	'MofGen! by Chris Wilmer'
_symmetry_space_group_name_H-M	'P1'
_symmetry_Int_Tables_number	1
_symmetry_cell_setting	triclinic
loop_
_symmetry_equiv_pos_as_xyz
  x,y,z
_cell_length_a	14.519709
_cell_length_b	14.519709
_cell_length_c	7.088929
_cell_angle_alpha	83.763835
_cell_angle_beta	96.220807
_cell_angle_gamma	83.680145
loop_
_atom_site_label
_atom_site_type_symbol
_atom_site_fract_x
_atom_site_fract_y
_atom_site_fract_z
O1	O	1.214430	0.130341	-0.158746
O2	O	0.945950	0.144582	-0.158805
O3	O	1.087310	0.003222	-0.158757
O4	O	1.073071	0.271701	-0.158794
O5	O	1.106201	-0.015712	0.159225
O6	O	0.964841	0.125647	0.159177
O7	O	1.233322	0.111407	0.159236
Cu8	Cu	1.100806	0.116799	0.188240
Cu9	Cu	1.078465	0.139190	-0.187810
O10	O	1.091962	0.252767	0.159187
C11	C	0.921035	0.134451	0.000179
C12	C	0.818653	0.132465	0.000157
C13	C	1.096092	-0.040605	0.000234
C14	C	1.094103	-0.142986	0.000235
C15	C	1.086781	-0.517879	0.000184
C16	C	1.088814	-0.413572	0.000199
C17	C	1.090442	-0.330436	0.000211
C18	C	1.092476	-0.226122	0.000222
C19	C	0.443762	0.125140	0.000245
C20	C	0.548069	0.127174	0.000220
C21	C	0.631204	0.128802	0.000199
C22	C	0.735517	0.130836	0.000177
C23	C	1.258236	0.121538	0.000248
C24	C	1.360618	0.123525	0.000257
C25	C	1.083180	0.296594	0.000192
C26	C	1.085167	0.398976	0.000179
N27	N	1.116526	0.101049	0.452734
N28	N	1.062752	0.154933	-0.452303
H29	H	1.172268	0.045213	0.534409
C30	C	0.988547	0.229530	0.438920
C31	C	1.006656	0.317288	0.487423
C32	C	0.938324	0.386031	0.387225
H33	H	0.928848	0.217661	0.471557
H34	H	0.989624	0.228511	0.305395
H35	H	1.005570	0.318305	0.620918
H36	H	1.066342	0.329187	0.454781
H37	H	0.939401	0.385012	0.253700
H38	H	0.878629	0.374153	0.419871
H39	H	0.950606	0.445584	0.420107
