data_functionalizedCrystal
_audit_creation_method	'MofGen! by Chris Wilmer'
_symmetry_space_group_name_H-M	'P1'
_symmetry_Int_Tables_number	1
_symmetry_cell_setting	triclinic
loop_
_symmetry_equiv_pos_as_xyz
  x,y,z
_cell_length_a	19.288864
_cell_length_b	16.109298
_cell_length_c	17.766277
_cell_angle_alpha	90.000182
_cell_angle_beta	89.976755
_cell_angle_gamma	83.298218
loop_
_atom_site_label
_atom_site_type_symbol
_atom_site_fract_x
_atom_site_fract_y
_atom_site_fract_z
O1	O	0.921600	0.103715	-0.062827
O2	O	1.421600	0.603715	0.437173
O3	O	0.719373	0.117706	-0.062774
O4	O	1.219373	0.617706	0.437226
O5	O	0.826043	-0.010340	-0.062807
O6	O	1.326043	0.489660	0.437193
O7	O	0.814930	0.231760	-0.062794
O8	O	1.314930	0.731760	0.437206
O9	O	0.826024	-0.010344	0.062381
O10	O	1.326024	0.489656	0.562381
O11	O	0.719353	0.117702	0.062414
O12	O	1.219353	0.617702	0.562414
O13	O	0.921581	0.103711	0.062362
O14	O	1.421581	0.603711	0.562362
Cu15	Cu	0.820465	0.110706	0.073819
Cu16	Cu	1.320465	0.610706	0.573819
Cu17	Cu	0.820488	0.110711	-0.074231
Cu18	Cu	1.320488	0.610711	0.425769
O19	O	0.814911	0.231757	0.062395
O20	O	1.314911	0.731757	0.562395
C21	C	0.693485	0.117254	-0.000173
C22	C	1.193485	0.617254	0.499827
C23	C	0.616379	0.115902	-0.000154
C24	C	1.116379	0.615902	0.499846
C25	C	0.825583	-0.041315	-0.000216
C26	C	1.325583	0.458685	0.499784
C27	C	0.824235	-0.133606	-0.000224
C28	C	1.324235	0.366394	0.499776
C29	C	0.571861	0.191034	-0.000161
C30	C	1.071861	0.691034	0.499839
C31	C	0.499411	0.189764	-0.000170
C32	C	0.999411	0.689764	0.499830
C33	C	0.471482	0.113359	-0.000186
C34	C	0.971482	0.613359	0.499814
C35	C	0.516009	0.038218	-0.000174
C36	C	1.016009	0.538218	0.499826
C37	C	0.588458	0.039489	-0.000158
C38	C	1.088458	0.539489	0.499842
C39	C	0.363084	0.053297	-0.044073
C40	C	0.863084	0.553297	0.455927
C41	C	0.290636	0.052029	-0.044094
C42	C	0.790636	0.552029	0.455906
C43	C	0.248027	0.109433	-0.000231
C44	C	0.748027	0.609433	0.499769
C45	C	0.277872	0.168121	0.043642
C46	C	0.777872	0.668121	0.543642
C47	C	0.350321	0.169393	0.043658
C48	C	0.850321	0.669393	0.543658
C49	C	0.392924	0.111971	-0.000202
C50	C	0.892924	0.611971	0.499798
C51	C	0.124950	0.183193	-0.000247
C52	C	0.624950	0.683193	0.499753
C53	C	0.052499	0.181920	-0.000251
C54	C	0.552499	0.681920	0.499749
C55	C	0.069099	0.030372	-0.000262
C56	C	0.569099	0.530372	0.499738
C57	C	0.141548	0.031647	-0.000251
C58	C	0.641548	0.531647	0.499749
C59	C	0.169469	0.108060	-0.000247
C60	C	0.669469	0.608060	0.499753
C61	C	0.819845	-0.432658	-0.068448
C62	C	1.319845	0.067342	0.431552
C63	C	0.821121	-0.345942	-0.068453
C64	C	1.321121	0.154058	0.431547
C65	C	0.821110	-0.345932	0.068034
C66	C	1.321110	0.154068	0.568034
C67	C	0.819839	-0.432647	0.068039
C68	C	1.319839	0.067353	0.568039
C69	C	0.819203	-0.476007	-0.000204
C70	C	1.319203	0.023993	0.499796
C71	C	0.821751	-0.302576	-0.000215
C72	C	1.321751	0.197424	0.499785
C73	C	0.823135	-0.208556	-0.000220
C74	C	1.323135	0.291444	0.499780
C75	C	0.817820	-0.570034	-0.000199
C76	C	1.317820	-0.070034	0.499801
C77	C	0.947468	0.104163	-0.000241
C78	C	1.447468	0.604163	0.499759
C79	C	1.024575	0.105514	-0.000265
C80	C	1.524575	0.605514	0.499735
C81	C	0.815370	0.262732	-0.000198
C82	C	1.315370	0.762732	0.499802
C83	C	0.816718	0.355023	-0.000195
C84	C	1.316718	0.855023	0.499805
N85	N	0.820455	0.110703	0.177949
N86	N	1.320455	0.610703	0.677949
N87	N	0.820504	0.110708	-0.178362
N88	N	1.320504	0.610708	0.321638
C89	C	0.862562	0.161004	0.217321
C90	C	1.362562	0.661004	0.717321
C91	C	0.862572	0.161002	0.296123
C92	C	1.362572	0.661002	0.796123
C93	C	0.820463	0.110708	0.335550
C94	C	1.320463	0.610708	0.835550
C95	C	0.778354	0.060396	0.296168
C96	C	1.278354	0.560396	0.796168
C97	C	0.778349	0.060394	0.217368
C98	C	1.278349	0.560394	0.717368
C99	C	0.757846	0.108605	0.460425
C100	C	1.257846	0.608605	0.960425
C101	C	0.757849	0.108613	0.539224
C102	C	1.257849	0.608613	1.039224
C103	C	0.820478	0.110710	0.578596
C104	C	1.320478	0.610710	1.078596
C105	C	0.883105	0.112816	0.539160
C106	C	1.383105	0.612816	1.039160
C107	C	0.883100	0.112814	0.460359
C108	C	1.383100	0.612814	0.960359
C109	C	0.820464	0.110704	0.420995
C110	C	1.320464	0.610704	0.920995
C111	C	0.862600	0.161012	0.703414
C112	C	1.362600	0.661012	1.203414
C113	C	0.862613	0.161003	0.782217
C114	C	1.362613	0.661003	1.282217
C115	C	0.778388	0.060402	0.782261
C116	C	1.278388	0.560402	1.282261
C117	C	0.778382	0.060406	0.703459
C118	C	1.278382	0.560406	1.203459
C119	C	0.820487	0.110715	0.664040
C120	C	1.320487	0.610715	1.164040
H121	H	0.463158	0.250947	-0.000174
H122	H	0.963158	0.750947	0.499826
H123	H	0.821627	-0.310617	0.123595
H124	H	1.321627	0.189383	0.623595
H125	H	0.821645	-0.310651	-0.124024
H126	H	1.321645	0.189349	0.375976
H127	H	0.374618	0.217175	0.079384
H128	H	0.874618	0.717175	0.579384
H129	H	0.046360	-0.031839	-0.000322
H130	H	0.546360	0.468161	0.499678
C131	C	0.634039	0.104464	0.531372
C132	C	1.134039	0.604464	1.031372
C133	C	0.689010	0.106314	0.582568
C134	C	1.189010	0.606314	1.082568
H135	H	0.591540	0.103044	0.558131
H136	H	1.091540	0.603044	1.058131
H137	H	0.630810	0.153001	0.500632
H138	H	1.130810	0.653001	1.000632
H139	H	0.642482	0.056082	0.500639
H140	H	1.142482	0.556082	1.000639
H141	H	0.680569	0.154699	0.613297
H142	H	1.180569	0.654699	1.113297
H143	H	0.692238	0.057772	0.613321
H144	H	1.192238	0.557772	1.113321
C145	C	0.817896	-0.565589	-0.129047
C146	C	1.317896	-0.065589	0.370953
C147	C	0.819151	-0.480322	-0.143459
C148	C	1.319151	0.019678	0.356541
H149	H	0.817465	-0.595011	-0.175357
H150	H	1.317465	-0.095011	0.324643
H151	H	0.858162	-0.586288	-0.101024
H152	H	1.358162	-0.086288	0.398976
H153	H	0.777201	-0.573295	-0.100993
H154	H	1.277201	-0.073295	0.399007
H155	H	0.859849	-0.472616	-0.171507
H156	H	1.359849	0.027384	0.328493
H157	H	0.778881	-0.459617	-0.171493
H158	H	1.278881	0.040383	0.328507
H159	H	0.819318	-0.467943	0.123614
H160	H	1.319318	0.032057	0.623614
H161	H	0.934103	0.114528	0.571215
H162	H	1.434103	0.614528	1.071215
H163	H	0.266341	0.004245	-0.079821
H164	H	0.766341	0.504245	0.420179
H165	H	0.744103	0.019451	0.814361
H166	H	1.244103	0.519451	1.314361
H167	H	0.934093	0.114527	0.428254
H168	H	1.434093	0.614527	0.928254
H169	H	0.744091	0.019449	0.671402
H170	H	1.244091	0.519449	1.171402
H171	H	0.896850	0.201966	0.185231
H172	H	1.396850	0.701966	0.685231
C173	C	0.945811	0.260457	0.288173
C174	C	1.445811	0.760457	0.788173
C175	C	0.908856	0.216301	0.339413
C176	C	1.408856	0.716301	0.839413
H177	H	0.974381	0.294600	0.314898
H178	H	1.474381	0.794600	0.814898
H179	H	0.974286	0.222112	0.257428
H180	H	1.474286	0.722112	0.757428
H181	H	0.913828	0.294618	0.257449
H182	H	1.413828	0.794618	0.757449
H183	H	0.940840	0.182136	0.370133
H184	H	1.440840	0.682136	0.870133
H185	H	0.880380	0.254651	0.370171
H186	H	1.380380	0.754651	0.870171
C187	C	0.945858	0.260444	0.711283
C188	C	1.445858	0.760444	1.211283
C189	C	0.908888	0.216300	0.660079
C190	C	1.408888	0.716300	1.160079
H191	H	0.974437	0.294573	0.684529
H192	H	1.474437	0.794573	1.184529
H193	H	0.913889	0.294610	0.742033
H194	H	1.413889	0.794610	1.242033
H195	H	0.974331	0.222084	0.742003
H196	H	1.474331	0.722084	1.242003
H197	H	0.880412	0.254660	0.629362
H198	H	1.380412	0.754660	1.129362
H199	H	0.940861	0.182132	0.629315
H200	H	1.440861	0.682132	1.129315
H201	H	0.896906	0.201962	0.814273
H202	H	1.396906	0.701962	1.314273
H203	H	0.243181	0.214865	0.079360
H204	H	0.743181	0.714865	0.579360
H205	H	0.706842	0.106903	0.428375
H206	H	1.206842	0.606903	0.928375
H207	H	0.744069	0.019445	0.328274
H208	H	1.244069	0.519445	0.828274
C209	C	0.662006	0.028105	0.193175
C210	C	1.162006	0.528105	0.693175
C211	C	0.732054	0.005106	0.174088
C212	C	1.232054	0.505106	0.674088
H213	H	0.633424	-0.006024	0.166451
H214	H	1.133424	0.493976	0.666451
H215	H	0.655991	0.020902	0.245741
H216	H	1.155991	0.520902	0.745741
H217	H	0.649094	0.085033	0.180264
H218	H	1.149094	0.585033	0.680264
H219	H	0.744967	-0.051821	0.187003
H220	H	1.244967	0.448179	0.687003
H221	H	0.738072	0.012301	0.121510
H222	H	1.238072	0.512301	0.621510
C223	C	0.548170	0.340704	-0.000149
C224	C	1.048170	0.840704	0.499851
C225	C	0.602551	0.275026	-0.000144
C226	C	1.102551	0.775026	0.499856
H227	H	0.567120	0.392556	-0.000132
H228	H	1.067120	0.892556	0.499868
H229	H	0.520286	0.337058	-0.043810
H230	H	1.020286	0.837058	0.456190
H231	H	0.520231	0.337046	0.043502
H232	H	1.020231	0.837046	0.543502
H233	H	0.630487	0.278681	-0.043798
H234	H	1.130487	0.778681	0.456202
H235	H	0.630446	0.278674	0.043522
H236	H	1.130446	0.778674	0.543522
H237	H	0.147684	0.245413	-0.000233
H238	H	0.647684	0.745413	0.499767
H239	H	0.177796	-0.029534	-0.000249
H240	H	0.677796	0.470466	0.499751
C241	C	0.043373	0.331845	-0.000256
C242	C	0.543373	0.831845	0.499744
C243	C	0.003561	0.264512	-0.000260
C244	C	0.503561	0.764512	0.499740
H245	H	0.013158	0.382833	-0.000267
H246	H	0.513158	0.882833	0.499733
H247	H	0.071951	0.329194	0.043401
H248	H	0.571951	0.829194	0.543401
H249	H	0.072000	0.329179	-0.043911
H250	H	0.572000	0.829179	0.456089
H251	H	-0.025063	0.267175	0.043398
H252	H	0.474937	0.767175	0.543398
H253	H	-0.025029	0.267165	-0.043922
H254	H	0.474971	0.767165	0.456078
H255	H	0.493265	-0.023992	-0.000197
H256	H	0.993265	0.476008	0.499803
C257	C	0.391270	0.000689	-0.168158
C258	C	0.891270	0.500689	0.331842
C259	C	0.409920	-0.009800	-0.092296
C260	C	0.909920	0.490200	0.407704
H261	H	0.420189	-0.038259	-0.197926
H262	H	0.920189	0.461741	0.302074
H263	H	0.343859	-0.008474	-0.174442
H264	H	0.843859	0.491526	0.325558
H265	H	0.397126	0.055911	-0.183555
H266	H	0.897126	0.555911	0.316445
H267	H	0.404059	-0.065021	-0.076897
H268	H	0.904059	0.434979	0.423103
H269	H	0.457342	-0.000643	-0.086007
H270	H	0.957342	0.499357	0.413993
C271	C	0.597587	-0.110436	-0.000173
C272	C	1.097587	0.389564	0.499827
C273	C	0.637396	-0.043101	-0.000158
C274	C	1.137396	0.456899	0.499842
H275	H	0.627802	-0.161423	-0.000180
H276	H	1.127802	0.338577	0.499820
H277	H	0.568965	-0.107784	0.043477
H278	H	1.068965	0.392216	0.543477
H279	H	0.569003	-0.107772	-0.043836
H280	H	1.069003	0.392228	0.456164
H281	H	0.665977	-0.045762	0.043507
H282	H	1.165977	0.454238	0.543507
H283	H	0.666030	-0.045754	-0.043813
H284	H	1.166030	0.454246	0.456187
