data_functionalizedCrystal
_audit_creation_method	'MofGen! by Chris Wilmer'
_symmetry_space_group_name_H-M	'P1'
_symmetry_Int_Tables_number	1
_symmetry_cell_setting	triclinic
loop_
_symmetry_equiv_pos_as_xyz
  x,y,z
_cell_length_a	15.944557
_cell_length_b	16.992695
_cell_length_c	16.053802
_cell_angle_alpha	87.258926
_cell_angle_beta	92.579644
_cell_angle_gamma	87.084796
loop_
_atom_site_label
_atom_site_type_symbol
_atom_site_fract_x
_atom_site_fract_y
_atom_site_fract_z
O1	O	-1.124625	-0.097852	-0.069394
O2	O	-0.880912	-0.110314	-0.069404
O3	O	-1.001791	0.010059	-0.069392
O4	O	-1.003746	-0.218226	-0.069405
O5	O	-0.995136	0.003461	0.069466
O6	O	-0.874257	-0.116913	0.069455
O7	O	-1.117970	-0.104450	0.069464
Zn8	Zn	-0.995057	-0.111729	0.091506
Zn9	Zn	-1.003825	-0.103036	-0.091445
O10	O	-0.997091	-0.224824	0.069453
C11	C	-0.846256	-0.113095	0.000024
C12	C	-0.752906	-0.111541	0.000021
C13	C	-0.476959	-0.032283	0.000039
C14	C	-0.526821	-0.073745	0.068502
C15	C	-0.416892	-0.106001	0.000041
C16	C	-0.533365	-0.067259	-0.068401
C17	C	-0.581987	-0.108719	0.000030
C18	C	-0.465522	-0.147446	0.068561
C19	C	-0.472064	-0.140947	-0.068404
C20	C	-0.521897	-0.182464	0.000076
C21	C	-0.321785	-0.104433	0.000048
C22	C	-0.677092	-0.110293	0.000028
C23	C	-0.152626	-0.101659	0.000039
C24	C	-0.245978	-0.103181	0.000049
C25	C	-0.995950	0.035973	0.000037
C26	C	-0.988450	0.123018	0.000036
C27	C	-1.002932	-0.250737	0.000022
C28	C	-1.010432	-0.337782	0.000017
C29	C	-1.060815	0.173252	0.000040
C30	C	-1.053763	0.255040	0.000032
C31	C	-0.974346	0.286591	0.000026
C32	C	-0.901976	0.236349	0.000020
C33	C	-0.909028	0.154564	0.000022
C34	C	-0.945115	0.530191	0.000013
C35	C	-0.938068	0.611983	0.000013
C36	C	-1.089856	0.630668	0.000024
C37	C	-1.096901	0.548880	0.000031
C38	C	-1.024532	0.498646	0.000021
N39	N	-0.967136	0.370190	0.000020
N40	N	-1.031742	0.415048	0.000020
N41	N	-0.989078	-0.117662	0.216366
N42	N	-1.009810	-0.097097	-0.216305
C43	C	-1.040534	-0.066461	0.260065
C44	C	-1.036360	-0.070618	0.347471
C45	C	-0.980735	-0.125981	0.391177
C46	C	-0.929274	-0.177184	0.347472
C47	C	-0.933444	-0.173022	0.260068
C48	C	-0.962519	-0.144138	0.652585
C49	C	-0.958354	-0.148297	0.739996
C50	C	-1.065440	-0.041730	0.739989
C51	C	-1.069609	-0.037576	0.652582
C52	C	-1.018145	-0.088777	0.608885
N53	N	-0.976469	-0.130234	0.480521
N54	N	-1.022406	-0.084520	0.519543
H55	H	-0.447979	-0.169302	-0.126290
N56	N	-0.830985	0.100369	0.000021
H57	H	-0.799044	0.112956	-0.051455
H58	H	-0.794173	0.108093	0.051529
H59	H	-1.112690	0.295939	0.000037
N60	N	-1.182558	0.514851	0.000043
H61	H	-1.227332	0.559086	0.000044
H62	H	-1.191260	0.483766	-0.051431
H63	H	-1.085833	-0.021382	0.224485
H64	H	-0.891542	-0.214715	0.224489
N65	N	-0.450576	0.051810	0.000123
H66	H	-0.470470	0.077105	0.051891
H67	H	-0.387286	0.052224	-0.000438
H68	H	-1.107339	-0.000044	0.775575
H69	H	-0.913055	-0.193384	0.775577
H70	H	-0.920616	-0.185829	0.617014
H71	H	-0.550890	-0.045363	0.126386
N72	N	-1.167908	0.684847	0.000037
H73	H	-1.151393	0.741446	0.000035
H74	H	-1.204750	0.677075	-0.051437
N75	N	-1.129611	0.022129	0.605443
H76	H	-1.096923	0.058593	0.569183
H77	H	-1.170521	-0.006205	0.569221
N78	N	-0.869270	-0.236893	0.394607
H79	H	-0.874437	-0.231762	0.456609
H80	H	-0.883431	-0.291797	0.379316
H81	H	-0.436022	-0.181309	0.126505
N82	N	-0.572577	-0.022366	-0.145068
H83	H	-0.606293	-0.059000	-0.179377
H84	H	-0.610781	0.022487	-0.127527
H85	H	-0.886186	0.489300	0.000005
H86	H	-0.837312	0.262045	0.000009
N87	N	-1.091890	-0.015412	0.394592
H88	H	-1.079237	0.040976	0.379394
H89	H	-1.152803	-0.023854	0.379328
N90	N	-0.548054	-0.266631	0.000108
H91	H	-0.523100	-0.296831	0.051840
H92	H	-0.611387	-0.267140	-0.000417
H93	H	-1.125484	0.147571	0.000050
H94	H	-0.873393	0.637667	0.000022
