data_functionalizedCrystal
_audit_creation_method	'MofGen! by Chris Wilmer'
_symmetry_space_group_name_H-M	'P1'
_symmetry_Int_Tables_number	1
_symmetry_cell_setting	triclinic
loop_
_symmetry_equiv_pos_as_xyz
  x,y,z
_cell_length_a	12.827893
_cell_length_b	12.827892
_cell_length_c	19.077174
_cell_angle_alpha	92.275857
_cell_angle_beta	87.686480
_cell_angle_gamma	90.015552
loop_
_atom_site_label
_atom_site_type_symbol
_atom_site_fract_x
_atom_site_fract_y
_atom_site_fract_z
Zn1	Zn	1.621354	-0.439781	-0.397936
Zn2	Zn	1.954687	-0.106448	-0.064603
Zn3	Zn	2.288020	0.226885	0.268731
Zn4	Zn	1.614243	-0.607519	-0.280248
Zn5	Zn	1.947577	-0.274186	0.053085
Zn6	Zn	2.280910	0.059148	0.386418
Zn7	Zn	1.439591	-0.432794	-0.280258
Zn8	Zn	1.772925	-0.099460	0.053076
Zn9	Zn	2.106258	0.233873	0.386409
Zn10	Zn	1.446579	-0.614480	-0.397909
Zn11	Zn	1.779912	-0.281147	-0.064576
Zn12	Zn	2.113246	0.052187	0.268758
O13	O	1.530442	-0.523643	-0.339088
O14	O	1.863775	-0.190310	-0.005755
O15	O	2.197108	0.143023	0.327579
O16	O	1.766647	-0.462043	-0.382332
O17	O	2.099980	-0.128710	-0.048999
O18	O	2.433314	0.204623	0.284335
O19	O	1.585175	-0.578504	-0.181760
O20	O	1.918509	-0.245170	0.151574
O21	O	2.251842	0.088163	0.484907
O22	O	1.463754	-0.287485	-0.295883
O23	O	1.797087	0.045848	0.037450
O24	O	2.130420	0.379181	0.370783
O25	O	1.761423	-0.585279	-0.295867
O26	O	2.094756	-0.251946	0.037466
O27	O	2.428090	0.081387	0.370799
O28	O	1.597294	-0.292619	-0.382341
O29	O	1.930627	0.040714	-0.049008
O30	O	2.263961	0.374047	0.284326
O31	O	1.456859	-0.450134	-0.181766
O32	O	1.790193	-0.116800	0.151567
O33	O	2.123526	0.216533	0.484900
O34	O	1.294282	-0.456883	-0.295857
O35	O	1.627615	-0.123550	0.037476
O36	O	1.960948	0.209783	0.370810
O37	O	1.475663	-0.597143	-0.496403
O38	O	1.808996	-0.263810	-0.163069
O39	O	2.142330	0.069523	0.170264
O40	O	1.299415	-0.590368	-0.382295
O41	O	1.632749	-0.257034	-0.048962
O42	O	1.966082	0.076299	0.284372
O43	O	1.604070	-0.468793	-0.496423
O44	O	1.937403	-0.135460	-0.163089
O45	O	2.270736	0.197874	0.170244
O46	O	1.591951	-0.754677	-0.295841
O47	O	1.925284	-0.421344	0.037492
O48	O	2.258618	-0.088011	0.370826
O49	O	1.468769	-0.759792	-0.382286
O50	O	1.802102	-0.426458	-0.048952
O51	O	2.135435	-0.093125	0.284381
C52	C	1.258931	-0.523623	-0.339074
C53	C	1.592264	-0.190290	-0.005741
C54	C	1.925598	0.143043	0.327592
C55	C	1.142779	-0.523641	-0.339085
C56	C	1.476112	-0.190308	-0.005752
C57	C	1.809445	0.143026	0.327581
C58	C	1.093583	-0.462776	-0.381938
C59	C	1.426916	-0.129443	-0.048604
C60	C	1.760249	0.203890	0.284729
C61	C	0.973533	-0.462793	-0.381950
C62	C	1.306866	-0.129460	-0.048617
C63	C	1.640200	0.203873	0.284717
C64	C	1.530376	-0.795153	-0.339075
C65	C	1.863709	-0.461819	-0.005741
C66	C	2.197042	-0.128486	0.327592
C67	C	1.530444	-0.911307	-0.339093
C68	C	1.863778	-0.577973	-0.005759
C69	C	2.197111	-0.244640	0.327574
C70	C	1.596498	-0.965551	-0.381913
C71	C	1.929832	-0.632217	-0.048580
C72	C	2.263165	-0.298884	0.284753
C73	C	1.596571	-1.085602	-0.381933
C74	C	1.929904	-0.752269	-0.048599
C75	C	2.263237	-0.418936	0.284734
C76	C	1.803013	-0.523664	-0.339102
C77	C	2.136346	-0.190331	-0.005768
C78	C	2.469679	0.143002	0.327565
C79	C	1.919166	-0.523673	-0.339108
C80	C	2.252500	-0.190340	-0.005774
C81	C	2.585833	0.142993	0.327559
C82	C	1.541439	-0.534524	-0.522664
C83	C	1.874772	-0.201191	-0.189331
C84	C	2.208106	0.132143	0.144002
C85	C	1.546125	-0.539161	-0.600893
C86	C	1.879459	-0.205827	-0.267560
C87	C	2.212792	0.127506	0.065773
C88	C	1.530538	-0.251075	-0.339116
C89	C	1.863871	0.082258	-0.005783
C90	C	2.197204	0.415592	0.327550
C91	C	1.530578	-0.134923	-0.339128
C92	C	1.863912	0.198411	-0.005795
C93	C	2.197245	0.531744	0.327538
C94	C	1.481522	-0.474505	-0.637649
C95	C	1.814856	-0.141172	-0.304315
C96	C	2.148189	0.192162	0.029018
C97	C	1.485922	-0.478870	-0.711154
C98	C	1.819255	-0.145537	-0.377820
C99	C	2.152588	0.187796	-0.044487
C100	C	1.554930	-0.547887	-0.747902
C101	C	1.888263	-0.214554	-0.414568
C102	C	2.221597	0.118780	-0.081235
C103	C	1.619535	-0.612550	-0.711141
C104	C	1.952869	-0.279216	-0.377808
C105	C	2.286202	0.054117	-0.044474
C106	C	1.615130	-0.608189	-0.637638
C107	C	1.948463	-0.274856	-0.304304
C108	C	2.281797	0.058478	0.029029
C109	C	1.575264	-0.568101	-0.967733
C110	C	1.908597	-0.234767	-0.634400
C111	C	2.241931	0.098566	-0.301066
C112	C	1.579667	-0.572454	-1.041241
C113	C	1.913000	-0.239121	-0.707908
C114	C	2.246333	0.094212	-0.374575
C115	C	1.446051	-0.438776	-1.041249
C116	C	1.779384	-0.105443	-0.707915
C117	C	2.112718	0.227891	-0.374582
C118	C	1.441656	-0.434417	-0.967744
C119	C	1.774990	-0.101083	-0.634411
C120	C	2.108323	0.232250	-0.301077
C121	C	1.506258	-0.499083	-0.930990
C122	C	1.839591	-0.165750	-0.597657
C123	C	2.172924	0.167583	-0.264323
N124	N	1.559431	-0.552348	-0.823035
N125	N	1.892764	-0.219015	-0.489702
N126	N	2.226097	0.114318	-0.156369
N127	N	1.501751	-0.494627	-0.855858
N128	N	1.835084	-0.161293	-0.522524
N129	N	2.168418	0.172040	-0.189191
C130	C	1.519548	-0.512730	-0.156226
C131	C	1.852881	-0.179396	0.177108
C132	C	2.186214	0.153937	0.510441
C133	C	1.515064	-0.507799	-0.077997
C134	C	1.848397	-0.174465	0.255337
C135	C	2.181730	0.158868	0.588670
H136	H	1.096021	-0.575759	-0.302406
H137	H	1.429354	-0.242426	0.030928
H138	H	1.762688	0.090907	0.364261
Br139	Br	1.702801	-0.695947	-0.587754
Br140	Br	2.036134	-0.362614	-0.254421
Br141	Br	2.369467	-0.029281	0.078912
Br142	Br	1.690841	-1.163330	-0.443034
Br143	Br	2.024175	-0.829996	-0.109700
Br144	Br	2.357508	-0.496663	0.223633
H145	H	1.652993	-0.923116	-0.418562
H146	H	1.986326	-0.589783	-0.085229
H147	H	2.319660	-0.256450	0.248104
H148	H	1.474028	-1.088291	-0.302463
H149	H	1.807361	-0.754958	0.030870
H150	H	2.140694	-0.421624	0.364203
Br151	Br	1.436264	-0.982027	-0.278016
Br152	Br	1.769597	-0.648694	0.055317
Br153	Br	2.102930	-0.315361	0.388650
Br154	Br	1.387872	-0.380827	-0.587784
Br155	Br	1.721205	-0.047494	-0.254450
Br156	Br	2.054538	0.285840	0.078883
H157	H	1.433311	-0.426225	-0.741076
H158	H	1.766645	-0.092891	-0.407743
H159	H	2.099978	0.240442	-0.074410
H160	H	1.635866	-0.628657	-1.071160
H161	H	1.969199	-0.295324	-0.737826
H162	H	2.302532	0.038009	-0.404493
H163	H	1.385460	-0.378219	-0.937829
H164	H	1.718793	-0.044886	-0.604495
H165	H	2.052126	0.288448	-0.271162
H166	H	1.675718	-0.668750	-0.741067
H167	H	2.009051	-0.335416	-0.407734
H168	H	2.342385	-0.002083	-0.074401
Br169	Br	1.171504	-0.375894	-0.443070
Br170	Br	1.504837	-0.042560	-0.109737
Br171	Br	1.838171	0.290773	0.223596
Br172	Br	0.903010	-0.375946	-0.443108
Br173	Br	1.236343	-0.042613	-0.109774
Br174	Br	1.569676	0.290720	0.223559
Br175	Br	1.662944	-0.655857	-0.917862
Br176	Br	1.996277	-0.322524	-0.584528
Br177	Br	2.329611	0.010810	-0.251195
Br178	Br	0.989684	-0.610541	-0.277960
Br179	Br	1.323017	-0.277208	0.055374
Br180	Br	1.656350	0.056125	0.388707
Br181	Br	1.358380	-0.351021	-1.091133
Br182	Br	1.691714	-0.017688	-0.757799
Br183	Br	2.025047	0.315645	-0.424466
