data_functionalizedCrystal
_audit_creation_method	'MofGen! by Chris Wilmer'
_symmetry_space_group_name_H-M	'P1'
_symmetry_Int_Tables_number	1
_symmetry_cell_setting	triclinic
loop_
_symmetry_equiv_pos_as_xyz
  x,y,z
_cell_length_a	17.699077
_cell_length_b	17.019294
_cell_length_c	16.176319
_cell_angle_alpha	86.114226
_cell_angle_beta	89.993140
_cell_angle_gamma	83.337580
loop_
_atom_site_label
_atom_site_type_symbol
_atom_site_fract_x
_atom_site_fract_y
_atom_site_fract_z
O1	O	1.004150	0.099735	-0.075834
O2	O	1.504150	0.599735	0.424166
O3	O	0.783780	0.112718	-0.076762
O4	O	1.283780	0.612718	0.423238
O5	O	0.900112	-0.008619	-0.068119
O6	O	1.400112	0.491381	0.431881
O7	O	0.887818	0.221071	-0.084478
O8	O	1.387818	0.721071	0.415522
O9	O	0.900096	-0.008626	0.069375
O10	O	1.400096	0.491374	0.569375
O11	O	0.783764	0.112710	0.060731
O12	O	1.283764	0.612710	0.560731
O13	O	1.004134	0.099727	0.061660
O14	O	1.504134	0.599727	0.561660
Cu15	Cu	0.893948	0.106218	0.073750
Cu16	Cu	1.393948	0.606218	0.573750
Cu17	Cu	0.893967	0.106227	-0.088852
Cu18	Cu	1.393967	0.606227	0.411148
O19	O	0.887802	0.221064	0.053016
O20	O	1.387802	0.721064	0.553016
C21	C	0.755575	0.112250	-0.007983
C22	C	1.255575	0.612250	0.492017
C23	C	0.671556	0.110857	-0.007885
C24	C	1.171556	0.610857	0.492115
C25	C	0.632079	0.110196	0.067110
C26	C	1.132079	0.610196	0.567110
C27	C	0.553136	0.108874	0.067205
C28	C	1.053136	0.608874	0.567205
C29	C	0.513669	0.108219	-0.007696
C30	C	1.013669	0.608219	0.492304
C31	C	0.553152	0.108877	-0.082697
C32	C	1.053152	0.608877	0.417303
C33	C	0.632094	0.110193	-0.082791
C34	C	1.132094	0.610193	0.417209
C35	C	0.234785	0.103569	-0.082321
C36	C	0.734785	0.603569	0.417679
C37	C	0.155836	0.102255	-0.082222
C38	C	0.655836	0.602255	0.417778
C39	C	0.155826	0.102250	0.067676
C40	C	0.655826	0.602250	0.567676
C41	C	0.234769	0.103566	0.067582
C42	C	0.734769	0.603566	0.567582
C43	C	0.274245	0.104220	-0.007418
C44	C	0.774245	0.604220	0.492582
C45	C	0.359844	0.105651	-0.007520
C46	C	0.859844	0.605651	0.492480
C47	C	0.428070	0.106793	-0.007596
C48	C	0.928070	0.606793	0.492404
C49	C	0.899638	-0.038011	0.002720
C50	C	1.399638	0.461989	0.502720
C51	C	0.898239	-0.125579	0.008951
C52	C	1.398239	0.374421	0.508951
C53	C	0.897592	-0.166710	-0.063069
C54	C	1.397592	0.333290	0.436931
C55	C	0.896273	-0.248988	-0.057211
C56	C	1.396273	0.251012	0.442789
C57	C	0.895606	-0.290135	0.020667
C58	C	1.395606	0.209865	0.520667
C59	C	0.896251	-0.248998	0.092692
C60	C	1.396251	0.251002	0.592692
C61	C	0.897564	-0.166720	0.086834
C62	C	1.397564	0.333280	0.586834
C63	C	0.891634	-0.538561	0.042106
C64	C	1.391634	-0.038561	0.542106
C65	C	0.890322	-0.620845	0.047959
C66	C	1.390322	-0.120845	0.547959
C67	C	0.890343	-0.620829	-0.101945
C68	C	1.390343	-0.120829	0.398055
C69	C	0.891662	-0.538550	-0.107797
C70	C	1.391662	-0.038550	0.392203
C71	C	0.892302	-0.497420	-0.035772
C72	C	1.392302	0.002580	0.464228
C73	C	0.894260	-0.374238	0.026657
C74	C	1.394260	0.125762	0.526657
C75	C	0.893643	-0.413318	-0.041762
C76	C	1.393643	0.086682	0.458238
C77	C	1.032340	0.100195	-0.007122
C78	C	1.532340	0.600195	0.492878
C79	C	1.116359	0.101589	-0.007225
C80	C	1.616359	0.601589	0.492775
C81	C	0.888277	0.250456	-0.017824
C82	C	1.388277	0.750456	0.482176
C83	C	0.889675	0.338024	-0.024061
C84	C	1.389675	0.838024	0.475939
N85	N	0.893940	0.106211	0.188116
N86	N	1.393940	0.606211	0.688116
N87	N	0.893980	0.106228	-0.203218
N88	N	1.393980	0.606228	0.296782
C89	C	0.945467	0.052505	0.235206
C90	C	1.445467	0.552505	0.735206
C91	C	0.945471	0.052504	0.321753
C92	C	1.445471	0.552504	0.821753
C93	C	0.893951	0.106214	0.361208
C94	C	1.393951	0.606214	0.861208
C95	C	0.842418	0.159922	0.314112
C96	C	1.342418	0.659922	0.814112
C97	C	0.842411	0.159919	0.227566
C98	C	1.342411	0.659919	0.727566
C99	C	0.842444	0.159937	0.663139
C100	C	1.342444	0.659937	1.163139
C101	C	0.842456	0.159938	0.749690
C102	C	1.342456	0.659938	1.249690
C103	C	0.945504	0.052523	0.757325
C104	C	1.445504	0.552523	1.257325
C105	C	0.945497	0.052519	0.670780
C106	C	1.445497	0.552519	1.170780
C107	C	0.893962	0.106224	0.623691
C108	C	1.393962	0.606224	1.123691
C109	C	0.893957	0.106224	0.529847
C110	C	1.393957	0.606224	1.029847
C111	C	0.893958	0.106219	0.455050
C112	C	1.393958	0.606219	0.955050
H113	H	0.123675	0.101713	0.128745
H114	H	0.623675	0.601713	0.628745
O115	O	0.898059	-0.126705	0.156766
O116	O	1.398059	0.373295	0.656766
C117	C	0.833307	-0.070042	0.157197
C118	C	1.333307	0.429958	0.657197
H119	H	0.787127	-0.088508	0.115978
H120	H	1.287127	0.411492	0.615978
H121	H	0.811318	-0.066067	0.223201
H122	H	1.311318	0.433933	0.723201
H123	H	0.849116	-0.009733	0.132761
H124	H	1.349116	0.490267	0.632761
O125	O	0.995503	0.000232	0.367407
O126	O	1.495503	0.500232	0.867407
C127	C	0.983288	-0.077846	0.351846
C128	C	1.483288	0.422154	0.851846
H129	H	0.954104	-0.077715	0.289009
H130	H	1.454104	0.422285	0.789009
H131	H	1.040226	-0.116759	0.351640
H132	H	1.540226	0.383241	0.851640
H133	H	0.945658	-0.102201	0.402305
H134	H	1.445658	0.397799	0.902305
O135	O	0.892085	-0.498527	-0.183437
O136	O	1.392085	0.001473	0.316563
C137	C	0.827252	-0.441966	-0.191879
C138	C	1.327252	0.058034	0.308121
H139	H	0.805711	-0.426582	-0.127869
H140	H	1.305711	0.073418	0.372131
H141	H	0.842785	-0.386149	-0.227692
H142	H	1.342785	0.113851	0.272308
H143	H	0.780836	-0.467430	-0.226902
H144	H	1.280836	0.032570	0.273098
H145	H	0.892170	-0.505085	0.100754
H146	H	1.392170	-0.005085	0.600754
H147	H	0.123705	0.101721	-0.143219
H148	H	0.623705	0.601721	0.356781
O149	O	0.273004	0.104239	-0.155249
O150	O	0.773004	0.604239	0.344751
C151	C	0.221241	0.103359	-0.221334
C152	C	0.721241	0.603359	0.278666
H153	H	0.161806	0.127391	-0.201070
H154	H	0.661806	0.627391	0.298930
H155	H	0.239206	0.142020	-0.276512
H156	H	0.739206	0.642020	0.223488
H157	H	0.220854	0.039959	-0.239858
H158	H	0.720854	0.539959	0.260142
O159	O	0.889599	-0.660688	-0.171960
O160	O	1.389599	-0.160688	0.328040
C161	C	0.824388	-0.631527	-0.219606
C162	C	1.324388	-0.131527	0.280394
H163	H	0.803512	-0.568764	-0.202766
H164	H	1.303512	-0.068764	0.297234
H165	H	0.839157	-0.630753	-0.288233
H166	H	1.339157	-0.130753	0.211767
H167	H	0.777765	-0.671480	-0.206350
H168	H	1.277765	-0.171480	0.293650
H169	H	0.800451	0.203651	0.189226
H170	H	1.300451	0.703651	0.689226
H171	H	0.894181	-0.379812	-0.105170
H172	H	1.394181	0.120188	0.394830
O173	O	0.514696	0.108273	-0.155386
O174	O	1.014696	0.608273	0.344614
C175	C	0.436555	0.106952	-0.139223
C176	C	0.936555	0.606952	0.360777
H177	H	0.422605	0.131734	-0.076575
H178	H	0.922605	0.631734	0.423425
H179	H	0.401710	0.144738	-0.189782
H180	H	0.901710	0.644738	0.310218
H181	H	0.422164	0.043318	-0.138243
H182	H	0.922164	0.543318	0.361757
O183	O	0.995572	0.000269	0.632588
O184	O	1.495572	0.500269	1.132588
C185	C	1.041066	-0.047123	0.692709
C186	C	1.541066	0.452877	1.192709
H187	H	1.010044	-0.047970	0.754471
H188	H	1.510044	0.452030	1.254471
H189	H	1.052678	-0.110138	0.672197
H190	H	1.552678	0.389862	1.172197
H191	H	1.097261	-0.021585	0.700077
H192	H	1.597261	0.478415	1.200077
O193	O	0.670323	0.110874	-0.155719
O194	O	1.170323	0.610874	0.344281
C195	C	0.618565	0.109996	-0.221809
C196	C	1.118565	0.609996	0.278191
H197	H	0.559127	0.134020	-0.201547
H198	H	1.059127	0.634020	0.298453
H199	H	0.636530	0.148664	-0.276981
H200	H	1.136530	0.648664	0.223019
H201	H	0.618185	0.046597	-0.240340
H202	H	1.118185	0.546597	0.259660
H203	H	0.898140	-0.133214	-0.126486
H204	H	1.398140	0.366786	0.373514
O205	O	0.792339	0.211987	0.352537
O206	O	1.292339	0.711987	0.852537
C207	C	0.745690	0.169803	0.405606
C208	C	1.245690	0.669803	0.905606
H209	H	0.775905	0.108035	0.422969
H210	H	1.275905	0.608035	0.922969
H211	H	0.733688	0.202747	0.464118
H212	H	1.233688	0.702747	0.964118
H213	H	0.689758	0.164516	0.372645
H214	H	1.189758	0.664516	0.872645
H215	H	0.800499	0.203676	0.781813
H216	H	1.300499	0.703676	1.281813
H217	H	0.800483	0.203667	0.624806
H218	H	1.300483	0.703667	1.124806
O219	O	0.893487	-0.414161	0.102321
O220	O	1.393487	0.085839	0.602321
C221	C	0.828299	-0.384996	0.145862
C222	C	1.328299	0.115004	0.645862
H223	H	0.782867	-0.356032	0.099956
H224	H	1.282867	0.143968	0.599956
H225	H	0.805443	-0.436074	0.183486
H226	H	1.305443	0.063926	0.683486
H227	H	0.843874	-0.339299	0.189351
H228	H	1.343874	0.160701	0.689351
O229	O	0.670301	0.110795	0.139948
O230	O	1.170301	0.610795	0.639948
C231	C	0.618523	0.109946	0.206159
C232	C	1.118523	0.609946	0.706159
H233	H	0.565414	0.084046	0.186029
H234	H	1.065414	0.584046	0.686029
H235	H	0.646174	0.072038	0.261278
H236	H	1.146174	0.572038	0.761278
H237	H	0.602112	0.173065	0.224711
H238	H	1.102112	0.673065	0.724711
H239	H	0.520999	0.108323	0.128275
H240	H	1.020999	0.608323	0.628275
H241	H	0.266898	0.104103	0.128574
H242	H	0.766898	0.604103	0.628574
O243	O	0.889639	-0.660690	0.123679
O244	O	1.389639	-0.160690	0.623679
C245	C	0.890503	-0.606748	0.185995
C246	C	1.390503	-0.106748	0.685995
H247	H	0.867491	-0.544783	0.159614
H248	H	1.367491	-0.044783	0.659614
H249	H	0.853387	-0.625451	0.239741
H250	H	1.353387	-0.125451	0.739741
H251	H	0.951329	-0.606390	0.209023
H252	H	1.451329	-0.106390	0.709023
H253	H	0.895750	-0.282474	-0.115857
H254	H	1.395750	0.217526	0.384143
O255	O	0.895571	-0.288840	0.168409
O256	O	1.395571	0.211160	0.668409
C257	C	0.896442	-0.234892	0.230719
C258	C	1.396442	0.265108	0.730719
H259	H	0.873429	-0.172929	0.204334
H260	H	1.373429	0.327071	0.704334
H261	H	0.859329	-0.253591	0.284470
H262	H	1.359329	0.246409	0.784470
H263	H	0.957269	-0.234534	0.253740
H264	H	1.457269	0.265466	0.753740
H265	H	0.987424	0.008772	0.203087
H266	H	1.487424	0.508772	0.703087
H267	H	0.987465	0.008790	0.795674
H268	H	1.487465	0.508790	1.295674
