data_functionalizedCrystal
_audit_creation_method	'MofGen! by Chris Wilmer'
_symmetry_space_group_name_H-M	'P1'
_symmetry_Int_Tables_number	1
_symmetry_cell_setting	triclinic
loop_
_symmetry_equiv_pos_as_xyz
  x,y,z
_cell_length_a	13.897449
_cell_length_b	12.827893
_cell_length_c	12.827885
_cell_angle_alpha	90.019272
_cell_angle_beta	89.976701
_cell_angle_gamma	89.997220
loop_
_atom_site_label
_atom_site_type_symbol
_atom_site_fract_x
_atom_site_fract_y
_atom_site_fract_z
Zn1	Zn	0.383964	1.597762	0.590896
Zn2	Zn	0.545290	1.597695	0.416176
Zn3	Zn	0.384011	1.423004	0.416169
Zn4	Zn	0.545219	1.423028	0.590876
O5	O	0.464621	1.510372	0.503529
O6	O	0.405374	1.743989	0.567730
O7	O	0.523946	1.574484	0.269939
O8	O	0.249024	1.446204	0.439353
O9	O	0.523900	1.743940	0.439364
O10	O	0.248989	1.574598	0.567724
O11	O	0.405455	1.446139	0.269934
O12	O	0.405386	1.276771	0.439334
O13	O	0.523779	1.446245	0.737115
O14	O	0.523825	1.276789	0.567690
O15	O	0.405305	1.574622	0.737129
O16	O	0.680263	1.574508	0.439345
O17	O	0.680210	1.446180	0.567696
C18	C	0.464603	1.238862	0.503509
C19	C	0.464619	1.122709	0.503526
C20	C	0.406073	1.070949	0.567144
C21	C	0.406088	0.950898	0.567162
C22	C	0.213028	1.510406	0.503540
C23	C	0.105814	1.510420	0.503544
C24	C	-0.090481	1.510452	0.503577
C25	C	0.018752	1.510437	0.503562
C26	C	0.715236	1.510368	0.503542
C27	C	0.822449	1.510461	0.503582
C28	C	0.464529	1.510443	0.776100
C29	C	0.464489	1.510474	0.892253
C30	C	0.464640	1.782942	0.503550
C31	C	0.464648	1.899096	0.503559
C32	C	0.464644	1.510362	0.232019
C33	C	0.464412	1.510534	0.115867
C34	C	0.405853	1.574005	0.944045
C35	C	0.405811	1.574038	1.064095
H36	H	0.514752	1.078147	0.449071
H37	H	0.355967	0.906385	0.621632
H38	H	0.355614	1.628434	1.108635
Cl39	Cl	0.541930	1.426555	1.047113
Cl40	Cl	0.542047	0.967807	0.419465
Cl41	Cl	0.328662	1.139741	0.651217
Cl42	Cl	0.328368	1.657923	0.875294
Cl43	Cl	0.541945	1.426524	0.961004
