data_functionalizedCrystal
_audit_creation_method	'MofGen! by Chris Wilmer'
_symmetry_space_group_name_H-M	'P1'
_symmetry_Int_Tables_number	1
_symmetry_cell_setting	triclinic
loop_
_symmetry_equiv_pos_as_xyz
  x,y,z
_cell_length_a	10.654550
_cell_length_b	15.500227
_cell_length_c	10.654560
_cell_angle_alpha	92.857554
_cell_angle_beta	95.512905
_cell_angle_gamma	92.875446
loop_
_atom_site_label
_atom_site_type_symbol
_atom_site_fract_x
_atom_site_fract_y
_atom_site_fract_z
O1	O	1.673645	0.072012	-0.170613
O2	O	1.308166	0.071998	-0.187420
O3	O	1.499301	0.072003	0.003722
O4	O	1.482509	0.072006	-0.361755
O5	O	1.487702	-0.071886	-0.007831
O6	O	1.296567	-0.071891	-0.198973
O7	O	1.662046	-0.071877	-0.182166
Cu8	Cu	1.478247	-0.085022	-0.191624
Cu9	Cu	1.491964	0.085143	-0.177962
O10	O	1.470910	-0.071883	-0.373308
C11	C	1.255568	0.000051	-0.191963
C12	C	1.116124	0.000046	-0.188271
N13	N	1.468608	-0.204708	-0.201233
C14	C	1.036644	0.000060	-0.300811
C15	C	0.905624	0.000075	-0.297333
C16	C	0.933578	0.000066	-0.068766
C17	C	1.064595	0.000045	-0.072245
C18	C	1.088173	0.000061	-0.416837
C19	C	1.008692	0.000075	-0.529386
C20	C	0.877672	0.000090	-0.525909
C21	C	0.826134	0.000091	-0.409882
C22	C	1.549628	-0.249982	-0.120270
C23	C	1.542350	-0.340555	-0.127549
C24	C	1.454057	-0.385852	-0.215798
C25	C	1.373029	-0.340571	-0.296765
C26	C	1.380302	-0.250000	-0.289479
C27	C	1.427858	-0.659320	-0.242024
C28	C	1.420593	-0.749897	-0.249306
C29	C	1.589913	-0.749875	-0.080088
C30	C	1.597183	-0.659302	-0.072815
C31	C	1.516151	-0.614029	-0.153777
C32	C	1.446619	-0.478432	-0.223243
C33	C	1.523584	-0.521450	-0.146325
C34	C	1.714643	0.000071	-0.177623
C35	C	1.854088	0.000082	-0.181314
C36	C	1.492266	0.000060	0.044743
C37	C	1.488569	0.000064	0.184186
N38	N	1.501613	0.204828	-0.168343
C39	C	1.477945	0.000062	-0.414329
C40	C	1.481643	0.000064	-0.553771
C41	C	1.477055	-0.078370	0.374427
C42	C	1.480514	-0.078371	0.243404
C43	C	1.493153	0.078505	0.255997
C44	C	1.489685	0.078504	0.387016
C45	C	1.469013	-0.156811	0.433640
C46	C	1.464426	-0.235252	0.361838
C47	C	1.467885	-0.235252	0.230815
C48	C	1.475930	-0.156812	0.171594
H49	H	1.050663	0.000068	-0.623852
H50	H	0.719446	0.000089	-0.407060
O51	O	0.800646	0.000139	-0.635346
C52	C	0.874226	0.000112	-0.738494
H53	H	0.973923	0.027339	-0.705279
H54	H	0.878273	-0.068919	-0.779552
C55	C	0.692012	0.023112	-0.881368
C56	C	0.814458	0.056559	-0.840575
H57	H	0.655143	0.057928	-0.944340
H58	H	0.642438	0.023127	-0.811877
H59	H	0.695401	-0.034413	-0.915575
H60	H	0.811066	0.114079	-0.806355
H61	H	0.864031	0.056556	-0.910063
O62	O	1.463204	-0.311422	0.160983
C63	C	1.356267	-0.316117	0.071531
H64	H	1.282917	-0.271612	0.105313
H65	H	1.385135	-0.295043	-0.023077
C66	C	1.389631	-0.464492	0.014492
C67	C	1.299537	-0.409836	0.055989
H68	H	1.354639	-0.522302	0.004900
H69	H	1.461680	-0.461329	0.074754
H70	H	1.413681	-0.446920	-0.064343
H71	H	1.275501	-0.427401	0.134830
H72	H	1.227482	-0.413004	-0.004260
O73	O	1.500795	0.154644	0.198317
C74	C	1.394579	0.159339	0.109664
H75	H	1.353421	0.091234	0.080140
H76	H	1.320327	0.198033	0.153980
C77	C	1.485005	0.287841	0.029103
C78	C	1.434461	0.204193	-0.007166
H79	H	1.509603	0.315513	-0.042961
H80	H	1.556563	0.284681	0.088833
H81	H	1.423120	0.320076	0.066035
H82	H	1.496350	0.171957	-0.044082
H83	H	1.362913	0.207349	-0.066905
H84	H	1.466199	-0.156819	0.540325
O85	O	1.141633	0.000077	0.037195
C86	C	1.068060	0.000070	0.140348
H87	H	0.972774	0.027324	0.111517
H88	H	1.052835	-0.068959	0.170319
C89	C	1.254007	0.023017	0.286897
C90	C	1.136979	0.056498	0.251489
H91	H	1.296520	0.057822	0.355457
H92	H	1.303576	0.023019	0.217402
H93	H	1.241303	-0.034506	0.311864
H94	H	1.149685	0.114016	0.226508
H95	H	1.087413	0.056507	0.320983
O96	O	1.349338	-0.615259	-0.320733
C97	C	1.421481	-0.562869	-0.394648
H98	H	1.520401	-0.549275	-0.344436
H99	H	1.428037	-0.597774	-0.490347
C100	C	1.236310	-0.493550	-0.475616
C101	C	1.357802	-0.476848	-0.413940
H102	H	1.197028	-0.440489	-0.487522
H103	H	1.187704	-0.528848	-0.425822
H104	H	1.241789	-0.522639	-0.555358
H105	H	1.352320	-0.447769	-0.334194
H106	H	1.406406	-0.441542	-0.463721
H107	H	1.493411	0.142373	0.445478
H108	H	1.301134	-0.377458	-0.368615
O109	O	1.635432	-0.206118	-0.034434
C110	C	1.705399	-0.265505	0.035444
H111	H	1.648711	-0.330077	0.032145
H112	H	1.798276	-0.275116	-0.006976
C113	C	1.802570	-0.150859	0.177586
C114	C	1.732939	-0.230165	0.173543
H115	H	1.819564	-0.129059	0.262771
H116	H	1.755435	-0.110847	0.130506
H117	H	1.879959	-0.158879	0.142229
H118	H	1.655546	-0.222142	0.208884
H119	H	1.780061	-0.270174	0.220633
H120	H	0.891606	0.000081	0.025699
H121	H	1.194855	0.000053	-0.419681
H122	H	1.608321	-0.377417	-0.061622
H123	H	1.655884	-0.786744	-0.014171
H124	H	1.374732	-0.515321	-0.295099
H125	H	1.669077	-0.622422	-0.000956
O126	O	1.301547	-0.206152	-0.368261
C127	C	1.222037	-0.265551	-0.447696
H128	H	1.268356	-0.330103	-0.454789
H129	H	1.127615	-0.275207	-0.406822
C130	C	1.143276	-0.150910	-0.571385
C131	C	1.200170	-0.230192	-0.580105
H132	H	1.129782	-0.129098	-0.653060
H133	H	1.196839	-0.110890	-0.517866
H134	H	1.064597	-0.158967	-0.537319
H135	H	1.278854	-0.222131	-0.614155
H136	H	1.146620	-0.270209	-0.633633
H137	H	1.348692	-0.786774	-0.321174
O138	O	1.609219	-0.477509	-0.060412
C139	C	1.585950	-0.499692	0.062309
H140	H	1.483392	-0.524605	0.061838
H141	H	1.651007	-0.552265	0.094308
C142	C	1.737152	-0.388656	0.154354
C143	C	1.611185	-0.419248	0.153777
H144	H	1.752723	-0.339036	0.210778
H145	H	1.752833	-0.373712	0.071675
H146	H	1.791351	-0.432474	0.181016
H147	H	1.556989	-0.375434	0.127100
H148	H	1.595496	-0.434182	0.236454
H149	H	1.457865	-0.299115	0.410063
H150	H	1.478723	-0.156818	0.064902
