data_functionalizedCrystal
_audit_creation_method	'MofGen! by Chris Wilmer'
_symmetry_space_group_name_H-M	'P1'
_symmetry_Int_Tables_number	1
_symmetry_cell_setting	triclinic
loop_
_symmetry_equiv_pos_as_xyz
  x,y,z
_cell_length_a	19.121102
_cell_length_b	21.295418
_cell_length_c	21.295411
_cell_angle_alpha	89.975438
_cell_angle_beta	87.545010
_cell_angle_gamma	87.582679
loop_
_atom_site_label
_atom_site_type_symbol
_atom_site_fract_x
_atom_site_fract_y
_atom_site_fract_z
Zn1	Zn	1.073683	-0.291758	-0.396931
Zn2	Zn	1.073595	-0.397019	-0.291660
Zn3	Zn	0.956239	-0.287273	-0.287191
Zn4	Zn	0.956192	-0.392493	-0.392409
O5	O	1.014927	-0.342136	-0.342048
O6	O	1.171955	-0.309492	-0.386729
O7	O	1.058010	-0.382479	-0.202977
O8	O	0.971874	-0.199781	-0.301770
O9	O	1.171890	-0.386827	-0.309388
O10	O	1.058160	-0.203076	-0.382395
O11	O	0.971789	-0.301849	-0.199694
O12	O	0.857949	-0.297460	-0.297385
O13	O	0.971795	-0.379113	-0.481099
O14	O	0.857915	-0.374765	-0.374688
O15	O	1.058115	-0.305103	-0.484421
O16	O	1.057965	-0.484506	-0.305003
O17	O	0.971710	-0.481181	-0.379022
C18	C	0.832448	-0.335135	-0.335062
C19	C	0.754382	-0.332155	-0.332088
C20	C	1.014842	-0.505684	-0.342021
C21	C	1.014870	-0.575654	-0.342034
C22	C	0.717708	-0.371065	-0.370875
C23	C	0.644357	-0.368256	-0.368084
C24	C	0.607682	-0.326542	-0.326502
C25	C	0.644362	-0.287628	-0.287713
C26	C	0.717711	-0.290434	-0.290508
C27	C	0.386214	-0.316052	-0.316056
C28	C	0.312859	-0.313251	-0.313263
C29	C	0.312859	-0.393878	-0.393635
C30	C	0.386210	-0.396683	-0.396423
C31	C	0.422884	-0.357767	-0.357637
C32	C	0.532706	-0.323672	-0.323647
C33	C	0.497859	-0.360634	-0.360496
C34	C	1.059943	-1.076779	-0.384113
C35	C	1.059923	-1.011036	-0.384103
C36	C	1.015023	-0.976499	-0.342091
C37	C	0.970153	-1.007711	-0.300075
C38	C	0.970180	-1.073453	-0.300083
N39	N	0.953505	-0.870973	-0.334851
N40	N	0.953482	-0.808521	-0.334847
C41	C	1.014940	-0.778421	-0.342064
N42	N	1.076425	-0.813133	-0.349297
N43	N	1.076447	-0.875591	-0.349304
C44	C	1.014989	-0.905212	-0.342077
C45	C	1.059789	-0.675931	-0.384062
C46	C	1.059769	-0.610186	-0.384047
C47	C	0.969993	-0.606862	-0.300023
C48	C	0.970019	-0.672605	-0.300035
C49	C	1.014915	-0.707136	-0.342058
C50	C	1.198119	-0.349165	-0.349061
C51	C	1.276185	-0.352160	-0.352050
C52	C	1.014960	-0.342104	-0.506239
C53	C	1.014973	-0.342090	-0.576208
C54	C	1.015032	-0.177950	-0.342089
C55	C	1.015077	-0.107983	-0.342106
C56	C	1.059947	-0.383946	-1.077379
C57	C	1.059934	-0.383966	-1.011636
C58	C	1.015040	-0.341994	-0.977050
C59	C	0.970142	-0.300011	-1.008212
C60	C	0.970151	-0.299997	-1.073953
N61	N	1.009673	-0.286709	-0.873636
N62	N	1.009668	-0.286725	-0.811184
C63	C	1.015009	-0.342036	-0.778974
N64	N	1.020368	-0.397332	-0.811575
N65	N	1.020376	-0.397316	-0.874033
C66	C	1.015025	-0.342005	-0.905764
C67	C	1.059887	-0.384041	-0.676534
C68	C	1.059869	-0.384061	-0.610790
C69	C	0.970080	-0.300101	-0.607366
C70	C	0.970094	-0.300086	-0.673109
C71	C	1.015001	-0.342055	-0.707689
C72	C	1.014935	-0.342124	-0.178496
C73	C	1.015058	-0.341966	-0.108533
H74	H	0.747563	-0.405035	-0.404734
H75	H	0.933437	-0.578742	-0.265813
H76	H	1.096512	-0.418123	-1.105531
C77	C	0.604018	-0.411072	-0.410741
N78	N	0.573635	-0.443327	-0.442869
C79	C	0.920816	-1.107778	-0.253873
N80	N	0.883633	-1.133632	-0.219068
C81	C	1.109181	-0.713917	-0.430283
N82	N	1.146385	-0.742526	-0.465096
C83	C	0.758053	-0.247632	-0.247837
N84	N	0.788438	-0.215391	-0.215697
C85	C	0.426547	-0.442575	-0.442164
N86	N	0.456929	-0.477144	-0.476614
H87	H	0.416065	-0.284368	-0.284469
H88	H	1.096451	-0.418216	-0.704691
C89	C	0.920693	-0.253933	-0.569325
N90	N	0.883493	-0.219159	-0.540669
C91	C	1.109137	-0.575862	-0.430254
N92	N	1.146324	-0.550009	-0.465057
C93	C	0.920761	-0.969718	-0.253863
N94	N	0.883559	-0.941102	-0.219054
C95	C	1.109343	-1.114759	-0.430330
N96	N	1.146556	-1.143367	-0.465137
H97	H	0.933480	-0.698012	-0.265830
H98	H	0.933543	-0.265898	-0.698475
H99	H	0.933596	-0.265810	-1.099318
H100	H	0.502837	-0.289709	-0.289789
C101	C	0.272513	-0.436678	-0.436302
N102	N	0.242123	-0.468914	-0.468443
H103	H	0.527722	-0.394595	-0.394355
C104	C	1.109276	-0.976704	-0.430321
N105	N	1.146446	-0.950847	-0.465135
H106	H	1.096499	-0.418145	-0.986266
H107	H	0.283001	-0.279274	-0.279406
H108	H	1.096420	-0.418253	-0.585425
H109	H	0.614495	-0.253661	-0.253859
H110	H	0.933587	-0.265838	-0.980047
