data_functionalizedCrystal
_audit_creation_method	'MofGen! by Chris Wilmer'
_symmetry_space_group_name_H-M	'P1'
_symmetry_Int_Tables_number	1
_symmetry_cell_setting	triclinic
loop_
_symmetry_equiv_pos_as_xyz
  x,y,z
_cell_length_a	19.288864
_cell_length_b	10.654541
_cell_length_c	18.366186
_cell_angle_alpha	89.994034
_cell_angle_beta	89.977106
_cell_angle_gamma	83.810087
loop_
_atom_site_label
_atom_site_type_symbol
_atom_site_fract_x
_atom_site_fract_y
_atom_site_fract_z
O1	O	0.922378	0.156657	-0.060783
O2	O	0.720255	0.177790	-0.060733
O3	O	0.825965	-0.015616	-0.060755
O4	O	0.816669	0.350062	-0.060761
O5	O	0.825946	-0.015625	0.060344
O6	O	0.720237	0.177780	0.060366
O7	O	0.922360	0.156647	0.060316
Zn8	Zn	0.821296	0.167212	0.079568
Zn9	Zn	0.821319	0.167225	-0.079985
O10	O	0.816650	0.350053	0.060338
C11	C	0.694365	0.177105	-0.000177
C12	C	0.617248	0.175064	-0.000158
C13	C	0.825273	-0.062404	-0.000205
C14	C	0.823232	-0.201804	-0.000206
C15	C	0.573295	0.288545	-0.000172
C16	C	0.500835	0.286627	-0.000180
C17	C	0.472332	0.171222	-0.000189
C18	C	0.516296	0.057725	-0.000171
C19	C	0.588754	0.059646	-0.000156
C20	C	0.363483	0.080504	-0.042638
C21	C	0.291026	0.078587	-0.042658
C22	C	0.248848	0.165292	-0.000233
C23	C	0.279134	0.253935	0.042203
C24	C	0.351592	0.255856	0.042218
C25	C	0.393765	0.169126	-0.000205
C26	C	0.126325	0.276702	-0.000254
C27	C	0.053864	0.274780	-0.000257
C28	C	0.069327	0.045875	-0.000256
C29	C	0.141786	0.047800	-0.000245
C30	C	0.170280	0.163218	-0.000248
C31	C	0.949636	-0.232480	-0.000228
C32	C	1.011877	-0.313307	-0.000237
C33	C	1.009955	-0.444284	-0.000239
C34	C	0.945785	-0.494436	-0.000234
C35	C	0.883545	-0.413609	-0.000225
C36	C	0.885474	-0.282631	-0.000221
C37	C	0.757142	-0.382933	-0.000208
C38	C	0.759063	-0.251955	-0.000201
C39	C	0.692973	-0.433084	-0.000203
C40	C	0.630732	-0.352257	-0.000188
C41	C	0.632656	-0.221273	-0.000186
C42	C	0.696823	-0.171129	-0.000192
C43	C	0.948250	0.157332	-0.000241
C44	C	1.025367	0.159373	-0.000265
C45	C	0.817342	0.396841	-0.000213
C46	C	0.819383	0.536241	-0.000217
N47	N	0.821284	0.167203	0.188459
N48	N	0.821336	0.167224	-0.188876
C49	C	0.868108	0.081605	0.226550
C50	C	0.868112	0.081599	0.302778
C51	C	0.821300	0.167213	0.340912
C52	C	0.774467	0.252818	0.302812
C53	C	0.774459	0.252813	0.226586
C54	C	0.812750	0.281635	0.461672
C55	C	0.812763	0.281642	0.537897
C56	C	0.821320	0.167229	0.576020
C57	C	0.829878	0.052805	0.537908
C58	C	0.829871	0.052799	0.461682
C59	C	0.821303	0.167228	0.423567
C60	C	0.868151	0.081618	0.696765
C61	C	0.868150	0.081611	0.772995
C62	C	0.774508	0.252840	0.773027
C63	C	0.774505	0.252836	0.696800
C64	C	0.821330	0.167227	0.658673
H65	H	0.465041	0.379041	-0.000189
N66	N	0.690894	-0.574350	-0.000199
H67	H	0.665628	-0.599873	-0.045088
H68	H	0.740077	-0.617851	-0.000175
H69	H	0.951208	-0.125834	-0.000217
N70	N	0.943713	-0.635703	-0.000236
H71	H	0.893620	-0.655209	-0.000228
H72	H	0.968107	-0.673170	-0.045135
N73	N	0.189191	-0.074607	-0.000242
H74	H	0.219624	-0.078909	-0.045127
H75	H	0.219529	-0.078849	0.044685
H76	H	0.578490	-0.393102	-0.000189
H77	H	0.018077	0.367194	-0.000264
N78	N	1.081085	-0.259217	-0.000234
H79	H	1.072862	-0.163980	-0.000225
H80	H	1.108328	-0.288826	0.044660
N81	N	0.157067	0.401178	-0.000244
H82	H	0.186807	0.407084	-0.045131
H83	H	0.118186	0.472708	-0.000219
H84	H	0.736380	0.322543	0.665784
N85	N	0.233646	0.347446	0.087969
H86	H	0.247020	0.336076	0.140910
H87	H	0.240307	0.436099	0.072074
N88	N	0.384261	0.351449	0.087987
H89	H	0.346551	0.406089	0.114863
H90	H	0.417424	0.306025	0.124230
H91	H	0.698396	-0.064483	-0.000185
H92	H	0.836838	-0.040369	0.430655
H93	H	1.060636	-0.510094	-0.000252
H94	H	0.581972	-0.155470	-0.000181
N95	N	0.723978	0.345156	0.343943
H96	H	0.732398	0.434249	0.330663
H97	H	0.674637	0.330803	0.330691
N98	N	0.918607	-0.010731	0.185428
H99	H	0.948270	-0.064960	0.221130
H100	H	0.891750	-0.066132	0.153822
N101	N	0.636160	-0.062764	-0.000148
H102	H	0.666591	-0.067066	-0.045034
H103	H	0.666499	-0.067000	0.044779
H104	H	0.266373	0.006414	-0.077214
N105	N	0.918649	-0.010715	0.655637
H106	H	0.948310	-0.064951	0.691337
H107	H	0.891792	-0.066110	0.624026
H108	H	0.596490	0.382527	-0.000175
N109	N	0.839112	-0.070610	0.579014
H110	H	0.837815	-0.053250	0.633086
H111	H	0.800248	-0.122733	0.565711
N112	N	0.918667	-0.010697	0.814083
H113	H	0.948333	-0.064915	0.778360
H114	H	0.949593	0.037277	0.845682
N115	N	0.803527	0.405051	0.578997
H116	H	0.804834	0.387696	0.633070
H117	H	0.842385	0.457181	0.565646
H118	H	0.906243	0.011893	0.333797
N119	N	0.408973	-0.013024	-0.088397
H120	H	0.378793	-0.069459	-0.115286
H121	H	0.435935	0.033989	-0.124629
N122	N	0.723962	0.345147	0.185493
H123	H	0.692981	0.297296	0.153885
H124	H	0.694350	0.399364	0.221257
H125	H	0.736390	0.322544	0.804076
H126	H	0.046121	-0.048091	-0.000309
H127	H	0.805770	0.374810	0.430638
N128	N	0.485559	-0.066750	-0.000172
H129	H	0.432987	-0.050748	-0.000185
H130	H	0.501626	-0.116396	-0.045059
