data_functionalizedCrystal
_audit_creation_method	'MofGen! by Chris Wilmer'
_symmetry_space_group_name_H-M	'P1'
_symmetry_Int_Tables_number	1
_symmetry_cell_setting	triclinic
loop_
_symmetry_equiv_pos_as_xyz
  x,y,z
_cell_length_a	8.559649
_cell_length_b	27.732048
_cell_length_c	7.681481
_cell_angle_alpha	84.300807
_cell_angle_beta	94.913240
_cell_angle_gamma	76.210660
loop_
_atom_site_label
_atom_site_type_symbol
_atom_site_fract_x
_atom_site_fract_y
_atom_site_fract_z
O1	O	2.105302	-0.011272	-0.146396
O2	O	1.639479	0.013714	-0.146414
O3	O	1.886861	-0.069681	-0.146371
O4	O	1.857919	0.072123	-0.146440
O5	O	1.917311	-0.079967	0.146492
O6	O	1.669928	0.003429	0.146449
O7	O	2.135751	-0.021558	0.146467
Zn8	Zn	1.907674	-0.010697	0.192956
Zn9	Zn	1.867556	0.002854	-0.192904
O10	O	1.888369	0.061838	0.146424
C11	C	1.595127	0.010465	0.000015
C12	C	1.417607	0.016101	0.000010
C13	C	1.901479	-0.092810	0.000065
C14	C	1.899652	-0.146402	0.000079
C15	C	2.034313	-0.489909	-0.000006
C16	C	2.027524	-0.691331	-0.000031
O17	O	2.150663	-0.726877	-0.000103
N18	N	1.880839	-0.705341	-0.000035
C19	C	1.735840	-0.668990	-0.000044
O20	O	1.610917	-0.685527	-0.000066
C21	C	1.742628	-0.467569	-0.000032
C22	C	1.889325	-0.453563	-0.000010
C23	C	2.180997	-0.475902	0.000014
C24	C	2.182694	-0.425550	0.000030
C25	C	2.037706	-0.389204	0.000026
C26	C	1.891021	-0.403211	0.000006
C27	C	1.597629	-0.431219	-0.000054
C28	C	1.599339	-0.380861	-0.000055
C29	C	1.746035	-0.366856	-0.000033
C30	C	1.747730	-0.316513	0.000018
N31	N	1.894415	-0.302503	0.000022
C32	C	2.039403	-0.338849	0.000026
C33	C	1.732286	-0.774740	-0.000047
C34	C	1.730589	-0.825096	-0.000047
C35	C	2.022274	-0.847433	-0.000037
C36	C	2.023971	-0.797077	-0.000024
C37	C	1.878971	-0.760731	-0.000043
C38	C	2.042955	-0.233105	0.000060
C39	C	2.044640	-0.182747	0.000083
C40	C	1.752954	-0.160414	0.000064
C41	C	1.751270	-0.210768	0.000050
C42	C	1.896283	-0.247112	0.000042
O43	O	1.624655	-0.280940	0.000070
O44	O	2.164303	-0.322300	0.000009
C45	C	2.032616	-0.540261	-0.000022
C46	C	1.885932	-0.554268	-0.000041
C47	C	1.740944	-0.517922	-0.000046
C48	C	1.884235	-0.604623	-0.000041
C49	C	2.029222	-0.640969	-0.000037
C50	C	2.175908	-0.626959	-0.000033
C51	C	2.177604	-0.576607	-0.000018
C52	C	1.594259	-0.531932	-0.000050
C53	C	1.592574	-0.582285	-0.000063
C54	C	1.737562	-0.618631	-0.000059
C55	C	2.180103	-0.018308	0.000033
C56	C	2.357621	-0.023944	0.000027
C57	C	1.873750	0.084967	-0.000017
C58	C	1.875577	0.138559	-0.000043
N59	N	1.935065	-0.019946	0.456295
N60	N	1.840177	0.012099	-0.456243
H61	H	1.442072	-0.062541	0.000037
H62	H	1.333145	0.054701	-0.000018
F63	F	2.061694	-0.062699	0.554611
H64	H	2.164103	-0.171348	0.000106
F65	F	1.713571	0.054853	0.445449
F66	F	2.197294	-0.271779	0.000051
H67	H	2.143424	-0.785678	-0.000008
F68	F	2.338826	-0.410650	0.000015
H69	H	2.299070	-0.505491	0.000011
H70	H	2.140329	-0.877034	-0.000033
H71	H	1.614203	-0.745150	-0.000062
F72	F	1.574458	-0.839997	-0.000038
H73	H	1.481259	-0.351269	-0.000073
H74	H	1.478172	-0.442612	-0.000082
H75	H	1.473109	-0.593683	-0.000066
F76	F	1.595144	-0.225675	0.000059
F77	F	1.598656	-0.121724	0.000060
F78	F	2.333739	-0.561708	-0.000005
F79	F	2.330215	-0.665650	-0.000020
H80	H	1.476189	-0.502342	-0.000057
