data_functionalizedCrystal
_audit_creation_method	'MofGen! by Chris Wilmer'
_symmetry_space_group_name_H-M	'P1'
_symmetry_Int_Tables_number	1
_symmetry_cell_setting	triclinic
loop_
_symmetry_equiv_pos_as_xyz
  x,y,z
_cell_length_a	10.723024
_cell_length_b	10.489741
_cell_length_c	9.198806
_cell_angle_alpha	89.997101
_cell_angle_beta	89.996352
_cell_angle_gamma	84.503522
loop_
_atom_site_label
_atom_site_type_symbol
_atom_site_fract_x
_atom_site_fract_y
_atom_site_fract_z
O1	O	1.657297	0.178906	-0.120882
O2	O	1.294155	0.196031	-0.120887
O3	O	1.483989	0.001865	-0.120876
O4	O	1.467463	0.373072	-0.120893
O5	O	1.483974	0.001865	0.120909
O6	O	1.294140	0.196030	0.120898
O7	O	1.657282	0.178906	0.120903
Cu8	Cu	1.475710	0.187468	0.142977
Cu9	Cu	1.475728	0.187469	-0.142962
O10	O	1.467448	0.373071	0.120892
C11	C	1.247647	0.194785	0.000005
C12	C	1.109091	0.191056	0.000003
C13	C	1.034175	0.299701	-0.000003
C14	C	0.890969	0.295850	-0.000005
C15	C	1.482734	-0.045666	0.000016
C16	C	1.478999	-0.187293	0.000013
C17	C	1.358213	-0.255356	0.000001
C18	C	1.415264	-0.347515	0.119214
C19	C	1.415308	-0.347489	-0.119167
C20	C	1.536100	-0.277587	0.119325
C21	C	1.536126	-0.277551	-0.119163
C22	C	1.593265	-0.369683	0.000079
C23	C	1.703790	0.180152	0.000008
C24	C	1.842347	0.183881	-0.000000
C25	C	1.468704	0.420602	-0.000003
C26	C	1.472438	0.562229	-0.000010
N27	N	1.475706	0.187467	0.344091
N28	N	1.475741	0.187460	-0.344075
C29	C	1.555412	0.105583	0.416293
C30	C	1.555431	0.105578	0.583705
H31	H	1.067210	0.095190	-0.000030
H32	H	1.258904	-0.205641	0.000120
C33	C	1.383549	0.282177	0.572072
H34	H	1.333561	0.333553	0.639099
H35	H	1.331095	0.235922	0.512703
H36	H	1.429123	0.335509	0.512688
H37	H	1.587197	-0.246539	-0.219954
H38	H	1.364191	-0.378420	-0.219962
C39	C	1.346219	-0.389374	0.255361
H40	H	1.262711	-0.349859	0.255218
H41	H	1.388323	-0.364283	0.340017
H42	H	1.345005	-0.479811	0.254819
H43	H	1.407477	0.257563	0.406215
C44	C	1.647622	0.010867	0.667568
H45	H	1.697621	-0.040498	0.600540
H46	H	1.602059	-0.042458	0.726960
H47	H	1.700082	0.057133	0.726927
C48	C	1.647579	0.010877	0.332381
H49	H	1.635479	0.023309	0.230869
H50	H	1.633054	-0.074340	0.357262
H51	H	1.731075	0.025254	0.357231
H52	H	1.076055	0.395567	0.000001
H53	H	0.826593	0.388858	-0.000016
H54	H	1.587156	-0.246787	0.220223
C55	C	1.727535	-0.436551	0.000169
H56	H	1.770226	-0.412625	0.084930
H57	H	1.770770	-0.411539	-0.083711
H58	H	1.724437	-0.526755	-0.000625
H59	H	0.906715	0.090867	-0.000004
