data_functionalizedCrystal
_audit_creation_method	'MofGen! by Chris Wilmer'
_symmetry_space_group_name_H-M	'P1'
_symmetry_Int_Tables_number	1
_symmetry_cell_setting	triclinic
loop_
_symmetry_equiv_pos_as_xyz
  x,y,z
_cell_length_a	19.188930
_cell_length_b	26.809956
_cell_length_c	19.188930
_cell_angle_alpha	90.000789
_cell_angle_beta	83.144779
_cell_angle_gamma	90.022679
loop_
_atom_site_label
_atom_site_type_symbol
_atom_site_fract_x
_atom_site_fract_y
_atom_site_fract_z
O1	O	0.926150	0.041646	0.087158
O2	O	0.722839	0.041612	0.098892
O3	O	0.830362	0.041620	-0.008631
O4	O	0.818628	0.041638	0.194681
O5	O	0.830342	-0.041339	-0.008614
O6	O	0.722819	-0.041347	0.098908
O7	O	0.926130	-0.041314	0.087174
Zn8	Zn	0.824471	-0.054502	0.093044
Zn9	Zn	0.824498	0.054800	0.093022
O10	O	0.818607	-0.041322	0.194697
C11	C	0.696818	0.000128	0.098520
C12	C	0.619313	0.000115	0.097380
N13	N	0.824458	-0.129098	0.093058
C14	C	0.574389	0.000128	0.160470
C15	C	0.501566	0.000133	0.159399
C16	C	0.473669	0.000136	0.095233
C17	C	0.518603	0.000120	0.032133
C18	C	0.591425	0.000109	0.033207
N19	N	0.365696	0.028386	0.046180
N20	N	0.296517	0.028397	0.045165
C21	C	0.254260	0.000166	0.091994
N22	N	0.283794	-0.028070	0.139889
N23	N	0.352979	-0.028079	0.140906
C24	C	0.394707	0.000147	0.094061
C25	C	0.130372	0.000184	0.153928
C26	C	0.057547	0.000187	0.152853
C27	C	0.074586	0.000178	0.025586
C28	C	0.147409	0.000170	0.026662
C29	C	0.175298	0.000176	0.090835
C30	C	0.872103	-0.473721	0.045423
C31	C	0.872119	-0.682598	0.045412
O32	O	0.912600	-0.709599	0.004915
N33	N	0.824502	-0.708725	0.093007
C34	C	0.776873	-0.682629	0.140604
O35	O	0.736367	-0.709645	0.181082
C36	C	0.776854	-0.473753	0.140611
C37	C	0.824480	-0.447628	0.093018
C38	C	0.919724	-0.447596	-0.002167
C39	C	0.919722	-0.395380	-0.002161
C40	C	0.872099	-0.369288	0.045434
C41	C	0.824478	-0.395412	0.093024
C42	C	0.729223	-0.447658	0.188205
C43	C	0.729221	-0.395435	0.188201
C44	C	0.776847	-0.369311	0.140608
C45	C	0.776852	-0.317104	0.140625
N46	N	0.824470	-0.290977	0.093030
C47	C	0.872093	-0.317069	0.045435
C48	C	0.776888	-0.792293	0.140598
C49	C	0.776893	-0.844512	0.140598
C50	C	0.872139	-0.844477	0.045404
C51	C	0.872136	-0.792257	0.045409
C52	C	0.824506	-0.766166	0.093004
C53	C	0.872086	-0.207411	0.045451
C54	C	0.872081	-0.155190	0.045463
C55	C	0.776834	-0.155229	0.140653
C56	C	0.776840	-0.207446	0.140644
C57	C	0.824469	-0.233535	0.093037
O58	O	0.736387	-0.290071	0.181095
O59	O	0.912583	-0.290045	0.004954
C60	C	0.872105	-0.525937	0.045417
C61	C	0.824484	-0.552061	0.093007
C62	C	0.776861	-0.525969	0.140602
C63	C	0.824489	-0.604280	0.093006
C64	C	0.872113	-0.630372	0.045411
C65	C	0.919730	-0.604245	-0.002184
C66	C	0.919728	-0.552029	-0.002178
C67	C	0.729243	-0.552096	0.188197
C68	C	0.729249	-0.604312	0.188188
C69	C	0.776873	-0.630404	0.140592
C70	C	0.952151	0.000171	0.087546
C71	C	1.029656	0.000188	0.088687
C72	C	0.829972	0.000139	-0.034634
C73	C	0.828831	0.000134	-0.112138
N74	N	0.824517	0.129396	0.093002
C75	C	0.891922	0.000142	-0.157062
C76	C	0.890850	0.000150	-0.229886
C77	C	0.826684	0.000140	-0.257782
C78	C	0.763585	0.000135	-0.212849
C79	C	0.764658	0.000132	-0.140026
N80	N	0.777630	-0.028101	-0.365782
N81	N	0.776614	-0.028099	-0.434960
C82	C	0.823446	0.000150	-0.477191
N83	N	0.871342	0.028390	-0.447631
N84	N	0.872359	0.028386	-0.378446
C85	C	0.825513	0.000143	-0.336745
C86	C	0.885379	0.000167	-0.601079
C87	C	0.884305	0.000178	-0.673904
C88	C	0.757038	0.000157	-0.656865
C89	C	0.758114	0.000151	-0.584042
C90	C	0.822287	0.000154	-0.556154
C91	C	0.818997	0.000161	0.220700
C92	C	0.820138	0.000168	0.298204
H93	H	0.597091	0.000134	0.212725
C94	C	0.923876	-0.763852	-0.006178
C95	C	0.966515	-0.733846	0.030871
C96	C	1.014173	-0.707673	-0.016640
H97	H	0.898888	-0.743463	-0.035177
H98	H	0.952281	-0.786845	-0.034534
H99	H	0.938113	-0.710856	0.059215
H100	H	0.991518	-0.754223	0.059868
H101	H	1.042578	-0.730665	-0.044996
H102	H	0.989179	-0.687286	-0.045637
H103	H	1.043113	-0.687314	0.008491
C104	C	0.961615	0.000253	-0.126826
C105	C	0.999747	0.042945	-0.149666
C106	C	1.063947	0.043068	-0.121818
H107	H	0.987659	-0.028639	-0.142244
H108	H	0.953253	0.000277	-0.077018
H109	H	1.008111	0.042917	-0.199463
H110	H	0.973724	0.071844	-0.134248
H111	H	1.055585	0.043092	-0.072010
H112	H	1.089985	0.014174	-0.137239
H113	H	1.089825	0.072037	-0.137305
H114	H	0.464982	0.000143	0.210776
C115	C	0.687348	0.000250	-0.687103
C116	C	0.649240	0.042930	-0.664259
C117	C	0.585041	0.043039	-0.692109
H118	H	0.661287	-0.028650	-0.671690
H119	H	0.695713	0.000281	-0.736911
H120	H	0.640873	0.042895	-0.614462
H121	H	0.675280	0.071838	-0.679671
H122	H	0.593406	0.043070	-0.741917
H123	H	0.558987	0.014136	-0.676694
H124	H	0.559180	0.071999	-0.676619
C125	C	0.923920	-0.872721	-0.006307
C126	C	0.965634	-0.838671	-0.047986
C127	C	1.013341	-0.864673	-0.095624
H128	H	0.898970	-0.893101	-0.035370
H129	H	0.952946	-0.893073	0.018717
H130	H	0.936612	-0.818328	-0.073008
H131	H	0.990599	-0.818290	-0.018942
H132	H	1.042367	-0.885025	-0.070600
H133	H	0.988386	-0.885053	-0.124682
H134	H	1.041655	-0.841574	-0.123904
C135	C	0.677425	-0.632646	0.239785
C136	C	0.608858	-0.619966	0.228610
C137	C	0.561096	-0.646060	0.276115
H138	H	0.684763	-0.624108	0.286397
H139	H	0.684192	-0.667488	0.232966
H140	H	0.602093	-0.585132	0.235434
H141	H	0.601498	-0.628505	0.182007
H142	H	0.567864	-0.680902	0.269296
H143	H	0.568441	-0.637521	0.322725
H144	H	0.514569	-0.637464	0.268535
C145	C	0.196073	0.000187	-0.041913
C146	C	0.156059	0.000203	-0.098339
C147	C	0.200864	0.000224	-0.161524
H148	H	0.224827	-0.028738	-0.044234
H149	H	0.224849	0.029125	-0.044183
H150	H	0.127295	-0.028731	-0.096070
H151	H	0.127307	0.029127	-0.096041
H152	H	0.229640	0.029161	-0.163793
H153	H	0.229616	-0.028702	-0.163838
H154	H	0.173721	0.000239	-0.199816
C155	C	0.689634	0.000240	-0.535230
C156	C	0.686535	0.042925	-0.492935
C157	C	0.623455	0.043028	-0.447967
H158	H	0.687332	-0.028658	-0.506404
H159	H	0.651245	0.000262	-0.562248
H160	H	0.724913	0.042898	-0.465919
H161	H	0.688825	0.071829	-0.521742
H162	H	0.585066	0.043050	-0.474986
H163	H	0.621158	0.014129	-0.419146
H164	H	0.621340	0.071992	-0.419269
H165	H	0.958505	-0.468836	-0.040928
H166	H	0.020970	0.000194	0.204232
H167	H	0.935683	0.000187	-0.710481
C168	C	0.954997	0.000254	-0.570696
C169	C	0.959329	0.042926	-0.529365
C170	C	1.023446	0.043021	-0.501358
H171	H	0.992482	0.000290	-0.607810
H172	H	0.958061	-0.028662	-0.542607
H173	H	0.956272	0.071835	-0.557453
H174	H	0.921859	0.042899	-0.492240
H175	H	1.026510	0.014104	-0.473269
H176	H	1.060925	0.043055	-0.538477
H177	H	1.026391	0.071971	-0.473307
C178	C	0.677477	-0.367199	0.239959
C179	C	0.635787	-0.401258	0.281645
C180	C	0.588121	-0.375267	0.329338
H181	H	0.648424	-0.346834	0.214999
H182	H	0.702481	-0.346833	0.269005
H183	H	0.610785	-0.421616	0.252602
H184	H	0.664820	-0.421625	0.306621
H185	H	0.613125	-0.354901	0.358385
H186	H	0.559074	-0.354902	0.304372
H187	H	0.559833	-0.398372	0.357632
C188	C	0.923821	-0.126918	-0.006293
C189	C	0.965512	-0.160949	-0.047988
C190	C	1.013174	-0.134925	-0.095678
H191	H	0.952874	-0.106537	0.018670
H192	H	0.898814	-0.106564	-0.035334
H193	H	0.990518	-0.181294	-0.018951
H194	H	0.936479	-0.181330	-0.072966
H195	H	0.988167	-0.114572	-0.124719
H196	H	1.042221	-0.114545	-0.070709
H197	H	1.041462	-0.158011	-0.123978
H198	H	0.051874	0.000210	-0.026659
H199	H	0.495885	0.000128	-0.020111
C200	C	0.923686	-0.235759	-0.006313
C201	C	0.886638	-0.265739	-0.048984
C202	C	0.934150	-0.291856	-0.096679
H203	H	0.952692	-0.256162	0.018647
H204	H	0.952035	-0.212733	-0.034692
H205	H	0.858301	-0.288762	-0.020608
H206	H	0.857635	-0.245348	-0.073960
H207	H	0.962500	-0.268829	-0.125058
H208	H	0.963153	-0.312256	-0.071713
H209	H	0.909020	-0.312196	-0.125641
C210	C	0.959330	0.000258	-0.278707
C211	C	0.962455	0.042945	-0.321001
C212	C	1.025531	0.043063	-0.365975
H213	H	0.961608	-0.028638	-0.307534
H214	H	0.997722	0.000286	-0.251694
H215	H	0.924073	0.042912	-0.348012
H216	H	0.960189	0.071847	-0.292192
H217	H	1.063924	0.043091	-0.338961
H218	H	1.027804	0.014166	-0.394797
H219	H	1.027663	0.072028	-0.394671
C220	C	0.971456	-0.367111	-0.053920
C221	C	1.013143	-0.401147	-0.095611
C222	C	1.060801	-0.375128	-0.143309
H223	H	1.000511	-0.346728	-0.028964
H224	H	0.946447	-0.346761	-0.082962
H225	H	1.038150	-0.421489	-0.066572
H226	H	0.984107	-0.421531	-0.120582
H227	H	1.035792	-0.354778	-0.172352
H228	H	1.089852	-0.354746	-0.118348
H229	H	1.089087	-0.398217	-0.171607
H230	H	0.738066	-0.228716	0.179406
H231	H	0.690461	-0.530856	0.226954
H232	H	0.628003	0.000099	-0.018171
H233	H	0.738061	-0.133977	0.179407
H234	H	0.153080	0.000182	0.206181
C235	C	0.725112	-0.872781	0.192307
C236	C	0.683394	-0.838748	0.233972
C237	C	0.635674	-0.864769	0.281606
H238	H	0.750051	-0.893146	0.221380
H239	H	0.696088	-0.893150	0.167280
H240	H	0.712414	-0.818388	0.258998
H241	H	0.658439	-0.818382	0.204919
H242	H	0.606651	-0.885138	0.256579
H243	H	0.660620	-0.885133	0.310674
H244	H	0.607359	-0.841682	0.309877
H245	H	0.690442	-0.468921	0.226959
C246	C	0.971465	-0.523760	-0.053934
C247	C	1.013153	-0.557796	-0.095624
C248	C	1.060816	-0.531777	-0.143318
H249	H	1.000519	-0.503378	-0.028975
H250	H	0.946459	-0.503409	-0.082978
H251	H	1.038157	-0.578139	-0.066583
H252	H	0.984118	-0.578179	-0.120598
H253	H	1.035810	-0.511426	-0.172362
H254	H	1.089865	-0.511396	-0.118354
H255	H	1.089103	-0.554866	-0.171615
H256	H	0.738100	-0.771053	0.179358
H257	H	0.958510	-0.625498	-0.040936
C258	C	0.693969	0.000201	-0.243229
C259	C	0.689655	0.042875	-0.284553
C260	C	0.625537	0.042952	-0.312557
H261	H	0.656485	0.000221	-0.206114
H262	H	0.690890	-0.028714	-0.271323
H263	H	0.692727	0.071782	-0.256461
H264	H	0.727124	0.042864	-0.321679
H265	H	0.622459	0.014037	-0.340651
H266	H	0.588059	0.042971	-0.275437
H267	H	0.622605	0.071904	-0.340603
H268	H	0.713281	0.000125	-0.103449
