data_functionalizedCrystal
_audit_creation_method	'MofGen! by Chris Wilmer'
_symmetry_space_group_name_H-M	'P1'
_symmetry_Int_Tables_number	1
_symmetry_cell_setting	triclinic
loop_
_symmetry_equiv_pos_as_xyz
  x,y,z
_cell_length_a	14.971486
_cell_length_b	16.109304
_cell_length_c	13.448316
_cell_angle_alpha	89.996206
_cell_angle_beta	89.998199
_cell_angle_gamma	83.538383
loop_
_atom_site_label
_atom_site_type_symbol
_atom_site_fract_x
_atom_site_fract_y
_atom_site_fract_z
O1	O	1.186792	0.108348	-0.082571
O2	O	0.926374	0.121323	-0.082597
O3	O	1.063736	-0.006187	-0.082584
O4	O	1.049430	0.235857	-0.082584
O5	O	1.063718	-0.006195	0.082800
O6	O	0.926356	0.121315	0.082786
O7	O	1.186775	0.108340	0.082813
Cu8	Cu	1.056564	0.114827	0.097900
Cu9	Cu	1.056585	0.114836	-0.097685
O10	O	1.049413	0.235849	0.082799
C11	C	0.893041	0.120738	0.000091
C12	C	0.793746	0.119000	0.000081
C13	C	1.063147	-0.037166	0.000105
C14	C	1.061408	-0.129464	0.000099
C15	C	0.736414	0.193908	0.000082
C16	C	0.643117	0.192269	0.000097
C17	C	0.607154	0.115721	0.000103
C18	C	0.664494	0.040807	0.000105
C19	C	0.757789	0.042447	0.000097
C20	C	0.470036	0.037395	0.000119
C21	C	0.376735	0.035755	0.000124
C22	C	0.355364	0.187217	0.000118
C23	C	0.448659	0.188857	0.000111
C24	C	0.505993	0.113942	0.000110
C25	C	1.057401	-0.341802	-0.090049
C26	C	1.055759	-0.428524	-0.090048
C27	C	1.055745	-0.428529	0.090262
C28	C	1.057380	-0.341808	0.090261
C29	C	1.058213	-0.298447	0.000102
C30	C	1.054936	-0.471891	0.000105
C31	C	1.053156	-0.565919	0.000106
C32	C	1.059991	-0.204413	0.000100
C33	C	1.220108	0.108924	0.000122
C34	C	1.319402	0.110663	0.000126
C35	C	1.050002	0.266829	0.000108
C36	C	1.051740	0.359126	0.000108
N37	N	1.056556	0.114820	0.235465
N38	N	1.056599	0.114836	-0.235249
C39	C	1.117399	0.058382	0.287511
C40	C	1.117405	0.058381	0.391614
C41	C	1.056571	0.114823	0.443669
C42	C	0.995722	0.171263	0.391616
C43	C	0.995713	0.171259	0.287514
C44	C	0.995747	0.171269	0.608596
C45	C	0.995757	0.171274	0.712704
C46	C	1.117439	0.058391	0.712696
C47	C	1.117429	0.058387	0.608594
C48	C	1.056581	0.114828	0.556548
H49	H	0.596440	0.253267	0.000097
O50	O	0.525824	-0.035321	-0.000016
C51	C	0.580407	-0.038904	-0.085689
H52	H	0.585099	0.027096	-0.114243
H53	H	0.650539	-0.069802	-0.066433
H54	H	0.549724	-0.076904	-0.145665
H55	H	0.477937	0.251189	0.000096
O56	O	0.299548	0.259913	0.000162
C57	C	0.209491	0.242056	0.000148
H58	H	0.205933	0.176751	0.031471
H59	H	0.167210	0.289802	0.048157
H60	H	0.182507	0.245175	-0.079194
O61	O	1.055067	-0.470575	0.177902
C62	C	1.132894	-0.458738	0.232737
H63	H	1.159891	-0.398885	0.207099
H64	H	1.115534	-0.453671	0.315211
H65	H	1.186188	-0.514084	0.220244
H66	H	0.946194	0.217227	0.566223
O67	O	0.629711	-0.033625	0.000152
C68	C	0.700324	-0.099389	0.000124
H69	H	0.763695	-0.076022	0.031434
H70	H	0.680844	-0.152832	0.048137
H71	H	0.713533	-0.122494	-0.079221
H72	H	0.347457	-0.026577	0.000131
O73	O	1.054814	-0.470657	-0.177595
C74	C	0.976458	-0.511494	-0.182987
H75	H	0.922834	-0.478831	-0.131834
H76	H	0.950461	-0.509338	-0.262726
H77	H	0.992716	-0.579331	-0.158765
O78	O	0.936624	0.225979	0.763388
C79	C	0.881467	0.181354	0.823602
H80	H	0.917126	0.116353	0.839187
H81	H	0.867317	0.216029	0.896810
H82	H	0.815359	0.175597	0.783502
H83	H	0.946185	0.217217	0.434005
O84	O	0.936579	0.226166	0.237107
C85	C	0.882872	0.275971	0.305373
H86	H	0.919549	0.276972	0.379574
H87	H	0.869200	0.342346	0.275285
H88	H	0.816441	0.248872	0.316459
O89	O	0.813577	-0.030264	-0.000041
C90	C	0.868165	-0.033853	-0.085710
H91	H	0.872859	0.032144	-0.114269
H92	H	0.938295	-0.064751	-0.066448
H93	H	0.837484	-0.071856	-0.145684
O94	O	1.058048	-0.299764	0.177902
C95	C	0.980213	-0.311599	0.232732
H96	H	0.953219	-0.371452	0.207102
H97	H	0.997562	-0.316664	0.315208
H98	H	0.926921	-0.256253	0.220224
O99	O	1.176528	0.003473	0.237103
C100	C	1.230244	-0.046327	0.305369
H101	H	1.193579	-0.047318	0.379581
H102	H	1.243908	-0.112705	0.275300
H103	H	1.296678	-0.019228	0.316428
H104	H	0.765687	0.256242	0.000076
O105	O	1.058160	-0.299803	-0.177714
C106	C	1.057112	-0.356672	-0.257282
H107	H	1.027644	-0.415076	-0.230850
H108	H	1.014187	-0.326379	-0.320337
H109	H	1.128654	-0.374546	-0.285001
O110	O	1.176546	0.003677	0.442286
C111	C	1.231721	0.048298	0.502471
H112	H	1.196070	0.113300	0.518058
H113	H	1.245888	0.013623	0.575681
H114	H	1.297819	0.054052	0.462345
O115	O	1.176557	0.003481	0.558180
C116	C	1.230279	-0.046322	0.626437
H117	H	1.193621	-0.047320	0.700653
H118	H	1.243944	-0.112698	0.596362
H119	H	1.296714	-0.019223	0.637492
H120	H	1.166983	0.012434	0.755078
