data_functionalizedCrystal
_audit_creation_method	'MofGen! by Chris Wilmer'
_symmetry_space_group_name_H-M	'P1'
_symmetry_Int_Tables_number	1
_symmetry_cell_setting	triclinic
loop_
_symmetry_equiv_pos_as_xyz
  x,y,z
_cell_length_a	17.038272
_cell_length_b	16.109301
_cell_length_c	14.586319
_cell_angle_alpha	89.996198
_cell_angle_beta	90.002130
_cell_angle_gamma	87.286570
loop_
_atom_site_label
_atom_site_type_symbol
_atom_site_fract_x
_atom_site_fract_y
_atom_site_fract_z
O1	O	-1.037364	-0.180538	0.076126
O2	O	-0.537364	0.319462	0.576126
O3	O	-0.809734	-0.177672	0.076153
O4	O	-0.309734	0.322328	0.576153
O5	O	-0.929802	-0.058518	0.076133
O6	O	-0.429802	0.441482	0.576133
O7	O	-0.917296	-0.299692	0.076146
O8	O	-0.417296	0.200308	0.576146
O9	O	-0.929794	-0.058516	-0.076348
O10	O	-0.429794	0.441484	0.423652
O11	O	-0.809725	-0.177669	-0.076328
O12	O	-0.309725	0.322331	0.423672
O13	O	-1.037356	-0.180536	-0.076355
O14	O	-0.537356	0.319464	0.423645
Cu15	Cu	-0.923540	-0.179102	-0.090264
Cu16	Cu	-0.423540	0.320898	0.409736
Cu17	Cu	-0.923550	-0.179105	0.090062
Cu18	Cu	-0.423550	0.320895	0.590062
O19	O	-0.917288	-0.299689	-0.076335
O20	O	-0.417288	0.200311	0.423665
C21	C	-0.780601	-0.175063	-0.000084
C22	C	-0.280601	0.324937	0.499916
C23	C	-0.693808	-0.167284	-0.000074
C24	C	-0.193808	0.332716	0.499926
C25	C	-1.066488	-0.183145	-0.000116
C26	C	-0.566488	0.316855	0.499884
C27	C	-1.153281	-0.190924	-0.000120
C28	C	-0.653281	0.309076	0.499880
C29	C	-0.643694	-0.238705	-0.000071
C30	C	-0.143694	0.261295	0.499929
C31	C	-0.562143	-0.231391	-0.000084
C32	C	-0.062143	0.268609	0.499916
C33	C	-0.530709	-0.152655	-0.000093
C34	C	-0.030709	0.347345	0.499907
C35	C	-0.580830	-0.081229	-0.000100
C36	C	-0.080830	0.418771	0.499900
C37	C	-0.662379	-0.088544	-0.000093
C38	C	-0.162379	0.411456	0.499907
C39	C	-0.284951	-0.126813	-0.000119
C40	C	0.215049	0.373187	0.499881
C41	C	-0.203396	-0.119503	-0.000123
C42	C	0.296604	0.380497	0.499877
C43	C	-0.184715	-0.269665	-0.000109
C44	C	0.315285	0.230335	0.499891
C45	C	-0.266266	-0.276973	-0.000097
C46	C	0.233734	0.223027	0.499903
C47	C	-0.316380	-0.205547	-0.000108
C48	C	0.183620	0.294453	0.499892
C49	C	-0.447352	-0.145177	-0.000104
C50	C	0.052648	0.354823	0.499896
C51	C	-0.399736	-0.213026	-0.000104
C52	C	0.100264	0.286974	0.499896
C53	C	-0.929291	-0.027506	-0.000107
C54	C	-0.429291	0.472494	0.499893
C55	C	-0.927773	0.064897	-0.000106
C56	C	-0.427773	0.564897	0.499894
C57	C	-0.917798	-0.330702	-0.000093
C58	C	-0.417798	0.169298	0.499907
C59	C	-0.919317	-0.423105	-0.000088
C60	C	-0.419317	0.076895	0.499912
C61	C	-0.994054	0.369188	-0.000098
C62	C	-0.494054	0.869188	0.499902
C63	C	-0.995488	0.282366	-0.000103
C64	C	-0.495488	0.782366	0.499897
C65	C	-0.853031	0.272610	-0.000099
C66	C	-0.353031	0.772610	0.499901
C67	C	-0.851597	0.359430	-0.000100
C68	C	-0.351597	0.859430	0.499900
C69	C	-0.922111	0.407717	-0.000095
C70	C	-0.422111	0.907717	0.499905
C71	C	-0.924979	0.234075	-0.000099
C72	C	-0.424979	0.734075	0.499901
C73	C	-0.926534	0.139938	-0.000105
C74	C	-0.426534	0.639938	0.499895
C75	C	-0.920556	0.501860	-0.000091
C76	C	-0.420556	1.001860	0.499909
N77	N	-0.923539	-0.179100	-0.217096
N78	N	-0.423539	0.320900	0.282904
C79	C	-0.976723	-0.126359	-0.452111
C80	C	-0.476723	0.373641	0.047889
C81	C	-0.976725	-0.126357	-0.548092
C82	C	-0.476725	0.373643	-0.048092
C83	C	-0.870368	-0.231845	-0.548084
C84	C	-0.370368	0.268155	-0.048084
C85	C	-0.870362	-0.231842	-0.452104
C86	C	-0.370362	0.268158	0.047896
C87	C	-0.923544	-0.179100	-0.404121
C88	C	-0.423544	0.320900	0.095879
C89	C	-0.923552	-0.179101	-0.596081
C90	C	-0.423552	0.320899	-0.096081
C91	C	-0.923554	-0.179100	-0.700148
C92	C	-0.423554	0.320900	-0.200148
C93	C	-0.923541	-0.179100	-0.300047
C94	C	-0.423541	0.320900	0.199953
N95	N	-0.923557	-0.179101	0.216894
N96	N	-0.423557	0.320899	0.716894
H97	H	-0.669281	-0.302820	-0.000062
H98	H	-0.169281	0.197180	0.499938
H99	H	-1.020025	-0.083413	-0.413045
H100	H	-0.520025	0.416587	0.086955
H101	H	-0.793009	0.390801	-0.000101
H102	H	-0.293009	0.890801	0.499899
H103	H	-0.555230	-0.017121	-0.000121
H104	H	-0.055230	0.482879	0.499879
H105	H	-0.827054	-0.274790	-0.413028
H106	H	-0.327054	0.225210	0.086972
F107	F	-0.777989	0.221212	-0.000099
F108	F	-0.277989	0.721212	0.499901
H109	H	-0.521343	-0.289549	-0.000080
H110	H	-0.021343	0.210451	0.499920
H111	H	-1.020027	-0.083410	-0.587164
H112	H	-0.520027	0.416590	-0.087164
H113	H	-0.291853	-0.341088	-0.000078
H114	H	0.208147	0.158912	0.499922
F115	F	-0.131375	-0.345676	-0.000099
F116	F	0.368625	0.154324	0.499901
F117	F	-0.715715	-0.012528	-0.000100
F118	F	-0.215715	0.487472	0.499900
F119	F	-0.169944	-0.035698	-0.000150
F120	F	0.330056	0.464302	0.499850
F121	F	-0.813772	-0.287975	-0.599158
F122	F	-0.313772	0.212025	-0.099158
F123	F	-0.413890	-0.061382	-0.000111
F124	F	0.086110	0.438618	0.499889
H125	H	-0.325745	-0.068652	-0.000129
H126	H	0.174255	0.431348	0.499871
H127	H	-0.425333	-0.277132	-0.000101
H128	H	0.074667	0.222868	0.499899
H129	H	-1.051471	0.408501	-0.000094
H130	H	-0.551471	0.908501	0.499906
F131	F	-1.072059	0.241364	-0.000105
F132	F	-0.572059	0.741364	0.499895
