data_functionalizedCrystal
_audit_creation_method	'MofGen! by Chris Wilmer'
_symmetry_space_group_name_H-M	'P1'
_symmetry_Int_Tables_number	1
_symmetry_cell_setting	triclinic
loop_
_symmetry_equiv_pos_as_xyz
  x,y,z
_cell_length_a	19.077105
_cell_length_b	19.077068
_cell_length_c	19.077569
_cell_angle_alpha	89.935763
_cell_angle_beta	94.700723
_cell_angle_gamma	90.115316
loop_
_atom_site_label
_atom_site_type_symbol
_atom_site_fract_x
_atom_site_fract_y
_atom_site_fract_z
Zn1	Zn	1.081898	-0.305533	0.453630
Zn2	Zn	1.331898	-0.055533	0.703630
Zn3	Zn	1.581898	0.194467	0.953630
Zn4	Zn	1.831898	0.444467	1.203630
Zn5	Zn	1.072367	-0.427395	0.340438
Zn6	Zn	1.322367	-0.177395	0.590438
Zn7	Zn	1.572367	0.072605	0.840438
Zn8	Zn	1.822367	0.322605	1.090438
Zn9	Zn	0.959280	-0.305543	0.331026
Zn10	Zn	1.209280	-0.055543	0.581026
Zn11	Zn	1.459280	0.194457	0.831026
Zn12	Zn	1.709280	0.444457	1.081026
Zn13	Zn	0.959616	-0.418291	0.453207
Zn14	Zn	1.209616	-0.168291	0.703207
Zn15	Zn	1.459616	0.081709	0.953207
Zn16	Zn	1.709616	0.331709	1.203207
O17	O	1.018290	-0.364190	0.394575
O18	O	1.268290	-0.114190	0.644575
O19	O	1.518290	0.135810	0.894575
O20	O	1.768290	0.385810	1.144575
O21	O	1.179137	-0.325504	0.442731
O22	O	1.429137	-0.075504	0.692731
O23	O	1.679137	0.174496	0.942731
O24	O	1.929137	0.424496	1.192731
O25	O	1.053237	-0.415046	0.240685
O26	O	1.303237	-0.165046	0.490685
O27	O	1.553237	0.084954	0.740685
O28	O	1.803237	0.334954	0.990685
O29	O	0.979394	-0.207356	0.343527
O30	O	1.229394	0.042644	0.593527
O31	O	1.479394	0.292644	0.843527
O32	O	1.729394	0.542644	1.093527
O33	O	1.172134	-0.415036	0.359569
O34	O	1.422134	-0.165036	0.609569
O35	O	1.672134	0.084964	0.859569
O36	O	1.922134	0.334964	1.109569
O37	O	1.069481	-0.207349	0.433604
O38	O	1.319481	0.042651	0.683604
O39	O	1.569481	0.292651	0.933604
O40	O	1.819481	0.542651	1.183604
O41	O	0.970152	-0.325521	0.233770
O42	O	1.220152	-0.075521	0.483770
O43	O	1.470152	0.174479	0.733770
O44	O	1.720152	0.424479	0.983770
O45	O	0.860822	-0.316693	0.343117
O46	O	1.110822	-0.066693	0.593117
O47	O	1.360822	0.183307	0.843117
O48	O	1.610822	0.433307	1.093117
O49	O	0.979966	-0.399519	0.551767
O50	O	1.229966	-0.149519	0.801767
O51	O	1.479966	0.100481	1.051767
O52	O	1.729966	0.350481	1.301767
O53	O	0.861068	-0.399528	0.432883
O54	O	1.111068	-0.149528	0.682883
O55	O	1.361068	0.100472	0.932883
O56	O	1.611068	0.350472	1.182883
O57	O	1.069807	-0.316676	0.552078
O58	O	1.319807	-0.066676	0.802078
O59	O	1.569807	0.183324	1.052078
O60	O	1.819807	0.433324	1.302078
O61	O	1.053562	-0.524373	0.359159
O62	O	1.303562	-0.274373	0.609159
O63	O	1.553562	-0.024373	0.859159
O64	O	1.803562	0.225627	1.109159
O65	O	0.970724	-0.517684	0.442010
O66	O	1.220724	-0.267684	0.692010
O67	O	1.470724	-0.017684	0.942010
O68	O	1.720724	0.232316	1.192010
C69	C	0.835404	-0.357124	0.386933
C70	C	1.085404	-0.107124	0.636933
C71	C	1.335404	0.142876	0.886933
C72	C	1.585404	0.392876	1.136933
C73	C	0.757165	-0.354118	0.383681
C74	C	1.007165	-0.104118	0.633681
C75	C	1.257165	0.145882	0.883681
C76	C	1.507165	0.395882	1.133681
C77	C	0.720549	-0.395903	0.428822
C78	C	0.970549	-0.145903	0.678822
C79	C	1.220549	0.104097	0.928822
C80	C	1.470549	0.354097	1.178822
C81	C	0.647035	-0.393069	0.425769
C82	C	0.897035	-0.143069	0.675769
C83	C	1.147035	0.106931	0.925769
C84	C	1.397035	0.356931	1.175769
C85	C	0.610138	-0.348452	0.377573
C86	C	0.860138	-0.098452	0.627573
C87	C	1.110138	0.151548	0.877573
C88	C	1.360138	0.401548	1.127573
C89	C	0.646759	-0.306662	0.332430
C90	C	0.896759	-0.056662	0.582430
C91	C	1.146759	0.193338	0.832430
C92	C	1.396759	0.443338	1.082430
C93	C	0.720272	-0.309493	0.335487
C94	C	0.970272	-0.059493	0.585487
C95	C	1.220272	0.190507	0.835487
C96	C	1.470272	0.440507	1.085487
C97	C	0.390264	-0.335349	0.363431
C98	C	0.640264	-0.085349	0.613431
C99	C	0.890264	0.164651	0.863431
C100	C	1.140264	0.414651	1.113431
C101	C	0.316746	-0.332522	0.360376
C102	C	0.566746	-0.082522	0.610376
C103	C	0.816746	0.167478	0.860376
C104	C	1.066746	0.417478	1.110376
C105	C	0.317027	-0.418929	0.453717
C106	C	0.567027	-0.168929	0.703717
C107	C	0.817027	0.081071	0.953717
C108	C	1.067027	0.331071	1.203717
C109	C	0.390541	-0.421759	0.456766
C110	C	0.640541	-0.171759	0.706766
C111	C	0.890541	0.078241	0.956766
C112	C	1.140541	0.328241	1.206766
C113	C	0.427156	-0.379966	0.411626
C114	C	0.677156	-0.129966	0.661626
C115	C	0.927156	0.120034	0.911626
C116	C	1.177156	0.370034	1.161626
N117	N	0.534995	-0.345555	0.374450
N118	N	0.784995	-0.095555	0.624450
N119	N	1.034995	0.154445	0.874450
N120	N	1.284995	0.404445	1.124450
N121	N	0.502298	-0.382860	0.414753
N122	N	0.752298	-0.132860	0.664753
N123	N	1.002298	0.117140	0.914753
N124	N	1.252298	0.367140	1.164753
C125	C	1.011165	-0.546487	0.401576
C126	C	1.261165	-0.296487	0.651576
C127	C	1.511165	-0.046487	0.901576
C128	C	1.761165	0.203513	1.151576
C129	C	1.008182	-0.624475	0.404598
C130	C	1.258182	-0.374475	0.654598
C131	C	1.508182	-0.124475	0.904598
C132	C	1.758182	0.125525	1.154598
C133	C	1.049946	-0.664574	0.362920
C134	C	1.299946	-0.414574	0.612920
C135	C	1.549946	-0.164574	0.862920
C136	C	1.799946	0.085426	1.112920
C137	C	1.047145	-0.737852	0.365766
C138	C	1.297145	-0.487852	0.615766
C139	C	1.547145	-0.237852	0.865766
C140	C	1.797145	0.012148	1.115766
C141	C	1.002575	-0.771031	0.410287
C142	C	1.252575	-0.521031	0.660287
C143	C	1.502575	-0.271031	0.910287
C144	C	1.752575	-0.021031	1.160287
C145	C	0.960809	-0.730927	0.451969
C146	C	1.210809	-0.480927	0.701969
C147	C	1.460809	-0.230927	0.951969
C148	C	1.710809	0.019073	1.201969
C149	C	0.963615	-0.657650	0.449126
C150	C	1.213615	-0.407650	0.699126
C151	C	1.463615	-0.157650	0.949126
C152	C	1.713615	0.092350	1.199126
C153	C	0.989560	-0.989815	0.423414
C154	C	1.239560	-0.739815	0.673414
C155	C	1.489560	-0.489815	0.923414
C156	C	1.739560	-0.239815	1.173414
C157	C	0.986756	-1.063097	0.426252
C158	C	1.236756	-0.813097	0.676252
C159	C	1.486756	-0.563097	0.926252
C160	C	1.736756	-0.313097	1.176252
C161	C	1.073093	-1.070017	0.340050
C162	C	1.323093	-0.820017	0.590050
C163	C	1.573093	-0.570017	0.840050
C164	C	1.823093	-0.320017	1.090050
C165	C	1.075891	-0.996738	0.337208
C166	C	1.325891	-0.746738	0.587208
C167	C	1.575891	-0.496738	0.837208
C168	C	1.825891	-0.246738	1.087208
C169	C	1.034128	-0.956641	0.378893
C170	C	1.284128	-0.706641	0.628893
C171	C	1.534128	-0.456641	0.878893
C172	C	1.784128	-0.206641	1.128893
N173	N	0.999709	-0.845933	0.413195
N174	N	1.249709	-0.595933	0.663195
N175	N	1.499709	-0.345933	0.913195
N176	N	1.749709	-0.095933	1.163195
N177	N	1.036998	-0.881740	0.375988
N178	N	1.286998	-0.631740	0.625988
N179	N	1.536998	-0.381740	0.875988
N180	N	1.786998	-0.131740	1.125988
C181	C	1.201891	-0.371285	0.402247
C182	C	1.451891	-0.121285	0.652247
C183	C	1.701891	0.128715	0.902247
C184	C	1.951891	0.378715	1.152247
C185	C	1.280130	-0.374308	0.405517
C186	C	1.530130	-0.124308	0.655517
C187	C	1.780130	0.125692	0.905517
C188	C	2.030130	0.375692	1.155517
C189	C	1.025987	-0.357080	0.578178
C190	C	1.275987	-0.107080	0.828178
C191	C	1.525987	0.142920	1.078178
C192	C	1.775987	0.392920	1.328178
C193	C	1.029267	-0.354051	0.656418
C194	C	1.279267	-0.104051	0.906418
C195	C	1.529267	0.145949	1.156418
C196	C	1.779267	0.395949	1.406418
C197	C	1.025463	-0.181182	0.387563
C198	C	1.275463	0.068818	0.637563
C199	C	1.525463	0.318818	0.887563
C200	C	1.775463	0.568818	1.137563
C201	C	1.028520	-0.103195	0.384575
C202	C	1.278520	0.146805	0.634575
C203	C	1.528520	0.396805	0.884575
C204	C	1.778520	0.646805	1.134575
C205	C	1.010666	-0.371224	0.211686
C206	C	1.260666	-0.121224	0.461686
C207	C	1.510666	0.128776	0.711686
C208	C	1.760666	0.378776	0.961686
C209	C	1.007530	-0.374061	0.133444
C210	C	1.257530	-0.124061	0.383444
C211	C	1.507530	0.125939	0.633444
C212	C	1.757530	0.375939	0.883444
C213	C	0.984034	-0.395756	0.693015
C214	C	1.234034	-0.145756	0.943015
C215	C	1.484034	0.104244	1.193015
C216	C	1.734034	0.354244	1.443015
C217	C	0.987121	-0.392909	0.766531
C218	C	1.237121	-0.142909	1.016531
C219	C	1.487121	0.107091	1.266531
C220	C	1.737121	0.357091	1.516531
C221	C	1.035439	-0.348353	0.803448
C222	C	1.285439	-0.098353	1.053448
C223	C	1.535439	0.151647	1.303448
C224	C	1.785439	0.401647	1.553448
C225	C	1.080677	-0.306647	0.766846
C226	C	1.330677	-0.056647	1.016846
C227	C	1.580677	0.193353	1.266846
C228	C	1.830677	0.443353	1.516846
C229	C	1.077592	-0.309497	0.693332
C230	C	1.327592	-0.059497	0.943332
C231	C	1.577592	0.190503	1.193332
C232	C	1.827592	0.440503	1.443332
C233	C	1.049684	-0.335205	1.023329
C234	C	1.299684	-0.085205	1.273329
C235	C	1.549684	0.164795	1.523329
C236	C	1.799684	0.414795	1.773329
C237	C	1.052764	-0.332356	1.096848
C238	C	1.302764	-0.082356	1.346848
C239	C	1.552764	0.167644	1.596848
C240	C	1.802764	0.417644	1.846848
C241	C	0.959208	-0.418620	1.096527
C242	C	1.209208	-0.168620	1.346527
C243	C	1.459208	0.081380	1.596527
C244	C	1.709208	0.331380	1.846527
C245	C	0.956125	-0.421464	1.023012
C246	C	1.206125	-0.171464	1.273012
C247	C	1.456125	0.078536	1.523012
C248	C	1.706125	0.328536	1.773012
C249	C	1.001365	-0.379760	0.986417
C250	C	1.251365	-0.129760	1.236417
C251	C	1.501365	0.120240	1.486417
C252	C	1.751365	0.370240	1.736417
N253	N	1.038595	-0.345441	0.878593
N254	N	1.288595	-0.095441	1.128593
N255	N	1.538595	0.154559	1.378593
N256	N	1.788595	0.404559	1.628593
N257	N	0.998213	-0.382676	0.911274
N258	N	1.248213	-0.132676	1.161274
N259	N	1.498213	0.117324	1.411274
N260	N	1.748213	0.367324	1.661274
H261	H	0.287207	-0.452953	0.490468
H262	H	0.537207	-0.202953	0.740468
H263	H	0.787207	0.047047	0.990468
H264	H	1.037207	0.297047	1.240468
Br265	Br	0.597345	-0.449779	0.487036
Br266	Br	0.847345	-0.199779	0.737036
Br267	Br	1.097345	0.050221	0.987036
Br268	Br	1.347345	0.300221	1.237036
Br269	Br	1.103833	-0.792269	0.309205
Br270	Br	1.353833	-0.542269	0.559205
Br271	Br	1.603833	-0.292269	0.809205
Br272	Br	1.853833	-0.042269	1.059205
H273	H	0.944680	-0.432029	0.662962
H274	H	1.194680	-0.182029	0.912962
H275	H	1.444680	0.067971	1.162962
H276	H	1.694680	0.317971	1.412962
H277	H	0.950288	-0.426870	0.796325
H278	H	1.200288	-0.176870	1.046325
H279	H	1.450288	0.073130	1.296325
H280	H	1.700288	0.323130	1.546325
H281	H	1.086237	-0.637565	0.326664
H282	H	1.336237	-0.387565	0.576664
H283	H	1.586237	-0.137565	0.826664
H284	H	1.836237	0.112435	1.076664
H285	H	0.924523	-0.757947	0.488222
H286	H	1.174523	-0.507947	0.738222
H287	H	1.424523	-0.257947	0.988222
H288	H	1.674523	-0.007947	1.238222
H289	H	0.950471	-1.090108	0.462519
H290	H	1.200471	-0.840108	0.712519
H291	H	1.450471	-0.590108	0.962519
H292	H	1.700471	-0.340108	1.212519
Br293	Br	1.146258	-0.246183	0.816947
Br294	Br	1.396258	0.003817	1.066947
Br295	Br	1.646258	0.253817	1.316947
Br296	Br	1.896258	0.503817	1.566947
H297	H	1.086522	-0.301247	0.993542
H298	H	1.336522	-0.051247	1.243542
H299	H	1.586522	0.198753	1.493542
H300	H	1.836522	0.448753	1.743542
H301	H	0.420577	-0.458093	0.496011
H302	H	0.670577	-0.208093	0.746011
H303	H	0.920577	0.041907	0.996011
H304	H	1.170577	0.291907	1.246011
Br305	Br	1.136391	-0.951715	0.276794
Br306	Br	1.386391	-0.701715	0.526794
Br307	Br	1.636391	-0.451715	0.776794
Br308	Br	1.886391	-0.201715	1.026794
Br309	Br	1.129772	-1.124438	0.283484
Br310	Br	1.379772	-0.874438	0.533484
Br311	Br	1.629772	-0.624438	0.783484
Br312	Br	1.879772	-0.374438	1.033484
Br313	Br	0.890542	-0.481928	0.972914
Br314	Br	1.140542	-0.231928	1.222914
Br315	Br	1.390542	0.018072	1.472914
Br316	Br	1.640542	0.268072	1.722914
H317	H	0.955553	-0.957173	0.457354
H318	H	1.205553	-0.707173	0.707354
H319	H	1.455553	-0.457173	0.957354
H320	H	1.705553	-0.207173	1.207354
Br321	Br	0.906937	-0.603229	0.505696
Br322	Br	1.156937	-0.353229	0.755696
Br323	Br	1.406937	-0.103229	1.005696
Br324	Br	1.656937	0.146771	1.255696
H325	H	0.922376	-0.452573	1.126331
H326	H	1.172376	-0.202573	1.376331
H327	H	1.422376	0.047427	1.626331
H328	H	1.672376	0.297427	1.876331
H329	H	0.286707	-0.296181	0.321132
H330	H	0.536707	-0.046181	0.571132
H331	H	0.786707	0.203819	0.821132
H332	H	1.036707	0.453819	1.071132
Br333	Br	1.118308	-0.271847	1.146946
Br334	Br	1.368308	-0.021847	1.396946
Br335	Br	1.618308	0.228153	1.646946
Br336	Br	1.868308	0.478153	1.896946
H337	H	1.114426	-0.275537	0.663536
H338	H	1.364426	-0.025537	0.913536
H339	H	1.614426	0.224463	1.163536
H340	H	1.864426	0.474463	1.413536
H341	H	0.420066	-0.301323	0.326669
H342	H	0.670066	-0.051323	0.576669
H343	H	0.920066	0.198677	0.826669
H344	H	1.170066	0.448677	1.076669
Br345	Br	0.596687	-0.246102	0.267026
Br346	Br	0.846687	0.003898	0.517026
Br347	Br	1.096687	0.253898	0.767026
Br348	Br	1.346687	0.503898	1.017026
Br349	Br	0.769966	-0.252777	0.274226
Br350	Br	1.019966	-0.002777	0.524226
Br351	Br	1.269966	0.247223	0.774226
Br352	Br	1.519966	0.497223	1.024226
Br353	Br	0.770616	-0.456464	0.494230
Br354	Br	1.020616	-0.206464	0.744230
Br355	Br	1.270616	0.043536	0.994230
Br356	Br	1.520616	0.293536	1.244230
