data_functionalizedCrystal
_audit_creation_method	'MofGen! by Chris Wilmer'
_symmetry_space_group_name_H-M	'P1'
_symmetry_Int_Tables_number	1
_symmetry_cell_setting	triclinic
loop_
_symmetry_equiv_pos_as_xyz
  x,y,z
_cell_length_a	15.712078
_cell_length_b	19.188924
_cell_length_c	14.750779
_cell_angle_alpha	77.399495
_cell_angle_beta	106.492891
_cell_angle_gamma	101.361556
loop_
_atom_site_label
_atom_site_type_symbol
_atom_site_fract_x
_atom_site_fract_y
_atom_site_fract_z
O1	O	1.126581	0.392880	-0.080071
O2	O	1.626581	0.892880	0.419929
O3	O	0.875140	0.339774	-0.080020
O4	O	1.375140	0.839774	0.419980
O5	O	1.008122	0.266542	-0.080036
O6	O	1.508122	0.766542	0.419964
O7	O	0.993599	0.466113	-0.080055
O8	O	1.493599	0.966113	0.419945
O9	O	1.045715	0.245843	0.079610
O10	O	1.545715	0.745843	0.579610
O11	O	0.912732	0.319076	0.079626
O12	O	1.412732	0.819076	0.579626
O13	O	1.164174	0.372181	0.079575
O14	O	1.664174	0.872181	0.579575
Zn15	Zn	1.044422	0.342342	0.104948
Zn16	Zn	1.544422	0.842342	0.604948
Zn17	Zn	0.994892	0.369613	-0.105393
Zn18	Zn	1.494892	0.869613	0.394607
O19	O	1.031191	0.445414	0.079591
O20	O	1.531191	0.945414	0.579591
C21	C	0.861768	0.320750	-0.000190
C22	C	1.361768	0.820750	0.499810
C23	C	0.765916	0.294891	-0.000170
C24	C	1.265916	0.794891	0.499830
C25	C	0.397962	0.514424	-0.000258
C26	C	0.897962	1.014424	0.499742
C27	C	0.307888	0.490115	-0.000280
C28	C	0.807888	0.990115	0.499720
C29	C	0.328971	0.368296	-0.000270
C30	C	0.828971	0.868296	0.499730
C31	C	0.419047	0.392595	-0.000253
C32	C	0.919047	0.892595	0.499747
C33	C	0.453536	0.465660	-0.000246
C34	C	0.953536	0.965660	0.499754
C35	C	0.474621	0.343830	-0.000241
C36	C	0.974621	0.843830	0.499759
C37	C	0.564691	0.368127	-0.000219
C38	C	1.064691	0.868127	0.499781
C39	C	0.599187	0.441188	-0.000209
C40	C	1.099187	0.941188	0.499791
C41	C	0.543606	0.489956	-0.000224
C42	C	1.043606	0.989956	0.499776
C43	C	0.440132	0.270765	-0.000241
C44	C	0.940132	0.770765	0.499759
C45	C	0.495706	0.222000	-0.000229
C46	C	0.995706	0.722000	0.499771
C47	C	0.585776	0.246298	-0.000214
C48	C	1.085776	0.746298	0.499786
C49	C	0.620272	0.319359	-0.000204
C50	C	1.120272	0.819359	0.499796
C51	C	0.641357	0.197530	-0.000199
C52	C	1.141357	0.697530	0.499801
C53	C	0.731427	0.221826	-0.000177
C54	C	1.231427	0.721826	0.499823
C55	C	0.710342	0.343656	-0.000182
C56	C	1.210342	0.843656	0.499818
C57	C	1.026450	0.230060	-0.000212
C58	C	1.526450	0.730060	0.499788
C59	C	1.025042	0.152192	-0.000209
C60	C	1.525042	0.652192	0.499791
C61	C	1.003893	0.126906	-0.087232
C62	C	1.503893	0.626906	0.412768
C63	C	1.002556	0.053740	-0.087239
C64	C	1.502556	0.553740	0.412761
C65	C	1.022386	0.005864	-0.000218
C66	C	1.522386	0.505864	0.499782
C67	C	1.043533	0.031156	0.086817
C68	C	1.543533	0.531156	0.586817
C69	C	1.044861	0.104320	0.086821
C70	C	1.544861	0.604320	0.586821
N71	N	1.084692	-0.110062	0.064540
N72	N	1.584692	0.389938	0.564540
N73	N	1.083431	-0.179564	0.064530
N74	N	1.583431	0.320436	0.564530
C75	C	1.018384	-0.214575	-0.000226
C76	C	1.518384	0.285425	0.499774
N77	N	0.954654	-0.177456	-0.064987
N78	N	1.454654	0.322544	0.435013
N79	N	0.955918	-0.107947	-0.064979
N80	N	1.455918	0.392053	0.435021
C81	C	1.020948	-0.073471	-0.000213
C82	C	1.520948	0.426529	0.499787
C83	C	0.995782	-0.319195	-0.087263
C84	C	1.495782	0.180805	0.412737
C85	C	0.994441	-0.392364	-0.087266
C86	C	1.494441	0.107636	0.412734
C87	C	1.035427	-0.414945	0.086792
C88	C	1.535427	0.085055	0.586792
C89	C	1.036760	-0.341779	0.086793
C90	C	1.536760	0.158221	0.586793
C91	C	1.016941	-0.293907	-0.000237
C92	C	1.516941	0.206093	0.499763
C93	C	1.177545	0.391206	-0.000257
C94	C	1.677545	0.891206	0.499743
C95	C	1.273396	0.417065	-0.000283
C96	C	1.773396	0.917065	0.499717
C97	C	1.012863	0.481896	-0.000235
C98	C	1.512863	0.981896	0.499765
C99	C	1.014270	0.559765	-0.000245
C100	C	1.514270	1.059765	0.499755
N101	N	1.078231	0.323731	0.248499
N102	N	1.578231	0.823731	0.748499
N103	N	0.961090	0.388221	-0.248944
N104	N	1.461090	0.888221	0.251056
C105	C	0.866666	0.440167	0.600343
C106	C	1.366666	0.940167	1.100343
C107	C	0.890363	0.427132	0.700839
C108	C	1.390363	0.927132	1.200839
C109	C	1.008143	0.362326	0.700788
C110	C	1.508143	0.862326	1.200788
C111	C	0.984453	0.375352	0.600289
C112	C	1.484453	0.875352	1.100289
C113	C	0.913714	0.414274	0.550075
C114	C	1.413714	0.914274	1.050075
C115	C	1.031501	0.349459	0.550021
C116	C	1.531501	0.849459	1.050021
C117	C	1.007815	0.362488	0.449532
C118	C	1.507815	0.862488	0.949532
C119	C	0.937081	0.401410	0.399310
C120	C	1.437081	0.901410	0.899310
C121	C	0.890028	0.427303	0.449585
C122	C	1.390028	0.927303	0.949585
C123	C	1.102244	0.310542	0.600238
C124	C	1.602244	0.810542	1.100238
C125	C	1.149292	0.284649	0.549970
C126	C	1.649292	0.784649	1.049970
C127	C	1.125602	0.297673	0.449479
C128	C	1.625602	0.797673	0.949479
C129	C	1.054868	0.336595	0.399257
C130	C	1.554868	0.836595	0.899257
C131	C	1.172655	0.271780	0.399204
C132	C	1.672655	0.771780	0.899204
C133	C	1.148969	0.284809	0.298714
C134	C	1.648969	0.784809	0.798714
C135	C	1.031182	0.349624	0.298767
C136	C	1.531182	0.849624	0.798767
H137	H	0.672529	0.460969	-0.000188
H138	H	1.172529	0.960969	0.499812
H139	H	1.065742	0.330637	0.741684
H140	H	1.565742	0.830637	1.241684
H141	H	0.613266	0.138038	-0.000192
H142	H	1.113266	0.638038	0.499808
N143	N	0.293753	0.293661	-0.000269
N144	N	0.793753	0.793661	0.499731
N145	N	0.326697	0.246855	0.067027
N146	N	0.826697	0.746855	0.567027
H147	H	0.301827	0.194143	0.067027
H148	H	0.801827	0.694143	0.567027
H149	H	0.917800	0.412021	0.317485
H150	H	1.417800	0.912021	0.817485
N151	N	0.433208	0.589059	-0.000266
N152	N	0.933208	1.089059	0.499734
N153	N	0.465298	0.624934	-0.067551
N154	N	0.965298	1.124934	0.432449
H155	H	0.490192	0.677643	-0.067557
H156	H	0.990192	1.177643	0.432443
N157	N	1.066463	0.130139	0.175726
N158	N	1.566463	0.630139	0.675726
N159	N	1.084159	0.087388	0.253420
N160	N	1.584159	0.587388	0.753420
H161	H	1.099416	0.105623	0.316211
H162	H	1.599416	0.605623	0.816211
N163	N	1.126446	0.297231	0.702886
N164	N	1.626446	0.797231	1.202886
N165	N	1.203673	0.320025	0.747716
N166	N	1.703673	0.820025	1.247716
H167	H	1.220764	0.310624	0.820212
H168	H	1.720764	0.810624	1.320212
H169	H	0.776677	0.182117	-0.000170
H170	H	1.276677	0.682117	0.499830
H171	H	1.206891	0.252960	0.590866
H172	H	1.706891	0.752960	1.090866
N173	N	1.244921	0.232040	0.450517
N174	N	1.744921	0.732040	0.950517
N175	N	1.266069	0.220422	0.540239
N176	N	1.766069	0.720422	1.040239
H177	H	1.317111	0.192358	0.576481
H178	H	1.817111	0.692358	1.076481
H179	H	0.832420	0.458991	0.408698
H180	H	1.332420	0.958991	0.908698
H181	H	1.187282	0.263725	0.257786
H182	H	1.687282	0.763725	0.757786
H183	H	0.366794	0.250983	-0.000247
H184	H	0.866794	0.750983	0.499753
H185	H	0.571688	0.549453	-0.000217
H186	H	1.071688	1.049453	0.499783
N187	N	0.975549	-0.270288	-0.176155
N188	N	1.475549	0.229712	0.323845
N189	N	1.022534	-0.261796	-0.234436
N190	N	1.522534	0.238204	0.265564
H191	H	1.008246	-0.227255	-0.297217
H192	H	1.508246	0.272745	0.202783
N193	N	0.745585	0.418289	-0.000161
N194	N	1.245585	0.918289	0.499839
N195	N	0.809314	0.436702	0.067148
N196	N	1.309314	0.936702	0.567148
H197	H	0.834207	0.489409	0.067166
H198	H	1.334207	0.989409	0.567166
N199	N	0.251134	0.539940	-0.000284
N200	N	0.751134	1.039940	0.499716
N201	N	0.281944	0.605171	-0.000271
N202	N	0.781944	1.105171	0.499729
H203	H	0.241863	0.640360	-0.000270
H204	H	0.741863	1.140360	0.499730
N205	N	0.460476	0.147367	-0.000219
N206	N	0.960476	0.647367	0.499781
N207	N	0.428396	0.111483	0.067067
N208	N	0.928396	0.611483	0.567067
H209	H	0.403516	0.058772	0.067074
H210	H	0.903516	0.558772	0.567074
N211	N	0.983645	0.175794	-0.176136
N212	N	1.483645	0.675794	0.323864
N213	N	0.964760	0.153202	-0.253831
N214	N	1.464760	0.653202	0.246169
H215	H	0.950458	0.187730	-0.316622
H216	H	1.450458	0.687730	0.183378
H217	H	0.977213	-0.412949	-0.158134
H218	H	1.477213	0.087051	0.341866
H219	H	0.985328	0.033148	-0.158106
H220	H	1.485328	0.533148	0.341894
N221	N	1.063779	-0.017755	0.175698
N222	N	1.563779	0.482245	0.675698
N223	N	1.062591	-0.083078	0.175683
N224	N	1.562591	0.416922	0.675683
H225	H	1.076886	-0.117623	0.238458
H226	H	1.576886	0.382377	0.738458
N227	N	1.055669	-0.463852	0.175674
N228	N	1.555669	0.036148	0.675674
N229	N	1.054474	-0.529176	0.175661
N230	N	1.554474	-0.029176	0.675661
H231	H	1.068765	-0.563722	0.238436
H232	H	1.568765	-0.063722	0.738436
H233	H	1.053989	-0.321191	0.157656
H234	H	1.553989	0.178809	0.657656
N235	N	0.958925	0.389388	0.247478
N236	N	1.458925	0.889388	0.747478
N237	N	0.962500	0.452708	0.258697
N238	N	1.462500	0.952708	0.758697
H239	H	0.911472	0.480791	0.222474
H240	H	1.411472	0.980791	0.722474
H241	H	0.809057	0.471855	0.559456
H242	H	1.309057	0.971855	1.059456
H243	H	0.852045	0.448222	0.741762
H244	H	1.352045	0.948222	1.241762
