data_functionalizedCrystal
_audit_creation_method	'MofGen! by Chris Wilmer'
_symmetry_space_group_name_H-M	'P1'
_symmetry_Int_Tables_number	1
_symmetry_cell_setting	triclinic
loop_
_symmetry_equiv_pos_as_xyz
  x,y,z
_cell_length_a	14.519709
_cell_length_b	17.699083
_cell_length_c	16.776229
_cell_angle_alpha	90.001114
_cell_angle_beta	89.992406
_cell_angle_gamma	96.518420
loop_
_atom_site_label
_atom_site_type_symbol
_atom_site_fract_x
_atom_site_fract_y
_atom_site_fract_z
O1	O	0.116624	-1.004412	-0.066178
O2	O	0.131797	-0.784077	-0.066204
O3	O	-0.010052	-0.900087	-0.066183
O4	O	0.258474	-0.888403	-0.066199
O5	O	-0.010061	-0.900071	0.066393
O6	O	0.131789	-0.784062	0.066372
O7	O	0.116616	-1.004397	0.066398
Zn8	Zn	0.124201	-0.894227	0.087435
Zn9	Zn	0.124212	-0.894247	-0.087241
O10	O	0.258465	-0.888388	0.066377
C11	C	0.131249	-0.755871	0.000080
C12	C	0.129618	-0.671848	0.000071
C13	C	-0.044414	-0.899534	0.000105
C14	C	-0.146789	-0.897903	0.000105
C15	C	0.117164	-1.032603	0.000112
C16	C	0.118795	-1.116626	0.000116
C17	C	-0.521659	-0.891896	0.000084
C18	C	-0.417358	-0.893564	0.000090
C19	C	-0.334227	-0.894899	0.000095
C20	C	-0.229920	-0.896568	0.000100
C21	C	0.292827	-0.888940	0.000087
C22	C	0.395202	-0.890572	0.000082
N23	N	0.124192	-0.894219	0.206646
C24	C	0.212881	-0.623466	0.000066
C25	C	0.211343	-0.544518	0.000076
C26	C	0.126541	-0.513954	0.000086
C27	C	0.043272	-0.562343	0.000093
C28	C	0.044811	-0.641289	0.000088
C29	C	0.037064	-0.243962	0.000113
C30	C	0.035531	-0.165010	0.000115
C31	C	0.203596	-0.147191	0.000101
C32	C	0.205135	-0.226137	0.000097
C33	C	0.121866	-0.274519	0.000108
C34	C	0.123535	-0.360123	0.000098
C35	C	0.124872	-0.428352	0.000090
N36	N	0.124213	-0.894262	-0.206452
C37	C	0.061407	-0.945603	0.248372
C38	C	0.061406	-0.945607	0.331824
C39	C	0.124196	-0.894230	0.373549
C40	C	0.186984	-0.842840	0.331816
C41	C	0.186980	-0.842833	0.248366
C42	C	0.187002	-0.842867	0.668364
C43	C	0.187004	-0.842880	0.751820
C44	C	0.061429	-0.945642	0.751822
C45	C	0.061424	-0.945635	0.668372
C46	C	0.124209	-0.894242	0.626647
C47	C	0.124208	-0.894238	0.536158
C48	C	0.124202	-0.894238	0.464036
H49	H	0.279144	-0.505128	0.000072
O50	O	0.248099	-0.792995	0.207866
C51	C	0.339376	-0.805404	0.228254
H52	H	0.339739	-0.866000	0.251187
H53	H	0.366530	-0.763495	0.276694
C54	C	0.401468	-0.719293	0.125947
C55	C	0.401914	-0.793720	0.154106
H56	H	0.440046	-0.712082	0.080211
H57	H	0.339973	-0.710930	0.112212
H58	H	0.424094	-0.684377	0.166321
H59	H	0.379277	-0.828634	0.113737
H60	H	0.463407	-0.802089	0.167833
O61	O	0.247870	-0.792933	0.792441
C62	C	0.198542	-0.746180	0.840713
H63	H	0.126334	-0.776237	0.853218
H64	H	0.192353	-0.690233	0.808564
C65	C	0.339249	-0.693164	0.904622
C66	C	0.250564	-0.730084	0.919985
H67	H	0.371339	-0.683231	0.953519
H68	H	0.372483	-0.724660	0.872098
H69	H	0.334079	-0.646546	0.877829
H70	H	0.255735	-0.776705	0.946768
H71	H	0.217332	-0.698595	0.952516
O72	O	0.248083	-0.792922	0.627963
C73	C	0.303487	-0.747569	0.682688
H74	H	0.304483	-0.778609	0.742168
H75	H	0.273628	-0.691310	0.691579
C76	C	0.401778	-0.693971	0.577053
C77	C	0.403006	-0.732098	0.650106
H78	H	0.463165	-0.684424	0.556955
H79	H	0.364449	-0.724524	0.540183
H80	H	0.376891	-0.647092	0.584473
H81	H	0.427882	-0.778979	0.642684
H82	H	0.440342	-0.701552	0.686974
H83	H	0.010281	-0.987448	0.365798
H84	H	0.238106	-0.801004	0.365793
O85	O	0.000236	-0.995466	0.627943
C86	C	-0.090985	-0.982984	0.648461
H87	H	-0.091249	-0.922369	0.671369
H88	H	-0.118094	-1.024851	0.696958
C89	C	-0.153332	-1.069120	0.546280
C90	C	-0.153657	-0.994670	0.574410
H91	H	-0.191993	-1.076332	0.500603
H92	H	-0.091875	-1.077532	0.532458
H93	H	-0.175920	-1.104001	0.586701
H94	H	-0.131058	-0.959791	0.533992
H95	H	-0.215112	-0.986252	0.588223
O96	O	0.295340	-0.653026	0.000091
C97	C	0.368499	-0.593389	0.000071
H98	H	0.342763	-0.539728	0.025175
H99	H	0.394178	-0.582249	-0.063534
C100	C	0.480100	-0.681688	0.021221
C101	C	0.448493	-0.615782	0.052062
H102	H	0.529446	-0.695501	0.053289
H103	H	0.430813	-0.721867	0.021232
H104	H	0.501493	-0.672396	-0.031782
H105	H	0.427090	-0.625078	0.105060
H106	H	0.497779	-0.575605	0.052061
O107	O	0.000465	-0.995488	0.792479
C108	C	0.013941	-0.984493	0.875082
H109	H	0.048497	-0.924368	0.886484
H110	H	0.060133	-1.027390	0.898753
C111	C	-0.122862	-1.069599	0.903931
C112	C	-0.080426	-0.995750	0.917936
H113	H	-0.181070	-1.076547	0.930366
H114	H	-0.131939	-1.077010	0.848280
H115	H	-0.084359	-1.105339	0.923657
H116	H	-0.118923	-0.960012	0.898201
H117	H	-0.071357	-0.988334	0.973585
O118	O	0.287592	-0.255700	0.000123
C119	C	0.360754	-0.196066	0.000103
H120	H	0.335021	-0.142403	0.025206
H121	H	0.386436	-0.184929	-0.063501
C122	C	0.472348	-0.284370	0.021259
C123	C	0.440745	-0.218462	0.052097
H124	H	0.521692	-0.298185	0.053327
H125	H	0.423058	-0.324547	0.021269
H126	H	0.493743	-0.275080	-0.031745
H127	H	0.419340	-0.227755	0.105095
H128	H	0.490033	-0.178286	0.052096
H129	H	0.271397	-0.107789	0.000096
H130	H	-0.030739	-0.283346	0.000123
O131	O	-0.046931	-0.135445	0.000165
C132	C	-0.120098	-0.195076	0.000155
H133	H	-0.094370	-0.248741	0.025250
H134	H	-0.145777	-0.206212	-0.063445
C135	C	-0.231686	-0.106767	0.021337
C136	C	-0.200088	-0.172677	0.052166
H137	H	-0.281030	-0.092950	0.053416
H138	H	-0.182393	-0.066592	0.021340
H139	H	-0.253078	-0.116055	-0.031663
H140	H	-0.178686	-0.163385	0.105160
H141	H	-0.249380	-0.212851	0.052172
H142	H	-0.022990	-0.680683	0.000091
H143	H	0.010280	-0.987444	0.214406
O144	O	-0.039025	-0.532531	0.000068
C145	C	-0.022531	-0.452476	0.000089
H146	H	0.049480	-0.434033	-0.025016
H147	H	-0.026954	-0.430496	0.063694
C148	C	-0.184261	-0.442284	-0.021061
C149	C	-0.095818	-0.419632	-0.051902
H150	H	-0.229469	-0.422023	-0.053128
H151	H	-0.195374	-0.496218	-0.021072
H152	H	-0.187933	-0.423965	0.031942
H153	H	-0.092143	-0.437958	-0.104900
H154	H	-0.084706	-0.365699	-0.051901
