data_functionalizedCrystal
_audit_creation_method	'MofGen! by Chris Wilmer'
_symmetry_space_group_name_H-M	'P1'
_symmetry_Int_Tables_number	1
_symmetry_cell_setting	triclinic
loop_
_symmetry_equiv_pos_as_xyz
  x,y,z
_cell_length_a	19.288864
_cell_length_b	15.995350
_cell_length_c	17.766277
_cell_angle_alpha	89.995869
_cell_angle_beta	89.976791
_cell_angle_gamma	83.314311
loop_
_atom_site_label
_atom_site_type_symbol
_atom_site_fract_x
_atom_site_fract_y
_atom_site_fract_z
O1	O	0.921624	0.104452	-0.062832
O2	O	0.719400	0.118542	-0.062780
O3	O	0.826040	-0.010412	-0.062807
O4	O	0.814984	0.233405	-0.062805
O5	O	0.826021	-0.010418	0.062382
O6	O	0.719381	0.118535	0.062408
O7	O	0.921605	0.104445	0.062357
Cu8	Cu	0.820492	0.111490	0.073813
Cu9	Cu	0.820514	0.111497	-0.074237
O10	O	0.814965	0.233399	0.062383
C11	C	0.693513	0.118085	-0.000179
C12	C	0.616406	0.116724	-0.000159
C13	C	0.571906	0.192388	-0.000171
C14	C	0.499456	0.191110	-0.000179
C15	C	0.471508	0.114163	-0.000191
C16	C	0.516018	0.038489	-0.000176
C17	C	0.588467	0.039769	-0.000160
C18	C	0.363096	0.053676	-0.044076
C19	C	0.290648	0.052398	-0.044097
C20	C	0.248053	0.110209	-0.000237
C21	C	0.277912	0.169312	0.043634
C22	C	0.350361	0.170593	0.043650
C23	C	0.392951	0.112765	-0.000208
C24	C	0.124993	0.184492	-0.000256
C25	C	0.052542	0.183210	-0.000260
C26	C	0.069106	0.030587	-0.000264
C27	C	0.141556	0.031871	-0.000253
C28	C	0.169495	0.108826	-0.000252
C29	C	0.825574	-0.041608	-0.000214
C30	C	0.824203	-0.134553	-0.000218
C31	C	0.819282	-0.472282	-0.000214
C32	C	0.743335	-0.424562	-0.000475
C33	C	0.744706	-0.327877	-0.000193
C34	C	0.821723	-0.304731	-0.000216
C35	C	0.859172	-0.345953	0.071262
C36	C	0.857264	-0.442582	0.071322
C37	C	0.858855	-0.442939	-0.071041
C38	C	0.858837	-0.345993	-0.071986
C39	C	0.823107	-0.210039	-0.000215
C40	C	0.817901	-0.566975	-0.000210
C41	C	0.947492	0.104902	-0.000246
C42	C	1.024600	0.106263	-0.000271
C43	C	0.815432	0.264595	-0.000211
C44	C	0.816802	0.357540	-0.000212
N45	N	0.820481	0.111484	0.177944
N46	N	0.820530	0.111497	-0.178367
C47	C	0.867717	0.054411	0.217319
C48	C	0.867721	0.054407	0.296120
C49	C	0.820496	0.111490	0.335544
C50	C	0.773251	0.168567	0.296160
C51	C	0.773244	0.168564	0.217359
C52	C	0.811395	0.187781	0.460384
C53	C	0.811407	0.187785	0.539183
C54	C	0.820514	0.111500	0.578590
C55	C	0.829624	0.035208	0.539190
C56	C	0.829617	0.035204	0.460389
C57	C	0.820498	0.111500	0.420990
C58	C	0.867757	0.054419	0.703411
C59	C	0.867756	0.054414	0.782215
C60	C	0.773290	0.168581	0.782252
C61	C	0.773288	0.168579	0.703451
C62	C	0.820525	0.111499	0.664035
H63	H	0.374670	0.218713	0.079373
H64	H	0.243232	0.216387	0.079349
Br65	Br	0.695641	-0.280310	-0.085593
H66	H	0.831457	-0.318638	-0.124863
H67	H	0.906219	0.007934	0.814274
H68	H	0.624700	-0.021848	-0.000151
Br69	Br	0.841973	-0.068330	0.406918
H70	H	0.906218	0.007938	0.671318
H71	H	0.147742	0.247153	-0.000245
Br72	Br	0.953481	-0.322771	0.075669
Br73	Br	0.709191	0.246043	0.835749
H74	H	0.016310	0.244828	-0.000265
Br75	Br	0.817476	-0.476999	-0.161341
Br76	Br	0.931820	-0.023056	0.163825
H77	H	0.837040	-0.026911	0.571273
H78	H	0.913023	-0.475041	0.074549
Br79	Br	0.709182	0.246041	0.650007
H80	H	0.712988	-0.442976	-0.051732
Br81	Br	0.952449	-0.320737	-0.079216
H82	H	0.914850	-0.474911	-0.071538
H83	H	0.734799	0.215044	0.328262
H84	H	0.803994	0.249907	0.571257
Br85	Br	0.799104	0.291323	0.406910
H86	H	0.906187	0.007930	0.328186
H87	H	0.177789	-0.029743	-0.000247
H88	H	0.266342	0.004277	-0.079822
Br89	Br	0.692806	-0.457432	0.084247
Br90	Br	0.709133	0.246025	0.163917
H91	H	0.594649	0.255051	-0.000172
H92	H	0.715054	-0.299903	0.051147
H93	H	0.833147	-0.317477	0.124469
H94	H	0.397772	0.006598	-0.079796
Br95	Br	0.811721	-0.472923	0.160402
H96	H	0.046352	-0.032065	-0.000320
Br97	Br	0.478092	-0.065941	-0.000184
Br98	Br	0.439051	0.293804	-0.000190
