data_functionalizedCrystal
_audit_creation_method	'MofGen! by Chris Wilmer'
_symmetry_space_group_name_H-M	'P1'
_symmetry_Int_Tables_number	1
_symmetry_cell_setting	triclinic
loop_
_symmetry_equiv_pos_as_xyz
  x,y,z
_cell_length_a	16.959455
_cell_length_b	18.101397
_cell_length_c	16.959447
_cell_angle_alpha	90.033674
_cell_angle_beta	90.020374
_cell_angle_gamma	90.017485
loop_
_atom_site_label
_atom_site_type_symbol
_atom_site_fract_x
_atom_site_fract_y
_atom_site_fract_z
Zn1	Zn	1.208382	-0.294874	0.447018
Zn2	Zn	1.708382	0.205126	0.947018
Zn3	Zn	1.208303	-0.418727	0.314832
Zn4	Zn	1.708303	0.081273	0.814832
Zn5	Zn	1.076210	-0.294897	0.314841
Zn6	Zn	1.576210	0.205103	0.814841
Zn7	Zn	1.076174	-0.418672	0.446956
Zn8	Zn	1.576174	0.081328	0.946956
O9	O	1.142267	-0.356792	0.380912
O10	O	1.642267	0.143208	0.880912
O11	O	1.318982	-0.311316	0.429505
O12	O	1.818982	0.188684	0.929505
O13	O	1.190763	-0.402333	0.204222
O14	O	1.690763	0.097667	0.704222
O15	O	1.093791	-0.191261	0.332405
O16	O	1.593791	0.308739	0.832405
O17	O	1.318925	-0.402311	0.332388
O18	O	1.818925	0.097689	0.832388
O19	O	1.190897	-0.191244	0.429514
O20	O	1.690897	0.308756	0.929514
O21	O	1.093715	-0.311356	0.204229
O22	O	1.593715	0.188644	0.704229
O23	O	0.965594	-0.311303	0.332345
O24	O	1.465594	0.188697	0.832345
O25	O	1.093729	-0.402217	0.557575
O26	O	1.593729	0.097783	1.057575
O27	O	0.965568	-0.402239	0.429409
O28	O	1.465568	0.097761	0.929409
O29	O	1.190862	-0.311263	0.557621
O30	O	1.690862	0.188737	1.057621
O31	O	1.190728	-0.522352	0.332328
O32	O	1.690728	-0.022352	0.832328
O33	O	1.093653	-0.522312	0.429400
O34	O	1.593653	-0.022312	0.929400
C35	C	0.936901	-0.356768	0.380872
C36	C	1.436901	0.143232	0.880872
C37	C	0.849044	-0.356776	0.380874
C38	C	1.349044	0.143224	0.880874
C39	C	0.477528	-0.404126	0.330317
C40	C	0.977528	0.095874	0.830317
C41	C	0.477609	-0.309520	0.431602
C42	C	0.977609	0.190480	0.931602
C43	C	0.560155	-0.309508	0.431583
C44	C	1.060155	0.190492	0.931583
C45	C	0.601391	-0.356806	0.380931
C46	C	1.101391	0.143194	0.880931
C47	C	0.560082	-0.404117	0.330298
C48	C	1.060082	0.095883	0.830298
C49	C	0.601471	-0.262203	0.482221
C50	C	1.101471	0.237797	0.982221
C51	C	0.684022	-0.262190	0.482204
C52	C	1.184022	0.237810	0.982204
C53	C	0.725260	-0.309485	0.431548
C54	C	1.225260	0.190515	0.931548
C55	C	0.683945	-0.356797	0.380912
C56	C	1.183945	0.143203	0.880912
C57	C	0.725181	-0.404096	0.330260
C58	C	1.225181	0.095904	0.830260
C59	C	0.683868	-0.451404	0.279620
C60	C	1.183868	0.048596	0.779620
C61	C	0.601319	-0.451412	0.279642
C62	C	1.101319	0.048588	0.779642
C63	C	0.807808	-0.309477	0.431526
C64	C	1.307808	0.190523	0.931526
C65	C	0.807735	-0.404086	0.330241
C66	C	1.307735	0.095914	0.830241
C67	C	1.142200	-0.549203	0.380873
C68	C	1.642200	-0.049203	0.880873
C69	C	1.142243	-0.631517	0.380884
C70	C	1.642243	-0.131517	0.880884
C71	C	1.142344	-0.930608	0.380956
C72	C	1.642344	-0.430608	0.880956
C73	C	1.203250	-0.899277	0.319717
C74	C	1.703250	-0.399277	0.819717
C75	C	1.203461	-0.813659	0.319876
C76	C	1.703461	-0.313659	0.819876
C77	C	1.142294	-0.782225	0.380919
C78	C	1.642294	-0.282225	0.880919
C79	C	1.164869	-0.813230	0.464238
C80	C	1.664869	-0.313230	0.964238
C81	C	1.165340	-0.898875	0.463904
C82	C	1.665340	-0.398875	0.963904
C83	C	1.058700	-0.899114	0.359596
C84	C	1.558700	-0.399114	0.859596
C85	C	1.059113	-0.813465	0.357737
C86	C	1.559113	-0.313465	0.857737
C87	C	1.142264	-0.698366	0.380904
C88	C	1.642264	-0.198366	0.880904
C89	C	1.142375	-1.014467	0.380977
C90	C	1.642375	-0.514467	0.880977
C91	C	1.348435	-0.356817	0.380952
C92	C	1.848435	0.143183	0.880952
C93	C	1.436292	-0.356828	0.380969
C94	C	1.936292	0.143172	0.880969
C95	C	1.142300	-0.356731	0.587080
C96	C	1.642300	0.143269	1.087080
C97	C	1.142314	-0.356705	0.674937
C98	C	1.642314	0.143295	1.174937
C99	C	1.142357	-0.163630	0.380968
C100	C	1.642357	0.336370	0.880968
C101	C	1.142395	-0.081316	0.380991
C102	C	1.642395	0.418684	0.880991
C103	C	1.142280	-0.356800	0.175546
C104	C	1.642280	0.143200	0.675546
C105	C	1.142419	-0.356617	0.087689
C106	C	1.642419	0.143383	0.587689
C107	C	1.091836	-0.403982	1.046391
C108	C	1.591836	0.096018	1.546391
C109	C	1.192981	-0.309271	1.046434
C110	C	1.692981	0.190729	1.546434
C111	C	1.192960	-0.309287	0.963888
C112	C	1.692960	0.190713	1.463888
C113	C	1.142377	-0.356652	0.922590
C114	C	1.642377	0.143348	1.422590
C115	C	1.091815	-0.404001	0.963838
C116	C	1.591815	0.095999	1.463838
C117	C	1.243527	-0.261944	0.922634
C118	C	1.743527	0.238056	1.422634
C119	C	1.243508	-0.261959	0.840083
C120	C	1.743508	0.238041	1.340083
C121	C	1.192921	-0.309320	0.798783
C122	C	1.692921	0.190680	1.298783
C123	C	1.142356	-0.356671	0.840036
C124	C	1.642356	0.143329	1.340036
C125	C	1.091773	-0.404035	0.798738
C126	C	1.591773	0.095965	1.298738
C127	C	1.041204	-0.451382	0.839990
C128	C	1.541204	0.048618	1.339990
C129	C	1.041228	-0.451362	0.922538
C130	C	1.541228	0.048638	1.422538
C131	C	1.192897	-0.309340	0.716235
C132	C	1.692897	0.190660	1.216235
C133	C	1.091752	-0.404054	0.716185
C134	C	1.591752	0.095946	1.216185
H135	H	1.189338	-0.792700	0.258097
H136	H	1.689338	-0.292700	0.758097
H137	H	0.567675	-0.489928	0.238413
H138	H	1.067675	0.010072	0.738413
H139	H	0.443887	-0.442642	0.289085
H140	H	0.943887	0.057358	0.789085
N141	N	0.435479	-0.261220	0.483342
N142	N	0.935479	0.238780	0.983342
N143	N	0.361775	-0.261240	0.483355
N144	N	0.861775	0.238760	0.983355
H145	H	0.332016	-0.227126	0.519898
H146	H	0.832016	0.272874	1.019898
N147	N	1.281182	-0.787876	0.337612
N148	N	1.781182	-0.287876	0.837612
N149	N	1.292744	-0.748374	0.396981
N150	N	1.792744	-0.248374	0.896981
H151	H	1.347637	-0.730162	0.409506
H152	H	1.847637	-0.230162	0.909506
N153	N	0.989563	-0.499718	0.964663
N154	N	1.489563	0.000282	1.464663
N155	N	0.944390	-0.541994	0.927785
N156	N	1.444390	-0.041994	1.427785
H157	H	0.907896	-0.576141	0.957537
H158	H	1.407896	-0.076141	1.457537
N159	N	0.559364	-0.213913	0.533988
N160	N	1.059364	0.286087	1.033988
N161	N	0.596256	-0.171697	0.579216
N162	N	1.096256	0.328303	1.079216
H163	H	0.566515	-0.137600	0.615790
H164	H	1.066515	0.362400	1.115790
H165	H	0.841442	-0.270961	0.472758
H166	H	1.341442	0.229039	0.972758
N167	N	1.037735	-0.788064	0.280819
N168	N	1.537735	-0.288064	0.780819
N169	N	1.024846	-0.833556	0.226852
N170	N	1.524846	-0.333556	0.726852
H171	H	1.009746	-0.815614	0.172528
H172	H	1.509746	-0.315614	0.672528
H173	H	1.011292	-0.792075	0.399073
H174	H	1.511292	-0.292075	0.899073
N175	N	0.725981	-0.499715	0.227869
N176	N	1.225981	0.000285	0.727869
N177	N	0.689093	-0.541948	0.182656
N178	N	1.189093	-0.041948	0.682656
H179	H	0.718837	-0.576066	0.146107
H180	H	1.218837	-0.076066	0.646107
H181	H	0.717653	-0.223668	0.523438
H182	H	1.217653	0.276332	1.023438
H183	H	1.000023	-0.489950	0.806354
H184	H	1.500023	0.010050	1.306354
H185	H	1.189298	-0.919923	0.257753
H186	H	1.689298	-0.419923	0.757753
N187	N	1.280550	-0.926216	0.337247
N188	N	1.780550	-0.426216	0.837247
N189	N	1.290978	-0.968388	0.394645
N190	N	1.790978	-0.468388	0.894645
H191	H	1.345570	-0.987415	0.407028
H192	H	1.845570	-0.487415	0.907028
N193	N	1.040183	-0.452334	1.088535
N194	N	1.540183	0.047666	1.588535
N195	N	1.040200	-0.452310	1.162239
N196	N	1.540200	0.047690	1.662239
H197	H	1.003719	-0.486459	1.192005
H198	H	1.503719	0.013541	1.692005
H199	H	0.841303	-0.442600	0.288990
H200	H	1.341303	0.057400	0.788990
H201	H	1.013320	-0.919375	0.404199
H202	H	1.513320	-0.419375	0.904199
H203	H	1.050554	-0.442618	0.682566
H204	H	1.550554	0.057382	1.182566
N205	N	1.244651	-0.260905	1.088627
N206	N	1.744651	0.239095	1.588627
N207	N	1.244666	-0.260900	1.162331
N208	N	1.744666	0.239100	1.662331
H209	H	1.281160	-0.226739	1.192134
H210	H	1.781160	0.273261	1.692134
H211	H	1.284713	-0.223387	0.956264
H212	H	1.784713	0.276613	1.456264
H213	H	1.284684	-0.223405	0.806503
H214	H	1.784684	0.276595	1.306503
H215	H	1.226480	-0.918796	0.481997
H216	H	1.726480	-0.418796	0.981997
H217	H	1.234072	-0.270793	0.682651
H218	H	1.734072	0.229207	1.182651
N219	N	1.112100	-0.924864	0.523094
N220	N	1.612100	-0.424864	1.023094
N221	N	1.074718	-0.879748	0.564520
N222	N	1.574718	-0.379748	1.064520
H223	H	1.037118	-0.898100	0.606324
H224	H	1.537118	-0.398100	1.106324
H225	H	1.121864	-0.792866	0.511093
H226	H	1.621864	-0.292866	1.011093
N227	N	1.240704	-0.786248	0.487330
N228	N	1.740704	-0.286248	0.987330
N229	N	1.252197	-0.718307	0.493867
N230	N	1.752197	-0.218307	0.993867
H231	H	1.305756	-0.699250	0.510174
H232	H	1.805756	-0.199250	1.010174
H233	H	1.038161	-0.920776	0.299894
H234	H	1.538161	-0.420776	0.799894
