data_functionalizedCrystal
_audit_creation_method	'MofGen! by Chris Wilmer'
_symmetry_space_group_name_H-M	'P1'
_symmetry_Int_Tables_number	1
_symmetry_cell_setting	triclinic
loop_
_symmetry_equiv_pos_as_xyz
  x,y,z
_cell_length_a	17.699083
_cell_length_b	16.109293
_cell_length_c	16.776229
_cell_angle_alpha	90.004112
_cell_angle_beta	90.006081
_cell_angle_gamma	96.629358
loop_
_atom_site_label
_atom_site_type_symbol
_atom_site_fract_x
_atom_site_fract_y
_atom_site_fract_z
O1	O	0.097259	-1.102954	0.066353
O2	O	0.109372	-0.860870	0.066341
O3	O	-0.006864	-0.988751	0.066340
O4	O	0.213495	-0.975072	0.066353
O5	O	-0.006871	-0.988770	-0.066236
O6	O	0.109365	-0.860888	-0.066236
O7	O	0.097252	-1.102972	-0.066224
Zn8	Zn	0.103307	-0.981933	-0.087279
Zn9	Zn	0.103317	-0.981909	0.087396
O10	O	0.213488	-0.975091	-0.066223
C11	C	0.108879	-0.829905	0.000051
C12	C	0.107411	-0.737612	0.000046
C13	C	-0.035065	-0.988270	0.000052
C14	C	-0.119085	-0.986800	0.000051
C15	C	-0.167601	-1.061864	0.000054
C16	C	-0.246546	-1.060477	0.000061
C17	C	-0.276974	-0.984026	0.000060
C18	C	-0.228452	-0.908956	0.000059
C19	C	-0.149509	-0.910344	0.000058
C20	C	-0.546823	-0.903359	0.000065
C21	C	-0.625773	-0.901978	0.000064
C22	C	-0.643861	-1.053492	0.000068
C23	C	-0.564917	-1.054880	0.000067
C24	C	-0.516402	-0.979811	0.000071
C25	C	-0.430801	-0.981315	0.000065
C26	C	-0.362574	-0.982521	0.000060
C27	C	0.104012	-0.525286	-0.072219
C28	C	0.102625	-0.438568	-0.072218
C29	C	0.102637	-0.438558	0.072324
C30	C	0.104019	-0.525276	0.072322
C31	C	0.104711	-0.568637	0.000049
C32	C	0.101941	-0.395201	0.000051
C33	C	0.100437	-0.301178	0.000052
C34	C	0.106214	-0.662666	0.000047
C35	C	0.241689	-0.975572	0.000067
C36	C	0.325709	-0.977042	0.000073
C37	C	0.097752	-0.133936	0.000062
C38	C	0.099241	-0.226226	0.000053
N39	N	0.103318	-0.981893	0.206607
C40	C	0.051939	-1.038676	0.751772
C41	C	0.051939	-1.038666	0.668320
C42	C	0.103304	-0.981930	0.626607
C43	C	0.154668	-0.925193	0.668350
C44	C	0.154665	-0.925200	0.751801
C45	C	0.154683	-0.925166	0.331803
C46	C	0.154684	-0.925166	0.248347
C47	C	0.051957	-1.038633	0.248322
C48	C	0.051954	-1.038639	0.331772
C49	C	0.103315	-0.981900	0.373509
C50	C	0.103314	-0.981910	0.463997
C51	C	0.103309	-0.981923	0.536120
N52	N	0.103301	-0.981946	0.793510
H53	H	-0.286045	-1.121601	0.000061
H54	H	0.196488	-0.879003	0.785783
H55	H	-0.507331	-0.842233	0.000069
C56	C	-0.193419	-1.211495	0.000071
C57	C	-0.134159	-1.145903	0.000061
H58	H	-0.172773	-1.263377	0.000083
H59	H	-0.223836	-1.207812	-0.046160
H60	H	-0.223829	-1.207784	0.046305
H61	H	-0.103752	-1.149609	-0.046177
H62	H	-0.103729	-1.149587	0.046296
H63	H	0.102057	-0.403276	-0.131066
H64	H	0.196489	-0.878993	0.634383
H65	H	-0.253233	-0.846709	0.000063
H66	H	0.196505	-0.878969	0.365778
H67	H	0.010115	-1.084881	0.785729
C68	C	0.170880	-0.811978	0.154505
C69	C	0.211144	-0.862792	0.202491
H70	H	0.205735	-0.773478	0.126192
H71	H	0.139313	-0.782216	0.187058
H72	H	0.140295	-0.845780	0.117710
H73	H	0.241725	-0.828990	0.239289
H74	H	0.242724	-0.892556	0.169934
H75	H	0.104575	-0.560588	-0.131069
C76	C	-0.109777	-0.781616	0.068205
C77	C	-0.096177	-0.827831	0.000054
H78	H	-0.076855	-0.730673	0.068201
H79	H	-0.100548	-0.812967	0.114428
H80	H	-0.161149	-0.769854	0.068194
H81	H	-0.044806	-0.839598	0.000067
H82	H	-0.105400	-0.796474	-0.046182
C83	C	-0.590729	-1.204512	0.000081
C84	C	-0.531472	-1.138917	0.000072
H85	H	-0.570080	-1.256393	0.000092
H86	H	-0.621146	-1.200830	-0.046149
H87	H	-0.621139	-1.200805	0.046316
H88	H	-0.501065	-1.142621	-0.046166
H89	H	-0.501042	-1.142601	0.046307
C90	C	0.103902	-0.516561	0.215203
C91	C	0.104790	-0.572933	0.151765
H92	H	0.104380	-0.545984	0.264244
H93	H	0.059255	-0.489170	0.212199
H94	H	0.147476	-0.476306	0.212193
H95	H	0.061213	-0.613184	0.154771
H96	H	0.149441	-0.600337	0.154770
H97	H	-0.683372	-1.114617	0.000069
H98	H	0.010133	-1.084830	0.214331
C99	C	0.100533	-0.305621	0.136506
C100	C	0.101888	-0.390891	0.151764
H101	H	0.100077	-0.276195	0.185552
H102	H	0.056196	-0.297844	0.106819
H103	H	0.144416	-0.284991	0.106811
H104	H	0.058001	-0.411522	0.181455
H105	H	0.146229	-0.398673	0.181464
C106	C	-0.079029	-1.087909	0.357273
C107	C	-0.004576	-1.101001	0.377545
H108	H	-0.113948	-1.126405	0.385512
H109	H	-0.086305	-1.095976	0.301592
H110	H	-0.087329	-1.032468	0.370982
H111	H	0.003725	-1.156441	0.363831
H112	H	0.002703	-1.092941	0.433239
C113	C	-0.599967	-0.752338	0.000083
C114	C	-0.659221	-0.817936	0.000073
H115	H	-0.620619	-0.700458	0.000093
H116	H	-0.569559	-0.756026	-0.046147
H117	H	-0.569547	-0.756035	0.046318
H118	H	-0.689638	-0.814243	-0.046165
H119	H	-0.689642	-0.814246	0.046308
C120	C	-0.049584	-1.150850	0.676677
C121	C	-0.004508	-1.101039	0.622442
H122	H	-0.084428	-1.189363	0.648352
H123	H	-0.076895	-1.116374	0.709221
H124	H	-0.017998	-1.180604	0.709232
H125	H	-0.036094	-1.071280	0.589891
H126	H	0.022804	-1.135519	0.589884
