data_functionalizedCrystal
_audit_creation_method	'MofGen! by Chris Wilmer'
_symmetry_space_group_name_H-M	'P1'
_symmetry_Int_Tables_number	1
_symmetry_cell_setting	triclinic
loop_
_symmetry_equiv_pos_as_xyz
  x,y,z
_cell_length_a	16.109301
_cell_length_b	16.109302
_cell_length_c	15.186229
_cell_angle_alpha	89.994701
_cell_angle_beta	89.994833
_cell_angle_gamma	83.461631
loop_
_atom_site_label
_atom_site_type_symbol
_atom_site_fract_x
_atom_site_fract_y
_atom_site_fract_z
O1	O	0.106869	1.103130	-0.073271
O2	O	0.606869	1.603130	0.426729
O3	O	0.120168	0.861068	-0.073264
O4	O	0.620168	1.361068	0.426736
O5	O	-0.007513	0.988749	-0.073259
O6	O	0.492487	1.488749	0.426741
O7	O	0.234549	0.975450	-0.073276
O8	O	0.734549	1.475450	0.426724
O9	O	-0.007514	0.988740	0.073198
O10	O	0.492486	1.488740	0.573198
O11	O	0.120166	0.861060	0.073193
O12	O	0.620166	1.361060	0.573193
O13	O	0.106867	1.103122	0.073186
O14	O	0.606867	1.603122	0.573186
Zn15	Zn	0.113516	0.982089	0.096443
Zn16	Zn	0.613516	1.482089	0.596443
Zn17	Zn	0.113519	0.982101	-0.096521
Zn18	Zn	0.613519	1.482101	0.403479
O19	O	0.234547	0.975441	0.073181
O20	O	0.734547	1.475441	0.573181
C21	C	0.119628	0.830089	-0.000035
C22	C	0.619628	1.330089	0.499965
C23	C	0.118013	0.737794	-0.000032
C24	C	0.618013	1.237794	0.499968
C25	C	-0.038488	0.988206	-0.000030
C26	C	0.461512	1.488206	0.499970
C27	C	-0.130784	0.986591	-0.000028
C28	C	0.369216	1.486591	0.499972
C29	C	0.114276	0.525448	0.079793
C30	C	0.614276	1.025448	0.579793
C31	C	0.112750	0.438728	0.079790
C32	C	0.612750	0.938728	0.579790
C33	C	0.112756	0.438748	-0.079885
C34	C	0.612756	0.938748	0.420115
C35	C	0.114277	0.525467	-0.079881
C36	C	0.614277	1.025467	0.420119
C37	C	0.115041	0.568815	-0.000039
C38	C	0.615041	1.068815	0.499961
C39	C	0.111994	0.395375	-0.000046
C40	C	0.611994	0.895375	0.499954
C41	C	0.110338	0.301350	-0.000050
C42	C	0.610338	0.801350	0.499950
C43	C	0.116695	0.662847	-0.000035
C44	C	0.616695	1.162847	0.499965
C45	C	-0.353056	1.058599	-0.000044
C46	C	0.146944	1.558599	0.499956
C47	C	-0.439776	1.057074	-0.000052
C48	C	0.060224	1.557074	0.499948
C49	C	-0.419902	0.905586	-0.000044
C50	C	0.080098	1.405586	0.499956
C51	C	-0.333184	0.907111	-0.000043
C52	C	0.166816	1.407111	0.499957
C53	C	-0.299763	0.983620	-0.000039
C54	C	0.200237	1.483620	0.499961
C55	C	-0.473202	0.980571	-0.000047
C56	C	0.026798	1.480571	0.499953
C57	C	-0.567228	0.978918	-0.000055
C58	C	-0.067228	1.478918	0.499945
C59	C	-0.205731	0.985273	-0.000033
C60	C	0.294269	1.485273	0.499967
C61	C	0.265523	0.975984	-0.000050
C62	C	0.765523	1.475984	0.499950
C63	C	0.357819	0.977599	-0.000057
C64	C	0.857819	1.477599	0.499943
C65	C	0.107407	1.134101	-0.000045
C66	C	0.607407	1.634101	0.499955
C67	C	0.109022	1.226396	-0.000054
C68	C	0.609022	1.726396	0.499946
N69	N	0.113514	0.982088	0.228136
N70	N	0.613514	1.482088	0.728136
N71	N	0.113514	0.982109	-0.228214
N72	N	0.613514	1.482109	0.271786
C73	C	0.056996	1.038644	0.453861
C74	C	0.556996	1.538644	0.953861
C75	C	0.056994	1.038647	0.546051
C76	C	0.556994	1.538647	1.046051
C77	C	0.170035	0.925547	0.546055
C78	C	0.670035	1.425547	1.046055
C79	C	0.170032	0.925541	0.453867
C80	C	0.670032	1.425541	0.953867
C81	C	0.113514	0.982094	0.407772
C82	C	0.613514	1.482094	0.907772
C83	C	0.113514	0.982103	0.592150
C84	C	0.613514	1.482103	1.092150
C85	C	0.113513	0.982105	0.692106
C86	C	0.613513	1.482105	1.192106
C87	C	0.113514	0.982091	0.307810
C88	C	0.613514	1.482091	0.807810
H89	H	0.114899	0.560739	0.144806
H90	H	0.614899	1.060739	0.644806
H91	H	0.010972	1.084694	0.583573
H92	H	0.510972	1.584694	1.083573
C93	C	-0.581532	1.122003	-0.000070
C94	C	-0.081532	1.622003	0.499930
C95	C	-0.498357	1.139493	-0.000060
C96	C	0.001643	1.639493	0.499940
H97	H	-0.617696	1.172889	-0.000083
H98	H	-0.117696	1.672889	0.499917
H99	H	-0.591667	1.090638	0.051001
H100	H	-0.091667	1.590638	0.551001
H101	H	-0.591644	1.090632	-0.051145
H102	H	-0.091644	1.590632	0.448855
H103	H	-0.488243	1.170860	0.051019
H104	H	0.011757	1.670860	0.551019
H105	H	-0.488219	1.170872	-0.051136
H106	H	0.011781	1.670872	0.448864
C107	C	-0.544012	0.835983	-0.000031
C108	C	-0.044012	1.335983	0.499969
C109	C	-0.456642	0.821490	-0.000036
C110	C	0.043358	1.321490	0.499964
H111	H	-0.566690	0.784064	-0.000018
H112	H	-0.066690	1.284064	0.499982
H113	H	-0.562299	0.866847	-0.051104
H114	H	-0.062299	1.366847	0.448896
H115	H	-0.562301	0.866857	0.051043
H116	H	-0.062301	1.366857	0.551043
H117	H	-0.438353	0.790622	-0.051113
H118	H	0.061647	1.290622	0.448887
H119	H	-0.438348	0.790613	0.051042
H120	H	0.061652	1.290613	0.551042
H121	H	0.112127	0.403423	0.144798
H122	H	0.612127	0.903423	0.644798
H123	H	0.010975	1.084692	0.416333
H124	H	0.510975	1.584692	0.916333
C125	C	-0.322242	0.757211	-0.000027
C126	C	0.177758	1.257211	0.499973
C127	C	-0.274597	0.824687	-0.000034
C128	C	0.225403	1.324687	0.499966
H129	H	-0.286071	0.706330	-0.000018
H130	H	0.213929	1.206330	0.499982
H131	H	-0.356472	0.759766	-0.051096
H132	H	0.143528	1.259766	0.448904
H133	H	-0.356485	0.759770	0.051050
H134	H	0.143515	1.259770	0.551050
H135	H	-0.240358	0.822132	-0.051114
H136	H	0.259642	1.322132	0.448886
H137	H	-0.240352	0.822131	0.051041
H138	H	0.259648	1.322131	0.551041
H139	H	0.216052	0.879503	0.583594
H140	H	0.716052	1.379503	1.083594
C141	C	0.313955	0.876678	0.425463
C142	C	0.813955	1.376678	0.925463
C143	C	0.232164	0.863379	0.403199
C144	C	0.732164	1.363379	0.903199
H145	H	0.352307	0.838305	0.394177
H146	H	0.852307	1.338305	0.894177
H147	H	0.322042	0.868585	0.486955
H148	H	0.822042	1.368585	0.986955
H149	H	0.322987	0.932163	0.410339
H150	H	0.822987	1.432163	0.910339
H151	H	0.223129	0.807896	0.418328
H152	H	0.723129	1.307896	0.918328
H153	H	0.224073	0.871465	0.341692
H154	H	0.724073	1.371465	0.841692
H155	H	0.112134	0.403444	-0.144890
H156	H	0.612134	0.903444	0.355110
H157	H	0.114897	0.560777	-0.144895
H158	H	0.614897	1.060777	0.355105
H159	H	-0.325848	1.120897	-0.000043
H160	H	0.174152	1.620897	0.499957
