data_functionalizedCrystal
_audit_creation_method	'MofGen! by Chris Wilmer'
_symmetry_space_group_name_H-M	'P1'
_symmetry_Int_Tables_number	1
_symmetry_cell_setting	triclinic
loop_
_symmetry_equiv_pos_as_xyz
  x,y,z
_cell_length_a	18.760490
_cell_length_b	23.196402
_cell_length_c	23.196401
_cell_angle_alpha	60.007332
_cell_angle_beta	90.031758
_cell_angle_gamma	60.028764
loop_
_atom_site_label
_atom_site_type_symbol
_atom_site_fract_x
_atom_site_fract_y
_atom_site_fract_z
Zr1	Zr	0.686597	0.631207	-0.075567
O2	O	0.572792	0.751432	-0.167624
O3	O	0.721474	0.510957	-0.047349
O4	O	0.721453	0.631220	-0.167615
O5	O	0.572840	0.631167	0.047513
O6	O	0.838732	0.631260	-0.167604
O7	O	0.572812	0.631169	-0.047358
O8	O	0.838768	0.416131	0.047530
O9	O	0.572803	0.846296	-0.167621
O10	O	0.823884	0.560457	-0.035303
O11	O	0.736382	0.560426	0.035491
O12	O	0.736357	0.702021	-0.106107
O13	O	0.648855	0.701990	-0.035314
Zr14	Zr	0.873687	0.631268	0.075760
Zr15	Zr	0.873642	0.631270	-0.075549
Zr16	Zr	0.686641	0.631205	0.075742
Zr17	Zr	0.686616	0.782505	-0.075561
Zr18	Zr	0.873668	0.479970	0.075754
O19	O	0.838810	0.751518	0.047542
O20	O	0.838747	0.751521	-0.167599
O21	O	0.572855	0.751429	0.047517
O22	O	0.987492	0.511043	0.167818
O23	O	0.987429	0.511047	-0.047324
O24	O	0.721537	0.510954	0.167793
O25	O	0.987444	0.631308	-0.047320
O26	O	0.838831	0.631255	0.167808
O27	O	0.721552	0.631215	0.167797
O28	O	0.987472	0.631306	0.047552
O29	O	0.721480	0.846346	-0.167607
O30	O	0.838804	0.416129	0.167800
O31	O	0.987480	0.416179	0.167814
O32	O	0.987445	0.416181	0.047544
O33	O	0.572839	0.846294	-0.047350
O34	O	0.721515	0.846344	-0.047336
O35	O	0.823926	0.560455	0.106300
O36	O	0.911429	0.560485	0.035507
O37	O	0.823902	0.702049	-0.035297
O38	O	0.736399	0.702018	0.035496
C39	C	0.780118	0.441988	0.000090
C40	C	0.780110	0.377758	0.000087
C41	C	0.844736	0.295350	0.052354
C42	C	0.844742	0.234990	0.052360
C43	C	0.780129	0.257042	0.000089
C44	C	0.715491	0.339464	-0.052182
C45	C	0.715482	0.399822	-0.052183
C46	C	0.759993	0.201449	-0.063705
C47	C	0.760008	0.141090	-0.063704
C48	C	0.780152	0.070880	0.000092
C49	C	0.800300	0.061028	0.063892
C50	C	0.800291	0.121385	0.063891
C51	C	0.780131	0.191600	0.000085
C52	C	0.844788	-0.076981	0.052370
C53	C	0.844788	-0.137340	0.052377
C54	C	0.715541	-0.032863	-0.052171
C55	C	0.715538	0.027494	-0.052172
C56	C	0.780166	0.005430	0.000098
C57	C	0.546176	0.631159	0.000075
C58	C	0.466770	0.631133	0.000067
C59	C	0.130767	0.631322	-0.052148
C60	C	0.130914	0.631320	0.052388
C61	C	0.205561	0.631280	0.052377
C62	C	0.242815	0.631259	0.000103
C63	C	0.205422	0.631279	-0.052160
C64	C	0.242964	0.631251	0.104642
C65	C	0.317615	0.631210	0.104633
C66	C	0.354867	0.631195	0.052356
C67	C	0.317469	0.631216	0.000091
C68	C	0.354723	0.631195	-0.052183
C69	C	0.317323	0.631222	-0.104452
C70	C	0.242674	0.631264	-0.104437
C71	C	0.429516	0.631153	0.052341
C72	C	0.429378	0.631153	-0.052195
C73	C	1.014108	0.631316	0.000119
C74	C	1.093513	0.631342	0.000126
C75	C	0.780086	0.631240	-0.189168
C76	C	0.780067	0.631241	-0.253402
C77	C	0.780166	0.820487	0.000104
C78	C	0.780174	0.884717	0.000106
C79	C	0.734383	0.705134	-0.320534
C80	C	0.734405	0.705135	-0.380890
C81	C	0.780099	0.631239	-0.374109
C82	C	0.825793	0.557337	-0.306964
C83	C	0.825777	0.557338	-0.246611
C84	C	0.773603	0.574611	-0.441428
C85	C	0.773612	0.574613	-0.501782
C86	C	0.780155	0.631233	-0.560256
C87	C	0.786669	0.687865	-0.558376
C88	C	0.786653	0.687866	-0.498023
C89	C	0.780123	0.631230	-0.439547
C90	C	0.734493	0.705132	-0.692835
C91	C	0.734521	0.705130	-0.753190
C92	C	0.825903	0.557330	-0.679262
C93	C	0.825881	0.557334	-0.618910
C94	C	0.780171	0.631237	-0.625701
C95	C	0.780198	0.631235	0.189361
C96	C	0.780217	0.631234	0.253596
C97	C	1.014084	0.442066	0.000112
C98	C	1.093482	0.377863	0.000117
C99	C	0.780174	0.441985	0.189354
C100	C	0.780185	0.377754	0.253586
C101	C	1.014140	0.442063	0.189376
C102	C	1.093557	0.377859	0.253616
C103	C	0.546144	0.820412	-0.189183
C104	C	0.466727	0.884616	-0.253422
C105	C	0.546200	0.820409	0.000082
C106	C	0.466802	0.884612	0.000077
C107	C	0.780110	0.820490	-0.189161
C108	C	0.780099	0.884721	-0.253393
C109	C	1.085070	0.347698	-0.036849
C110	C	1.159666	0.287381	-0.036859
C111	C	1.242672	0.257225	0.000102
C112	C	1.251082	0.287397	0.037069
C113	C	1.176487	0.347717	0.037074
C114	C	0.825888	0.347606	0.320719
C115	C	0.825895	0.287262	0.381077
C116	C	0.780204	0.257065	0.374302
C117	C	0.734496	0.287220	0.307163
C118	C	0.734484	0.347566	0.246805
C119	C	1.176535	0.347724	0.246830
C120	C	1.251163	0.287406	0.307184
C121	C	1.242810	0.257220	0.374323
C122	C	1.159823	0.287361	0.381108
C123	C	1.085197	0.347682	0.320754
C124	C	0.383749	0.914758	-0.246636
C125	C	0.309121	0.975095	-0.306991
C126	C	0.317474	1.005285	-0.374130
C127	C	0.400461	0.975140	-0.380914
C128	C	0.475086	0.914808	-0.320561
C129	C	0.475213	0.914784	0.037036
C130	C	0.400618	0.975118	0.037029
C131	C	0.317612	1.005275	0.000066
C132	C	0.309202	0.975101	-0.036898
C133	C	0.383797	0.914772	-0.036895
C134	C	0.825798	0.914899	-0.246595
C135	C	0.825805	0.975243	-0.306942
C136	C	0.780106	1.005411	-0.374087
C137	C	0.734405	0.975227	-0.380883
C138	C	0.734404	0.914880	-0.320536
H139	H	0.816697	0.003863	0.115840
H140	H	0.862979	0.497164	-0.191947
C141	C	0.793885	0.750138	-0.622685
H142	H	0.792978	0.742020	-0.658895
H143	H	0.746120	0.803785	-0.639642
H144	H	0.847027	0.743012	-0.609193
H145	H	0.863012	0.890346	-0.191928
H146	H	0.697198	0.999799	-0.435560
H147	H	0.780220	0.207927	0.423455
H148	H	0.897361	0.277378	0.094917
C149	C	0.993774	0.380862	-0.077514
H150	H	0.999460	0.354258	-0.099535
H151	H	0.962772	0.370959	-0.045622
H152	H	0.962771	0.437833	-0.112489
C153	C	0.684119	0.881700	-0.328023
H154	H	0.656898	0.908321	-0.376656
H155	H	0.723537	0.824736	-0.306017
H156	H	0.640882	0.891593	-0.306026
C157	C	1.150400	0.254195	-0.077515
H158	H	1.090280	0.280785	-0.099514
H159	H	1.177583	0.264098	-0.112495
H160	H	1.177609	0.197223	-0.045610
H161	H	0.662917	0.094596	-0.094737
H162	H	0.863095	0.372186	0.326249
C163	C	0.876067	1.008444	-0.299454
H164	H	0.903266	0.981842	-0.250821
H165	H	0.919304	0.998565	-0.321447
H166	H	0.836627	1.065411	-0.321464
H167	H	0.662931	-0.014907	-0.094730
H168	H	0.212633	0.631262	0.147205
H169	H	0.816693	0.113360	0.115839
H170	H	1.303405	0.208108	0.000093
C171	C	0.684251	0.253988	0.299719
H172	H	0.690819	0.213723	0.345284
H173	H	0.624139	0.297280	0.274639
H174	H	0.706818	0.230439	0.274652
H175	H	0.897408	-0.094947	0.094935
H176	H	0.697270	0.372105	0.192146
H177	H	1.318675	0.262835	0.067161
H178	H	0.348061	0.631189	0.147192
C179	C	0.201542	0.631285	-0.161923
H180	H	0.234414	0.631274	-0.193062
H181	H	0.201616	0.584027	-0.140444
H182	H	0.143218	0.678580	-0.187737
C183	C	1.342437	0.254254	0.299709
H184	H	1.336716	0.280863	0.251078
H185	H	1.373457	0.264158	0.321709
H186	H	1.373441	0.197283	0.321718
H187	H	0.863119	0.262718	0.435739
C188	C	0.737833	0.278679	-0.133883
H189	H	0.740704	0.313218	-0.124748
H190	H	0.778514	0.263767	-0.156712
H191	H	0.680595	0.306705	-0.163479
H192	H	0.376936	0.890208	-0.066990
C193	C	1.150642	0.254153	0.454961
H194	H	1.090535	0.280740	0.450366
H195	H	1.177859	0.197184	0.480039
H196	H	1.177859	0.264061	0.480038
C197	C	1.185750	0.380883	0.077749
H198	H	1.245871	0.354274	0.099764
H199	H	1.158546	0.437851	0.045861
H200	H	1.158563	0.370966	0.112728
C201	C	1.185735	0.380923	0.172983
H202	H	1.129412	0.421162	0.138003
H203	H	1.216733	0.404480	0.167694
H204	H	1.216733	0.337605	0.167691
C205	C	1.324903	0.190862	0.440706
H206	H	1.375516	0.177236	0.427042
H207	H	1.324931	0.210633	0.468016
H208	H	1.324917	0.143767	0.468005
C209	C	0.684232	0.786420	-0.700300
H210	H	0.657039	0.830430	-0.748929
H211	H	0.640989	0.789487	-0.678315
H212	H	0.723672	0.789498	-0.678272
C213	C	0.993926	0.380815	0.328227
H214	H	0.999648	0.354188	0.376858
H215	H	0.962905	0.437782	0.306222
H216	H	0.962921	0.370898	0.306224
H217	H	0.862999	0.497171	-0.301447
C218	C	0.737845	0.151932	-0.133879
H219	H	0.725831	0.202396	-0.171875
H220	H	0.785966	0.108586	-0.133154
H221	H	0.688050	0.151518	-0.139909
C222	C	0.374544	0.881570	-0.172791
H223	H	0.314432	0.908178	-0.177404
H224	H	0.401742	0.824602	-0.147704
H225	H	0.401763	0.891476	-0.147714
H226	H	0.897369	0.167881	0.094924
C227	C	0.089636	0.631350	-0.109640
H228	H	0.122514	0.631337	-0.140775
H229	H	0.089702	0.584097	-0.088168
H230	H	0.031315	0.678650	-0.135457
C231	C	0.217847	1.008237	-0.299515
H232	H	0.223567	0.981602	-0.250885
H233	H	0.186837	1.065201	-0.321512
H234	H	0.186833	0.998334	-0.321528
C235	C	0.644420	0.363723	-0.109680
H236	H	0.653686	0.315973	-0.102198
H237	H	0.588646	0.395062	-0.107517
H238	H	0.647092	0.395092	-0.154800
C239	C	0.089937	0.631342	0.109884
H240	H	0.040120	0.631375	0.102404
H241	H	0.131396	0.584064	0.155004
H242	H	0.072998	0.678617	0.107707
C243	C	0.780107	1.071797	-0.440461
H244	H	0.813864	1.085451	-0.426790
H245	H	0.804556	1.052034	-0.467770
H246	H	0.721894	1.118872	-0.467766
C247	C	0.470658	0.631121	0.109829
H248	H	0.520455	0.631089	0.102338
H249	H	0.429260	0.678397	0.107669
H250	H	0.487657	0.583844	0.154951
H251	H	0.256701	1.054410	-0.423268
H252	H	0.768269	0.528505	-0.393820
C253	C	0.409642	1.008342	-0.454768
H254	H	0.469748	0.981756	-0.450172
H255	H	0.382415	0.998443	-0.479843
H256	H	0.382435	1.065314	-0.479848
H257	H	0.542649	0.890267	-0.326094
C258	C	0.566510	0.881621	0.077700
H259	H	0.560823	0.908243	0.099702
H260	H	0.597518	0.824655	0.112677
H261	H	0.597507	0.891525	0.045799
H262	H	0.407482	0.999675	0.067132
C263	C	0.235566	1.071632	0.000070
H264	H	0.252471	1.085273	0.027383
H265	H	0.201801	1.118713	-0.047015
H266	H	0.201816	1.051838	0.019862
H267	H	0.241609	0.999664	-0.066993
H268	H	0.697166	0.765312	-0.326070
H269	H	0.897414	-0.204443	0.094943
C270	C	0.644395	0.490474	-0.109682
H271	H	0.605915	0.494967	-0.140816
H272	H	0.612487	0.516181	-0.088217
H273	H	0.670934	0.516200	-0.135499
C274	C	0.470354	0.631126	-0.109696
H275	H	0.437391	0.631142	-0.140817
H276	H	0.470283	0.678379	-0.135517
H277	H	0.528669	0.583826	-0.088223
H278	H	0.347667	0.631200	-0.147011
H279	H	0.697202	0.765309	-0.435559
C280	C	0.793831	0.750147	-0.495950
H281	H	0.797736	0.783866	-0.539415
H282	H	0.743648	0.782876	-0.488793
H283	H	0.844556	0.722114	-0.458367
C284	C	0.876122	0.476051	-0.545062
H285	H	0.903334	0.432040	-0.549665
H286	H	0.919349	0.472991	-0.519960
H287	H	0.836672	0.472969	-0.520005
H288	H	0.697323	0.765305	-0.807854
C289	C	0.766444	0.512326	-0.503851
H290	H	0.767379	0.520440	-0.548172
H291	H	0.814213	0.458685	-0.467123
H292	H	0.713303	0.519437	-0.497544
C293	C	0.876166	0.476046	-0.671796
H294	H	0.869629	0.486627	-0.717355
H295	H	0.936270	0.445695	-0.646698
H296	H	0.853594	0.445672	-0.646739
