data_functionalizedCrystal
_audit_creation_method	'MofGen! by Chris Wilmer'
_symmetry_space_group_name_H-M	'P1'
_symmetry_Int_Tables_number	1
_symmetry_cell_setting	triclinic
loop_
_symmetry_equiv_pos_as_xyz
  x,y,z
_cell_length_a	16.992694
_cell_length_b	11.792241
_cell_length_c	15.455313
_cell_angle_alpha	92.683265
_cell_angle_beta	87.142206
_cell_angle_gamma	87.430819
loop_
_atom_site_label
_atom_site_type_symbol
_atom_site_fract_x
_atom_site_fract_y
_atom_site_fract_z
O1	O	1.044827	0.236106	-0.072022
O2	O	1.544827	0.736106	0.427978
O3	O	0.816531	0.233463	-0.072048
O4	O	1.316531	0.733463	0.427952
O5	O	0.936219	0.070068	-0.072029
O6	O	1.436219	0.570068	0.427971
O7	O	0.925139	0.399501	-0.072042
O8	O	1.425139	0.899501	0.427958
O9	O	0.929374	0.079370	0.072232
O10	O	1.429374	0.579370	0.572232
O11	O	0.809687	0.242766	0.072213
O12	O	1.309687	0.742766	0.572213
O13	O	1.037982	0.245409	0.072239
O14	O	1.537982	0.745409	0.572239
Cu15	Cu	0.923210	0.244937	0.085398
Cu16	Cu	1.423210	0.744937	0.585398
Cu17	Cu	0.931304	0.233935	-0.085207
Cu18	Cu	1.431304	0.733935	0.414793
O19	O	0.918295	0.408804	0.072219
O20	O	1.418295	0.908804	0.572219
C21	C	0.783882	0.234716	0.000079
C22	C	1.283882	0.734716	0.500079
C23	C	0.696795	0.224578	0.000070
C24	C	1.196795	0.724578	0.500070
C25	C	0.646971	0.322395	0.000066
C26	C	1.146971	0.822395	0.500066
C27	C	0.565143	0.312864	0.000079
C28	C	1.065143	0.812864	0.500079
C29	C	0.533142	0.205513	0.000088
C30	C	1.033142	0.705513	0.500088
C31	C	0.582973	0.107688	0.000094
C32	C	1.082973	0.607688	0.500094
C33	C	0.664799	0.117221	0.000088
C34	C	1.164799	0.617221	0.500088
C35	C	0.289375	0.166002	0.000113
C36	C	0.789375	0.666002	0.500113
C37	C	0.207543	0.156476	0.000117
C38	C	0.707543	0.656476	0.500117
C39	C	0.189719	0.361652	0.000103
C40	C	0.689719	0.861652	0.500103
C41	C	0.271548	0.371176	0.000091
C42	C	0.771548	0.871176	0.500091
C43	C	0.321371	0.273351	0.000102
C44	C	0.821371	0.773351	0.500102
N45	N	0.449501	0.195767	0.000098
N46	N	0.949501	0.695767	0.500098
N47	N	0.405010	0.283098	0.000098
N48	N	0.905010	0.783098	0.500098
C49	C	0.932101	0.032371	0.000102
C50	C	1.432101	0.532371	0.500102
C51	C	0.930017	-0.093813	0.000101
C52	C	1.430017	0.406187	0.500101
C53	C	0.926187	-0.324840	0.000086
C54	C	1.426187	0.175160	0.500086
C55	C	0.928315	-0.196280	0.000094
C56	C	1.428315	0.303720	0.500094
C57	C	1.070631	0.244155	0.000109
C58	C	1.570631	0.744155	0.500109
C59	C	1.157718	0.254293	0.000113
C60	C	1.657718	0.754293	0.500113
C61	C	0.922413	0.446501	0.000087
C62	C	1.422413	0.946501	0.500087
C63	C	0.924497	0.572684	0.000082
C64	C	1.424497	1.072684	0.500082
N65	N	0.917522	0.252674	0.205393
N66	N	1.417522	0.752674	0.705393
N67	N	0.936998	0.226189	-0.205202
N68	N	1.436998	0.726189	0.294798
C69	C	0.968388	0.183287	0.250795
C70	C	1.468388	0.683287	0.750795
C71	C	0.964094	0.189150	0.341602
C72	C	1.464094	0.689150	0.841602
C73	C	0.908938	0.264406	0.387005
C74	C	1.408938	0.764406	0.887005
C75	C	0.858067	0.333796	0.341597
C76	C	1.358067	0.833796	0.841597
C77	C	0.862358	0.327927	0.250791
C78	C	1.362358	0.827927	0.750791
C79	C	0.890417	0.289710	0.658584
C80	C	1.390417	0.789710	1.158584
C81	C	0.886132	0.295576	0.749396
C82	C	1.386132	0.795576	1.249396
C83	C	0.992158	0.150928	0.749395
C84	C	1.492158	0.650928	1.249395
C85	C	0.996447	0.145070	0.658588
C86	C	1.496447	0.645070	1.158588
C87	C	0.945574	0.214455	0.613187
C88	C	1.445574	0.714455	1.113187
N89	N	0.904549	0.270403	0.479825
N90	N	1.404549	0.770403	0.979825
N91	N	0.949959	0.208452	0.520369
N92	N	1.449959	0.708452	1.020369
H93	H	0.149144	0.441295	0.000096
H94	H	0.649144	0.941295	0.500096
N95	N	0.340264	0.066081	0.000099
N96	N	0.840264	0.566081	0.500099
N97	N	0.390789	0.044588	-0.060714
N98	N	0.890789	0.544588	0.439286
H99	H	0.426734	-0.025985	-0.060726
H100	H	0.926734	0.474015	0.439274
N101	N	1.052775	0.068189	0.612199
N102	N	1.552775	0.568189	1.112199
N103	N	1.056596	0.062957	0.531123
N104	N	1.556596	0.562957	1.031123
H105	H	1.096378	0.008660	0.498359
H106	H	1.596378	0.508660	0.998359
N107	N	0.550274	-0.001960	0.000113
N108	N	1.050274	0.498040	0.500113
N109	N	0.477215	-0.010459	0.000117
N110	N	0.977215	0.489541	0.500117
H111	H	0.454121	-0.087900	0.000129
H112	H	0.954121	0.412100	0.500129
H113	H	0.524579	0.392517	0.000075
H114	H	1.024579	0.892517	0.500075
N115	N	1.024718	0.106410	0.204408
N116	N	1.524718	0.606410	0.704408
N117	N	1.028543	0.101174	0.123332
N118	N	1.528543	0.601174	0.623332
H119	H	1.068326	0.046875	0.090571
H120	H	1.568326	0.546875	0.590571
H121	H	0.820937	0.384428	0.213825
H122	H	1.320937	0.884428	0.713825
N123	N	0.304221	0.480841	0.000071
N124	N	0.804221	0.980841	0.500071
N125	N	0.259725	0.568171	0.000063
N126	N	0.759725	1.068171	0.500063
H127	H	0.282800	0.645625	0.000042
H128	H	0.782800	1.145625	0.500042
N129	N	1.044115	0.080064	0.795785
N130	N	1.544115	0.580064	1.295785
N131	N	1.040281	0.085311	0.876860
N132	N	1.540281	0.585311	1.376860
H133	H	1.076976	0.035259	0.909624
H134	H	1.576976	0.535259	1.409624
H135	H	1.005512	0.132648	0.378568
H136	H	1.505512	0.632648	0.878568
H137	H	0.848996	0.346209	0.621625
H138	H	1.348996	0.846209	1.121625
N139	N	0.829779	0.372452	0.795762
N140	N	1.329779	0.872452	1.295762
N141	N	0.784357	0.434390	0.755217
N142	N	1.284357	0.934390	1.255217
H143	H	0.744557	0.488679	0.787962
H144	H	1.244557	0.988679	1.287962
N145	N	0.679669	0.432044	0.000049
N146	N	1.179669	0.932044	0.500049
N147	N	0.726216	0.456332	-0.060765
N148	N	1.226216	0.956332	0.439235
H149	H	0.749309	0.533774	-0.060775
H150	H	1.249309	1.033774	0.439225
H151	H	0.813154	0.395068	0.378569
H152	H	1.313154	0.895068	0.878569
H153	H	0.181491	0.069054	0.000123
H154	H	0.681491	0.569054	0.500123
N155	N	0.715684	0.017292	0.000101
N156	N	1.215684	0.517292	0.500101
N157	N	0.687104	-0.078551	0.000113
N158	N	1.187104	0.421449	0.500113
H159	H	0.723040	-0.149130	0.000128
H160	H	1.223040	0.350870	0.500128
