data_functionalizedCrystal
_audit_creation_method	'MofGen! by Chris Wilmer'
_symmetry_space_group_name_H-M	'P1'
_symmetry_Int_Tables_number	1
_symmetry_cell_setting	triclinic
loop_
_symmetry_equiv_pos_as_xyz
  x,y,z
_cell_length_a	16.625548
_cell_length_b	18.101395
_cell_length_c	16.625539
_cell_angle_alpha	90.027648
_cell_angle_beta	90.020568
_cell_angle_gamma	90.032172
loop_
_atom_site_label
_atom_site_type_symbol
_atom_site_fract_x
_atom_site_fract_y
_atom_site_fract_z
Zn1	Zn	1.232632	-0.294807	0.455913
Zn2	Zn	1.732632	0.205193	0.955913
Zn3	Zn	1.232515	-0.418656	0.321082
Zn4	Zn	1.732515	0.081344	0.821082
Zn5	Zn	1.097794	-0.294835	0.321094
Zn6	Zn	1.597794	0.205165	0.821094
Zn7	Zn	1.097744	-0.418614	0.455872
Zn8	Zn	1.597744	0.081386	0.955872
O9	O	1.165171	-0.356728	0.388490
O10	O	1.665171	0.143272	0.888490
O11	O	1.345449	-0.311242	0.438040
O12	O	1.845449	0.188758	0.938040
O13	O	1.214616	-0.402261	0.208251
O14	O	1.714616	0.097739	0.708251
O15	O	1.115750	-0.191199	0.339000
O16	O	1.615750	0.308801	0.839000
O17	O	1.345363	-0.402233	0.338980
O18	O	1.845363	0.097767	0.838980
O19	O	1.214815	-0.191178	0.438051
O20	O	1.714815	0.308822	0.938051
O21	O	1.115637	-0.311290	0.208260
O22	O	1.615637	0.188710	0.708260
O23	O	0.984955	-0.311249	0.338960
O24	O	1.484955	0.188751	0.838960
O25	O	1.115665	-0.402161	0.568710
O26	O	1.615665	0.097839	1.068710
O27	O	0.984918	-0.402188	0.437981
O28	O	1.484918	0.097812	0.937981
O29	O	1.214767	-0.311201	0.568740
O30	O	1.714767	0.188799	1.068740
O31	O	1.214567	-0.522284	0.338940
O32	O	1.714567	-0.022284	0.838940
O33	O	1.115552	-0.522252	0.437969
O34	O	1.615552	-0.022252	0.937969
C35	C	0.955680	-0.356718	0.388467
C36	C	1.455680	0.143282	0.888467
C37	C	0.866059	-0.356731	0.388477
C38	C	1.366059	0.143269	0.888477
C39	C	1.165063	-0.549139	0.388466
C40	C	1.665063	-0.049139	0.888466
C41	C	1.165091	-0.631453	0.388483
C42	C	1.665091	-0.131453	0.888483
C43	C	0.537884	-0.356736	0.388511
C44	C	1.037884	0.143264	0.888511
C45	C	0.629192	-0.356732	0.388499
C46	C	1.129192	0.143268	0.888499
C47	C	0.701969	-0.356734	0.388494
C48	C	1.201969	0.143266	0.888494
C49	C	0.793283	-0.356729	0.388483
C50	C	1.293283	0.143271	0.888483
C51	C	1.165268	-0.930544	0.388527
C52	C	1.665268	-0.430544	0.888527
C53	C	1.103114	-0.899230	0.450988
C54	C	1.603114	-0.399230	0.950988
C55	C	1.102819	-0.813612	0.450793
C56	C	1.602819	-0.313612	0.950793
C57	C	1.165180	-0.782161	0.388506
C58	C	1.665180	-0.282161	0.888506
C59	C	1.142173	-0.813313	0.303528
C60	C	1.642173	-0.313313	0.803528
C61	C	1.141772	-0.898959	0.303901
C62	C	1.641772	-0.398959	0.803901
C63	C	1.250565	-0.898886	0.410295
C64	C	1.750565	-0.398886	0.910295
C65	C	1.250063	-0.813235	0.412159
C66	C	1.750063	-0.313235	0.912159
C67	C	1.165132	-0.698302	0.388489
C68	C	1.665132	-0.198302	0.888489
C69	C	1.165314	-1.014403	0.388538
C70	C	1.665314	-0.514403	0.888538
C71	C	1.375480	-0.356739	0.388513
C72	C	1.875480	0.143261	0.888513
C73	C	1.465101	-0.356744	0.388523
C74	C	1.965101	0.143256	0.888523
C75	C	1.165224	-0.356673	0.598799
C76	C	1.665224	0.143327	1.098799
C77	C	1.165246	-0.356649	0.688420
C78	C	1.665246	0.143351	1.188420
C79	C	1.165302	-0.163566	0.388531
C80	C	1.665302	0.336434	0.888531
C81	C	1.165357	-0.081252	0.388549
C82	C	1.665357	0.418748	0.888549
C83	C	1.165165	-0.356730	0.178999
C84	C	1.665165	0.143270	0.678999
C85	C	1.165299	-0.356545	0.089378
C86	C	1.665299	0.143455	0.589378
C87	C	1.165283	-0.356567	1.016596
C88	C	1.665283	0.143433	1.516596
C89	C	1.165271	-0.356592	0.925287
C90	C	1.665271	0.143408	1.425287
C91	C	1.165265	-0.356609	0.852511
C92	C	1.665265	0.143391	1.352511
C93	C	1.165252	-0.356633	0.761197
C94	C	1.665252	0.143367	1.261197
H95	H	1.117366	-0.919777	0.514202
H96	H	1.617366	-0.419777	1.014202
N97	N	1.199119	-0.926420	0.240151
N98	N	1.699119	-0.426420	0.740151
H99	H	1.255110	-0.907712	0.252094
H100	H	1.755110	-0.407712	0.752094
H101	H	1.181298	-0.907724	0.185768
H102	H	1.681298	-0.407724	0.685768
N103	N	1.278352	-0.927443	0.490969
N104	N	1.778352	-0.427443	0.990969
H105	H	1.330212	-0.955771	0.484041
H106	H	1.830212	-0.455771	0.984041
H107	H	1.235871	-0.961160	0.514169
H108	H	1.735871	-0.461160	1.014169
N109	N	1.060450	-0.785004	0.278666
N110	N	1.560450	-0.285004	0.778666
H111	H	1.046181	-0.805358	0.223913
H112	H	1.546181	-0.305358	0.723913
H113	H	1.061624	-0.729261	0.276327
H114	H	1.561624	-0.229261	0.776327
N115	N	1.019076	-0.786554	0.431680
N116	N	1.519076	-0.286554	0.931680
H117	H	1.018536	-0.730761	0.431475
H118	H	1.518536	-0.230761	0.931475
H119	H	0.980344	-0.805362	0.473747
H120	H	1.480344	-0.305362	0.973747
N121	N	1.314649	-0.784886	0.356282
N122	N	1.814649	-0.284886	0.856282
H123	H	1.368456	-0.805763	0.372943
H124	H	1.868456	-0.305763	0.872943
H125	H	1.316553	-0.729177	0.359107
H126	H	1.816553	-0.229177	0.859107
N127	N	1.019873	-0.927819	0.432135
N128	N	1.519873	-0.427819	0.932135
H129	H	1.022249	-0.960966	0.383310
H130	H	1.522249	-0.460966	0.883310
H131	H	0.982857	-0.884813	0.420935
H132	H	1.482857	-0.384813	0.920935
N133	N	1.273046	-0.786255	0.494996
N134	N	1.773046	-0.286255	0.994996
H135	H	1.274946	-0.730485	0.495209
H136	H	1.774946	-0.230485	0.995209
H137	H	1.327679	-0.806466	0.509834
H138	H	1.827679	-0.306466	1.009834
N139	N	1.121880	-0.785701	0.534255
N140	N	1.621880	-0.285701	1.034255
H141	H	1.130550	-0.829034	0.571505
H142	H	1.630550	-0.329034	1.071505
H143	H	1.075570	-0.754819	0.554586
H144	H	1.575570	-0.254819	1.054586
N145	N	1.059185	-0.925517	0.279473
N146	N	1.559185	-0.425517	0.779473
H147	H	1.023381	-0.881589	0.268565
H148	H	1.523381	-0.381589	0.768565
H149	H	1.035359	-0.956144	0.324299
H150	H	1.535359	-0.456144	0.824299
N151	N	1.200246	-0.786336	0.240195
N152	N	1.700246	-0.286336	0.740195
H153	H	1.242127	-0.753581	0.266041
H154	H	1.742127	-0.253581	0.766041
H155	H	1.169942	-0.757352	0.198068
H156	H	1.669942	-0.257352	0.698068
N157	N	1.311907	-0.925703	0.350038
N158	N	1.811907	-0.425703	0.850038
H159	H	1.284624	-0.958199	0.308836
H160	H	1.784624	-0.458199	0.808836
H161	H	1.354921	-0.954920	0.378789
H162	H	1.854921	-0.454920	0.878789
