data_functionalizedCrystal
_audit_creation_method	'MofGen! by Chris Wilmer'
_symmetry_space_group_name_H-M	'P1'
_symmetry_Int_Tables_number	1
_symmetry_cell_setting	triclinic
loop_
_symmetry_equiv_pos_as_xyz
  x,y,z
_cell_length_a	10.654549
_cell_length_b	23.532407
_cell_length_c	22.610064
_cell_angle_alpha	89.999803
_cell_angle_beta	89.992690
_cell_angle_gamma	83.666727
loop_
_atom_site_label
_atom_site_type_symbol
_atom_site_fract_x
_atom_site_fract_y
_atom_site_fract_z
O1	O	1.665316	0.079976	-0.049178
O2	O	1.299596	0.087597	-0.049183
O3	O	1.493485	0.000926	-0.049169
O4	O	1.471428	0.166646	-0.049191
O5	O	1.493450	0.000940	0.049200
O6	O	1.299562	0.087610	0.049187
O7	O	1.665282	0.079989	0.049191
Zn8	Zn	1.482416	0.083802	0.064807
Zn9	Zn	1.482462	0.083784	-0.064798
O10	O	1.471393	0.166659	0.049178
C11	C	1.252799	0.087044	0.000002
C12	C	1.113409	0.085370	0.000000
C13	C	0.901327	0.134823	-0.000004
C14	C	1.032298	0.136400	-0.000008
C15	C	1.063543	0.032759	0.000006
C16	C	0.932575	0.031183	0.000005
C17	C	1.492906	-0.020287	0.000017
C18	C	1.491217	-0.083515	0.000021
C19	C	1.595364	-0.481939	-0.000010
C20	C	1.593795	-0.541350	-0.000014
O21	O	1.690341	-0.577465	-0.000035
N22	N	1.478529	-0.564727	-0.000015
C23	C	1.364824	-0.528690	-0.000018
O24	O	1.266637	-0.554029	-0.000020
C25	C	1.366394	-0.469281	-0.000017
C26	C	1.481668	-0.445907	-0.000010
C27	C	1.710629	-0.458565	-0.000003
C28	C	1.712197	-0.399159	0.000002
C29	C	1.598501	-0.363127	0.000002
C30	C	1.483236	-0.386501	-0.000005
C31	C	1.252690	-0.433245	-0.000024
C32	C	1.254270	-0.373832	-0.000024
C33	C	1.369544	-0.350459	-0.000017
C34	C	1.371108	-0.291062	0.000000
N35	N	1.486374	-0.267685	0.000001
C36	C	1.600071	-0.303717	0.000002
C37	C	1.361535	-0.653454	-0.000019
C38	C	1.359964	-0.712862	-0.000015
C39	C	1.588936	-0.725518	-0.000013
C40	C	1.590506	-0.666108	-0.000013
C41	C	1.476802	-0.630077	-0.000018
C42	C	1.603355	-0.178959	0.000014
C43	C	1.604913	-0.119547	0.000022
C44	C	1.375942	-0.106896	0.000017
C45	C	1.374383	-0.166303	0.000012
C46	C	1.488100	-0.202334	0.000008
O47	O	1.274613	-0.254912	0.000018
O48	O	1.698242	-0.278370	-0.000004
C49	C	1.712079	0.080542	0.000006
C50	C	1.851469	0.082216	0.000004
C51	C	1.471972	0.187872	-0.000009
C52	C	1.473661	0.251100	-0.000018
N53	N	1.482394	0.083813	0.153260
C54	C	1.568318	0.045417	0.561907
C55	C	1.568324	0.045413	0.623827
O56	O	1.641326	0.012773	0.655851
N57	N	1.482459	0.083777	0.654797
C58	C	1.396574	0.122144	0.623844
O59	O	1.323539	0.154775	0.655872
C60	C	1.396563	0.122144	0.561925
C61	C	1.482442	0.083781	0.530958
C62	C	1.654189	0.007057	0.530940
C63	C	1.654184	0.007061	0.469025
C64	C	1.568308	0.045426	0.438076
C65	C	1.482436	0.083786	0.469043
C66	C	1.310672	0.160507	0.530973
C67	C	1.310668	0.160504	0.469050
C68	C	1.396547	0.122141	0.438083
C69	C	1.396555	0.122155	0.376178
N70	N	1.482420	0.083791	0.345208
C71	C	1.568296	0.045426	0.376157
C72	C	1.396603	0.122139	0.753877
C73	C	1.396619	0.122142	0.815795
C74	C	1.568368	0.045410	0.815774
C75	C	1.568356	0.045411	0.753855
C76	C	1.482467	0.083775	0.722907
C77	C	1.568280	0.045439	0.246130
C78	C	1.568271	0.045449	0.184209
C79	C	1.396518	0.122178	0.184235
C80	C	1.396531	0.122171	0.246151
C81	C	1.482417	0.083797	0.277097
O82	O	1.323587	0.154777	0.344115
O83	O	1.641308	0.012796	0.344121
N84	N	1.482491	0.083775	0.846749
H85	H	1.129594	-0.008790	0.000009
C86	C	1.368387	0.199536	0.885426
C87	C	1.302228	0.164316	0.849829
H88	H	1.310105	0.225574	0.906432
H89	H	1.419513	0.176689	0.912723
H90	H	1.420396	0.220239	0.861262
H91	H	1.250225	0.143610	0.873993
H92	H	1.251080	0.187166	0.822529
C93	C	1.824903	-0.004808	0.399167
C94	C	1.748202	-0.035202	0.434893
H95	H	1.882839	-0.030930	0.378072
H96	H	1.773745	0.018120	0.371949
H97	H	1.870160	0.018990	0.423254
H98	H	1.702938	-0.058997	0.410805
H99	H	1.799366	-0.058140	0.462114
H100	H	1.684372	-0.647082	-0.000007
H101	H	0.891982	-0.011659	0.000010
H102	H	1.240722	0.191744	0.443855
C103	C	1.829844	-0.185485	0.000026
C104	C	1.728354	-0.218558	0.000016
H105	H	1.907010	-0.209933	0.000033
H106	H	1.825703	-0.162051	-0.034275
H107	H	1.825656	-0.162049	0.034332
H108	H	1.732536	-0.241991	-0.034293
H109	H	1.732496	-0.242002	0.034320
H110	H	1.698787	-0.100520	0.000030
C111	C	1.026529	-0.414743	-0.000045
C112	C	1.125975	-0.458926	-0.000037
H113	H	0.948296	-0.430598	-0.000057
H114	H	1.031890	-0.391839	0.034260
H115	H	1.031947	-0.391833	-0.034348
H116	H	1.120562	-0.481834	0.034268
H117	H	1.120611	-0.481840	-0.034345
C118	C	1.816304	-0.313715	0.000003
C119	C	1.838910	-0.373471	0.000001
H120	H	1.894537	-0.297861	0.000003
H121	H	1.769538	-0.301380	-0.034297
H122	H	1.769521	-0.301380	0.034310
H123	H	1.885685	-0.385807	-0.034309
H124	H	1.885696	-0.385812	0.034305
H125	H	1.072884	0.179237	-0.000014
H126	H	1.803220	-0.487897	-0.000005
H127	H	1.326613	0.153414	0.271364
C128	C	1.688183	-0.822212	-0.000030
C129	C	1.713917	-0.765133	-0.000022
H130	H	1.765337	-0.846668	-0.000041
H131	H	1.640891	-0.829346	0.034272
H132	H	1.640884	-0.829335	-0.034335
H133	H	1.761208	-0.758009	0.034285
H134	H	1.761229	-0.757996	-0.034328
H135	H	1.266096	-0.731887	-0.000011
H136	H	1.268938	-0.624120	-0.000019
C137	C	1.123206	-0.299680	-0.050597
C138	C	1.129278	-0.334227	-0.000030
H139	H	1.046039	-0.275234	-0.050600
H140	H	1.192066	-0.277256	-0.050587
H141	H	1.127375	-0.323125	-0.084897
H142	H	1.125119	-0.310783	0.034271
H143	H	1.060400	-0.356654	-0.000034
C144	C	1.739334	0.033721	0.684164
C145	C	1.662672	0.003220	0.719799
H146	H	1.797542	0.007665	0.663139
H147	H	1.688186	0.056578	0.656885
H148	H	1.784283	0.057597	0.708305
H149	H	1.617716	-0.020653	0.695658
H150	H	1.713827	-0.019647	0.747082
C151	C	1.181233	-0.077803	0.050575
C152	C	1.250970	-0.067283	0.000012
H153	H	1.104084	-0.053343	0.050569
H154	H	1.163795	-0.116524	0.050569
H155	H	1.228523	-0.070666	0.084878
H156	H	1.203684	-0.074424	-0.034291
H157	H	1.268405	-0.028553	0.000013
C158	C	1.239749	-0.225774	0.050572
C159	C	1.247671	-0.191996	0.000010
H160	H	1.161516	-0.241629	0.050568
H161	H	1.307223	-0.255737	0.050565
H162	H	1.245113	-0.202861	0.084876
H163	H	1.242316	-0.214911	-0.034294
H164	H	1.180177	-0.162030	0.000013
H165	H	1.638208	0.014209	0.158997
H166	H	1.724119	-0.024187	0.556133
C167	C	1.643346	-0.052870	0.834834
C168	C	1.662762	0.003234	0.849799
H169	H	1.701624	-0.078905	0.855838
H170	H	1.559628	-0.059402	0.844988
H171	H	1.655641	-0.058355	0.793525
H172	H	1.650458	0.008720	0.891107
H173	H	1.746500	0.009768	0.839648
C174	C	1.738050	-0.030405	0.239872
C175	C	1.662688	0.003259	0.280139
H176	H	1.796339	-0.056440	0.260870
H177	H	1.686032	-0.051104	0.215726
H178	H	1.782907	-0.006498	0.215719
H179	H	1.617824	-0.020648	0.304290
H180	H	1.714713	0.023960	0.304295
H181	H	1.326664	0.153384	0.728683
H182	H	1.326602	0.153415	0.159027
C183	C	0.883602	0.237425	-0.000027
C184	C	0.812175	0.190918	-0.000015
H185	H	0.828563	0.272056	-0.000040
H186	H	0.935317	0.235891	0.034276
H187	H	0.935352	0.235871	-0.034332
H188	H	0.760432	0.192469	0.034292
H189	H	0.760438	0.192452	-0.034322
C190	C	1.140889	0.236339	0.524748
C191	C	1.216264	0.202675	0.565000
H192	H	1.082597	0.262371	0.545755
H193	H	1.192900	0.257045	0.500596
H194	H	1.096037	0.212432	0.500598
H195	H	1.261123	0.226582	0.589147
H196	H	1.164246	0.181968	0.589162
