data_functionalizedCrystal
_audit_creation_method	'MofGen! by Chris Wilmer'
_symmetry_space_group_name_H-M	'P1'
_symmetry_Int_Tables_number	1
_symmetry_cell_setting	triclinic
loop_
_symmetry_equiv_pos_as_xyz
  x,y,z
_cell_length_a	12.645331
_cell_length_b	19.121063
_cell_length_c	12.645323
_cell_angle_alpha	87.591876
_cell_angle_beta	90.022676
_cell_angle_gamma	92.467980
loop_
_atom_site_label
_atom_site_type_symbol
_atom_site_fract_x
_atom_site_fract_y
_atom_site_fract_z
Zn1	Zn	1.602654	-0.279627	0.617388
Zn2	Zn	1.594942	-0.397086	0.447665
Zn3	Zn	1.425367	-0.279651	0.440134
Zn4	Zn	1.417760	-0.397040	0.624877
O5	O	1.510181	-0.338351	0.532516
O6	O	1.749978	-0.295217	0.594892
O7	O	1.572404	-0.381537	0.298321
O8	O	1.455295	-0.181363	0.457361
O9	O	1.744312	-0.381514	0.470197
O10	O	1.585547	-0.181346	0.587589
O11	O	1.447818	-0.295258	0.292788
O12	O	1.276011	-0.295213	0.464623
O13	O	1.442330	-0.381436	0.772230
O14	O	1.270422	-0.381459	0.600353
O15	O	1.578171	-0.295173	0.766727
O16	O	1.565027	-0.495364	0.477459
O17	O	1.434852	-0.495330	0.607656
C18	C	1.234752	-0.338334	0.532485
C19	C	1.116921	-0.338344	0.532497
C20	C	0.952854	-0.283838	0.447545
C21	C	1.075405	-0.283979	0.447195
C22	C	1.067618	-0.412331	0.506730
C23	C	0.945039	-0.412033	0.506155
C24	C	0.950986	-0.319567	0.643576
C25	C	1.073698	-0.317914	0.642847
C26	C	1.498306	-0.520831	0.544210
C27	C	1.493323	-0.598897	0.549248
C28	C	1.558810	-0.635567	0.483885
C29	C	1.554130	-0.708918	0.488629
C30	C	1.483957	-0.745598	0.558733
C31	C	1.418467	-0.708923	0.624104
C32	C	1.423154	-0.635573	0.619364
C33	C	1.466419	-0.967067	0.576438
C34	C	1.461736	-1.040422	0.581171
C35	C	1.597400	-1.040412	0.445697
C36	C	1.602076	-0.967061	0.440959
C37	C	1.536590	-0.930392	0.506334
C38	C	1.479169	-0.820575	0.563582
C39	C	1.541384	-0.855417	0.501489
C40	C	1.786685	-0.338368	0.532549
C41	C	1.904514	-0.338375	0.532563
C42	C	1.510262	-0.338296	0.809018
C43	C	1.510297	-0.338273	0.926847
C44	C	1.522130	-0.155158	0.520800
C45	C	1.527222	-0.077092	0.515807
C46	C	1.510164	-0.338354	0.257087
C47	C	1.510347	-0.338179	0.139246
C48	C	1.424603	-0.392285	1.097856
C49	C	1.424801	-0.392553	0.975313
C50	C	1.620698	-0.358362	0.972656
C51	C	1.620225	-0.358700	1.095276
C52	C	1.486666	-0.263871	1.089271
C53	C	1.484145	-0.264317	0.966693
H54	H	0.912678	-0.454044	0.565636
H55	H	0.926948	-0.228808	0.462935
O56	O	1.661057	-1.075924	0.382097
C57	C	1.724019	-1.027820	0.319228
H58	H	1.683935	-0.975559	0.312140
H59	H	1.734021	-1.049046	0.237086
H60	H	1.805011	-1.019956	0.357620
H61	H	1.422032	-0.850448	0.620658
H62	H	1.094090	-0.454052	0.566917
H63	H	1.686088	-0.320200	0.941072
O64	O	0.913309	-0.366854	0.719198
C65	C	0.857066	-0.331951	0.795904
H66	H	0.885123	-0.274461	0.794815
H67	H	0.871771	-0.357229	0.877543
H68	H	0.768826	-0.335937	0.777383
H69	H	1.686020	-0.321003	1.122535
O70	O	1.109447	-0.298691	0.348912
C71	C	1.174973	-0.242469	0.307906
H72	H	1.155948	-0.192595	0.349049
H73	H	1.160500	-0.234859	0.219261
H74	H	1.261457	-0.254491	0.322248
H75	H	1.607456	-0.738771	0.435402
H76	H	1.402923	-0.249167	0.936622
O77	O	1.359490	-0.599875	0.682706
C78	C	1.293738	-0.557522	0.619557
H79	H	1.331865	-0.546550	0.538544
H80	H	1.282807	-0.505931	0.659395
H81	H	1.213374	-0.585837	0.609668
O82	O	1.402756	-0.931373	0.639777
C83	C	1.337011	-0.889023	0.576618
H84	H	1.375147	-0.878054	0.495608
H85	H	1.326076	-0.837429	0.616450
H86	H	1.256647	-0.917337	0.566723
H87	H	1.615948	-0.605707	0.426794
O88	O	1.442411	-0.457637	1.138750
C89	C	1.364950	-0.505585	1.100925
H90	H	1.291642	-0.476428	1.075925
H91	H	1.342878	-0.546508	1.166249
H92	H	1.397692	-0.532590	1.030016
H93	H	1.361335	-0.738794	0.681188
H94	H	1.404605	-1.070285	0.638276
H95	H	1.659216	-0.937197	0.383875
O96	O	1.609696	-0.819822	0.433505
C97	C	1.714202	-0.837687	0.457892
H98	H	1.718238	-0.857810	0.543884
H99	H	1.769657	-0.789423	0.445688
H100	H	1.739220	-0.880272	0.403826
H101	H	1.342785	-0.379982	0.944405
H102	H	1.440044	-0.447641	0.949534
O103	O	1.644696	-0.423500	1.133708
C104	C	1.560415	-0.452382	1.196679
H105	H	1.511754	-0.408408	1.226530
H106	H	1.593422	-0.483677	1.267005
H107	H	1.507921	-0.488418	1.147424
H108	H	0.921211	-0.296131	0.365663
O109	O	1.646038	-0.422467	0.940230
C110	C	1.745389	-0.439722	0.982093
H111	H	1.792312	-0.389702	1.001743
H112	H	1.790763	-0.469064	0.921283
H113	H	1.733431	-0.474352	1.057101
O114	O	1.102993	-0.431568	0.411108
C115	C	1.172335	-0.378334	0.367307
H116	H	1.155142	-0.326383	0.403436
H117	H	1.160309	-0.373699	0.277976
H118	H	1.257624	-0.391872	0.385088
O119	O	1.326497	-0.377476	1.132234
C120	C	1.324675	-0.380520	1.243819
H121	H	1.390158	-0.414972	1.274951
H122	H	1.244696	-0.403590	1.272755
H123	H	1.337694	-0.325462	1.273981
O124	O	1.392694	-0.241935	1.124837
C125	C	1.409855	-0.178863	1.177392
H126	H	1.495317	-0.174625	1.205959
H127	H	1.354090	-0.178340	1.248141
H128	H	1.394036	-0.132622	1.120576
O129	O	1.553782	-0.213770	0.926871
C130	C	1.627994	-0.244308	0.861750
H131	H	1.632556	-0.302329	0.885143
H132	H	1.709094	-0.217040	0.871922
H133	H	1.602342	-0.238249	0.775530
O134	O	1.561290	-0.215860	1.120937
C135	C	1.634607	-0.249216	1.187883
H136	H	1.596256	-0.299553	1.224596
H137	H	1.659903	-0.212813	1.253276
H138	H	1.706948	-0.262253	1.139913
H139	H	1.101976	-0.354739	0.709195
H140	H	1.106322	-0.263468	0.662363
H141	H	0.923516	-0.266557	0.667927
O142	O	1.115414	-0.218510	0.465921
C143	C	1.079784	-0.198279	0.565291
H144	H	1.003783	-0.229617	0.587733
H145	H	1.063773	-0.140010	0.560923
H146	H	1.142981	-0.208847	0.627568
H147	H	0.915362	-0.427984	0.425139
