data_functionalizedCrystal
_audit_creation_method	'MofGen! by Chris Wilmer'
_symmetry_space_group_name_H-M	'P1'
_symmetry_Int_Tables_number	1
_symmetry_cell_setting	triclinic
loop_
_symmetry_equiv_pos_as_xyz
  x,y,z
_cell_length_a	9.065215
_cell_length_b	8.597304
_cell_length_c	7.540329
_cell_angle_alpha	82.296522
_cell_angle_beta	89.997574
_cell_angle_gamma	85.172303
loop_
_atom_site_label
_atom_site_type_symbol
_atom_site_fract_x
_atom_site_fract_y
_atom_site_fract_z
O1	O	1.960830	0.230147	-0.182621
O2	O	1.531580	0.249031	-0.185514
O3	O	1.754652	0.011242	-0.149172
O4	O	1.737758	0.467936	-0.218963
O5	O	1.754639	0.011239	0.145794
O6	O	1.531566	0.249028	0.109452
O7	O	1.960817	0.230143	0.112345
Cu8	Cu	1.746190	0.239585	0.137831
Cu9	Cu	1.746206	0.239589	-0.211000
O10	O	1.737744	0.467932	0.076003
C11	C	1.476583	0.247215	-0.037755
C12	C	1.312730	0.241792	-0.036929
C13	C	1.752831	-0.047257	0.007247
C14	C	1.747406	-0.221561	0.033872
C15	C	2.015813	0.231959	-0.035418
C16	C	2.179667	0.237382	-0.036255
C17	C	1.739566	0.526431	-0.080420
C18	C	1.744990	0.700735	-0.107057
N19	N	1.746190	0.239582	0.383180
N20	N	1.746218	0.239580	-0.456347
H21	H	1.747068	-0.232443	-0.248092
O22	O	1.744635	-0.310060	0.220711
H23	H	1.845913	-0.291265	0.294987
