data_functionalizedCrystal
_audit_creation_method	'MofGen! by Chris Wilmer'
_symmetry_space_group_name_H-M	'P1'
_symmetry_Int_Tables_number	1
_symmetry_cell_setting	triclinic
loop_
_symmetry_equiv_pos_as_xyz
  x,y,z
_cell_length_a	17.699077
_cell_length_b	27.731996
_cell_length_c	16.176319
_cell_angle_alpha	89.987220
_cell_angle_beta	89.993140
_cell_angle_gamma	82.950982
loop_
_atom_site_label
_atom_site_type_symbol
_atom_site_fract_x
_atom_site_fract_y
_atom_site_fract_z
O1	O	1.003525	0.061115	-0.068746
O2	O	0.783073	0.069071	-0.068752
O3	O	0.900166	-0.005281	-0.068731
O4	O	0.886432	0.135467	-0.068767
O5	O	0.900151	-0.005286	0.068762
O6	O	0.783057	0.069066	0.068741
O7	O	1.003509	0.061110	0.068747
Cu8	Cu	0.893282	0.065088	0.081298
Cu9	Cu	0.893301	0.065093	-0.081303
O10	O	0.886416	0.135462	0.068726
C11	C	0.754871	0.068784	-0.000006
C12	C	0.670860	0.067930	-0.000007
C13	C	0.631388	0.067525	0.074941
C14	C	0.552453	0.066715	0.074943
C15	C	0.512991	0.066314	-0.000006
C16	C	0.552469	0.066717	-0.074960
C17	C	0.631404	0.067524	-0.074960
C18	C	0.234135	0.063464	-0.074961
C19	C	0.155195	0.062659	-0.074955
C20	C	0.155185	0.062656	0.074942
C21	C	0.234119	0.063462	0.074942
C22	C	0.273591	0.063863	-0.000012
C23	C	0.359182	0.064740	-0.000012
C24	C	0.427401	0.065440	-0.000006
C25	C	0.899876	-0.023292	0.000018
C26	C	0.899027	-0.076951	0.000027
C27	C	0.893689	-0.409684	-0.074961
C28	C	0.890462	-0.611354	-0.074976
O29	O	0.890019	-0.637424	-0.138716
N30	N	0.890052	-0.636575	-0.000029
C31	C	0.890444	-0.611375	0.074927
O32	O	0.890014	-0.637454	0.138673
C33	C	0.893666	-0.409706	0.074940
C34	C	0.894083	-0.384488	-0.000011
C35	C	0.894105	-0.384466	-0.149907
C36	C	0.894916	-0.334052	-0.149903
C37	C	0.895310	-0.308856	-0.074953
C38	C	0.894894	-0.334074	-0.000007
C39	C	0.894053	-0.384507	0.149895
C40	C	0.894856	-0.334086	0.149892
C41	C	0.895274	-0.308868	0.074940
C42	C	0.896099	-0.258464	0.074948
N43	N	0.896509	-0.233243	0.000001
C44	C	0.896114	-0.258439	-0.074949
C45	C	0.888754	-0.717255	0.074914
C46	C	0.887950	-0.767672	0.074911
C47	C	0.887966	-0.767647	-0.074992
C48	C	0.888776	-0.717229	-0.074988
C49	C	0.889164	-0.692034	-0.000033
C50	C	0.897818	-0.152566	-0.074934
C51	C	0.898632	-0.102147	-0.074923
C52	C	0.898612	-0.102176	0.074979
C53	C	0.897802	-0.152591	0.074969
C54	C	0.897402	-0.177784	0.000005
O55	O	0.896534	-0.232362	0.138655
O56	O	0.896528	-0.232350	-0.138686
C57	C	0.892878	-0.460098	-0.074966
C58	C	0.892461	-0.485316	-0.000020
C59	C	0.892856	-0.460120	0.074930
C60	C	0.891657	-0.535733	-0.000023
C61	C	0.891263	-0.560929	-0.074973
C62	C	0.891672	-0.535708	-0.149920
C63	C	0.892483	-0.485294	-0.149916
C64	C	0.892446	-0.485341	0.149877
C65	C	0.891636	-0.535755	0.149866
C66	C	0.891242	-0.560952	0.074916
C67	C	1.031711	0.061397	-0.000001
C68	C	1.115722	0.062251	-0.000005
C69	C	0.886706	0.153473	-0.000025
C70	C	0.887556	0.207132	-0.000039
N71	N	0.893274	0.065083	0.195663
N72	N	0.893314	0.065094	-0.195669
C73	C	0.945138	0.032174	0.238937
C74	C	0.945142	0.032173	0.325484
C75	C	0.893285	0.065085	0.368756
C76	C	0.841415	0.097996	0.325477
C77	C	0.841408	0.097994	0.238931
C78	C	0.841441	0.098005	0.674505
C79	C	0.841453	0.098006	0.761056
C80	C	0.945175	0.032184	0.761058
C81	C	0.945168	0.032182	0.674512
C82	C	0.893296	0.065092	0.631240
C83	C	0.893291	0.065091	0.537396
C84	C	0.893292	0.065088	0.462599
H85	H	0.663541	0.067854	-0.135991
C86	C	0.826268	-0.545761	0.277626
C87	C	0.891172	-0.563468	0.232265
H88	H	0.825974	-0.562869	0.328492
H89	H	0.826817	-0.512132	0.288339
H90	H	0.781995	-0.550281	0.246814
H91	H	0.935445	-0.558944	0.263075
H92	H	0.890629	-0.597105	0.221554
C93	C	0.834407	-0.039969	0.161908
C94	C	0.899036	-0.074470	0.157358
H95	H	0.834662	-0.022865	0.212768
H96	H	0.834779	-0.017744	0.117269
H97	H	0.789947	-0.055905	0.158789
H98	H	0.943496	-0.058534	0.160472
H99	H	0.898670	-0.096698	0.202010
C100	C	0.664692	0.026229	0.202716
C101	C	0.674764	0.067964	0.157327
H102	H	0.691474	0.026499	0.253576
H103	H	0.612038	0.025695	0.213440
H104	H	0.683747	-0.001811	0.171916
H105	H	0.655703	0.096004	0.188125
H106	H	0.727429	0.068503	0.146605
C107	C	0.894215	-0.379365	-0.298072
C108	C	0.893678	-0.412157	-0.232302
H109	H	0.893961	-0.396459	-0.348942
H110	H	0.850375	-0.355964	-0.294954
H111	H	0.938682	-0.363439	-0.294932
H112	H	0.849207	-0.428080	-0.235439
H113	H	0.937522	-0.435566	-0.235422
H114	H	0.123067	0.062332	-0.135990
H115	H	0.799222	0.124808	0.796287
H116	H	0.520334	0.066387	-0.135984
C117	C	0.472711	0.024259	0.161924
C118	C	0.509073	0.066265	0.157333
H119	H	0.445937	0.023978	0.212795
H120	H	0.437909	0.023908	0.117300
H121	H	0.509629	-0.003597	0.158806
H122	H	0.472154	0.094121	0.160446
H123	H	0.543878	0.066620	0.201970
H124	H	0.897489	-0.173072	-0.135977
H125	H	0.799206	0.124802	0.639280
C126	C	1.047703	-0.032883	0.752364
C127	C	1.002187	-0.003997	0.808624
H128	H	1.082901	-0.055216	0.781730
H129	H	1.016406	-0.050243	0.718622
H130	H	1.074680	-0.012777	0.718595
H131	H	0.975205	-0.024102	0.842389
H132	H	1.033487	0.013364	0.842380
C133	C	0.824563	-0.655065	0.161911
C134	C	0.889188	-0.689566	0.157315
H135	H	0.824833	-0.637977	0.212785
H136	H	0.824926	-0.632826	0.117291
H137	H	0.780101	-0.670997	0.158788
H138	H	0.933651	-0.673634	0.160432
H139	H	0.888832	-0.711809	0.201947
H140	H	0.898973	-0.081617	-0.135961
H141	H	0.266245	0.063792	0.135973
H142	H	0.799188	0.124792	0.360714
H143	H	0.897469	-0.173125	0.136000
C144	C	0.034180	0.061410	0.141515
C145	C	0.111796	0.062207	0.157335
H146	H	0.007398	0.061130	0.192380
H147	H	0.015135	0.089453	0.110719
H148	H	0.027370	0.033099	0.110727
H149	H	0.118608	0.090520	0.188118
H150	H	0.130847	0.034160	0.188145
H151	H	0.891354	-0.556232	-0.210947
H152	H	0.266264	0.063789	-0.135993
H153	H	0.895253	-0.313524	-0.210936
H154	H	0.887646	-0.788170	-0.136019
C155	C	0.888709	-0.722280	-0.223157
C156	C	0.889225	-0.689512	-0.157376
H157	H	0.888980	-0.705169	-0.274022
H158	H	0.932547	-0.745682	-0.220037
H159	H	0.844241	-0.738207	-0.220031
H160	H	0.933697	-0.673587	-0.160499
H161	H	0.845382	-0.666101	-0.160499
C162	C	0.828264	-0.423148	0.236867
C163	C	0.892885	-0.457653	0.232271
H164	H	0.828538	-0.406059	0.287741
H165	H	0.828630	-0.400909	0.192246
H166	H	0.783799	-0.439077	0.233745
H167	H	0.937351	-0.441723	0.235387
H168	H	0.892526	-0.479894	0.276904
H169	H	0.893714	-0.405030	0.210929
C170	C	0.952110	-0.829897	0.161891
C171	C	0.887491	-0.795391	0.157297
H172	H	0.951821	-0.847006	0.212756
H173	H	0.951759	-0.852118	0.117259
H174	H	0.996576	-0.813967	0.158786
H175	H	0.843024	-0.811322	0.160396
H176	H	0.887835	-0.773167	0.201941
H177	H	0.895161	-0.313573	0.210931
C178	C	0.962385	-0.033631	0.422824
C179	C	1.002158	-0.004002	0.373044
H180	H	0.997588	-0.055967	0.452179
H181	H	0.931510	-0.014034	0.460982
H182	H	0.931092	-0.050992	0.389067
H183	H	1.033447	0.013363	0.406802
H184	H	1.033046	-0.023602	0.334881
H185	H	0.892822	-0.464766	-0.210949
H186	H	0.987369	0.005375	0.203710
C187	C	1.048169	0.021496	0.576986
C188	C	1.002038	-0.004039	0.626867
H189	H	1.083241	-0.000880	0.547554
H190	H	1.017272	0.041136	0.538897
H191	H	1.075291	0.041545	0.610685
H192	H	0.974912	-0.024085	0.593168
H193	H	1.032939	-0.023687	0.664961
C194	C	0.738888	0.163062	0.247617
C195	C	0.784401	0.134172	0.191362
H196	H	0.703695	0.185398	0.218249
H197	H	0.711911	0.142964	0.281387
H198	H	0.770193	0.180424	0.281359
H199	H	0.753097	0.116807	0.157624
H200	H	0.811380	0.154272	0.157578
