data_functionalizedCrystal
_audit_creation_method	'MofGen! by Chris Wilmer'
_symmetry_space_group_name_H-M	'P1'
_symmetry_Int_Tables_number	1
_symmetry_cell_setting	triclinic
loop_
_symmetry_equiv_pos_as_xyz
  x,y,z
_cell_length_a	17.639617
_cell_length_b	19.121063
_cell_length_c	17.640968
_cell_angle_alpha	81.648500
_cell_angle_beta	70.333968
_cell_angle_gamma	104.083010
loop_
_atom_site_label
_atom_site_type_symbol
_atom_site_fract_x
_atom_site_fract_y
_atom_site_fract_z
Zn1	Zn	1.358109	0.092904	-0.717549
Zn2	Zn	1.858109	0.592904	-0.217549
Zn3	Zn	1.324239	-0.054341	-0.585562
Zn4	Zn	1.824239	0.445659	-0.085562
Zn5	Zn	1.190013	0.033379	-0.554187
Zn6	Zn	1.690013	0.533379	-0.054187
Zn7	Zn	1.214331	-0.054272	-0.695442
Zn8	Zn	1.714331	0.445728	-0.195442
O9	O	1.271673	0.004418	-0.638185
O10	O	1.771673	0.504418	-0.138185
O11	O	1.469962	0.098254	-0.722423
O12	O	1.969962	0.598254	-0.222423
O13	O	1.282082	-0.067644	-0.467048
O14	O	1.782082	0.432356	0.032952
O15	O	1.216309	0.139580	-0.571979
O16	O	1.716309	0.639580	-0.071979
O17	O	1.445078	-0.009926	-0.625453
O18	O	1.945078	0.490074	-0.125453
O19	O	1.339809	0.183313	-0.692000
O20	O	1.839809	0.683313	-0.192000
O21	O	1.183466	-0.003197	-0.443997
O22	O	1.683466	0.496803	0.056003
O23	O	1.076893	-0.003131	-0.550543
O24	O	1.576893	0.496869	-0.050543
O25	O	1.257756	-0.009809	-0.812727
O26	O	1.757756	0.490191	-0.312727
O27	O	1.094760	-0.067528	-0.654322
O28	O	1.594760	0.432472	-0.154322
O29	O	1.363389	0.098321	-0.828969
O30	O	1.863389	0.598321	-0.328969
O31	O	1.305662	-0.152636	-0.604016
O32	O	1.805662	0.347364	-0.104016
O33	O	1.224913	-0.152586	-0.684745
O34	O	1.724913	0.347414	-0.184745
C35	C	1.055659	-0.041781	-0.596629
C36	C	1.555659	0.458219	-0.096629
C37	C	0.963251	-0.061558	-0.578872
C38	C	1.463251	0.438442	-0.078872
C39	C	0.724147	0.154719	-0.773290
C40	C	1.224147	0.654719	-0.273290
C41	C	0.637311	0.136114	-0.756588
C42	C	1.137311	0.636114	-0.256588
C43	C	0.611395	0.023583	-0.655457
C44	C	1.111395	0.523583	-0.155457
C45	C	0.698231	0.042176	-0.672153
C46	C	1.198231	0.542176	-0.172153
C47	C	0.754600	0.107746	-0.731070
C48	C	1.254600	0.607746	-0.231070
C49	C	0.728684	-0.004797	-0.629933
C50	C	1.228684	0.495203	-0.129933
C51	C	0.815512	0.013797	-0.646625
C52	C	1.315512	0.513797	-0.146625
C53	C	0.871886	0.079364	-0.705537
C54	C	1.371886	0.579364	-0.205537
C55	C	0.841428	0.126340	-0.747762
C56	C	1.341428	0.626340	-0.247762
C57	C	0.672312	-0.070364	-0.571012
C58	C	1.172312	0.429636	-0.071012
C59	C	0.702766	-0.117337	-0.528791
C60	C	1.202766	0.382663	-0.028791
C61	C	0.789596	-0.098746	-0.545488
C62	C	1.289596	0.401254	-0.045488
C63	C	0.845970	-0.033179	-0.604400
C64	C	1.345970	0.466821	-0.104400
C65	C	0.820054	-0.145722	-0.503263
C66	C	1.320054	0.354278	-0.003263
C67	C	0.906882	-0.127128	-0.519955
C68	C	1.406882	0.372872	-0.019955
C69	C	0.932798	-0.014585	-0.621092
C70	C	1.432798	0.485415	-0.121092
C71	C	1.264278	-0.178092	-0.645408
C72	C	1.764278	0.321908	-0.145408
C73	C	1.261196	-0.256148	-0.648541
C74	C	1.761196	0.243852	-0.148541
C75	C	1.301840	-0.292803	-0.608032
C76	C	1.801840	0.207197	-0.108032
C77	C	1.298947	-0.366143	-0.610984
C78	C	1.798947	0.133857	-0.110984
C79	C	1.255405	-0.402828	-0.654439
C80	C	1.755405	0.097172	-0.154439
C81	C	1.214760	-0.366167	-0.694952
C82	C	1.714760	0.133833	-0.194952
C83	C	1.217658	-0.292826	-0.692005
C84	C	1.717658	0.207174	-0.192005
C85	C	1.244553	-0.624268	-0.665442
C86	C	1.744553	-0.124268	-0.165442
C87	C	1.241655	-0.697614	-0.668384
C88	C	1.741655	-0.197614	-0.168384
C89	C	1.325845	-0.697585	-0.584416
C90	C	1.825845	-0.197585	-0.084416
C91	C	1.328735	-0.624245	-0.581469
C92	C	1.828735	-0.124245	-0.081469
C93	C	1.288093	-0.587588	-0.621986
C94	C	1.788093	-0.087588	-0.121986
C95	C	1.252445	-0.477794	-0.657455
C96	C	1.752445	0.022206	-0.157455
C97	C	1.291059	-0.512622	-0.618974
C98	C	1.791059	-0.012622	-0.118974
C99	C	1.488531	0.050797	-0.679904
C100	C	1.988531	0.550797	-0.179904
C101	C	1.580942	0.070560	-0.697682
C102	C	2.080942	0.570560	-0.197682
C103	C	1.317063	0.050903	-0.851328
C104	C	1.817063	0.550903	-0.351328
C105	C	1.336406	0.070713	-0.942156
C106	C	1.836406	0.570713	-0.442156
C107	C	1.279124	0.187648	-0.630956
C108	C	1.779124	0.687648	-0.130956
C109	C	1.282300	0.265731	-0.627875
C110	C	1.782300	0.765731	-0.127875
C111	C	1.125065	-0.145622	-1.198605
C112	C	1.625065	0.354378	-0.698605
C113	C	1.143258	-0.126996	-1.283955
C114	C	1.643258	0.373004	-0.783955
C115	C	1.253244	-0.014410	-1.300856
C116	C	1.753244	0.485590	-0.800856
C117	C	1.235058	-0.033025	-1.215505
C118	C	1.735058	0.466975	-0.715505
C119	C	1.170968	-0.098633	-1.164386
C120	C	1.670968	0.401367	-0.664386
C121	C	1.280960	0.013964	-1.181286
C122	C	1.780960	0.513964	-0.681286
C123	C	1.262778	-0.004652	-1.095942
C124	C	1.762778	0.495348	-0.595942
C125	C	1.198693	-0.070258	-1.044818
C126	C	1.698693	0.429742	-0.544818
C127	C	1.152785	-0.117249	-1.079042
C128	C	1.652785	0.382751	-0.579042
C129	C	1.345054	0.079569	-1.232407
C130	C	1.845054	0.579569	-0.732407
C131	C	1.390957	0.126558	-1.198188
C132	C	1.890957	0.626558	-0.698188
C133	C	1.372771	0.107945	-1.112842
C134	C	1.872771	0.607945	-0.612842
C135	C	1.308686	0.042340	-1.061718
C136	C	1.808686	0.542340	-0.561718
C137	C	1.418678	0.154937	-1.078618
C138	C	1.918678	0.654937	-0.578618
C139	C	1.400496	0.136320	-0.993275
C140	C	1.900496	0.636320	-0.493275
C141	C	1.290503	0.023723	-0.976375
C142	C	1.790503	0.523723	-0.476375
C143	C	1.226510	-0.041826	-0.425879
C144	C	1.726510	0.458174	0.074121
C145	C	1.207336	-0.061403	-0.335074
C146	C	1.707336	0.438597	0.164926
H147	H	0.931677	-0.165378	-0.485575
H148	H	1.431677	0.334622	0.014425
N149	N	1.456423	0.193566	-1.250421
N150	N	1.956423	0.693566	-0.750421
N151	N	1.472654	0.210179	-1.326619
N152	N	1.972654	0.710179	-0.826619
H153	H	1.518890	0.257504	-1.363508
H154	H	2.018890	0.757504	-0.863508
N155	N	1.484149	0.221941	-1.130854
N156	N	1.984149	0.721941	-0.630854
N157	N	1.500382	0.238549	-1.207053
N158	N	2.000382	0.738549	-0.707053
H159	H	1.546622	0.285870	-1.243945
H160	H	2.046622	0.785870	-0.743945
N161	N	1.346319	-0.255322	-0.563651
N162	N	1.846319	0.244678	-0.063651
N163	N	1.348902	-0.189840	-0.561024
N164	N	1.848902	0.310160	-0.061024
H165	H	1.380318	-0.163368	-0.529680
H166	H	1.880318	0.336632	-0.029680
N167	N	0.990386	0.052399	-0.681265
N168	N	1.490386	0.552399	-0.181265
N169	N	1.034527	0.101317	-0.660130
N170	N	1.534527	0.601317	-0.160130
H171	H	1.075200	0.148623	-0.702623
H172	H	1.575200	0.648623	-0.202623
H173	H	1.364190	-0.594377	-0.546084
H174	H	1.864190	-0.094377	-0.046084
H175	H	1.358934	-0.727438	-0.551431
H176	H	1.858934	-0.227438	-0.051431
N177	N	0.899005	0.193317	-0.807952
N178	N	1.399005	0.693317	-0.307952
N179	N	0.871808	0.235253	-0.845650
N180	N	1.371808	0.735253	-0.345650
H181	H	0.912470	0.282555	-0.888156
H182	H	1.412470	0.782555	-0.388156
N183	N	0.762456	-0.212687	-0.443076
N184	N	1.262456	0.287313	0.056924
N185	N	0.684933	-0.229275	-0.428173
N186	N	1.184933	0.270725	0.071827
H187	H	0.644254	-0.276570	-0.385665
H188	H	1.144254	0.223430	0.114335
H189	H	0.565487	-0.029802	-0.607484
H190	H	1.065487	0.470198	-0.107484
H191	H	0.656858	-0.170722	-0.480819
H192	H	1.156858	0.329278	0.019181
H193	H	1.359858	0.094723	-1.301899
H194	H	1.859858	0.594723	-0.801899
N195	N	0.583615	-0.089370	-0.553941
N196	N	1.083615	0.410630	-0.053941
N197	N	0.531881	-0.096800	-0.482185
N198	N	1.031881	0.403200	0.017815
H199	H	0.469238	-0.110225	-0.470126
H200	H	0.969238	0.389775	0.029874
N201	N	1.447392	0.184324	-0.958329
N202	N	1.947392	0.684324	-0.458329
N203	N	1.504609	0.242900	-1.003979
N204	N	2.004609	0.742900	-0.503979
H205	H	1.537733	0.276803	-0.979299
H206	H	2.037733	0.776803	-0.479299
H207	H	0.942586	0.094504	-0.719124
H208	H	1.442586	0.594504	-0.219124
H209	H	1.179311	-0.396040	-0.730339
H210	H	1.679311	0.103960	-0.230339
H211	H	1.332043	-0.395985	-0.577997
H212	H	1.832043	0.104015	-0.077997
H213	H	0.770047	0.208110	-0.821269
H214	H	1.270047	0.708110	-0.321269
N215	N	1.197164	-0.735080	-0.712771
N216	N	1.697164	-0.235080	-0.212771
N217	N	1.160876	-0.702346	-0.748938
N218	N	1.660876	-0.202346	-0.248938
H219	H	1.129452	-0.728807	-0.780282
H220	H	1.629452	-0.228807	-0.280282
N221	N	0.606222	0.184096	-0.799748
N222	N	1.106222	0.684096	-0.299748
N223	N	0.656566	0.242627	-0.852362
N224	N	1.156566	0.742627	-0.352362
H225	H	0.634612	0.276509	-0.882851
H226	H	1.134612	0.776509	-0.382851
H227	H	1.211459	-0.594429	-0.698430
H228	H	1.711459	-0.094429	-0.198430
N229	N	1.176143	-0.255390	-0.733394
N230	N	1.676143	0.244610	-0.233394
N231	N	1.137270	-0.288149	-0.772194
N232	N	1.637270	0.211851	-0.272194
H233	H	1.107952	-0.261710	-0.801430
H234	H	1.607952	0.238290	-0.301430
N235	N	1.335521	-0.475146	-0.574581
N236	N	1.835521	0.024854	-0.074581
N237	N	1.296823	-0.451871	-0.515229
N238	N	1.796823	0.048129	-0.015229
H239	H	1.328220	-0.425399	-0.483872
H240	H	1.828220	0.074601	0.016128
N241	N	1.207947	-0.515264	-0.701829
N242	N	1.707947	-0.015264	-0.201829
N243	N	1.171648	-0.482535	-0.737987
N244	N	1.671648	0.017465	-0.237987
H245	H	1.140220	-0.508999	-0.769326
H246	H	1.640220	-0.008999	-0.269326
H247	H	1.100577	-0.170661	-1.037413
H248	H	1.600577	0.329339	-0.537413
N249	N	1.225021	-0.043283	-0.924144
N250	N	1.725021	0.456717	-0.424144
N251	N	1.150523	-0.052946	-0.918732
N252	N	1.650523	0.447054	-0.418732
H253	H	1.104277	-0.100267	-0.881842
H254	H	1.604277	0.399733	-0.381842
N255	N	1.180098	-0.089284	-0.957638
N256	N	1.680098	0.410716	-0.457638
N257	N	1.122872	-0.147861	-0.912006
N258	N	1.622872	0.352139	-0.412006
H259	H	1.109737	-0.161299	-0.850434
H260	H	1.609737	0.338701	-0.350434
H261	H	1.072857	-0.199034	-1.156976
H262	H	1.572857	0.300966	-0.656976
H263	H	1.105873	-0.165265	-1.311812
H264	H	1.605873	0.334735	-0.811812
N265	N	1.318710	0.052598	-1.353088
N266	N	1.818710	0.552598	-0.853088
N267	N	1.334941	0.069211	-1.429287
N268	N	1.834941	0.569211	-0.929287
H269	H	1.381177	0.116536	-1.466176
H270	H	1.881177	0.616536	-0.966176
