data_functionalizedCrystal
_audit_creation_method	'MofGen! by Chris Wilmer'
_symmetry_space_group_name_H-M	'P1'
_symmetry_Int_Tables_number	1
_symmetry_cell_setting	triclinic
loop_
_symmetry_equiv_pos_as_xyz
  x,y,z
_cell_length_a	23.096457
_cell_length_b	15.698487
_cell_length_c	15.698487
_cell_angle_alpha	90.000712
_cell_angle_beta	60.001244
_cell_angle_gamma	60.002993
loop_
_atom_site_label
_atom_site_type_symbol
_atom_site_fract_x
_atom_site_fract_y
_atom_site_fract_z
Zr1	Zr	0.633741	-0.111760	0.820634
O2	O	0.754522	-0.247765	0.684623
O3	O	0.512956	-0.070072	0.862325
O4	O	0.633739	-0.247775	0.862329
O5	O	0.633741	0.070119	0.684620
O6	O	0.633741	-0.247777	1.002510
O7	O	0.633739	-0.070062	0.684619
O8	O	0.417683	0.070101	1.002503
O9	O	0.849800	-0.247759	0.684626
O10	O	0.562640	-0.052288	0.984725
O11	O	0.562640	0.052329	0.880110
O12	O	0.704846	-0.156893	0.880115
O13	O	0.704846	-0.052276	0.775499
Zr14	Zr	0.633748	0.111810	1.044207
Zr15	Zr	0.633744	-0.111763	1.044206
Zr16	Zr	0.633744	0.111813	0.820634
Zr17	Zr	0.785698	-0.111750	0.820639
Zr18	Zr	0.481791	0.111800	1.044201
O19	O	0.754533	0.070122	1.002516
O20	O	0.754527	-0.247770	1.002514
O21	O	0.754527	0.070127	0.684624
O22	O	0.512967	0.247815	1.180218
O23	O	0.512961	-0.070077	1.180217
O24	O	0.512961	0.247820	0.862326
O25	O	0.633747	-0.070069	1.180221
O26	O	0.633750	0.247825	1.002512
O27	O	0.633747	0.247827	0.862331
O28	O	0.633750	0.070112	1.180222
O29	O	0.849803	-0.247762	0.862337
O30	O	0.417686	0.247812	1.002504
O31	O	0.417689	0.247809	1.180214
O32	O	0.417686	0.070098	1.180214
O33	O	0.849803	-0.070048	0.684627
O34	O	0.849806	-0.070051	0.862338
O35	O	0.562643	0.156943	0.984726
O36	O	0.562643	0.052326	1.089341
O37	O	0.704849	-0.052279	0.984731
O38	O	0.704849	0.052338	0.880115
C39	C	0.443669	0.000013	0.932413
C40	C	0.379159	0.000009	0.932411
C41	C	0.633740	0.000029	0.652765
C42	C	0.633738	0.000031	0.557853
C43	C	0.633749	0.279680	0.932421
C44	C	0.633751	0.374593	0.932422
C45	C	0.348858	-0.054604	0.987012
C46	C	0.288236	-0.054595	0.987022
C47	C	0.257928	0.000012	0.932411
C48	C	0.288233	0.054637	0.877808
C49	C	0.348849	0.054636	0.877808
N50	N	0.195531	-0.007559	0.843541
N51	N	0.137950	-0.007563	0.843543
C52	C	0.075296	0.000022	0.932410
N53	N	0.072406	0.007591	1.021273
N54	N	0.129994	0.007589	1.021269
C55	C	0.192201	0.000020	0.932406
C56	C	-0.020739	-0.054585	0.987027
C57	C	-0.081366	-0.054569	0.987040
C58	C	-0.081361	0.054657	0.877815
C59	C	-0.020741	0.054648	0.877812
C60	C	0.009569	0.000021	0.932416
C61	C	0.823820	0.000037	0.932427
C62	C	0.888330	0.000041	0.932430
C63	C	0.633740	-0.279630	0.932419
C64	C	0.633738	-0.374543	0.932419
C65	C	0.633736	0.548378	0.932422
C66	C	0.633741	0.451674	0.932424
C67	C	0.633753	0.000021	0.384067
C68	C	0.633748	0.000024	0.480771
C69	C	0.633749	0.000021	1.212076
C70	C	0.633751	0.000019	1.306988
C71	C	0.443673	0.000009	1.212069
C72	C	0.379165	0.000003	1.306979
C73	C	0.443673	0.279669	0.932414
C74	C	0.379165	0.374577	0.932412
C75	C	0.443678	0.279664	1.212070
C76	C	0.379171	0.374571	1.306980
C77	C	0.823811	-0.279614	0.652771
C78	C	0.888318	-0.374521	0.557861
C79	C	0.823815	0.000041	0.652772
C80	C	0.888324	0.000047	0.557862
C81	C	0.823815	-0.279619	0.932426
C82	C	0.888324	-0.374527	0.932428
C83	C	0.348870	-0.054616	1.296941
C84	C	0.288266	-0.054642	1.386111
C85	C	0.257954	-0.000042	1.485317
C86	C	0.288256	0.054579	1.495352
C87	C	0.348863	0.054598	1.406184
C88	C	0.348873	0.473764	0.987020
C89	C	0.288269	0.562949	0.987014
C90	C	0.257954	0.552945	0.932406
C91	C	0.288252	0.453748	0.877792
C92	C	0.348859	0.364565	0.877792
C93	C	0.348878	0.364532	1.406168
C94	C	0.288276	0.453698	1.495355
C95	C	0.257963	0.552904	1.485352
C96	C	0.288262	0.562941	1.386153
C97	C	0.348868	0.473776	1.296968
C98	C	0.918618	-0.364481	0.458672
C99	C	0.979239	-0.453648	0.369485
C100	C	1.009555	-0.552854	0.379489
C101	C	0.979252	-0.562891	0.478688
C102	C	0.918636	-0.473726	0.567872
C103	C	0.918626	0.054657	0.567900
C104	C	0.979246	0.054658	0.478730
C105	C	1.009560	0.000055	0.379524
C106	C	0.979256	-0.054562	0.369488
C107	C	0.918640	-0.054569	0.458657
C108	C	0.918619	-0.364490	0.987047
C109	C	0.979224	-0.453658	0.987069
C110	C	1.009535	-0.552862	0.932466
C111	C	0.979234	-0.562897	0.877846
C112	C	0.918626	-0.473730	0.877831
H113	H	0.373533	-0.099081	1.031476
H114	H	0.263560	-0.099069	1.031487
H115	H	1.003889	-0.445466	1.031546
H116	H	0.893949	-0.283720	1.031511
N117	N	0.887699	-0.110359	0.448376
N118	N	0.914776	-0.159102	0.359789
H119	H	0.892927	-0.198508	0.352519
H120	H	0.373550	0.283761	1.414334
H121	H	0.373520	0.099108	0.833342
N122	N	0.379775	0.263258	0.822023
N123	N	0.332393	0.236683	0.845189
H124	H	0.354224	0.165137	0.805799
H125	H	0.263573	0.643726	1.378023
H126	H	0.373522	0.099082	1.414371
N127	N	0.887670	0.110417	0.669237
N128	N	0.833553	0.110408	0.748854
H129	H	0.811696	0.149786	0.820423
H130	H	0.263553	0.099100	0.833344
H131	H	0.263612	0.445507	1.576119
N132	N	0.196056	0.643968	1.576468
N133	N	0.169019	0.634978	1.665021
H134	H	0.125295	0.699289	1.729376
N135	N	0.887660	-0.263145	0.448456
N136	N	0.833542	-0.183531	0.528081
H137	H	0.811684	-0.111962	0.520861
N138	N	1.071442	-0.643928	0.932502
N139	N	1.098481	-0.634940	0.981276
H140	H	1.142204	-0.699252	0.981304
H141	H	1.058912	-0.625449	0.306861
H142	H	1.003923	-0.643682	0.833390
N143	N	0.379798	0.484058	1.195659
N144	N	0.352719	0.572645	1.186754
H145	H	0.374561	0.579916	1.115206
N146	N	0.010225	-0.110398	1.042793
N147	N	-0.016839	-0.159158	1.091542
H148	H	0.005031	-0.198583	1.130923
N149	N	-0.112318	-0.110352	1.042833
N150	N	-0.085247	-0.159115	1.091581
H151	H	-0.107108	-0.198513	1.130987
H152	H	0.263608	0.643711	1.031491
N153	N	1.010176	-0.443362	0.268173
N154	N	0.983091	-0.354776	0.259266
H155	H	1.004938	-0.347507	0.187717
H156	H	0.263561	0.445618	0.833331
H157	H	0.893966	-0.481913	0.648634
H158	H	0.893966	-0.481918	0.833349
H159	H	1.003943	-0.643675	0.486821
N160	N	1.010185	0.110454	0.489014
N161	N	0.983102	0.159209	0.577601
H162	H	1.004950	0.198616	0.584868
H163	H	-0.106037	0.099119	0.833350
H164	H	1.058917	0.000069	0.306926
N165	N	1.010236	-0.110332	0.268140
N166	N	1.064353	-0.110306	0.188543
H167	H	1.086233	-0.149689	0.116963
H168	H	0.003933	0.099115	0.833346
H169	H	0.263601	-0.099121	1.377919
N170	N	0.379809	-0.110389	1.195619
N171	N	0.352742	-0.159148	1.186691
H172	H	0.374590	-0.198543	1.115135
N173	N	0.195976	0.000024	1.576385
N174	N	0.168890	-0.048681	1.567396
H175	H	0.125090	-0.048598	1.631709
N176	N	0.257279	0.110345	1.596700
N177	N	0.203161	0.110318	1.676297
H178	H	0.181277	0.149708	1.747878
H179	H	0.373549	0.481929	1.031488
N180	N	0.196047	0.644059	0.932419
N181	N	0.169012	0.732611	0.981186
H182	H	0.125289	0.796965	0.981201
