data_functionalizedCrystal
_audit_creation_method	'MofGen! by Chris Wilmer'
_symmetry_space_group_name_H-M	'P1'
_symmetry_Int_Tables_number	1
_symmetry_cell_setting	triclinic
loop_
_symmetry_equiv_pos_as_xyz
  x,y,z
_cell_length_a	19.188925
_cell_length_b	19.188930
_cell_length_c	15.455313
_cell_angle_alpha	92.650876
_cell_angle_beta	87.326905
_cell_angle_gamma	83.143665
loop_
_atom_site_label
_atom_site_type_symbol
_atom_site_fract_x
_atom_site_fract_y
_atom_site_fract_z
O1	O	0.929218	0.084085	-0.072159
O2	O	1.429218	0.584085	0.427841
O3	O	0.725906	0.095823	-0.072158
O4	O	1.225906	0.595823	0.427842
O5	O	0.833429	-0.011701	-0.072141
O6	O	1.333429	0.488299	0.427859
O7	O	0.821696	0.191609	-0.072175
O8	O	1.321696	0.691609	0.427825
O9	O	0.827280	-0.005578	0.072120
O10	O	1.327280	0.494422	0.572120
O11	O	0.719758	0.101947	0.072103
O12	O	1.219758	0.601947	0.572103
O13	O	0.923070	0.090208	0.072102
O14	O	1.423070	0.590208	0.572102
Cu15	Cu	0.820852	0.096637	0.085275
Cu16	Cu	1.320852	0.596637	0.585275
Cu17	Cu	0.828124	0.089395	-0.085331
Cu18	Cu	1.328124	0.589395	0.414669
O19	O	0.815547	0.197733	0.072086
O20	O	1.315547	0.697733	0.572086
C21	C	0.696821	0.098505	-0.000027
C22	C	1.196821	0.598505	0.499973
C23	C	0.619316	0.097366	-0.000026
C24	C	1.119316	0.597366	0.499974
C25	C	0.057546	0.152830	-0.000037
C26	C	0.557546	0.652830	0.499963
C27	C	0.130370	0.153906	-0.000042
C28	C	0.630370	0.653906	0.499958
C29	C	0.175304	0.090814	-0.000030
C30	C	0.675304	0.590814	0.499970
C31	C	0.147410	0.026641	-0.000035
C32	C	0.647410	0.526641	0.499965
C33	C	0.074588	0.025566	-0.000039
C34	C	0.574588	0.525566	0.499961
N35	N	0.293887	0.047223	0.049085
N36	N	0.793887	0.547223	0.549085
N37	N	0.363065	0.048249	0.049091
N38	N	0.863065	0.548249	0.549091
C39	C	0.394712	0.094049	-0.000020
C40	C	0.894712	0.594049	0.499980
N41	N	0.354568	0.138796	-0.049126
N42	N	0.854568	0.638796	0.450874
N43	N	0.285384	0.137773	-0.049127
N44	N	0.785384	0.637773	0.450873
C45	C	0.254268	0.091973	-0.000026
C46	C	0.754268	0.591973	0.499974
C47	C	0.501562	0.159385	-0.000026
C48	C	1.001562	0.659385	0.499974
C49	C	0.574387	0.160459	-0.000036
C50	C	1.074387	0.660459	0.499964
C51	C	0.591426	0.033192	-0.000021
C52	C	1.091426	0.533192	0.499979
C53	C	0.518602	0.032120	-0.000019
C54	C	1.018602	0.532120	0.499981
C55	C	0.473674	0.095219	-0.000018
C56	C	0.973674	0.595219	0.499982
C57	C	0.829974	-0.034650	-0.000008
C58	C	1.329974	0.465350	0.499992
C59	C	0.828833	-0.112154	-0.000001
C60	C	1.328833	0.387846	0.499999
C61	C	0.891924	-0.157079	0.000003
C62	C	1.391924	0.342921	0.500003
C63	C	0.890853	-0.229904	-0.000011
C64	C	1.390853	0.270096	0.499989
C65	C	0.826687	-0.257799	-0.000011
C66	C	1.326687	0.242201	0.499989
C67	C	0.763588	-0.212864	-0.000020
C68	C	1.263588	0.287136	0.499980
C69	C	0.764661	-0.140042	-0.000015
C70	C	1.264661	0.359958	0.499985
N71	N	0.775547	-0.363719	0.049084
N72	N	1.275547	0.136281	0.549084
N73	N	0.774531	-0.432898	0.049081
N74	N	1.274531	0.067102	0.549081
C75	C	0.823449	-0.477208	-0.000029
C76	C	1.323449	0.022792	0.499971
N77	N	0.873431	-0.449728	-0.049124
N78	N	1.373431	0.050272	0.450876
N79	N	0.874448	-0.380543	-0.049117
N80	N	1.374448	0.119457	0.450883
C81	C	0.825516	-0.336762	-0.000017
C82	C	1.325516	0.163238	0.499983
C83	C	0.885383	-0.601099	-0.000041
C84	C	1.385383	-0.101099	0.499959
C85	C	0.884310	-0.673924	-0.000061
C86	C	1.384310	-0.173924	0.499939
C87	C	0.757042	-0.656883	-0.000061
C88	C	1.257042	-0.156883	0.499939
C89	C	0.758118	-0.584059	-0.000050
C90	C	1.258118	-0.084059	0.499950
C91	C	0.822290	-0.556172	-0.000036
C92	C	1.322290	-0.056172	0.499964
C93	C	0.952155	0.087526	-0.000031
C94	C	1.452155	0.587526	0.499969
C95	C	1.029660	0.088665	-0.000037
C96	C	1.529660	0.588665	0.499963
C97	C	0.819002	0.220682	-0.000049
C98	C	1.319002	0.720682	0.499951
C99	C	0.820143	0.298186	-0.000062
C100	C	1.320143	0.798186	0.499938
N101	N	0.815743	0.101730	0.205270
N102	N	1.315743	0.601730	0.705270
N103	N	0.833238	0.084296	-0.205325
N104	N	1.333238	0.584296	0.294675
C105	C	0.861438	0.056066	0.250671
C106	C	1.361438	0.556066	0.750671
C107	C	0.857581	0.059924	0.341478
C108	C	1.357581	0.559924	0.841478
C109	C	0.808031	0.109449	0.386883
C110	C	1.308031	0.609449	0.886883
C111	C	0.762331	0.155115	0.341475
C112	C	1.262331	0.655115	0.841475
C113	C	0.766186	0.151253	0.250670
C114	C	1.266186	0.651253	0.750670
C115	C	0.791393	0.126100	0.658462
C116	C	1.291393	0.626100	1.158462
C117	C	0.787543	0.129960	0.749274
C118	C	1.287543	0.629960	1.249274
C119	C	0.882792	0.034768	0.749270
C120	C	1.382792	0.534768	1.249270
C121	C	0.886645	0.030913	0.658463
C122	C	1.386645	0.530913	1.158463
C123	C	0.840943	0.076576	0.613063
C124	C	1.340943	0.576576	1.113063
N125	N	0.804088	0.113396	0.479702
N126	N	1.304088	0.613396	0.979702
N127	N	0.844883	0.072626	0.520245
N128	N	1.344883	0.572626	1.020245
H129	H	0.495897	-0.020130	-0.000015
H130	H	0.995897	0.479870	0.499985
H131	H	0.728975	0.188436	0.213705
H132	H	1.228975	0.688436	0.713705
F133	F	0.709592	0.207821	0.389799
F134	F	1.209592	0.707821	0.889799
H135	H	0.920000	-0.002410	0.786243
H136	H	1.420000	0.497590	1.286243
H137	H	0.051884	-0.026686	-0.000040
H138	H	0.551884	0.473314	0.499960
H139	H	0.153079	0.206159	-0.000033
H140	H	0.653079	0.706159	0.499967
F141	F	0.951464	-0.721738	-0.000062
F142	F	1.451464	-0.221738	0.499938
F143	F	0.009735	0.219985	-0.000044
F144	F	0.509735	0.719985	0.499956
H145	H	0.597090	0.212711	-0.000043
H146	H	1.097090	0.712711	0.499957
H147	H	0.628010	-0.018179	-0.000018
H148	H	1.128010	0.481821	0.499982
H149	H	0.894789	0.022741	0.378443
H150	H	1.394789	0.522741	0.878443
F151	F	0.195233	-0.040506	-0.000025
F152	F	0.695233	0.459494	0.499975
H153	H	0.926993	-0.009414	0.621496
H154	H	1.426993	0.490586	1.121496
F155	F	0.695298	-0.242554	-0.000026
F156	F	1.195298	0.257446	0.499974
F157	F	0.734803	0.182676	0.797591
F158	F	1.234803	0.682676	1.297591
H159	H	0.464979	0.210764	-0.000027
H160	H	0.964979	0.710764	0.499973
F161	F	0.742756	0.174699	0.610151
F162	F	1.242756	0.674699	1.110151
F163	F	0.697508	-0.092227	-0.000019
F164	F	1.197508	0.407773	0.499981
F165	F	0.958006	-0.277725	-0.000008
F166	F	1.458006	0.222275	0.499992
F167	F	0.960223	-0.127404	-0.000001
F168	F	1.460223	0.372596	0.499999
F169	F	0.688751	-0.686566	-0.000066
F170	F	1.188751	-0.186566	0.499934
F171	F	0.953680	-0.571416	-0.000022
F172	F	1.453680	-0.071416	0.499978
H173	H	0.706742	-0.547480	-0.000048
H174	H	1.206742	-0.047480	0.499952
F175	F	0.914180	0.003357	0.202356
F176	F	1.414180	0.503357	0.702356
