data_functionalizedCrystal
_audit_creation_method	'MofGen! by Chris Wilmer'
_symmetry_space_group_name_H-M	'P1'
_symmetry_Int_Tables_number	1
_symmetry_cell_setting	triclinic
loop_
_symmetry_equiv_pos_as_xyz
  x,y,z
_cell_length_a	16.120484
_cell_length_b	15.297475
_cell_length_c	15.296720
_cell_angle_alpha	91.617114
_cell_angle_beta	78.013482
_cell_angle_gamma	96.312526
loop_
_atom_site_label
_atom_site_type_symbol
_atom_site_fract_x
_atom_site_fract_y
_atom_site_fract_z
Zn1	Zn	-0.646916	-1.212936	0.755054
Zn2	Zn	-0.766607	-1.230712	0.613834
Zn3	Zn	-0.600220	-1.094735	0.581241
Zn4	Zn	-0.758436	-1.059450	0.734603
O5	O	-0.693045	-1.149458	0.671183
O6	O	-0.685755	-1.336436	0.758520
O7	O	-0.728412	-1.234881	0.486227
O8	O	-0.490110	-1.117742	0.599215
O9	O	-0.773691	-1.349496	0.654766
O10	O	-0.524417	-1.204584	0.726915
O11	O	-0.606169	-1.134979	0.462280
O12	O	-0.598246	-0.968913	0.579385
O13	O	-0.759766	-1.057604	0.860600
O14	O	-0.714486	-0.942989	0.692060
O15	O	-0.677833	-1.170370	0.875625
O16	O	-0.881827	-1.200666	0.634936
O17	O	-0.875825	-1.074840	0.723665
C18	C	-0.650413	-0.924540	0.629967
C19	C	-0.632198	-0.828314	0.612357
C20	C	-0.908989	-1.135873	0.680642
C21	C	-1.001390	-1.130135	0.684732
C22	C	-0.723097	-1.108068	0.900972
C23	C	-0.735903	-1.090430	0.998895
C24	C	-1.170572	-1.119661	0.692219
C25	C	-1.214709	-1.179408	0.650189
C26	C	-1.308847	-1.173580	0.654355
C27	C	-1.076425	-1.125488	0.688054
C28	C	-0.476264	-1.163116	0.661711
C29	C	-0.383885	-1.168937	0.657674
C30	C	-0.735844	-1.375255	0.712560
C31	C	-0.754082	-1.471476	0.730193
C32	C	-0.823238	-0.503218	0.797050
C33	C	-0.840358	-0.593627	0.813594
C34	C	-0.788320	-0.652303	0.763286
C35	C	-0.719158	-0.620561	0.696432
C36	C	-0.702040	-0.530143	0.679882
C37	C	-0.667122	-0.679229	0.646118
C38	C	-0.597960	-0.647487	0.579263
C39	C	-0.580845	-0.557078	0.562717
C40	C	-0.632884	-0.498402	0.613024
C41	C	-0.684239	-0.769646	0.662668
C42	C	-0.563041	-0.796572	0.545499
C43	C	-0.545921	-0.706162	0.528956
C44	C	-0.663059	-1.190741	0.442294
C45	C	-0.650051	-1.208562	0.344393
C46	C	-0.601377	-1.275562	1.306214
C47	C	-0.589347	-1.292140	1.214212
C48	C	-0.625985	-1.241714	1.160378
C49	C	-0.674655	-1.174707	1.198556
C50	C	-0.686691	-1.158133	1.290568
C51	C	-0.711299	-1.124284	1.144732
C52	C	-0.759969	-1.057278	1.182909
C53	C	-0.772003	-1.040706	1.274912
C54	C	-0.735365	-1.091132	1.328746
C55	C	-0.699263	-1.140858	1.052720
C56	C	-0.784577	-1.023429	1.037073
C57	C	-0.796607	-1.006852	1.129075
H58	H	-1.181795	-1.234934	0.611077
C59	C	-0.535804	-1.365834	1.172218
C60	C	-0.522562	-1.384066	1.071014
C61	C	-0.469012	-1.457761	1.029018
C62	C	-0.428704	-1.513224	1.088226
C63	C	-0.441944	-1.494993	1.189435
C64	C	-0.495494	-1.421298	1.231432
H65	H	-0.552402	-1.343008	1.027180
H66	H	-0.459211	-1.471257	0.954096
H67	H	-0.389062	-1.567777	1.057138
H68	H	-0.412104	-1.536051	1.233270
H69	H	-0.505296	-1.407802	1.306354
C70	C	-1.215027	-1.044648	0.745051
C71	C	-1.310532	-1.038855	0.749189
C72	C	-1.354998	-0.963842	0.802018
C73	C	-1.303960	-0.894621	0.850708
C74	C	-1.208450	-0.900412	0.846572
C75	C	-1.163983	-0.975425	0.793744
H76	H	-1.348318	-1.090098	0.713143
H77	H	-1.425702	-0.959556	0.805079
H78	H	-1.336877	-0.839092	0.889815
H79	H	-1.170663	-0.849168	0.882618
H80	H	-1.093280	-0.979711	0.790682
C81	C	-0.561086	-1.331028	1.365433
C82	C	-0.584877	-1.431290	1.371118
C83	C	-0.544585	-1.486761	1.430340
C84	C	-0.480503	-1.441971	1.483877
C85	C	-0.456708	-1.341703	1.478194
C86	C	-0.497000	-1.286232	1.418972
H87	H	-0.632317	-1.464451	1.331486
H88	H	-0.562200	-1.560986	1.434547
H89	H	-0.450677	-1.483034	1.527717
H90	H	-0.409268	-1.308542	1.517827
H91	H	-0.479385	-1.212007	1.414765
H92	H	-0.740551	-0.795481	0.717102
H93	H	-0.802263	-0.725918	0.776760
C94	C	-0.916426	-0.628541	0.887135
C95	C	-0.973664	-0.564005	0.942477
C96	C	-1.049734	-0.598919	1.016025
C97	C	-1.068566	-0.698369	1.034230
C98	C	-1.011326	-0.762911	0.978886
C99	C	-0.935256	-0.727997	0.905338
H100	H	-0.959725	-0.490381	0.929002
H101	H	-1.092107	-0.551141	1.056994
H102	H	-1.124878	-0.724214	1.088675
H103	H	-1.025265	-0.836535	0.992362
H104	H	-0.892883	-0.775776	0.864369
C105	C	-0.880478	-0.438679	0.852381
C106	C	-0.889307	-0.433497	0.954533
C107	C	-0.946554	-0.368957	1.009868
C108	C	-0.994972	-0.309599	0.963050
C109	C	-0.986145	-0.314778	0.860891
C110	C	-0.928898	-0.379318	0.805556
H111	H	-0.853464	-0.477440	0.989196
H112	H	-0.953088	-0.365124	1.085493
H113	H	-1.037350	-0.261823	1.004011
H114	H	-1.021988	-0.270836	0.826228
H115	H	-0.922364	-0.383152	0.729932
H116	H	-0.618947	-0.424782	0.599559
H117	H	-0.524537	-0.531238	0.508270
C118	C	-0.469849	-0.671238	0.455414
C119	C	-0.397900	-0.606283	0.479478
C120	C	-0.321828	-0.571357	0.405938
C121	C	-0.317706	-0.601386	0.308333
C122	C	-0.389659	-0.666345	0.284264
C123	C	-0.465730	-0.701271	0.357804
H124	H	-0.400948	-0.584050	0.551735
H125	H	-0.268564	-0.523270	0.423756
H126	H	-0.261393	-0.575532	0.253894
H127	H	-0.386610	-0.688578	0.212007
H128	H	-0.518994	-0.749358	0.339986
C129	C	-0.505791	-0.861104	0.490155
C130	C	-0.457366	-0.920464	0.536964
C131	C	-0.400122	-0.985002	0.481621
C132	C	-0.391303	-0.990179	0.379469
C133	C	-0.439729	-0.930817	0.332654
C134	C	-0.496973	-0.866280	0.387997
H135	H	-0.463893	-0.916634	0.612588
H136	H	-0.364274	-1.028945	0.516276
H137	H	-0.348928	-1.037954	0.338500
H138	H	-0.433202	-0.934648	0.257030
H139	H	-0.532821	-0.822336	0.353341
C140	C	-0.645723	-1.214557	1.010730
C141	C	-0.551557	-1.211166	1.017964
C142	C	-0.498012	-1.284868	0.975975
C143	C	-0.538633	-1.361960	0.926752
C144	C	-0.632804	-1.365354	0.919515
C145	C	-0.686349	-1.291652	0.961504
H146	H	-0.521483	-1.154095	1.054404
H147	H	-0.428301	-1.282355	0.981332
H148	H	-0.498996	-1.416518	0.895669
H149	H	-0.662879	-1.422425	0.883076
H150	H	-0.756061	-1.294165	0.956147
H151	H	-0.745157	-1.077639	1.403662
C152	C	-0.825529	-0.966988	1.316894
C153	C	-0.919692	-0.970349	1.309658
C154	C	-0.973212	-0.896622	1.351631
C155	C	-0.932568	-0.819535	1.400842
C156	C	-0.838400	-0.816171	1.408081
C157	C	-0.784881	-0.889898	1.366107
H158	H	-0.949784	-1.027416	1.273227
H159	H	-1.042921	-0.899113	1.346273
H160	H	-0.972186	-0.764959	1.431913
H161	H	-0.808308	-0.759104	1.444511
H162	H	-0.715171	-0.887407	1.371466
C163	C	-0.850154	-0.933158	1.171082
C164	C	-0.944323	-0.936552	1.163858
C165	C	-0.997872	-0.862862	1.205869
C166	C	-0.957253	-0.785777	1.255104
C167	C	-0.863080	-0.782380	1.262330
C168	C	-0.809530	-0.856070	1.220319
H169	H	-0.974396	-0.993617	1.127410
H170	H	-1.067586	-0.865377	1.200519
H171	H	-0.996894	-0.731227	1.286202
H172	H	-0.833007	-0.725315	1.298778
H173	H	-0.739816	-0.853555	1.225669
C174	C	-0.824877	-0.967946	0.977867
C175	C	-0.767699	-0.913641	0.900594
C176	C	-0.807996	-0.858162	0.841384
C177	C	-0.905472	-0.856988	0.859447
C178	C	-0.962655	-0.911295	0.936724
C179	C	-0.922358	-0.966774	0.995934
H180	H	-0.695537	-0.914509	0.887219
H181	H	-0.765665	-0.817961	0.784178
H182	H	-0.935302	-0.815919	0.815616
H183	H	-1.034818	-0.910428	0.950099
H184	H	-0.964690	-1.006976	1.053140
H185	H	-0.616187	-1.255215	1.085467
