data_functionalizedCrystal
_audit_creation_method	'MofGen! by Chris Wilmer'
_symmetry_space_group_name_H-M	'P1'
_symmetry_Int_Tables_number	1
_symmetry_cell_setting	triclinic
loop_
_symmetry_equiv_pos_as_xyz
  x,y,z
_cell_length_a	12.759401
_cell_length_b	18.050589
_cell_length_c	12.759393
_cell_angle_alpha	90.029546
_cell_angle_beta	90.020938
_cell_angle_gamma	90.029746
loop_
_atom_site_label
_atom_site_type_symbol
_atom_site_fract_x
_atom_site_fract_y
_atom_site_fract_z
Zn1	Zn	1.606168	-0.295593	0.594027
Zn2	Zn	1.606017	-0.419801	0.418350
Zn3	Zn	1.430466	-0.295633	0.418362
Zn4	Zn	1.430417	-0.419749	0.593987
O5	O	1.518267	-0.357694	0.506182
O6	O	1.753169	-0.312075	0.570735
O7	O	1.582688	-0.403368	0.271331
O8	O	1.453857	-0.191703	0.441686
O9	O	1.753058	-0.403330	0.441666
O10	O	1.582944	-0.191674	0.570746
O11	O	1.453711	-0.312142	0.271339
O12	O	1.283439	-0.312092	0.441648
O13	O	1.453773	-0.403241	0.741014
O14	O	1.283402	-0.403280	0.570679
O15	O	1.582896	-0.312025	0.741043
O16	O	1.582640	-0.523719	0.441627
O17	O	1.453627	-0.523681	0.570667
C18	C	1.245300	-0.357685	0.506161
C19	C	1.128523	-0.357699	0.506177
C20	C	1.518140	-0.550646	0.506164
C21	C	1.518182	-0.633192	0.506192
C22	C	1.073670	-0.405253	0.573257
C23	C	0.963946	-0.405256	0.573278
C24	C	0.963938	-0.310149	0.439129
C25	C	1.073660	-0.310143	0.439114
C26	C	1.448094	-0.832649	0.576339
C27	C	1.422478	-0.882097	0.480470
C28	C	1.518285	-0.784322	0.506206
C29	C	1.543953	-0.881956	0.602085
C30	C	1.518383	-0.930307	0.506227
C31	C	1.492619	-0.832683	0.410286
C32	C	1.614139	-0.832538	0.531966
C33	C	1.588559	-0.881964	0.436031
C34	C	1.518226	-0.700224	0.506194
C35	C	1.518442	-1.014404	0.506228
C36	C	1.792300	-0.357704	0.506203
C37	C	1.909077	-0.357708	0.506212
C38	C	1.518346	-0.357623	0.780215
C39	C	1.518379	-0.357592	0.896992
C40	C	1.518423	-0.163989	0.506222
C41	C	1.518489	-0.081443	0.506239
C42	C	1.518249	-0.357712	0.233214
C43	C	1.518419	-0.357533	0.116438
C44	C	1.585619	-0.310088	0.951871
C45	C	1.585637	-0.310056	1.061595
C46	C	1.451172	-0.405039	1.061552
C47	C	1.451150	-0.405067	0.951829
H48	H	1.118336	-0.443974	0.627867
O49	O	0.910824	-0.451521	0.638472
C50	C	0.982780	-0.493476	0.697676
H51	H	1.060969	-0.496007	0.654622
H52	H	0.994511	-0.466350	0.777534
C53	C	0.843883	-0.569424	0.765510
C54	C	0.939913	-0.572537	0.712626
H55	H	0.817440	-0.618191	0.774737
H56	H	0.795404	-0.541156	0.725627
H57	H	0.853672	-0.546815	0.832053
H58	H	0.930121	-0.595137	0.646080
H59	H	0.988390	-0.600810	0.752499
O60	O	0.910480	-0.264026	0.374019
C61	C	0.801873	-0.274214	0.388434
H62	H	0.786867	-0.331559	0.422699
H63	H	0.770793	-0.230215	0.444499
C64	C	0.763921	-0.196883	0.240072
C65	C	0.745490	-0.267317	0.282149
H66	H	0.729139	-0.192626	0.174512
H67	H	0.837091	-0.190017	0.230362
H68	H	0.738021	-0.160225	0.286803
H69	H	0.771401	-0.303973	0.235425
H70	H	0.672322	-0.274190	0.291848
H71	H	1.640358	-0.271430	0.907225
H72	H	1.640388	-0.271372	1.106272
H73	H	1.388648	-0.810995	0.635565
O74	O	1.126789	-0.263923	0.373847
C75	C	1.054840	-0.221942	0.314671
H76	H	0.976605	-0.252360	0.310964
H77	H	1.043226	-0.165573	0.353285
C78	C	1.193711	-0.173780	0.207429
C79	C	1.097623	-0.211143	0.202869
H80	H	1.220102	-0.167115	0.138466
H81	H	1.242185	-0.202061	0.247300
H82	H	1.184019	-0.126809	0.239612
H83	H	1.107318	-0.258116	0.170700
H84	H	1.049151	-0.182869	0.162991
H85	H	1.396439	-0.443693	1.106214
H86	H	1.396388	-0.443750	0.907146
H87	H	1.341464	-0.903882	0.458702
O88	O	1.466621	-0.806851	0.313609
C89	C	1.466865	-0.728745	0.314770
H90	H	1.455123	-0.708272	0.398479
H91	H	1.545063	-0.707558	0.283631
C92	C	1.391780	-0.724847	0.142210
C93	C	1.377350	-0.699702	0.245022
H94	H	1.336567	-0.706931	0.099184
H95	H	1.391619	-0.777469	0.141426
H96	H	1.456949	-0.707189	0.116276
H97	H	1.312189	-0.717367	0.270959
H98	H	1.377498	-0.647082	0.245809
H99	H	1.647959	-0.903481	0.376662
H100	H	1.565624	-0.903600	0.683161
O101	O	1.710733	-0.806579	0.558169
C102	C	1.737453	-0.831653	0.659341
H103	H	1.662988	-0.845558	0.704604
H104	H	1.788461	-0.883282	0.652764
C105	C	1.889784	-0.753440	0.662007
C106	C	1.798325	-0.770513	0.717602
H107	H	1.927337	-0.715728	0.697944
H108	H	1.871785	-0.736549	0.593844
H109	H	1.932278	-0.796469	0.656529
H110	H	1.755826	-0.727487	0.723067
H111	H	1.816318	-0.787395	0.785768
