data_functionalizedCrystal
_audit_creation_method	'MofGen! by Chris Wilmer'
_symmetry_space_group_name_H-M	'P1'
_symmetry_Int_Tables_number	1
_symmetry_cell_setting	triclinic
loop_
_symmetry_equiv_pos_as_xyz
  x,y,z
_cell_length_a	12.827892
_cell_length_b	10.686409
_cell_length_c	10.686220
_cell_angle_alpha	89.606950
_cell_angle_beta	85.603213
_cell_angle_gamma	85.701411
loop_
_atom_site_label
_atom_site_type_symbol
_atom_site_fract_x
_atom_site_fract_y
_atom_site_fract_z
Zn1	Zn	0.325846	-0.562317	1.972627
Zn2	Zn	0.488481	-0.352588	1.956270
Zn3	Zn	0.328100	-0.368660	1.746628
Zn4	Zn	0.514897	-0.578337	1.762837
O5	O	0.414331	-0.465476	1.859591
O6	O	0.335421	-0.521066	2.145991
O7	O	0.457095	-0.179197	1.914832
O8	O	0.181563	-0.394371	1.776670
O9	O	0.454908	-0.366979	2.133974
O10	O	0.179906	-0.536650	1.942710
O11	O	0.339264	-0.191005	1.760809
O12	O	0.364878	-0.409904	1.573245
O13	O	0.499931	-0.751735	1.804295
O14	O	0.502117	-0.563953	1.585153
O15	O	0.361036	-0.739965	1.958427
O16	O	0.638224	-0.382512	1.930549
O17	O	0.657632	-0.548369	1.788434
C18	C	0.436610	-0.490412	1.533685
C19	C	0.446168	-0.501109	1.394263
C20	C	0.685845	-0.465459	1.859512
C21	C	0.801994	-0.465486	1.859596
C22	C	0.141756	-0.465517	1.859706
C23	C	0.025601	-0.465534	1.859756
C24	C	0.972923	-0.535986	1.941814
C25	C	0.852876	-0.535961	1.941729
C26	C	0.395477	-0.139585	1.834359
C27	C	0.387134	-0.000151	1.823776
C28	C	0.433178	-0.792634	1.884994
C29	C	0.441210	-0.932049	1.895819
C30	C	0.391966	-0.440443	2.186769
C31	C	0.382436	-0.429775	2.326193
H32	H	1.016697	-0.596317	2.012135
C33	C	0.298836	-0.336219	1.391556
N34	N	0.235865	-0.265753	1.440796
C35	C	0.529769	-0.594675	1.328896
N36	N	0.592735	-0.665148	1.279660
H37	H	0.807580	-0.596283	2.011979
C38	C	0.512483	0.002601	1.989979
N39	N	0.566197	-0.046625	2.060864
C40	C	0.966469	-0.384021	1.764757
N41	N	0.921933	-0.322625	1.693200
H42	H	0.847287	-0.405172	1.789333
H43	H	0.334453	0.048214	1.754004
