data_functionalizedCrystal
_audit_creation_method	'MofGen! by Chris Wilmer'
_symmetry_space_group_name_H-M	'P1'
_symmetry_Int_Tables_number	1
_symmetry_cell_setting	triclinic
loop_
_symmetry_equiv_pos_as_xyz
  x,y,z
_cell_length_a	14.971486
_cell_length_b	14.048226
_cell_length_c	14.971496
_cell_angle_alpha	89.992659
_cell_angle_beta	96.383873
_cell_angle_gamma	90.001501
loop_
_atom_site_label
_atom_site_type_symbol
_atom_site_fract_x
_atom_site_fract_y
_atom_site_fract_z
O1	O	-1.186951	-0.079053	0.116564
O2	O	-0.686951	0.420947	0.616564
O3	O	-0.926551	-0.079079	0.130523
O4	O	-0.426551	0.420921	0.630523
O5	O	-1.063726	-0.079057	-0.006656
O6	O	-0.563726	0.420943	0.493344
O7	O	-1.049776	-0.079075	0.253743
O8	O	-0.549776	0.420925	0.753743
O9	O	-1.063710	0.079264	-0.006664
O10	O	-0.563710	0.579264	0.493336
O11	O	-0.926535	0.079242	0.130515
O12	O	-0.426535	0.579242	0.630515
O13	O	-1.186935	0.079268	0.116556
O14	O	-0.686935	0.579268	0.616556
Zn15	Zn	-1.056732	0.104392	0.123534
Zn16	Zn	-0.556732	0.604392	0.623534
Zn17	Zn	-1.056754	-0.104203	0.123545
Zn18	Zn	-0.556754	0.395797	0.623545
O19	O	-1.049760	0.079246	0.253735
O20	O	-0.549760	0.579246	0.753735
C21	C	-1.063092	0.000104	-0.039985
C22	C	-0.563092	0.500104	0.460015
C23	C	-1.061218	0.000104	-0.139281
C24	C	-0.561218	0.500104	0.360719
C25	C	-0.893218	0.000078	0.129895
C26	C	-0.393218	0.500078	0.629895
C27	C	-0.793921	0.000068	0.128024
C28	C	-0.293921	0.500068	0.628024
N29	N	-1.056724	0.246753	0.123526
N30	N	-0.556724	0.746753	0.623526
C31	C	-1.220268	0.000109	0.117184
C32	C	-0.720268	0.500109	0.617184
C33	C	-1.319565	0.000112	0.119055
C34	C	-0.819565	0.500112	0.619055
C35	C	-0.736699	0.000064	0.208613
C36	C	-0.236699	0.500064	0.708613
C37	C	-0.643399	0.000078	0.206850
C38	C	-0.143399	0.500078	0.706850
C39	C	-0.607324	0.000090	0.124497
C40	C	-0.107324	0.500090	0.624497
C41	C	-0.664554	0.000097	0.043902
C42	C	-0.164554	0.500097	0.543902
C43	C	-0.757852	0.000090	0.045666
C44	C	-0.257852	0.500090	0.545666
C45	C	-0.470091	0.000111	0.040231
C46	C	0.029909	0.500111	0.540231
C47	C	-0.376787	0.000117	0.038466
C48	C	0.123213	0.500117	0.538466
C49	C	-0.355639	0.000099	0.201414
C50	C	0.144361	0.500099	0.701414
C51	C	-0.448937	0.000092	0.203179
C52	C	0.051063	0.500092	0.703179
C53	C	-0.506160	0.000097	0.122583
C54	C	-0.006160	0.500097	0.622583
N55	N	-1.056769	-0.246564	0.123545
N56	N	-0.556769	0.253436	0.623545
C57	C	-1.117484	0.296581	0.062809
C58	C	-0.617484	0.796581	0.562809
C59	C	-1.117490	0.396238	0.062808
C60	C	-0.617490	0.896238	0.562808
C61	C	-1.056739	0.446066	0.123530
C62	C	-0.556739	0.946066	0.623530
C63	C	-0.995973	0.396231	0.184251
C64	C	-0.495973	0.896231	0.684251
C65	C	-0.995963	0.296575	0.184246
C66	C	-0.495963	0.796575	0.684246
C67	C	-0.995999	0.603946	0.184257
C68	C	-0.495999	1.103946	0.684257
C69	C	-0.996009	0.703608	0.184263
C70	C	-0.496009	1.203608	0.684263
C71	C	-1.117525	0.703608	0.062819
C72	C	-0.617525	1.203608	0.562819
C73	C	-1.117516	0.603953	0.062815
C74	C	-0.617516	1.103953	0.562815
C75	C	-1.056750	0.554125	0.123536
C76	C	-0.556750	1.054125	0.623536
C77	C	-1.053159	-0.086223	-0.566981
C78	C	-0.553159	0.413777	-0.066981
C79	C	-1.054925	-0.086218	-0.473682
C80	C	-0.554925	0.413782	0.026318
C81	C	-1.055793	0.000086	-0.427043
C82	C	-0.555793	0.500086	0.072957
C83	C	-1.054904	0.086392	-0.473709
C84	C	-0.554904	0.586392	0.026291
C85	C	-1.053145	0.086387	-0.567007
C86	C	-0.553145	0.586387	-0.067007
C87	C	-1.058569	0.086397	-0.279245
C88	C	-0.558569	0.586397	0.220755
C89	C	-1.060327	0.086403	-0.185940
C90	C	-0.560327	0.586403	0.314060
C91	C	-1.060349	-0.086208	-0.185920
C92	C	-0.560349	0.413792	0.314080
C93	C	-1.058590	-0.086213	-0.279218
C94	C	-0.558590	0.413787	0.220782
C95	C	-1.057700	0.000093	-0.325878
C96	C	-0.557700	0.500093	0.174122
C97	C	-1.050394	0.000083	0.287063
C98	C	-0.550394	0.500083	0.787063
C99	C	-1.052268	0.000077	0.386360
C100	C	-0.552268	0.500077	0.886360
H101	H	-0.766063	0.000054	0.275674
H102	H	-0.266063	0.500054	0.775674
H103	H	-1.061067	-0.156481	-0.147925
H104	H	-0.561067	0.343519	0.352075
Cl105	Cl	-1.056000	0.194891	-0.415077
Cl106	Cl	-0.556000	0.694891	0.084923
H107	H	-0.347418	0.000127	-0.028593
H108	H	0.152582	0.500127	0.471407
Cl109	Cl	-1.193865	0.233950	-0.013529
Cl110	Cl	-0.693865	0.733950	0.486471
H111	H	-0.516681	0.000117	-0.025399
H112	H	-0.016681	0.500117	0.474601
H113	H	-1.166987	0.563383	0.013374
H114	H	-0.666987	1.063383	0.513374
H115	H	-1.052418	0.156661	-0.604995
H116	H	-0.552418	0.656661	-0.104995
H117	H	-1.057845	0.156677	-0.317233
H118	H	-0.557845	0.656677	0.182767
Cl119	Cl	-0.571466	0.000067	0.308166
Cl120	Cl	-0.071466	0.500067	0.808166
H121	H	-0.635174	0.000121	-0.023152
H122	H	-0.135174	0.500121	0.476848
Cl123	Cl	-1.193916	0.766252	-0.013514
Cl124	Cl	-0.693916	1.266252	0.486486
H125	H	-1.166965	0.436808	0.013367
H126	H	-0.666965	0.936808	0.513367
Cl127	Cl	-0.919631	0.766242	0.260601
Cl128	Cl	-0.419631	1.266242	0.760601
Cl129	Cl	-1.057493	-0.194712	-0.337849
Cl130	Cl	-0.557493	0.305288	0.162151
Cl131	Cl	-0.919603	0.541309	0.260594
Cl132	Cl	-0.419603	1.041309	0.760594
Cl133	Cl	-0.919595	0.458870	0.260585
Cl134	Cl	-0.419595	0.958870	0.760585
Cl135	Cl	-1.052062	-0.194727	-0.625603
Cl136	Cl	-0.552062	0.305273	-0.125603
H137	H	-0.478306	0.000073	0.270237
H138	H	0.021694	0.500073	0.770237
H139	H	-0.309043	0.000099	0.267038
H140	H	0.190957	0.500099	0.767038
Cl141	Cl	-0.919572	0.233936	0.260578
Cl142	Cl	-0.419572	0.733936	0.760578
Cl143	Cl	-1.056048	-0.194714	-0.415029
Cl144	Cl	-0.556048	0.305286	0.084971
H145	H	-0.804442	0.000093	-0.019958
H146	H	-0.304442	0.500093	0.480042
H147	H	-1.061005	0.156680	-0.147966
H148	H	-0.561005	0.656680	0.352034
