data_functionalizedCrystal
_audit_creation_method	'MofGen! by Chris Wilmer'
_symmetry_space_group_name_H-M	'P1'
_symmetry_Int_Tables_number	1
_symmetry_cell_setting	triclinic
loop_
_symmetry_equiv_pos_as_xyz
  x,y,z
_cell_length_a	10.654545
_cell_length_b	13.262508
_cell_length_c	9.730223
_cell_angle_alpha	105.913923
_cell_angle_beta	89.997167
_cell_angle_gamma	84.458219
loop_
_atom_site_label
_atom_site_type_symbol
_atom_site_fract_x
_atom_site_fract_y
_atom_site_fract_z
O1	O	1.667074	0.147399	-0.059174
O2	O	1.301522	0.161450	-0.053927
O3	O	1.493497	0.001703	-0.113633
O4	O	1.475100	0.307146	0.000532
O5	O	1.493485	0.001699	0.114945
O6	O	1.301510	0.161445	0.174651
O7	O	1.667062	0.147395	0.169405
Zn8	Zn	1.484284	0.154419	0.208320
Zn9	Zn	1.484300	0.154425	-0.092842
O10	O	1.475087	0.307141	0.229111
C11	C	1.254723	0.160417	0.059976
C12	C	1.115296	0.157333	0.058821
C13	C	1.049792	0.155879	0.182878
C14	C	0.918788	0.152965	0.181788
C15	C	0.918802	0.152962	-0.067423
C16	C	1.049805	0.155869	-0.066335
C17	C	1.492461	-0.037409	-0.013965
C18	C	1.489376	-0.153947	-0.057532
C19	C	1.480647	-0.482468	0.318067
C20	C	1.483535	-0.372975	0.359002
C21	C	1.484996	-0.318212	0.254872
C22	C	1.483567	-0.372954	0.109800
C23	C	1.480668	-0.482457	0.068861
C24	C	1.485017	-0.318201	0.005666
C25	C	1.483588	-0.372943	-0.139407
C26	C	1.480691	-0.482436	-0.180338
C27	C	1.479230	-0.537198	-0.076208
C28	C	1.487916	-0.208698	0.046605
C29	C	1.487938	-0.208687	-0.202601
C30	C	1.485049	-0.318181	-0.243537
C31	C	1.713861	0.148428	0.055498
C32	C	1.853288	0.151511	0.056644
C33	C	1.476124	0.346254	0.129440
C34	C	1.479209	0.462791	0.172998
N35	N	1.484282	0.154415	0.413854
N36	N	1.484312	0.154422	-0.298380
C37	C	1.569317	0.083709	0.459354
C38	C	1.569330	0.083710	0.603237
C39	C	1.399268	0.225130	0.656112
C40	C	1.399250	0.225124	0.512229
H41	H	0.865460	0.151781	0.282807
H42	H	1.330038	0.282702	0.736223
C43	C	0.757834	0.239771	-0.179549
C44	C	0.846806	0.151369	-0.204984
H45	H	0.713395	0.238792	-0.264478
H46	H	0.700080	0.238481	-0.105833
H47	H	0.799695	0.301995	-0.151110
H48	H	0.804945	0.089145	-0.233413
H49	H	0.904569	0.152650	-0.278725
H50	H	1.638572	0.026134	0.640276
C51	C	1.376302	-0.340879	-0.464410
C52	C	1.483437	-0.378367	-0.402993
H53	H	1.375304	-0.378035	-0.562850
H54	H	1.302699	-0.351345	-0.417103
H55	H	1.378259	-0.267834	-0.454948
H56	H	1.481475	-0.451410	-0.412445
H57	H	1.557059	-0.367909	-0.450314
C58	C	1.476213	-0.650333	0.365940
C59	C	1.479054	-0.542665	0.432513
H60	H	1.475240	-0.687495	0.436603
H61	H	1.402594	-0.660796	0.310844
H62	H	1.548891	-0.675730	0.305241
H63	H	1.406370	-0.517266	0.493205
H64	H	1.552680	-0.532196	0.487634
H65	H	1.329998	0.282701	0.475183
C66	C	1.492262	-0.040822	-0.250503
C67	C	1.489451	-0.148494	-0.317071
H68	H	1.493172	-0.003656	-0.321167
H69	H	1.419619	-0.015449	-0.189764
H70	H	1.565917	-0.030339	-0.195450
H71	H	1.415791	-0.158977	-0.372116
H72	H	1.562101	-0.173875	-0.377835
H73	H	1.476885	-0.626357	-0.109531
C74	C	1.036618	0.155572	0.429094
C75	C	1.121783	0.157471	0.320441
H76	H	1.081064	0.156544	0.514017
H77	H	0.976263	0.215535	0.446328
H78	H	0.994782	0.093335	0.400631
H79	H	1.163612	0.219711	0.348899
H80	H	1.182160	0.097502	0.303208
H81	H	1.489068	-0.164137	0.164724
C82	C	1.076511	0.246840	-0.244754
C83	C	1.121819	0.157472	-0.202705
H84	H	1.120977	0.247828	-0.328935
H85	H	0.989131	0.244894	-0.263319
H86	H	1.088720	0.308408	-0.170530
H87	H	1.109601	0.095904	-0.276926
H88	H	1.209220	0.159409	-0.184148
C89	C	1.381325	-0.150340	0.249781
C90	C	1.488178	-0.197856	0.299867
H91	H	1.383293	-0.076034	0.277573
H92	H	1.380692	-0.175101	0.148493
H93	H	1.307522	-0.167648	0.289333
H94	H	1.561981	-0.180554	0.260307
H95	H	1.488823	-0.173085	0.401176
C96	C	1.737406	-0.056087	0.421543
C97	C	1.662771	0.005977	0.351215
H98	H	1.795093	-0.104082	0.354780
H99	H	1.782809	-0.012043	0.494104
H100	H	1.684928	-0.094240	0.463420
H101	H	1.715248	0.044137	0.309347
H102	H	1.617364	-0.038072	0.278629
H103	H	1.484712	-0.328413	0.477119
H104	H	1.479516	-0.527002	-0.298465
