data_functionalizedCrystal
_audit_creation_method	'MofGen! by Chris Wilmer'
_symmetry_space_group_name_H-M	'P1'
_symmetry_Int_Tables_number	1
_symmetry_cell_setting	triclinic
loop_
_symmetry_equiv_pos_as_xyz
  x,y,z
_cell_length_a	12.759394
_cell_length_b	11.169417
_cell_length_c	11.169409
_cell_angle_alpha	90.020564
_cell_angle_beta	89.973038
_cell_angle_gamma	89.996101
loop_
_atom_site_label
_atom_site_type_symbol
_atom_site_fract_x
_atom_site_fract_y
_atom_site_fract_z
Zn1	Zn	0.418157	1.835032	0.678587
Zn2	Zn	0.593883	1.834945	0.477923
Zn3	Zn	0.418221	1.634315	0.477921
Zn4	Zn	0.593798	1.634351	0.678568
O5	O	0.506015	1.734661	0.578250
O6	O	0.441477	2.002970	0.651977
O7	O	0.570643	1.808279	0.309973
O8	O	0.271192	1.660963	0.504548
O9	O	0.570582	2.002906	0.504550
O10	O	0.271145	1.808428	0.651976
O11	O	0.441586	1.660878	0.309972
O12	O	0.441503	1.466370	0.504529
O13	O	0.570436	1.661023	0.846520
O14	O	0.570498	1.466397	0.651943
O15	O	0.441394	1.808463	0.846534
O16	O	0.740893	1.808314	0.504531
O17	O	0.740830	1.660939	0.651944
C18	C	0.505999	1.422836	0.578234
C19	C	0.506017	1.289436	0.578256
C20	C	0.231981	1.734701	0.578264
C21	C	0.115205	1.734718	0.578270
C22	C	0.115234	1.581173	0.424743
C23	C	0.060388	1.504414	0.347982
C24	C	-0.049334	1.504436	0.347993
C25	C	-0.104212	1.581222	0.424775
C26	C	-0.049366	1.657980	0.501536
C27	C	0.060358	1.657952	0.501514
C28	C	-0.049395	1.811518	0.655067
C29	C	0.060327	1.811504	0.655052
C30	C	-0.104273	1.888303	0.731849
C31	C	-0.049427	1.965070	0.808605
C32	C	0.060302	1.965046	0.808590
C33	C	0.115173	1.888262	0.731813
C34	C	0.778982	1.734653	0.578262
C35	C	0.895759	1.734760	0.578307
C36	C	0.505898	1.734757	0.891292
C37	C	0.505849	1.734798	1.024692
C38	C	0.506032	2.047703	0.578266
C39	C	0.506039	2.181103	0.578273
C40	C	0.506055	1.734634	0.266425
C41	C	0.505809	1.734825	0.133026
H42	H	0.204575	1.581157	0.424717
H43	H	-0.193614	1.888310	0.731858
H44	H	-0.093990	1.441928	0.285493
H45	H	0.105081	1.441895	0.285470
H46	H	-0.094115	2.027577	0.871121
H47	H	0.104951	2.027541	0.871109
N48	N	0.233515	1.888245	0.731788
H49	H	0.259933	1.805913	0.753830
H50	H	0.259847	1.948576	0.792055
N51	N	-0.222554	1.581233	0.424804
H52	H	-0.248971	1.520952	0.364532
H53	H	-0.248891	1.663604	0.402795
