data_functionalizedCrystal
_audit_creation_method	'MofGen! by Chris Wilmer'
_symmetry_space_group_name_H-M	'P1'
_symmetry_Int_Tables_number	1
_symmetry_cell_setting	triclinic
loop_
_symmetry_equiv_pos_as_xyz
  x,y,z
_cell_length_a	12.759401
_cell_length_b	12.645330
_cell_length_c	12.645331
_cell_angle_alpha	90.013583
_cell_angle_beta	90.004762
_cell_angle_gamma	90.012807
loop_
_atom_site_label
_atom_site_type_symbol
_atom_site_fract_x
_atom_site_fract_y
_atom_site_fract_z
Zn1	Zn	1.606128	-0.422167	0.599334
Zn2	Zn	1.606071	-0.599413	0.422068
Zn3	Zn	1.430472	-0.422165	0.422089
Zn4	Zn	1.430425	-0.599389	0.599294
O5	O	1.518274	-0.510784	0.510696
O6	O	1.753141	-0.445690	0.575828
O7	O	1.582773	-0.575910	0.273724
O8	O	1.453817	-0.273818	0.445627
O9	O	1.753099	-0.575912	0.445591
O10	O	1.582871	-0.273819	0.575848
O11	O	1.453761	-0.445686	0.273739
O12	O	1.283445	-0.445663	0.445588
O13	O	1.453736	-0.575871	0.747646
O14	O	1.283410	-0.575869	0.575779
O15	O	1.582825	-0.445667	0.747676
O16	O	1.582727	-0.747757	0.445551
O17	O	1.453681	-0.747740	0.575758
C18	C	1.245307	-0.510764	0.510682
C19	C	1.128530	-0.510781	0.510701
C20	C	1.518221	-0.786213	0.510671
C21	C	1.518295	-0.904043	0.510696
C22	C	1.073677	-0.578688	0.578379
C23	C	0.963953	-0.578701	0.578391
C24	C	0.963944	-0.442898	0.443036
C25	C	1.073666	-0.442880	0.443031
C26	C	1.073682	-0.657096	0.656522
C27	C	0.963958	-0.657110	0.656534
C28	C	1.599348	-1.071574	0.428617
C29	C	1.599611	-0.949014	0.428818
C30	C	1.548296	-0.948452	0.622439
C31	C	1.548939	-1.071049	0.622004
C32	C	1.407209	-1.071364	0.482134
C33	C	1.407742	-0.948759	0.479628
C34	C	1.792307	-0.510804	0.510711
C35	C	1.909084	-0.510813	0.510718
C36	C	1.518282	-0.510766	0.787202
C37	C	1.518285	-0.510759	0.905032
C38	C	1.518355	-0.234278	0.510745
C39	C	1.518390	-0.116448	0.510765
C40	C	1.599502	-0.428846	0.949932
C41	C	1.599821	-0.429103	1.072492
C42	C	1.547943	-0.622588	1.072907
C43	C	1.548531	-0.622098	0.950309
C44	C	1.407208	-0.481853	0.950210
C45	C	1.407805	-0.479404	1.072817
C46	C	1.518266	-0.510813	1.235267
C47	C	1.518287	-0.510786	1.117437
H48	H	1.118323	-0.387577	0.387928
C49	C	1.325465	-0.562437	0.910974
H50	H	1.358810	-0.613451	0.867271
H51	H	1.294285	-0.596786	0.969903
H52	H	1.272884	-0.526785	0.871517
C53	C	1.370349	-1.113216	0.373971
H54	H	1.422428	-1.158580	0.345260
H55	H	1.306824	-1.151446	0.382575
H56	H	1.359080	-1.055435	0.327339
H57	H	1.681340	-0.447775	0.919132
C58	C	1.574799	-0.316505	0.910133
H59	H	1.514738	-0.318547	0.865771
H60	H	1.561527	-0.271531	0.968802
H61	H	1.632894	-0.290135	0.871245
H62	H	1.346889	-1.100386	0.541966
C63	C	1.470491	-0.707307	1.112232
H64	H	1.419261	-0.675170	1.156267
H65	H	1.437021	-0.739517	1.053352
H66	H	1.507413	-0.759494	1.151360
H67	H	1.344170	-0.918158	0.535074
H68	H	1.630206	-1.099568	0.646257
C69	C	1.574822	-0.317124	1.113175
H70	H	1.564384	-0.271065	1.054774
H71	H	1.513045	-0.319139	1.155045
H72	H	1.631636	-0.292073	1.154788
H73	H	1.629715	-0.646551	0.921719
C74	C	1.472755	-1.111154	0.707517
H75	H	1.441556	-1.052517	0.742374
H76	H	1.419670	-1.152958	0.675447
H77	H	1.510056	-1.152715	0.757505
C78	C	1.711006	-0.455004	1.112131
H79	H	1.756152	-0.465421	1.053305
H80	H	1.736392	-0.398023	1.153869
H81	H	1.709070	-0.517569	1.153660
H82	H	1.344086	-0.534693	1.103408
H83	H	1.491905	-0.685210	0.920602
H84	H	1.107706	-0.735035	0.626973
C85	C	0.917995	-0.617556	0.761966
H86	H	0.973452	-0.599939	0.808913
H87	H	0.876094	-0.556742	0.749480
H88	H	0.876092	-0.671598	0.792557
H89	H	1.385120	-0.919743	0.397394
C90	C	0.923709	-0.767979	0.626632
H91	H	0.981614	-0.813563	0.614315
H92	H	0.882358	-0.795349	0.682779
H93	H	0.882337	-0.763419	0.564336
H94	H	1.628221	-0.647485	1.103641
H95	H	1.681254	-1.102309	0.447342
C96	C	1.370645	-0.373573	0.908483
H97	H	1.422788	-0.344978	0.863115
H98	H	1.307078	-0.381987	0.870285
H99	H	1.359540	-0.326939	0.966316
H100	H	0.919261	-0.387615	0.387943
H101	H	1.385435	-0.397125	1.101925
H102	H	1.580844	-0.918992	0.345962
H103	H	1.103470	-0.635228	0.738663
H104	H	1.580815	-1.101108	0.345518
C105	C	1.710850	-0.909279	0.454410
H106	H	1.711394	-0.834151	0.454612
H107	H	1.731406	-0.934637	0.522005
H108	H	1.758380	-0.934522	0.402386
C109	C	1.471050	-0.909134	0.707342
H110	H	1.490630	-0.936934	0.774278
H111	H	1.472605	-0.834074	0.709965
H112	H	1.402248	-0.932168	0.690167
C113	C	1.656844	-0.906883	0.655749
H114	H	1.684026	-0.862478	0.601716
H115	H	1.650508	-0.867693	0.719525
H116	H	1.702978	-0.964844	0.666532
