data_functionalizedCrystal
_audit_creation_method	'MofGen! by Chris Wilmer'
_symmetry_space_group_name_H-M	'P1'
_symmetry_Int_Tables_number	1
_symmetry_cell_setting	triclinic
loop_
_symmetry_equiv_pos_as_xyz
  x,y,z
_cell_length_a	26.374263
_cell_length_b	26.373608
_cell_length_c	26.370205
_cell_angle_alpha	60.005297
_cell_angle_beta	60.010839
_cell_angle_gamma	59.993700
loop_
_atom_site_label
_atom_site_type_symbol
_atom_site_fract_x
_atom_site_fract_y
_atom_site_fract_z
O1	O	0.070152	-0.740800	0.619517
O2	O	0.026377	-0.576764	0.499159
O3	O	0.130245	-0.680560	0.499088
O4	O	-0.033715	-0.637003	0.619589
O5	O	0.164701	-0.646107	0.533470
O6	O	0.060833	-0.542310	0.533541
O7	O	0.104608	-0.706346	0.653899
Cu8	Cu	0.085867	-0.621182	0.596859
Cu9	Cu	0.045119	-0.661927	0.556199
O10	O	0.000741	-0.602549	0.653971
N11	N	0.114528	-0.592529	0.625461
N12	N	0.016463	-0.690587	0.527598
C13	C	0.181428	-0.355400	0.692330
C14	C	0.181530	-0.525690	0.862573
C15	C	0.181440	-0.525667	0.692313
C16	C	0.351736	-0.525673	0.692271
C17	C	0.200174	-0.411588	0.711047
C18	C	0.200232	-0.506954	0.806384
C19	C	0.295546	-0.506943	0.711016
C20	C	0.200182	-0.506940	0.711037
C21	C	0.157567	-0.283881	0.668507
C22	C	0.157587	-0.549500	0.668479
C23	C	0.224035	-0.483107	0.734871
C24	C	0.455739	-0.507754	0.637520
C25	C	0.520749	-0.529425	0.615835
C26	C	0.520768	-0.634611	0.655947
C27	C	0.455759	-0.612939	0.677633
C28	C	0.173240	-0.251367	0.604595
C29	C	0.151546	-0.186351	0.582941
C30	C	0.098512	-0.186369	0.689113
C31	C	0.120206	-0.251385	0.710768
C32	C	0.093669	-0.533798	0.684205
C33	C	0.071992	-0.555464	0.662532
C34	C	0.178144	-0.608536	0.609422
C35	C	0.199825	-0.586869	0.631088
C36	C	0.093821	-0.533842	0.966616
C37	C	0.072187	-0.555526	1.031630
C38	C	0.178370	-0.608608	1.031591
C39	C	0.200004	-0.586926	0.966576
C40	C	0.157728	-0.549541	0.934090
C41	C	0.423247	-0.549509	0.668416
C42	C	-0.097522	-0.709158	0.508557
C43	C	-0.002050	-0.709295	0.413344
C44	C	-0.002241	-0.804604	0.508735
C45	C	-0.002225	-0.709288	0.508793
C46	C	-0.026009	-0.733087	0.484858
N47	N	0.552340	-0.592538	0.625346
O48	O	0.750867	-0.598274	0.477076
O49	O	0.751048	-0.718989	0.640960
O50	O	0.750981	-0.718715	0.537020
O51	O	0.750934	-0.598547	0.581017
O52	O	0.647701	-0.684348	0.571512
O53	O	0.647768	-0.684622	0.675452
O54	O	0.647587	-0.563907	0.511569
Cu55	Cu	0.638247	-0.621127	0.596660
Cu56	Cu	0.760388	-0.661769	0.555869
O57	O	0.647654	-0.564181	0.615509
N58	N	0.846295	-0.690358	0.527176
N59	N	0.114503	-0.154778	0.625499
O60	O	-0.033701	0.043855	0.619632
O61	O	0.130190	0.043858	0.498933
O62	O	0.026233	0.043841	0.499224
O63	O	0.070257	0.043872	0.619341
O64	O	0.060690	-0.059448	0.533654
O65	O	0.164647	-0.059431	0.533363
O66	O	0.000756	-0.059434	0.654062
Cu67	Cu	0.085848	-0.068863	0.596857
Cu68	Cu	0.045099	0.053287	0.556138
O69	O	0.104714	-0.059417	0.653771
N70	N	0.016435	0.139202	0.527497
N71	N	0.114760	-0.592585	1.063190
O72	O	0.108896	-0.740779	1.261808
O73	O	-0.011787	-0.576838	1.261822
O74	O	-0.011509	-0.680779	1.261780
O75	O	0.108618	-0.636838	1.261850
O76	O	0.022916	-0.646341	1.158496
O77	O	0.022638	-0.542399	1.158538
O78	O	0.143321	-0.706341	1.158524
Cu79	Cu	0.086123	-0.621225	1.149100
Cu80	Cu	0.045411	-0.661953	1.271246
O81	O	0.143044	-0.602399	1.158566
N82	N	0.016774	-0.690600	1.357156
C83	C	0.039504	-0.538867	0.499769
C84	C	0.168130	-0.667407	0.499680
C85	C	0.091482	-0.744243	0.653289
C86	C	-0.037145	-0.615703	0.653378
C87	C	0.699429	-0.718429	0.678853
C88	C	0.699348	-0.718091	0.550135
C89	C	0.699202	-0.564465	0.473677
C90	C	0.699287	-0.564805	0.602393
C91	C	0.168023	-0.007659	0.499484
C92	C	0.039327	-0.007807	0.499887
C93	C	-0.037119	-0.007789	0.653468
C94	C	0.091620	-0.007770	0.653109
C95	C	-0.011194	-0.538964	1.210181
C96	C	-0.010843	-0.667676	1.210109
C97	C	0.142729	-0.744214	1.210165
C98	C	0.142386	-0.615494	1.210214
H99	H	0.059391	-0.503396	0.940172
C100	C	0.699370	-0.769092	0.537421
C101	C	0.699442	-0.832807	0.588390
C102	C	0.699464	-0.883808	0.575675
C103	C	0.699414	-0.871094	0.511992
C104	C	0.699342	-0.807376	0.461019
C105	C	0.699320	-0.756375	0.473733
H106	H	0.699479	-0.842220	0.635536
H107	H	0.699517	-0.930976	0.613409
H108	H	0.699430	-0.908848	0.502580
H109	H	0.699305	-0.797963	0.413872
H110	H	0.699267	-0.709207	0.435999
C111	C	0.104105	-0.807899	0.704359
C112	C	0.156983	-0.831460	0.728682
C113	C	0.169607	-0.895116	0.779751
C114	C	0.129353	-0.935211	0.806498
C115	C	0.076471	-0.911650	0.782176
C116	C	0.063848	-0.847994	0.731106
H117	H	0.186785	-0.801779	0.708882
H118	H	0.208753	-0.912557	0.797756
H119	H	0.138697	-0.982333	0.844303
H120	H	0.046670	-0.941331	0.801975
H121	H	0.024701	-0.830554	0.713101
C122	C	0.231475	-0.007267	0.448159
C123	C	0.243803	-0.007081	0.384502
C124	C	0.307255	-0.006688	0.333177
C125	C	0.358379	-0.006482	0.345510
C126	C	0.346053	-0.006667	0.409170
C127	C	0.282601	-0.007060	0.460495
H128	H	0.205956	-0.007234	0.375370
H129	H	0.316379	-0.006551	0.286052
H130	H	0.405351	-0.006191	0.307516
H131	H	0.383900	-0.006514	0.418302
H132	H	0.273477	-0.007197	0.507620
C133	C	0.231747	-0.679945	0.448555
C134	C	0.236003	-0.675421	0.386100
C135	C	0.299620	-0.687959	0.334975
C136	C	0.358980	-0.705022	0.346306
C137	C	0.354726	-0.709547	0.408764
C138	C	0.291110	-0.697009	0.459888
H139	H	0.192059	-0.662790	0.377710
H140	H	0.302769	-0.684609	0.288740
H141	H	0.406073	-0.714303	0.308460
H142	H	0.398670	-0.722178	0.417154
H143	H	0.287961	-0.700358	0.506124
C144	C	-0.100704	-0.007788	0.704663
C145	C	-0.104906	-0.061416	0.767137
C146	C	-0.168490	-0.061415	0.818331
C147	C	-0.227873	-0.007785	0.807051
C148	C	-0.223673	0.045848	0.744574
C149	C	-0.160089	0.045847	0.693380
H150	H	-0.060945	-0.101120	0.775490
H151	H	-0.171599	-0.101118	0.864581
H152	H	-0.274942	-0.007784	0.844948
H153	H	-0.267634	0.085552	0.736221
H154	H	-0.156980	0.085550	0.647130
H155	H	0.429307	-0.646943	0.702793
H156	H	-0.084239	-0.606419	0.691217
C157	C	0.193918	-0.807820	1.210162
C158	C	0.182637	-0.867192	1.263780
C159	C	0.233826	-0.930798	1.263777
C160	C	0.296295	-0.935032	1.210154
C161	C	0.307579	-0.875659	1.156532
C162	C	0.256390	-0.812052	1.156535
H163	H	0.136390	-0.864060	1.303478
H164	H	0.225472	-0.974751	1.303472
H165	H	0.334189	-0.982118	1.210152
H166	H	0.353825	-0.878791	1.116834
H167	H	0.264743	-0.768100	1.116840
H168	H	0.030155	-0.491745	0.461969
C169	C	0.699495	-0.769630	0.742437
C170	C	0.753153	-0.794074	0.766017
C171	C	0.753219	-0.845274	0.829600
C172	C	0.699627	-0.872031	0.869604
C173	C	0.645965	-0.847587	0.846025
C174	C	0.645899	-0.796387	0.782441
H175	H	0.792829	-0.774266	0.736403
H176	H	0.792943	-0.863369	0.847055
H177	H	0.699676	-0.909932	0.916673
H178	H	0.606290	-0.867394	0.875639
H179	H	0.606175	-0.778292	0.764986
H180	H	0.699142	-0.526565	0.426612
C181	C	0.699267	-0.513805	0.615107
C182	C	0.699318	-0.526519	0.678790
C183	C	0.699298	-0.475518	0.691504
C184	C	0.699227	-0.411804	0.640535
C185	C	0.699176	-0.399087	0.576847
C186	C	0.699196	-0.450088	0.564134
H187	H	0.699370	-0.573687	0.716525
H188	H	0.699335	-0.484932	0.738650
H189	H	0.699212	-0.374050	0.649946
H190	H	0.699124	-0.351919	0.539113
H191	H	0.699159	-0.440673	0.516988
H192	H	0.019945	-0.542665	0.675322
H193	H	0.101045	-0.007760	0.690842
C194	C	0.193373	-0.602800	1.210232
C195	C	0.180663	-0.539108	1.210248
C196	C	0.231651	-0.526414	1.210267
C197	C	0.295349	-0.577412	1.210269
C198	C	0.308062	-0.641108	1.210254
C199	C	0.257074	-0.653802	1.210235
H200	H	0.133507	-0.501353	1.210246
H201	H	0.222240	-0.479262	1.210278
H202	H	0.333093	-0.568015	1.210283
H203	H	0.355218	-0.678863	1.210256
H204	H	0.266486	-0.700955	1.210224
H205	H	0.029900	-0.007810	0.462151
H206	H	-0.049082	-0.491880	1.210184
H207	H	0.212798	-0.639038	1.058038
C208	C	0.001886	-0.538243	1.067403
C209	C	-0.044611	-0.497116	1.031665
C210	C	-0.114912	-0.479836	1.067438
C211	C	-0.138717	-0.503684	1.138949
C212	C	-0.092219	-0.544813	1.174691
C213	C	-0.021918	-0.562093	1.138918
H214	H	-0.026990	-0.479461	0.978724
H215	H	-0.149332	-0.449389	1.040979
H216	H	-0.190758	-0.490892	1.165430
H217	H	-0.109840	-0.562469	1.227632
H218	H	0.012502	-0.592540	1.165377
C219	C	0.270306	-0.604195	0.930798
C220	C	0.316805	-0.645309	0.966534
C221	C	0.387105	-0.662577	0.930758
C222	C	0.410907	-0.638730	0.859247
C223	C	0.364407	-0.597613	0.823508
C224	C	0.294106	-0.580345	0.859283
H225	H	0.299186	-0.662964	1.019474
H226	H	0.421527	-0.693014	0.957215
H227	H	0.462948	-0.651512	0.832764
H228	H	0.382026	-0.579958	0.770567
H229	H	0.259684	-0.549907	0.832826
H230	H	-0.048566	-0.677061	1.210046
H231	H	0.212545	-0.638970	0.578981
C232	C	0.047206	-0.492686	0.725328
C233	C	0.000456	-0.517564	0.788037
C234	C	-0.046010	-0.476452	0.829160
C235	C	-0.045725	-0.410461	0.807575
C236	C	0.001027	-0.385579	0.744862
C237	C	0.047492	-0.426692	0.703739
H238	H	0.000244	-0.566418	0.804018
H239	H	-0.080618	-0.494871	0.875584
H240	H	-0.080122	-0.380027	0.838017
H241	H	0.001239	-0.336726	0.728881
H242	H	0.082101	-0.408273	0.657315
C243	C	0.270136	-0.604141	0.613794
C244	C	0.316596	-0.645247	0.572667
C245	C	0.386906	-0.662521	0.555373
C246	C	0.410756	-0.638689	0.579208
C247	C	0.364295	-0.597581	0.620338
C248	C	0.293985	-0.580307	0.637631
H249	H	0.298941	-0.662890	0.555021
H250	H	0.421299	-0.692951	0.524926
H251	H	0.462803	-0.651476	0.566406
H252	H	0.381949	-0.579937	0.637984
H253	H	0.259591	-0.549876	0.668078
H254	H	0.547237	-0.686258	0.663446
H255	H	0.547206	-0.495421	0.590679
H256	H	0.203661	-0.277820	0.570179
C257	C	0.419972	-0.437979	0.627385
C258	C	0.428884	-0.390707	0.561045
C259	C	0.393120	-0.320933	0.550908
C260	C	0.348444	-0.298432	0.607111
C261	C	0.339531	-0.345705	0.673456
C262	C	0.375295	-0.415479	0.683593
H263	H	0.461957	-0.407363	0.519435
H264	H	0.399718	-0.285938	0.501794
H265	H	0.321970	-0.246781	0.599607
H266	H	0.306458	-0.329050	0.715065
H267	H	0.368696	-0.450474	0.732707
C268	C	0.168784	-0.150577	0.512634
C269	C	0.237437	-0.159503	0.471805
C270	C	0.254676	-0.123731	0.401499
C271	C	0.203261	-0.079034	0.372021
C272	C	0.134604	-0.070107	0.412851
C273	C	0.117365	-0.105879	0.483157
H274	H	0.275501	-0.192592	0.493626
H275	H	0.305501	-0.130340	0.371275
H276	H	0.216022	-0.052554	0.319976
H277	H	0.096540	-0.037018	0.391030
H278	H	0.066541	-0.099270	0.513381
C279	C	0.057418	-0.150620	0.735599
C280	C	0.040187	-0.186387	0.805903
C281	C	-0.000908	-0.150639	0.852390
C282	C	-0.024773	-0.079125	0.828572
C283	C	-0.007542	-0.043354	0.758265
C284	C	0.033554	-0.079101	0.711778
H285	H	0.057854	-0.239329	0.823537
H286	H	-0.013663	-0.177120	0.904436
H287	H	-0.055194	-0.052663	0.862984
H288	H	-0.025208	0.009589	0.740630
H289	H	0.046309	-0.052621	0.659732
H290	H	0.107441	-0.277854	0.762810
