data_functionalizedCrystal
_audit_creation_method	'MofGen! by Chris Wilmer'
_symmetry_space_group_name_H-M	'P1'
_symmetry_Int_Tables_number	1
_symmetry_cell_setting	triclinic
loop_
_symmetry_equiv_pos_as_xyz
  x,y,z
_cell_length_a	16.109301
_cell_length_b	16.776229
_cell_length_c	17.699083
_cell_angle_alpha	90.007545
_cell_angle_beta	83.372248
_cell_angle_gamma	90.004422
loop_
_atom_site_label
_atom_site_type_symbol
_atom_site_fract_x
_atom_site_fract_y
_atom_site_fract_z
O1	O	1.102967	0.066239	0.097287
O2	O	1.602967	0.566239	0.597287
O3	O	0.860884	0.066252	0.109394
O4	O	1.360884	0.566252	0.609394
O5	O	0.988765	0.066238	-0.006839
O6	O	1.488765	0.566238	0.493161
O7	O	0.975086	0.066253	0.213520
O8	O	1.475086	0.566253	0.713520
O9	O	0.988748	-0.066338	-0.006846
O10	O	1.488748	0.433662	0.493154
O11	O	0.860868	-0.066324	0.109387
O12	O	1.360868	0.433676	0.609387
O13	O	1.102950	-0.066337	0.097280
O14	O	1.602950	0.433663	0.597280
Zn15	Zn	0.981906	-0.087380	0.103332
Zn16	Zn	1.481906	0.412620	0.603332
Zn17	Zn	0.981929	0.087295	0.103342
Zn18	Zn	1.481929	0.587295	0.603342
O19	O	0.975069	-0.066323	0.213513
O20	O	1.475069	0.433677	0.713513
C21	C	0.829902	-0.000034	0.108900
C22	C	1.329902	0.499966	0.608900
C23	C	0.737609	-0.000030	0.107430
C24	C	1.237609	0.499970	0.607430
N25	N	0.981897	-0.206591	0.103326
N26	N	1.481897	0.293409	0.603326
C27	C	0.515224	-0.000035	0.172981
C28	C	1.015224	0.499965	0.672981
C29	C	0.428506	-0.000040	0.171594
C30	C	0.928506	0.499960	0.671594
C31	C	0.448618	-0.000046	0.033688
C32	C	0.948618	0.499954	0.533688
C33	C	0.535334	-0.000046	0.035076
C34	C	1.035334	0.499954	0.535076
C35	C	0.568635	-0.000037	0.104725
C36	C	1.068635	0.499963	0.604725
C37	C	0.395200	-0.000041	0.101949
C38	C	0.895200	0.499959	0.601949
C39	C	0.301177	-0.000047	0.100445
C40	C	0.801177	0.499953	0.600445
C41	C	0.662664	-0.000032	0.106230
C42	C	1.162664	0.499968	0.606230
C43	C	1.038540	-0.248314	0.051879
C44	C	1.538540	0.251686	0.551879
C45	C	1.038545	-0.331767	0.051878
C46	C	1.538545	0.168233	0.551878
C47	C	0.981910	-0.373494	0.103328
C48	C	1.481910	0.126506	0.603328
C49	C	0.925261	-0.331765	0.154778
C50	C	1.425261	0.168235	0.654778
C51	C	0.925253	-0.248314	0.154774
C52	C	1.425253	0.251686	0.654774
C53	C	0.925291	-0.668312	0.154793
C54	C	1.425291	-0.168312	0.654793
C55	C	0.925305	-0.751769	0.154794
C56	C	1.425305	-0.251769	0.654794
C57	C	1.038582	-0.751765	0.051897
C58	C	1.538582	-0.251765	0.551897
C59	C	1.038575	-0.668314	0.051893
C60	C	1.538575	-0.168314	0.551893
C61	C	0.981923	-0.626592	0.103339
C62	C	1.481923	-0.126592	0.603339
C63	C	0.981918	-0.536104	0.103338
C64	C	1.481918	-0.036104	0.603338
C65	C	0.981918	-0.463981	0.103334
C66	C	1.481918	0.036019	0.603334
C67	C	1.133933	-0.000049	0.097774
C68	C	1.633933	0.499951	0.597774
C69	C	1.226226	-0.000048	0.099244
C70	C	1.726226	0.499952	0.599244
C71	C	0.988267	-0.000050	-0.035040
C72	C	1.488267	0.499950	0.464960
C73	C	0.986796	-0.000050	-0.119060
C74	C	1.486796	0.499950	0.380940
N75	N	0.981944	0.206506	0.103343
N76	N	1.481944	0.706506	0.603343
C77	C	1.061860	-0.000055	-0.167574
C78	C	1.561860	0.499945	0.332426
C79	C	1.060473	-0.000048	-0.246519
C80	C	1.560473	0.499952	0.253481
C81	C	0.984022	-0.000042	-0.276949
C82	C	1.484022	0.499958	0.223051
C83	C	0.908953	-0.000034	-0.228429
C84	C	1.408953	0.499966	0.271571
C85	C	0.910341	-0.000036	-0.149485
C86	C	1.410341	0.499964	0.350515
C87	C	0.903356	-0.000027	-0.546800
C88	C	1.403356	0.499973	-0.046800
C89	C	0.901974	-0.000028	-0.625750
C90	C	1.401974	0.499972	-0.125750
C91	C	1.053488	-0.000040	-0.643834
C92	C	1.553488	0.499960	-0.143834
C93	C	1.054876	-0.000041	-0.564890
C94	C	1.554876	0.499959	-0.064890
C95	C	0.979807	-0.000030	-0.516377
C96	C	1.479807	0.499970	-0.016377
C97	C	0.981312	-0.000036	-0.430776
C98	C	1.481312	0.499964	0.069224
C99	C	0.982517	-0.000041	-0.362549
C100	C	1.482517	0.499959	0.137451
C101	C	0.975568	-0.000033	0.241714
C102	C	1.475568	0.499967	0.741714
C103	C	0.977039	-0.000028	0.325734
C104	C	1.477039	0.499972	0.825734
H105	H	0.542334	-0.000033	0.229694
H106	H	1.042334	0.499967	0.729694
H107	H	1.121597	-0.000054	-0.286017
H108	H	1.621597	0.499946	0.213983
C109	C	1.138971	-0.000045	-0.531421
C110	C	1.638971	0.499955	-0.031421
H111	H	1.183479	-0.000039	-0.571622
H112	H	1.683479	0.499961	-0.071622
H113	H	1.142659	-0.046276	-0.501005
H114	H	1.642659	0.453724	-0.001005
H115	H	1.142663	0.046194	-0.500998
H116	H	1.642663	0.546194	-0.000998
C117	C	1.136066	-0.000044	-0.697197
C118	C	1.636066	0.499956	-0.197197
H119	H	1.181795	-0.000057	-0.667766
H120	H	1.681795	0.499943	-0.167766
H121	H	1.138686	0.046189	-0.728363
H122	H	1.638686	0.546189	-0.228363
H123	H	1.138667	-0.046281	-0.728374
H124	H	1.638667	0.453719	-0.228374
C125	C	1.100893	-0.797657	-0.004703
C126	C	1.600893	-0.297657	0.495297
H127	H	1.134626	-0.760852	-0.035339
H128	H	1.634626	-0.260852	0.464661
H129	H	1.071058	-0.830221	-0.036220
H130	H	1.571058	-0.330221	0.463780
H131	H	1.135449	-0.830200	0.022539
H132	H	1.635449	-0.330200	0.522539
C133	C	0.817875	-0.000011	-0.659222
C134	C	1.317875	0.499989	-0.159222
H135	H	0.773365	0.000005	-0.619023
H136	H	1.273365	0.500005	-0.119023
H137	H	0.814172	-0.046241	-0.689648
H138	H	1.314172	0.453759	-0.189648
H139	H	0.814202	0.046229	-0.689636
H140	H	1.314202	0.546229	-0.189636
H141	H	1.124115	-0.000065	-0.142805
H142	H	1.624115	0.499935	0.357195
C143	C	0.863000	-0.622425	0.211399
C144	C	1.363000	-0.122425	0.711399
H145	H	0.871101	-0.566748	0.204031
H146	H	1.371101	-0.066748	0.704031
H147	H	0.871942	-0.636099	0.261909
H148	H	1.371942	-0.136099	0.761909
H149	H	0.807525	-0.636108	0.203173
H150	H	1.307525	-0.136108	0.703173
C151	C	0.820784	-0.000028	-0.493446
C152	C	1.320784	0.499972	0.006554
H153	H	0.775057	-0.000035	-0.522878
H154	H	1.275057	0.499965	-0.022878
H155	H	0.818173	0.046202	-0.462266
H156	H	1.318173	0.546202	0.037734
H157	H	0.818173	-0.046269	-0.462283
H158	H	1.318173	0.453731	0.037717
C159	C	0.824859	-0.000029	-0.261900
C160	C	1.324859	0.499971	0.238100
H161	H	0.834782	-0.000038	-0.315865
H162	H	1.334782	0.499962	0.184135
H163	H	0.793962	0.046204	-0.245242
H164	H	1.293962	0.546204	0.254758
H165	H	0.793956	-0.046267	-0.245250
H166	H	1.293956	0.453733	0.254750
C167	C	0.862965	-0.377663	0.211373
C168	C	1.362965	0.122337	0.711373
H169	H	0.871087	-0.433339	0.204014
H170	H	1.371087	0.066661	0.704014
H171	H	0.807495	-0.364000	0.203139
H172	H	1.307495	0.136000	0.703139
H173	H	0.871894	-0.363973	0.261891
H174	H	1.371894	0.136027	0.761891
H175	H	0.385022	-0.000040	0.227175
H176	H	0.885022	0.499960	0.727175
C177	C	0.827773	-0.000030	-0.096117
C178	C	1.327773	0.499970	0.403883
H179	H	0.839548	-0.000023	-0.044743
H180	H	1.339548	0.499977	0.455257
H181	H	0.796408	-0.046258	-0.105341
H182	H	1.296408	0.453742	0.394659
H183	H	0.796429	0.046213	-0.105335
H184	H	1.296429	0.546213	0.394665
H185	H	0.421494	-0.000058	-0.023018
H186	H	0.921494	0.499942	0.476982
C187	C	0.862949	-0.202419	0.211369
C188	C	1.362949	0.297581	0.711369
H189	H	0.829226	-0.239221	0.242016
H190	H	1.329226	0.260779	0.742016
H191	H	0.828396	-0.169875	0.184131
H192	H	1.328396	0.330125	0.684131
H193	H	0.892792	-0.169855	0.242885
H194	H	1.392792	0.330145	0.742885
H195	H	0.578824	-0.000050	-0.020510
H196	H	1.078824	0.499950	0.479490
H197	H	1.084662	-0.214345	0.009985
H198	H	1.584662	0.285655	0.509985
C199	C	0.863002	-0.797672	0.211387
C200	C	1.363002	-0.297672	0.711387
H201	H	0.871129	-0.853347	0.204024
H202	H	1.371129	-0.353347	0.704024
H203	H	0.807533	-0.784011	0.203147
H204	H	1.307533	-0.284011	0.703147
H205	H	0.871923	-0.783984	0.261907
H206	H	1.371923	-0.283984	0.761907
C207	C	1.100859	-0.377659	-0.004706
C208	C	1.600859	0.122341	0.495294
H209	H	1.134596	-0.340856	-0.035340
H210	H	1.634596	0.159144	0.464660
H211	H	1.071031	-0.410226	-0.036226
H212	H	1.571031	0.089774	0.463774
H213	H	1.135411	-0.410199	0.022543
H214	H	1.635411	0.089801	0.522543
H215	H	1.084695	-0.634342	0.010000
H216	H	1.584695	-0.134342	0.510000
