data_functionalizedCrystal
_audit_creation_method	'MofGen! by Chris Wilmer'
_symmetry_space_group_name_H-M	'P1'
_symmetry_Int_Tables_number	1
_symmetry_cell_setting	triclinic
loop_
_symmetry_equiv_pos_as_xyz
  x,y,z
_cell_length_a	6.817900
_cell_length_b	16.255699
_cell_length_c	27.923559
_cell_angle_alpha	96.624981
_cell_angle_beta	98.965071
_cell_angle_gamma	103.489404
loop_
_atom_site_label
_atom_site_type_symbol
_atom_site_fract_x
_atom_site_fract_y
_atom_site_fract_z
V1	V	-3.976737	-0.118294	-0.151431
O2	O	-3.965226	0.004446	-0.148383
O3	O	-3.928574	-0.233367	-0.150554
O4	O	-3.906529	-0.117018	-0.217402
O5	O	-3.987423	-0.112708	-0.081072
V6	V	-4.463160	-0.103549	-0.142996
O7	O	-4.231634	-0.150640	-0.169933
O8	O	-4.658460	-0.071204	-0.124493
O9	O	-4.288117	0.011523	-0.143872
O10	O	-4.592068	-0.226289	-0.146044
O11	O	-4.569871	-0.109136	-0.213355
O12	O	-4.310161	-0.104825	-0.077024
C13	C	-3.774338	-0.261402	-0.148207
C14	C	-3.816100	-0.355478	-0.147930
C15	C	-3.727727	-0.578280	-0.144758
C16	C	-3.824285	-0.625587	-0.105663
C17	C	-3.892660	-0.527728	-0.147446
C18	C	-3.870539	-0.648050	-0.186054
C19	C	-3.966601	-0.694114	-0.146982
C20	C	-3.988649	-0.573788	-0.108321
C21	C	-4.034895	-0.596255	-0.188748
C22	C	-4.131574	-0.643538	-0.149645
C23	C	-3.850059	-0.431877	-0.147714
C24	C	-4.009214	-0.789963	-0.146711
C25	C	-3.746217	-0.112987	-0.233477
C26	C	-3.770099	-0.112705	-0.287410
C27	C	-3.956338	-0.188614	-0.628900
C28	C	-4.046207	-0.187605	-0.831608
O29	O	-4.090141	-0.253433	-0.863804
N30	N	-4.019539	-0.109921	-0.849917
C31	C	-3.970413	-0.032484	-0.817546
O32	O	-3.949814	0.033613	-0.837771
C33	C	-3.880560	-0.033495	-0.614840
C34	C	-3.907211	-0.111183	-0.596534
C35	C	-3.982988	-0.266296	-0.610593
C36	C	-3.960511	-0.266547	-0.559919
C37	C	-3.911384	-0.189117	-0.527552
C38	C	-3.884734	-0.111435	-0.545860
C39	C	-3.831450	0.043940	-0.582471
C40	C	-3.808994	0.043681	-0.531792
C41	C	-3.835645	-0.034008	-0.513485
C42	C	-3.813130	-0.034255	-0.462819
N43	N	-3.839798	-0.111939	-0.444509
C44	C	-3.888925	-0.189370	-0.476876
C45	C	-4.017586	-0.031959	-0.923970
C46	C	-4.040046	-0.031706	-0.974647
C47	C	-4.115841	-0.186827	-0.988705
C48	C	-4.093367	-0.187079	-0.938027
C49	C	-4.044254	-0.109643	-0.905661
C50	C	-3.841717	-0.189891	-0.370456
C51	C	-3.819226	-0.190136	-0.319777
C52	C	-3.743443	-0.035016	-0.305724
C53	C	-3.765921	-0.034771	-0.356398
C54	C	-3.815068	-0.112216	-0.388764
O55	O	-3.769221	0.031538	-0.430595
O56	O	-3.909560	-0.255458	-0.456642
C57	C	-3.978815	-0.188363	-0.679574
C58	C	-3.952165	-0.110681	-0.697882
C59	C	-3.903038	-0.033250	-0.665515
C60	C	-3.974625	-0.110428	-0.748558
C61	C	-4.023752	-0.187858	-0.780925
C62	C	-4.050419	-0.265542	-0.762615
C63	C	-4.027942	-0.265793	-0.711941
C64	C	-3.876371	0.044434	-0.683824
C65	C	-3.898849	0.044679	-0.734499
C66	C	-3.947976	-0.032752	-0.766866
C67	C	-4.105695	0.039554	-0.146219
C68	C	-4.043170	0.133630	-0.146499
C69	C	-4.133817	-0.108859	-0.060947
C70	C	-4.089173	-0.109137	-0.007013
H71	H	-4.302729	-0.671887	-0.151699
O72	O	-3.828391	0.119603	-0.652333
C73	C	-3.640847	0.128147	-0.620259
H74	H	-3.612949	0.062116	-0.617985
H75	H	-3.647746	0.159893	-0.582177
H76	H	-3.510195	0.169339	-0.634678
H77	H	-4.123415	-0.582906	-0.223880
O78	O	-3.523573	-0.544365	-0.142302
C79	C	-3.460474	-0.583600	-0.182864
H80	H	-3.571709	-0.648975	-0.197590
H81	H	-3.299513	-0.591934	-0.170921
H82	H	-3.459173	-0.541621	-0.212879
H83	H	-3.877127	0.107947	-0.749398
O84	O	-3.811406	-0.686475	-0.225277
C85	C	-3.728420	-0.623999	-0.252767
H86	H	-3.789963	-0.565271	-0.245251
H87	H	-3.774384	-0.651316	-0.293553
H88	H	-3.553814	-0.604890	-0.241727
H89	H	-4.049647	-0.329055	-0.697041
H90	H	-4.022998	-0.329353	-0.636942
O91	O	-3.718285	-0.641460	-0.063785
C92	C	-3.506006	-0.608076	-0.061329
H93	H	-3.474630	-0.602097	-0.099869
H94	H	-3.418464	-0.652921	-0.044635
H95	H	-3.453270	-0.542219	-0.037496
H96	H	-4.038137	-0.541559	-0.075436
O97	O	-3.986684	-0.341945	-0.542061
C98	C	-4.148249	-0.350703	-0.515532
H99	H	-4.169339	-0.284722	-0.502646
H100	H	-4.109809	-0.382767	-0.482327
H101	H	-4.296243	-0.391699	-0.540170
H102	H	-4.090412	-0.328589	-0.788977
H103	H	-4.018315	0.031556	-0.989547
H104	H	-3.840926	-0.253401	-0.304875
H105	H	-3.881731	-0.252954	-0.396803
O106	O	-4.119213	-0.262618	-0.920326
C107	C	-4.167213	-0.330895	-0.959764
H108	H	-4.235286	-0.309488	-0.994678
H109	H	-4.283577	-0.387530	-0.951344
H110	H	-4.021595	-0.350879	-0.965161
O111	O	-4.163933	-0.262031	-1.020175
C112	C	-4.351415	-0.270528	-1.052263
H113	H	-4.443510	-0.229404	-1.034638
H114	H	-4.443032	-0.340471	-1.059849
H115	H	-4.319309	-0.248582	-1.088248
O116	O	-3.969768	0.043347	-0.892600
C117	C	-3.951098	0.111955	-0.919634
H118	H	-3.915265	0.090858	-0.956960
H119	H	-3.821537	0.168388	-0.898764
H120	H	-4.101390	0.132099	-0.925040
O121	O	-3.761543	0.118953	-0.500404
C122	C	-3.916265	0.162151	-0.510852
H123	H	-4.000786	0.138930	-0.550427
H124	H	-3.843637	0.234019	-0.505630
H125	H	-4.029482	0.148436	-0.484948
O126	O	-3.805888	0.119349	-0.600306
C127	C	-3.988889	0.120115	-0.631534
H128	H	-4.082565	0.051470	-0.646022
H129	H	-3.949919	0.154043	-0.663660
H130	H	-4.082160	0.155451	-0.610173
O131	O	-3.740372	0.040705	-0.374169
C132	C	-3.884050	0.083796	-0.359840
H133	H	-4.020412	0.035523	-0.351657
H134	H	-3.939496	0.117781	-0.390766
H135	H	-3.808425	0.132926	-0.325513
O136	O	-3.695812	0.040118	-0.274211
C137	C	-3.681650	0.023228	-0.225559
H138	H	-3.774108	-0.044938	-0.225543
H139	H	-3.745479	0.070397	-0.203122
H140	H	-3.513919	0.030569	-0.208669
