data_functionalizedCrystal
_audit_creation_method	'MofGen! by Chris Wilmer'
_symmetry_space_group_name_H-M	'P1'
_symmetry_Int_Tables_number	1
_symmetry_cell_setting	triclinic
loop_
_symmetry_equiv_pos_as_xyz
  x,y,z
_cell_length_a	14.519709
_cell_length_b	23.532407
_cell_length_c	12.996460
_cell_angle_alpha	89.989202
_cell_angle_beta	90.000034
_cell_angle_gamma	83.264412
loop_
_atom_site_label
_atom_site_type_symbol
_atom_site_fract_x
_atom_site_fract_y
_atom_site_fract_z
O1	O	1.222985	0.074654	-0.085444
O2	O	1.472985	0.324654	0.164556
O3	O	1.722985	0.574654	0.414556
O4	O	1.972985	0.824654	0.664556
O5	O	0.954405	0.083445	-0.085477
O6	O	1.204405	0.333445	0.164523
O7	O	1.454405	0.583445	0.414523
O8	O	1.704405	0.833445	0.664523
O9	O	1.096794	-0.003845	-0.085440
O10	O	1.346794	0.246155	0.164560
O11	O	1.596794	0.496155	0.414560
O12	O	1.846794	0.746155	0.664560
O13	O	1.080596	0.161945	-0.085480
O14	O	1.330596	0.411945	0.164520
O15	O	1.580596	0.661945	0.414520
O16	O	1.830596	0.911945	0.664520
O17	O	1.096779	-0.003850	0.085693
O18	O	1.346779	0.246150	0.335693
O19	O	1.596779	0.496150	0.585693
O20	O	1.846779	0.746150	0.835693
O21	O	0.954390	0.083441	0.085657
O22	O	1.204390	0.333441	0.335657
O23	O	1.454390	0.583441	0.585657
O24	O	1.704390	0.833441	0.835657
O25	O	1.222971	0.074649	0.085690
O26	O	1.472971	0.324649	0.335690
O27	O	1.722971	0.574649	0.585690
O28	O	1.972971	0.824649	0.835690
Cu29	Cu	1.088679	0.079044	0.101299
Cu30	Cu	1.338679	0.329044	0.351299
Cu31	Cu	1.588679	0.579044	0.601299
Cu32	Cu	1.838679	0.829044	0.851299
Cu33	Cu	1.088696	0.079050	-0.101086
Cu34	Cu	1.338696	0.329050	0.148914
Cu35	Cu	1.588696	0.579050	0.398914
Cu36	Cu	1.838696	0.829050	0.648914
O37	O	1.080581	0.161940	0.085654
O38	O	1.330581	0.411940	0.335654
O39	O	1.580581	0.661940	0.585654
O40	O	1.830581	0.911940	0.835654
C41	C	0.920042	0.083033	0.000086
C42	C	1.170042	0.333033	0.250086
C43	C	1.420042	0.583033	0.500086
C44	C	1.670042	0.833033	0.750086
C45	C	0.817676	0.081805	0.000075
C46	C	1.067676	0.331805	0.250075
C47	C	1.317676	0.581805	0.500075
C48	C	1.567676	0.831805	0.750075
C49	C	0.442833	0.077286	0.000123
C50	C	0.692833	0.327286	0.250123
C51	C	0.942833	0.577286	0.500123
C52	C	1.192833	0.827286	0.750123
C53	C	0.547126	0.078541	0.000109
C54	C	0.797126	0.328541	0.250109
C55	C	1.047126	0.578541	0.500109
C56	C	1.297126	0.828541	0.750109
C57	C	0.630251	0.079545	0.000098
C58	C	0.880251	0.329545	0.250098
C59	C	1.130251	0.579545	0.500098
C60	C	1.380251	0.829545	0.750098
C61	C	0.734551	0.080801	0.000086
C62	C	0.984551	0.330801	0.250086
C63	C	1.234551	0.580801	0.500086
C64	C	1.484551	0.830801	0.750086
C65	C	1.096374	-0.025066	0.000129
C66	C	1.346374	0.224934	0.250129
C67	C	1.596374	0.474934	0.500129
C68	C	1.846374	0.724934	0.750129
C69	C	1.095134	-0.088288	0.000137
C70	C	1.345134	0.161712	0.250137
C71	C	1.595134	0.411712	0.500137
C72	C	1.845134	0.661712	0.750137
C73	C	1.171619	-0.487046	0.000090
C74	C	1.421619	-0.237046	0.250090
C75	C	1.671619	0.012954	0.500090
C76	C	1.921619	0.262954	0.750090
C77	C	1.170467	-0.546452	0.000082
C78	C	1.420467	-0.296452	0.250082
C79	C	1.670467	-0.046452	0.500082
C80	C	1.920467	0.203548	0.750082
O81	O	1.241369	-0.582876	0.000052
O82	O	1.491369	-0.332876	0.250052
O83	O	1.741369	-0.082876	0.500052
O84	O	1.991369	0.167124	0.750052
N85	N	1.085816	-0.569460	0.000072
N86	N	1.335816	-0.319460	0.250072
N87	N	1.585816	-0.069460	0.500072
N88	N	1.835816	0.180540	0.750072
C89	C	1.002312	-0.533059	0.000060
C90	C	1.252312	-0.283059	0.250060
C91	C	1.502312	-0.033059	0.500060
C92	C	1.752312	0.216941	0.750060
O93	O	0.930205	-0.558084	0.000050
O94	O	1.180205	-0.308084	0.250050
O95	O	1.430205	-0.058084	0.500050
O96	O	1.680205	0.191916	0.750050
C97	C	1.003465	-0.473655	0.000061
C98	C	1.253465	-0.223655	0.250061
C99	C	1.503465	0.026345	0.500061
C100	C	1.753465	0.276345	0.750061
C101	C	1.088121	-0.450650	0.000081
C102	C	1.338121	-0.200650	0.250081
C103	C	1.588121	0.049350	0.500081
C104	C	1.838121	0.299350	0.750081
C105	C	1.256268	-0.464041	0.000109
C106	C	1.506268	-0.214041	0.250109
C107	C	1.756268	0.035959	0.500109
C108	C	2.006268	0.285959	0.750109
C109	C	1.257420	-0.404640	0.000119
C110	C	1.507420	-0.154640	0.250119
C111	C	1.757420	0.095360	0.500119
C112	C	2.007420	0.345360	0.750119
C113	C	1.173922	-0.368244	0.000110
C114	C	1.423922	-0.118244	0.250110
C115	C	1.673922	0.131756	0.500110
C116	C	1.923922	0.381756	0.750110
C117	C	1.089273	-0.391249	0.000091
C118	C	1.339273	-0.141249	0.250091
C119	C	1.589273	0.108751	0.500091
C120	C	1.839273	0.358751	0.750091
C121	C	0.919962	-0.437255	0.000041
C122	C	1.169962	-0.187255	0.250041
C123	C	1.419962	0.062745	0.500041
C124	C	1.669962	0.312745	0.750041
C125	C	0.921123	-0.377847	0.000041
C126	C	1.171123	-0.127847	0.250041
C127	C	1.421123	0.122153	0.500041
C128	C	1.671123	0.372153	0.750041
C129	C	1.005779	-0.354843	0.000061
C130	C	1.255779	-0.104843	0.250061
C131	C	1.505779	0.145157	0.500061
C132	C	1.755779	0.395157	0.750061
C133	C	1.006927	-0.295451	0.000091
C134	C	1.256927	-0.045451	0.250091
C135	C	1.506927	0.204549	0.500091
C136	C	1.756927	0.454549	0.750091
N137	N	1.091578	-0.272443	0.000101
N138	N	1.341578	-0.022443	0.250101
N139	N	1.591578	0.227557	0.500101
N140	N	1.841578	0.477557	0.750101
C141	C	1.175075	-0.308839	0.000110
C142	C	1.425075	-0.058839	0.250110
C143	C	1.675075	0.191161	0.500110
C144	C	1.925075	0.441161	0.750110
C145	C	0.999897	-0.657813	0.000057
C146	C	1.249897	-0.407813	0.250057
C147	C	1.499897	-0.157813	0.500057
C148	C	1.749897	0.092187	0.750057
C149	C	0.998743	-0.717216	0.000064
C150	C	1.248743	-0.467216	0.250064
C151	C	1.498743	-0.217216	0.500064
C152	C	1.748743	0.032784	0.750064
C153	C	1.166898	-0.730604	0.000084
C154	C	1.416898	-0.480604	0.250084
C155	C	1.666898	-0.230604	0.500084
C156	C	1.916898	0.019396	0.750084
C157	C	1.168051	-0.671200	0.000084
C158	C	1.418051	-0.421200	0.250084
C159	C	1.668051	-0.171200	0.500084
C160	C	1.918051	0.078800	0.750084
C161	C	1.084548	-0.634804	0.000067
C162	C	1.334548	-0.384804	0.250067
C163	C	1.584548	-0.134804	0.500067
C164	C	1.834548	0.115196	0.750067
C165	C	1.177487	-0.184092	0.000132
C166	C	1.427487	0.065908	0.250132
C167	C	1.677487	0.315908	0.500132
C168	C	1.927487	0.565908	0.750132
C169	C	1.178632	-0.124685	0.000146
C170	C	1.428632	0.125315	0.250146
C171	C	1.678632	0.375315	0.500146
C172	C	1.928632	0.625315	0.750146
C173	C	1.010477	-0.111301	0.000121
C174	C	1.260477	0.138699	0.250121
C175	C	1.510477	0.388699	0.500121
C176	C	1.760477	0.638699	0.750121
C177	C	1.009332	-0.170703	0.000112
C178	C	1.259332	0.079297	0.250112
C179	C	1.509332	0.329297	0.500112
C180	C	1.759332	0.579297	0.750112
C181	C	1.092845	-0.207098	0.000114
C182	C	1.342845	0.042902	0.250114
C183	C	1.592845	0.292902	0.500114
C184	C	1.842845	0.542902	0.750114
O185	O	0.936062	-0.258992	0.000117
O186	O	1.186062	-0.008992	0.250117
O187	O	1.436062	0.241008	0.500117
O188	O	1.686062	0.491008	0.750117
O189	O	1.247171	-0.283806	0.000106
O190	O	1.497171	-0.033806	0.250106
O191	O	1.747171	0.216194	0.500106
O192	O	1.997171	0.466194	0.750106
C193	C	1.257333	0.075061	0.000125
C194	C	1.507333	0.325061	0.250125
C195	C	1.757333	0.575061	0.500125
C196	C	2.007333	0.825061	0.750125
C197	C	1.359700	0.076289	0.000130
C198	C	1.609700	0.326289	0.250130
C199	C	1.859700	0.576289	0.500130
C200	C	2.109700	0.826289	0.750130
C201	C	1.081001	0.183160	0.000082
C202	C	1.331001	0.433160	0.250082
C203	C	1.581001	0.683160	0.500082
C204	C	1.831001	0.933160	0.750082
C205	C	1.082241	0.246383	0.000067
C206	C	1.332241	0.496383	0.250067
C207	C	1.582241	0.746383	0.500067
C208	C	1.832241	0.996383	0.750067
N209	N	1.088673	0.079040	0.243647
N210	N	1.338673	0.329040	0.493647
N211	N	1.588673	0.579040	0.743647
N212	N	1.838673	0.829040	0.993647
N213	N	1.088709	0.079050	-0.243433
N214	N	1.338709	0.329050	0.006567
N215	N	1.588709	0.579050	0.256567
N216	N	1.838709	0.829050	0.506567
C217	C	1.088695	0.079051	0.663461
C218	C	1.338695	0.329051	0.913461
C219	C	1.588695	0.579051	1.163461
C220	C	1.838695	0.829051	1.413461
C221	C	1.088686	0.079050	0.546656
C222	C	1.338686	0.329050	0.796656
C223	C	1.588686	0.579050	1.046656
C224	C	1.838686	0.829050	1.296656
C225	C	1.088685	0.079046	0.453557
C226	C	1.338685	0.329046	0.703557
C227	C	1.588685	0.579046	0.953557
C228	C	1.838685	0.829046	1.203557
C229	C	1.088675	0.079044	0.336745
C230	C	1.338675	0.329044	0.586745
C231	C	1.588675	0.579044	0.836745
C232	C	1.838675	0.829044	1.086745
H233	H	1.247572	-0.105958	0.000165
H234	H	1.497572	0.144042	0.250165
H235	H	1.747572	0.394042	0.500165
H236	H	1.997572	0.644042	0.750165
H237	H	0.929808	-0.735940	0.000065
H238	H	1.179808	-0.485940	0.250065
H239	H	1.429808	-0.235940	0.500065
H240	H	1.679808	0.014060	0.750065
H241	H	1.324266	-0.493670	0.000112
H242	H	1.574266	-0.243670	0.250112
H243	H	1.824266	0.006330	0.500112
H244	H	2.074266	0.256330	0.750112
H245	H	1.245491	-0.213718	0.000129
H246	H	1.495491	0.036282	0.250129
H247	H	1.745491	0.286282	0.500129
H248	H	1.995491	0.536282	0.750129
H249	H	1.236985	-0.652474	0.000100
H250	H	1.486985	-0.402474	0.250100
H251	H	1.736985	-0.152474	0.500100
H252	H	1.986985	0.097526	0.750100
H253	H	1.234886	-0.760249	0.000087
H254	H	1.484886	-0.510249	0.250087
H255	H	1.734886	-0.260249	0.500087
H256	H	1.984886	-0.010249	0.750087
H257	H	0.931894	-0.628182	0.000052
H258	H	1.181894	-0.378182	0.250052
H259	H	1.431894	-0.128182	0.500052
H260	H	1.681894	0.121818	0.750052
H261	H	0.851027	-0.455975	0.000019
H262	H	1.101027	-0.205975	0.250019
H263	H	1.351027	0.044025	0.500019
H264	H	1.601027	0.294025	0.750019
H265	H	0.853122	-0.348216	0.000025
H266	H	1.103122	-0.098216	0.250025
H267	H	1.353122	0.151784	0.500025
H268	H	1.603122	0.401784	0.750025
H269	H	1.326355	-0.385915	0.000131
H270	H	1.576355	-0.135915	0.250131
H271	H	1.826355	0.114085	0.500131
H272	H	2.076355	0.364085	0.750131
H273	H	0.940399	-0.189434	0.000124
H274	H	1.190399	0.060566	0.250124
H275	H	1.440399	0.310566	0.500124
H276	H	1.690399	0.560566	0.750124
H277	H	0.942496	-0.081657	0.000117
H278	H	1.192496	0.168343	0.250117
H279	H	1.442496	0.418343	0.500117
H280	H	1.692496	0.668343	0.750117
