data_functionalizedCrystal
_audit_creation_method	'MofGen! by Chris Wilmer'
_symmetry_space_group_name_H-M	'P1'
_symmetry_Int_Tables_number	1
_symmetry_cell_setting	triclinic
loop_
_symmetry_equiv_pos_as_xyz
  x,y,z
_cell_length_a	6.817900
_cell_length_b	12.200722
_cell_length_c	17.329378
_cell_angle_alpha	90.836677
_cell_angle_beta	103.025558
_cell_angle_gamma	107.140920
loop_
_atom_site_label
_atom_site_type_symbol
_atom_site_fract_x
_atom_site_fract_y
_atom_site_fract_z
V1	V	-4.026046	-0.135259	-0.245100
V2	V	-3.526046	0.364741	0.254900
O3	O	-3.994533	0.030626	-0.240349
O4	O	-3.494533	0.530626	0.259651
O5	O	-3.995880	-0.291400	-0.243506
O6	O	-3.495880	0.208600	0.256494
O7	O	-3.968979	-0.122593	-0.351959
O8	O	-3.468979	0.377407	0.148041
O9	O	-4.021620	-0.139350	-0.131145
O10	O	-3.521620	0.360650	0.368855
V11	V	-4.508435	-0.116668	-0.231460
V12	V	-4.008435	0.383332	0.268540
O13	O	-4.289794	-0.176040	-0.275021
O14	O	-3.789794	0.323960	0.224979
O15	O	-4.694884	-0.075888	-0.201540
O16	O	-4.194884	0.424112	0.298460
O17	O	-4.315394	0.039472	-0.233054
O18	O	-3.815394	0.539472	0.266946
O19	O	-4.657345	-0.282553	-0.236212
O20	O	-4.157345	0.217447	0.263788
O21	O	-4.630257	-0.112578	-0.345415
O22	O	-4.130257	0.387422	0.154585
O23	O	-4.342295	-0.129335	-0.124601
O24	O	-3.842295	0.370665	0.375399
C25	C	-3.845597	-0.329794	-0.239661
C26	C	-3.345597	0.170206	0.260339
C27	C	-3.902162	-0.457373	-0.239071
C28	C	-3.402162	0.042627	0.260929
C29	C	-3.948093	-0.560981	-0.238583
C30	C	-3.448093	-0.060981	0.261417
C31	C	-4.005735	-0.690961	-0.237976
C32	C	-3.505735	-0.190961	0.262024
C33	C	-3.811281	-0.114463	-0.378002
C34	C	-3.311281	0.385537	0.121998
C35	C	-3.846027	-0.105139	-0.465361
C36	C	-3.346027	0.394861	0.034639
C37	C	-3.913912	-0.204730	-0.517679
C38	C	-3.413912	0.295270	-0.017679
C39	C	-3.946566	-0.195968	-0.599762
C40	C	-3.446566	0.304032	-0.099762
C41	C	-3.911321	-0.087614	-0.629523
C42	C	-3.411321	0.412386	-0.129523
C43	C	-3.843436	0.011984	-0.577198
C44	C	-3.343436	0.511984	-0.077198
C45	C	-3.810796	0.003220	-0.495118
C46	C	-3.310796	0.503220	0.004882
C47	C	-4.007304	-0.055953	-0.876789
C48	C	-3.507304	0.444047	-0.376789
C49	C	-4.039943	-0.047196	-0.958876
C50	C	-3.539943	0.452804	-0.458876
C51	C	-4.143076	-0.255149	-0.981434
C52	C	-3.643076	0.244851	-0.481434
C53	C	-4.110419	-0.263903	-0.899351
C54	C	-3.610419	0.236097	-0.399351
C55	C	-4.042548	-0.164305	-0.847033
C56	C	-3.542548	0.335695	-0.347033
C57	C	-3.944692	-0.078655	-0.713424
C58	C	-3.444692	0.421345	-0.213424
C59	C	-4.009192	-0.173266	-0.763134
C60	C	-3.509192	0.326734	-0.263134
C61	C	-4.129020	0.077861	-0.236897
C62	C	-3.629020	0.577861	0.263103
C63	C	-4.051693	0.205439	-0.237493
C64	C	-3.551693	0.705439	0.262507
C65	C	-4.163336	-0.137469	-0.098554
C66	C	-3.663336	0.362531	0.401446
C67	C	-4.107828	-0.146787	-0.011195
C68	C	-3.607828	0.353213	0.488805
H69	H	-4.001851	-0.277065	-0.642357
H70	H	-3.501851	0.222935	-0.142357
H71	H	-3.942601	-0.292963	-0.493454
H72	H	-3.442601	0.207037	0.006546
H73	H	-4.139131	-0.352136	-0.875125
H74	H	-3.639131	0.147864	-0.375125
H75	H	-4.198340	-0.336235	-1.024039
H76	H	-3.698340	0.163765	-0.524039
H77	H	-3.814753	0.100208	-0.601437
H78	H	-3.314753	0.600208	-0.101437
H79	H	-4.011281	0.041042	-0.983105
H80	H	-3.511281	0.541042	-0.483105
N81	N	-4.047219	-0.290128	-0.731034
N82	N	-3.547219	0.209872	-0.231034
H83	H	-3.911884	-0.294758	-0.694755
H84	H	-3.411884	0.205242	-0.194755
H85	H	-4.095239	-0.351828	-0.776674
H86	H	-3.595239	0.148172	-0.276674
H87	H	-3.915993	0.009568	-0.737666
H88	H	-3.415993	0.509568	-0.237666
H89	H	-3.952041	0.025147	-0.834202
H90	H	-3.452041	0.525147	-0.334202
H91	H	-3.755521	0.084318	-0.452520
H92	H	-3.255521	0.584318	0.047480
