data_functionalizedCrystal
_audit_creation_method	'MofGen! by Chris Wilmer'
_symmetry_space_group_name_H-M	'P1'
_symmetry_Int_Tables_number	1
_symmetry_cell_setting	triclinic
loop_
_symmetry_equiv_pos_as_xyz
  x,y,z
_cell_length_a	6.817900
_cell_length_b	12.840964
_cell_length_c	16.255699
_cell_angle_alpha	81.398265
_cell_angle_beta	103.489404
_cell_angle_gamma	88.344333
loop_
_atom_site_label
_atom_site_type_symbol
_atom_site_fract_x
_atom_site_fract_y
_atom_site_fract_z
V1	V	-3.898235	0.325562	-0.119068
O2	O	-3.888304	0.319008	0.003688
O3	O	-3.850527	0.323677	-0.234136
O4	O	-3.793828	0.467394	-0.118129
O5	O	-3.945396	0.174297	-0.113122
V6	V	-4.389031	0.307428	-0.104279
O7	O	-4.143541	0.365340	-0.151508
O8	O	-4.593923	0.267649	-0.071840
O9	O	-4.213533	0.309312	0.010788
O10	O	-4.516359	0.313981	-0.227035
O11	O	-4.459268	0.458692	-0.110225
O12	O	-4.270232	0.165595	-0.105219
C13	C	-3.697508	0.318630	-0.262159
C14	C	-3.739414	0.318035	-0.356234
C15	C	-3.621049	0.620085	-0.114189
C16	C	-3.625182	0.501952	-0.114187
C17	C	-4.102207	0.131030	-0.109169
C18	C	-4.085211	0.012899	-0.109175
C19	C	-3.652685	0.311216	-0.579019
C20	C	-3.769510	0.227164	-0.626127
C21	C	-3.816224	0.316996	-0.528481
C22	C	-3.774089	0.399998	-0.649000
C23	C	-3.890406	0.315996	-0.694865
C24	C	-3.932495	0.232880	-0.574341
C25	C	-3.937048	0.405791	-0.597219
C26	C	-4.053998	0.321722	-0.644302
C27	C	-3.773484	0.317570	-0.432632
C28	C	-3.933159	0.315414	-0.790712
V29	V	-3.881177	0.811726	-0.119081
O30	O	-3.917726	0.962917	-0.113137
O31	O	-3.786910	0.664537	-0.118140
O32	O	-3.831931	0.853448	-0.234148
O33	O	-3.872393	0.772699	0.003674
V34	V	-4.370028	0.849132	-0.104298
O35	O	-4.128419	0.796289	-0.151523
O36	O	-4.572190	0.887256	-0.071861
O37	O	-4.241482	0.985072	-0.105237
O38	O	-4.450670	0.703857	-0.110244
O39	O	-4.496002	0.894075	-0.227055
O40	O	-4.196461	0.796161	0.010771
C41	C	-4.029895	0.314356	0.038807
C42	C	-3.967225	0.314958	0.132881
C43	C	-3.678463	0.861060	-0.262164
C44	C	-3.719035	0.898312	-0.356238
C45	C	-4.013863	0.771580	0.038796
C46	C	-3.952567	0.733291	0.132872
C47	C	-3.918150	0.921273	-0.404764
C48	C	-3.956299	0.956290	-0.493155
C49	C	-3.795329	0.968340	-0.533020
C50	C	-3.596197	0.945379	-0.484488
C51	C	-3.558051	0.910369	-0.396097
C52	C	-3.749720	0.702898	0.172720
C53	C	-3.692094	0.666933	0.261115
C54	C	-3.837320	0.661356	0.309660
C55	C	-4.040183	0.691755	0.269807
C56	C	-4.097804	0.727726	0.181414
H57	H	-3.482652	0.306672	-0.550488
H58	H	-4.007356	0.481320	-0.584050
H59	H	-4.158412	0.687209	0.309346
H60	H	-3.395908	0.891672	-0.356594
H61	H	-3.826419	0.996848	-0.604994
H62	H	-4.224089	0.326137	-0.672662
F63	F	-4.089498	0.908459	-0.362353
H64	H	-3.465147	0.955196	-0.516959
F65	F	-3.677505	0.128470	-0.643354
F66	F	-3.595124	0.708828	0.121070
H67	H	-4.262984	0.752466	0.148977
F68	F	-3.687060	0.492294	-0.691464
F69	F	-3.775965	0.623069	0.403736
F70	F	-3.476185	0.634581	0.303513
H71	H	-3.999031	0.162181	-0.541945
H72	H	-4.118453	0.974978	-0.532659
