data_functionalizedCrystal
_audit_creation_method	'MofGen! by Chris Wilmer'
_symmetry_space_group_name_H-M	'P1'
_symmetry_Int_Tables_number	1
_symmetry_cell_setting	triclinic
loop_
_symmetry_equiv_pos_as_xyz
  x,y,z
_cell_length_a	27.354012
_cell_length_b	27.353283
_cell_length_c	27.349551
_cell_angle_alpha	60.005606
_cell_angle_beta	60.011434
_cell_angle_gamma	59.993282
loop_
_atom_site_label
_atom_site_type_symbol
_atom_site_fract_x
_atom_site_fract_y
_atom_site_fract_z
O1	O	0.067635	-0.714267	0.597330
O2	O	0.025429	-0.556105	0.481282
O3	O	0.125575	-0.656186	0.481214
O4	O	-0.032512	-0.614186	0.597397
O5	O	0.158797	-0.622968	0.514367
O6	O	0.058650	-0.522887	0.514434
O7	O	0.100856	-0.681048	0.630482
Zn8	Zn	0.085028	-0.596693	0.577722
Zn9	Zn	0.041257	-0.640460	0.534042
O10	O	0.000709	-0.580967	0.630549
N11	N	0.114901	-0.566828	0.607534
N12	N	0.011389	-0.670331	0.504229
C13	C	0.179404	-0.338196	0.672015
C14	C	0.179501	-0.502386	0.836160
C15	C	0.179415	-0.502363	0.671996
C16	C	0.343611	-0.502373	0.671960
C17	C	0.197478	-0.392371	0.690061
C18	C	0.197534	-0.484321	0.781984
C19	C	0.289434	-0.484312	0.690032
C20	C	0.197486	-0.484308	0.690051
C21	C	0.156398	-0.269238	0.649045
C22	C	0.156418	-0.525342	0.649015
C23	C	0.220484	-0.461329	0.713032
C24	C	0.443889	-0.485097	0.619172
C25	C	0.506571	-0.505993	0.598266
C26	C	0.506589	-0.607412	0.636940
C27	C	0.443909	-0.586515	0.657848
C28	C	0.171510	-0.237888	0.587422
C29	C	0.150593	-0.175201	0.566543
C30	C	0.099458	-0.175218	0.668913
C31	C	0.120375	-0.237905	0.689792
C32	C	0.094789	-0.510201	0.664176
C33	C	0.073888	-0.531091	0.643278
C34	C	0.176239	-0.582263	0.592072
C35	C	0.197142	-0.561373	0.612963
C36	C	0.094933	-0.510244	0.936476
C37	C	0.074073	-0.531151	0.999161
C38	C	0.176453	-0.582335	0.999126
C39	C	0.197312	-0.561429	0.936439
C40	C	0.156551	-0.525382	0.905116
C41	C	0.412561	-0.525357	0.648961
C42	C	-0.098513	-0.688235	0.485867
C43	C	-0.006461	-0.688368	0.394066
C44	C	-0.006645	-0.780264	0.486040
C45	C	-0.006630	-0.688361	0.486097
C46	C	-0.029562	-0.711308	0.463018
N47	N	0.537030	-0.566846	0.607436
O48	O	0.741877	-0.576849	0.459995
O49	O	0.742050	-0.693241	0.618010
O50	O	0.741986	-0.692977	0.517791
O51	O	0.741941	-0.577114	0.560214
O52	O	0.642405	-0.659839	0.551046
O53	O	0.642469	-0.660104	0.651265
O54	O	0.642296	-0.543712	0.493251
Zn55	Zn	0.626572	-0.596646	0.577538
Zn56	Zn	0.757774	-0.640307	0.533723
O57	O	0.642360	-0.543976	0.593469
N58	N	0.847316	-0.670107	0.503818
N59	N	0.114877	-0.144758	0.607577
O60	O	-0.032498	0.060193	0.597441
O61	O	0.125523	0.060193	0.481067
O62	O	0.025289	0.060179	0.481345
O63	O	0.067736	0.060207	0.597163
O64	O	0.058511	-0.039410	0.514543
O65	O	0.158745	-0.039397	0.514265
O66	O	0.000724	-0.039396	0.630638
Zn67	Zn	0.085009	-0.055208	0.577722
Zn68	Zn	0.041238	0.076005	0.533983
O69	O	0.100958	-0.039382	0.630360
N70	N	0.011362	0.165555	0.504130
N71	N	0.115121	-0.566884	1.029592
O72	O	0.104990	-0.714248	1.234528
O73	O	-0.011371	-0.556177	1.234539
O74	O	-0.011103	-0.656395	1.234497
O75	O	0.104722	-0.614030	1.234569
O76	O	0.022090	-0.623190	1.134913
O77	O	0.021822	-0.522972	1.134954
O78	O	0.138182	-0.681044	1.134943
Zn79	Zn	0.085272	-0.596736	1.119137
Zn80	Zn	0.041539	-0.640484	1.250344
O81	O	0.137914	-0.580826	1.134984
N82	N	0.011689	-0.670343	1.339890
C83	C	0.038085	-0.519567	0.481870
C84	C	0.162104	-0.643505	0.481786
C85	C	0.088200	-0.717587	0.629893
C86	C	-0.035819	-0.593649	0.629977
C87	C	0.692280	-0.692701	0.654545
C88	C	0.692203	-0.692374	0.530435
C89	C	0.692063	-0.544251	0.456717
C90	C	0.692144	-0.544580	0.580825
C91	C	0.162000	0.010521	0.481600
C92	C	0.037914	0.010381	0.481984
C93	C	-0.035795	0.010399	0.630065
C94	C	0.088333	0.010415	0.629722
C95	C	-0.010799	-0.519660	1.184747
C96	C	-0.010461	-0.643761	1.184677
C97	C	0.137610	-0.717561	1.184734
C98	C	0.137280	-0.593452	1.184783
H99	H	0.061737	-0.480889	0.910978
H100	H	-0.081227	-0.584696	0.666460
N101	N	0.540402	-0.673374	0.646521
H102	H	0.511044	-0.695709	0.668568
H103	H	0.566424	-0.688974	0.670913
H104	H	0.692221	-0.728771	0.521355
H105	H	-0.046832	-0.652809	1.184615
H106	H	0.692005	-0.507708	0.411338
H107	H	0.174144	-0.762957	1.184724
H108	H	0.173667	-0.584388	1.184797
H109	H	0.207290	0.010797	0.444973
N110	N	0.222245	-0.655360	0.433452
H111	H	0.248971	-0.697494	0.448871
H112	H	0.241296	-0.625916	0.421857
N113	N	0.692131	-0.496366	0.592842
H114	H	0.692169	-0.511901	0.634985
H115	H	0.655190	-0.460176	0.588092
N116	N	0.100134	-0.777765	0.678177
H117	H	0.142272	-0.804450	0.662711
H118	H	0.070714	-0.796845	0.689777
H119	H	0.028825	0.010378	0.445599
H120	H	-0.081177	0.010398	0.666600
N121	N	0.100369	0.010435	0.677911
H122	H	0.135104	-0.026477	0.687831
H123	H	0.063567	0.010463	0.714944
N124	N	0.007612	-0.514817	1.032980
H125	H	-0.015041	-0.488807	1.003622
H126	H	-0.003273	-0.492235	1.058994
N127	N	0.220416	-0.621200	1.032911
H128	H	0.262617	-0.627616	1.003533
H129	H	0.213996	-0.661132	1.058914
N130	N	-0.059191	-0.459525	1.184745
H131	H	-0.043843	-0.432762	1.184762
H132	H	-0.095365	-0.465121	1.221653
H133	H	0.692323	-0.729239	0.699929
N134	N	0.050865	-0.471329	0.703047
H135	H	0.024864	-0.493916	0.740741
H136	H	0.024885	-0.433640	0.680410
N137	N	0.263775	-0.577759	0.902616
H138	H	0.286429	-0.603762	0.931972
H139	H	0.274656	-0.540057	0.876611
H140	H	0.209407	-0.611608	0.562721
N141	N	0.007418	-0.514766	0.659627
H142	H	-0.015211	-0.488777	0.685642
H143	H	-0.003458	-0.552471	0.682206
N144	N	0.026147	-0.459384	0.433593
H145	H	-0.008571	-0.451634	0.423645
H146	H	0.062983	-0.459227	0.396593
H147	H	0.418403	-0.619300	0.682106
N148	N	0.263612	-0.577699	0.596616
H149	H	0.282330	-0.562373	0.551650
H150	H	0.282318	-0.622669	0.611961
N151	N	0.540368	-0.462573	0.566139
H152	H	0.510999	-0.420658	0.563682
H153	H	0.566358	-0.464311	0.524400
H154	H	0.418366	-0.435297	0.611936
H155	H	0.200842	-0.263395	0.554238
H156	H	0.162897	-0.149674	0.516363
H157	H	0.108067	-0.263426	0.739970
N158	N	0.060617	-0.141419	0.712859
H159	H	0.054225	-0.170793	0.755066
H160	H	0.020677	-0.115410	0.706440
