data_functionalizedCrystal
_audit_creation_method	'MofGen! by Chris Wilmer'
_symmetry_space_group_name_H-M	'P1'
_symmetry_Int_Tables_number	1
_symmetry_cell_setting	triclinic
loop_
_symmetry_equiv_pos_as_xyz
  x,y,z
_cell_length_a	16.120444
_cell_length_b	16.120566
_cell_length_c	16.120297
_cell_angle_alpha	89.874982
_cell_angle_beta	95.615117
_cell_angle_gamma	89.830856
loop_
_atom_site_label
_atom_site_type_symbol
_atom_site_fract_x
_atom_site_fract_y
_atom_site_fract_z
Zn1	Zn	-0.422256	-1.224976	-0.554884
Zn2	Zn	-0.088923	-0.891643	-0.221551
Zn3	Zn	0.244410	-0.558310	0.111782
Zn4	Zn	-0.554941	-1.224869	-0.422191
Zn5	Zn	-0.221608	-0.891536	-0.088857
Zn6	Zn	0.111726	-0.558203	0.244476
Zn7	Zn	-0.408173	-1.093716	-0.408120
Zn8	Zn	-0.074840	-0.760383	-0.074786
Zn9	Zn	0.258494	-0.427050	0.258547
Zn10	Zn	-0.554175	-1.078867	-0.554115
Zn11	Zn	-0.220841	-0.745534	-0.220782
Zn12	Zn	0.112492	-0.412200	0.112551
O13	O	-0.484886	-1.155607	-0.484827
O14	O	-0.151553	-0.822274	-0.151494
O15	O	0.181780	-0.488941	0.181839
O16	O	-0.446072	-1.340998	-0.543493
O17	O	-0.112739	-1.007664	-0.210159
O18	O	0.220595	-0.674331	0.123174
O19	O	-0.529899	-1.213641	-0.303692
O20	O	-0.196565	-0.880308	0.029642
O21	O	0.136768	-0.546975	0.362975
O22	O	-0.293410	-1.117387	-0.422021
O23	O	0.039923	-0.784054	-0.088688
O24	O	0.373256	-0.450721	0.244645
O25	O	-0.543555	-1.340919	-0.446003
O26	O	-0.210222	-1.007586	-0.112670
O27	O	0.123112	-0.674252	0.220663
O28	O	-0.303757	-1.213824	-0.529849
O29	O	0.029576	-0.880490	-0.196515
O30	O	0.362909	-0.547157	0.136818
O31	O	-0.422069	-1.117284	-0.293354
O32	O	-0.088736	-0.783950	0.039980
O33	O	0.244598	-0.450617	0.373313
O34	O	-0.421326	-0.975711	-0.421276
O35	O	-0.087993	-0.642378	-0.087942
O36	O	0.245341	-0.309044	0.245391
O37	O	-0.542249	-1.092079	-0.670850
O38	O	-0.208915	-0.758746	-0.337516
O39	O	0.124418	-0.425412	-0.004183
O40	O	-0.528593	-0.964801	-0.528538
O41	O	-0.195259	-0.631468	-0.195205
O42	O	0.138074	-0.298135	0.138129
O43	O	-0.445329	-1.199425	-0.671415
O44	O	-0.111996	-0.866092	-0.338081
O45	O	0.221338	-0.532758	-0.004748
O46	O	-0.671470	-1.199243	-0.445258
O47	O	-0.338137	-0.865909	-0.111925
O48	O	-0.004804	-0.532576	0.221409
O49	O	-0.670907	-1.091975	-0.542182
O50	O	-0.337574	-0.758642	-0.208849
O51	O	-0.004241	-0.425309	0.124484
C52	C	-0.473348	-0.940169	-0.473297
C53	C	-0.140015	-0.606836	-0.139964
C54	C	0.193318	-0.273503	0.193370
C55	C	-0.468433	-0.848002	-0.468385
C56	C	-0.135100	-0.514669	-0.135052
C57	C	0.198233	-0.181335	0.198282
C58	C	-0.459441	-0.679251	-0.459423
C59	C	-0.126108	-0.345918	-0.126090
C60	C	0.207226	-0.012585	0.207243
C61	C	-0.510404	-0.632799	-0.510242
C62	C	-0.177070	-0.299466	-0.176909
C63	C	0.156263	0.033867	0.156425
C64	C	-0.505400	-0.538901	-0.505255
C65	C	-0.172067	-0.205567	-0.171922
C66	C	0.161266	0.127766	0.161411
C67	C	-0.464443	-0.773159	-0.464409
C68	C	-0.131110	-0.439825	-0.131075
C69	C	0.202223	-0.106492	0.202258
C70	C	-0.701432	-1.144008	-0.495183
C71	C	-0.368099	-0.810674	-0.161850
C72	C	-0.034765	-0.477341	0.171484
C73	C	-0.794077	-1.139120	-0.499645
C74	C	-0.460743	-0.805786	-0.166312
C75	C	-0.127410	-0.472453	0.167022
C76	C	-1.005235	-1.181158	-0.461871
C77	C	-0.671901	-0.847824	-0.128537
C78	C	-0.338568	-0.514491	0.204796
C79	C	-0.963695	-1.130210	-0.507801
C80	C	-0.630362	-0.796877	-0.174468
C81	C	-0.297029	-0.463543	0.158866
C82	C	-0.869311	-1.135169	-0.503262
C83	C	-0.535977	-0.801836	-0.169928
C84	C	-0.202644	-0.468502	0.163405
C85	C	-1.099628	-1.176200	-0.466409
C86	C	-0.766295	-0.842867	-0.133076
C87	C	-0.432961	-0.509533	0.200258
C88	C	-0.267497	-1.167274	-0.474451
C89	C	0.065836	-0.833941	-0.141118
C90	C	0.399170	-0.500607	0.192216
C91	C	-0.174859	-1.172245	-0.470029
C92	C	0.158475	-0.838912	-0.136696
C93	C	0.491808	-0.505579	0.196637
C94	C	-0.495274	-1.144108	-0.702219
C95	C	-0.161941	-0.810774	-0.368886
C96	C	0.171392	-0.477441	-0.035553
C97	C	-0.499701	-1.139207	-0.794859
C98	C	-0.166368	-0.805874	-0.461525
C99	C	0.166966	-0.472540	-0.128192
C100	C	-0.496472	-0.371887	-0.496390
C101	C	-0.163139	-0.038553	-0.163057
C102	C	0.170195	0.294780	0.170277
C103	C	-0.501414	-0.464054	-0.501283
C104	C	-0.168081	-0.130720	-0.167949
C105	C	0.165253	0.202613	0.165384
C106	C	-0.507763	-1.130231	-0.964470
C107	C	-0.174429	-0.796897	-0.631136
C108	C	0.158904	-0.463564	-0.297803
C109	C	-0.461769	-1.181161	-1.006034
C110	C	-0.128436	-0.847827	-0.672701
C111	C	0.204898	-0.514494	-0.339367
C112	C	-0.466255	-1.176166	-1.100411
C113	C	-0.132921	-0.842833	-0.767078
C114	C	0.200412	-0.509499	-0.433745
C115	C	-0.503278	-1.135224	-0.870084
C116	C	-0.169945	-0.801891	-0.536750
C117	C	0.163389	-0.468557	-0.203417
C118	C	-0.474481	-1.167113	-0.268281
C119	C	-0.141148	-0.833780	0.065052
C120	C	0.192185	-0.500446	0.398386
C121	C	-0.469828	-1.172187	-0.175639
C122	C	-0.136495	-0.838853	0.157694
C123	C	0.196838	-0.505520	0.491027
H124	H	-0.412057	-0.648502	-0.412174
H125	H	-0.078724	-0.315168	-0.078841
H126	H	0.254610	0.018165	0.254492
H127	H	-0.419023	-1.228513	-0.970739
H128	H	-0.085690	-0.895180	-0.637405
H129	H	0.247644	-0.561847	-0.304072
N130	N	-1.010475	-1.067498	-0.564405
N131	N	-0.677141	-0.734165	-0.231072
N132	N	-0.343808	-0.400832	0.102261
H133	H	-1.072246	-1.072798	-0.559665
H134	H	-0.738913	-0.739465	-0.226332
H135	H	-0.405580	-0.406132	0.107001
H136	H	-0.991582	-1.009756	-0.547498
H137	H	-0.658249	-0.676423	-0.214165
H138	H	-0.324916	-0.343090	0.119168
H139	H	-0.969916	-1.228495	-0.419141
H140	H	-0.636583	-0.895162	-0.085808
H141	H	-0.303250	-0.561829	0.247525
N142	N	-0.564369	-1.067496	-1.011211
N143	N	-0.231036	-0.734163	-0.677878
N144	N	0.102298	-0.400830	-0.344545
H145	H	-0.559582	-1.072775	-1.072982
H146	H	-0.226248	-0.739442	-0.739648
H147	H	0.107085	-0.406109	-0.406315
H148	H	-0.623883	-1.077985	-0.999599
H149	H	-0.290549	-0.744651	-0.666266
H150	H	0.042784	-0.411318	-0.332932
N151	N	-0.573189	-0.673520	-0.572826
N152	N	-0.239855	-0.340187	-0.239493
N153	N	0.093478	-0.006853	0.093841
H154	H	-0.562408	-0.656055	-0.631005
H155	H	-0.229074	-0.322722	-0.297672
H156	H	0.104259	0.010612	0.035662
H157	H	-0.567886	-0.735789	-0.567489
H158	H	-0.234552	-0.402455	-0.234156
H159	H	0.098781	-0.069122	0.099178
