data_functionalizedCrystal
_audit_creation_method	'MofGen! by Chris Wilmer'
_symmetry_space_group_name_H-M	'P1'
_symmetry_Int_Tables_number	1
_symmetry_cell_setting	triclinic
loop_
_symmetry_equiv_pos_as_xyz
  x,y,z
_cell_length_a	27.732064
_cell_length_b	27.732048
_cell_length_c	26.210047
_cell_angle_alpha	90.009625
_cell_angle_beta	90.008789
_cell_angle_gamma	82.646040
loop_
_atom_site_label
_atom_site_type_symbol
_atom_site_fract_x
_atom_site_fract_y
_atom_site_fract_z
O1	O	0.640930	0.057554	0.042343
O2	O	0.974264	0.390887	0.375677
O3	O	1.307597	0.724221	0.709010
O4	O	0.500138	0.066291	0.042365
O5	O	0.833471	0.399624	0.375699
O6	O	1.166805	0.732958	0.709032
O7	O	0.574907	-0.008474	0.042344
O8	O	0.908240	0.324859	0.375677
O9	O	1.241574	0.658193	0.709011
O10	O	0.566161	0.132319	0.042365
O11	O	0.899495	0.465652	0.375698
O12	O	1.232828	0.798986	0.709031
O13	O	0.574884	-0.008474	-0.042514
O14	O	0.908217	0.324859	0.290819
O15	O	1.241550	0.658193	0.624153
O16	O	0.500115	0.066291	-0.042493
O17	O	0.833448	0.399624	0.290840
O18	O	1.166781	0.732958	0.624174
O19	O	0.640907	0.057554	-0.042515
O20	O	0.974240	0.390887	0.290819
O21	O	1.307574	0.724221	0.624152
Cu22	Cu	0.570509	0.061923	-0.050252
Cu23	Cu	0.903842	0.395256	0.283081
Cu24	Cu	1.237175	0.728589	0.616415
Cu25	Cu	0.570536	0.061923	0.050103
Cu26	Cu	0.903870	0.395256	0.383436
Cu27	Cu	1.237203	0.728589	0.716769
O28	O	0.566138	0.132319	-0.042493
O29	O	0.899471	0.465652	0.290840
O30	O	1.232805	0.798986	0.624173
C31	C	0.482120	0.066106	-0.000061
C32	C	0.815453	0.399440	0.333272
C33	C	1.148786	0.732773	0.666605
C34	C	0.428465	0.065551	-0.000053
C35	C	0.761798	0.398884	0.333280
C36	C	1.095132	0.732217	0.666613
C37	C	0.574712	-0.026481	-0.000087
C38	C	0.908045	0.306853	0.333247
C39	C	1.241378	0.640186	0.666580
C40	C	0.574159	-0.080136	-0.000091
C41	C	0.907492	0.253198	0.333243
C42	C	1.240826	0.586531	0.666576
C43	C	0.051392	0.017583	-0.000089
C44	C	0.384726	0.350917	0.333244
C45	C	0.718059	0.684250	0.666577
C46	C	0.253053	0.019630	-0.000076
C47	C	0.586386	0.352963	0.333257
C48	C	0.919719	0.686296	0.666591
O49	O	0.284305	-0.017591	-0.000100
O50	O	0.617639	0.315742	0.333233
O51	O	0.950972	0.649075	0.666566
N52	N	0.272180	0.063964	-0.000067
N53	N	0.605513	0.397297	0.333266
N54	N	0.938847	0.730631	0.666600
C55	C	0.240889	0.107790	-0.000065
C56	C	0.574222	0.441123	0.333268
C57	C	0.907556	0.774456	0.666602
O58	O	0.261785	0.145546	-0.000062
O59	O	0.595119	0.478879	0.333271
O60	O	0.928452	0.812212	0.666604
C61	C	0.039230	0.105743	-0.000082
C62	C	0.372563	0.439076	0.333251
C63	C	0.705896	0.772410	0.666584
C64	C	0.020105	0.061406	-0.000086
C65	C	0.353439	0.394739	0.333247
C66	C	0.686772	0.728072	0.666581
C67	C	0.032267	-0.026750	-0.000094
C68	C	0.365601	0.306583	0.333240
C69	C	0.698934	0.639916	0.666573
C70	C	-0.018145	-0.027261	-0.000094
C71	C	0.315189	0.306072	0.333239
C72	C	0.648522	0.639405	0.666572
C73	C	-0.049432	0.016561	-0.000091
C74	C	0.283901	0.349895	0.333243
C75	C	0.617235	0.683228	0.666576
C76	C	-0.030307	0.060895	-0.000086
C77	C	0.303026	0.394228	0.333247
C78	C	0.636360	0.727561	0.666580
C79	C	0.007940	0.149568	-0.000084
C80	C	0.341273	0.482902	0.333250
C81	C	0.674606	0.816235	0.666583
C82	C	-0.042478	0.149053	-0.000089
C83	C	0.290855	0.482386	0.333244
C84	C	0.624189	0.815719	0.666577
C85	C	-0.061602	0.104716	-0.000093
C86	C	0.271731	0.438049	0.333240
C87	C	0.605064	0.771382	0.666574
C88	C	-0.112006	0.104206	-0.000084
C89	C	0.221327	0.437539	0.333250
C90	C	0.554661	0.770873	0.666583
N91	N	-0.131134	0.059872	-0.000092
N92	N	0.202200	0.393205	0.333241
N93	N	0.535533	0.726539	0.666574
C94	C	-0.099846	0.016049	-0.000096
C95	C	0.233487	0.349383	0.333237
C96	C	0.566820	0.682716	0.666571
C97	C	0.346763	0.108861	-0.000055
C98	C	0.680097	0.442194	0.333278
C99	C	1.013430	0.775528	0.666612
C100	C	0.397178	0.109373	-0.000050
C101	C	0.730511	0.442706	0.333284
C102	C	1.063845	0.776040	0.666617
C103	C	0.409338	0.021213	-0.000062
C104	C	0.742672	0.354546	0.333272
C105	C	1.076005	0.687879	0.666605
C106	C	0.358923	0.020701	-0.000063
C107	C	0.692256	0.354035	0.333270
C108	C	1.025589	0.687368	0.666604
C109	C	0.327636	0.064527	-0.000064
C110	C	0.660969	0.397860	0.333270
C111	C	0.994303	0.731194	0.666603
C112	C	-0.205716	0.014979	-0.000097
C113	C	0.127617	0.348313	0.333237
C114	C	0.460951	0.681646	0.666570
C115	C	-0.256133	0.014472	-0.000095
C116	C	0.077200	0.347806	0.333238
C117	C	0.410534	0.681139	0.666571
C118	C	-0.268289	0.102632	-0.000086
C119	C	0.065045	0.435966	0.333247
C120	C	0.398378	0.769299	0.666581
C121	C	-0.217876	0.103140	-0.000085
C122	C	0.115457	0.436473	0.333248
C123	C	0.448791	0.769806	0.666582
C124	C	-0.186590	0.059309	-0.000092
C125	C	0.146743	0.392643	0.333241
C126	C	0.480076	0.725976	0.666575
O127	O	-0.143287	0.141407	-0.000065
O128	O	0.190046	0.474741	0.333269
O129	O	0.523380	0.808074	0.666602
O130	O	-0.120752	-0.021701	-0.000110
O131	O	0.212581	0.311632	0.333224
O132	O	0.545914	0.644966	0.666557
C133	C	0.101804	0.018094	-0.000089
C134	C	0.435138	0.351428	0.333244
C135	C	0.768471	0.684761	0.666578
C136	C	0.120929	0.062428	-0.000085
C137	C	0.454263	0.395761	0.333249
C138	C	0.787596	0.729095	0.666582
C139	C	0.089642	0.106250	-0.000081
C140	C	0.422976	0.439584	0.333252
C141	C	0.756309	0.772917	0.666586
C142	C	0.171344	0.062940	-0.000079
C143	C	0.504677	0.396273	0.333254
C144	C	0.838011	0.729606	0.666587
C145	C	0.202631	0.019117	-0.000083
C146	C	0.535965	0.352451	0.333250
C147	C	0.869298	0.685784	0.666584
C148	C	0.183504	-0.025217	-0.000092
C149	C	0.516837	0.308116	0.333241
C150	C	0.850170	0.641450	0.666575
C151	C	0.133092	-0.025728	-0.000092
C152	C	0.466425	0.307605	0.333241
C153	C	0.799758	0.640939	0.666574
C154	C	0.108770	0.150585	-0.000072
C155	C	0.442103	0.483918	0.333261
C156	C	0.775437	0.817251	0.666594
C157	C	0.159183	0.151092	-0.000071
C158	C	0.492516	0.484426	0.333262
C159	C	0.825849	0.817759	0.666596
C160	C	0.190470	0.107270	-0.000075
C161	C	0.523803	0.440603	0.333259
C162	C	0.857136	0.773936	0.666592
C163	C	0.614862	-0.418948	-0.000071
C164	C	0.948196	-0.085615	0.333263
C165	C	1.281529	0.247718	0.666596
C166	C	0.612811	-0.620608	-0.000063
C167	C	0.946145	-0.287275	0.333270
C168	C	1.279478	0.046059	0.666603
O169	O	0.650032	-0.651862	-0.000047
O170	O	0.983365	-0.318528	0.333287
O171	O	1.316698	0.014805	0.666620
N172	N	0.568476	-0.639735	-0.000057
N173	N	0.901810	-0.306401	0.333276
N174	N	1.235143	0.026932	0.666610
C175	C	0.524651	-0.608442	-0.000049
C176	C	0.857985	-0.275109	0.333284
C177	C	1.191318	0.058224	0.666618
O178	O	0.486895	-0.629338	-0.000038
O179	O	0.820228	-0.296004	0.333295
O180	O	1.153561	0.037329	0.666628
C181	C	0.526703	-0.406784	-0.000053
C182	C	0.860036	-0.073450	0.333281
C183	C	1.193369	0.259883	0.666614
C184	C	0.571040	-0.387660	-0.000064
C185	C	0.904374	-0.054327	0.333269
C186	C	1.237707	0.279006	0.666602
C187	C	0.659196	-0.399824	-0.000082
C188	C	0.992530	-0.066491	0.333252
C189	C	1.325863	0.266842	0.666585
C190	C	0.659709	-0.349412	-0.000086
C191	C	0.993042	-0.016079	0.333247
C192	C	1.326375	0.317254	0.666580
C193	C	0.615887	-0.318124	-0.000080
C194	C	0.949220	0.015209	0.333253
C195	C	1.282553	0.348542	0.666587
C196	C	0.571553	-0.337248	-0.000069
C197	C	0.904886	-0.003915	0.333264
C198	C	1.238219	0.329418	0.666598
C199	C	0.482878	-0.375493	-0.000041
C200	C	0.816211	-0.042159	0.333292
C201	C	1.149545	0.291174	0.666625
C202	C	0.483395	-0.325075	-0.000041
C203	C	0.816728	0.008258	0.333292
C204	C	1.150062	0.341591	0.666626
C205	C	0.527733	-0.305952	-0.000053
C206	C	0.861066	0.027381	0.333281
C207	C	1.194399	0.360715	0.666614
C208	C	0.528243	-0.255548	-0.000067
C209	C	0.861576	0.077785	0.333266
C210	C	1.194910	0.411118	0.666599
N211	N	0.572578	-0.236422	-0.000074
N212	N	0.905911	0.096911	0.333260
N213	N	1.239245	0.430245	0.666593
C214	C	0.616400	-0.267710	-0.000080
C215	C	0.949733	0.065623	0.333253
C216	C	1.283066	0.398957	0.666587
C217	C	0.523577	-0.714317	-0.000048
C218	C	0.856911	-0.380983	0.333285
C219	C	1.190244	-0.047650	0.666619
C220	C	0.523064	-0.764731	-0.000048
C221	C	0.856398	-0.431398	0.333285
C222	C	1.189731	-0.098064	0.666619
C223	C	0.611225	-0.776893	-0.000061
C224	C	0.944558	-0.443560	0.333272
C225	C	1.277891	-0.110227	0.666605
C226	C	0.611737	-0.726478	-0.000065
C227	C	0.945070	-0.393145	0.333268
C228	C	1.278404	-0.059811	0.666602
C229	C	0.567912	-0.695190	-0.000054
C230	C	0.901245	-0.361857	0.333279
C231	C	1.234579	-0.028524	0.666612
C232	C	0.617472	-0.161841	-0.000090
C233	C	0.950806	0.171493	0.333243
C234	C	1.284139	0.504826	0.666576
C235	C	0.617981	-0.111424	-0.000097
C236	C	0.951314	0.221910	0.333236
C237	C	1.284647	0.555243	0.666570
C238	C	0.529821	-0.099266	-0.000081
C239	C	0.863154	0.234067	0.333252
C240	C	1.196487	0.567401	0.666586
C241	C	0.529312	-0.149679	-0.000077
C242	C	0.862645	0.183655	0.333256
C243	C	1.195979	0.516988	0.666590
C244	C	0.573142	-0.180965	-0.000080
C245	C	0.906475	0.152368	0.333254
C246	C	1.239808	0.485701	0.666587
O247	O	0.491043	-0.224267	-0.000078
O248	O	0.824376	0.109067	0.333255
O249	O	1.157709	0.442400	0.666589
O250	O	0.654151	-0.246805	-0.000080
O251	O	0.987484	0.086528	0.333254
O252	O	1.320818	0.419861	0.666587
C253	C	0.614350	-0.469360	-0.000066
C254	C	0.947683	-0.136027	0.333267
C255	C	1.281017	0.197306	0.666601
C256	C	0.570016	-0.488484	-0.000055
C257	C	0.903349	-0.155151	0.333278
C258	C	1.236683	0.178182	0.666612
C259	C	0.526194	-0.457196	-0.000049
C260	C	0.859527	-0.123863	0.333285
C261	C	1.192861	0.209470	0.666618
C262	C	0.569503	-0.538899	-0.000055
C263	C	0.902836	-0.205565	0.333278
C264	C	1.236170	0.127768	0.666612
C265	C	0.613325	-0.570187	-0.000061
C266	C	0.946658	-0.236853	0.333272
C267	C	1.279991	0.096480	0.666605
C268	C	0.657660	-0.551060	-0.000068
C269	C	0.990993	-0.217727	0.333266
C270	C	1.324326	0.115606	0.666599
C271	C	0.658172	-0.500648	-0.000072
C272	C	0.991505	-0.167315	0.333261
C273	C	1.324839	0.166018	0.666594
C274	C	0.481859	-0.476323	-0.000042
C275	C	0.815193	-0.142989	0.333291
C276	C	1.148526	0.190344	0.666624
C277	C	0.481351	-0.526735	-0.000038
C278	C	0.814684	-0.193402	0.333295
C279	C	1.148017	0.139932	0.666628
C280	C	0.525172	-0.558023	-0.000045
C281	C	0.858506	-0.224690	0.333289
C282	C	1.191839	0.108643	0.666622
C283	C	0.658925	0.057739	-0.000087
C284	C	0.992259	0.391072	0.333246
C285	C	1.325592	0.724405	0.666580
C286	C	0.712580	0.058295	-0.000092
C287	C	1.045913	0.391628	0.333242
C288	C	1.379247	0.724961	0.666575
C289	C	0.566333	0.150326	-0.000062
C290	C	0.899667	0.483659	0.333271
C291	C	1.233000	0.816993	0.666605
C292	C	0.566886	0.203981	-0.000054
C293	C	0.900219	0.537314	0.333279
C294	C	1.233553	0.870648	0.666612
N295	N	0.570493	0.061922	-0.120836
N296	N	0.903826	0.395256	0.212497
N297	N	1.237159	0.728589	0.545831
C298	C	0.599628	0.091035	-0.473350
C299	C	0.932961	0.424368	-0.140017
C300	C	1.266295	0.757702	0.193316
C301	C	0.599642	0.091035	-0.687009
C302	C	0.932976	0.424368	-0.353676
C303	C	1.266309	0.757701	-0.020342
O304	O	0.624403	0.115782	-0.714631
O305	O	0.957736	0.449115	-0.381298
O306	O	1.291070	0.782449	-0.047964
N307	N	0.570548	0.061918	-0.713730
N308	N	0.903881	0.395251	-0.380396
N309	N	1.237215	0.728584	-0.047063
C310	C	0.541450	0.032796	-0.687033
C311	C	0.874783	0.366130	-0.353700
C312	C	1.208117	0.699463	-0.020366
O313	O	0.516707	0.008027	-0.714663
O314	O	0.850041	0.341360	-0.381330
O315	O	1.183374	0.674693	-0.047997
C316	C	0.541439	0.032794	-0.473375
C317	C	0.874772	0.366128	-0.140042
C318	C	1.208105	0.699461	0.193291
C319	C	0.570531	0.061917	-0.446657
C320	C	0.903865	0.395250	-0.113324
C321	C	1.237198	0.728584	0.220010
C322	C	0.628719	0.120155	-0.446632
C323	C	0.962052	0.453488	-0.113299
C324	C	1.295385	0.786822	0.220035
C325	C	0.628713	0.120157	-0.393221
C326	C	0.962046	0.453490	-0.059887
C327	C	1.295380	0.786823	0.273446
C328	C	0.599616	0.091039	-0.366527
C329	C	0.932950	0.424372	-0.033194
C330	C	1.266283	0.757705	0.300139
C331	C	0.570526	0.061919	-0.393246
C332	C	0.903859	0.395252	-0.059912
C333	C	1.237192	0.728586	0.273421
C334	C	0.512344	0.003671	-0.446679
C335	C	0.845677	0.337004	-0.113346
C336	C	1.179011	0.670337	0.219987
C337	C	0.512345	0.003672	-0.393262
C338	C	0.845678	0.337005	-0.059928
C339	C	1.179011	0.670339	0.273405
C340	C	0.541437	0.032795	-0.366543
C341	C	0.874771	0.366128	-0.033210
C342	C	1.208104	0.699461	0.300123
C343	C	0.541423	0.032803	-0.313141
C344	C	0.874756	0.366136	0.020192
C345	C	1.208090	0.699469	0.353526
N346	N	0.570518	0.061920	-0.286420
N347	N	0.903851	0.395253	0.046913
N348	N	1.237184	0.728586	0.380247
C349	C	0.599614	0.091038	-0.313113
C350	C	0.932948	0.424371	0.020220
C351	C	1.266281	0.757704	0.353553
C352	C	0.541457	0.032800	-0.799206
C353	C	0.874791	0.366133	-0.465873
C354	C	1.208124	0.699467	-0.132540
C355	C	0.541459	0.032801	-0.852620
C356	C	0.874793	0.366134	-0.519287
C357	C	1.208126	0.699468	-0.185954
C358	C	0.599653	0.091039	-0.852593
C359	C	0.932986	0.424372	-0.519259
C360	C	1.266319	0.757705	-0.185926
C361	C	0.599648	0.091040	-0.799178
C362	C	0.932981	0.424373	-0.465844
C363	C	1.266314	0.757707	-0.132511
C364	C	0.570552	0.061917	-0.772485
C365	C	0.903885	0.395250	-0.439152
C366	C	1.237219	0.728584	-0.105819
C367	C	0.599599	0.091040	-0.200945
C368	C	0.932933	0.424373	0.132388
C369	C	1.266266	0.757706	0.465721
C370	C	0.599589	0.091040	-0.147529
C371	C	0.932923	0.424374	0.185804
C372	C	1.266256	0.757707	0.519138
C373	C	0.541398	0.032801	-0.147562
C374	C	0.874732	0.366134	0.185772
C375	C	1.208065	0.699467	0.519105
C376	C	0.541406	0.032802	-0.200973
C377	C	0.874740	0.366135	0.132360
C378	C	1.208073	0.699468	0.465694
C379	C	0.570511	0.061923	-0.227664
C380	C	0.903844	0.395256	0.105670
C381	C	1.237177	0.728589	0.439003
O382	O	0.516679	0.008064	-0.285486
O383	O	0.850013	0.341397	0.047847
O384	O	1.183346	0.674731	0.381181
O385	O	0.624361	0.115795	-0.285474
O386	O	0.957695	0.449129	0.047860
O387	O	1.291028	0.782462	0.381193
C388	C	0.599634	0.091033	-0.526762
C389	C	0.932967	0.424367	-0.193428
C390	C	1.266301	0.757700	0.139905
C391	C	0.570543	0.061913	-0.553480
C392	C	0.903876	0.395247	-0.220147
C393	C	1.237210	0.728580	0.113187
C394	C	0.541447	0.032795	-0.526787
C395	C	0.874780	0.366129	-0.193453
C396	C	1.208113	0.699462	0.139880
C397	C	0.570545	0.061914	-0.606894
C398	C	0.903879	0.395248	-0.273561
C399	C	1.237212	0.728581	0.059773
C400	C	0.599642	0.091032	-0.633587
C401	C	0.932975	0.424366	-0.300254
C402	C	1.266309	0.757699	0.033079
C403	C	0.628736	0.120150	-0.606866
C404	C	0.962070	0.453483	-0.273533
C405	C	1.295403	0.786816	0.059800
C406	C	0.628731	0.120151	-0.553455
C407	C	0.962064	0.453485	-0.220122
C408	C	1.295397	0.786818	0.113212
C409	C	0.512352	0.003678	-0.553508
C410	C	0.845685	0.337012	-0.220174
C411	C	1.179019	0.670345	0.113159
C412	C	0.512360	0.003679	-0.606919
C413	C	0.845693	0.337013	-0.273586
C414	C	1.179026	0.670346	0.059747
C415	C	0.541456	0.032797	-0.633612
C416	C	0.874790	0.366131	-0.300279
C417	C	1.208123	0.699464	0.033054
N418	N	0.570556	0.061919	0.120686
N419	N	0.903889	0.395252	0.454020
N420	N	1.237223	0.728586	0.787353
H421	H	-0.271701	-0.021634	-0.000097
H422	H	0.061632	0.311699	0.333236
H423	H	0.394966	0.645033	0.666570
H424	H	0.653163	-0.187309	-0.000091
H425	H	0.986496	0.146024	0.333243
H426	H	1.319829	0.479358	0.666576
H427	H	0.694883	-0.425295	-0.000085
H428	H	1.028217	-0.091962	0.333248
H429	H	1.361550	0.241372	0.666582
N430	N	0.178706	0.196389	-0.000061
N431	N	0.512039	0.529723	0.333272
N432	N	0.845373	0.863056	0.666605
N433	N	0.150760	0.235511	-0.000058
N434	N	0.484093	0.568844	0.333275
N435	N	0.817426	0.902178	0.666608
H436	H	0.164546	0.267502	-0.000055
H437	H	0.497879	0.600835	0.333279
H438	H	0.831213	0.934168	0.666612
H439	H	-0.293772	0.138311	-0.000081
H440	H	0.039562	0.471645	0.333253
H441	H	0.372895	0.804978	0.666586
N442	N	0.438632	-0.293110	-0.000038
N443	N	0.771965	0.040224	0.333296
N444	N	1.105298	0.373557	0.666629
N445	N	0.439091	-0.248097	-0.000043
N446	N	0.772424	0.085236	0.333290
N447	N	1.105758	0.418569	0.666624
H448	H	0.407478	-0.225522	-0.000043
H449	H	0.740811	0.107812	0.333291
H450	H	1.074144	0.441145	0.666624
H451	H	0.057737	-0.062438	-0.000098
H452	H	0.391070	0.270896	0.333235
H453	H	0.724404	0.604229	0.666568
N454	N	0.511731	0.003058	-0.879901
N455	N	0.845064	0.336392	-0.546568
N456	N	1.178397	0.669725	-0.213234
N457	N	0.485755	-0.022936	-0.856055
N458	N	0.819088	0.310397	-0.522722
N459	N	1.152422	0.643731	-0.189388
H460	H	0.464759	-0.043944	-0.875320
H461	H	0.798092	0.289389	-0.541987
H462	H	1.131426	0.622722	-0.208653
N463	N	-0.173770	-0.029796	-0.000108
N464	N	0.159563	0.303537	0.333226
N465	N	0.492896	0.636871	0.666559
N466	N	-0.190861	-0.069373	-0.000112
N467	N	0.142472	0.263960	0.333221
N468	N	0.475806	0.597294	0.666554
H469	H	-0.168300	-0.100996	-0.000118
H470	H	0.165033	0.232337	0.333215
H471	H	0.498367	0.565671	0.666548
H472	H	0.494142	-0.073782	-0.000078
H473	H	0.827476	0.259551	0.333256
H474	H	1.160809	0.592884	0.666589
H475	H	0.652421	0.143866	-0.531706
H476	H	0.985754	0.477199	-0.198372
H477	H	1.319087	0.810533	0.134961
N478	N	0.339398	-0.024592	-0.000066
N479	N	0.672731	0.308742	0.333267
N480	N	1.006064	0.642075	0.666601
N481	N	0.367344	-0.063713	-0.000066
N482	N	0.700677	0.269620	0.333267
N483	N	1.034011	0.602953	0.666601
H484	H	0.353558	-0.095704	-0.000069
H485	H	0.686891	0.237629	0.333265
H486	H	1.020224	0.570963	0.666598
H487	H	0.517763	0.009083	-0.777478
H488	H	0.851096	0.342416	-0.444145
H489	H	1.184430	0.675750	-0.110812
N490	N	0.113562	-0.071018	-0.000112
N491	N	0.446895	0.262315	0.333221
N492	N	0.780228	0.595648	0.666554
N493	N	0.086789	-0.081143	-0.035889
N494	N	0.420122	0.252190	0.297445
N495	N	0.753456	0.585523	0.630778
H496	H	0.072999	-0.113132	-0.035905
H497	H	0.406332	0.220201	0.297428
H498	H	0.739666	0.553534	0.630761
N499	N	0.215475	-0.069977	-0.000091
N500	N	0.548808	0.263357	0.333242
N501	N	0.882142	0.596690	0.666576
N502	N	0.260486	-0.069507	-0.000089
N503	N	0.593819	0.263826	0.333244
N504	N	0.927152	0.597160	0.666577
H505	H	0.283068	-0.101116	-0.000091
H506	H	0.616401	0.232217	0.333243
H507	H	0.949735	0.565550	0.666576
N508	N	-0.074442	0.193817	-0.000083
N509	N	0.258891	0.527150	0.333250
N510	N	0.592224	0.860483	0.666584
N511	N	-0.119455	0.193358	-0.000083
N512	N	0.213879	0.526691	0.333250
N513	N	0.547212	0.860025	0.666584
H514	H	-0.142030	0.224972	-0.000077
H515	H	0.191303	0.558305	0.333256
H516	H	0.524637	0.891639	0.666590
N517	N	0.657031	-0.706954	-0.000079
N518	N	0.990364	-0.373621	0.333254
N519	N	1.323697	-0.040287	0.666587
N520	N	0.696152	-0.734901	-0.000089
N521	N	1.029485	-0.401568	0.333245
N522	N	1.362818	-0.068235	0.666578
H523	H	0.728143	-0.721116	-0.000099
H524	H	1.061476	-0.387782	0.333235
H525	H	1.394810	-0.054449	0.666568
N526	N	0.511687	0.003064	-0.228278
N527	N	0.845021	0.336397	0.105055
N528	N	1.178354	0.669730	0.438389
N529	N	0.479594	0.022155	-0.258094
N530	N	0.812927	0.355488	0.075239
N531	N	1.146261	0.688821	0.408573
H532	H	0.458608	0.001149	-0.277377
H533	H	0.791941	0.334483	0.055957
H534	H	1.125275	0.667816	0.389290
H535	H	0.083300	0.186271	-0.000070
H536	H	0.416634	0.519604	0.333263
H537	H	0.749967	0.852938	0.666597
H538	H	0.493209	-0.165249	-0.000082
H539	H	0.826542	0.168084	0.333252
H540	H	1.159875	0.501417	0.666585
H541	H	0.434821	-0.014469	-0.000063
H542	H	0.768154	0.318864	0.333271
H543	H	1.101488	0.652197	0.666604
H544	H	-0.033711	-0.063365	-0.000099
H545	H	0.299623	0.269968	0.333234
H546	H	0.632956	0.603302	0.666567
H547	H	0.694276	-0.485083	-0.000082
H548	H	1.027609	-0.151750	0.333252
H549	H	1.360943	0.181583	0.666585
N550	N	0.629325	0.120795	-0.228195
N551	N	0.962658	0.454128	0.105138
N552	N	1.295992	0.787461	0.438471
N553	N	0.623193	0.165882	-0.222215
N554	N	0.956527	0.499216	0.111119
N555	N	1.289860	0.832549	0.444452
H556	H	0.644185	0.186900	-0.241459
H557	H	0.977518	0.520233	0.091874
H558	H	1.310851	0.853567	0.425208
N559	N	0.705003	-0.329891	-0.000096
N560	N	1.038337	0.003443	0.333237
N561	N	1.371670	0.336776	0.666571
N562	N	0.744123	-0.357840	-0.000100
N563	N	1.077456	-0.024506	0.333234
N564	N	1.410790	0.308827	0.666567
H565	H	0.776115	-0.344056	-0.000105
H566	H	1.109448	-0.010723	0.333228
H567	H	1.442782	0.322611	0.666562
N568	N	0.655993	-0.808852	-0.000059
N569	N	0.989326	-0.475518	0.333275
N570	N	1.322659	-0.142185	0.666608
N571	N	0.695578	-0.791776	-0.000058
N572	N	1.028911	-0.458443	0.333275
N573	N	1.362245	-0.125109	0.666608
H574	H	0.727194	-0.814347	-0.000052
H575	H	1.060527	-0.481014	0.333281
H576	H	1.393861	-0.147681	0.666614
H577	H	0.693341	-0.576544	-0.000075
H578	H	1.026674	-0.243211	0.333258
H579	H	1.360008	0.090123	0.666591
H580	H	0.654087	-0.095857	-0.000108
H581	H	0.987421	0.237477	0.333226
H582	H	1.320754	0.570810	0.666559
H583	H	0.652426	0.143861	-0.628609
H584	H	0.985759	0.477194	-0.295276
H585	H	1.319092	0.810528	0.038057
H586	H	0.023501	0.185672	-0.000079
H587	H	0.356835	0.519006	0.333255
H588	H	0.690168	0.852339	0.666588
H589	H	0.487888	-0.688846	-0.000040
H590	H	0.821221	-0.355513	0.333294
H591	H	1.154554	-0.022179	0.666627
N592	N	0.436053	-0.546257	-0.000033
N593	N	0.769386	-0.212924	0.333301
N594	N	1.102719	0.120409	0.666634
N595	N	0.396932	-0.518310	-0.000026
N596	N	0.730265	-0.184977	0.333307
N597	N	1.063598	0.148356	0.666640
H598	H	0.364941	-0.532096	-0.000019
H599	H	0.698274	-0.198763	0.333314
H600	H	1.031607	0.134571	0.666648
N601	N	-0.198331	0.148424	-0.000072
N602	N	0.135002	0.481758	0.333261
N603	N	0.468336	0.815091	0.666595
N604	N	-0.171549	0.158548	0.035697
N605	N	0.161784	0.491881	0.369030
N606	N	0.495118	0.825214	0.702363
H607	H	-0.157748	0.190531	0.035702
H608	H	0.175585	0.523864	0.369036
H609	H	0.508919	0.857197	0.702369
H610	H	0.486960	-0.780296	-0.000047
H611	H	0.820293	-0.446963	0.333286
H612	H	1.153627	-0.113630	0.666619
H613	H	0.517707	0.009095	-0.125818
H614	H	0.851041	0.342428	0.207515
H615	H	1.184374	0.675762	0.540848
N616	N	0.437089	-0.444374	-0.000034
N617	N	0.770423	-0.111040	0.333299
N618	N	1.103756	0.222293	0.666632
N619	N	0.397511	-0.461463	-0.000028
N620	N	0.730845	-0.128129	0.333305
N621	N	1.064178	0.205204	0.666639
H622	H	0.365889	-0.438900	-0.000025
H623	H	0.699222	-0.105567	0.333309
H624	H	1.032556	0.227766	0.666642
N625	N	0.437583	-0.395010	-0.000028
N626	N	0.770916	-0.061677	0.333305
N627	N	1.104250	0.271657	0.666638
N628	N	0.398464	-0.367060	-0.000017
N629	N	0.731798	-0.033726	0.333316
N630	N	1.065131	0.299607	0.666650
H631	H	0.366471	-0.380842	-0.000006
H632	H	0.699805	-0.047509	0.333327
H633	H	1.033138	0.285824	0.666660
H634	H	0.623280	0.114758	-0.125778
H635	H	0.956613	0.448091	0.207556
H636	H	1.289947	0.781424	0.540889
H637	H	0.652405	0.143869	-0.371471
H638	H	0.985739	0.477203	-0.038138
H639	H	1.319072	0.810536	0.295195
N640	N	0.416702	0.154667	-0.000035
N641	N	0.750035	0.488000	0.333299
N642	N	1.083369	0.821333	0.666632
N643	N	0.388756	0.193788	-0.000031
N644	N	0.722089	0.527121	0.333302
N645	N	1.055422	0.860455	0.666635
H646	H	0.402542	0.225779	-0.000023
H647	H	0.735875	0.559112	0.333311
H648	H	1.069209	0.892446	0.666644
N649	N	0.658448	0.149901	-0.473885
N650	N	0.991782	0.483235	-0.140552
N651	N	1.325115	0.816568	0.192782
N652	N	0.684419	0.175895	-0.450013
N653	N	1.017752	0.509228	-0.116680
N654	N	1.351085	0.842562	0.216654
H655	H	0.705415	0.196908	-0.469257
H656	H	1.038749	0.530241	-0.135923
H657	H	1.372082	0.863575	0.197410
N658	N	0.629371	0.120787	-0.771896
N659	N	0.962705	0.454120	-0.438563
N660	N	1.296038	0.787454	-0.105229
N661	N	0.655348	0.146781	-0.795742
N662	N	0.988681	0.480114	-0.462409
N663	N	1.322014	0.813447	-0.129075
H664	H	0.676344	0.167789	-0.776477
H665	H	1.009677	0.501122	-0.443144
H666	H	1.343010	0.834456	-0.109810
N667	N	0.314815	0.153636	-0.000057
N668	N	0.648148	0.486969	0.333277
N669	N	0.981482	0.820302	0.666610
N670	N	0.331906	0.193213	-0.000048
N671	N	0.665239	0.526546	0.333285
N672	N	0.998573	0.859880	0.666618
H673	H	0.309345	0.224836	-0.000048
H674	H	0.642678	0.558169	0.333285
H675	H	0.976011	0.891502	0.666619
N676	N	0.629366	0.120785	-0.879872
N677	N	0.962700	0.454119	-0.546539
N678	N	1.296033	0.787452	-0.213206
N679	N	0.629358	0.120780	-0.927563
N680	N	0.962692	0.454113	-0.594230
N681	N	1.296025	0.787447	-0.260896
H682	H	0.650343	0.141786	-0.946832
H683	H	0.983676	0.475120	-0.613499
H684	H	1.317010	0.808453	-0.280165
H685	H	0.488654	-0.020045	-0.468424
H686	H	0.821987	0.313289	-0.135091
H687	H	1.155321	0.646622	0.198243
H688	H	0.488651	-0.020045	-0.371531
H689	H	0.821984	0.313289	-0.038198
H690	H	1.155318	0.646622	0.295135
H691	H	0.488664	-0.020035	-0.628669
H692	H	0.821998	0.313299	-0.295335
H693	H	1.155331	0.646632	0.037998
N694	N	0.482631	-0.026070	-0.526247
N695	N	0.815964	0.307263	-0.192914
N696	N	1.149298	0.640597	0.140419
N697	N	0.488753	-0.071159	-0.532221
N698	N	0.822086	0.262175	-0.198888
N699	N	1.155419	0.595508	0.134445
H700	H	0.467758	-0.092169	-0.512971
H701	H	0.801091	0.241165	-0.179638
H702	H	1.134425	0.574498	0.153696
