data_functionalizedCrystal
_audit_creation_method	'MofGen! by Chris Wilmer'
_symmetry_space_group_name_H-M	'P1'
_symmetry_Int_Tables_number	1
_symmetry_cell_setting	triclinic
loop_
_symmetry_equiv_pos_as_xyz
  x,y,z
_cell_length_a	10.489741
_cell_length_b	10.489741
_cell_length_c	9.798715
_cell_angle_alpha	89.997135
_cell_angle_beta	89.998999
_cell_angle_gamma	84.539174
loop_
_atom_site_label
_atom_site_type_symbol
_atom_site_fract_x
_atom_site_fract_y
_atom_site_fract_z
O1	O	1.694053	0.179965	-0.113406
O2	O	1.322857	0.196858	-0.113427
O3	O	1.516901	0.002814	-0.113408
O4	O	1.500008	0.374009	-0.113425
O5	O	1.516887	0.002813	0.113574
O6	O	1.322842	0.196857	0.113555
O7	O	1.694038	0.179965	0.113576
Zn8	Zn	1.508438	0.188411	0.149604
Zn9	Zn	1.508457	0.188412	-0.149455
O10	O	1.499994	0.374009	0.113557
C11	C	1.275318	0.195582	0.000061
C12	C	1.133688	0.191765	0.000054
C13	C	1.065548	0.068300	0.000072
C14	C	0.973429	0.126624	-0.111842
C15	C	0.973448	0.126653	0.111945
C16	C	1.043434	0.250139	-0.111953
C17	C	1.043463	0.250151	0.111934
C18	C	0.951371	0.308564	-0.000007
C19	C	1.515618	-0.044718	0.000082
C20	C	1.511801	-0.186348	0.000080
C21	C	1.388336	-0.254488	0.000063
C22	C	1.446652	-0.346611	0.111980
C23	C	1.446696	-0.346585	-0.111807
C24	C	1.570168	-0.276605	0.112089
C25	C	1.570194	-0.276570	-0.111798
C26	C	1.628600	-0.368665	0.000147
C27	C	1.741577	0.181241	0.000085
C28	C	1.883206	0.185058	0.000084
C29	C	1.501277	0.421541	0.000064
C30	C	1.505094	0.563170	0.000058
N31	N	1.508434	0.188410	0.353704
N32	N	1.508471	0.188403	-0.353554
C33	C	1.589908	0.106577	0.421489
C34	C	1.589928	0.106572	0.578651
H35	H	1.074268	0.302339	-0.206674
O36	O	1.682287	0.013756	0.344270
H37	H	1.664846	-0.085785	0.371637
O38	O	1.253882	-0.188700	0.000194
H39	H	1.202933	-0.216572	0.093236
O40	O	1.682338	0.013776	0.655861
H41	H	1.742013	-0.046157	0.582285
O42	O	1.639345	-0.235425	-0.237120
H43	H	1.587906	-0.263145	-0.329892
O44	O	1.131266	-0.066184	-0.000015
H45	H	1.103371	-0.117137	-0.093038
O46	O	0.932329	0.057434	-0.237159
H47	H	0.978467	-0.042282	-0.236926
O48	O	0.885910	0.443151	-0.000066
H49	H	0.913954	0.494081	-0.093052
O50	O	1.416053	0.281195	0.569241
H51	H	1.470541	0.343488	0.504112
O52	O	1.084614	0.319287	0.237256
H53	H	1.056895	0.267840	0.330029
O54	O	0.932412	0.057444	0.237287
H55	H	0.978581	-0.042259	0.237046
O56	O	1.416060	0.281234	0.430924
H57	H	1.353468	0.227079	0.496051
H58	H	1.394406	-0.377622	0.206592
H59	H	1.622357	-0.245773	0.206813
H60	H	1.730204	-0.418089	0.000215
O61	O	1.377493	-0.387623	-0.237144
H62	H	1.277789	-0.341456	-0.236903
