data_functionalizedCrystal
_audit_creation_method	'MofGen! by Chris Wilmer'
_symmetry_space_group_name_H-M	'P1'
_symmetry_Int_Tables_number	1
_symmetry_cell_setting	triclinic
loop_
_symmetry_equiv_pos_as_xyz
  x,y,z
_cell_length_a	17.077404
_cell_length_b	15.297327
_cell_length_c	17.077396
_cell_angle_alpha	99.646061
_cell_angle_beta	89.982756
_cell_angle_gamma	99.707136
loop_
_atom_site_label
_atom_site_type_symbol
_atom_site_fract_x
_atom_site_fract_y
_atom_site_fract_z
Zn1	Zn	1.145934	-0.359152	-0.497893
Zn2	Zn	1.479268	-0.025819	-0.164560
Zn3	Zn	1.812601	0.307514	0.168773
Zn4	Zn	1.123118	-0.510028	-0.389334
Zn5	Zn	1.456452	-0.176695	-0.056000
Zn6	Zn	1.789785	0.156638	0.277333
Zn7	Zn	1.014666	-0.359186	-0.366647
Zn8	Zn	1.347999	-0.025853	-0.033313
Zn9	Zn	1.681333	0.307480	0.300020
Zn10	Zn	0.991914	-0.509973	-0.520549
Zn11	Zn	1.325248	-0.176639	-0.187216
Zn12	Zn	1.658581	0.156694	0.146118
O13	O	1.068908	-0.434585	-0.443606
O14	O	1.402242	-0.101252	-0.110272
O15	O	1.735575	0.232082	0.223061
O16	O	1.252753	-0.379176	-0.483506
O17	O	1.586087	-0.045842	-0.150173
O18	O	1.919420	0.287491	0.183161
O19	O	1.108705	-0.490056	-0.276483
O20	O	1.442039	-0.156723	0.056851
O21	O	1.775372	0.176610	0.390184
O22	O	1.051149	-0.232935	-0.365081
O23	O	1.384483	0.100399	-0.031747
O24	O	1.717816	0.433732	0.301586
O25	O	1.235991	-0.490024	-0.403748
O26	O	1.569324	-0.156690	-0.070414
O27	O	1.902657	0.176643	0.262919
O28	O	1.147591	-0.232910	-0.461507
O29	O	1.480925	0.100423	-0.128174
O30	O	1.814258	0.433757	0.205159
O31	O	1.029026	-0.379233	-0.259815
O32	O	1.362359	-0.045900	0.073519
O33	O	1.695692	0.287433	0.406852
O34	O	0.901803	-0.379179	-0.387049
O35	O	1.235136	-0.045846	-0.053715
O36	O	1.568469	0.287487	0.279618
O37	O	1.012372	-0.489929	-0.627385
O38	O	1.345706	-0.156595	-0.294052
O39	O	1.679039	0.176738	0.039282
O40	O	0.885087	-0.489961	-0.500120
O41	O	1.218420	-0.156628	-0.166787
O42	O	1.551754	0.176705	0.166547
O43	O	1.125530	-0.379121	-0.610740
O44	O	1.458863	-0.045788	-0.277407
O45	O	1.792197	0.287545	0.055927
O46	O	1.086644	-0.636268	-0.425716
O47	O	1.419977	-0.302935	-0.092382
O48	O	1.753310	0.030399	0.240951
O49	O	0.990249	-0.636227	-0.522119
O50	O	1.323582	-0.302894	-0.188786
O51	O	1.656915	0.030440	0.144548
C52	C	0.864963	-0.434569	-0.443581
C53	C	1.198296	-0.101235	-0.110248
C54	C	1.531630	0.232098	0.223085
C55	C	0.777711	-0.434583	-0.443593
C56	C	1.111044	-0.101250	-0.110260
C57	C	1.444378	0.232083	0.223074
C58	C	1.033523	-0.668982	-0.478855
C59	C	1.366856	-0.335649	-0.145521
C60	C	1.700190	-0.002315	0.187812
C61	C	1.018457	-0.769258	-0.493961
C62	C	1.351790	-0.435925	-0.160627
C63	C	1.685123	-0.102591	0.172706
C64	C	0.728024	-0.492355	-0.502402
C65	C	1.061358	-0.159021	-0.169069
C66	C	1.394691	0.174312	0.164265
C67	C	0.646044	-0.492357	-0.502415
C68	C	0.979377	-0.159023	-0.169081
C69	C	1.312710	0.174310	0.164252
C70	C	0.613750	-0.434591	-0.443615
C71	C	0.947084	-0.101258	-0.110281
C72	C	1.280417	0.232076	0.223052
C73	C	0.663444	-0.376813	-0.384803
C74	C	0.996777	-0.043480	-0.051469
C75	C	1.330110	0.289853	0.281864
C76	C	0.745423	-0.376808	-0.384794
C77	C	1.078757	-0.043474	-0.051461
C78	C	1.412090	0.289859	0.281873
C79	C	0.492571	-0.376831	-0.384824
C80	C	0.825904	-0.043498	-0.051491
C81	C	1.159238	0.289836	0.281842
C82	C	0.410585	-0.376838	-0.384832
C83	C	0.743919	-0.043505	-0.051499
C84	C	1.077252	0.289829	0.281835
C85	C	0.393191	-0.492380	-0.502445
C86	C	0.726524	-0.159047	-0.169112
C87	C	1.059858	0.174286	0.164221
C88	C	0.475171	-0.492374	-0.502436
C89	C	0.808504	-0.159041	-0.169103
C90	C	1.141838	0.174292	0.164230
C91	C	0.524858	-0.434598	-0.443623
C92	C	0.858192	-0.101264	-0.110290
C93	C	1.191525	0.232069	0.223043
C94	C	1.176913	-1.051879	-0.335909
C95	C	1.510246	-0.718546	-0.002576
C96	C	1.843579	-0.385213	0.330758
C97	C	1.191068	-0.957665	-0.321712
C98	C	1.524401	-0.624332	0.011621
C99	C	1.857734	-0.290998	0.344954
C100	C	1.147916	-0.910559	-0.364773
C101	C	1.481250	-0.577225	-0.031440
C102	C	1.814583	-0.243892	0.301893
C103	C	1.090607	-0.957676	-0.422033
C104	C	1.423940	-0.624343	-0.088700
C105	C	1.757274	-0.291009	0.244633
C106	C	1.076446	-1.051899	-0.436227
C107	C	1.409780	-0.718566	-0.102894
C108	C	1.743113	-0.385233	0.230440
C109	C	1.047450	-0.910579	-0.465091
C110	C	1.380783	-0.577245	-0.131758
C111	C	1.714117	-0.243912	0.201576
C112	C	0.990141	-0.957696	-0.522351
C113	C	1.323474	-0.624363	-0.189018
C114	C	1.656807	-0.291029	0.144316
C115	C	0.975983	-1.051910	-0.536543
C116	C	1.309316	-0.718577	-0.203209
C117	C	1.642650	-0.385243	0.130124
C118	C	1.019134	-1.099017	-0.493482
C119	C	1.352467	-0.765683	-0.160148
C120	C	1.685801	-0.432350	0.173185
C121	C	1.061611	-0.816355	-0.450897
C122	C	1.394944	-0.483022	-0.117564
C123	C	1.728278	-0.149688	0.215769
C124	C	0.961145	-0.816375	-0.551215
C125	C	1.294478	-0.483042	-0.217882
C126	C	1.627811	-0.149708	0.115451
C127	C	0.946990	-0.910589	-0.565412
C128	C	1.280323	-0.577256	-0.232079
C129	C	1.613656	-0.243923	0.101255
C130	C	1.273650	-0.434602	-0.443630
C131	C	1.606983	-0.101269	-0.110297
C132	C	1.940317	0.232065	0.223036
C133	C	1.360899	-0.434609	-0.443641
C134	C	1.694232	-0.101276	-0.110308
C135	C	2.027565	0.232057	0.223026
C136	C	1.068958	-0.434515	-0.648339
C137	C	1.402292	-0.101182	-0.315006
C138	C	1.735625	0.232152	0.018327
C139	C	1.068980	-0.434485	-0.735585
C140	C	1.402313	-0.101152	-0.402252
C141	C	1.735646	0.232181	-0.068918
C142	C	1.104453	-0.199273	-0.408236
C143	C	1.437787	0.134061	-0.074903
C144	C	1.771120	0.467394	0.258430
C145	C	1.119601	-0.098997	-0.393164
C146	C	1.452934	0.234337	-0.059830
C147	C	1.786267	0.567670	0.273503
C148	C	1.027507	-0.376773	-0.767894
C149	C	1.360840	-0.043439	-0.434561
C150	C	1.694173	0.289894	-0.101228
C151	C	1.027523	-0.376752	-0.849872
C152	C	1.360856	-0.043419	-0.516538
C153	C	1.694189	0.289914	-0.183205
C154	C	1.069016	-0.434440	-0.899538
C155	C	1.402350	-0.101107	-0.566204
C156	C	1.735683	0.232226	-0.232871
C157	C	1.110490	-0.492159	-0.867223
C158	C	1.443824	-0.158826	-0.533890
C159	C	1.777157	0.174507	-0.200557
C160	C	1.110469	-0.492184	-0.785248
C161	C	1.443803	-0.158850	-0.451915
C162	C	1.777136	0.174483	-0.118581
C163	C	1.110533	-0.492103	-1.038085
C164	C	1.443866	-0.158770	-0.704752
C165	C	1.777200	0.174564	-0.371418
C166	C	1.110555	-0.492078	-1.120066
C167	C	1.443889	-0.158744	-0.786733
C168	C	1.777222	0.174589	-0.453399
C169	C	1.027586	-0.376671	-1.102709
C170	C	1.360920	-0.043338	-0.769375
C171	C	1.694253	0.289995	-0.436042
C172	C	1.027565	-0.376696	-1.020733
C173	C	1.360899	-0.043363	-0.687400
C174	C	1.694232	0.289971	-0.354067
C175	C	1.069041	-0.434414	-0.988425
C176	C	1.402374	-0.101080	-0.655091
C177	C	1.735707	0.232253	-0.321758
C178	C	1.068914	-0.434589	-0.239658
C179	C	1.402247	-0.101256	0.093675
C180	C	1.735580	0.232077	0.427008
C181	C	1.069083	-0.434365	-0.152375
C182	C	1.402416	-0.101032	0.180958
C183	C	1.735749	0.232302	0.514291
H184	H	0.754310	-0.539397	-0.550282
H185	H	1.087644	-0.206064	-0.216948
H186	H	1.420977	0.127269	0.116385
H187	H	0.785879	-0.329759	-0.336909
H188	H	1.119212	0.003574	-0.003576
H189	H	1.452545	0.336907	0.329758
Br190	Br	0.971260	-0.298395	-0.953328
Br191	Br	1.304594	0.034938	-0.619995
Br192	Br	1.637927	0.368271	-0.286661
H193	H	1.007614	-1.175734	-0.505040
H194	H	1.340947	-0.842400	-0.171706
H195	H	1.674281	-0.509067	0.161627
Br196	Br	1.139384	-0.752422	-0.373189
Br197	Br	1.472717	-0.419088	-0.039855
Br198	Br	1.806050	-0.085755	0.293478
H199	H	1.159444	-0.833845	-0.353210
H200	H	1.492778	-0.500512	-0.019877
H201	H	1.826111	-0.167178	0.313457
H202	H	0.605591	-0.539401	-0.550302
H203	H	0.938925	-0.206067	-0.216969
H204	H	1.272258	0.127266	0.116364
Br205	Br	0.518996	-0.570780	-0.582231
Br206	Br	0.852330	-0.237447	-0.248897
Br207	Br	1.185663	0.095887	0.084436
H208	H	1.144271	-0.539135	-0.907669
H209	H	1.477604	-0.205801	-0.574335
H210	H	1.810937	0.127532	-0.241002
H211	H	0.993817	-0.329674	-1.129018
H212	H	1.327150	0.003659	-0.795685
H213	H	1.660483	0.336992	-0.462351
H214	H	1.237727	-0.919306	-0.275091
H215	H	1.571061	-0.585972	0.058242
H216	H	1.904394	-0.252639	0.391575
H217	H	1.144315	-0.539095	-1.011782
H218	H	1.477648	-0.205762	-0.678448
H219	H	1.810981	0.127571	-0.345115
Br220	Br	1.166749	-0.570518	-0.741400
Br221	Br	1.500082	-0.237184	-0.408066
Br222	Br	1.833416	0.096149	-0.074733
Br223	Br	1.166878	-0.570361	-1.187469
Br224	Br	1.500211	-0.237028	-0.854135
Br225	Br	1.833544	0.096306	-0.520802
Br226	Br	1.235464	-1.115812	-0.277473
Br227	Br	1.568797	-0.782479	0.055861
Br228	Br	1.902131	-0.449145	0.389194
H229	H	0.352732	-0.539422	-0.550335
H230	H	0.686065	-0.206088	-0.217002
H231	H	1.019398	0.127245	0.116332
H232	H	0.384297	-0.329789	-0.336960
H233	H	0.717630	0.003544	-0.003626
H234	H	1.050963	0.336877	0.329707
H235	H	0.993748	-0.329760	-0.876174
H236	H	1.327081	0.003573	-0.542841
H237	H	1.660415	0.336906	-0.209507
Br238	Br	0.898201	-1.115854	-0.614247
Br239	Br	1.231534	-0.782520	-0.280914
Br240	Br	1.564867	-0.449187	0.052420
H241	H	0.993723	-0.329791	-0.727460
H242	H	1.327056	0.003542	-0.394127
H243	H	1.660390	0.336876	-0.060794
Br244	Br	0.902571	-0.752453	-0.609651
Br245	Br	1.235904	-0.419120	-0.276318
Br246	Br	1.569237	-0.085787	0.057015
Br247	Br	0.619619	-0.298408	-0.305008
Br248	Br	0.952953	0.034926	0.028326
Br249	Br	1.286286	0.368259	0.361659
Br250	Br	0.560004	-0.298417	-0.305007
Br251	Br	0.893337	0.034916	0.028326
Br252	Br	1.226671	0.368250	0.361659
H253	H	0.900327	-0.948966	-0.612033
H254	H	1.233661	-0.615632	-0.278700
H255	H	1.566994	-0.282299	0.054633
