data_functionalizedCrystal
_audit_creation_method	'MofGen! by Chris Wilmer'
_symmetry_space_group_name_H-M	'P1'
_symmetry_Int_Tables_number	1
_symmetry_cell_setting	triclinic
loop_
_symmetry_equiv_pos_as_xyz
  x,y,z
_cell_length_a	18.050591
_cell_length_b	21.395361
_cell_length_c	21.395355
_cell_angle_alpha	90.021511
_cell_angle_beta	89.969444
_cell_angle_gamma	89.973287
loop_
_atom_site_label
_atom_site_type_symbol
_atom_site_fract_x
_atom_site_fract_y
_atom_site_fract_z
Zn1	Zn	1.135350	0.249578	-0.354349
Zn2	Zn	1.385350	0.499578	-0.104349
Zn3	Zn	1.635350	0.749578	0.145651
Zn4	Zn	1.885350	0.999578	0.395651
Zn5	Zn	1.135235	0.354338	-0.249566
Zn6	Zn	1.385235	0.604338	0.000434
Zn7	Zn	1.635235	0.854338	0.250434
Zn8	Zn	1.885235	1.104338	0.500434
Zn9	Zn	1.011149	0.249571	-0.249574
Zn10	Zn	1.261149	0.499571	0.000426
Zn11	Zn	1.511149	0.749571	0.250426
Zn12	Zn	1.761149	0.999571	0.500426
Zn13	Zn	1.011112	0.354314	-0.354295
Zn14	Zn	1.261112	0.604314	-0.104295
Zn15	Zn	1.511112	0.854314	0.145705
Zn16	Zn	1.761112	1.104314	0.395705
O17	O	1.073211	0.301950	-0.301946
O18	O	1.323211	0.551950	-0.051946
O19	O	1.573211	0.801950	0.198054
O20	O	1.823211	1.051950	0.448054
O21	O	1.239260	0.263487	-0.340468
O22	O	1.489260	0.513487	-0.090468
O23	O	1.739260	0.763487	0.159532
O24	O	1.989260	1.013487	0.409532
O25	O	1.118741	0.340447	-0.161889
O26	O	1.368741	0.590447	0.088111
O27	O	1.618741	0.840447	0.338111
O28	O	1.868741	1.090447	0.588111
O29	O	1.027688	0.161894	-0.263499
O30	O	1.277688	0.411894	-0.013499
O31	O	1.527688	0.661894	0.236501
O32	O	1.777688	0.911894	0.486501
O33	O	1.239175	0.340454	-0.263484
O34	O	1.489175	0.590454	-0.013484
O35	O	1.739175	0.840454	0.236516
O36	O	1.989175	1.090454	0.486516
O37	O	1.118938	0.161899	-0.340476
O38	O	1.368938	0.411899	-0.090476
O39	O	1.618938	0.661899	0.159524
O40	O	1.868938	0.911899	0.409524
O41	O	1.027576	0.263475	-0.161895
O42	O	1.277576	0.513475	0.088105
O43	O	1.527576	0.763475	0.338105
O44	O	1.777576	1.013475	0.588105
O45	O	0.907219	0.263452	-0.263447
O46	O	1.157219	0.513452	-0.013447
O47	O	1.407219	0.763452	0.236553
O48	O	1.657219	1.013452	0.486553
O49	O	1.027626	0.340414	-0.441980
O50	O	1.277626	0.590414	-0.191980
O51	O	1.527626	0.840414	0.058020
O52	O	1.777626	1.090414	0.308020
O53	O	0.907192	0.340407	-0.340385
O54	O	1.157192	0.590407	-0.090385
O55	O	1.407192	0.840407	0.159615
O56	O	1.657192	1.090407	0.409615
O57	O	1.118903	0.263465	-0.442019
O58	O	1.368903	0.513465	-0.192019
O59	O	1.618903	0.763465	0.057981
O60	O	1.868903	1.013465	0.307981
O61	O	1.118706	0.442012	-0.263432
O62	O	1.368706	0.692012	-0.013432
O63	O	1.618706	0.942012	0.236568
O64	O	1.868706	1.192012	0.486568
O65	O	1.027514	0.441995	-0.340376
O66	O	1.277514	0.691995	-0.090376
O67	O	1.527514	0.941995	0.159624
O68	O	1.777514	1.191995	0.409624
C69	C	1.073113	0.464738	-0.301911
C70	C	1.323113	0.714738	-0.051911
C71	C	1.573113	0.964738	0.198089
C72	C	1.823113	1.214738	0.448089
C73	C	1.073139	0.534379	-0.301917
C74	C	1.323139	0.784379	-0.051917
C75	C	1.573139	1.034379	0.198083
C76	C	1.823139	1.284379	0.448083
C77	C	0.880259	0.301927	-0.301911
C78	C	1.130259	0.551927	-0.051911
C79	C	1.380259	0.801927	0.198089
C80	C	1.630259	1.051927	0.448089
C81	C	0.797713	0.301932	-0.301911
C82	C	1.047713	0.551932	-0.051911
C83	C	1.297713	0.801932	0.198089
C84	C	1.547713	1.051932	0.448089
C85	C	1.073273	0.301937	-0.465369
C86	C	1.323273	0.551937	-0.215369
C87	C	1.573273	0.801937	0.034631
C88	C	1.823273	1.051937	0.284631
C89	C	1.073299	0.301932	-0.535011
C90	C	1.323299	0.551932	-0.285011
C91	C	1.573299	0.801932	-0.035011
C92	C	1.823299	1.051932	0.214989
C93	C	0.598256	0.260035	-0.260169
C94	C	0.848256	0.510035	-0.010169
C95	C	1.098256	0.760035	0.239831
C96	C	1.348256	1.010035	0.489831
C97	C	0.548830	0.317181	-0.244746
C98	C	0.798830	0.567181	0.005254
C99	C	1.048830	0.817181	0.255254
C100	C	1.298830	1.067181	0.505254
C101	C	0.646583	0.301951	-0.301940
C102	C	0.896583	0.551951	-0.051940
C103	C	1.146583	0.801951	0.198060
C104	C	1.396583	1.051951	0.448060
C105	C	0.548927	0.244826	-0.317361
C106	C	0.798927	0.494826	-0.067361
C107	C	1.048927	0.744826	0.182639
C108	C	1.298927	0.994826	0.432639
C109	C	0.500598	0.301964	-0.301966
C110	C	0.750598	0.551964	-0.051966
C111	C	1.000598	0.801964	0.198034
C112	C	1.250598	1.051964	0.448034
C113	C	0.598245	0.359126	-0.286487
C114	C	0.848245	0.609126	-0.036487
C115	C	1.098245	0.859126	0.213513
C116	C	1.348245	1.109126	0.463513
C117	C	0.598346	0.286732	-0.359129
C118	C	0.848346	0.536732	-0.109129
C119	C	1.098346	0.786732	0.140871
C120	C	1.348346	1.036732	0.390871
C121	C	0.548943	0.343917	-0.343727
C122	C	0.798943	0.593917	-0.093727
C123	C	1.048943	0.843917	0.156273
C124	C	1.298943	1.093917	0.406273
C125	C	0.730681	0.301942	-0.301923
C126	C	0.980681	0.551942	-0.051923
C127	C	1.230681	0.801942	0.198077
C128	C	1.480681	1.051942	0.448077
C129	C	0.416502	0.301979	-0.301983
C130	C	0.666502	0.551979	-0.051983
C131	C	0.916502	0.801979	0.198017
C132	C	1.166502	1.051979	0.448017
C133	C	1.266917	0.301974	-0.301981
C134	C	1.516917	0.551974	-0.051981
C135	C	1.766917	0.801974	0.198019
C136	C	2.016917	1.051974	0.448019
C137	C	1.349463	0.301984	-0.301996
C138	C	1.599463	0.551984	-0.051996
C139	C	1.849463	0.801984	0.198004
C140	C	2.099463	1.051984	0.448004
C141	C	1.073330	0.138527	-0.301995
C142	C	1.323330	0.388527	-0.051995
C143	C	1.573330	0.638527	0.198005
C144	C	1.823330	0.888527	0.448005
C145	C	1.073381	0.068886	-0.302015
C146	C	1.323381	0.318886	-0.052015
C147	C	1.573381	0.568886	0.197985
C148	C	1.823381	0.818886	0.447985
C149	C	1.120665	0.567080	-0.261893
C150	C	1.370665	0.817080	-0.011893
C151	C	1.620665	1.067080	0.238107
C152	C	1.870665	1.317080	0.488107
C153	C	1.120700	0.632516	-0.261907
C154	C	1.370700	0.882516	-0.011907
C155	C	1.620700	1.132516	0.238093
C156	C	1.870700	1.382516	0.488093
C157	C	1.073195	0.665247	-0.301939
C158	C	1.323195	0.915247	-0.051939
C159	C	1.573195	1.165247	0.198061
C160	C	1.823195	1.415247	0.448061
C161	C	1.025666	0.632538	-0.341970
C162	C	1.275666	0.882538	-0.091970
C163	C	1.525666	1.132538	0.158030
C164	C	1.775666	1.382538	0.408030
C165	C	1.025638	0.567104	-0.341959
C166	C	1.275638	0.817104	-0.091959
C167	C	1.525638	1.067104	0.158041
C168	C	1.775638	1.317104	0.408041
C169	C	1.006327	0.768959	-0.306843
C170	C	1.256327	1.018959	-0.056843
C171	C	1.506327	1.268959	0.193157
C172	C	1.756327	1.518959	0.443157
C173	C	1.006354	0.834391	-0.306849
C174	C	1.256354	1.084391	-0.056849
C175	C	1.506354	1.334391	0.193151
C176	C	1.756354	1.584391	0.443151
C177	C	1.073282	0.867068	-0.301975
C178	C	1.323282	1.117068	-0.051975
C179	C	1.573282	1.367068	0.198025
C180	C	1.823282	1.617068	0.448025
C181	C	1.140185	0.834304	-0.297082
C182	C	1.390185	1.084304	-0.047082
C183	C	1.640185	1.334304	0.202918
C184	C	1.890185	1.584304	0.452918
C185	C	1.140157	0.768869	-0.297072
C186	C	1.390157	1.018869	-0.047072
C187	C	1.640157	1.268869	0.202928
C188	C	1.890157	1.518869	0.452928
C189	C	1.073221	0.736200	-0.301955
C190	C	1.323221	0.986200	-0.051955
C191	C	1.573221	1.236200	0.198045
C192	C	1.823221	1.486200	0.448045
C193	C	1.120849	0.970722	-0.261965
C194	C	1.370849	1.220722	-0.011965
C195	C	1.620849	1.470722	0.238035
C196	C	1.870849	1.720722	0.488035
C197	C	1.120885	1.036158	-0.261983
C198	C	1.370885	1.286158	-0.011983
C199	C	1.620885	1.536158	0.238017
C200	C	1.870885	1.786158	0.488017
C201	C	1.025844	1.036180	-0.342043
C202	C	1.275844	1.286180	-0.092043
C203	C	1.525844	1.536180	0.157957
C204	C	1.775844	1.786180	0.407957
C205	C	1.025815	0.970744	-0.342027
C206	C	1.275815	1.220744	-0.092027
C207	C	1.525815	1.470744	0.157973
C208	C	1.775815	1.720744	0.407973
C209	C	1.073317	0.938019	-0.301985
C210	C	1.323317	1.188019	-0.051985
C211	C	1.573317	1.438019	0.198015
C212	C	1.823317	1.688019	0.448015
C213	C	1.120825	0.261863	-0.567745
C214	C	1.370825	0.511863	-0.317745
C215	C	1.620825	0.761863	-0.067745
C216	C	1.870825	1.011863	0.182255
C217	C	1.120824	0.261836	-0.633181
C218	C	1.370824	0.511836	-0.383181
C219	C	1.620824	0.761836	-0.133181
C220	C	1.870824	1.011836	0.116819
C221	C	1.073305	0.301889	-0.665879
C222	C	1.323305	0.551889	-0.415879
C223	C	1.573305	0.801889	-0.165879
C224	C	1.823305	1.051889	0.084121
C225	C	1.025770	0.341961	-0.633136
C226	C	1.275770	0.591961	-0.383136
C227	C	1.525770	0.841961	-0.133136
C228	C	1.775770	1.091961	0.116864
C229	C	1.025767	0.341983	-0.567702
C230	C	1.275767	0.591983	-0.317702
C231	C	1.525767	0.841983	-0.067702
C232	C	1.775767	1.091983	0.182298
C233	C	1.067407	0.358304	-0.769541
C234	C	1.317407	0.608304	-0.519541
C235	C	1.567407	0.858304	-0.269541
C236	C	1.817407	1.108304	-0.019541
C237	C	1.067415	0.358284	-0.834974
C238	C	1.317415	0.608284	-0.584974
C239	C	1.567415	0.858284	-0.334974
C240	C	1.817415	1.108284	-0.084974
C241	C	1.073310	0.301823	-0.867700
C242	C	1.323310	0.551823	-0.617700
C243	C	1.573310	0.801823	-0.367700
C244	C	1.823310	1.051823	-0.117700
C245	C	1.079212	0.245381	-0.834985
C246	C	1.329212	0.495381	-0.584985
C247	C	1.579212	0.745381	-0.334985
C248	C	1.829212	0.995381	-0.084985
C249	C	1.079209	0.245402	-0.769550
C250	C	1.329209	0.495402	-0.519550
C251	C	1.579209	0.745402	-0.269550
C252	C	1.829209	0.995402	-0.019550
C253	C	1.073303	0.301870	-0.736831
C254	C	1.323303	0.551870	-0.486831
C255	C	1.573303	0.801870	-0.236831
C256	C	1.823303	1.051870	0.013169
C257	C	1.120837	0.261721	-0.971387
C258	C	1.370837	0.511721	-0.721387
C259	C	1.620837	0.761721	-0.471387
C260	C	1.870837	1.011721	-0.221387
C261	C	1.120831	0.261693	-1.036824
C262	C	1.370831	0.511693	-0.786824
C263	C	1.620831	0.761693	-0.536824
C264	C	1.870831	1.011693	-0.286824
C265	C	1.025780	0.341824	-1.036778
C266	C	1.275780	0.591824	-0.786778
C267	C	1.525780	0.841824	-0.536778
C268	C	1.775780	1.091824	-0.286778
C269	C	1.025783	0.341847	-0.971343
C270	C	1.275783	0.591847	-0.721343
C271	C	1.525783	0.841847	-0.471343
C272	C	1.775783	1.091847	-0.221343
C273	C	1.073315	0.301796	-0.938651
C274	C	1.323315	0.551796	-0.688651
C275	C	1.573315	0.801796	-0.438651
C276	C	1.823315	1.051796	-0.188651
C277	C	1.073193	0.301918	-0.139158
C278	C	1.323193	0.551918	0.110842
C279	C	1.573193	0.801918	0.360842
C280	C	1.823193	1.051918	0.610842
C281	C	1.073310	0.301746	-0.069518
C282	C	1.323310	0.551746	0.180482
C283	C	1.573310	0.801746	0.430482
C284	C	1.823310	1.051746	0.680482
H285	H	0.527082	0.330063	-0.196393
H286	H	0.777082	0.580063	0.053607
H287	H	1.027082	0.830063	0.303607
H288	H	1.277082	1.080063	0.553607
O289	O	1.172154	1.071427	-0.218812
O290	O	1.422154	1.321427	0.031188
O291	O	1.672154	1.571427	0.281188
O292	O	1.922154	1.821427	0.531188
H293	H	1.209944	1.101188	-0.246892
H294	H	1.459944	1.351188	0.003108
H295	H	1.709944	1.601188	0.253108
H296	H	1.959944	1.851188	0.503108
O297	O	0.626810	0.423144	-0.269139
O298	O	0.876810	0.673144	-0.019139
O299	O	1.126810	0.923144	0.230861
O300	O	1.376810	1.173144	0.480861
H301	H	0.688298	0.422629	-0.269238
H302	H	0.938298	0.672629	-0.019238
H303	H	1.188298	0.922629	0.230762
H304	H	1.438298	1.172629	0.480762
H305	H	0.987062	0.374611	-0.541050
H306	H	1.237062	0.624611	-0.291050
H307	H	1.487062	0.874611	-0.041050
H308	H	1.737062	1.124611	0.208950
O309	O	0.626953	0.213138	-0.213330
O310	O	0.876953	0.463138	0.036670
O311	O	1.126953	0.713138	0.286670
O312	O	1.376953	0.963138	0.536670
H313	H	0.579499	0.190111	-0.189710
H314	H	0.829499	0.440111	0.060290
H315	H	1.079499	0.690111	0.310290
H316	H	1.329499	0.940111	0.560290
O317	O	0.520422	0.390927	-0.390529
O318	O	0.770422	0.640927	-0.140529
O319	O	1.020422	0.890927	0.109471
O320	O	1.270422	1.140927	0.359471
H321	H	0.540276	0.438285	-0.377589
H322	H	0.790276	0.688285	-0.127589
H323	H	1.040276	0.938285	0.122411
H324	H	1.290276	1.188285	0.372411
O325	O	1.212309	0.733526	-0.291799
O326	O	1.462309	0.983526	-0.041799
O327	O	1.712309	1.233526	0.208201
O328	O	1.962309	1.483526	0.458201
H329	H	1.248753	0.746031	-0.331676
H330	H	1.498753	0.996031	-0.081676
H331	H	1.748753	1.246031	0.168324
H332	H	1.998753	1.496031	0.418324
O333	O	0.627189	0.269650	-0.423156
O334	O	0.877189	0.519650	-0.173156
O335	O	1.127189	0.769650	0.076844
O336	O	1.377189	1.019650	0.326844
H337	H	0.607476	0.222181	-0.435842
H338	H	0.857476	0.472181	-0.185842
H339	H	1.107476	0.722181	0.064158
H340	H	1.357476	0.972181	0.314158
H341	H	0.987082	0.374430	-1.063400
H342	H	1.237082	0.624430	-0.813400
H343	H	1.487082	0.874430	-0.563400
H344	H	1.737082	1.124430	-0.313400
O345	O	1.061047	0.419208	-0.734250
O346	O	1.311047	0.669208	-0.484250
O347	O	1.561047	0.919208	-0.234250
O348	O	1.811047	1.169208	0.015750
H349	H	1.062028	0.409741	-0.683254
H350	H	1.312028	0.659741	-0.433254
H351	H	1.562028	0.909741	-0.183254
H352	H	1.812028	1.159741	0.066746
H353	H	1.062614	0.404243	-0.861606
H354	H	1.312614	0.654243	-0.611606
H355	H	1.562614	0.904243	-0.361606
H356	H	1.812614	1.154243	-0.111606
O357	O	0.520232	0.180828	-0.334634
O358	O	0.770232	0.430828	-0.084634
O359	O	1.020232	0.680828	0.165366
O360	O	1.270232	0.930828	0.415366
H361	H	0.539991	0.146120	-0.299882
H362	H	0.789991	0.396120	-0.049882
H363	H	1.039991	0.646120	0.200118
H364	H	1.289991	0.896120	0.450118
O365	O	1.171906	0.531782	-0.218716
O366	O	1.421906	0.781782	0.031284
O367	O	1.671906	1.031782	0.281284
O368	O	1.921906	1.281782	0.531284
H369	H	1.204966	0.565519	-0.190892
H370	H	1.454966	0.815519	0.059108
H371	H	1.704966	1.065519	0.309108
H372	H	1.954966	1.315519	0.559108
O373	O	1.171955	0.667799	-0.218732
O374	O	1.421955	0.917799	0.031268
O375	O	1.671955	1.167799	0.281268
O376	O	1.921955	1.417799	0.531268
H377	H	1.204976	0.634050	-0.190884
H378	H	1.454976	0.884050	0.059116
H379	H	1.704976	1.134050	0.309116
H380	H	1.954976	1.384050	0.559116
H381	H	0.951876	0.861063	-0.310827
H382	H	1.201876	1.111063	-0.060827
H383	H	1.451876	1.361063	0.189173
H384	H	1.701876	1.611063	0.439173
O385	O	1.212381	0.869535	-0.291831
O386	O	1.462381	1.119535	-0.041831
O387	O	1.712381	1.369535	0.208169
O388	O	1.962381	1.619535	0.458169
H389	H	1.201166	0.920540	-0.292669
H390	H	1.451166	1.170540	-0.042669
H391	H	1.701166	1.420540	0.207331
H392	H	1.951166	1.670540	0.457331
H393	H	1.159530	0.944076	-0.229362
H394	H	1.409530	1.194076	0.020638
H395	H	1.659530	1.444076	0.270638
H396	H	1.909530	1.694076	0.520638
O397	O	0.974609	1.071477	-0.385221
O398	O	1.224609	1.321477	-0.135221
O399	O	1.474609	1.571477	0.114779
O400	O	1.724609	1.821477	0.364779
H401	H	0.941556	1.037741	-0.413052
H402	H	1.191556	1.287741	-0.163052
H403	H	1.441556	1.537741	0.086948
H404	H	1.691556	1.787741	0.336948
H405	H	0.987112	0.944117	-0.374616
H406	H	1.237112	1.194117	-0.124616
H407	H	1.487112	1.444117	0.125384
H408	H	1.737112	1.694117	0.375384
H409	H	0.951822	0.742360	-0.310814
H410	H	1.201822	0.992360	-0.060814
H411	H	1.451822	1.242360	0.189186
H412	H	1.701822	1.492360	0.439186
H413	H	0.987077	0.374571	-0.659764
H414	H	1.237077	0.624571	-0.409764
H415	H	1.487077	0.874571	-0.159764
H416	H	1.737077	1.124571	0.090236
O417	O	0.974500	0.385056	-0.936041
O418	O	1.224500	0.635056	-0.686041
O419	O	1.474500	0.885056	-0.436041
O420	O	1.724500	1.135056	-0.186041
H421	H	0.987186	0.434233	-0.948596
H422	H	1.237186	0.684233	-0.698596
H423	H	1.487186	0.934233	-0.448596
H424	H	1.737186	1.184233	-0.198596
O425	O	0.974419	0.667836	-0.385141
O426	O	1.224419	0.917836	-0.135141
O427	O	1.474419	1.167836	0.114859
O428	O	1.724419	1.417836	0.364859
H429	H	0.982414	0.718831	-0.378418
H430	H	1.232414	0.968831	-0.128418
H431	H	1.482414	1.218831	0.121582
H432	H	1.732414	1.468831	0.371582
H433	H	0.986936	0.540478	-0.374552
H434	H	1.236936	0.790478	-0.124552
H435	H	1.486936	1.040478	0.125448
H436	H	1.736936	1.290478	0.375448
O437	O	1.172087	0.218665	-0.532483
O438	O	1.422087	0.468665	-0.282483
O439	O	1.672087	0.718665	-0.032483
O440	O	1.922087	0.968665	0.217517
H441	H	1.205132	0.190795	-0.566244
H442	H	1.455132	0.440795	-0.316244
H443	H	1.705132	0.690795	-0.066244
H444	H	1.955132	0.940795	0.183756
H445	H	1.159524	0.229203	-0.659839
H446	H	1.409524	0.479203	-0.409839
H447	H	1.659524	0.729203	-0.159839
H448	H	1.909524	0.979203	0.090161
O449	O	1.085570	0.184531	-0.734262
O450	O	1.335570	0.434531	-0.484262
O451	O	1.585570	0.684531	-0.234262
O452	O	1.835570	0.934531	0.015738
H453	H	1.089667	0.145264	-0.768006
H454	H	1.339667	0.395264	-0.518006
H455	H	1.589667	0.645264	-0.268006
H456	H	1.839667	0.895264	-0.018006
H457	H	1.084013	0.199405	-0.861628
H458	H	1.334013	0.449405	-0.611628
H459	H	1.584013	0.699405	-0.361628
H460	H	1.834013	0.949405	-0.111628
H461	H	1.159537	0.229106	-0.944768
H462	H	1.409537	0.479106	-0.694768
H463	H	1.659537	0.729106	-0.444768
H464	H	1.909537	0.979106	-0.194768
H465	H	1.159531	0.229060	-1.063475
H466	H	1.409531	0.479060	-0.813475
H467	H	1.659531	0.729060	-0.563475
H468	H	1.909531	0.979060	-0.313475
