data_functionalizedCrystal
_audit_creation_method	'MofGen! by Chris Wilmer'
_symmetry_space_group_name_H-M	'P1'
_symmetry_Int_Tables_number	1
_symmetry_cell_setting	triclinic
loop_
_symmetry_equiv_pos_as_xyz
  x,y,z
_cell_length_a	15.538191
_cell_length_b	13.330367
_cell_length_c	15.711784
_cell_angle_alpha	89.999832
_cell_angle_beta	83.430448
_cell_angle_gamma	89.991209
loop_
_atom_site_label
_atom_site_type_symbol
_atom_site_fract_x
_atom_site_fract_y
_atom_site_fract_z
O1	O	1.162610	-0.083444	-0.253354
O2	O	0.919389	-0.083440	-0.163284
O3	O	1.008635	-0.083440	-0.323996
O4	O	1.073365	-0.083444	-0.092642
O5	O	1.008615	0.083407	-0.323993
O6	O	0.919370	0.083407	-0.163281
O7	O	1.162590	0.083403	-0.253351
Cu8	Cu	1.040978	0.098639	-0.208316
Cu9	Cu	1.041002	-0.098677	-0.208320
O10	O	1.073345	0.083403	-0.092639
C11	C	0.887531	-0.000016	-0.153859
C12	C	0.792631	-0.000015	-0.125789
C13	C	0.998050	-0.000018	-0.352881
C14	C	0.966533	-0.000023	-0.438951
N15	N	1.040968	0.237421	-0.208315
C16	C	0.408742	-0.000026	-0.404658
C17	C	0.319572	-0.000027	-0.378262
C18	C	0.348292	-0.000029	-0.229792
C19	C	0.437466	-0.000023	-0.256175
C20	C	0.467683	-0.000022	-0.343609
C21	C	0.496408	-0.000020	-0.195127
C22	C	0.585574	-0.000019	-0.221508
C23	C	0.615799	-0.000021	-0.308938
C24	C	0.556850	-0.000022	-0.369991
C25	C	0.466189	-0.000028	-0.107693
C26	C	0.525130	-0.000025	-0.046644
C27	C	0.614298	-0.000017	-0.073026
C28	C	0.644523	-0.000019	-0.160456
C29	C	0.673247	-0.000016	-0.011973
C30	C	0.762413	-0.000016	-0.038355
C31	C	0.733689	-0.000018	-0.186837
C32	C	1.194448	-0.000023	-0.262776
C33	C	1.289349	-0.000031	-0.290847
N34	N	1.041017	-0.237458	-0.208328
C35	C	1.001474	0.710044	-0.137176
C36	C	1.080550	0.710012	-0.279476
C37	C	1.080539	0.604993	-0.279476
C38	C	1.040997	0.552495	-0.208324
C39	C	1.001465	0.605016	-0.137172
C40	C	1.120078	0.552465	-0.350622
C41	C	1.120070	0.447441	-0.350624
C42	C	1.080522	0.394941	-0.279474
C43	C	1.040988	0.447467	-0.208320
C44	C	1.001445	0.394969	-0.137168
C45	C	0.961905	0.447494	-0.066016
C46	C	0.961917	0.552516	-0.066022
C47	C	1.080510	0.289919	-0.279467
C48	C	1.001436	0.289941	-0.137164
C49	C	0.847878	-0.000027	-0.526670
C50	C	0.877503	-0.000023	-0.445799
C51	C	1.025973	-0.000021	-0.512979
C52	C	0.996361	-0.000020	-0.593858
C53	C	0.907313	-0.000024	-0.600696
C54	C	1.055795	-0.000017	-0.667883
C55	C	1.026185	-0.000022	-0.748754
C56	C	0.937141	-0.000029	-0.755601
C57	C	0.877703	-0.000029	-0.681567
C58	C	1.144843	-0.000020	-0.661043
C59	C	1.204277	-0.000018	-0.735068
C60	C	1.174668	-0.000015	-0.815942
C61	C	1.085623	-0.000022	-0.822788
C62	C	1.234106	-0.000015	-0.889975
C63	C	1.204495	-0.000019	-0.970847
C64	C	1.056013	-0.000026	-0.903659
C65	C	1.083929	-0.000021	-0.063754
C66	C	1.115447	-0.000023	0.022315
H67	H	0.758293	-0.000012	-0.258035
F68	F	1.176355	-0.000020	-0.574970
F69	F	1.122639	0.765883	-0.355195
F70	F	0.825147	-0.000014	0.026620
F71	F	0.492961	-0.000031	0.046406
F72	F	0.959343	0.234077	-0.061435
F73	F	1.328874	-0.000024	-0.882685
F74	F	0.814237	-0.000025	-0.367014
H75	H	0.929714	0.404738	-0.008081
F76	F	1.267752	-0.000022	-1.049634
F77	F	0.710698	-0.000027	-0.337017
F78	F	0.371288	-0.000030	-0.079617
F79	F	1.299046	-0.000018	-0.727780
F80	F	0.961237	-0.000015	-0.910940
F81	F	0.905626	-0.000009	-0.841672
F82	F	0.782927	-0.000017	-0.688848
H83	H	0.648630	-0.000027	0.059216
F84	F	0.753102	-0.000016	-0.533951
F85	F	0.919840	0.608420	0.009698
F86	F	0.959390	0.765942	-0.061456
H87	H	0.433346	-0.000019	-0.475855
F88	F	0.589013	-0.000010	-0.463049
H89	H	1.152278	0.595213	-0.408550
F90	F	1.162149	0.391547	-0.426349
H91	H	1.112708	0.247158	-0.337396
H92	H	1.098477	-0.000014	-0.507399
H93	H	0.271582	-0.000031	-0.427982
F94	F	0.316122	-0.000036	-0.136741
