data_functionalizedCrystal
_audit_creation_method	'MofGen! by Chris Wilmer'
_symmetry_space_group_name_H-M	'P1'
_symmetry_Int_Tables_number	1
_symmetry_cell_setting	triclinic
loop_
_symmetry_equiv_pos_as_xyz
  x,y,z
_cell_length_a	9.065218
_cell_length_b	22.010155
_cell_length_c	9.065218
_cell_angle_alpha	90.006172
_cell_angle_beta	94.984115
_cell_angle_gamma	90.008655
loop_
_atom_site_label
_atom_site_type_symbol
_atom_site_fract_x
_atom_site_fract_y
_atom_site_fract_z
O1	O	1.960412	0.050524	-0.216337
O2	O	2.460412	0.550524	0.283663
O3	O	1.531127	0.050525	-0.234083
O4	O	2.031127	0.550525	0.265917
O5	O	1.754643	0.050523	-0.010567
O6	O	2.254643	0.550523	0.489433
O7	O	1.736896	0.050526	-0.439852
O8	O	2.236896	0.550526	0.060148
O9	O	1.754602	-0.050527	-0.010601
O10	O	2.254602	0.449473	0.489399
O11	O	1.531087	-0.050526	-0.234116
O12	O	2.031087	0.449474	0.265884
O13	O	1.960371	-0.050526	-0.216370
O14	O	2.460371	0.449474	0.283630
Cu15	Cu	1.745725	-0.059753	-0.225246
Cu16	Cu	2.245725	0.440247	0.274754
Cu17	Cu	1.745773	0.059751	-0.225207
Cu18	Cu	2.245773	0.559751	0.274793
O19	O	1.736856	-0.050525	-0.439886
O20	O	2.236856	0.449475	0.060114
C21	C	1.476120	-0.000000	-0.232394
C22	C	1.976120	0.500000	0.267606
C23	C	1.312277	-0.000000	-0.227294
C24	C	1.812277	0.500000	0.272706
N25	N	1.745702	-0.143805	-0.225273
N26	N	2.245702	0.356195	0.274727
C27	C	1.844752	-0.563585	-0.126248
C28	C	2.344752	-0.063585	0.373752
C29	C	1.844759	-0.627193	-0.126238
C30	C	2.344759	-0.127193	0.373762
O31	O	1.928916	-0.660085	-0.042062
O32	O	2.428916	-0.160085	0.457938
N33	N	1.745772	-0.659012	-0.225176
N34	N	2.245772	-0.159012	0.274824
C35	C	1.646762	-0.627221	-0.324120
C36	C	2.146762	-0.127221	0.175880
O37	O	1.562566	-0.660126	-0.408272
O38	O	2.062566	-0.160126	0.091728
C39	C	1.646749	-0.563614	-0.324121
C40	C	2.146749	-0.063614	0.175879
C41	C	1.745753	-0.531798	-0.225187
C42	C	2.245753	-0.031798	0.274813
C43	C	1.943746	-0.531769	-0.027321
C44	C	2.443746	-0.031769	0.472679
C45	C	1.943741	-0.468166	-0.027334
C46	C	2.443741	0.031834	0.472666
C47	C	1.844742	-0.436379	-0.126273
C48	C	2.344742	0.063621	0.373727
C49	C	1.745747	-0.468195	-0.225200
C50	C	2.245747	0.031805	0.274800
C51	C	1.547733	-0.531824	-0.423057
C52	C	2.047733	-0.031824	0.076943
C53	C	1.547728	-0.468213	-0.423049
C54	C	2.047728	0.031787	0.076951
C55	C	1.646732	-0.436397	-0.324115
C56	C	2.146732	0.063603	0.175885
C57	C	1.646743	-0.372805	-0.324151
C58	C	2.146743	0.127195	0.175849
N59	N	1.745730	-0.340985	-0.225214
N60	N	2.245730	0.159015	0.274786
C61	C	1.844729	-0.372772	-0.126275
C62	C	2.344729	0.127228	0.373725
C63	C	1.646794	-0.760799	-0.324107
C64	C	2.146794	-0.260799	0.175893
C65	C	1.646813	-0.824404	-0.324113
C66	C	2.146813	-0.324404	0.175887
C67	C	1.844809	-0.824372	-0.126230
C68	C	2.344809	-0.324372	0.373770
C69	C	1.844796	-0.760765	-0.126231
C70	C	2.344796	-0.260765	0.373769
C71	C	1.745781	-0.728979	-0.225169
C72	C	2.245781	-0.228979	0.274831
C73	C	1.844711	-0.239201	-0.126309
C74	C	2.344711	0.260799	0.373691
C75	C	1.844702	-0.175592	-0.126334
C76	C	2.344702	0.324408	0.373666
C77	C	1.646702	-0.175630	-0.324212
C78	C	2.146702	0.324370	0.175788
C79	C	1.646716	-0.239233	-0.324192
C80	C	2.146716	0.260767	0.175808
C81	C	1.745726	-0.271017	-0.225229
C82	C	2.245726	0.228983	0.274771
O83	O	1.562625	-0.339872	-0.408281
O84	O	2.062625	0.160128	0.091719
O85	O	1.928898	-0.339859	-0.042123
O86	O	2.428898	0.160141	0.457877
C87	C	2.015378	0.000000	-0.218059
C88	C	2.515378	0.500000	0.281941
C89	C	2.179221	0.000004	-0.223158
C90	C	2.679221	0.500004	0.276842
C91	C	1.752917	-0.000001	0.044403
C92	C	2.252917	0.499999	0.544403
C93	C	1.747817	0.000002	0.208245
C94	C	2.247817	0.500002	0.708245
N95	N	1.745808	0.143803	-0.225168
N96	N	2.245808	0.643803	0.274832
C97	C	1.738582	0.000001	-0.494855
C98	C	2.238582	0.500001	0.005145
C99	C	1.743681	0.000002	-0.658698
C100	C	2.243681	0.500002	-0.158698
H101	H	1.925327	-0.149689	-0.045770
H102	H	2.425327	0.350311	0.454230
H103	H	1.566211	-0.850304	-0.404690
H104	H	2.066211	-0.350304	0.095310
H105	H	2.024354	-0.442265	0.053231
H106	H	2.524354	0.057735	0.553231
H107	H	1.925412	-0.734864	-0.045670
H108	H	2.425412	-0.234864	0.454330
H109	H	1.925333	-0.265072	-0.045722
H110	H	2.425333	0.234928	0.454278
H111	H	1.467115	-0.557720	-0.503617
H112	H	1.967115	-0.057720	-0.003617
H113	H	2.024363	-0.557644	0.053254
H114	H	2.524363	-0.057644	0.553254
H115	H	1.566169	-0.734922	-0.404686
H116	H	2.066169	-0.234922	0.095314
H117	H	1.925417	-0.850264	-0.045666
H118	H	2.425417	-0.350264	0.454334
H119	H	1.467094	-0.442336	-0.503615
H120	H	1.967094	0.057664	-0.003615
H121	H	1.566113	-0.265139	-0.404768
H122	H	2.066113	0.234861	0.095232
H123	H	1.566101	-0.149739	-0.404771
H124	H	2.066101	0.350261	0.095229
