data_functionalizedCrystal
_audit_creation_method	'MofGen! by Chris Wilmer'
_symmetry_space_group_name_H-M	'P1'
_symmetry_Int_Tables_number	1
_symmetry_cell_setting	triclinic
loop_
_symmetry_equiv_pos_as_xyz
  x,y,z
_cell_length_a	21.295419
_cell_length_b	29.839133
_cell_length_c	21.295411
_cell_angle_alpha	90.010367
_cell_angle_beta	89.975461
_cell_angle_gamma	89.951686
loop_
_atom_site_label
_atom_site_type_symbol
_atom_site_fract_x
_atom_site_fract_y
_atom_site_fract_z
Zn1	Zn	0.962342	0.178727	-0.355960
Zn2	Zn	1.212342	0.428727	-0.105960
Zn3	Zn	1.462342	0.678727	0.144040
Zn4	Zn	1.712342	0.928727	0.394040
Zn5	Zn	0.962239	0.253843	-0.250707
Zn6	Zn	1.212239	0.503843	-0.000707
Zn7	Zn	1.462239	0.753843	0.249293
Zn8	Zn	1.712239	1.003843	0.499293
Zn9	Zn	0.857066	0.178747	-0.250705
Zn10	Zn	1.107066	0.428747	-0.000705
Zn11	Zn	1.357066	0.678747	0.249295
Zn12	Zn	1.607066	0.928747	0.499295
Zn13	Zn	0.857029	0.253850	-0.355938
Zn14	Zn	1.107029	0.503850	-0.105938
Zn15	Zn	1.357029	0.753850	0.144062
Zn16	Zn	1.607029	1.003850	0.394062
O17	O	0.909669	0.216292	-0.303328
O18	O	1.159669	0.466292	-0.053328
O19	O	1.409669	0.716292	0.196672
O20	O	1.659669	0.966292	0.446672
O21	O	1.050418	0.188680	-0.342008
O22	O	1.300418	0.438680	-0.092008
O23	O	1.550418	0.688680	0.157992
O24	O	1.800418	0.938680	0.407992
O25	O	0.948260	0.243886	-0.162617
O26	O	1.198260	0.493886	0.087383
O27	O	1.448260	0.743886	0.337383
O28	O	1.698260	0.993886	0.587383
O29	O	0.871089	0.115877	-0.264677
O30	O	1.121089	0.365877	-0.014677
O31	O	1.371089	0.615877	0.235323
O32	O	1.621089	0.865877	0.485323
O33	O	1.050342	0.243867	-0.264678
O34	O	1.300342	0.493867	-0.014678
O35	O	1.550342	0.743867	0.235322
O36	O	1.800342	0.993867	0.485322
O37	O	0.948435	0.115863	-0.342007
O38	O	1.198435	0.365863	-0.092007
O39	O	1.448435	0.615863	0.157993
O40	O	1.698435	0.865863	0.407993
O41	O	0.870989	0.188714	-0.162616
O42	O	1.120989	0.438714	0.087384
O43	O	1.370989	0.688714	0.337384
O44	O	1.620989	0.938714	0.587384
O45	O	0.768971	0.188721	-0.264655
O46	O	1.018971	0.438721	-0.014655
O47	O	1.268971	0.688721	0.235345
O48	O	1.518971	0.938721	0.485345
O49	O	0.871027	0.243880	-0.444031
O50	O	1.121027	0.493880	-0.194031
O51	O	1.371027	0.743880	0.055969
O52	O	1.621027	0.993880	0.305969
O53	O	0.768945	0.243899	-0.341969
O54	O	1.018945	0.493899	-0.091969
O55	O	1.268945	0.743899	0.158031
O56	O	1.518945	0.993899	0.408031
O57	O	0.948400	0.188687	-0.444047
O58	O	1.198400	0.438687	-0.194047
O59	O	1.448400	0.688687	0.055953
O60	O	1.698400	0.938687	0.305953
O61	O	0.948225	0.316711	-0.264657
O62	O	1.198225	0.566711	-0.014657
O63	O	1.448225	0.816711	0.235343
O64	O	1.698225	1.066711	0.485343
O65	O	0.870928	0.316716	-0.341970
O66	O	1.120928	0.566716	-0.091970
O67	O	1.370928	0.816716	0.158030
O68	O	1.620928	1.066716	0.408030
C69	C	0.746118	0.216313	-0.303310
C70	C	0.996118	0.466313	-0.053310
C71	C	1.246118	0.716313	0.196690
C72	C	1.496118	0.966313	0.446690
C73	C	0.676149	0.216333	-0.303317
C74	C	0.926149	0.466333	-0.053317
C75	C	1.176149	0.716333	0.196683
C76	C	1.426149	0.966333	0.446683
C77	C	0.643345	0.187644	-0.343645
C78	C	0.893345	0.437644	-0.093645
C79	C	1.143345	0.687644	0.156355
C80	C	1.393345	0.937644	0.406355
C81	C	0.577602	0.187632	-0.343648
C82	C	0.827602	0.437632	-0.093648
C83	C	1.077602	0.687632	0.156352
C84	C	1.327602	0.937632	0.406352
C85	C	0.544667	0.216317	-0.303329
C86	C	0.794667	0.466317	-0.053329
C87	C	1.044667	0.716317	0.196671
C88	C	1.294667	0.966317	0.446671
C89	C	0.577480	0.245008	-0.262993
C90	C	0.827480	0.495008	-0.012993
C91	C	1.077480	0.745008	0.237007
C92	C	1.327480	0.995008	0.487007
C93	C	0.643221	0.245016	-0.262988
C94	C	0.893221	0.495016	-0.012988
C95	C	1.143221	0.745016	0.237012
C96	C	1.393221	0.995016	0.487012
N97	N	0.441389	0.255624	-0.298420
N98	N	0.691389	0.505624	-0.048420
N99	N	0.941389	0.755624	0.201580
N100	N	1.191389	1.005624	0.451580
N101	N	0.378937	0.255615	-0.298429
N102	N	0.628937	0.505615	-0.048429
N103	N	0.878937	0.755615	0.201571
N104	N	1.128937	1.005615	0.451571
C105	C	0.346592	0.216294	-0.303343
C106	C	0.596592	0.466294	-0.053343
C107	C	0.846592	0.716294	0.196657
C108	C	1.096592	0.966294	0.446657
N109	N	0.379058	0.176981	-0.308259
N110	N	0.629058	0.426981	-0.058259
N111	N	0.879058	0.676981	0.191741
N112	N	1.129058	0.926981	0.441741
N113	N	0.441515	0.176990	-0.308253
N114	N	0.691515	0.426990	-0.058253
N115	N	0.941515	0.676990	0.191747
N116	N	1.191515	0.926990	0.441747
C117	C	0.473382	0.216311	-0.303330
C118	C	0.723382	0.466311	-0.053330
C119	C	0.973382	0.716311	0.196670
C120	C	1.223382	0.966311	0.446670
C121	C	0.242502	0.187589	-0.343675
C122	C	0.492502	0.437589	-0.093675
C123	C	0.742502	0.687589	0.156325
C124	C	0.992502	0.937589	0.406325
C125	C	0.176758	0.187577	-0.343673
C126	C	0.426758	0.437577	-0.093673
C127	C	0.676758	0.687577	0.156327
C128	C	0.926758	0.937577	0.406327
C129	C	0.176637	0.244956	-0.263022
C130	C	0.426637	0.494956	-0.013022
C131	C	0.676637	0.744956	0.236978
C132	C	0.926637	0.994956	0.486978
C133	C	0.242379	0.244965	-0.263021
C134	C	0.492379	0.494965	-0.013021
C135	C	0.742379	0.744965	0.236979
C136	C	0.992379	0.994965	0.486979
C137	C	0.275308	0.216282	-0.303351
C138	C	0.525308	0.466282	-0.053351
C139	C	0.775308	0.716282	0.196649
C140	C	1.025308	0.966282	0.446649
C141	C	0.909578	0.333014	-0.303325
C142	C	1.159578	0.583014	-0.053325
C143	C	1.409578	0.833014	0.196675
C144	C	1.659578	1.083014	0.446675
C145	C	0.909597	0.382949	-0.303345
C146	C	1.159597	0.632949	-0.053345
C147	C	1.409597	0.882949	0.196655
C148	C	1.659597	1.132949	0.446655
C149	C	0.949917	0.739493	-0.343636
C150	C	1.199917	0.989493	-0.093636
C151	C	1.449917	1.239493	0.156364
C152	C	1.699917	1.489493	0.406364
C153	C	0.949875	0.551820	-0.343637
C154	C	1.199875	0.801820	-0.093637
C155	C	1.449875	1.051820	0.156363
C156	C	1.699875	1.301820	0.406363
O157	O	0.984106	0.527520	-0.377886
O158	O	1.234106	0.777520	-0.127886
O159	O	1.484106	1.027520	0.122114
O160	O	1.734106	1.277520	0.372114
N161	N	0.909633	0.528394	-0.303342
N162	N	1.159633	0.778394	-0.053342
N163	N	1.409633	1.028394	0.196658
N164	N	1.659633	1.278394	0.446658
C165	C	0.869401	0.551888	-0.263042
C166	C	1.119401	0.801888	-0.013042
C167	C	1.369401	1.051888	0.236958
C168	C	1.619401	1.301888	0.486958
O169	O	0.835176	0.527657	-0.228765
O170	O	1.085176	0.777657	0.021235
O171	O	1.335176	1.027657	0.271235
O172	O	1.585176	1.277657	0.521235
C173	C	0.869446	0.739561	-0.263039
C174	C	1.119446	0.989561	-0.013039
C175	C	1.369446	1.239561	0.236961
C176	C	1.619446	1.489561	0.486961
C177	C	0.909686	0.762985	-0.303340
C178	C	1.159686	1.012985	-0.053340
C179	C	1.409686	1.262985	0.196660
C180	C	1.659686	1.512985	0.446660
C181	C	0.990154	0.762917	-0.383933
C182	C	1.240154	1.012917	-0.133933
C183	C	1.490154	1.262917	0.116067
C184	C	1.740154	1.512917	0.366067
C185	C	0.990162	0.809833	-0.383935
C186	C	1.240162	1.059833	-0.133935
C187	C	1.490162	1.309833	0.116065
C188	C	1.740162	1.559833	0.366065
C189	C	0.949932	0.833324	-0.343640
C190	C	1.199932	1.083324	-0.093640
C191	C	1.449932	1.333324	0.156360
C192	C	1.699932	1.583324	0.406360
C193	C	0.909694	0.809900	-0.303342
C194	C	1.159694	1.059900	-0.053342
C195	C	1.409694	1.309900	0.196658
C196	C	1.659694	1.559900	0.446658
C197	C	0.829218	0.763055	-0.222736
C198	C	1.079218	1.013055	0.027264
C199	C	1.329218	1.263055	0.277264
C200	C	1.579218	1.513055	0.527264
C201	C	0.829234	0.809976	-0.222738
C202	C	1.079234	1.059976	0.027262
C203	C	1.329234	1.309976	0.277262
C204	C	1.579234	1.559976	0.527262
C205	C	0.869474	0.833400	-0.263039
C206	C	1.119474	1.083400	-0.013039
C207	C	1.369474	1.333400	0.236961
C208	C	1.619474	1.583400	0.486961
C209	C	0.869471	0.880307	-0.263048
C210	C	1.119471	1.130307	-0.013048
C211	C	1.369471	1.380307	0.236952
C212	C	1.619471	1.630307	0.486952
N213	N	0.909714	0.903733	-0.303342
N214	N	1.159714	1.153733	-0.053342
N215	N	1.409714	1.403733	0.196658
N216	N	1.659714	1.653733	0.446658
C217	C	0.949944	0.880242	-0.343638
C218	C	1.199944	1.130242	-0.093638
C219	C	1.449944	1.380242	0.156362
C220	C	1.699944	1.630242	0.406362
C221	C	0.869379	0.453358	-0.263048
C222	C	1.119379	0.703358	-0.013048
C223	C	1.369379	0.953358	0.236952
C224	C	1.619379	1.203358	0.486952
C225	C	0.869367	0.406440	-0.263049
C226	C	1.119367	0.656440	-0.013049
C227	C	1.369367	0.906440	0.236951
C228	C	1.619367	1.156440	0.486951
C229	C	0.949842	0.406375	-0.343643
C230	C	1.199842	0.656375	-0.093643
C231	C	1.449842	0.906375	0.156357
C232	C	1.699842	1.156375	0.406357
C233	C	0.949850	0.453294	-0.343644
C234	C	1.199850	0.703294	-0.093644
C235	C	1.449850	0.953294	0.156356
C236	C	1.699850	1.203294	0.406356
C237	C	0.909621	0.476784	-0.303342
C238	C	1.159621	0.726784	-0.053342
C239	C	1.409621	0.976784	0.196658
C240	C	1.659621	1.226784	0.446658
C241	C	0.949956	0.978768	-0.343639
C242	C	1.199956	1.228768	-0.093639
C243	C	1.449956	1.478768	0.156361
C244	C	1.699956	1.728768	0.406361
C245	C	0.949959	1.025687	-0.343639
C246	C	1.199959	1.275687	-0.093639
C247	C	1.449959	1.525687	0.156361
C248	C	1.699959	1.775687	0.406361
C249	C	0.869486	1.025748	-0.263044
C250	C	1.119486	1.275748	-0.013044
C251	C	1.369486	1.525748	0.236956
C252	C	1.619486	1.775748	0.486956
C253	C	0.869481	0.978833	-0.263046
C254	C	1.119481	1.228833	-0.013046
C255	C	1.369481	1.478833	0.236954
C256	C	1.619481	1.728833	0.486954
C257	C	0.909721	0.955344	-0.303346
C258	C	1.159721	1.205344	-0.053346
C259	C	1.409721	1.455344	0.196654
C260	C	1.659721	1.705344	0.446654
O261	O	0.835263	0.904637	-0.228811
O262	O	1.085263	1.154637	0.021189
O263	O	1.335263	1.404637	0.271189
O264	O	1.585263	1.654637	0.521189
O265	O	0.984174	0.904482	-0.377900
O266	O	1.234174	1.154482	-0.127900
O267	O	1.484174	1.404482	0.122100
O268	O	1.734174	1.654482	0.372100
C269	C	0.949909	0.692578	-0.343634
C270	C	1.199909	0.942578	-0.093634
C271	C	1.449909	1.192578	0.156366
C272	C	1.699909	1.442578	0.406366
C273	C	0.909671	0.669154	-0.303337
C274	C	1.159671	0.919154	-0.053337
C275	C	1.409671	1.169154	0.196663
C276	C	1.659671	1.419154	0.446663
C277	C	0.869441	0.692645	-0.263041
C278	C	1.119441	0.942645	-0.013041
C279	C	1.369441	1.192645	0.236959
C280	C	1.619441	1.442645	0.486959
C281	C	0.909659	0.622236	-0.303338
C282	C	1.159659	0.872236	-0.053338
C283	C	1.409659	1.122236	0.196662
C284	C	1.659659	1.372236	0.446662
C285	C	0.949889	0.598745	-0.343634
C286	C	1.199889	0.848745	-0.093634
C287	C	1.449889	1.098745	0.156366
C288	C	1.699889	1.348745	0.406366
C289	C	0.990132	0.622171	-0.383928
C290	C	1.240132	0.872171	-0.133928
C291	C	1.490132	1.122171	0.116072
C292	C	1.740132	1.372171	0.366072
C293	C	0.990139	0.669086	-0.383930
C294	C	1.240139	0.919086	-0.133930
C295	C	1.490139	1.169086	0.116070
C296	C	1.740139	1.419086	0.366070
C297	C	0.829199	0.669219	-0.222747
C298	C	1.079199	0.919219	0.027253
C299	C	1.329199	1.169219	0.277253
C300	C	1.579199	1.419219	0.527253
C301	C	0.829194	0.622303	-0.222749
C302	C	1.079194	0.872303	0.027251
C303	C	1.329194	1.122303	0.277251
C304	C	1.579194	1.372303	0.527251
C305	C	0.869424	0.598812	-0.263044
C306	C	1.119424	0.848812	-0.013044
C307	C	1.369424	1.098812	0.236956
C308	C	1.619424	1.348812	0.486956
C309	C	1.073859	0.216270	-0.303346
C310	C	1.323859	0.466270	-0.053346
C311	C	1.573859	0.716270	0.196654
C312	C	1.823859	0.966270	0.446654
C313	C	1.143828	0.216261	-0.303353
C314	C	1.393828	0.466261	-0.053353
C315	C	1.643828	0.716261	0.196647
C316	C	1.893828	0.966261	0.446647
C317	C	0.909721	0.216282	-0.467518
C318	C	1.159721	0.466282	-0.217518
C319	C	1.409721	0.716282	0.032482
C320	C	1.659721	0.966282	0.282482
C321	C	0.909744	0.216278	-0.537486
C322	C	1.159744	0.466278	-0.287486
C323	C	1.409744	0.716278	-0.037486
C324	C	1.659744	0.966278	0.212514
C325	C	0.909754	1.099113	-0.303342
C326	C	1.159754	1.349113	-0.053342
C327	C	1.409754	1.599113	0.196658
C328	C	1.659754	1.849113	0.446658
C329	C	0.909728	1.049179	-0.303344
C330	C	1.159728	1.299179	-0.053344
C331	C	1.409728	1.549179	0.196656
C332	C	1.659728	1.799179	0.446656
C333	C	0.950030	0.187538	-0.570362
C334	C	1.200030	0.437538	-0.320362
C335	C	1.450030	0.687538	-0.070362
C336	C	1.700030	0.937538	0.179638
C337	C	0.950029	0.187519	-0.636105
C338	C	1.200029	0.437519	-0.386105
C339	C	1.450029	0.687519	-0.136105
C340	C	1.700029	0.937519	0.113895
C341	C	0.909749	0.216247	-0.668969
C342	C	1.159749	0.466247	-0.418969
C343	C	1.409749	0.716247	-0.168969
C344	C	1.659749	0.966247	0.081031
C345	C	0.869454	0.244989	-0.636085
C346	C	1.119454	0.494989	-0.386085
C347	C	1.369454	0.744989	-0.136085
C348	C	1.619454	0.994989	0.113915
C349	C	0.869452	0.245005	-0.570343
C350	C	1.119452	0.495005	-0.320343
C351	C	1.369452	0.745005	-0.070343
C352	C	1.619452	0.995005	0.179657
N353	N	0.904889	0.255549	-0.772195
N354	N	1.154889	0.505549	-0.522195
N355	N	1.404889	0.755549	-0.272195
N356	N	1.654889	1.005549	-0.022195
N357	N	0.904895	0.255533	-0.834646
N358	N	1.154895	0.505533	-0.584646
N359	N	1.404895	0.755533	-0.334646
N360	N	1.654895	1.005533	-0.084646
C361	C	0.909753	0.216202	-0.867044
C362	C	1.159753	0.466202	-0.617044
C363	C	1.409753	0.716202	-0.367044
C364	C	1.659753	0.966202	-0.117044
N365	N	0.914616	0.176886	-0.834630
N366	N	1.164616	0.426886	-0.584630
N367	N	1.414616	0.676886	-0.334630
N368	N	1.664616	0.926886	-0.084630
N369	N	0.914613	0.176903	-0.772173
N370	N	1.164613	0.426903	-0.522173
N371	N	1.414613	0.676903	-0.272173
N372	N	1.664613	0.926903	-0.022173
C373	C	0.909746	0.216233	-0.740254
C374	C	1.159746	0.466233	-0.490254
C375	C	1.409746	0.716233	-0.240254
C376	C	1.659746	0.966233	0.009746
C377	C	0.950040	0.187438	-0.971205
C378	C	1.200040	0.437438	-0.721205
C379	C	1.450040	0.687438	-0.471205
C380	C	1.700040	0.937438	-0.221205
C381	C	0.950035	0.187418	-1.036949
C382	C	1.200035	0.437418	-0.786949
C383	C	1.450035	0.687418	-0.536949
C384	C	1.700035	0.937418	-0.286949
C385	C	0.869463	0.244893	-1.036928
C386	C	1.119463	0.494893	-0.786928
C387	C	1.369463	0.744893	-0.536928
C388	C	1.619463	0.994893	-0.286928
C389	C	0.869465	0.244909	-0.971185
C390	C	1.119465	0.494909	-0.721185
C391	C	1.369465	0.744909	-0.471185
C392	C	1.619465	0.994909	-0.221185
C393	C	0.909757	0.216182	-0.938328
C394	C	1.159757	0.466182	-0.688328
C395	C	1.409757	0.716182	-0.438328
C396	C	1.659757	0.966182	-0.188328
C397	C	0.909653	0.216269	-0.139776
C398	C	1.159653	0.466269	0.110224
C399	C	1.409653	0.716269	0.360224
C400	C	1.659653	0.966269	0.610224
C401	C	0.909753	0.216146	-0.069808
C402	C	1.159753	0.466146	0.180192
C403	C	1.409753	0.716146	0.430192
C404	C	1.659753	0.966146	0.680192
H405	H	0.669930	0.268379	-0.230147
H406	H	0.919930	0.518379	0.019853
H407	H	1.169930	0.768379	0.269853
H408	H	1.419930	1.018379	0.519853
F409	F	1.032968	0.694010	-0.426825
F410	F	1.282968	0.944010	-0.176825
F411	F	1.532968	1.194010	0.073175
F412	F	1.782968	1.444010	0.323175
F413	F	0.277294	0.275499	-0.220096
F414	F	0.527294	0.525499	0.029904
F415	F	0.777294	0.775499	0.279904
F416	F	1.027294	1.025499	0.529904
F417	F	0.992788	1.050614	-0.386538
F418	F	1.242788	1.300614	-0.136538
F419	F	1.492788	1.550614	0.113462
F420	F	1.742788	1.800614	0.363462
H421	H	0.836664	0.268315	-0.944417
H422	H	1.086664	0.518315	-0.694417
H423	H	1.336664	0.768315	-0.444417
H424	H	1.586664	1.018315	-0.194417
H425	H	0.796420	0.603235	-0.189932
H426	H	1.046420	0.853235	0.060068
H427	H	1.296420	1.103235	0.310068
H428	H	1.546420	1.353235	0.560068
F429	F	0.277549	0.157061	-0.386594
F430	F	0.527549	0.407061	-0.136594
F431	F	0.777549	0.657061	0.113406
F432	F	1.027549	0.907061	0.363406
F433	F	0.826651	0.953903	-0.220155
F434	F	1.076651	1.203903	0.029845
F435	F	1.326651	1.453903	0.279845
F436	F	1.576651	1.703903	0.529845
F437	F	0.992785	0.953776	-0.386531
F438	F	1.242785	1.203776	-0.136531
F439	F	1.492785	1.453776	0.113469
F440	F	1.742785	1.703776	0.363469
F441	F	0.786377	0.694214	-0.179856
F442	F	1.036377	0.944214	0.070144
F443	F	1.286377	1.194214	0.320144
F444	F	1.536377	1.444214	0.570144
H445	H	0.982840	0.164012	-1.063716
H446	H	1.232840	0.414012	-0.813716
H447	H	1.482840	0.664012	-0.563716
H448	H	1.732840	0.914012	-0.313716
H449	H	0.982834	0.164112	-0.662878
H450	H	1.232834	0.414112	-0.412878
H451	H	1.482834	0.664112	-0.162878
H452	H	1.732834	0.914112	0.087122
F453	F	0.826572	0.275595	-0.535353
F454	F	1.076572	0.525595	-0.285353
F455	F	1.326572	0.775595	-0.035353
F456	F	1.576572	1.025595	0.214647
F457	F	1.032945	0.597161	-0.426816
F458	F	1.282945	0.847161	-0.176816
F459	F	1.532945	1.097161	0.073184
F460	F	1.782945	1.347161	0.323184
H461	H	0.982838	0.164146	-0.543614
H462	H	1.232838	0.414146	-0.293614
H463	H	1.482838	0.664146	-0.043614
H464	H	1.732838	0.914146	0.206386
H465	H	1.022935	0.828900	-0.416748
H466	H	1.272935	1.078900	-0.166748
H467	H	1.522935	1.328900	0.083252
H468	H	1.772935	1.578900	0.333252
F469	F	0.992681	0.478219	-0.386537
F470	F	1.242681	0.728219	-0.136537
F471	F	1.492681	0.978219	0.113463
F472	F	1.742681	1.228219	0.363463
F473	F	0.992919	0.156863	-0.936234
F474	F	1.242919	0.406863	-0.686234
F475	F	1.492919	0.656863	-0.436234
F476	F	1.742919	0.906863	-0.186234
F477	F	0.826583	0.275563	-0.671061
F478	F	1.076583	0.525563	-0.421061
F479	F	1.326583	0.775563	-0.171061
F480	F	1.576583	1.025563	0.078939
H481	H	0.836660	0.268279	-1.063685
H482	H	1.086660	0.518279	-0.813685
H483	H	1.336660	0.768279	-0.563685
H484	H	1.586660	1.018279	-0.313685
F485	F	0.678386	0.157117	-0.386567
F486	F	0.928386	0.407117	-0.136567
F487	F	1.178386	0.657117	0.113433
F488	F	1.428386	0.907117	0.363433
H489	H	0.550887	0.164268	-0.376486
H490	H	0.800887	0.414268	-0.126486
H491	H	1.050887	0.664268	0.123514
H492	H	1.300887	0.914268	0.373514
H493	H	0.150050	0.164212	-0.376512
H494	H	0.400050	0.414212	-0.126512
H495	H	0.650050	0.664212	0.123488
H496	H	0.900050	0.914212	0.373488
H497	H	0.982598	0.387241	-0.376454
H498	H	1.232598	0.637241	-0.126454
H499	H	1.482598	0.887241	0.123546
H500	H	1.732598	1.137241	0.373546
F501	F	1.032977	0.737923	-0.426825
F502	F	1.282977	0.987923	-0.176825
F503	F	1.532977	1.237923	0.073175
F504	F	1.782977	1.487923	0.323175
H505	H	0.836592	0.387371	-0.230239
H506	H	1.086592	0.637371	0.019761
H507	H	1.336592	0.887371	0.269761
H508	H	1.586592	1.137371	0.519761
H509	H	0.149822	0.268312	-0.230194
H510	H	0.399822	0.518312	0.019806
H511	H	0.649822	0.768312	0.269806
H512	H	0.899822	1.018312	0.519806
H513	H	0.550660	0.268363	-0.230165
H514	H	0.800660	0.518363	0.019835
H515	H	1.050660	0.768363	0.269835
H516	H	1.300660	1.018363	0.519835
H517	H	0.836617	0.472480	-0.230227
H518	H	1.086617	0.722480	0.019773
H519	H	1.336617	0.972480	0.269773
H520	H	1.586617	1.222480	0.519773
F521	F	0.786384	0.738135	-0.179845
F522	F	1.036384	0.988135	0.070155
F523	F	1.286384	1.238135	0.320155
F524	F	1.536384	1.488135	0.570155
H525	H	0.796474	0.829099	-0.189917
H526	H	1.046474	1.079099	0.060083
H527	H	1.296474	1.329099	0.310083
H528	H	1.546474	1.579099	0.560083
H529	H	0.836730	1.044884	-0.230238
H530	H	1.086730	1.294884	0.019762
H531	H	1.336730	1.544884	0.269762
H532	H	1.586730	1.794884	0.519762
