data_functionalizedCrystal
_audit_creation_method	'MofGen! by Chris Wilmer'
_symmetry_space_group_name_H-M	'P1'
_symmetry_Int_Tables_number	1
_symmetry_cell_setting	triclinic
loop_
_symmetry_equiv_pos_as_xyz
  x,y,z
_cell_length_a	17.038272
_cell_length_b	16.109318
_cell_length_c	15.186229
_cell_angle_alpha	90.000224
_cell_angle_beta	89.995962
_cell_angle_gamma	87.290060
loop_
_atom_site_label
_atom_site_type_symbol
_atom_site_fract_x
_atom_site_fract_y
_atom_site_fract_z
O1	O	0.100560	1.110263	-0.073156
O2	O	0.433893	1.443597	0.260178
O3	O	0.767227	1.776930	0.593511
O4	O	0.113052	0.869090	-0.073174
O5	O	0.446386	1.202424	0.260160
O6	O	0.779719	1.535757	0.593493
O7	O	-0.007009	0.988243	-0.073158
O8	O	0.326324	1.321577	0.260175
O9	O	0.659657	1.654910	0.593509
O10	O	0.220621	0.991110	-0.073172
O11	O	0.553955	1.324443	0.260162
O12	O	0.887288	1.657777	0.593495
O13	O	-0.007011	0.988235	0.073299
O14	O	0.326322	1.321568	0.406633
O15	O	0.659656	1.654901	0.739966
O16	O	0.113050	0.869082	0.073284
O17	O	0.446384	1.202415	0.406617
O18	O	0.779717	1.535748	0.739950
O19	O	0.100558	1.110255	0.073301
O20	O	0.433891	1.443588	0.406635
O21	O	0.767225	1.776921	0.739968
Zn22	Zn	0.106804	0.989667	0.096546
Zn23	Zn	0.440137	1.323000	0.429879
Zn24	Zn	0.773471	1.656333	0.763212
Zn25	Zn	0.106806	0.989678	-0.096418
Zn26	Zn	0.440140	1.323011	0.236915
Zn27	Zn	0.773473	1.656345	0.570249
O28	O	0.220620	0.991102	0.073286
O29	O	0.553953	1.324435	0.406619
O30	O	0.887286	1.657768	0.739952
C31	C	0.112543	0.838075	0.000053
C32	C	0.445876	1.171409	0.333386
C33	C	0.779210	1.504742	0.666719
C34	C	0.111019	0.745673	0.000046
C35	C	0.444352	1.079006	0.333379
C36	C	0.777685	1.412339	0.666713
C37	C	0.106097	0.446254	-0.079772
C38	C	0.439430	0.779587	0.253561
C39	C	0.772763	1.112921	0.586895
C40	C	0.107524	0.533077	-0.079778
C41	C	0.440857	0.866410	0.253556
C42	C	0.774190	1.199743	0.586889
C43	C	0.107511	0.533085	0.079898
C44	C	0.440844	0.866418	0.413232
C45	C	0.774178	1.199752	0.746565
C46	C	0.106079	0.446264	0.079903
C47	C	0.439412	0.779598	0.413236
C48	C	0.772745	1.112931	0.746569
C49	C	0.105375	0.402851	0.000065
C50	C	0.438709	0.736184	0.333398
C51	C	0.772042	1.069518	0.666732
C52	C	0.108235	0.576494	0.000055
C53	C	0.441568	0.909827	0.333388
C54	C	0.774902	1.243161	0.666722
C55	C	0.109782	0.670631	0.000050
C56	C	0.443115	1.003964	0.333383
C57	C	0.776449	1.337298	0.666716
C58	C	0.103827	0.308708	0.000070
C59	C	0.437160	0.642041	0.333403
C60	C	0.770493	0.975375	0.666737
C61	C	-0.036139	0.985632	0.000070
C62	C	0.297195	1.318965	0.333404
C63	C	0.630528	1.652298	0.666737
C64	C	-0.122932	0.977853	0.000070
C65	C	0.210401	1.311186	0.333403
C66	C	0.543735	1.644519	0.666736
C67	C	-0.173043	1.049273	0.000076
C68	C	0.160291	1.382607	0.333409
C69	C	0.493624	1.715940	0.666743
C70	C	-0.254593	1.041959	0.000067
C71	C	0.078740	1.375292	0.333400
C72	C	0.412073	1.708626	0.666734
C73	C	-0.286032	0.963224	0.000058
C74	C	0.047301	1.296557	0.333391
C75	C	0.380635	1.629890	0.666725
C76	C	-0.235915	0.891798	0.000049
C77	C	0.097418	1.225131	0.333383
C78	C	0.430752	1.558465	0.666716
C79	C	-0.154366	0.899113	0.000052
C80	C	0.178968	1.232446	0.333385
C81	C	0.512301	1.565780	0.666719
C82	C	-0.531791	0.937381	0.000044
C83	C	-0.198458	1.270715	0.333377
C84	C	0.134875	1.604048	0.666711
C85	C	-0.613347	0.930072	0.000044
C86	C	-0.280014	1.263405	0.333378
C87	C	0.053320	1.596738	0.666711
C88	C	-0.632020	1.080234	0.000060
C89	C	-0.298686	1.413567	0.333394
C90	C	0.034647	1.746900	0.666727
C91	C	-0.550468	1.087542	0.000068
C92	C	-0.217135	1.420875	0.333401
C93	C	0.116199	1.754208	0.666735
C94	C	-0.500358	1.016116	0.000055
C95	C	-0.167025	1.349449	0.333388
C96	C	0.166308	1.682783	0.666721
C97	C	-0.369390	0.955746	0.000052
C98	C	-0.036057	1.289079	0.333385
C99	C	0.297277	1.622412	0.666718
C100	C	-0.417002	1.023595	0.000055
C101	C	-0.083669	1.356928	0.333388
C102	C	0.249665	1.690261	0.666721
C103	C	0.249749	0.993713	0.000055
C104	C	0.583082	1.327047	0.333389
C105	C	0.916416	1.660380	0.666722
C106	C	0.336542	1.001492	0.000050
C107	C	0.669876	1.334826	0.333384
C108	C	1.003209	1.668159	0.666717
C109	C	0.101067	1.141270	0.000073
C110	C	0.434401	1.474603	0.333406
C111	C	0.767734	1.807936	0.666740
C112	C	0.102592	1.233672	0.000074
C113	C	0.435925	1.567006	0.333407
C114	C	0.769258	1.900339	0.666741
N115	N	0.106802	0.989665	0.228238
N116	N	0.440135	1.322998	0.561572
N117	N	0.773469	1.656332	0.894905
N118	N	0.106802	0.989686	-0.228111
N119	N	0.440135	1.323019	0.105223
N120	N	0.773469	1.656353	0.438556
C121	C	0.053657	1.042447	0.453968
C122	C	0.386990	1.375780	0.787302
C123	C	0.720323	1.709113	1.120635
C124	C	0.053655	1.042449	0.546158
C125	C	0.386988	1.375782	0.879491
C126	C	0.720321	1.709116	1.212825
C127	C	0.159950	0.936899	0.546153
C128	C	0.493283	1.270232	0.879486
C129	C	0.826617	1.603565	1.212820
C130	C	0.159948	0.936893	0.453965
C131	C	0.493281	1.270226	0.787298
C132	C	0.826614	1.603559	1.120632
C133	C	0.106802	0.989671	0.407875
C134	C	0.440135	1.323005	0.741208
C135	C	0.773468	1.656338	1.074542
C136	C	0.106802	0.989680	0.592253
C137	C	0.440136	1.323013	0.925586
C138	C	0.773469	1.656347	1.258919
C139	C	0.106801	0.989682	0.692209
C140	C	0.440134	1.323016	1.025542
C141	C	0.773467	1.656349	1.358875
C142	C	0.106802	0.989668	0.307913
C143	C	0.440135	1.323001	0.641246
C144	C	0.773469	1.656335	0.974579
H145	H	0.108085	0.568443	0.144899
H146	H	0.441419	0.901776	0.478233
H147	H	0.774752	1.235110	0.811566
H148	H	0.010381	1.085421	0.416444
H149	H	0.343714	1.418754	0.749777
H150	H	0.677048	1.752088	1.083111
Br151	Br	-0.278581	0.784941	0.000022
Br152	Br	0.054753	1.118275	0.333356
Br153	Br	0.388086	1.451608	0.666689
Br154	Br	0.108496	0.591978	-0.188133
Br155	Br	0.441830	0.925312	0.145201
Br156	Br	0.775163	1.258645	0.478534
Br157	Br	-0.018477	1.114071	0.608712
Br158	Br	0.314856	1.447404	0.942045
Br159	Br	0.648190	1.780738	1.275378
Br160	Br	0.232075	0.865275	0.608707
Br161	Br	0.565409	1.198608	0.942040
Br162	Br	0.898742	1.531942	1.275373
Br163	Br	0.232072	0.865257	0.391402
Br164	Br	0.565405	1.198591	0.724736
Br165	Br	0.898738	1.531924	1.058069
Br166	Br	-0.374334	1.130447	0.000059
Br167	Br	-0.041000	1.463780	0.333392
Br168	Br	0.292333	1.797113	0.666725
Br169	Br	0.105140	0.387338	-0.188122
Br170	Br	0.438474	0.720671	0.145211
Br171	Br	0.771807	1.054004	0.478544
H172	H	-0.113566	0.840955	0.000047
H173	H	0.219767	1.174288	0.333380
H174	H	0.553101	1.507621	0.666713
Br175	Br	0.105094	0.387355	0.188261
Br176	Br	0.438428	0.720688	0.521595
Br177	Br	0.771761	1.054022	0.854928
Br178	Br	-0.463795	0.840445	0.000020
Br179	Br	-0.130462	1.173779	0.333354
Br180	Br	0.202871	1.507112	0.666687
Br181	Br	-0.130384	1.156133	0.000101
Br182	Br	0.202949	1.489467	0.333434
Br183	Br	0.536282	1.822800	0.666767
H184	H	-0.295391	1.100117	0.000074
H185	H	0.037943	1.433451	0.333407
H186	H	0.371276	1.766784	0.666741
H187	H	-0.394997	0.891639	0.000047
H188	H	-0.061663	1.224972	0.333380
H189	H	0.271670	1.558305	0.666713
Br190	Br	-0.507807	1.194401	0.000052
Br191	Br	-0.174474	1.527734	0.333385
Br192	Br	0.158860	1.861067	0.666718
H193	H	-0.672828	1.138384	0.000070
H194	H	-0.339494	1.471717	0.333403
H195	H	-0.006161	1.805051	0.666736
H196	H	-0.638941	0.865953	0.000051
H197	H	-0.305607	1.199286	0.333385
H198	H	0.027726	1.532620	0.666718
