data_functionalizedCrystal
_audit_creation_method	'MofGen! by Chris Wilmer'
_symmetry_space_group_name_H-M	'P1'
_symmetry_Int_Tables_number	1
_symmetry_cell_setting	triclinic
loop_
_symmetry_equiv_pos_as_xyz
  x,y,z
_cell_length_a	6.817900
_cell_length_b	11.102233
_cell_length_c	17.078481
_cell_angle_alpha	95.113853
_cell_angle_beta	99.306161
_cell_angle_gamma	108.604751
loop_
_atom_site_label
_atom_site_type_symbol
_atom_site_fract_x
_atom_site_fract_y
_atom_site_fract_z
V1	V	-4.005697	-0.175543	-0.247366
O2	O	-3.966748	0.008741	-0.242653
O3	O	-3.983196	-0.348366	-0.245678
O4	O	-3.936322	-0.172709	-0.355249
O5	O	-4.013945	-0.168133	-0.132324
V6	V	-4.488687	-0.153517	-0.233605
O7	O	-4.268125	-0.223861	-0.277550
O8	O	-4.676457	-0.105199	-0.203421
O9	O	-4.287983	0.019307	-0.235293
O10	O	-4.645034	-0.337801	-0.238318
O11	O	-4.597837	-0.160927	-0.348647
O12	O	-4.334856	-0.156351	-0.125722
C13	C	-3.835175	-0.390501	-0.241777
C14	C	-3.897924	-0.531786	-0.241116
C15	C	-4.168681	-0.737381	-0.244134
C16	C	-4.109725	-0.604630	-0.244760
C17	C	-3.745068	-0.591696	-0.236837
C18	C	-3.804022	-0.724442	-0.236205
C19	C	-4.379213	-0.744848	-0.248712
C20	C	-4.320258	-0.612098	-0.249338
C21	C	-3.775383	-0.166431	-0.381544
C22	C	-3.800116	-0.165257	-0.469739
C23	C	-3.994019	-0.171050	-0.515215
C24	C	-4.017246	-0.169947	-0.598083
C25	C	-3.846572	-0.163059	-0.635474
C26	C	-3.652653	-0.157262	-0.589992
C27	C	-3.629423	-0.158357	-0.507124
C28	C	-3.896494	-0.159097	-0.882877
C29	C	-3.919741	-0.158007	-0.965751
C30	C	-4.284332	-0.170689	-0.973836
C31	C	-4.261090	-0.171791	-0.890968
C32	C	-4.067170	-0.165987	-0.845492
N33	N	-3.870312	-0.161935	-0.720179
N34	N	-4.043429	-0.167102	-0.760788
C35	C	-4.099347	0.061435	-0.239192
C36	C	-4.015835	0.202718	-0.239858
C37	C	-4.159139	-0.162633	-0.099423
C38	C	-4.113644	-0.163800	-0.011227
H39	H	-4.485865	-0.802658	-0.307485
Cl40	Cl	-3.652728	-0.151836	-0.825722
Cl41	Cl	-4.357314	-0.529994	-0.162981
H42	H	-4.175135	-0.174657	-0.635105
H43	H	-4.407444	-0.592814	-0.307039
H44	H	-3.513685	-0.151647	-0.620442
H45	H	-4.400074	-0.177398	-0.860529
Cl46	Cl	-4.528102	-0.177979	-1.031009
H47	H	-3.780745	-0.152395	-0.996192
Cl48	Cl	-3.385645	-0.151062	-0.449953
Cl49	Cl	-4.208600	-0.179718	-0.468217
H50	H	-3.572609	-0.532373	-0.233863
Cl51	Cl	-4.494241	-0.783479	-0.165046
Cl52	Cl	-3.611852	-0.799737	-0.230803
