data_functionalizedCrystal
_audit_creation_method	'MofGen! by Chris Wilmer'
_symmetry_space_group_name_H-M	'P1'
_symmetry_Int_Tables_number	1
_symmetry_cell_setting	triclinic
loop_
_symmetry_equiv_pos_as_xyz
  x,y,z
_cell_length_a	10.654544
_cell_length_b	16.109301
_cell_length_c	14.586319
_cell_angle_alpha	89.998390
_cell_angle_beta	90.006949
_cell_angle_gamma	96.026834
loop_
_atom_site_label
_atom_site_type_symbol
_atom_site_fract_x
_atom_site_fract_y
_atom_site_fract_z
O1	O	1.666262	-0.116768	0.076267
O2	O	2.166262	0.383232	0.576267
O3	O	1.300632	-0.127893	0.076264
O4	O	1.800632	0.372107	0.576264
O5	O	1.493491	-0.001359	0.076256
O6	O	1.993491	0.498641	0.576256
O7	O	1.473403	-0.243302	0.076274
O8	O	1.973403	0.256698	0.576274
O9	O	1.493467	-0.001367	-0.076225
O10	O	1.993467	0.498633	0.423775
O11	O	1.300608	-0.127901	-0.076217
O12	O	1.800608	0.372099	0.423783
O13	O	1.666238	-0.116775	-0.076214
O14	O	2.166238	0.383225	0.423786
Cu15	Cu	1.483421	-0.122339	-0.090138
Cu16	Cu	1.983421	0.377661	0.409862
Cu17	Cu	1.483449	-0.122330	0.090188
Cu18	Cu	1.983449	0.377670	0.590188
O19	O	1.473379	-0.243309	-0.076206
O20	O	1.973379	0.256691	0.423794
C21	C	1.253833	-0.127080	0.000023
C22	C	1.753833	0.372920	0.500023
C23	C	1.114423	-0.124636	0.000021
C24	C	1.614423	0.375364	0.500021
C25	C	1.114372	-0.124654	-0.166218
C26	C	1.614372	0.375346	0.333782
C27	C	1.048853	-0.123517	-0.249335
C28	C	1.548853	0.376483	0.250665
C29	C	0.917865	-0.121219	-0.249331
C30	C	1.417865	0.378781	0.250669
C31	C	0.852395	-0.120056	-0.166201
C32	C	1.352395	0.379944	0.333799
C33	C	0.917915	-0.121193	-0.083084
C34	C	1.417915	0.378807	0.416916
C35	C	1.048905	-0.123493	-0.083097
C36	C	1.548905	0.376507	0.416903
C37	C	0.917966	-0.121169	0.083153
C38	C	1.417966	0.378831	0.583153
C39	C	1.048953	-0.123473	0.083151
C40	C	1.548953	0.376527	0.583151
C41	C	0.852496	-0.120006	0.166282
C42	C	1.352496	0.379994	0.666282
C43	C	0.918015	-0.121149	0.249401
C44	C	1.418015	0.378851	0.749401
C45	C	1.049010	-0.123448	0.249394
C46	C	1.549010	0.376552	0.749394
C47	C	1.114472	-0.124610	0.166268
C48	C	1.614472	0.375390	0.666268
C49	C	1.492665	0.029617	0.000015
C50	C	1.992665	0.529617	0.500015
C51	C	1.490226	0.121927	0.000014
C52	C	1.990226	0.621927	0.500014
C53	C	1.713037	-0.117588	0.000029
C54	C	2.213037	0.382412	0.500029
C55	C	1.852447	-0.120032	0.000036
C56	C	2.352447	0.379968	0.500036
N57	N	1.483411	-0.122344	-0.216970
N58	N	1.983411	0.377656	0.283030
C59	C	1.474204	-0.274285	0.000036
C60	C	1.974204	0.225715	0.500036
C61	C	1.476644	-0.366595	0.000044
C62	C	1.976644	0.133405	0.500044
C63	C	1.598992	0.343552	0.000029
C64	C	2.098992	0.843552	0.500029
C65	C	1.596690	0.430287	0.000037
C66	C	2.096690	0.930287	0.500037
C67	C	1.367869	0.411773	0.000031
C68	C	1.867869	0.911773	0.500031
C69	C	1.370173	0.325040	0.000030
C70	C	1.870173	0.825040	0.500030
C71	C	1.485738	0.290933	0.000025
C72	C	1.985738	0.790933	0.500025
C73	C	1.481132	0.464399	0.000033
C74	C	1.981132	0.964399	0.500033
C75	C	1.478635	0.558440	0.000041
C76	C	1.978635	1.058440	0.500041
C77	C	1.488235	0.196886	0.000018
C78	C	1.988235	0.696886	0.500018
C79	C	1.559573	-0.173226	-0.451972
C80	C	2.059573	0.326774	0.048028
C81	C	1.559586	-0.173220	-0.547953
C82	C	2.059586	0.326780	-0.047953
C83	C	1.407304	-0.071430	-0.547972
C84	C	1.907304	0.428570	-0.047972
C85	C	1.407298	-0.071432	-0.451993
C86	C	1.907298	0.428568	0.048007
C87	C	1.483431	-0.122335	-0.403995
C88	C	1.983431	0.377665	0.096005
C89	C	1.483449	-0.122327	-0.595956
C90	C	1.983449	0.377673	-0.095956
C91	C	1.483463	-0.122321	-0.700023
C92	C	1.983463	0.377679	-0.200023
C93	C	1.483419	-0.122340	-0.299921
C94	C	1.983419	0.377660	0.200079
N95	N	1.483469	-0.122317	0.217020
N96	N	1.983469	0.377683	0.717020
H97	H	1.102349	-0.124371	0.317078
H98	H	1.602349	0.375629	0.817078
H99	H	1.221128	-0.126487	0.166254
H100	H	1.721128	0.373513	0.666254
H101	H	0.864518	-0.120300	-0.317012
H102	H	1.364518	0.379700	0.182988
H103	H	1.345292	-0.029986	-0.412929
H104	H	1.845292	0.470014	0.087071
F105	F	1.640608	-0.227396	-0.400892
F106	F	2.140608	0.272604	0.099108
H107	H	1.102173	-0.124462	-0.317017
H108	H	1.602173	0.375538	0.182983
H109	H	1.221027	-0.126536	-0.166229
H110	H	1.721027	0.373464	0.333771
F111	F	1.640630	-0.227384	-0.599009
F112	F	2.140630	0.272616	-0.099009
H113	H	0.745841	-0.118129	0.166280
H114	H	1.245841	0.381871	0.666280
F115	F	0.712987	-0.117605	-0.166201
F116	F	1.212987	0.382395	0.333799
F117	F	0.848334	-0.119892	0.337863
F118	F	1.348334	0.380108	0.837863
H119	H	1.345318	-0.029988	-0.587063
H120	H	1.845318	0.470012	-0.087063
F121	F	1.721986	0.307256	0.000024
F122	F	2.221986	0.807256	0.500024
H123	H	1.688913	0.473127	0.000042
H124	H	2.188913	0.973127	0.500042
F125	F	1.244883	0.448080	0.000038
F126	F	1.744883	0.948080	0.500038
F127	F	1.249625	0.269034	0.000032
F128	F	1.749625	0.769034	0.500032
