data_functionalizedCrystal
_audit_creation_method	'MofGen! by Chris Wilmer'
_symmetry_space_group_name_H-M	'P1'
_symmetry_Int_Tables_number	1
_symmetry_cell_setting	triclinic
loop_
_symmetry_equiv_pos_as_xyz
  x,y,z
_cell_length_a	10.654545
_cell_length_b	15.944551
_cell_length_c	9.730223
_cell_angle_alpha	89.994648
_cell_angle_beta	89.997167
_cell_angle_gamma	83.990908
loop_
_atom_site_label
_atom_site_type_symbol
_atom_site_fract_x
_atom_site_fract_y
_atom_site_fract_z
O1	O	1.666316	0.117958	-0.114279
O2	O	1.300691	0.129202	-0.114286
O3	O	1.493488	0.001363	-0.114270
O4	O	1.473519	0.245797	-0.114295
O5	O	1.493476	0.001360	0.114310
O6	O	1.300679	0.129199	0.114294
O7	O	1.666304	0.117955	0.114300
Zn8	Zn	1.483489	0.123576	0.150589
Zn9	Zn	1.483506	0.123581	-0.150575
O10	O	1.473507	0.245794	0.114285
C11	C	1.253898	0.128376	0.000004
C12	C	1.114486	0.125908	0.000002
C13	C	1.048990	0.124745	0.124602
C14	C	0.918001	0.122412	0.124602
C15	C	0.918015	0.122410	-0.124608
C16	C	1.049003	0.124737	-0.124607
C17	C	1.492653	-0.029937	0.000020
C18	C	1.490168	-0.123198	0.000021
C19	C	1.364723	-0.338779	-0.000000
C20	C	1.422969	-0.399462	0.112705
C21	C	1.485672	-0.293950	0.000010
C22	C	1.423010	-0.399441	-0.112657
C23	C	1.481320	-0.458887	-0.000006
C24	C	1.543951	-0.353404	0.112808
C25	C	1.543975	-0.353377	-0.112655
C26	C	1.602309	-0.414042	0.000077
C27	C	1.488175	-0.198933	0.000021
C28	C	1.478825	-0.553903	-0.000007
C29	C	1.713097	0.118781	0.000008
C30	C	1.852509	0.121249	0.000001
C31	C	1.474342	0.277094	-0.000008
C32	C	1.476827	0.370355	-0.000018
N33	N	1.483488	0.123573	0.356126
N34	N	1.483518	0.123578	-0.356111
C35	C	1.568887	0.066989	0.428059
C36	C	1.568899	0.066990	0.571942
C37	C	1.398109	0.180164	0.571946
C38	C	1.398092	0.180159	0.428066
H39	H	1.102303	0.125698	0.226066
H40	H	1.595059	-0.333119	0.208196
H41	H	1.371843	-0.419812	-0.207947
F42	F	1.307232	0.240386	0.648519
H43	H	1.638419	0.020912	0.369488
H44	H	1.702790	-0.446620	0.000142
F45	F	0.848300	0.121174	0.257218
H46	H	1.102332	0.125682	-0.226078
F47	F	1.307189	0.240382	0.351504
H48	H	1.371807	-0.419867	0.207986
H49	H	0.864682	0.121457	-0.226061
F50	F	1.610791	-0.326676	-0.237201
H51	H	1.638437	0.020914	0.630505
H52	H	1.264330	-0.306052	0.000111
