data_functionalizedCrystal
_audit_creation_method	'MofGen! by Chris Wilmer'
_symmetry_space_group_name_H-M	'P1'
_symmetry_Int_Tables_number	1
_symmetry_cell_setting	triclinic
loop_
_symmetry_equiv_pos_as_xyz
  x,y,z
_cell_length_a	15.944551
_cell_length_b	15.021413
_cell_length_c	16.109301
_cell_angle_alpha	89.999976
_cell_angle_beta	96.519890
_cell_angle_gamma	89.988701
loop_
_atom_site_label
_atom_site_type_symbol
_atom_site_fract_x
_atom_site_fract_y
_atom_site_fract_z
O1	O	1.114476	0.073942	-0.107222
O2	O	0.869922	0.073965	-0.120442
O3	O	0.998917	0.073944	0.007197
O4	O	0.985481	0.073963	-0.234861
O5	O	0.998932	-0.074121	0.007189
O6	O	0.869937	-0.074100	-0.120450
O7	O	1.114491	-0.074122	-0.107230
Zn8	Zn	0.992216	-0.097619	-0.113841
Zn9	Zn	0.992196	0.097462	-0.113831
O10	O	0.985496	-0.074101	-0.234869
C11	C	0.838635	-0.000065	-0.119897
C12	C	0.745390	-0.000056	-0.118252
C13	C	0.530561	-0.000080	-0.035203
C14	C	0.469520	0.072926	-0.073764
C15	C	0.574665	-0.000067	-0.115275
C16	C	0.469557	-0.073054	-0.073791
C17	C	0.409753	-0.000082	-0.112394
C18	C	0.514853	0.073000	-0.153859
C19	C	0.514896	-0.073046	-0.153874
C20	C	0.453874	-0.000021	-0.192494
C21	C	0.669667	-0.000058	-0.116933
C22	C	0.314753	-0.000084	-0.110743
N23	N	0.992236	-0.230757	-0.113848
C24	C	1.051895	-0.470426	-0.054814
C25	C	0.976000	-0.529749	-0.038663
C26	C	0.992216	-0.412364	-0.113838
C27	C	1.068092	-0.529782	-0.129940
C28	C	0.992204	-0.587788	-0.113826
C29	C	0.916284	-0.470381	-0.097649
C30	C	1.008425	-0.470408	-0.188958
C31	C	0.932476	-0.529705	-0.172839
C32	C	0.992224	-0.311306	-0.113842
C33	C	0.992187	-0.688843	-0.113821
C34	C	1.145777	-0.000091	-0.107775
C35	C	1.239022	-0.000093	-0.109420
C36	C	0.998380	-0.000089	0.038168
C37	C	0.996748	-0.000090	0.130464
N38	N	0.992183	0.230599	-0.113818
C39	C	0.986032	-0.000067	-0.265840
C40	C	0.987664	-0.000060	-0.358136
C41	C	1.069497	-0.000083	0.352712
C42	C	1.067958	-0.000075	0.439433
C43	C	0.914909	-0.000064	0.419608
C44	C	0.916450	-0.000066	0.332889
C45	C	0.993746	-0.000079	0.299444
C46	C	0.990666	-0.000071	0.472884
C47	C	0.988996	-0.000063	0.566910
C48	C	0.995417	-0.000086	0.205411
H49	H	0.420693	0.000025	-0.259016
N50	N	0.444383	-0.150474	-0.031283
N51	N	0.472183	-0.163466	0.043443
H52	H	0.454406	-0.218140	0.073471
H53	H	0.851977	-0.000055	0.446851
N54	N	0.540170	-0.150468	-0.196320
N55	N	0.616281	-0.162487	-0.204899
H56	H	0.634135	-0.217174	-0.234870
H57	H	0.852097	-0.444398	-0.083953
H58	H	1.129642	-0.000076	0.482802
H59	H	0.534823	0.134788	-0.187698
H60	H	1.102310	-0.444397	-0.004873
N61	N	0.958792	-0.562442	0.041041
N62	N	1.007187	-0.543445	0.105147
H63	H	0.995039	-0.566530	0.161441
N64	N	0.839060	-0.000053	0.278482
N65	N	0.770052	-0.000045	0.308352
H66	H	0.715397	-0.000032	0.269928
N67	N	1.025672	-0.437660	-0.268625
N68	N	1.027811	-0.355684	-0.281544
H69	H	1.040001	-0.332552	-0.337809
H70	H	0.449415	0.134643	-0.039893
N71	N	0.572364	0.000008	0.048178
N72	N	0.560799	0.062786	0.096525
H73	H	0.590322	0.062853	0.155412
H74	H	1.132264	-0.555874	-0.143565
N75	N	1.148450	-0.000107	0.318546
N76	N	1.199522	-0.062525	0.334871
H77	H	1.255285	-0.062542	0.310743
N78	N	0.869084	-0.562150	-0.235448
N79	N	0.793272	-0.542922	-0.232054
H80	H	0.748499	-0.565839	-0.276268
