data_functionalizedCrystal
_audit_creation_method	'MofGen! by Chris Wilmer'
_symmetry_space_group_name_H-M	'P1'
_symmetry_Int_Tables_number	1
_symmetry_cell_setting	triclinic
loop_
_symmetry_equiv_pos_as_xyz
  x,y,z
_cell_length_a	13.897448
_cell_length_b	19.077236
_cell_length_c	19.077271
_cell_angle_alpha	90.072744
_cell_angle_beta	87.674307
_cell_angle_gamma	92.310527
loop_
_atom_site_label
_atom_site_type_symbol
_atom_site_fract_x
_atom_site_fract_y
_atom_site_fract_z
Zn1	Zn	-0.301621	1.058321	-0.440556
Zn2	Zn	0.198379	1.558321	0.059444
Zn3	Zn	-0.469144	1.062974	-0.323050
Zn4	Zn	0.030856	1.562974	0.176950
Zn5	Zn	-0.314577	0.945536	-0.318334
Zn6	Zn	0.185423	1.445536	0.181666
Zn7	Zn	-0.469595	0.940794	-0.435790
Zn8	Zn	0.030405	1.440794	0.064210
O9	O	-0.388734	1.001906	-0.379433
O10	O	0.111266	1.501906	0.120567
O11	O	-0.318232	1.157271	-0.428937
O12	O	0.181768	1.657271	0.071063
O13	O	-0.453874	1.051328	-0.224092
O14	O	0.046126	1.551328	0.275908
O15	O	-0.177874	0.960535	-0.334568
O16	O	0.322126	1.460535	0.165432
O17	O	-0.441311	1.160690	-0.342606
O18	O	0.058689	1.660690	0.157394
O19	O	-0.168355	1.043397	-0.424364
O20	O	0.331645	1.543397	0.075636
O21	O	-0.340314	0.965047	-0.220627
O22	O	0.159686	1.465047	0.279373
O23	O	-0.340751	0.846574	-0.329947
O24	O	0.159249	1.346574	0.170053
O25	O	-0.442079	0.952452	-0.534755
O26	O	0.057921	1.452452	-0.034755
O27	O	-0.454643	0.843090	-0.416241
O28	O	0.045357	1.343090	0.083759
O29	O	-0.318669	1.038799	-0.538257
O30	O	0.181331	1.538799	-0.038257
O31	O	-0.604189	1.046730	-0.337984
O32	O	-0.104189	1.546730	0.162016
O33	O	-0.604520	0.956965	-0.420814
O34	O	-0.104520	1.456965	0.079186
C35	C	-0.399153	0.819335	-0.372066
C36	C	0.100847	1.319335	0.127934
C37	C	-0.403632	0.741230	-0.368931
C38	C	0.096368	1.241230	0.131069
C39	C	-0.639353	1.001856	-0.379410
C40	C	-0.139353	1.501856	0.120590
C41	C	-0.746563	1.001898	-0.379427
C42	C	-0.246563	1.501898	0.120573
C43	C	-0.942852	1.001970	-0.379474
C44	C	-0.442852	1.501970	0.120526
C45	C	-0.833623	1.001928	-0.379450
C46	C	-0.333623	1.501928	0.120550
C47	C	-0.341750	0.702754	-0.412474
C48	C	0.158250	1.202754	0.087526
C49	C	-0.345954	0.629366	-0.409523
C50	C	0.154046	1.129366	0.090477
C51	C	-0.412046	0.594455	-0.363030
C52	C	0.087954	1.094455	0.136970
C53	C	-0.473931	0.632937	-0.319482
C54	C	0.026069	1.132937	0.180518
C55	C	-0.469721	0.706323	-0.322430
C56	C	0.030279	1.206323	0.177570
C57	C	-0.431494	0.375163	-0.349381
C58	C	0.068506	0.875163	0.150619
C59	C	-0.435701	0.301771	-0.346437
C60	C	0.064299	0.801771	0.153563
C61	C	-0.307723	0.298205	-0.436477
C62	C	0.192277	0.798205	0.063523
C63	C	-0.303523	0.371594	-0.439425
C64	C	0.196477	0.871594	0.060575
C65	C	-0.365404	0.410069	-0.395874
C66	C	0.134596	0.910069	0.104126
N67	N	-0.416348	0.519441	-0.360013
N68	N	0.083652	1.019441	0.139987
N69	N	-0.361097	0.485082	-0.398887
N70	N	0.138903	0.985082	0.101113
C71	C	-0.137135	1.001976	-0.379471
C72	C	0.362865	1.501976	0.120529
C73	C	-0.029919	1.002005	-0.379488
C74	C	0.470081	1.502005	0.120512
C75	C	-0.378979	0.994577	-0.562715
C76	C	0.121021	1.494577	-0.062715
C77	C	-0.374822	0.991454	-0.640820
C78	C	0.125178	1.491454	-0.140820
C79	C	-0.378276	1.185190	-0.386829
C80	C	0.121724	1.685190	0.113171
C81	C	-0.373819	1.263295	-0.389981
C82	C	0.126181	1.763295	0.110019
C83	C	-0.345084	0.969054	-1.080271
C84	C	0.154916	1.469054	-0.580271
C85	C	-0.348986	0.971992	-1.006884
C86	C	0.151014	1.471992	-0.506884
C87	C	-0.410067	1.018379	-0.971993
C88	C	0.089933	1.518379	-0.471993
C89	C	-0.467242	1.061836	-1.010494
C90	C	0.032758	1.561836	-0.510494
C91	C	-0.463334	1.058901	-1.083880
C92	C	0.036666	1.558901	-0.583880
C93	C	-0.428090	1.031976	-0.752706
C94	C	0.071910	1.531976	-0.252706
C95	C	-0.431995	1.034906	-0.679315
C96	C	0.068005	1.534906	-0.179315
C97	C	-0.313737	0.945063	-0.675710
C98	C	0.186263	1.445063	-0.175710
C99	C	-0.309839	0.942129	-0.749097
C100	C	0.190161	1.442129	-0.249097
C101	C	-0.367011	0.985589	-0.787592
C102	C	0.132989	1.485589	-0.287592
N103	N	-0.414059	1.021382	-0.896980
N104	N	0.085941	1.521382	-0.396980
N105	N	-0.363013	0.982589	-0.862604
N106	N	0.136987	1.482589	-0.362604
C107	C	-0.398379	1.009247	-0.196864
C108	C	0.101621	1.509247	0.303136
C109	C	-0.402257	1.012507	-0.118766
C110	C	0.097743	1.512507	0.381234
H111	H	-0.295565	0.598042	-0.444982
H112	H	0.204435	1.098042	0.055018
H113	H	-0.481883	0.406481	-0.313919
H114	H	0.018117	0.906481	0.186081
H115	H	-0.509889	1.094286	-1.115222
H116	H	-0.009889	1.594286	-0.615222
H117	H	-0.249707	0.400013	-0.477287
H118	H	0.250293	0.900013	0.022713
O119	O	-0.277464	0.736553	-0.457658
O120	O	0.222536	1.236553	0.042342
C121	C	-0.223765	0.686852	-0.495470
C122	C	0.276235	1.186852	0.004530
H123	H	-0.224895	0.635686	-0.464588
H124	H	0.275105	1.135686	0.035412
H125	H	-0.146161	0.707762	-0.503917
H126	H	0.353839	1.207762	-0.003917
H127	H	-0.256813	0.676918	-0.548478
H128	H	0.243187	1.176918	-0.048478
H129	H	-0.257342	0.266871	-0.471933
H130	H	0.242658	0.766871	0.028067
H131	H	-0.527740	0.604507	-0.281623
H132	H	-0.027740	1.104507	0.218377
O133	O	-0.499935	0.267969	-0.301209
O134	O	0.000065	0.767969	0.198791
C135	C	-0.553668	0.317663	-0.263415
C136	C	-0.053668	0.817663	0.236585
H137	H	-0.511280	0.370075	-0.263127
H138	H	-0.011280	0.870075	0.236873
H139	H	-0.568004	0.298656	-0.207187
H140	H	-0.068004	0.798656	0.292813
H141	H	-0.625169	0.324443	-0.289366
H142	H	-0.125169	0.824443	0.210634
O143	O	-0.529935	0.743594	-0.280108
O144	O	-0.029935	1.243594	0.219892
C145	C	-0.589158	0.697046	-0.238428
C146	C	-0.089158	1.197046	0.261572
H147	H	-0.594029	0.643587	-0.265104
H148	H	-0.094029	1.143587	0.234896
H149	H	-0.664329	0.718544	-0.231688
H150	H	-0.164329	1.218544	0.268312
H151	H	-0.557008	0.691369	-0.184791
H152	H	-0.057008	1.191369	0.315209
H153	H	-0.295348	0.931279	-1.108673
H154	H	0.204652	1.431279	-0.608673
H155	H	-0.302431	0.936608	-0.975544
H156	H	0.197569	1.436608	-0.475544
H157	H	-0.260105	0.904353	-0.777500
H158	H	0.239895	1.404353	-0.277500
H159	H	-0.267190	0.909682	-0.644360
H160	H	0.232810	1.409682	-0.144360
O161	O	-0.491360	1.080027	-0.645532
O162	O	0.008640	1.580027	-0.145532
C163	C	-0.541006	1.117741	-0.695243
C164	C	-0.041006	1.617741	-0.195243
H165	H	-0.498568	1.118108	-0.747658
H166	H	0.001432	1.618108	-0.247658
H167	H	-0.549282	1.173946	-0.676263
H168	H	-0.049282	1.673946	-0.176263
H169	H	-0.615313	1.091668	-0.702006
H170	H	-0.115313	1.591668	-0.202006
H171	H	-0.474645	1.067363	-0.784040
H172	H	0.025355	1.567363	-0.284040
H173	H	-0.516971	1.099608	-0.982080
H174	H	-0.016971	1.599608	-0.482080
