data_functionalizedCrystal
_audit_creation_method	'MofGen! by Chris Wilmer'
_symmetry_space_group_name_H-M	'P1'
_symmetry_Int_Tables_number	1
_symmetry_cell_setting	triclinic
loop_
_symmetry_equiv_pos_as_xyz
  x,y,z
_cell_length_a	17.699077
_cell_length_b	23.532407
_cell_length_c	22.610064
_cell_angle_alpha	89.999397
_cell_angle_beta	89.992344
_cell_angle_gamma	83.064627
loop_
_atom_site_label
_atom_site_type_symbol
_atom_site_fract_x
_atom_site_fract_y
_atom_site_fract_z
O1	O	1.003719	0.071995	-0.049183
O2	O	0.783292	0.081368	-0.049186
O3	O	0.900152	-0.006231	-0.049174
O4	O	0.886858	0.159594	-0.049196
O5	O	0.900132	-0.006219	0.049196
O6	O	0.783271	0.081381	0.049183
O7	O	1.003698	0.072007	0.049186
Zn8	Zn	0.893481	0.076696	0.064803
Zn9	Zn	0.893509	0.076679	-0.064803
O10	O	0.886838	0.159607	0.049174
C11	C	0.755086	0.081039	-0.000002
C12	C	0.671073	0.080033	-0.000003
C13	C	0.631597	0.079566	0.053619
C14	C	0.552659	0.078612	0.053619
C15	C	0.513198	0.078129	-0.000002
C16	C	0.552681	0.078594	-0.053628
C17	C	0.631617	0.079544	-0.053628
C18	C	0.234337	0.074762	-0.053629
C19	C	0.155394	0.073813	-0.053624
C20	C	0.155378	0.073829	0.053619
C21	C	0.234315	0.074780	0.053619
C22	C	0.273791	0.075242	-0.000007
C23	C	0.359384	0.076275	-0.000007
C24	C	0.427606	0.077099	-0.000003
C25	C	0.899803	-0.027442	0.000012
C26	C	0.898786	-0.090662	0.000017
C27	C	0.961557	-0.489586	-0.000014
C28	C	0.960612	-0.548989	-0.000019
O29	O	1.018802	-0.585567	-0.000040
N30	N	0.891138	-0.571813	-0.000020
C31	C	0.822606	-0.535231	-0.000022
O32	O	0.763427	-0.560100	-0.000023
C33	C	0.823552	-0.475830	-0.000022
C34	C	0.893030	-0.453009	-0.000015
C35	C	1.031029	-0.466764	-0.000008
C36	C	1.031975	-0.407365	-0.000003
C37	C	0.963448	-0.370788	-0.000003
C38	C	0.893975	-0.393610	-0.000009
C39	C	0.755021	-0.439249	-0.000028
C40	C	0.755973	-0.379844	-0.000028
C41	C	0.825451	-0.357023	-0.000022
C42	C	0.826393	-0.297634	-0.000004
N43	N	0.895867	-0.274809	-0.000003
C44	C	0.964394	-0.311386	-0.000003
C45	C	0.820624	-0.659980	-0.000024
C46	C	0.819677	-0.719380	-0.000020
C47	C	0.957683	-0.733133	-0.000018
C48	C	0.958629	-0.673732	-0.000017
C49	C	0.890097	-0.637155	-0.000023
C50	C	0.966374	-0.186644	0.000009
C51	C	0.967313	-0.127239	0.000017
C52	C	0.829307	-0.113491	0.000012
C53	C	0.828368	-0.172891	0.000007
C54	C	0.896907	-0.209466	0.000004
O55	O	0.768234	-0.261021	0.000014
O56	O	1.023563	-0.286509	-0.000009
C57	C	1.031904	0.072336	0.000001
C58	C	1.115917	0.073342	-0.000002
C59	C	0.887187	0.180817	-0.000014
C60	C	0.888204	0.244037	-0.000022
N61	N	0.893468	0.076707	0.153255
N62	N	0.893528	0.076664	-0.153255
C63	C	0.945257	0.037896	0.561902
C64	C	0.945260	0.037892	0.623822
O65	O	0.989260	0.004902	0.655846
N66	N	0.893508	0.076668	0.654792
C67	C	0.841743	0.115446	0.623839
O68	O	0.797724	0.148427	0.655868
C69	C	0.841736	0.115447	0.561921
C70	C	0.893497	0.076673	0.530954
C71	C	0.997013	-0.000875	0.530935
C72	C	0.997010	-0.000870	0.469020
C73	C	0.945250	0.037906	0.438071
C74	C	0.893494	0.076678	0.469038
C75	C	0.789969	0.154222	0.530969
C76	C	0.789966	0.154219	0.469046
C77	C	0.841727	0.115445	0.438079
C78	C	0.841732	0.115459	0.376174
N79	N	0.893484	0.076684	0.345204
C80	C	0.945243	0.037907	0.376152
C81	C	0.841761	0.115440	0.753873
C82	C	0.841771	0.115442	0.815791
C83	C	0.945287	0.037888	0.815769
C84	C	0.945280	0.037889	0.753850
C85	C	0.893513	0.076665	0.722903
C86	C	0.945233	0.037921	0.246125
C87	C	0.945228	0.037931	0.184204
C88	C	0.841709	0.115483	0.184231
C89	C	0.841717	0.115475	0.246146
C90	C	0.893482	0.076690	0.277092
O91	O	0.797752	0.148431	0.344111
O92	O	0.989249	0.004927	0.344116
H93	H	0.266469	0.075136	-0.097294
N94	N	0.115066	0.073357	0.108404
N95	N	0.116597	0.113599	0.144299
H96	H	0.088129	0.113267	0.182991
H97	H	0.764813	-0.630201	-0.000023
N98	N	0.998090	-0.001680	0.152564
N99	N	0.998083	-0.001675	0.097280
H100	H	1.035414	-0.029650	0.074934
H101	H	0.799569	0.147056	0.159023
N102	N	1.101043	-0.504112	0.000001
N103	N	1.147332	-0.502069	0.041471
H104	H	1.196785	-0.528442	0.041483
H105	H	0.123267	0.073419	-0.097292
H106	H	1.023892	-0.108662	0.000024
N107	N	0.671887	0.080073	0.108398
N108	N	0.636627	0.079660	0.156271
H109	H	0.665079	0.080020	0.194961
N110	N	0.788837	0.155079	0.277776
N111	N	0.718890	0.154359	0.270862
H112	H	0.681536	0.182326	0.293197
H113	H	0.663758	0.079926	-0.097293
N114	N	0.759319	-0.076114	0.000017
N115	N	0.760181	-0.023079	0.000020
H116	H	0.710752	0.003320	0.000020
N117	N	0.512348	0.078131	0.108398
N118	N	0.547589	0.078564	0.156270
H119	H	0.519121	0.078222	0.194961
N120	N	0.274621	0.075284	0.108392
N121	N	0.258518	0.115311	0.144291
H122	H	0.286984	0.115666	0.182976
N123	N	0.512364	0.078094	-0.108397
N124	N	0.441886	0.077246	-0.108390
H125	H	0.413412	0.076894	-0.147072
N126	N	1.036391	-0.223991	0.000004
N127	N	1.098409	-0.203597	0.000010
H128	H	1.147860	-0.229972	0.000009
N129	N	0.998112	-0.001703	0.277720
N130	N	1.044314	-0.036315	0.250054
H131	H	1.081663	-0.064298	0.272367
N132	N	1.102952	-0.384068	0.000002
N133	N	1.164126	-0.416742	-0.000000
H134	H	1.214258	-0.400293	0.000001
H135	H	1.015204	-0.655155	-0.000012
N136	N	1.027677	-0.770511	-0.000014
N137	N	1.026814	-0.823546	-0.000015
H138	H	1.076244	-0.849945	-0.000010
N139	N	0.737088	0.193839	0.437444
N140	N	0.737724	0.246478	0.444368
H141	H	0.700381	0.274461	0.422051
H142	H	0.763101	-0.737955	-0.000015
H143	H	0.698445	-0.457819	-0.000037
N144	N	0.685960	-0.342491	-0.000041
N145	N	0.623938	-0.362880	-0.000050
H146	H	0.574490	-0.336501	-0.000060
N147	N	0.757393	-0.196196	0.000019
N148	N	0.696214	-0.163528	0.000028
H149	H	0.646086	-0.179983	0.000034
N150	N	1.049942	-0.040440	0.437402
N151	N	1.096183	-0.075029	0.465052
H152	H	1.133589	-0.102964	0.442726
H153	H	0.987428	0.006315	0.728641
N154	N	1.049890	-0.040494	0.562533
N155	N	1.096090	-0.075106	0.534865
H156	H	1.133442	-0.103088	0.557176
H157	H	0.987431	0.006313	0.840979
H158	H	0.799630	0.147022	0.841000
H159	H	0.799608	0.147021	0.728679
H160	H	0.747820	0.185795	0.556174
