data_functionalizedCrystal
_audit_creation_method	'MofGen! by Chris Wilmer'
_symmetry_space_group_name_H-M	'P1'
_symmetry_Int_Tables_number	1
_symmetry_cell_setting	triclinic
loop_
_symmetry_equiv_pos_as_xyz
  x,y,z
_cell_length_a	12.759401
_cell_length_b	12.759400
_cell_length_c	12.759393
_cell_angle_alpha	89.969258
_cell_angle_beta	89.981756
_cell_angle_gamma	90.013728
loop_
_atom_site_label
_atom_site_type_symbol
_atom_site_fract_x
_atom_site_fract_y
_atom_site_fract_z
Zn1	Zn	1.606252	-0.418240	-0.593983
Zn2	Zn	2.106252	0.081760	-0.093983
Zn3	Zn	1.606148	-0.593956	-0.418303
Zn4	Zn	2.106148	-0.093956	0.081697
Zn5	Zn	1.430555	-0.418289	-0.418323
Zn6	Zn	1.930555	0.081711	0.081677
Zn7	Zn	1.430543	-0.593874	-0.593945
Zn8	Zn	1.930543	-0.093874	-0.093945
O9	O	1.518374	-0.506090	-0.506138
O10	O	2.018374	-0.006090	-0.006138
O11	O	1.753259	-0.441563	-0.570687
O12	O	2.253259	0.058437	-0.070687
O13	O	1.582816	-0.570708	-0.271285
O14	O	2.082816	-0.070708	0.228715
O15	O	1.453911	-0.271261	-0.441648
O16	O	1.953911	0.228739	0.058352
O17	O	1.753182	-0.570661	-0.441616
O18	O	2.253182	-0.070661	0.058384
O19	O	1.582994	-0.271225	-0.570706
O20	O	2.082994	0.228775	-0.070706
O21	O	1.453809	-0.441646	-0.271299
O22	O	1.953809	0.058354	0.228701
O23	O	1.283532	-0.441567	-0.441611
O24	O	1.783532	0.058433	0.058389
O25	O	1.453890	-0.570521	-0.740971
O26	O	1.953890	-0.070521	-0.240971
O27	O	1.283523	-0.570569	-0.570640
O28	O	1.783523	-0.070569	-0.070640
O29	O	1.582983	-0.441483	-0.740999
O30	O	2.082983	0.058517	-0.240999
O31	O	1.582804	-0.740966	-0.441579
O32	O	2.082804	-0.240966	0.058421
O33	O	1.453788	-0.740906	-0.570621
O34	O	1.953788	-0.240906	-0.070621
C35	C	1.245407	-0.506065	-0.506124
C36	C	1.745407	-0.006065	-0.006124
C37	C	1.128630	-0.506080	-0.506143
C38	C	1.628630	-0.006080	-0.006143
C39	C	1.518312	-0.779057	-0.506117
C40	C	2.018312	-0.279057	-0.006117
C41	C	1.518381	-0.895834	-0.506142
C42	C	2.018381	-0.395834	-0.006142
C43	C	1.073801	-0.438985	-0.573454
C44	C	1.573801	0.061015	-0.073454
C45	C	0.964077	-0.439005	-0.573461
C46	C	1.464077	0.060995	-0.073461
C47	C	0.964021	-0.573224	-0.438841
C48	C	1.464021	-0.073224	0.061159
C49	C	1.073743	-0.573197	-0.438830
C50	C	1.573743	-0.073197	0.061170
C51	C	1.128689	-0.371868	-0.640766
C52	C	1.628689	0.128132	-0.140766
C53	C	1.073860	-0.304769	-0.708084
C54	C	1.573860	0.195231	-0.208084
C55	C	0.964136	-0.304789	-0.708091
C56	C	1.464136	0.195211	-0.208091
C57	C	0.909241	-0.371908	-0.640780
C58	C	1.409241	0.128092	-0.140780
C59	C	1.585635	-0.950692	-0.439024
C60	C	2.085635	-0.450692	0.060976
C61	C	1.585699	-1.060416	-0.439056
C62	C	2.085699	-0.560416	0.060944
C63	C	1.451248	-1.060414	-0.573328
C64	C	1.951248	-0.560414	-0.073328
C65	C	1.451190	-0.950692	-0.573301
C66	C	1.951190	-0.450692	-0.073301
C67	C	1.652826	-0.895834	-0.371866
C68	C	2.152826	-0.395834	0.128134
C69	C	1.720084	-0.950693	-0.304741
C70	C	2.220084	-0.450693	0.195259
C71	C	1.720149	-1.060417	-0.304774
C72	C	2.220149	-0.560417	0.195226
C73	C	1.652955	-1.115282	-0.371931
C74	C	2.152955	-0.615282	0.128069
C75	C	1.792408	-0.506115	-0.506154
C76	C	2.292408	-0.006115	-0.006154
C77	C	1.909184	-0.506126	-0.506160
C78	C	2.409184	-0.006126	-0.006160
C79	C	1.518446	-0.505988	-0.780172
C80	C	2.018446	-0.005988	-0.280172
C81	C	1.518477	-0.505944	-0.896949
C82	C	2.018477	-0.005944	-0.396949
C83	C	1.518466	-0.232056	-0.506183
C84	C	2.018466	0.267944	-0.006183
C85	C	1.518504	-0.115280	-0.506203
C86	C	2.018504	0.384720	-0.006203
C87	C	1.451312	-0.573068	-1.061523
C88	C	1.951312	-0.073068	-0.561523
C89	C	1.451280	-0.573106	-0.951798
C90	C	1.951280	-0.073106	-0.451798
C91	C	1.585704	-0.438732	-0.951829
C92	C	2.085704	0.061268	-0.451829
C93	C	1.585730	-0.438689	-1.061551
C94	C	2.085730	0.061311	-0.561551
C95	C	1.384119	-0.640242	-1.116367
C96	C	1.884119	-0.140242	-0.616367
C97	C	1.316890	-0.707453	-1.061494
C98	C	1.816890	-0.207453	-0.561494
C99	C	1.316858	-0.707491	-0.951770
C100	C	1.816858	-0.207491	-0.451770
C101	C	1.384054	-0.640318	-0.896918
C102	C	1.884054	-0.140318	-0.396918
C103	C	1.518363	-0.506116	-0.233171
C104	C	2.018363	-0.006116	0.266829
C105	C	1.518536	-0.505863	-0.116395
C106	C	2.018536	-0.005863	0.383605
H107	H	1.218032	-0.371843	-0.640768
H108	H	1.718032	0.128157	-0.140768
H109	H	1.384019	-0.640352	-0.807574
H110	H	1.884019	-0.140352	-0.307574
H111	H	0.819896	-0.371896	-0.640768
H112	H	1.319896	0.128104	-0.140768
H113	H	1.396542	-1.105094	-0.628004
H114	H	1.896542	-0.605094	-0.128004
H115	H	1.118562	-0.250116	-0.762880
H116	H	1.618562	0.249884	-0.262880
H117	H	1.640464	-0.383960	-1.106229
H118	H	2.140464	0.116040	-0.606229
H119	H	1.118386	-0.627832	-0.384019
H120	H	1.618386	-0.127832	0.115981
H121	H	1.384139	-0.640220	-1.205710
H122	H	1.884139	-0.140220	-0.705710
H123	H	1.652778	-0.806491	-0.371829
H124	H	2.152778	-0.306491	0.128171
H125	H	1.262175	-0.762135	-1.106162
H126	H	1.762175	-0.262135	-0.606162
H127	H	0.919497	-0.250146	-0.762897
H128	H	1.419497	0.249854	-0.262897
H129	H	0.919317	-0.627871	-0.384042
H130	H	1.419317	-0.127871	0.115958
H131	H	1.640412	-0.384044	-0.907160
H132	H	2.140412	0.115956	-0.407160
H133	H	1.774920	-1.105080	-0.250125
H134	H	2.274920	-0.605080	0.249875
H135	H	1.774797	-0.906015	-0.250070
H136	H	2.274797	-0.406015	0.249930
H137	H	1.653022	-1.204627	-0.371960
H138	H	2.153022	-0.704627	0.128040
H139	H	1.396427	-0.906025	-0.627955
H140	H	1.896427	-0.406025	-0.127955
H141	H	1.262109	-0.762209	-0.907096
H142	H	1.762109	-0.262209	-0.407096
