data_functionalizedCrystal
_audit_creation_method	'MofGen! by Chris Wilmer'
_symmetry_space_group_name_H-M	'P1'
_symmetry_Int_Tables_number	1
_symmetry_cell_setting	triclinic
loop_
_symmetry_equiv_pos_as_xyz
  x,y,z
_cell_length_a	23.532407
_cell_length_b	15.538191
_cell_length_c	14.185569
_cell_angle_alpha	82.127072
_cell_angle_beta	103.075328
_cell_angle_gamma	65.060386
loop_
_atom_site_label
_atom_site_type_symbol
_atom_site_fract_x
_atom_site_fract_y
_atom_site_fract_z
O1	O	0.714627	0.136060	-0.083289
O2	O	0.545387	0.152645	-0.083318
O3	O	0.662950	0.006914	-0.083302
O4	O	0.597064	0.281790	-0.083304
O5	O	0.697678	-0.036131	0.083537
O6	O	0.580115	0.109599	0.083521
O7	O	0.749355	0.093014	0.083550
Cu8	Cu	0.667906	0.097377	0.098769
Cu9	Cu	0.626836	0.148283	-0.098537
O10	O	0.631792	0.238745	0.083535
C11	C	0.541620	0.130701	0.000098
C12	C	0.478659	0.129435	0.000087
C13	C	0.687207	-0.049768	0.000115
C14	C	0.707738	-0.154532	0.000108
C15	C	0.503745	-0.440410	0.000095
C16	C	0.523055	-0.538858	0.000101
C17	C	0.631663	-0.562322	0.000119
C18	C	0.612362	-0.463873	0.000108
C19	C	0.548402	-0.402925	0.000098
C20	C	0.657019	-0.426387	0.000111
C21	C	0.637720	-0.327948	0.000106
C22	C	0.573764	-0.266994	0.000098
C23	C	0.529103	-0.304485	0.000093
C24	C	0.720979	-0.487339	0.000129
C25	C	0.765636	-0.449853	0.000131
C26	C	0.746336	-0.351410	0.000119
C27	C	0.682380	-0.290457	0.000111
C28	C	0.790997	-0.313920	0.000124
C29	C	0.771698	-0.215480	0.000119
C30	C	0.663081	-0.192018	0.000106
C31	C	0.063651	0.207700	0.000132
C32	C	0.004492	0.206520	0.000138
O33	O	-0.046997	0.279074	0.000174
N34	N	-0.000522	0.119885	0.000137
C35	C	0.053631	0.034424	0.000140
O36	O	0.043934	-0.039374	0.000140
C37	C	0.112790	0.035604	0.000141
C38	C	0.117797	0.122246	0.000132
C39	C	0.068660	0.294335	0.000124
C40	C	0.127815	0.295516	0.000116
C41	C	0.181961	0.210062	0.000116
C42	C	0.176952	0.123427	0.000124
C43	C	0.166943	-0.049859	0.000151
C44	C	0.226104	-0.048672	0.000153
C45	C	0.231111	0.037970	0.000144
C46	C	0.290253	0.039153	0.000116
N47	N	0.295266	0.125787	0.000117
C48	C	0.241120	0.211241	0.000117
C49	C	-0.070609	0.031952	0.000139
C50	C	-0.129769	0.030773	0.000131
C51	C	-0.178903	0.202869	0.000131
C52	C	-0.119744	0.204049	0.000132
C53	C	-0.065596	0.118586	0.000141
C54	C	0.365352	0.213715	0.000099
C55	C	0.424513	0.214889	0.000087
C56	C	0.473643	0.042792	0.000092
C57	C	0.414486	0.041619	0.000099
C58	C	0.360340	0.127087	0.000106
O59	O	0.341770	-0.033364	0.000084
O60	O	0.250830	0.285024	0.000130
C61	C	0.753121	0.114959	0.000132
C62	C	0.816081	0.116227	0.000137
C63	C	0.607535	0.295428	0.000115
C64	C	0.587002	0.400193	0.000115
N65	N	0.696797	0.061571	0.237544
N66	N	0.597951	0.184081	-0.237312
C67	C	0.513079	0.289235	0.605170
C68	C	0.534966	0.262120	0.710195
C69	C	0.639073	0.133123	0.710169
C70	C	0.617194	0.160225	0.605143
C71	C	0.554196	0.238282	0.552652
C72	C	0.658311	0.109272	0.552624
C73	C	0.636435	0.136375	0.447607
C74	C	0.573441	0.214432	0.395108
C75	C	0.532320	0.265386	0.447634
C76	C	0.721311	0.031219	0.605117
C77	C	0.762428	-0.019734	0.552598
C78	C	0.740550	0.007365	0.447579
C79	C	0.677556	0.085421	0.395080
C80	C	0.781671	-0.043590	0.395053
C81	C	0.759794	-0.016486	0.290035
C82	C	0.655679	0.112524	0.290063
H83	H	0.610998	-0.142387	0.000090
N84	N	0.703415	0.053379	0.763796
N85	N	0.718221	-0.030828	0.752069
H86	H	0.763663	-0.087151	0.789943
H87	H	0.270192	-0.118268	0.000160
H88	H	0.817713	-0.499491	0.000144
N89	N	0.448725	0.368958	0.551529
N90	N	0.407306	0.354423	0.492933
H91	H	0.361858	0.410725	0.455047
N92	N	0.477427	-0.577137	0.000075
N93	N	0.461434	-0.611302	-0.070253
H94	H	0.429209	-0.638336	-0.070271
H95	H	0.739121	0.009158	0.690629
H96	H	0.813722	-0.083287	0.595349
H97	H	0.501477	0.303620	0.752950
H98	H	0.558053	-0.186841	0.000100
H99	H	0.410407	-0.028928	0.000092
H100	H	-0.115672	0.274599	0.000131
H101	H	0.683740	-0.611960	0.000131
N102	N	0.463773	-0.242208	0.000088
N103	N	0.446555	-0.154320	0.000089
H104	H	0.400418	-0.110336	0.000088
N105	N	0.132942	0.384004	0.000136
N106	N	0.185762	0.385061	0.000144
H107	H	0.189381	0.447558	0.000164
H108	H	0.451662	-0.390780	0.000079
N109	N	0.740703	-0.587900	0.000159
N110	N	0.739710	-0.644739	0.070487
H111	H	0.753641	-0.715762	0.070512
N112	N	0.161834	-0.138362	0.000188
N113	N	0.109019	-0.139428	0.000205
H114	H	0.105413	-0.201940	0.000237
N115	N	0.528964	-0.044499	0.000120
N116	N	0.553455	-0.120380	0.070462
H117	H	0.592530	-0.182033	0.070491
H118	H	0.843075	-0.363560	0.000143
H119	H	0.808062	-0.184960	0.000122
H120	H	0.428583	0.285447	0.000079
N121	N	0.310056	0.301024	0.000112
N122	N	0.314549	0.378364	0.000105
H123	H	0.275497	0.440028	0.000110
H124	H	0.832966	-0.107139	0.437805
N125	N	0.801722	-0.068592	0.236326
N126	N	0.821329	-0.158833	0.248049
H127	H	0.850914	-0.195650	0.210089
N128	N	0.013363	0.381640	0.000131
N129	N	0.017859	0.458977	0.000127
H130	H	-0.021194	0.520644	0.000126
H131	H	-0.223000	0.272449	0.000136
N132	N	-0.134873	-0.057732	0.000118
N133	N	-0.086518	-0.134018	0.000112
H134	H	-0.090119	-0.196530	0.000107
N135	N	-0.015306	-0.055360	0.000144
N136	N	-0.019798	-0.132700	0.000144
H137	H	0.019257	-0.194365	0.000150
N138	N	0.591328	0.192266	0.236449
N139	N	0.576514	0.276472	0.248181
H140	H	0.531069	0.332789	0.210316
N141	N	0.551077	0.242126	0.287835
N142	N	0.494828	0.311817	0.240981
H143	H	0.479032	0.331377	0.165219
N144	N	0.467963	0.345115	0.394022
N145	N	0.431252	0.390600	0.440922
H146	H	0.385802	0.446907	0.403059
