data_functionalizedCrystal
_audit_creation_method	'MofGen! by Chris Wilmer'
_symmetry_space_group_name_H-M	'P1'
_symmetry_Int_Tables_number	1
_symmetry_cell_setting	triclinic
loop_
_symmetry_equiv_pos_as_xyz
  x,y,z
_cell_length_a	19.188930
_cell_length_b	19.188930
_cell_length_c	17.666332
_cell_angle_alpha	90.011603
_cell_angle_beta	89.976766
_cell_angle_gamma	96.855221
loop_
_atom_site_label
_atom_site_type_symbol
_atom_site_fract_x
_atom_site_fract_y
_atom_site_fract_z
O1	O	0.926150	-0.087169	-0.063200
O2	O	1.426150	0.412831	0.436800
O3	O	0.722838	-0.098903	-0.063149
O4	O	1.222838	0.401097	0.436851
O5	O	0.830361	0.008620	-0.063161
O6	O	1.330361	0.508620	0.436839
O7	O	0.818627	-0.194692	-0.063188
O8	O	1.318627	0.305308	0.436812
O9	O	0.830342	0.008625	0.062735
O10	O	1.330342	0.508625	0.562735
O11	O	0.722820	-0.098897	0.062747
O12	O	1.222820	0.401103	0.562747
O13	O	0.926131	-0.087163	0.062697
O14	O	1.426131	0.412837	0.562697
Cu15	Cu	0.824473	-0.093030	0.074217
Cu16	Cu	1.324473	0.406970	0.574217
Cu17	Cu	0.824496	-0.093036	-0.074670
Cu18	Cu	1.324496	0.406964	0.425330
O19	O	0.818608	-0.194686	0.062709
O20	O	1.318608	0.305314	0.562709
C21	C	0.696818	-0.098520	-0.000194
C22	C	1.196818	0.401480	0.499806
C23	C	0.619313	-0.097380	-0.000174
C24	C	1.119313	0.402620	0.499826
C25	C	0.574389	-0.160470	-0.000194
C26	C	1.074389	0.339530	0.499806
C27	C	0.501566	-0.159399	-0.000203
C28	C	1.001566	0.340601	0.499797
C29	C	0.473669	-0.095233	-0.000206
C30	C	0.973669	0.404767	0.499794
C31	C	0.518603	-0.032133	-0.000181
C32	C	1.018603	0.467867	0.499819
C33	C	0.591425	-0.033207	-0.000166
C34	C	1.091425	0.466793	0.499834
N35	N	0.365695	-0.046188	-0.043078
N36	N	0.865695	0.453812	0.456922
N37	N	0.296517	-0.045172	-0.043095
N38	N	0.796517	0.454828	0.456905
C39	C	0.254260	-0.091994	-0.000252
C40	C	0.754260	0.408006	0.499748
N41	N	0.283795	-0.139881	0.042599
N42	N	0.783795	0.360119	0.542599
N43	N	0.352979	-0.140899	0.042612
N44	N	0.852979	0.359101	0.542612
C45	C	0.394707	-0.094062	-0.000222
C46	C	0.894707	0.405938	0.499778
C47	C	0.130372	-0.153928	-0.000280
C48	C	0.630372	0.346072	0.499720
C49	C	0.057547	-0.152853	-0.000283
C50	C	0.557547	0.347147	0.499717
C51	C	0.074586	-0.025586	-0.000270
C52	C	0.574586	0.474414	0.499730
C53	C	0.147409	-0.026662	-0.000258
C54	C	0.647409	0.473338	0.499742
C55	C	0.175298	-0.090835	-0.000267
C56	C	0.675298	0.409165	0.499733
C57	C	0.829972	0.034634	-0.000211
C58	C	1.329972	0.534634	0.499789
C59	C	0.828831	0.112138	-0.000204
C60	C	1.328831	0.612138	0.499796
C61	C	0.952151	-0.087546	-0.000260
C62	C	1.452151	0.412454	0.499740
C63	C	1.029656	-0.088687	-0.000285
C64	C	1.529656	0.411313	0.499715
C65	C	0.818997	-0.220700	-0.000244
C66	C	1.318997	0.279300	0.499756
C67	C	0.820138	-0.298204	-0.000255
C68	C	1.320138	0.201796	0.499745
N69	N	0.824463	-0.093025	0.178937
N70	N	1.324463	0.406975	0.678937
C71	C	0.891922	0.157062	-0.000216
C72	C	1.391922	0.657062	0.499784
C73	C	0.890850	0.229886	-0.000228
C74	C	1.390850	0.729886	0.499772
C75	C	0.826684	0.257782	-0.000212
C76	C	1.326684	0.757782	0.499788
C77	C	0.763585	0.212849	-0.000205
C78	C	1.263585	0.712849	0.499795
C79	C	0.764658	0.140026	-0.000200
C80	C	1.264658	0.640026	0.499800
N81	N	0.777630	0.365789	0.042645
N82	N	1.277630	0.865789	0.542645
N83	N	0.776615	0.434968	0.042642
N84	N	1.276615	0.934968	0.542642
C85	C	0.823446	0.477191	-0.000227
C86	C	1.323446	0.977191	0.499773
N87	N	0.871341	0.447624	-0.043084
N88	N	1.371341	0.947624	0.456916
N89	N	0.872359	0.378439	-0.043079
N90	N	1.372359	0.878439	0.456921
C91	C	0.825513	0.336745	-0.000218
C92	C	1.325513	0.836745	0.499782
C93	C	0.885379	0.601079	-0.000253
C94	C	1.385379	1.101079	0.499747
C95	C	0.884305	0.673904	-0.000270
C96	C	1.384305	1.173904	0.499730
C97	C	0.757038	0.656865	-0.000239
C98	C	1.257038	1.156865	0.499761
C99	C	0.758114	0.584042	-0.000230
C100	C	1.258114	1.084042	0.499770
C101	C	0.822287	0.556154	-0.000233
C102	C	1.322287	1.056154	0.499767
N103	N	0.824512	-0.093036	-0.179390
N104	N	1.324512	0.406964	0.320610
C105	C	0.872089	-0.045437	0.218541
C106	C	1.372089	0.454563	0.718541
C107	C	0.872093	-0.045433	0.297789
C108	C	1.372093	0.454567	0.797789
C109	C	0.824478	-0.093030	0.337429
C110	C	1.324478	0.406970	0.837429
C111	C	0.776842	-0.140621	0.297815
C112	C	1.276842	0.359379	0.797815
C113	C	0.776835	-0.140619	0.218569
C114	C	1.276835	0.359381	0.718569
N115	N	0.815401	-0.154837	0.461841
N116	N	1.315401	0.345163	0.961841
N117	N	0.815413	-0.154837	0.537121
N118	N	1.315413	0.345163	1.037121
C119	C	0.824496	-0.093040	0.576193
C120	C	1.324496	0.406960	1.076193
N121	N	0.833582	-0.031239	0.537140
N122	N	1.333582	0.468761	1.037140
N123	N	0.833574	-0.031240	0.461853
N124	N	1.333574	0.468760	0.961853
C125	C	0.824480	-0.093038	0.423358
C126	C	1.324480	0.406962	0.923358
C127	C	0.872130	-0.045444	0.701727
C128	C	1.372130	0.454556	1.201727
C129	C	0.872129	-0.045440	0.780976
C130	C	1.372129	0.454560	1.280976
C131	C	0.776881	-0.140634	0.781000
C132	C	1.276881	0.359366	1.281000
C133	C	0.776878	-0.140632	0.701753
C134	C	1.276878	0.359368	1.201753
C135	C	0.824506	-0.093038	0.662121
C136	C	1.324506	0.406962	1.162121
H137	H	0.495885	0.020111	-0.000194
H138	H	0.995885	0.520111	0.499806
C139	C	0.696081	0.091363	-0.000144
C140	C	1.196081	0.591363	0.499856
C141	C	0.639654	0.131376	-0.000117
C142	C	1.139654	0.631376	0.499883
C143	C	0.576470	0.086570	-0.000053
C144	C	1.076470	0.586570	0.499947
H145	H	0.693762	0.062572	-0.044030
H146	H	1.193762	0.562572	0.455970
H147	H	0.693809	0.062623	0.043781
H148	H	1.193809	0.562623	0.543781
H149	H	0.641924	0.160103	-0.044038
H150	H	1.141924	0.660103	0.455962
H151	H	0.641949	0.160164	0.043766
H152	H	1.141949	0.660164	0.543766
H153	H	0.574199	0.057830	0.043872
H154	H	1.074199	0.557830	0.543872
H155	H	0.574159	0.057781	-0.043941
H156	H	1.074159	0.557781	0.456059
H157	H	0.538177	0.113711	-0.000028
H158	H	1.038177	0.613711	0.499972
H159	H	0.051874	0.026659	-0.000319
H160	H	0.551874	0.526659	0.499681
H161	H	0.738109	-0.179385	0.813275
H162	H	1.238109	0.320615	1.313275
C163	C	0.955029	0.570757	-0.000112
C164	C	1.455029	1.070757	0.499888
C165	C	0.959367	0.529481	0.064672
C166	C	1.459367	1.029481	0.564672
C167	C	1.023523	0.501548	0.064831
C168	C	1.523523	1.001548	0.564831
H169	H	0.958168	0.542644	-0.043961
H170	H	1.458168	1.042644	0.456039
H171	H	0.992471	0.607928	-0.000087
H172	H	1.492471	1.107928	0.499913
H173	H	0.921936	0.492315	0.064640
H174	H	1.421936	0.992315	0.564640
H175	H	0.956241	0.557578	0.108531
H176	H	1.456241	1.057578	0.608531
H177	H	1.060965	0.538718	0.064856
H178	H	1.560965	1.038718	0.564856
H179	H	1.026656	0.473438	0.020979
H180	H	1.526656	0.973438	0.520979
H181	H	1.026477	0.473544	0.108789
H182	H	1.526477	0.973544	0.608789
H183	H	0.738072	-0.179374	0.330094
H184	H	1.238072	0.320626	0.830094
C185	C	0.160521	-0.223669	-0.000241
C186	C	0.660521	0.276331	0.499759
C187	C	0.105588	-0.278694	-0.000233
C188	C	0.605588	0.221306	0.499767
C189	C	0.133332	-0.342949	-0.000187
C190	C	0.633332	0.157051	0.499813
H191	H	0.188586	-0.226836	-0.044128
H192	H	0.688586	0.273164	0.455872
H193	H	0.188533	-0.226767	0.043683
H194	H	0.688533	0.273233	0.543683
H195	H	0.077587	-0.275597	-0.044153
H196	H	0.577587	0.224403	0.455847
H197	H	0.077518	-0.275550	0.043651
H198	H	0.577518	0.224450	0.543651
H199	H	0.161344	-0.346047	0.043737
H200	H	0.661344	0.153953	0.543737
H201	H	0.161397	-0.346109	-0.044075
H202	H	0.661397	0.153891	0.455925
H203	H	0.096064	-0.380291	-0.000175
H204	H	0.596064	0.119709	0.499825
C205	C	0.196154	0.041861	-0.000403
C206	C	0.696154	0.541861	0.499597
C207	C	0.183626	0.080498	-0.065184
C208	C	0.683626	0.580498	0.434816
C209	C	0.228522	0.143624	-0.065345
C210	C	0.728522	0.643624	0.434655
H211	H	0.187737	0.068268	0.043448
H212	H	0.687737	0.568268	0.543448
H213	H	0.243530	0.032062	-0.000434
H214	H	0.743530	0.532062	0.499566
H215	H	0.136261	0.090298	-0.065145
H216	H	0.636261	0.590298	0.434855
H217	H	0.192048	0.054112	-0.109046
H218	H	0.692048	0.554112	0.390954
H219	H	0.275899	0.133826	-0.065377
H220	H	0.775899	0.633826	0.434623
H221	H	0.220102	0.170025	-0.021491
H222	H	0.720102	0.670025	0.478509
H223	H	0.220033	0.169845	-0.109301
H224	H	0.720033	0.669845	0.390699
H225	H	0.910878	-0.006680	0.330041
H226	H	1.410878	0.493320	0.830041
H227	H	0.910909	-0.006688	0.669457
H228	H	1.410909	0.493312	1.169457
H229	H	0.738099	-0.179386	0.669505
H230	H	1.238099	0.320614	1.169505
C231	C	0.923921	0.006261	0.823841
C232	C	1.423921	0.506261	1.323841
C233	C	0.965640	0.047925	0.772167
C234	C	1.465640	0.547925	1.272167
C235	C	1.013366	0.095552	0.811628
C236	C	1.513366	0.595552	1.311628
H237	H	0.898986	0.035334	0.854779
H238	H	1.398986	0.535334	1.354779
H239	H	0.952942	-0.018773	0.854717
H240	H	1.452942	0.481227	1.354717
H241	H	0.936623	0.072956	0.741305
H242	H	1.436623	0.572956	1.241305
H243	H	0.990591	0.018871	0.741228
H244	H	1.490591	0.518871	1.241228
H245	H	1.042387	0.070519	0.842504
H246	H	1.542387	0.570519	1.342504
H247	H	0.988425	0.124621	0.842564
H248	H	1.488425	0.624621	1.342564
H249	H	1.041683	0.123822	0.776574
H250	H	1.541683	0.623822	1.276574
H251	H	0.706738	0.547464	-0.000216
H252	H	1.206738	1.047464	0.499784
H253	H	0.020970	-0.204232	-0.000295
H254	H	0.520970	0.295768	0.499705
H255	H	0.944176	0.134360	-0.000222
H256	H	1.444176	0.634360	0.499778
H257	H	0.711340	0.235567	-0.000194
H258	H	1.211340	0.735567	0.499806
C259	C	0.959405	0.278591	-0.000355
C260	C	1.459405	0.778591	0.499645
C261	C	0.998082	0.265997	-0.065119
C262	C	1.498082	0.765997	0.434881
C263	C	1.061242	0.310842	-0.065256
C264	C	1.561242	0.810842	0.434744
H265	H	0.949671	0.325979	-0.000394
H266	H	1.449671	0.825979	0.499606
H267	H	0.985753	0.270156	0.043523
H268	H	1.485753	0.770156	0.543523
H269	H	0.971739	0.274437	-0.108986
H270	H	1.471739	0.774437	0.391014
H271	H	1.007835	0.218618	-0.065094
H272	H	1.507835	0.718618	0.434906
H273	H	1.087590	0.302407	-0.021378
H274	H	1.587590	0.802407	0.478622
H275	H	1.051501	0.358227	-0.065293
H276	H	1.551501	0.858227	0.434707
H277	H	1.087495	0.302298	-0.109194
H278	H	1.587495	0.802298	0.390806
C279	C	0.604532	-0.230213	-0.000156
C280	C	1.104532	0.269787	0.499844
C281	C	0.549596	-0.285237	-0.000154
C282	C	1.049596	0.214763	0.499846
C283	C	0.577338	-0.349493	-0.000106
C284	C	1.077338	0.150507	0.499894
H285	H	0.632601	-0.233381	-0.044039
H286	H	1.132601	0.266619	0.455961
H287	H	0.632539	-0.233313	0.043772
H288	H	1.132539	0.266687	0.543772
H289	H	0.521601	-0.282138	-0.044078
H290	H	1.021601	0.217862	0.455922
H291	H	0.521523	-0.282092	0.043726
H292	H	1.021523	0.217908	0.543726
H293	H	0.605345	-0.352593	0.043822
H294	H	1.105345	0.147407	0.543822
H295	H	0.605407	-0.352653	-0.043990
H296	H	1.105407	0.147347	0.456010
H297	H	0.540069	-0.386834	-0.000098
H298	H	1.040069	0.113166	0.499902
C299	C	0.923824	0.006320	0.175650
C300	C	1.423824	0.506320	0.675650
C301	C	0.965522	0.048009	0.227302
C302	C	1.465522	0.548009	0.727302
C303	C	1.013179	0.095702	0.187817
C304	C	1.513179	0.595702	0.687817
H305	H	0.952872	-0.018641	0.144708
H306	H	1.452872	0.481359	0.644708
H307	H	0.898814	0.035364	0.144776
H308	H	1.398814	0.535364	0.644776
H309	H	0.990530	0.018969	0.258163
H310	H	1.490530	0.518969	0.758163
H311	H	0.936493	0.072985	0.258246
H312	H	1.436493	0.572985	0.758246
H313	H	0.988169	0.124747	0.156944
H314	H	1.488169	0.624747	0.656944
H315	H	1.042223	0.070736	0.156877
H316	H	1.542223	0.570736	0.656877
H317	H	1.041472	0.123998	0.222857
H318	H	1.541472	0.623998	0.722857
C319	C	0.725096	-0.192371	0.175702
C320	C	1.225096	0.307629	0.675702
C321	C	0.683404	-0.234065	0.227374
C322	C	1.183404	0.265935	0.727374
C323	C	0.635742	-0.281754	0.187911
C324	C	1.135742	0.218246	0.687911
H325	H	0.696043	-0.167407	0.144805
H326	H	1.196043	0.332593	0.644805
H327	H	0.750102	-0.221412	0.144786
H328	H	1.250102	0.278588	0.644786
H329	H	0.658400	-0.205027	0.258277
H330	H	1.158400	0.294973	0.758277
H331	H	0.712437	-0.259044	0.258273
H332	H	1.212437	0.240956	0.758273
H333	H	0.660748	-0.310796	0.156995
H334	H	1.160748	0.189204	0.656995
H335	H	0.606694	-0.256785	0.157015
H336	H	1.106694	0.243215	0.657015
H337	H	0.607453	-0.310053	0.222965
H338	H	1.107453	0.189947	0.722965
H339	H	0.464982	-0.210776	-0.000217
H340	H	0.964982	0.289224	0.499783
H341	H	0.628003	0.018171	-0.000150
H342	H	1.128003	0.518171	0.499850
H343	H	0.935683	0.710481	-0.000284
H344	H	1.435683	1.210481	0.499716
H345	H	0.704792	0.679578	-0.000230
H346	H	1.204792	1.179578	0.499770
