data_functionalizedCrystal
_audit_creation_method	'MofGen! by Chris Wilmer'
_symmetry_space_group_name_H-M	'P1'
_symmetry_Int_Tables_number	1
_symmetry_cell_setting	triclinic
loop_
_symmetry_equiv_pos_as_xyz
  x,y,z
_cell_length_a	12.837942
_cell_length_b	12.837943
_cell_length_c	11.295483
_cell_angle_alpha	85.461227
_cell_angle_beta	94.530417
_cell_angle_gamma	94.828940
loop_
_atom_site_label
_atom_site_type_symbol
_atom_site_fract_x
_atom_site_fract_y
_atom_site_fract_z
O1	O	0.265788	1.408689	-0.099003
O2	O	0.252345	1.105556	-0.099010
O3	O	0.107500	1.250401	-0.098999
O4	O	0.410633	1.263845	-0.099013
O5	O	0.120201	1.237676	0.099051
O6	O	0.265045	1.092832	0.099040
O7	O	0.278489	1.395965	0.099047
Cu8	Cu	0.272927	1.243237	0.117127
Cu9	Cu	0.257907	1.258285	-0.117090
O10	O	0.423333	1.251121	0.099037
C11	C	0.254153	1.060125	0.000014
C12	C	0.240609	0.943710	0.000012
C13	C	0.074781	1.239497	0.000025
C14	C	-0.041634	1.225953	0.000023
C15	C	0.403439	0.718835	0.000021
C16	C	0.390717	0.609453	0.000020
C17	C	0.202446	0.615561	0.000016
C18	C	0.215167	0.724943	0.000017
C19	C	0.315667	0.776576	0.000018
C20	C	0.328387	0.885961	0.000011
C21	C	0.140117	0.892066	0.000016
C22	C	0.127396	0.782684	0.000015
C23	C	-0.266509	1.388784	0.000002
C24	C	-0.375892	1.376062	-0.000000
C25	C	-0.369784	1.187791	0.000008
C26	C	-0.260402	1.200512	0.000010
C27	C	-0.208768	1.301011	0.000009
C28	C	-0.099383	1.313731	0.000020
C29	C	-0.093278	1.125461	0.000019
C30	C	-0.202660	1.112740	0.000017
C31	C	0.456052	1.262024	0.000010
C32	C	0.572467	1.275569	0.000004
N33	N	0.283491	1.232661	0.281863
C34	C	0.276680	1.441396	0.000021
C35	C	0.290224	1.557812	0.000015
N36	N	0.247335	1.268868	-0.281825
C37	C	0.171231	1.344996	0.531161
C38	C	0.179223	1.337012	0.655824
C39	C	0.307459	1.208702	0.655854
C40	C	0.299467	1.216687	0.531191
C41	C	0.231353	1.284837	0.468849
C42	C	0.223367	1.292826	0.344183
C43	C	0.351597	1.164512	0.344216
C44	C	0.359589	1.156528	0.468879
H45	H	0.410219	0.928000	0.000014
O46	O	0.114381	1.401909	0.723024
H47	H	0.062757	1.349183	0.779826
H48	H	0.362909	1.153209	0.706630
O49	O	0.416439	1.099614	0.277004
H50	H	0.468048	1.152346	0.220191
H51	H	0.167908	1.348320	0.293425
H52	H	-0.057344	1.395563	0.000023
H53	H	0.115777	1.400494	0.480401
H54	H	0.485269	0.760876	0.000020
H55	H	0.462191	0.562444	0.000025
H56	H	-0.224468	1.470613	0.000013
O57	O	0.094057	0.559862	0.000033
H58	H	0.099963	0.474101	0.000035
O59	O	0.433061	1.083032	0.536121
H60	H	0.428525	1.087592	0.633276
O61	O	0.019006	0.726985	0.000012
H62	H	-0.018516	0.744254	0.080736
H63	H	0.068646	0.939091	0.000006
H64	H	-0.422901	1.447536	-0.000010
H65	H	-0.411844	1.105969	-0.000004
H66	H	-0.046252	1.053990	0.000034
O67	O	-0.258350	1.004346	0.000034
H68	H	-0.344111	1.010243	0.000043
