data_functionalizedCrystal
_audit_creation_method	'MofGen! by Chris Wilmer'
_symmetry_space_group_name_H-M	'P1'
_symmetry_Int_Tables_number	1
_symmetry_cell_setting	triclinic
loop_
_symmetry_equiv_pos_as_xyz
  x,y,z
_cell_length_a	17.699083
_cell_length_b	17.699083
_cell_length_c	16.776229
_cell_angle_alpha	90.000683
_cell_angle_beta	89.992455
_cell_angle_gamma	96.716985
loop_
_atom_site_label
_atom_site_type_symbol
_atom_site_fract_x
_atom_site_fract_y
_atom_site_fract_z
O1	O	0.095713	-1.004078	-0.066170
O2	O	0.108165	-0.783700	-0.066198
O3	O	-0.008250	-0.900116	-0.066176
O4	O	0.212128	-0.887663	-0.066192
O5	O	-0.008257	-0.900100	0.066400
O6	O	0.108158	-0.783685	0.066378
O7	O	0.095706	-1.004063	0.066406
Zn8	Zn	0.101931	-0.893871	0.087442
Zn9	Zn	0.101940	-0.893892	-0.087233
O10	O	0.212121	-0.887648	0.066385
C11	C	0.107716	-0.755495	0.000087
C12	C	0.106377	-0.671477	0.000076
C13	C	0.174710	-0.622856	0.000071
C14	C	0.173448	-0.543913	0.000081
C15	C	0.103852	-0.513592	0.000090
C16	C	0.035513	-0.562219	0.000097
C17	C	0.036776	-0.641161	0.000093
C18	C	0.030418	-0.243856	0.000115
C19	C	0.029160	-0.164908	0.000117
C20	C	0.167090	-0.146608	0.000103
C21	C	0.168353	-0.225550	0.000098
C22	C	0.100015	-0.274170	0.000110
C23	C	0.101384	-0.359769	0.000101
C24	C	0.102481	-0.427995	0.000093
C25	C	-0.036451	-0.899662	0.000112
C26	C	-0.120469	-0.898323	0.000112
C27	C	-0.169090	-0.966656	0.000122
C28	C	-0.248033	-0.965394	0.000115
C29	C	-0.278354	-0.895798	0.000103
C30	C	-0.229727	-0.827459	0.000091
C31	C	-0.150785	-0.828722	0.000093
C32	C	-0.548090	-0.822364	0.000084
C33	C	-0.627038	-0.821106	0.000085
C34	C	-0.645338	-0.959036	0.000106
C35	C	-0.566396	-0.960299	0.000108
C36	C	-0.517776	-0.891961	0.000091
C37	C	-0.432177	-0.893330	0.000098
C38	C	-0.363951	-0.894427	0.000103
C39	C	0.240322	-0.888102	0.000095
C40	C	0.324340	-0.889440	0.000089
N41	N	0.101924	-0.893863	0.206653
C42	C	0.096156	-0.032268	0.000118
C43	C	0.097494	-0.116286	0.000117
N44	N	0.101941	-0.893906	-0.206445
C45	C	0.050396	-0.945428	0.248380
C46	C	0.050396	-0.945432	0.331832
C47	C	0.101927	-0.893875	0.373556
C48	C	0.153457	-0.842305	0.331823
C49	C	0.153454	-0.842297	0.248373
C50	C	0.153472	-0.842332	0.668370
C51	C	0.153473	-0.842345	0.751827
C52	C	0.050414	-0.945466	0.751830
C53	C	0.050411	-0.945459	0.668379
C54	C	0.101938	-0.893887	0.626654
C55	C	0.101937	-0.893882	0.536165
C56	C	0.101932	-0.893882	0.464043
H57	H	0.229092	-0.504328	0.000076
O58	O	0.209020	-0.786668	0.203367
H59	H	0.200351	-0.795314	0.138330
O60	O	-0.697780	-1.032746	0.000123
H61	H	-0.687006	-1.066074	-0.053901
O62	O	-0.039555	-0.529522	0.000114
H63	H	-0.043434	-0.493997	-0.053923
H64	H	0.225025	-0.250232	0.000087
H65	H	0.008452	-0.987444	0.634410
H66	H	0.222734	-0.107012	0.000097
H67	H	-0.651721	-0.764429	0.000077
H68	H	-0.018868	-0.680748	0.000097
H69	H	0.231384	-0.647537	0.000063
O70	O	-0.005172	-1.001063	0.376831
H71	H	-0.064166	-0.991547	0.360819
O72	O	-0.300478	-1.039096	0.000124
H73	H	-0.336895	-1.041806	0.054155
O74	O	-0.495653	-0.748660	0.000087
H75	H	-0.530002	-0.700056	0.000093
O76	O	-0.045908	-0.132201	0.000140
H77	H	-0.093216	-0.179271	0.000158
H78	H	-0.144409	-1.023330	0.000136
H79	H	-0.254420	-0.770792	0.000077
O80	O	0.209045	-0.786702	0.376823
H81	H	0.199476	-0.727718	0.360824
H82	H	0.008456	-0.987457	0.785811
O83	O	-0.533697	-1.035366	0.000108
H84	H	-0.553247	-1.068197	0.054141
O85	O	-0.043286	-0.296293	0.000127
H86	H	-0.091890	-0.261944	0.000127
H87	H	0.195437	-0.800358	0.785797
O88	O	-0.098338	-0.755021	0.000091
H89	H	-0.132682	-0.706413	0.000092
O90	O	-0.005187	-1.001033	0.203378
H91	H	-0.041023	-1.036883	0.246417
H92	H	0.195428	-0.800342	0.634404
