data_functionalizedCrystal
_audit_creation_method	'MofGen! by Chris Wilmer'
_symmetry_space_group_name_H-M	'P1'
_symmetry_Int_Tables_number	1
_symmetry_cell_setting	triclinic
loop_
_symmetry_equiv_pos_as_xyz
  x,y,z
_cell_length_a	15.944551
_cell_length_b	15.944551
_cell_length_c	15.021413
_cell_angle_alpha	89.996935
_cell_angle_beta	89.997174
_cell_angle_gamma	96.501262
loop_
_atom_site_label
_atom_site_type_symbol
_atom_site_fract_x
_atom_site_fract_y
_atom_site_fract_z
O1	O	1.114529	-0.108321	-0.073941
O2	O	0.869979	-0.121677	-0.073964
O3	O	0.998932	0.007276	-0.073944
O4	O	0.985576	-0.237274	-0.073961
O5	O	0.998912	0.007257	0.074121
O6	O	0.869959	-0.121695	0.074101
O7	O	1.114508	-0.108339	0.074123
Zn8	Zn	0.992230	-0.115020	0.097620
Zn9	Zn	0.992257	-0.114996	-0.097461
O10	O	0.985555	-0.237292	0.074103
C11	C	0.838675	-0.121132	0.000066
C12	C	0.745429	-0.119470	0.000057
C13	C	0.530572	-0.035565	0.000081
C14	C	0.469562	-0.074518	-0.072926
C15	C	0.574703	-0.116462	0.000068
C16	C	0.469564	-0.074556	0.073054
C17	C	0.409790	-0.113551	0.000083
C18	C	0.514921	-0.155438	-0.072998
C19	C	0.514930	-0.155464	0.073047
C20	C	0.453937	-0.194476	0.000023
C21	C	0.669705	-0.118137	0.000059
C22	C	0.314789	-0.111883	0.000085
C23	C	0.998367	0.038561	0.000089
C24	C	0.996705	0.131807	0.000089
C25	C	1.145813	-0.108885	0.000092
C26	C	1.239059	-0.110547	0.000094
C27	C	0.986120	-0.268577	0.000069
C28	C	0.987782	-0.361823	0.000063
N29	N	0.992218	-0.115036	0.230758
C30	C	0.912801	0.346663	0.000069
C31	C	0.951753	0.407672	0.073077
C32	C	0.993698	0.302533	0.000082
C33	C	0.951792	0.407673	-0.072903
C34	C	0.990787	0.467445	0.000071
C35	C	1.032672	0.362313	0.073150
C36	C	1.032700	0.362308	-0.072895
C37	C	1.071711	0.423298	0.000131
C38	C	0.995372	0.207530	0.000089
C39	C	0.989119	0.562446	0.000070
N40	N	0.992276	-0.114973	-0.230598
C41	C	0.932581	-0.174636	0.470432
C42	C	1.008481	-0.190943	0.529772
C43	C	0.992239	-0.115015	0.412365
C44	C	0.916360	-0.098727	0.529766
C45	C	0.992253	-0.114997	0.587789
C46	C	1.068178	-0.131360	0.470398
C47	C	0.976006	-0.039111	0.470387
C48	C	1.051962	-0.055386	0.529701
C49	C	0.992230	-0.115028	0.311307
C50	C	0.992271	-0.114984	0.688844
H51	H	0.449470	-0.040332	0.134773
O52	O	0.445672	-0.033773	-0.146647
C53	C	0.469896	-0.075731	-0.223496
H54	H	0.524246	-0.113608	-0.206478
H55	H	0.414029	-0.120183	-0.248999
C56	C	0.431656	0.036170	-0.316882
C57	C	0.498414	-0.010346	-0.295982
H58	H	0.449243	0.076501	-0.361597
H59	H	0.415332	0.064437	-0.265108
H60	H	0.385105	-0.000882	-0.338130
H61	H	0.544959	0.026705	-0.274725
H62	H	0.514746	-0.038606	-0.347754
H63	H	1.066851	0.342314	0.134941
O64	O	0.538969	-0.196382	0.146582
C65	C	0.578355	-0.267288	0.120408
H66	H	0.556619	-0.287378	0.050526
H67	H	0.649772	-0.250414	0.120673
C68	C	0.580961	-0.315723	0.271687
C69	C	0.554259	-0.340402	0.185860
H70	H	0.566102	-0.360822	0.312063
H71	H	0.554429	-0.267951	0.289322
H72	H	0.640474	-0.301661	0.271895
H73	H	0.494747	-0.354453	0.185650
H74	H	0.580781	-0.388178	0.168226
O75	O	0.538917	-0.196158	-0.146689
C76	C	0.627215	-0.197219	-0.145813
H77	H	0.657407	-0.143304	-0.102545
H78	H	0.642965	-0.259939	-0.117593
C79	C	0.624522	-0.252701	-0.294569
C80	C	0.661606	-0.186478	-0.241432
H81	H	0.645737	-0.246080	-0.353551
H82	H	0.565034	-0.251990	-0.295158
H83	H	0.637651	-0.304962	-0.271042
H84	H	0.648468	-0.134220	-0.264953
H85	H	0.721092	-0.187180	-0.240849
H86	H	0.420779	-0.261683	-0.000023
O87	O	1.025018	-0.267446	0.560947
C88	C	1.099329	-0.257423	0.612568
H89	H	1.139483	-0.196704	0.592289
H90	H	1.082067	-0.254001	0.686026
C91	C	1.100262	-0.407692	0.622026
C92	C	1.149583	-0.333120	0.597113
H93	H	1.131259	-0.454387	0.612497
H94	H	1.050195	-0.414446	0.587251
H95	H	1.085880	-0.404829	0.683239
H96	H	1.163954	-0.335980	0.535899
H97	H	1.199653	-0.326368	0.631878
H98	H	1.102474	-0.004956	0.555561
O99	O	0.910965	0.431787	-0.146471
C100	C	0.910651	0.520177	-0.145882
H101	H	0.918973	0.544553	-0.074725
H102	H	0.964664	0.550579	-0.188905
C103	C	0.815884	0.512790	-0.270641
C104	C	0.826097	0.542730	-0.183244
H105	H	0.763729	0.526704	-0.293691
H106	H	0.816097	0.453241	-0.271041
H107	H	0.860900	0.538129	-0.306482
H108	H	0.781088	0.517383	-0.147402
H109	H	0.825875	0.602276	-0.182839
H110	H	0.882181	-0.225096	0.444409
O111	O	0.910983	0.431807	0.146675
C112	C	0.910641	0.520194	0.146038
H113	H	0.964921	0.550103	0.103066
H114	H	0.848220	0.536549	0.117612
C115	C	0.854598	0.517509	0.294564
C116	C	0.921270	0.554245	0.241792
H117	H	0.861150	0.538515	0.353630
H118	H	0.854825	0.457961	0.294993
H119	H	0.802587	0.531142	0.270866
H120	H	0.973278	0.540604	0.265484
H121	H	0.921052	0.613792	0.241370
O122	O	1.144691	-0.148067	0.439408
C123	C	1.134505	-0.222008	0.387207
H124	H	1.073517	-0.261997	0.406942
H125	H	1.131507	-0.204207	0.313863
C126	C	1.284716	-0.223689	0.378362
C127	C	1.209814	-0.272807	0.402607
H128	H	1.331172	-0.255023	0.387858
H129	H	1.291580	-0.173872	0.413528
H130	H	1.282207	-0.208858	0.317243
H131	H	1.212320	-0.287628	0.463727
H132	H	1.202953	-0.322628	0.367451
H133	H	0.563905	0.031573	-0.000005
H134	H	0.845652	0.313356	0.000136
O135	O	0.959438	0.037399	0.439278
C136	C	0.879338	0.054325	0.469492
H137	H	0.839473	-0.007600	0.486178
H138	H	0.887016	0.095620	0.531563
C139	C	0.884286	0.176737	0.375615
C140	C	0.835320	0.100680	0.396101
H141	H	0.857134	0.205334	0.330346
H142	H	0.938252	0.165336	0.355261
H143	H	0.890681	0.211139	0.427347
H144	H	0.828936	0.066275	0.344373
H145	H	0.781352	0.112076	0.416444
H146	H	1.138919	0.456457	0.000178
O147	O	1.073373	0.338316	-0.146614
C148	C	1.030524	0.361181	-0.223440
H149	H	0.962041	0.367944	-0.205956
H150	H	1.062298	0.423824	-0.250073
C151	C	1.117419	0.284093	-0.316479
C152	C	1.033305	0.292393	-0.295005
H153	H	1.119137	0.241664	-0.360626
H154	H	1.146290	0.268691	-0.264720
H155	H	1.143888	0.336301	-0.338668
H156	H	1.006841	0.240190	-0.272807
H157	H	1.004430	0.307785	-0.346762
H158	H	0.852184	-0.084959	0.555847
