data_functionalizedCrystal
_audit_creation_method	'MofGen! by Chris Wilmer'
_symmetry_space_group_name_H-M	'P1'
_symmetry_Int_Tables_number	1
_symmetry_cell_setting	triclinic
loop_
_symmetry_equiv_pos_as_xyz
  x,y,z
_cell_length_a	20.919309
_cell_length_b	14.395555
_cell_length_c	14.395555
_cell_angle_alpha	90.000653
_cell_angle_beta	62.593320
_cell_angle_gamma	57.440906
loop_
_atom_site_label
_atom_site_type_symbol
_atom_site_fract_x
_atom_site_fract_y
_atom_site_fract_z
Zr1	Zr	0.700798	-0.161553	0.934503
O2	O	0.834361	-0.317432	0.793728
O3	O	0.567236	-0.108531	0.972420
O4	O	0.700805	-0.309885	0.979968
O5	O	0.700788	0.036796	0.786186
O6	O	0.700809	-0.309889	1.132835
O7	O	0.700792	-0.116078	0.786181
O8	O	0.461879	0.050296	1.119334
O9	O	0.939718	-0.323389	0.799687
O10	O	0.622175	-0.092248	1.109003
O11	O	0.622168	0.021844	0.994924
O12	O	0.779429	-0.215225	1.003810
O13	O	0.779421	-0.101133	0.889730
Zr14	Zr	0.700798	0.082258	1.178317
Zr15	Zr	0.700806	-0.161559	1.178309
Zr16	Zr	0.700791	0.082264	0.934511
Zr17	Zr	0.868830	-0.171054	0.944006
Zr18	Zr	0.532767	0.091758	1.168814
O19	O	0.834361	0.029236	1.140400
O20	O	0.834372	-0.317441	1.140389
O21	O	0.834351	0.029245	0.793740
O22	O	0.567236	0.238136	1.319093
O23	O	0.567246	-0.108540	1.319081
O24	O	0.567225	0.238145	0.972432
O25	O	0.700809	-0.116092	1.326635
O26	O	0.700792	0.230590	1.132853
O27	O	0.700788	0.230593	0.979986
O28	O	0.700805	0.036783	1.326640
O29	O	0.939724	-0.323394	0.993480
O30	O	0.461873	0.244098	1.119341
O31	O	0.461879	0.244093	1.313134
O32	O	0.461885	0.050291	1.313128
O33	O	0.939712	-0.129587	0.799693
O34	O	0.939718	-0.129592	0.993486
O35	O	0.622168	0.135929	1.109011
O36	O	0.622175	0.021838	1.223090
O37	O	0.779429	-0.101139	1.117897
O38	O	0.779421	0.012952	1.003817
C39	C	0.490616	-0.027764	1.044523
C40	C	0.419282	-0.023731	1.040489
C41	C	0.700789	-0.039640	0.751446
C42	C	0.700786	-0.039637	0.647944
C43	C	0.700789	0.265330	1.056420
C44	C	0.700786	0.368837	1.056424
C45	C	0.385773	-0.081390	1.098139
C46	C	0.318743	-0.077589	1.094351
C47	C	0.285227	-0.016135	1.032906
C48	C	0.318739	0.041532	0.975255
C49	C	0.385764	0.037737	0.979050
C50	C	0.082851	-0.001692	1.018475
C51	C	0.015824	0.002095	1.014682
C52	C	0.015831	-0.117025	1.133780
C53	C	0.082861	-0.120820	1.137564
C54	C	0.116363	-0.063148	1.079918
C55	C	0.216713	-0.012252	1.029030
C56	C	0.184872	-0.067025	1.083801
C57	C	0.910981	-0.051532	1.068297
C58	C	0.982315	-0.055565	1.072331
C59	C	0.700808	-0.344626	1.056400
C60	C	0.700811	-0.448132	1.056397
C61	C	0.615044	0.496478	1.113775
C62	C	0.657909	0.524881	1.161280
C63	C	0.657925	0.524857	1.008943
C64	C	0.743651	0.395877	1.103991
C65	C	0.743654	0.395856	0.951594
C66	C	0.786581	0.424182	0.999075
C67	C	0.615044	0.027413	0.644712
C68	C	0.657904	0.070077	0.554121
C69	C	0.657929	-0.082269	0.554106
C70	C	0.743646	0.003089	0.558717
C71	C	0.743659	-0.149315	0.558716
C72	C	0.786581	-0.106682	0.468111
C73	C	0.700808	-0.039655	1.361374
C74	C	0.700811	-0.039658	1.464876
C75	C	0.490626	-0.027772	1.349488
C76	C	0.419295	-0.023741	1.448955
C77	C	0.490607	0.277214	1.044534
C78	C	0.419270	0.384754	1.040503
C79	C	0.490616	0.277206	1.349498
C80	C	0.419282	0.384744	1.448969
C81	C	0.910981	-0.356502	0.763323
C82	C	0.982315	-0.464039	0.663852
C83	C	0.910971	-0.051524	0.763333
C84	C	0.982302	-0.055555	0.663865
C85	C	0.910990	-0.356509	1.068287
C86	C	0.982327	-0.464049	1.072318
C87	C	0.385797	-0.081410	1.436114
C88	C	0.318784	-0.077646	1.529566
C89	C	0.285265	-0.016206	1.635857
C90	C	0.318769	0.041465	1.648697
C91	C	0.385786	0.037693	1.555246
C92	C	0.385769	0.494818	1.098162
C93	C	0.318750	0.595872	1.094371
C94	C	0.285227	0.586860	1.032926
C95	C	0.318735	0.476784	0.975260
C96	C	0.385757	0.375733	0.979045
C97	C	0.385787	0.375690	1.555240
C98	C	0.318770	0.476723	1.648714
C99	C	0.285246	0.586809	1.635913
C100	C	0.318748	0.595860	1.529631
C101	C	0.385768	0.494828	1.436160
C102	C	1.015818	-0.454986	0.557581
C103	C	1.082855	-0.556020	0.464109
C104	C	1.116383	-0.666106	0.476909
C105	C	1.082877	-0.675157	0.583191
C106	C	1.015846	-0.574124	0.676661
C107	C	1.015807	0.002104	0.676707
C108	C	1.082839	-0.001688	0.583256
C109	C	1.116360	-0.063132	0.476965
C110	C	1.082853	-0.120797	0.464125
C111	C	1.015826	-0.117012	0.557575
C112	C	1.015828	-0.455000	1.133773
C113	C	1.082848	-0.556035	1.137582
C114	C	1.116371	-0.666119	1.079929
C115	C	1.082863	-0.675166	1.018472
C116	C	1.015840	-0.574132	1.014670
H117	H	0.413061	-0.131439	1.148168
H118	H	0.779856	0.039242	0.561593
H119	H	0.230674	0.669066	1.712033
H120	H	0.988518	0.052146	0.763246
H121	H	1.110123	-0.548646	1.187626
C122	C	0.792575	-0.274573	0.562797
H123	H	0.843243	-0.295904	0.565212
H124	H	0.752094	-0.278163	0.627115
H125	H	0.812577	-0.326934	0.498568
H126	H	0.413025	0.286118	0.932095
H127	H	0.291441	0.091576	0.925231
C128	C	1.119752	-0.796251	0.597263
H129	H	1.090204	-0.787186	0.673941
H130	H	1.108767	-0.836030	0.561162
H131	H	1.183034	-0.840242	0.565378
C132	C	0.422596	0.504802	1.319267
H133	H	0.393020	0.584838	1.325041
H134	H	0.485875	0.465768	1.282410
H135	H	0.411592	0.469975	1.278241
H136	H	-0.011454	-0.163977	1.180715
C137	C	0.281931	-0.141073	1.515429
H138	H	0.237224	-0.130045	1.586302
H139	H	0.255780	-0.110170	1.473548
H140	H	0.330058	-0.222145	1.477726
C141	C	0.978967	-0.180424	0.543435
H142	H	1.008528	-0.217544	0.466746
H143	H	0.989945	-0.237407	0.579510
H144	H	0.915686	-0.125429	0.575307
C145	C	0.884599	-0.183282	0.366075
H146	H	0.894597	-0.245236	0.323062
H147	H	0.894243	-0.137197	0.322468
H148	H	0.925430	-0.214686	0.389751
H149	H	0.110118	0.045273	0.971539
H150	H	0.413055	0.502178	1.148197
H151	H	0.413048	0.084687	0.932102
H152	H	0.212159	-0.117056	1.133834
C153	C	1.190101	-0.777247	1.084111
H154	H	1.205254	-0.756081	1.128962
H155	H	1.168145	-0.820013	1.114750
H156	H	1.242404	-0.824196	1.011192
H157	H	0.291468	0.091488	1.735252
H158	H	0.291443	0.685505	1.519225
H159	H	1.110156	-0.170824	0.377570
H160	H	0.988545	-0.365373	1.180722
C161	C	0.978950	-0.333902	0.543485
H162	H	0.934224	-0.275016	0.614366
H163	H	1.027066	-0.328091	0.505806
H164	H	0.952803	-0.323895	0.501591
H165	H	0.291476	0.685490	1.141334
C166	C	1.119751	-0.796262	0.955049
H167	H	1.164473	-0.855130	0.966111
H168	H	1.071649	-0.802099	0.981718
H169	H	1.145912	-0.806275	0.878174
H170	H	0.621677	-0.118316	0.551144
H171	H	0.230653	0.669152	1.029853
C172	C	0.979007	-0.584101	0.947050
H173	H	1.008582	-0.664136	0.913253
H174	H	0.915728	-0.545068	0.994853
H175	H	0.990007	-0.549271	0.891306
H176	H	0.291459	-0.124539	1.141295
C177	C	0.422661	-0.149006	1.319206
H178	H	0.393114	-0.182818	1.324959
H179	H	0.411673	-0.096988	1.278166
H180	H	0.485945	-0.208940	1.282376
C181	C	0.211541	-0.012052	1.738646
H182	H	0.196374	0.032794	1.803794
H183	H	0.159253	0.022783	1.735680
H184	H	0.233523	-0.089179	1.739883
C185	C	0.119723	-0.188419	1.205154
H186	H	0.090161	-0.222209	1.238953
H187	H	0.183002	-0.248351	1.157328
H188	H	0.108733	-0.136392	1.260895
H189	H	0.621665	0.162822	0.551148
H190	H	0.291431	0.469464	0.925232
H191	H	0.413051	0.084662	1.565717
C192	C	1.190104	-0.777231	0.374085
H193	H	1.205242	-0.756061	0.308963
H194	H	1.242409	-0.824199	0.377014
H195	H	1.168126	-0.819976	0.372830
H196	H	0.189417	0.037784	0.979002
C197	C	-0.021097	0.069779	0.947165
H198	H	0.008434	0.103615	0.913405
H199	H	-0.010143	0.017815	0.891414
H200	H	-0.084376	0.129701	0.995055
C201	C	0.792560	0.320800	0.831874
H202	H	0.762001	0.365868	0.798241
H203	H	0.853159	0.295508	0.790789
H204	H	0.792672	0.254727	0.832736
H205	H	0.542543	0.526018	1.162350
C206	C	0.422654	0.254609	1.569342
H207	H	0.393107	0.263703	1.646027
H208	H	0.411667	0.214812	1.533266
H209	H	0.485938	0.210620	1.537455
H210	H	0.621674	0.580438	1.249923
C211	C	0.792562	0.321034	1.158375
H212	H	0.792225	0.255305	1.158090
H213	H	0.853309	0.295198	1.117963
H214	H	0.762306	0.366429	1.232642
H215	H	0.859143	0.394424	0.950579
C216	C	0.608953	0.599905	0.954702
H217	H	0.548037	0.626354	0.995552
H218	H	0.609790	0.665232	0.954463
H219	H	0.638811	0.554416	0.880633
C220	C	0.517112	0.104106	0.746935
H221	H	0.486787	0.182019	0.746009
H222	H	0.486345	0.074604	0.745404
H223	H	0.517792	0.103026	0.812467
C224	C	0.281921	0.466746	1.765609
H225	H	0.311478	0.386712	1.759836
H226	H	0.292911	0.501569	1.806655
H227	H	0.218639	0.505788	1.802444
H228	H	1.110125	-0.548627	0.377578
C229	C	0.978963	-0.584089	0.793554
H230	H	0.934235	-0.508157	0.847397
H231	H	0.952831	-0.623029	0.800553
H232	H	1.027070	-0.627221	0.804832
H233	H	1.110109	0.045275	0.593732
H234	H	1.170937	-0.066205	0.400881
