data_functionalizedCrystal
_audit_creation_method	'MofGen! by Chris Wilmer'
_symmetry_space_group_name_H-M	'P1'
_symmetry_Int_Tables_number	1
_symmetry_cell_setting	triclinic
loop_
_symmetry_equiv_pos_as_xyz
  x,y,z
_cell_length_a	27.731993
_cell_length_b	27.732048
_cell_length_c	26.210047
_cell_angle_alpha	89.999521
_cell_angle_beta	90.002578
_cell_angle_gamma	82.631525
loop_
_atom_site_label
_atom_site_type_symbol
_atom_site_fract_x
_atom_site_fract_y
_atom_site_fract_z
O1	O	0.640948	0.057384	-0.042297
O2	O	0.974282	0.390718	0.291036
O3	O	1.307615	0.724051	0.624370
O4	O	0.500151	0.066158	-0.042329
O5	O	0.833485	0.399491	0.291004
O6	O	1.166818	0.732824	0.624338
O7	O	0.574923	-0.008627	-0.042302
O8	O	0.908256	0.324707	0.291031
O9	O	1.241589	0.658040	0.624364
O10	O	0.566177	0.132169	-0.042324
O11	O	0.899510	0.465502	0.291010
O12	O	1.232844	0.798835	0.624343
O13	O	0.574908	-0.008615	0.042556
O14	O	0.908242	0.324718	0.375889
O15	O	1.241575	0.658052	0.709222
O16	O	0.500137	0.066169	0.042529
O17	O	0.833470	0.399503	0.375862
O18	O	1.166803	0.732836	0.709196
O19	O	0.640934	0.057396	0.042561
O20	O	0.974267	0.390729	0.375894
O21	O	1.307601	0.724063	0.709228
Cu22	Cu	0.570534	0.061784	0.050293
Cu23	Cu	0.903867	0.395117	0.383626
Cu24	Cu	1.237201	0.728450	0.716960
Cu25	Cu	0.570551	0.061770	-0.050061
Cu26	Cu	0.903885	0.395103	0.283272
Cu27	Cu	1.237218	0.728437	0.616605
O28	O	0.566163	0.132180	0.042534
O29	O	0.899496	0.465514	0.375868
O30	O	1.232829	0.798847	0.709201
C31	C	0.482137	0.065983	0.000096
C32	C	0.815470	0.399317	0.333429
C33	C	1.148803	0.732650	0.666763
C34	C	0.428480	0.065441	0.000084
C35	C	0.761814	0.398774	0.333418
C36	C	1.095147	0.732108	0.666751
C37	C	0.045328	0.061504	-0.046147
C38	C	0.378661	0.394837	0.287187
C39	C	0.711995	0.728171	0.620520
C40	C	0.246985	0.063571	-0.046161
C41	C	0.580319	0.396904	0.287173
C42	C	0.913652	0.730238	0.620506
O43	O	0.273065	0.063813	-0.085501
O44	O	0.606399	0.397147	0.247833
O45	O	0.939732	0.730480	0.581166
N46	N	0.272198	0.063836	0.000094
N47	N	0.605531	0.397169	0.333428
N48	N	0.938864	0.730503	0.666761
C49	C	0.246993	0.063581	0.046356
C50	C	0.580327	0.396914	0.379690
C51	C	0.913660	0.730248	0.713023
O52	O	0.273066	0.063849	0.085699
O53	O	0.606399	0.397182	0.419032
O54	O	0.939732	0.730516	0.752365
C55	C	0.045337	0.061511	0.046370
C56	C	0.378671	0.394844	0.379703
C57	C	0.712004	0.728177	0.713037
C58	C	0.020127	0.061251	0.000112
C59	C	0.353460	0.394584	0.333445
C60	C	0.686793	0.727917	0.666778
C61	C	0.020118	0.061243	-0.092401
C62	C	0.353451	0.394577	0.240933
C63	C	0.686784	0.727910	0.574266
C64	C	-0.030294	0.060729	-0.092397
C65	C	0.303039	0.394063	0.240937
C66	C	0.636373	0.727396	0.574270
C67	C	-0.055495	0.060476	-0.046139
C68	C	0.277838	0.393809	0.287195
C69	C	0.611171	0.727143	0.620528
C70	C	-0.030285	0.060736	0.000116
C71	C	0.303048	0.394070	0.333449
C72	C	0.636382	0.727403	0.666782
C73	C	0.020134	0.061252	0.092631
C74	C	0.353467	0.394585	0.425965
C75	C	0.686801	0.727919	0.759298
C76	C	-0.030283	0.060733	0.092630
C77	C	0.303050	0.394067	0.425964
C78	C	0.636384	0.727400	0.759297
C79	C	-0.055493	0.060473	0.046372
C80	C	0.277840	0.393807	0.379706
C81	C	0.611173	0.727140	0.713039
C82	C	-0.105898	0.059969	0.046378
C83	C	0.227435	0.393302	0.379711
C84	C	0.560769	0.726636	0.713045
N85	N	-0.131110	0.059704	0.000123
N86	N	0.202223	0.393037	0.333456
N87	N	0.535556	0.726371	0.666790
C88	C	-0.105909	0.059957	-0.046135
C89	C	0.227424	0.393291	0.287198
C90	C	0.560758	0.726624	0.620531
C91	C	0.352865	0.064669	0.046346
C92	C	0.686199	0.398002	0.379679
C93	C	1.019532	0.731336	0.713012
C94	C	0.403279	0.065188	0.046343
C95	C	0.736612	0.398521	0.379676
C96	C	1.069946	0.731854	0.713009
C97	C	0.403268	0.065177	-0.046175
C98	C	0.736601	0.398510	0.287159
C99	C	1.069935	0.731843	0.620492
C100	C	0.352853	0.064662	-0.046171
C101	C	0.686186	0.397995	0.287163
C102	C	1.019519	0.731328	0.620496
C103	C	0.327653	0.064404	0.000091
C104	C	0.660986	0.397737	0.333424
C105	C	0.994320	0.731071	0.666757
C106	C	-0.211777	0.058878	-0.046123
C107	C	0.121556	0.392212	0.287210
C108	C	0.454889	0.725545	0.620543
C109	C	-0.262194	0.058366	-0.046115
C110	C	0.071140	0.391699	0.287218
C111	C	0.404473	0.725033	0.620551
C112	C	-0.262178	0.058375	0.046402
C113	C	0.071156	0.391708	0.379735
C114	C	0.404489	0.725041	0.713068
C115	C	-0.211766	0.058889	0.046394
C116	C	0.121567	0.392223	0.379727
C117	C	0.454901	0.725556	0.713060
C118	C	-0.186567	0.059139	0.000127
C119	C	0.146766	0.392473	0.333461
C120	C	0.480100	0.725806	0.666794
O121	O	-0.132008	0.059721	0.085698
O122	O	0.201325	0.393054	0.419031
O123	O	0.534659	0.726387	0.752364
O124	O	-0.131989	0.059679	-0.085472
O125	O	0.201345	0.393012	0.247862
O126	O	0.534678	0.726345	0.581195
C127	C	0.095740	0.062018	-0.046151
C128	C	0.429073	0.395351	0.287183
C129	C	0.762406	0.728685	0.620516
C130	C	0.120950	0.062279	0.000104
C131	C	0.454283	0.395612	0.333437
C132	C	0.787617	0.728945	0.666770
C133	C	0.095749	0.062025	0.046362
C134	C	0.429082	0.395359	0.379695
C135	C	0.762416	0.728692	0.713029
C136	C	0.171364	0.062797	0.000101
C137	C	0.504697	0.396131	0.333434
C138	C	0.838030	0.729464	0.666767
C139	C	0.196565	0.063051	-0.046158
C140	C	0.529898	0.396384	0.287176
C141	C	0.863232	0.729717	0.620509
C142	C	0.171353	0.062786	-0.092413
C143	C	0.504686	0.396119	0.240920
C144	C	0.838019	0.729452	0.574254
C145	C	0.120941	0.062272	-0.092409
C146	C	0.454274	0.395605	0.240925
C147	C	0.787608	0.728938	0.574258
C148	C	0.120961	0.062290	0.092617
C149	C	0.454295	0.395624	0.425950
C150	C	0.787628	0.728957	0.759284
C151	C	0.171373	0.062805	0.092609
C152	C	0.504706	0.396138	0.425943
C153	C	0.838040	0.729471	0.759276
C154	C	0.196574	0.063058	0.046351
C155	C	0.529908	0.396392	0.379684
C156	C	0.863241	0.729725	0.713018
C157	C	0.574732	-0.026628	0.000128
C158	C	0.908065	0.306706	0.333461
C159	C	1.241399	0.640039	0.666795
C160	C	0.574179	-0.080282	0.000132
C161	C	0.907512	0.253051	0.333465
C162	C	1.240846	0.586384	0.666799
C163	C	0.614884	-0.419105	0.000115
C164	C	0.948217	-0.085772	0.333448
C165	C	1.281551	0.247561	0.666782
C166	C	0.612833	-0.620765	0.000108
C167	C	0.946166	-0.287431	0.333441
C168	C	1.279500	0.045902	0.666774
O169	O	0.650055	-0.652028	0.000094
O170	O	0.983388	-0.318694	0.333427
O171	O	1.316721	0.014639	0.666760
N172	N	0.568497	-0.639880	0.000098
N173	N	0.901830	-0.306546	0.333431
N174	N	1.235163	0.026787	0.666765
C175	C	0.524670	-0.608576	0.000087
C176	C	0.858003	-0.275243	0.333420
C177	C	1.191336	0.058090	0.666754
O178	O	0.486912	-0.629462	0.000073
O179	O	0.820245	-0.296129	0.333407
O180	O	1.153579	0.037204	0.666740
C181	C	0.526721	-0.406918	0.000091
C182	C	0.860055	-0.073585	0.333424
C183	C	1.193388	0.259748	0.666757
C184	C	0.571061	-0.387806	0.000106
C185	C	0.904394	-0.054473	0.333439
C186	C	1.237727	0.278860	0.666772
C187	C	0.659220	-0.399993	0.000129
C188	C	0.992553	-0.066660	0.333463
C189	C	1.325886	0.266674	0.666796
C190	C	0.659732	-0.349581	0.000134
C191	C	0.993065	-0.016248	0.333467
C192	C	1.326399	0.317086	0.666801
C193	C	0.615909	-0.318282	0.000124
C194	C	0.949242	0.015052	0.333458
C195	C	1.282575	0.348385	0.666791
C196	C	0.571573	-0.337394	0.000110
C197	C	0.904906	-0.004061	0.333444
C198	C	1.238240	0.329272	0.666777
C199	C	0.482895	-0.375616	0.000076
C200	C	0.816228	-0.042283	0.333409
C201	C	1.149562	0.291051	0.666743
C202	C	0.483412	-0.325199	0.000076
C203	C	0.816745	0.008135	0.333409
C204	C	1.150079	0.341468	0.666742
C205	C	0.527751	-0.306087	0.000091
C206	C	0.861085	0.027247	0.333424
C207	C	1.194418	0.360580	0.666757
C208	C	0.528262	-0.255683	0.000105
C209	C	0.861595	0.077650	0.333439
C210	C	1.194928	0.410983	0.666772
N211	N	0.572598	-0.236568	0.000115
N212	N	0.905932	0.096765	0.333448
N213	N	1.239265	0.430098	0.666782
C214	C	0.616422	-0.267867	0.000124
C215	C	0.949755	0.065466	0.333458
C216	C	1.283088	0.398799	0.666791
C217	C	0.523596	-0.714450	0.000086
C218	C	0.856929	-0.381117	0.333419
C219	C	1.190262	-0.047784	0.666753
C220	C	0.523083	-0.764865	0.000086
C221	C	0.856416	-0.431531	0.333419
C222	C	1.189749	-0.098198	0.666752
C223	C	0.611246	-0.777049	0.000105
C224	C	0.944579	-0.443716	0.333439
C225	C	1.277913	-0.110383	0.666772
C226	C	0.611759	-0.726634	0.000109
C227	C	0.945092	-0.393301	0.333442
C228	C	1.278425	-0.059967	0.666776
C229	C	0.567932	-0.695335	0.000095
C230	C	0.901266	-0.362002	0.333429
C231	C	1.234599	-0.028669	0.666762
C232	C	0.617494	-0.161998	0.000135
C233	C	0.950827	0.171335	0.333468
C234	C	1.284161	0.504668	0.666801
C235	C	0.618003	-0.111582	0.000142
C236	C	0.951336	0.221752	0.333475
C237	C	1.284669	0.555085	0.666808
C238	C	0.529839	-0.099401	0.000119
C239	C	0.863173	0.233932	0.333453
C240	C	1.196506	0.567265	0.666786
C241	C	0.529331	-0.149814	0.000115
C242	C	0.862664	0.183520	0.333448
C243	C	1.195997	0.516853	0.666782
C244	C	0.573162	-0.181112	0.000121
C245	C	0.906495	0.152222	0.333454
C246	C	1.239829	0.485555	0.666788
O247	O	0.491060	-0.224392	0.000114
O248	O	0.824393	0.108941	0.333447
O249	O	1.157727	0.442275	0.666780
O250	O	0.654174	-0.246972	0.000127
O251	O	0.987507	0.086361	0.333460
O252	O	1.320841	0.419694	0.666793
C253	C	0.614372	-0.469517	0.000110
C254	C	0.947705	-0.136184	0.333444
C255	C	1.281038	0.197149	0.666777
C256	C	0.570036	-0.488630	0.000096
C257	C	0.903369	-0.155297	0.333430
C258	C	1.236703	0.178037	0.666763
C259	C	0.526213	-0.457331	0.000087
C260	C	0.859546	-0.123997	0.333420
C261	C	1.192879	0.209336	0.666753
C262	C	0.569523	-0.539044	0.000096
C263	C	0.902856	-0.205711	0.333429
C264	C	1.236190	0.127622	0.666763
C265	C	0.613346	-0.570343	0.000106
C266	C	0.946680	-0.237010	0.333439
C267	C	1.280013	0.096323	0.666772
C268	C	0.657683	-0.551228	0.000115
C269	C	0.991016	-0.217895	0.333449
C270	C	1.324349	0.115438	0.666782
C271	C	0.658195	-0.500817	0.000120
C272	C	0.991528	-0.167483	0.333453
C273	C	1.324862	0.165850	0.666787
C274	C	0.481876	-0.476446	0.000077
C275	C	0.815210	-0.143112	0.333410
C276	C	1.148543	0.190221	0.666744
C277	C	0.481368	-0.526858	0.000073
C278	C	0.814701	-0.193525	0.333406
C279	C	1.148034	0.139809	0.666740
C280	C	0.525191	-0.558157	0.000083
C281	C	0.858524	-0.224824	0.333416
C282	C	1.191858	0.108509	0.666749
C283	C	0.658949	0.057570	0.000135
C284	C	0.992282	0.390904	0.333468
C285	C	1.325615	0.724237	0.666801
C286	C	0.712605	0.058113	0.000143
C287	C	1.045938	0.391446	0.333476
C288	C	1.379272	0.724779	0.666810
C289	C	0.566353	0.150181	0.000103
C290	C	0.899687	0.483515	0.333436
C291	C	1.233020	0.816848	0.666769
C292	C	0.566906	0.203836	0.000095
C293	C	0.900239	0.537169	0.333429
C294	C	1.233573	0.870503	0.666762
N295	N	0.570526	0.061793	0.120877
N296	N	0.903859	0.395126	0.454210
N297	N	1.237192	0.728460	0.787544
N298	N	0.570564	0.061757	-0.120645
N299	N	0.903897	0.395090	0.212688
N300	N	1.237230	0.728423	0.546021
C301	C	0.603657	0.028663	0.473403
C302	C	0.936990	0.361996	0.806736
C303	C	1.270323	0.695330	1.140070
C304	C	0.603667	0.028656	0.687062
C305	C	0.937001	0.361990	1.020395
C306	C	1.270334	0.695323	1.353728
O307	O	0.631818	0.000490	0.714693
O308	O	0.965151	0.333823	1.048027
O309	O	1.298484	0.667157	1.381360
N310	N	0.570554	0.061759	0.713771
N311	N	0.903887	0.395093	1.047104
N312	N	1.237220	0.728426	1.380438
C313	C	0.537433	0.094864	0.687063
C314	C	0.870767	0.428198	1.020396
C315	C	1.204100	0.761531	1.353729
O316	O	0.509265	0.123017	0.714683
O317	O	0.842598	0.456350	1.048016
O318	O	1.175932	0.789684	1.381350
C319	C	0.537421	0.094868	0.473405
C320	C	0.870754	0.428202	0.806738
C321	C	1.204087	0.761535	1.140072
C322	C	0.570540	0.061766	0.446698
C323	C	0.903873	0.395100	0.780032
C324	C	1.237206	0.728433	1.113365
C325	C	0.636772	-0.004437	0.446696
C326	C	0.970106	0.328897	0.780030
C327	C	1.303439	0.662230	1.113363
C328	C	0.636771	-0.004433	0.393285
C329	C	0.970104	0.328900	0.726618
C330	C	1.303438	0.662234	1.059951
C331	C	0.603654	0.028671	0.366580
C332	C	0.936987	0.362004	0.699913
C333	C	1.270321	0.695337	1.033247
C334	C	0.570538	0.061770	0.393287
C335	C	0.903872	0.395104	0.726620
C336	C	1.237205	0.728437	1.059953
C337	C	0.504298	0.127971	0.446697
C338	C	0.837631	0.461304	0.780031
C339	C	1.170965	0.794638	1.113364
C340	C	0.504297	0.127968	0.393280
C341	C	0.837630	0.461301	0.726613
C342	C	1.170964	0.794635	1.059946
C343	C	0.537416	0.094866	0.366573
C344	C	0.870749	0.428199	0.699906
C345	C	1.204083	0.761533	1.033240
C346	C	0.537420	0.094877	0.313171
C347	C	0.870753	0.428211	0.646504
C348	C	1.204087	0.761544	0.979837
N349	N	0.570533	0.061774	0.286461
N350	N	0.903867	0.395108	0.619794
N351	N	1.237200	0.728441	0.953128
C352	C	0.603650	0.028671	0.313166
C353	C	0.936984	0.362004	0.646499
C354	C	1.270317	0.695338	0.979833
C355	C	0.537443	0.094861	0.799236
C356	C	0.870776	0.428194	1.132569
C357	C	1.204109	0.761527	1.465903
C358	C	0.537446	0.094860	0.852650
C359	C	0.870780	0.428193	1.185983
C360	C	1.204113	0.761527	1.519317
C361	C	0.603680	0.028651	0.852645
C362	C	0.937013	0.361985	1.185979
C363	C	1.270347	0.695318	1.519312
C364	C	0.603678	0.028654	0.799230
C365	C	0.937012	0.361988	1.132564
C366	C	1.270345	0.695321	1.465897
C367	C	0.570556	0.061757	0.772526
C368	C	0.903890	0.395091	1.105860
C369	C	1.237223	0.728424	1.439193
C370	C	0.603646	0.028682	0.200998
C371	C	0.936979	0.362015	0.534331
C372	C	1.270312	0.695348	0.867665
C373	C	0.603643	0.028690	0.147582
C374	C	0.936976	0.362023	0.480915
C375	C	1.270309	0.695356	0.814248
C376	C	0.537408	0.094897	0.147591
C377	C	0.870741	0.428230	0.480924
C378	C	1.204074	0.761563	0.814258
C379	C	0.537412	0.094891	0.201003
C380	C	0.870745	0.428224	0.534336
C381	C	1.204079	0.761557	0.867669
C382	C	0.570533	0.061779	0.227705
C383	C	0.903866	0.395112	0.561038
C384	C	1.237200	0.728446	0.894371
O385	O	0.509281	0.123025	0.285506
O386	O	0.842614	0.456359	0.618839
O387	O	1.175947	0.789692	0.952172
O388	O	0.631807	0.000515	0.285536
O389	O	0.965141	0.333849	0.618869
O390	O	1.298474	0.667182	0.952203
C391	C	0.603658	0.028659	0.526814
C392	C	0.936991	0.361993	0.860148
C393	C	1.270325	0.695326	1.193481
C394	C	0.570542	0.061759	0.553521
C395	C	0.903875	0.395092	0.886854
C396	C	1.237209	0.728426	1.220188
C397	C	0.537425	0.094862	0.526816
C398	C	0.870758	0.428196	0.860150
C399	C	1.204092	0.761529	1.193483
C400	C	0.570546	0.061759	0.606935
C401	C	0.903879	0.395092	0.940269
C402	C	1.237212	0.728425	1.273602
C403	C	0.603663	0.028655	0.633640
C404	C	0.936996	0.361988	0.966973
C405	C	1.270329	0.695322	1.300307
C406	C	0.636776	-0.004448	0.606931
C407	C	0.970110	0.328885	0.940264
C408	C	1.303443	0.662219	1.273597
C409	C	0.636775	-0.004444	0.553519
C410	C	0.970108	0.328889	0.886852
C411	C	1.303442	0.662222	1.220186
C412	C	0.504311	0.127965	0.553526
C413	C	0.837645	0.461299	0.886859
C414	C	1.170978	0.794632	1.220193
C415	C	0.504316	0.127959	0.606937
C416	C	0.837649	0.461293	0.940271
C417	C	1.170982	0.794626	1.273604
C418	C	0.537433	0.094856	0.633642
C419	C	0.870766	0.428189	0.966975
C420	C	1.204100	0.761523	1.300309
H421	H	0.332330	0.064450	-0.083838
H422	H	0.665663	0.397783	0.249495
H423	H	0.998996	0.731116	0.582828
H424	H	0.332353	0.064458	0.084020
H425	H	0.665686	0.397791	0.417353
H426	H	0.999019	0.731124	0.750686
H427	H	-0.282718	0.058156	-0.083786
H428	H	0.050615	0.391489	0.249548
H429	H	0.383949	0.724822	0.582881
H430	H	0.486977	-0.780421	0.000083
H431	H	0.820311	-0.447088	0.333416
H432	H	1.153644	-0.113754	0.666749
F433	F	0.046954	0.061529	0.141866
F434	F	0.380287	0.394862	0.475200
F435	F	0.713621	0.728196	0.808533
F436	F	0.046931	0.061512	-0.141640
F437	F	0.380265	0.394845	0.191694
F438	F	0.713598	0.728179	0.525027
H439	H	0.447722	-0.299717	0.000064
H440	H	0.781056	0.033616	0.333397
H441	H	1.114389	0.366950	0.666731
H442	H	0.487905	-0.688970	0.000075
H443	H	0.821238	-0.355637	0.333408
H444	H	1.154572	-0.022304	0.666741
F445	F	0.706924	-0.329247	0.000139
F446	F	1.040258	0.004086	0.333472
F447	F	1.373591	0.337419	0.666805
F448	F	0.502164	0.130127	0.119162
F449	F	0.835498	0.463461	0.452495
F450	F	1.168831	0.796794	0.785829
F451	F	0.672024	-0.039676	0.525102
F452	F	1.005358	0.293657	0.858435
F453	F	1.338691	0.626990	1.191769
F454	F	0.430103	0.065474	0.095577
F455	F	0.763437	0.398807	0.428910
F456	F	1.096770	0.732140	0.762243
H457	H	0.654110	-0.096024	0.000155
H458	H	0.987444	0.237310	0.333488
H459	H	1.320777	0.570643	0.666822
H460	H	0.694301	-0.485261	0.000132
H461	H	1.027634	-0.151927	0.333465
H462	H	1.360967	0.181406	0.666798
H463	H	0.446789	-0.391168	0.000061
H464	H	0.780123	-0.057834	0.333394
H465	H	1.113456	0.275499	0.666728
H466	H	0.477324	0.154924	0.371540
H467	H	0.810657	0.488258	0.704873
H468	H	1.143990	0.821591	1.038207
F469	F	0.198182	0.063058	-0.141644
F470	F	0.531516	0.396391	0.191689
F471	F	0.864849	0.729724	0.525022
F472	F	0.672023	-0.039678	0.635361
F473	F	1.005357	0.293656	0.968694
F474	F	1.338690	0.626989	1.302028
H475	H	0.646929	-0.802542	0.000113
H476	H	0.980262	-0.469209	0.333447
H477	H	1.313596	-0.135875	0.666780
H478	H	-0.050799	0.060528	0.130303
H479	H	0.282535	0.393861	0.463636
H480	H	0.615868	0.727194	0.796970
H481	H	0.630614	0.001734	0.125839
H482	H	0.963947	0.335067	0.459172
H483	H	1.297280	0.668401	0.792505
F484	F	0.482140	-0.170155	0.000109
F485	F	0.815474	0.163178	0.333442
F486	F	1.148807	0.496512	0.666775
H487	H	-0.191240	0.059111	0.084061
H488	H	0.142093	0.392444	0.417394
H489	H	0.475427	0.725777	0.750727
H490	H	0.630615	0.001719	0.222733
H491	H	0.963948	0.335052	0.556066
H492	H	1.297282	0.668385	0.889399
F493	F	0.434172	-0.547192	0.000061
F494	F	0.767505	-0.213859	0.333394
F495	F	1.100839	0.119474	0.666727
F496	F	0.638926	-0.006580	0.881076
F497	F	0.972259	0.326753	1.214409
F498	F	1.305592	0.660087	1.547743
F499	F	0.483202	-0.066082	0.000109
F500	F	0.816535	0.267251	0.333443
F501	F	1.149869	0.600585	0.666776
H502	H	0.510470	0.121818	0.777497
H503	H	0.843803	0.455152	1.110831
H504	H	1.177137	0.788485	1.444164
H505	H	0.477347	0.154919	0.628678
H506	H	0.810681	0.488253	0.962012
H507	H	1.144014	0.821586	1.295345
H508	H	0.100448	0.062081	0.130287
H509	H	0.433781	0.395415	0.463620
H510	H	0.767115	0.728748	0.796954
H511	H	0.191894	0.063021	0.130281
H512	H	0.525228	0.396354	0.463614
H513	H	0.858561	0.729687	0.796948
H514	H	-0.282706	0.058170	0.084064
H515	H	0.050627	0.391503	0.417397
H516	H	0.383961	0.724837	0.750731
F517	F	0.664144	-0.195301	0.000141
F518	F	0.997478	0.138032	0.333474
F519	F	1.330811	0.471366	0.666808
F520	F	-0.057118	0.060449	-0.141631
F521	F	0.276215	0.393782	0.191702
F522	F	0.609548	0.727116	0.525035
F523	F	-0.184966	0.059145	-0.095365
F524	F	0.148368	0.392478	0.237968
F525	F	0.481701	0.725811	0.571301
F526	F	0.704323	-0.584548	0.000128
F527	F	1.037656	-0.251215	0.333461
F528	F	1.370990	0.082118	0.666795
F529	F	0.672022	-0.039673	0.475110
F530	F	1.005356	0.293660	0.808443
F531	F	1.338689	0.626993	1.141777
F532	F	0.435231	-0.443141	0.000065
F533	F	0.768564	-0.109807	0.333399
F534	F	1.101897	0.223526	0.666732
H535	H	0.663738	-0.031389	0.371543
H536	H	0.997071	0.301945	0.704877
H537	H	1.330405	0.635278	1.038210
F538	F	0.094116	0.061994	-0.141643
F539	F	0.427450	0.395328	0.191690
F540	F	0.760783	0.728661	0.525023
H541	H	0.694908	-0.425472	0.000135
H542	H	1.028241	-0.092139	0.333468
H543	H	1.361575	0.241194	0.666802
F544	F	0.638927	-0.006578	0.770812
F545	F	0.972260	0.326756	1.104145
F546	F	1.305594	0.660089	1.437479
H547	H	0.510483	0.121820	0.874391
H548	H	0.843816	0.455153	1.207724
H549	H	1.177150	0.788487	1.541058
F550	F	0.658950	-0.706298	0.000125
F551	F	0.992283	-0.372965	0.333458
F552	F	1.325617	-0.039632	0.666791
F553	F	0.469048	0.163202	0.475111
F554	F	0.802381	0.496535	0.808444
F555	F	1.135715	0.829868	1.141778
H556	H	0.510448	0.121850	0.222748
H557	H	0.843782	0.455183	0.556081
H558	H	1.177115	0.788516	0.889414
F559	F	0.469062	0.163200	0.525111
F560	F	0.802395	0.496533	0.858444
F561	F	1.135729	0.829867	1.191777
H562	H	0.423795	0.065385	-0.083840
H563	H	0.757128	0.398718	0.249493
H564	H	1.090462	0.732051	0.582827
