data_functionalizedCrystal
_audit_creation_method	'MofGen! by Chris Wilmer'
_symmetry_space_group_name_H-M	'P1'
_symmetry_Int_Tables_number	1
_symmetry_cell_setting	triclinic
loop_
_symmetry_equiv_pos_as_xyz
  x,y,z
_cell_length_a	19.188930
_cell_length_b	13.101032
_cell_length_c	14.044220
_cell_angle_alpha	93.665102
_cell_angle_beta	88.166828
_cell_angle_gamma	86.634999
loop_
_atom_site_label
_atom_site_type_symbol
_atom_site_fract_x
_atom_site_fract_y
_atom_site_fract_z
O1	O	0.937312	-0.085551	0.113044
O2	O	0.735026	-0.085481	0.128975
O3	O	0.833132	-0.085505	-0.016962
O4	O	0.839206	-0.085527	0.258981
O5	O	0.826084	0.084927	-0.006480
O6	O	0.727978	0.084951	0.139457
O7	O	0.930264	0.084881	0.123526
Zn8	Zn	0.828002	0.111976	0.133156
Zn9	Zn	0.837288	-0.112576	0.119345
O10	O	0.832158	0.084905	0.269463
C11	C	0.705457	-0.000256	0.133701
C12	C	0.627852	-0.000229	0.132154
N13	N	0.821670	0.265226	0.142580
C14	C	0.826950	-0.000288	-0.047024
C15	C	0.819021	-0.000284	-0.152217
C16	C	0.588455	-0.000252	0.217783
C17	C	0.515537	-0.000263	0.216328
C18	C	0.482021	-0.000272	0.129238
C19	C	0.521427	-0.000243	0.043598
C20	C	0.594343	-0.000222	0.045056
N21	N	0.372145	-0.058314	0.059099
N22	N	0.302879	-0.058336	0.057719
C23	C	0.262331	-0.000335	0.124839
N24	N	0.293668	0.057678	0.193404
N25	N	0.362941	0.057696	0.194786
C26	C	0.402957	-0.000295	0.127647
C27	C	0.143869	-0.000368	0.208896
C28	C	0.070950	-0.000373	0.207437
C29	C	0.076842	-0.000363	0.034705
C30	C	0.149759	-0.000348	0.036166
C31	C	0.183268	-0.000355	0.123264
C32	C	0.959833	-0.000346	0.118800
C33	C	1.037439	-0.000380	0.120346
C34	C	0.852234	0.525128	0.097099
C35	C	0.813061	0.474265	0.155404
C36	C	0.817852	0.357945	0.148267
C37	C	0.847443	0.641459	0.104234
N38	N	0.843622	0.734174	0.109925
C39	C	0.804526	-0.000293	-0.344819
C40	C	0.860762	-0.000316	-0.402686
C41	C	0.852696	-0.000321	-0.509857
C42	C	0.812590	-0.000288	-0.237638
C43	C	0.838340	-0.000315	0.299525
C44	C	0.846269	-0.000326	0.404717
H45	H	0.615733	-0.000260	0.288704
O46	O	0.632697	-0.000344	-0.038074
C47	C	0.678710	-0.088617	-0.047837
H48	H	0.688300	-0.118047	0.025556
H49	H	0.730406	-0.068754	-0.082141
H50	H	0.654634	-0.150429	-0.094819
O51	O	0.768819	0.526684	0.221327
C52	C	0.773814	0.632838	0.213863
H53	H	0.826499	0.647336	0.179081
H54	H	0.768898	0.673700	0.288124
H55	H	0.730086	0.663315	0.168350
H56	H	0.038873	-0.000386	0.277170
H57	H	0.750328	-0.000277	-0.375762
H58	H	0.483454	-0.000279	0.286059
O59	O	0.896638	0.472991	0.031209
C60	C	0.965641	0.499072	0.047931
H61	H	0.964675	0.577003	0.089163
H62	H	0.995418	0.502600	-0.023220
H63	H	0.992629	0.438704	0.091371
H64	H	0.171153	-0.000359	0.279817
O65	O	0.925373	-0.000282	-0.365616
C66	C	0.919150	-0.000297	-0.265313
H67	H	0.864761	0.031981	-0.240011
H68	H	0.960056	0.049178	-0.232002
H69	H	0.927600	-0.082061	-0.242817
H70	H	0.494134	-0.000265	-0.027312
O71	O	0.044185	-0.000419	-0.049816
C72	C	-0.028623	-0.000414	-0.032742
H73	H	-0.039769	-0.032685	0.039298
H74	H	-0.052393	-0.049901	-0.091493
H75	H	-0.052580	0.081345	-0.032224
H76	H	0.181837	-0.000335	-0.033562
