data_functionalizedCrystal
_audit_creation_method	'MofGen! by Chris Wilmer'
_symmetry_space_group_name_H-M	'P1'
_symmetry_Int_Tables_number	1
_symmetry_cell_setting	triclinic
loop_
_symmetry_equiv_pos_as_xyz
  x,y,z
_cell_length_a	15.995350
_cell_length_b	10.489741
_cell_length_c	14.472310
_cell_angle_alpha	89.999301
_cell_angle_beta	89.990621
_cell_angle_gamma	84.015774
loop_
_atom_site_label
_atom_site_type_symbol
_atom_site_fract_x
_atom_site_fract_y
_atom_site_fract_z
O1	O	1.111988	0.164399	-0.076762
O2	O	0.868335	0.184702	-0.076781
O3	O	0.995706	-0.011125	-0.076766
O4	O	0.984617	0.360226	-0.076777
O5	O	0.995673	-0.011114	0.076916
O6	O	0.868302	0.184713	0.076901
O7	O	1.111955	0.164411	0.076920
Cu8	Cu	0.990125	0.174563	0.090943
Cu9	Cu	0.990164	0.174549	-0.090804
O10	O	0.984584	0.360237	0.076905
C11	C	0.837119	0.183868	0.000058
C12	C	0.744153	0.181352	0.000050
C13	C	0.406351	0.172315	0.000070
C14	C	0.452944	0.032851	0.000417
C15	C	0.549650	0.035368	0.000064
C16	C	0.573939	0.176797	0.000061
C17	C	0.533285	0.245579	-0.087698
C18	C	0.436628	0.242076	-0.087765
C19	C	0.436269	0.244970	0.087001
C20	C	0.533214	0.244937	0.088154
C21	C	0.668651	0.179338	0.000053
C22	C	0.311638	0.169778	0.000072
C23	C	0.994852	-0.058639	0.000075
C24	C	0.992346	-0.200234	0.000073
C25	C	0.911304	-0.267240	0.000060
C26	C	0.949571	-0.359892	0.075836
C27	C	0.949623	-0.359878	-0.075682
C28	C	1.030647	-0.291021	0.075912
C29	C	1.030687	-0.290998	-0.075675
C30	C	1.069013	-0.383624	0.000120
C31	C	1.143171	0.165244	0.000079
C32	C	1.236137	0.167761	0.000080
C33	C	0.985438	0.407752	0.000062
C34	C	0.987944	0.549346	0.000058
N35	N	0.990104	0.174572	0.218774
N36	N	0.990192	0.174531	-0.218635
C37	C	0.990163	0.174544	0.592865
C38	C	0.921777	0.278976	0.553691
C39	C	0.921938	0.279357	0.446603
C40	C	0.990133	0.174558	0.407274
C41	C	1.077673	0.203626	0.446117
C42	C	1.077290	0.204368	0.553238
C43	C	0.971787	0.040735	0.553397
C44	C	0.969789	0.041628	0.446269
C45	C	0.990122	0.174563	0.302386
C46	C	0.990181	0.174542	0.697753
H47	H	0.418031	0.191907	-0.153364
H48	H	0.856894	0.262038	0.420342
C49	C	0.887348	0.003002	0.589917
H50	H	0.862509	0.068511	0.629581
H51	H	0.896657	-0.075174	0.623282
H52	H	0.850773	-0.007575	0.539412
H53	H	1.021649	-0.036979	0.578729
H54	H	1.135706	-0.433981	0.000167
C55	C	0.882791	0.011822	0.411981
H56	H	0.858962	0.080092	0.374053
H57	H	0.847118	0.002425	0.463479
H58	H	0.888625	-0.065433	0.377236
H59	H	0.933437	0.377714	0.580598
C60	C	0.833625	0.255984	0.588530
H61	H	0.837734	0.182496	0.627285
H62	H	0.798458	0.242654	0.537293
H63	H	0.810304	0.328619	0.622531
H64	H	0.915266	-0.390419	0.139894
H65	H	1.094107	0.300099	0.419278
C66	C	1.076904	-0.250020	0.162557
H67	H	1.078187	-0.159680	0.162051
H68	H	1.132761	-0.290917	0.162784
H69	H	1.048286	-0.274150	0.216295
C70	C	0.903308	-0.401092	-0.162226
H71	H	0.940283	-0.458306	-0.197909
H72	H	0.885070	-0.327623	-0.198142
H73	H	0.855996	-0.442794	-0.144010
C74	C	0.937908	0.413493	0.411963
H75	H	0.944330	0.467961	0.463361
H76	H	0.891618	0.448147	0.375531
H77	H	0.987644	0.407127	0.375640
H78	H	0.844671	-0.216656	0.000131
H79	H	0.415444	0.199381	0.153519
C80	C	0.587600	-0.037670	0.085046
H81	H	0.543918	-0.069157	0.120094
H82	H	0.616222	0.018547	0.122170
H83	H	0.626064	-0.107485	0.065300
H84	H	1.064963	-0.260437	-0.139736
H85	H	0.577193	-0.019074	-0.062951
C86	C	1.148150	0.105524	0.588249
H87	H	1.177049	0.065102	0.537001
H88	H	1.124750	0.042847	0.624731
H89	H	1.186380	0.147658	0.624600
C90	C	0.554796	0.384270	0.095315
H91	H	0.529392	0.423045	0.149130
H92	H	0.534269	0.430780	0.042246
H93	H	0.614047	0.384943	0.098999
C94	C	0.393890	0.380388	-0.093157
H95	H	0.334583	0.379186	-0.093228
H96	H	0.410729	0.419686	-0.148297
H97	H	0.409986	0.427616	-0.041259
H98	H	0.561385	0.197797	-0.153007
C99	C	1.098988	0.336199	0.586981
H100	H	1.107950	0.388800	0.535221
H101	H	1.148551	0.325452	0.623523
H102	H	1.053836	0.375693	0.623002
H103	H	0.548037	0.349484	-0.090963
C104	C	0.427446	-0.042456	0.085434
H105	H	0.388152	0.010474	0.121478
H106	H	0.475867	-0.068098	0.121568
H107	H	0.402568	-0.116200	0.065702
H108	H	1.129811	0.129587	0.420640
C109	C	1.032617	-0.068285	0.410112
H110	H	1.018814	-0.147379	0.434765
H111	H	1.087884	-0.054292	0.428681
H112	H	1.029904	-0.071003	0.344578
C113	C	0.426040	-0.042128	-0.084122
H114	H	0.386538	0.011193	-0.119630
H115	H	0.401050	-0.115547	-0.063938
H116	H	0.473937	-0.068266	-0.120964
H117	H	0.560214	0.194727	0.153077
H118	H	0.405128	0.347796	0.087591
