data_functionalizedCrystal
_audit_creation_method	'MofGen! by Chris Wilmer'
_symmetry_space_group_name_H-M	'P1'
_symmetry_Int_Tables_number	1
_symmetry_cell_setting	triclinic
loop_
_symmetry_equiv_pos_as_xyz
  x,y,z
_cell_length_a	14.519731
_cell_length_b	14.519709
_cell_length_c	11.892113
_cell_angle_alpha	94.362140
_cell_angle_beta	94.361005
_cell_angle_gamma	83.684499
loop_
_atom_site_label
_atom_site_type_symbol
_atom_site_fract_x
_atom_site_fract_y
_atom_site_fract_z
O1	O	1.229124	0.126254	0.094009
O2	O	1.729124	0.626254	0.594009
O3	O	0.960650	0.140470	0.094011
O4	O	1.460650	0.640470	0.594011
O5	O	1.102005	-0.000877	0.094000
O6	O	1.602005	0.499123	0.594000
O7	O	1.087770	0.267600	0.094020
O8	O	1.587770	0.767600	0.594020
O9	O	1.091455	-0.011419	-0.094008
O10	O	1.591455	0.488581	0.405992
O11	O	0.950101	0.129928	-0.093997
O12	O	1.450101	0.629928	0.406003
O13	O	1.218575	0.115712	-0.093999
O14	O	1.718575	0.615712	0.406001
Zn15	Zn	1.082663	0.121146	-0.123849
Zn16	Zn	1.582663	0.621146	0.376151
Zn17	Zn	1.096562	0.135036	0.123860
Zn18	Zn	1.596562	0.635036	0.623860
O19	O	1.077220	0.257058	-0.093988
O20	O	1.577220	0.757058	0.406012
C21	C	0.921016	0.134533	0.000007
C22	C	1.421016	0.634533	0.500007
C23	C	0.818636	0.132537	0.000007
C24	C	1.318636	0.632537	0.500007
C25	C	0.735492	0.130915	0.000012
C26	C	1.235492	0.630915	0.500012
C27	C	0.631183	0.128889	0.000012
C28	C	1.131183	0.628889	0.500012
C29	C	0.548044	0.127280	0.000012
C30	C	1.048044	0.627280	0.500012
C31	C	0.443729	0.125254	0.000014
C32	C	0.943729	0.625254	0.500014
C33	C	1.096067	-0.040507	-0.000005
C34	C	1.596067	0.459493	0.499995
C35	C	1.094078	-0.142889	-0.000005
C36	C	1.594078	0.357111	0.499995
C37	C	1.086761	-0.517784	0.000024
C38	C	1.586761	-0.017784	0.500024
C39	C	1.088793	-0.413476	0.000016
C40	C	1.588793	0.086524	0.500016
C41	C	1.090419	-0.330340	0.000008
C42	C	1.590419	0.169660	0.500008
C43	C	1.092452	-0.226025	0.000002
C44	C	1.592452	0.273975	0.500002
C45	C	1.258209	0.121649	0.000007
C46	C	1.758209	0.621649	0.500007
C47	C	1.360590	0.123646	0.000014
C48	C	1.860590	0.623646	0.500014
C49	C	1.083159	0.296689	0.000019
C50	C	1.583159	0.796689	0.500019
C51	C	1.085147	0.399071	0.000027
C52	C	1.585147	0.899071	0.500027
N53	N	1.073183	0.111666	-0.292903
N54	N	1.573183	0.611666	0.207097
C55	C	1.172002	0.210520	-0.529545
C56	C	1.672002	0.710520	-0.029545
C57	C	1.165384	0.203886	-0.647887
C58	C	1.665384	0.703886	-0.147887
C59	C	1.053332	0.091759	-0.647932
C60	C	1.553332	0.591759	-0.147932
C61	C	1.059951	0.098393	-0.529590
C62	C	1.559951	0.598393	-0.029590
C63	C	1.119287	0.157777	-0.470400
C64	C	1.619287	0.657777	0.029600
C65	C	1.125900	0.164415	-0.352056
C66	C	1.625900	0.664415	0.147944
C67	C	1.013854	0.052284	-0.352103
C68	C	1.513854	0.552284	0.147897
C69	C	1.007235	0.045650	-0.470445
C70	C	1.507235	0.545650	0.029555
N71	N	1.106049	0.144508	0.292915
N72	N	1.606049	0.644508	0.792915
H73	H	1.174211	0.212772	-0.303866
H74	H	1.674211	0.712772	0.196134
H75	H	0.970925	0.009342	-0.303935
H76	H	1.470925	0.509342	0.196065
C77	C	1.237267	0.275846	-0.464434
C78	C	1.737267	0.775846	0.035566
N79	N	1.286427	0.325049	-0.415394
N80	N	1.786427	0.825049	0.084606
C81	C	1.223364	0.261918	-0.712942
C82	C	1.723364	0.761918	-0.212942
N83	N	1.267035	0.305634	-0.761941
N84	N	1.767035	0.805634	-0.261941
C85	C	0.988068	0.026442	-0.713061
C86	C	1.488068	0.526442	-0.213061
N87	N	0.938909	-0.022754	-0.762118
N88	N	1.438909	0.477246	-0.262118
H89	H	0.958929	-0.002701	-0.518654
H90	H	1.458929	0.497299	-0.018654
