data_functionalizedCrystal
_audit_creation_method	'MofGen! by Chris Wilmer'
_symmetry_space_group_name_H-M	'P1'
_symmetry_Int_Tables_number	1
_symmetry_cell_setting	triclinic
loop_
_symmetry_equiv_pos_as_xyz
  x,y,z
_cell_length_a	17.077404
_cell_length_b	18.050590
_cell_length_c	17.077396
_cell_angle_alpha	90.029775
_cell_angle_beta	90.019501
_cell_angle_gamma	90.018777
loop_
_atom_site_label
_atom_site_type_symbol
_atom_site_fract_x
_atom_site_fract_y
_atom_site_fract_z
Zn1	Zn	1.200078	-0.295655	0.443836
Zn2	Zn	1.199995	-0.419852	0.312567
Zn3	Zn	1.068810	-0.295681	0.312584
Zn4	Zn	1.068788	-0.419808	0.443790
O5	O	1.134418	-0.357749	0.378194
O6	O	1.309914	-0.312138	0.426434
O7	O	1.182568	-0.403410	0.202722
O8	O	1.086267	-0.191753	0.330021
O9	O	1.309853	-0.403385	0.329992
O10	O	1.182709	-0.191734	0.426451
O11	O	1.086187	-0.312182	0.202734
O12	O	0.958960	-0.312139	0.329977
O13	O	1.086229	-0.403310	0.553643
O14	O	0.958944	-0.403335	0.426374
O15	O	1.182688	-0.312095	0.553677
O16	O	1.182546	-0.523771	0.329948
O17	O	1.086149	-0.523739	0.426357
C18	C	0.930470	-0.357736	0.378172
C19	C	0.843220	-0.357748	0.378182
C20	C	0.802242	-0.405305	0.428295
C21	C	0.720262	-0.405307	0.428308
C22	C	0.679261	-0.357754	0.378202
C23	C	0.720245	-0.310192	0.328087
C24	C	0.802224	-0.310187	0.328079
C25	C	0.549375	-0.310206	0.328106
C26	C	0.467390	-0.310212	0.328112
C27	C	0.467413	-0.405326	0.428335
C28	C	0.549392	-0.405321	0.428327
C29	C	0.590370	-0.357760	0.378210
C30	C	1.134358	-0.550701	0.378163
C31	C	1.134404	-0.633247	0.378176
C32	C	1.186934	-0.832688	0.325821
C33	C	1.206108	-0.882019	0.397464
C34	C	1.134448	-0.784377	0.378207
C35	C	1.115353	-0.882128	0.306596
C36	C	1.134493	-0.930362	0.378231
C37	C	1.153660	-0.832621	0.449887
C38	C	1.062871	-0.832726	0.358971
C39	C	1.082019	-0.882034	0.430663
C40	C	1.134424	-0.700279	0.378192
C41	C	1.134516	-1.014459	0.378254
C42	C	1.339162	-0.357763	0.378216
C43	C	1.426412	-0.357769	0.378226
C44	C	1.134465	-0.357694	0.582938
C45	C	1.134486	-0.357671	0.670188
C46	C	1.134500	-0.164043	0.378243
C47	C	1.134535	-0.081498	0.378263
C48	C	1.134416	-0.357750	0.174246
C49	C	1.134548	-0.357564	0.086997
C50	C	1.184713	-0.310172	0.711197
C51	C	1.184723	-0.310147	0.793178
C52	C	1.134508	-0.357626	0.834148
C53	C	1.084275	-0.405127	0.793133
C54	C	1.084262	-0.405148	0.711154
C55	C	1.084306	-0.405083	0.964003
C56	C	1.084320	-0.405064	1.045988
C57	C	1.184767	-0.310082	1.046027
C58	C	1.184754	-0.310102	0.964048
C59	C	1.134522	-0.357605	0.923039
H60	H	0.835619	-0.444030	0.469094
H61	H	0.582772	-0.444047	0.469122
C62	C	0.422816	-0.258688	0.273649
C63	C	0.375716	-0.300658	0.223242
C64	C	0.334644	-0.253214	0.173066
H65	H	0.390803	-0.226373	0.303683
H66	H	0.458923	-0.230357	0.243757
H67	H	0.339613	-0.328977	0.253131
H68	H	0.407709	-0.332972	0.193191
H69	H	0.370751	-0.224882	0.143174
H70	H	0.302636	-0.220901	0.203107
H71	H	0.302687	-0.281683	0.138855
H72	H	1.225607	-0.271511	0.677845
H73	H	1.169769	-0.810967	0.510509
C74	C	1.029712	-0.456636	1.090331
C75	C	0.985698	-0.498223	1.036873
C76	C	0.935377	-0.545733	1.077692
H77	H	1.059642	-0.489056	1.122309
H78	H	0.995490	-0.428228	1.122297
H79	H	1.019915	-0.526629	1.004920
H80	H	0.955752	-0.465823	1.004893
H81	H	0.901156	-0.517325	1.109659
H82	H	0.965313	-0.578148	1.109670
H83	H	0.905503	-0.573950	1.041428
C84	C	0.675688	-0.258684	0.273592
C85	C	0.628605	-0.300674	0.223189
C86	C	0.587558	-0.253251	0.172971
H87	H	0.643666	-0.226351	0.303596
H88	H	0.711810	-0.230369	0.243700
H89	H	0.592487	-0.328976	0.253079
H90	H	0.660608	-0.333005	0.193168
H91	H	0.623679	-0.224937	0.143078
H92	H	0.555540	-0.220921	0.202981
H93	H	0.555612	-0.281735	0.138762
C94	C	1.029710	-0.456812	0.666769
C95	C	0.985756	-0.498407	0.720193
C96	C	0.935503	-0.546017	0.679335
H97	H	0.995442	-0.428499	0.634783
H98	H	1.059711	-0.489217	0.634807
H99	H	0.955757	-0.466006	0.752141
H100	H	1.020003	-0.526735	0.752181
H101	H	0.965503	-0.578422	0.647373
H102	H	0.901240	-0.517699	0.647350
H103	H	0.905679	-0.574250	0.715577
H104	H	0.835587	-0.271457	0.287275
H105	H	0.686901	-0.444033	0.469114
C106	C	1.093678	-0.911225	0.225905
C107	C	1.025427	-0.953914	0.231295
C108	C	1.005450	-0.980736	0.156980
H109	H	1.084931	-0.870751	0.191473
H110	H	1.135172	-0.940949	0.206275
H111	H	0.983942	-0.924191	0.250914
H112	H	1.034156	-0.994399	0.265713
H113	H	1.046944	-1.010461	0.137350
H114	H	0.996706	-0.940258	0.122553
H115	H	0.959144	-1.009709	0.160628
H116	H	0.434044	-0.444050	0.469144
C117	C	1.022964	-0.910709	0.489936
C118	C	1.043342	-0.885500	0.564769
C119	C	0.988969	-0.911910	0.619393
H120	H	0.972224	-0.893099	0.476801
H121	H	1.023007	-0.963339	0.489370
H122	H	1.043291	-0.832881	0.565333
H123	H	1.094073	-0.903108	0.577928
H124	H	0.989013	-0.964541	0.618827
H125	H	0.938233	-0.894299	0.606251
H126	H	1.002792	-0.894816	0.670174
H127	H	1.266659	-0.903674	0.413749
C128	C	1.246256	-0.803830	0.266915
C129	C	1.321114	-0.828792	0.287438
C130	C	1.375783	-0.802214	0.233203
H131	H	1.233280	-0.821491	0.216135
H132	H	1.245546	-0.751202	0.266994
H133	H	1.321821	-0.881409	0.287351
H134	H	1.334114	-0.811133	0.338209
H135	H	1.375073	-0.749585	0.233282
H136	H	1.362799	-0.819876	0.182426
H137	H	1.426581	-0.819140	0.247124
H138	H	0.582736	-0.271470	0.287302
C139	C	1.239123	-0.258475	0.837736
C140	C	1.194700	-0.210842	0.884780
C141	C	1.244784	-0.163218	0.925826
H142	H	1.273337	-0.286782	0.869785
H143	H	1.269010	-0.230162	0.801614
H144	H	1.164825	-0.239152	0.920898
H145	H	1.160488	-0.182518	0.852750
H146	H	1.274672	-0.134905	0.889704
H147	H	1.278996	-0.191531	0.957870
H148	H	1.214650	-0.130889	0.957744
C149	C	0.982088	-0.803928	0.337337
C150	C	0.927126	-0.830033	0.391531
C151	C	0.852699	-0.803528	0.371611
H152	H	0.982435	-0.751308	0.337974
H153	H	0.968532	-0.820873	0.286426
H154	H	0.940678	-0.813084	0.442429
H155	H	0.926754	-0.882650	0.390903
H156	H	0.839142	-0.820473	0.320700
H157	H	0.853054	-0.750909	0.372248
H158	H	0.815397	-0.821242	0.408374
C159	C	1.239258	-0.258379	1.090441
C160	C	1.222209	-0.184907	1.070492
C161	C	1.272398	-0.137262	1.111384
H162	H	1.232127	-0.265058	1.145146
H163	H	1.292006	-0.269214	1.076995
H164	H	1.169474	-0.174076	1.083943
H165	H	1.229345	-0.178205	1.015794
H166	H	1.325145	-0.148097	1.097938
H167	H	1.265262	-0.143947	1.166086
H168	H	1.260841	-0.087407	1.097848
H169	H	1.225648	-0.271445	0.930692
H170	H	1.043389	-0.443753	0.930617
H171	H	1.043386	-0.443783	0.826498
