data_functionalizedCrystal
_audit_creation_method	'MofGen! by Chris Wilmer'
_symmetry_space_group_name_H-M	'P1'
_symmetry_Int_Tables_number	1
_symmetry_cell_setting	triclinic
loop_
_symmetry_equiv_pos_as_xyz
  x,y,z
_cell_length_a	18.215407
_cell_length_b	12.759394
_cell_length_c	12.759387
_cell_angle_alpha	90.031660
_cell_angle_beta	90.023041
_cell_angle_gamma	90.015285
loop_
_atom_site_label
_atom_site_type_symbol
_atom_site_fract_x
_atom_site_fract_y
_atom_site_fract_z
Zn1	Zn	1.125147	-0.418198	0.594070
Zn2	Zn	1.125070	-0.593916	0.418388
Zn3	Zn	1.002072	-0.418252	0.418399
Zn4	Zn	1.002067	-0.593837	0.594019
O5	O	1.063589	-0.506051	0.506219
O6	O	1.228121	-0.441518	0.570782
O7	O	1.108724	-0.570669	0.271368
O8	O	1.018433	-0.271224	0.441728
O9	O	1.228064	-0.570616	0.441709
O10	O	1.108855	-0.271185	0.570793
O11	O	1.018358	-0.441610	0.271376
O12	O	0.899087	-0.441534	0.441679
O13	O	1.018423	-0.570483	0.741047
O14	O	0.899083	-0.570536	0.570706
O15	O	1.108850	-0.441442	0.741084
O16	O	1.108719	-0.740926	0.441659
O17	O	1.018349	-0.740869	0.570695
C18	C	0.872383	-0.506033	0.506189
C19	C	0.790584	-0.506051	0.506201
C20	C	0.602407	-0.573327	0.573301
C21	C	0.525548	-0.573331	0.573314
C22	C	0.525523	-0.438794	0.439160
C23	C	0.602380	-0.438786	0.439153
C24	C	0.640820	-0.506059	0.506222
C25	C	0.487104	-0.506070	0.506242
C26	C	0.403770	-0.506073	0.506256
C27	C	0.724159	-0.506054	0.506210
C28	C	1.063545	-0.779018	0.506193
C29	C	1.063593	-0.895795	0.506218
C30	C	1.157766	-0.895802	0.371954
C31	C	1.204871	-0.950665	0.304834
C32	C	1.204915	-1.060387	0.304862
C33	C	1.157849	-1.115247	0.372020
C34	C	1.110743	-1.060383	0.439140
C35	C	1.110703	-0.950659	0.439102
C36	C	1.016575	-1.060377	0.573408
C37	C	1.016527	-0.950655	0.573375
C38	C	0.969509	-1.115237	0.640565
C39	C	0.922399	-1.060373	0.707681
C40	C	0.922357	-0.950645	0.707649
C41	C	0.969422	-0.895791	0.640495
C42	C	1.255542	-0.506070	0.506250
C43	C	1.337341	-0.506078	0.506263
C44	C	1.063644	-0.505948	0.780252
C45	C	1.063668	-0.505904	0.897029
C46	C	1.063653	-0.232018	0.506267
C47	C	1.063681	-0.115241	0.506288
C48	C	1.063576	-0.506078	0.233251
C49	C	1.063695	-0.505826	0.116475
C50	C	1.157835	-0.371542	0.897088
C51	C	1.204929	-0.304346	0.951978
C52	C	1.204947	-0.304307	1.061700
C53	C	1.157865	-0.371471	1.116534
C54	C	1.110771	-0.438667	1.061644
C55	C	1.110759	-0.438701	0.951919
C56	C	1.016601	-0.573022	1.061585
C57	C	1.016585	-0.573067	0.951863
C58	C	0.969518	-0.640186	1.116419
C59	C	0.922427	-0.707389	1.061529
C60	C	0.922411	-0.707425	0.951800
C61	C	0.969492	-0.640264	0.896973
H62	H	0.494275	-0.628106	0.627938
H63	H	0.633702	-0.628103	0.627915
H64	H	1.157726	-0.806460	0.371910
H65	H	0.884054	-0.762134	0.907115
O66	O	0.871644	-1.119547	0.780110
H67	H	0.838881	-1.062967	0.826780
O68	O	0.643812	-0.366238	0.366781
H69	H	0.629075	-0.283801	0.384925
O70	O	0.969534	-0.640138	1.234762
H71	H	0.928880	-0.698121	1.263667
H72	H	0.969487	-0.640292	0.807632
H73	H	1.243194	-0.905989	0.250157
O74	O	1.157875	-0.371426	1.234877
H75	H	1.198532	-0.313418	1.263833
O76	O	1.255717	-1.119572	0.232469
H77	H	1.288434	-1.062997	0.185761
H78	H	1.157894	-1.204588	0.372046
O79	O	1.255731	-0.231833	1.120925
H80	H	1.313486	-0.249869	1.099899
H81	H	0.969551	-1.204578	0.640588
O82	O	0.871542	-0.891469	0.780032
H83	H	0.838820	-0.948054	0.826722
H84	H	0.969387	-0.806450	0.640455
O85	O	0.871645	-0.779818	1.120665
H86	H	0.879567	-0.768499	1.206183
H87	H	1.243262	-0.249661	0.907320
O88	O	0.484064	-0.366271	0.366788
H89	H	0.424166	-0.377594	0.378043
O90	O	1.157817	-0.371590	0.778745
H91	H	1.198463	-0.313597	0.749837
