data_functionalizedCrystal
_audit_creation_method	'MofGen! by Chris Wilmer'
_symmetry_space_group_name_H-M	'P1'
_symmetry_Int_Tables_number	1
_symmetry_cell_setting	triclinic
loop_
_symmetry_equiv_pos_as_xyz
  x,y,z
_cell_length_a	16.109318
_cell_length_b	11.026623
_cell_length_c	9.483334
_cell_angle_alpha	78.597253
_cell_angle_beta	80.717014
_cell_angle_gamma	83.972367
loop_
_atom_site_label
_atom_site_type_symbol
_atom_site_fract_x
_atom_site_fract_y
_atom_site_fract_z
O1	O	1.116406	-0.175053	0.120764
O2	O	1.616406	0.324947	0.620764
O3	O	0.877249	-0.194447	0.120793
O4	O	1.377249	0.305553	0.620793
O5	O	0.977007	-0.008102	0.120773
O6	O	1.477007	0.491898	0.620773
O7	O	1.016649	-0.361398	0.120784
O8	O	1.516649	0.138602	0.620784
O9	O	0.997226	0.029899	-0.121006
O10	O	1.497226	0.529899	0.378994
O11	O	0.897469	-0.156445	-0.120987
O12	O	1.397469	0.343555	0.379013
O13	O	1.136625	-0.137052	-0.121015
O14	O	1.636625	0.362948	0.378985
Cu15	Cu	1.018893	-0.143278	-0.143077
Cu16	Cu	1.518893	0.356722	0.356923
Cu17	Cu	0.994982	-0.188220	0.142855
Cu18	Cu	1.494982	0.311780	0.642855
O19	O	1.036868	-0.323396	-0.120996
O20	O	1.536868	0.176604	0.379004
C21	C	0.856266	-0.174657	-0.000093
C22	C	1.356266	0.325343	0.499907
C23	C	0.763616	-0.172293	-0.000082
C24	C	1.263616	0.327707	0.499918
C25	C	0.452378	-0.185363	0.131686
C26	C	0.952378	0.314637	0.631686
C27	C	0.539430	-0.187580	0.131695
C28	C	1.039430	0.312420	0.631695
C29	C	0.561490	-0.146131	-0.131906
C30	C	1.061490	0.353869	0.368094
C31	C	0.474439	-0.143907	-0.131914
C32	C	0.974439	0.356093	0.368086
C33	C	0.419885	-0.163530	-0.000113
C34	C	0.919885	0.336470	0.499887
C35	C	0.593989	-0.167970	-0.000097
C36	C	1.093989	0.332030	0.499903
C37	C	0.688375	-0.170373	-0.000088
C38	C	1.188375	0.329627	0.499912
C39	C	0.325493	-0.161125	-0.000121
C40	C	0.825493	0.338875	0.499879
C41	C	0.979803	0.056107	-0.000114
C42	C	1.479803	0.556107	0.499886
C43	C	0.958001	0.190813	-0.000108
C44	C	1.458001	0.690813	0.499892
C45	C	1.018197	0.264638	-0.000114
C46	C	1.518197	0.764638	0.499886
C47	C	0.995665	0.403864	-0.000108
C48	C	1.495665	0.903864	0.499892
C49	C	1.157609	-0.156841	-0.000126
C50	C	1.657609	0.343159	0.499874
C51	C	1.250258	-0.159207	-0.000128
C52	C	1.750258	0.340793	0.499872
N53	N	1.035717	-0.111668	-0.344187
N54	N	1.535717	0.388332	0.155813
C55	C	1.034071	0.612395	-0.000108
C56	C	1.534071	1.112395	0.499892
C57	C	1.055870	0.477688	-0.000114
C58	C	1.555870	0.977688	0.499886
C59	C	0.999934	-0.178896	-0.416409
C60	C	1.499934	0.321104	0.083591
C61	C	1.013951	-0.152583	-0.583817
C62	C	1.513951	0.347417	-0.083817
N63	N	0.978163	-0.219820	0.343964
N64	N	1.478163	0.280180	0.843964
H65	H	0.565881	-0.205357	0.239019
H66	H	1.065881	0.294643	0.739019
H67	H	1.086415	0.224770	-0.000131
H68	H	1.586415	0.724770	0.499869
O69	O	0.620334	-0.124983	-0.274055
O70	O	1.120334	0.375017	0.225945
H71	H	0.613867	-0.197273	-0.337257
H72	H	1.113867	0.302727	0.162743
H73	H	0.447984	-0.126125	-0.239247
H74	H	0.947984	0.373875	0.260753
O75	O	0.923825	-0.321862	-0.573790
O76	O	1.423825	0.178138	-0.073790
H77	H	0.961965	-0.391540	-0.504422
H78	H	1.461965	0.108460	-0.004422
O79	O	1.090043	-0.009618	-0.426430
O80	O	1.590043	0.490382	0.073570
H81	H	1.092523	-0.004959	-0.545013
H82	H	1.592523	0.495041	-0.045013
H83	H	0.927443	0.443727	-0.000091
H84	H	1.427443	0.943727	0.499909
H85	H	0.407962	-0.201340	0.239007
H86	H	0.907962	0.298660	0.739007
H87	H	1.124083	0.437809	-0.000012
H88	H	1.624083	0.937809	0.499988
O89	O	0.867636	0.243606	-0.000107
O90	O	1.367636	0.743606	0.499893
H91	H	0.864120	0.344678	-0.000118
H92	H	1.364120	0.844678	0.499882
H93	H	0.958925	-0.255937	-0.354307
H94	H	1.458925	0.244063	0.145693
H95	H	1.054970	-0.075546	-0.645915
H96	H	1.554970	0.424454	-0.145915
