data_functionalizedCrystal
_audit_creation_method	'MofGen! by Chris Wilmer'
_symmetry_space_group_name_H-M	'P1'
_symmetry_Int_Tables_number	1
_symmetry_cell_setting	triclinic
loop_
_symmetry_equiv_pos_as_xyz
  x,y,z
_cell_length_a	17.640280
_cell_length_b	17.638785
_cell_length_c	17.639477
_cell_angle_alpha	92.171866
_cell_angle_beta	70.346041
_cell_angle_gamma	114.313988
loop_
_atom_site_label
_atom_site_type_symbol
_atom_site_fract_x
_atom_site_fract_y
_atom_site_fract_z
Zn1	Zn	-0.431961	-1.175179	-0.596877
Zn2	Zn	0.068039	-0.675179	-0.096877
Zn3	Zn	-0.608915	-1.242107	-0.442471
Zn4	Zn	-0.108915	-0.742107	0.057529
Zn5	Zn	-0.443211	-1.076475	-0.442519
Zn6	Zn	0.056789	-0.576475	0.057481
Zn7	Zn	-0.553084	-1.076454	-0.552453
Zn8	Zn	-0.053084	-0.576454	-0.052453
O9	O	-0.509293	-1.142554	-0.508580
O10	O	-0.009293	-0.642554	-0.008580
O11	O	-0.474092	-1.294692	-0.594967
O12	O	0.025908	-0.794692	-0.094967
O13	O	-0.615008	-1.248154	-0.331849
O14	O	-0.115008	-0.748154	0.168151
O15	O	-0.321680	-1.061568	-0.481607
O16	O	0.178320	-0.561568	0.018393
O17	O	-0.604100	-1.343864	-0.481525
O18	O	-0.104100	-0.843864	0.018475
O19	O	-0.313415	-1.134085	-0.595013
O20	O	0.186585	-0.634085	-0.095013
O21	O	-0.493265	-1.126465	-0.331885
O22	O	0.006735	-0.626465	0.168115
O23	O	-0.439128	-0.965838	-0.438530
O24	O	0.060872	-0.465838	0.061470
O25	O	-0.508943	-1.061532	-0.668974
O26	O	-0.008943	-0.561532	-0.168974
O27	O	-0.519851	-0.965822	-0.519299
O28	O	-0.019851	-0.465822	-0.019299
O29	O	-0.419954	-1.134065	-0.701612
O30	O	0.080046	-0.634065	-0.201612
O31	O	-0.721547	-1.248134	-0.438448
O32	O	-0.221547	-0.748134	0.061552
O33	O	-0.680528	-1.126429	-0.519252
O34	O	-0.180528	-0.626429	-0.019252
C35	C	-0.474652	-0.937144	-0.474099
C36	C	0.025348	-0.437144	0.025901
C37	C	-0.459849	-0.849269	-0.459364
C38	C	0.040151	-0.349269	0.040636
C39	C	-0.621858	-0.560534	-0.620692
C40	C	-0.121858	-0.060534	-0.120692
C41	C	-0.607945	-0.477965	-0.606827
C42	C	-0.107945	0.022035	-0.106827
C43	C	-0.523678	-0.477868	-0.522906
C44	C	-0.023678	0.022132	-0.022906
C45	C	-0.537587	-0.560440	-0.536761
C46	C	-0.037587	-0.060440	-0.036761
C47	C	-0.586677	-0.601766	-0.585655
C48	C	-0.086677	-0.101766	-0.085655
C49	C	-0.502406	-0.601673	-0.501724
C50	C	-0.002406	-0.101673	-0.001724
C51	C	-0.516311	-0.684236	-0.515581
C52	C	-0.016311	-0.184236	-0.015581
C53	C	-0.565396	-0.725567	-0.564475
C54	C	-0.065396	-0.225567	-0.064475
C55	C	-0.600581	-0.684330	-0.599512
C56	C	-0.100581	-0.184330	-0.099512
C57	C	-0.453311	-0.560343	-0.452834
C58	C	0.046689	-0.060343	0.047166
C59	C	-0.418131	-0.601575	-0.417797
C60	C	0.081869	-0.101575	0.082203
C61	C	-0.432040	-0.684142	-0.431650
C62	C	0.067960	-0.184142	0.068350
C63	C	-0.481125	-0.725473	-0.480544
C64	C	0.018875	-0.225473	0.019456
C65	C	-0.396855	-0.725379	-0.396612
C66	C	0.103145	-0.225379	0.103388
C67	C	-0.410759	-0.807943	-0.410469
C68	C	0.089241	-0.307943	0.089531
C69	C	-0.495030	-0.808036	-0.494401
C70	C	0.004970	-0.308036	0.005599
C71	C	-0.732162	-1.194559	-0.474045
C72	C	-0.232162	-0.694559	0.025955
C73	C	-0.827511	-1.216872	-0.459310
C74	C	-0.327511	-0.716872	0.040690
C75	C	-1.034498	-0.973292	-0.620867
C76	C	-0.534498	-0.473292	-0.120867
C77	C	-1.124100	-0.994267	-0.606995
C78	C	-0.624100	-0.494267	-0.106995
C79	C	-1.166733	-1.121035	-0.522967
C80	C	-0.666733	-0.621035	-0.022967
C81	C	-1.077132	-1.100073	-0.536835
C82	C	-0.577132	-0.600073	-0.036835
C83	C	-1.011021	-1.026200	-0.585784
C84	C	-0.511021	-0.526200	-0.085784
C85	C	-1.053655	-1.152981	-0.501752
C86	C	-0.553655	-0.652981	-0.001752
C87	C	-0.964063	-1.132018	-0.515615
C88	C	-0.464063	-0.632018	-0.015615
C89	C	-0.897947	-1.058147	-0.564561
C90	C	-0.397947	-0.558147	-0.064561
C91	C	-0.921428	-1.005237	-0.599647
C92	C	-0.421428	-0.505237	-0.099647
C93	C	-1.119768	-1.226850	-0.452798
C94	C	-0.619768	-0.726850	0.047202
C95	C	-1.096291	-1.279758	-0.417716
C96	C	-0.596291	-0.779758	0.082284
C97	C	-1.006697	-1.258798	-0.431583
C98	C	-0.506697	-0.758798	0.068417
C99	C	-0.940581	-1.184927	-0.480529
C100	C	-0.440581	-0.684927	0.019471
C101	C	-0.983215	-1.311708	-0.396497
C102	C	-0.483215	-0.811708	0.103503
C103	C	-0.893623	-1.290745	-0.410360
C104	C	-0.393623	-0.790745	0.089640
C105	C	-0.850988	-1.163964	-0.494392
C106	C	-0.350988	-0.663964	0.005608
C107	C	-0.285553	-1.090363	-0.543271
C108	C	0.214447	-0.590363	-0.043271
C109	C	-0.190208	-1.068123	-0.558054
C110	C	0.309792	-0.568123	-0.058054
C111	C	-0.456966	-1.090330	-0.714780
C112	C	0.043034	-0.590330	-0.214780
C113	C	-0.434667	-1.068076	-0.802650
C114	C	0.065333	-0.568076	-0.302650
C115	C	-0.544063	-0.348765	-0.543195
C116	C	-0.044063	0.151235	-0.043195
C117	C	-0.558863	-0.436636	-0.557946
C118	C	-0.058863	0.063364	-0.057946
C119	C	-0.678258	-1.311680	-1.091529
C120	C	-0.178258	-0.811680	-0.591529
C121	C	-0.657294	-1.290756	-1.174096
C122	C	-0.157294	-0.790756	-0.674096
C123	C	-0.530532	-1.164050	-1.174132
C124	C	-0.030532	-0.664050	-0.674132
C125	C	-0.551488	-1.184961	-1.091562
C126	C	-0.051488	-0.684961	-0.591562
C127	C	-0.625352	-1.258778	-1.050268
C128	C	-0.125352	-0.758778	-0.550268
C129	C	-0.498581	-1.132058	-1.050301
C130	C	0.001419	-0.632058	-0.550301
C131	C	-0.519533	-1.152971	-0.967739
C132	C	-0.019533	-0.652971	-0.467739
C133	C	-0.593392	-1.226785	-0.926439
C134	C	-0.093392	-0.726785	-0.426439
C135	C	-0.646304	-1.279690	-0.967706
C136	C	-0.146304	-0.779690	-0.467706
C137	C	-0.424714	-1.058245	-1.091598
C138	C	0.075286	-0.558245	-0.591598
C139	C	-0.371808	-1.005343	-1.050337
C140	C	0.128192	-0.505343	-0.550337
C141	C	-0.392763	-1.026251	-0.967773
C142	C	0.107237	-0.526251	-0.467773
C143	C	-0.466622	-1.100066	-0.926473
C144	C	0.033378	-0.600066	-0.426473
C145	C	-0.339852	-0.973347	-0.926506
C146	C	0.160148	-0.473347	-0.426506
C147	C	-0.360804	-0.994259	-0.843944
C148	C	0.139196	-0.494259	-0.343944
C149	C	-0.487574	-1.120978	-0.843911
C150	C	0.012426	-0.620978	-0.343911
C151	C	-0.561362	-1.194606	-0.303200
C152	C	-0.061362	-0.694606	0.196800
C153	C	-0.583444	-1.216957	-0.215393
C154	C	-0.083444	-0.716957	0.284607
H155	H	-0.483706	-0.444209	-0.483099
H156	H	0.016294	0.055791	0.016901
H157	H	-0.356879	-0.691717	-0.356809
H158	H	0.143121	-0.191717	0.143191
H159	H	-0.874509	-1.333828	-0.381791
H160	H	-0.374509	-0.833828	0.118209
H161	H	-0.980665	-0.913142	-0.660733
H162	H	-0.480665	-0.413142	-0.160733
Br163	Br	-0.434434	-0.448289	-0.434033
Br164	Br	0.065566	0.051711	0.065967
Br165	Br	-0.831697	-0.904987	-0.666092
Br166	Br	-0.331697	-0.404987	-0.166092
H167	H	-1.143207	-0.951185	-0.635579
H168	H	-0.643207	-0.451185	-0.135579
H169	H	-0.824996	-1.041076	-0.575841
H170	H	-0.324996	-0.541076	-0.075841
H171	H	-1.220572	-1.181181	-0.483110
H172	H	-0.720572	-0.681181	0.016890
H173	H	-1.192719	-1.243917	-0.441515
H174	H	-0.692719	-0.743917	0.058485
Br175	Br	-1.186019	-1.380011	-0.351287
Br176	Br	-0.686019	-0.880011	0.148713
Br177	Br	-0.363011	-0.863905	-0.362922
Br178	Br	0.136989	-0.363905	0.137078
Br179	Br	-1.072946	-1.411954	-0.330059
Br180	Br	-0.572946	-0.911954	0.169941
H181	H	-0.547714	-1.181092	-0.810289
H182	H	-0.047714	-0.681092	-0.310289
H183	H	-0.576710	-0.792793	-0.575762
H184	H	-0.076710	-0.292793	-0.075762
Br185	Br	-0.621826	-1.255173	-0.814392
Br186	Br	-0.121826	-0.755173	-0.314392
Br187	Br	-0.746561	-1.379861	-0.911651
Br188	Br	-0.246561	-0.879861	-0.411651
H189	H	-0.738399	-1.371794	-1.057907
H190	H	-0.238399	-0.871794	-0.557907
H191	H	-0.700381	-1.333842	-1.207689
H192	H	-0.200381	-0.833842	-0.707689
Br193	Br	-0.667218	-0.740428	-0.665858
Br194	Br	-0.167218	-0.240428	-0.165858
Br195	Br	-0.288998	-0.922466	-0.787943
Br196	Br	0.211002	-0.422466	-0.287943
H197	H	-0.470390	-1.103950	-1.207766
H198	H	0.029610	-0.603950	-0.707766
H199	H	-0.407655	-1.041224	-1.158826
H200	H	0.092345	-0.541224	-0.658826
H201	H	-0.311666	-0.945243	-1.083971
H202	H	0.188334	-0.445243	-0.583971
H203	H	-0.636594	-0.444395	-0.635366
H204	H	-0.136594	0.055605	-0.135366
Br205	Br	-0.561666	-0.864135	-0.560746
Br206	Br	-0.061666	-0.364135	-0.060746
Br207	Br	-0.688495	-0.616633	-0.687037
Br208	Br	-0.188495	-0.116633	-0.187037
Br209	Br	-0.351504	-0.545481	-0.351449
Br210	Br	0.148496	-0.045481	0.148551
Br211	Br	-0.761257	-1.063715	-0.560836
Br212	Br	-0.261257	-0.563715	-0.060836
H213	H	-0.279707	-0.913250	-0.960142
H214	H	0.220293	-0.413250	-0.460142
