data_functionalizedCrystal
_audit_creation_method	'MofGen! by Chris Wilmer'
_symmetry_space_group_name_H-M	'P1'
_symmetry_Int_Tables_number	1
_symmetry_cell_setting	triclinic
loop_
_symmetry_equiv_pos_as_xyz
  x,y,z
_cell_length_a	10.723023
_cell_length_b	9.798715
_cell_length_c	10.723024
_cell_angle_alpha	90.001978
_cell_angle_beta	84.467709
_cell_angle_gamma	90.003856
loop_
_atom_site_label
_atom_site_type_symbol
_atom_site_fract_x
_atom_site_fract_y
_atom_site_fract_z
O1	O	-1.657188	-0.113493	-0.175020
O2	O	-1.294035	-0.113494	-0.191774
O3	O	-1.483988	-0.113489	-0.001821
O4	O	-1.467235	-0.113499	-0.364973
O5	O	-1.483974	0.113494	-0.001820
O6	O	-1.294021	0.113488	-0.191774
O7	O	-1.657174	0.113489	-0.175019
Zn8	Zn	-1.475595	0.149527	-0.183396
Zn9	Zn	-1.475614	-0.149532	-0.183397
O10	O	-1.467221	0.113483	-0.364973
C11	C	-1.247529	-0.000003	-0.190555
C12	C	-1.108974	-0.000004	-0.186908
C13	C	-1.047195	0.117580	-0.185281
C14	C	-0.903992	0.117582	-0.181511
C15	C	-1.482762	0.000001	0.044679
C16	C	-1.479114	-0.000004	0.183233
N17	N	-1.475591	0.353627	-0.183395
C18	C	-0.703680	-0.000002	-0.176239
C19	C	-0.842235	-0.000001	-0.179886
N20	N	-1.475627	-0.353632	-0.183388
C21	C	-1.555347	0.421406	-0.103288
C22	C	-1.555367	0.578568	-0.103283
C23	C	-1.468447	-0.000009	-0.411473
C24	C	-1.472095	-0.000013	-0.550027
C25	C	-1.585402	-0.000006	0.258216
C26	C	-1.581634	-0.000011	0.401420
H27	H	-0.895355	-0.100674	-0.181292
H28	H	-0.850862	0.218249	-0.180120
N29	N	-1.038612	-0.133351	-0.185045
H30	H	-0.975137	-0.138794	-0.260844
H31	H	-1.099596	-0.211745	-0.186601
N32	N	-1.645750	0.344167	-0.012408
H33	H	-1.632908	0.242844	-0.025280
H34	H	-1.734499	0.369033	-0.027332
H35	H	-1.407319	0.411949	-0.251971
H36	H	-1.385328	-0.000013	0.225055
N37	N	-1.645829	0.655763	-0.012439
H38	H	-1.633023	0.757091	-0.025315
H39	H	-1.630429	0.630866	0.076178
N40	N	-1.385167	0.569192	-0.274248
H41	H	-1.433532	0.509894	-0.329741
H42	H	-1.329424	0.509998	-0.226086
H43	H	-1.679188	0.000003	0.216394
N44	N	-1.702171	0.000003	0.486755
H45	H	-1.682394	0.000002	0.576958
H46	H	-1.752394	-0.084140	0.470135
N47	N	-1.351563	-0.000011	0.364630
H48	H	-1.301296	-0.084154	0.381132
H49	H	-1.301387	0.084186	0.381184
N50	N	-1.117550	0.250932	-0.187129
H51	H	-1.209877	0.232028	-0.189561
H52	H	-1.085400	0.304990	-0.263759
