data_functionalizedCrystal
_audit_creation_method	'MofGen! by Chris Wilmer'
_symmetry_space_group_name_H-M	'P1'
_symmetry_Int_Tables_number	1
_symmetry_cell_setting	triclinic
loop_
_symmetry_equiv_pos_as_xyz
  x,y,z
_cell_length_a	19.077068
_cell_length_b	18.215407
_cell_length_c	18.215399
_cell_angle_alpha	90.016860
_cell_angle_beta	92.268164
_cell_angle_gamma	87.676929
loop_
_atom_site_label
_atom_site_type_symbol
_atom_site_fract_x
_atom_site_fract_y
_atom_site_fract_z
Zn1	Zn	-0.280281	-1.113285	-0.427814
Zn2	Zn	0.053053	-0.779951	-0.094481
Zn3	Zn	0.386386	-0.446618	0.238852
Zn4	Zn	-0.397982	-1.108243	-0.309685
Zn5	Zn	-0.064649	-0.774910	0.023648
Zn6	Zn	0.268685	-0.441576	0.356982
Zn7	Zn	-0.280295	-0.990216	-0.304769
Zn8	Zn	0.053039	-0.656883	0.028565
Zn9	Zn	0.386372	-0.323550	0.361898
Zn10	Zn	-0.397934	-0.985235	-0.432714
Zn11	Zn	-0.064601	-0.651902	-0.099381
Zn12	Zn	0.268733	-0.318568	0.233952
O13	O	-0.339123	-1.049245	-0.368746
O14	O	-0.005789	-0.715911	-0.035412
O15	O	0.327544	-0.382578	0.297921
O16	O	-0.295908	-1.215599	-0.412151
O17	O	0.037425	-0.882266	-0.078818
O18	O	0.370759	-0.548933	0.254516
O19	O	-0.382397	-1.092561	-0.206050
O20	O	-0.049063	-0.759228	0.127284
O21	O	0.284270	-0.425895	0.460617
O22	O	-0.181802	-1.010736	-0.316983
O23	O	0.151531	-0.677403	0.016351
O24	O	0.484865	-0.344070	0.349684
O25	O	-0.382383	-1.211895	-0.325362
O26	O	-0.049049	-0.878562	0.007971
O27	O	0.284284	-0.545229	0.341305
O28	O	-0.181792	-1.101154	-0.407384
O29	O	0.151542	-0.767821	-0.074050
O30	O	0.484875	-0.434487	0.259283
O31	O	-0.295932	-1.005848	-0.202438
O32	O	0.037401	-0.672514	0.130896
O33	O	0.370734	-0.339181	0.464229
O34	O	-0.295886	-0.886572	-0.321734
O35	O	0.037448	-0.553239	0.011599
O36	O	0.370781	-0.219905	0.344933
O37	O	-0.382301	-1.002246	-0.535048
O38	O	-0.048968	-0.668913	-0.201714
O39	O	0.284366	-0.335580	0.131619
O40	O	-0.382315	-0.882912	-0.415735
O41	O	-0.048981	-0.549579	-0.082402
O42	O	0.284352	-0.216245	0.250931
O43	O	-0.295862	-1.096324	-0.531447
O44	O	0.037472	-0.762990	-0.198114
O45	O	0.370805	-0.429657	0.135219
O46	O	-0.496466	-1.087731	-0.330113
O47	O	-0.163133	-0.754398	0.003220
O48	O	0.170200	-0.421064	0.336553
O49	O	-0.496431	-0.997358	-0.420503
O50	O	-0.163098	-0.664024	-0.087169
O51	O	0.170236	-0.330691	0.246164
C52	C	-0.339097	-0.858040	-0.368733
C53	C	-0.005764	-0.524706	-0.035400
C54	C	0.327570	-0.191373	0.297933
C55	C	-0.339103	-0.776240	-0.368746
C56	C	-0.005770	-0.442907	-0.035413
C57	C	0.327564	-0.109574	0.297920
C58	C	-0.384188	-0.509293	-0.417630
C59	C	-0.050855	-0.175960	-0.084297
C60	C	0.282478	0.157374	0.249036
C61	C	-0.384184	-0.586152	-0.417627
C62	C	-0.050851	-0.252819	-0.084293
C63	C	0.282483	0.080515	0.249040
C64	C	-0.294051	-0.589938	-0.319874
C65	C	0.039282	-0.256605	0.013459
C66	C	0.372616	0.076729	0.346793
C67	C	-0.294059	-0.513080	-0.319875
C68	C	0.039274	-0.179747	0.013458
C69	C	0.372607	0.153586	0.346792
C70	C	-0.339127	-0.472760	-0.368757
C71	C	-0.005794	-0.139426	-0.035424
C72	C	0.327540	0.193907	0.297909
C73	C	-0.339114	-0.626476	-0.368753
C74	C	-0.005781	-0.293143	-0.035419
C75	C	0.327552	0.040190	0.297914
C76	C	-0.339109	-0.709810	-0.368748
C77	C	-0.005776	-0.376477	-0.035415
C78	C	0.327557	-0.043144	0.297919
C79	C	-0.339133	-0.389421	-0.368761
C80	C	-0.005800	-0.056087	-0.035428
C81	C	0.327534	0.277246	0.297906
C82	C	-0.521986	-1.041477	-0.376389
C83	C	-0.188653	-0.708143	-0.043056
C84	C	0.144680	-0.374810	0.290277
C85	C	-0.600216	-1.038221	-0.379684
C86	C	-0.266883	-0.704887	-0.046351
C87	C	0.066451	-0.371554	0.286983
C88	C	-0.636964	-1.083780	-0.334210
C89	C	-0.303630	-0.750447	-0.000877
C90	C	0.029703	-0.417113	0.332457
C91	C	-0.710469	-1.080722	-0.337313
C92	C	-0.377136	-0.747389	-0.003980
C93	C	-0.043802	-0.414055	0.329353
C94	C	-0.747225	-1.032100	-0.385887
C95	C	-0.413892	-0.698767	-0.052554
C96	C	-0.080559	-0.365434	0.280780
C97	C	-0.710473	-0.986539	-0.431366
C98	C	-0.377139	-0.653206	-0.098032
C99	C	-0.043806	-0.319872	0.235301
C100	C	-0.636969	-0.989601	-0.428266
C101	C	-0.303635	-0.656268	-0.094933
C102	C	0.029698	-0.322935	0.238401
C103	C	-0.967059	-1.017896	-0.400204
C104	C	-0.633725	-0.684563	-0.066871
C105	C	-0.300392	-0.351229	0.266463
C106	C	-1.040568	-1.014836	-0.403299
C107	C	-0.707234	-0.681502	-0.069965
C108	C	-0.373901	-0.348169	0.263368
C109	C	-1.040559	-1.109020	-0.309247
C110	C	-0.707226	-0.775687	0.024087
C111	C	-0.373892	-0.442353	0.357420
C112	C	-0.967054	-1.112075	-0.306148
C113	C	-0.633721	-0.778741	0.027185
C114	C	-0.300387	-0.445408	0.360519
C115	C	-0.930308	-1.066516	-0.351630
C116	C	-0.596974	-0.733183	-0.018296
C117	C	-0.263641	-0.399850	0.315037
N118	N	-0.822359	-1.028972	-0.389058
N119	N	-0.489026	-0.695639	-0.055725
N120	N	-0.155693	-0.362305	0.277608
N121	N	-0.855175	-1.069649	-0.348461
N122	N	-0.521841	-0.736316	-0.015128
N123	N	-0.188508	-0.402982	0.318205
C124	C	-0.155545	-1.057063	-0.361088
C125	C	0.177788	-0.723730	-0.027755
C126	C	0.511121	-0.390397	0.305579
C127	C	-0.077315	-1.060395	-0.357825
C128	C	0.256018	-0.727062	-0.024492
C129	C	0.589351	-0.393728	0.308842
C130	C	-0.339074	-1.049292	-0.560697
C131	C	-0.005741	-0.715958	-0.227363
C132	C	0.327592	-0.382625	0.105970
C133	C	-0.339054	-1.049312	-0.642495
C134	C	-0.005720	-0.715978	-0.309161
C135	C	0.327613	-0.382645	0.024172
C136	C	-0.339144	-0.241197	-0.368758
C137	C	-0.005810	0.092137	-0.035425
C138	C	0.327523	0.425470	0.297908
C139	C	-0.339138	-0.322996	-0.368764
C140	C	-0.005805	0.010337	-0.035430
C141	C	0.327528	0.343671	0.297903
C142	C	-0.294003	-1.098316	-0.828813
C143	C	0.039331	-0.764983	-0.495480
C144	C	0.372664	-0.431650	-0.162147
C145	C	-0.293982	-1.098326	-0.905671
C146	C	0.039351	-0.764993	-0.572338
C147	C	0.372685	-0.431659	-0.239005
C148	C	-0.383996	-1.000363	-0.909409
C149	C	-0.050663	-0.667030	-0.576076
C150	C	0.282671	-0.333697	-0.242742
C151	C	-0.384012	-1.000351	-0.832552
C152	C	-0.050679	-0.667017	-0.499219
C153	C	0.282654	-0.333684	-0.165886
C154	C	-0.339017	-1.049331	-0.792257
C155	C	-0.005683	-0.715998	-0.458923
C156	C	0.327650	-0.382665	-0.125590
C157	C	-0.338980	-1.049354	-0.945971
C158	C	-0.005646	-0.716020	-0.612638
C159	C	0.327687	-0.382687	-0.279305
C160	C	-0.338958	-1.049364	-1.029304
C161	C	-0.005624	-0.716030	-0.695971
C162	C	0.327709	-0.382697	-0.362637
C163	C	-0.339037	-1.049321	-0.708918
C164	C	-0.005704	-0.715987	-0.375585
C165	C	0.327629	-0.382654	-0.042252
C166	C	-0.339120	-1.049243	-0.177539
C167	C	-0.005787	-0.715909	0.155794
C168	C	0.327546	-0.382576	0.489127
C169	C	-0.338943	-1.049373	-0.095733
C170	C	-0.005609	-0.716040	0.237600
C171	C	0.327724	-0.382707	0.570933
H172	H	-0.257357	-0.622776	-0.280077
H173	H	0.075976	-0.289443	0.053256
H174	H	0.409309	0.043890	0.386590
H175	H	-0.740405	-0.946953	-0.470919
H176	H	-0.407072	-0.613620	-0.137586
H177	H	-0.073739	-0.280287	0.195748
H178	H	-0.257326	-1.138213	-0.935432
H179	H	0.076008	-0.804880	-0.602099
H180	H	0.409341	-0.471547	-0.268766
H181	H	-0.937128	-1.151666	-0.266595
H182	H	-0.603795	-0.818333	0.066738
H183	H	-0.270462	-0.485000	0.400071
Br184	Br	-0.232905	-0.463495	-0.253537
Br185	Br	0.100429	-0.130161	0.079796
Br186	Br	0.433762	0.203172	0.413129
Br187	Br	-1.090432	-1.170850	-0.247529
Br188	Br	-0.757099	-0.837516	0.085804
Br189	Br	-0.423766	-0.504183	0.419138
Br190	Br	-0.445061	-0.933895	-0.964101
Br191	Br	-0.111727	-0.600562	-0.630767
Br192	Br	0.221606	-0.267229	-0.297434
Br193	Br	-0.760338	-1.142560	-0.275600
Br194	Br	-0.427005	-0.809227	0.057733
Br195	Br	-0.093672	-0.475894	0.391067
H196	H	-0.420668	-0.960456	-0.802787
H197	H	-0.087334	-0.627123	-0.469454
H198	H	0.245999	-0.293789	-0.136121
Br199	Br	-0.587087	-1.149763	-0.268278
Br200	Br	-0.253754	-0.816430	0.065055
Br201	Br	0.079579	-0.483097	0.398388
H202	H	-1.070493	-0.975251	-0.442866
H203	H	-0.737159	-0.641917	-0.109533
H204	H	-0.403826	-0.308584	0.223800
H205	H	-0.420878	-0.615894	-0.457423
H206	H	-0.087545	-0.282560	-0.124090
H207	H	0.245788	0.050773	0.209243
Br208	Br	-0.445352	-0.454574	-0.483969
Br209	Br	-0.112019	-0.121241	-0.150635
Br210	Br	0.221314	0.212092	0.182698
H211	H	-0.937146	-0.980799	-0.437235
H212	H	-0.603812	-0.647466	-0.103902
H213	H	-0.270479	-0.314132	0.229431
Br214	Br	-0.232936	-1.164788	-0.774128
Br215	Br	0.100397	-0.831455	-0.440795
Br216	Br	0.433731	-0.498122	-0.107462
Br217	Br	-0.587096	-0.927773	-0.489988
Br218	Br	-0.253763	-0.594439	-0.156654
Br219	Br	0.079571	-0.261106	0.176679
