data_functionalizedCrystal
_audit_creation_method	'MofGen! by Chris Wilmer'
_symmetry_space_group_name_H-M	'P1'
_symmetry_Int_Tables_number	1
_symmetry_cell_setting	triclinic
loop_
_symmetry_equiv_pos_as_xyz
  x,y,z
_cell_length_a	17.639617
_cell_length_b	16.120444
_cell_length_c	17.640968
_cell_angle_alpha	82.193498
_cell_angle_beta	70.333968
_cell_angle_gamma	104.620503
loop_
_atom_site_label
_atom_site_type_symbol
_atom_site_fract_x
_atom_site_fract_y
_atom_site_fract_z
Zn1	Zn	1.358807	0.110278	-0.716845
Zn2	Zn	1.858807	0.610278	-0.216845
Zn3	Zn	1.323832	-0.064503	-0.585974
Zn4	Zn	1.823832	0.435497	-0.085974
Zn5	Zn	1.190264	0.039621	-0.553935
Zn6	Zn	1.690264	0.539621	-0.053935
Zn7	Zn	1.213924	-0.064421	-0.695853
Zn8	Zn	1.713924	0.435579	-0.195853
O9	O	1.271706	0.005244	-0.638152
O10	O	1.771706	0.505244	-0.138152
O11	O	1.470699	0.116629	-0.721679
O12	O	1.970699	0.616629	-0.221679
O13	O	1.281574	-0.080294	-0.467560
O14	O	1.781574	0.419706	0.032440
O15	O	1.217356	0.165683	-0.570922
O16	O	1.717356	0.665683	-0.070922
O17	O	1.445003	-0.011782	-0.625528
O18	O	1.945003	0.488218	-0.125528
O19	O	1.341184	0.217594	-0.690612
O20	O	1.841184	0.717594	-0.190612
O21	O	1.183442	-0.003795	-0.444021
O22	O	1.683442	0.496205	0.055979
O23	O	1.076870	-0.003716	-0.550567
O24	O	1.576870	0.496284	-0.050567
O25	O	1.257682	-0.011643	-0.812802
O26	O	1.757682	0.488357	-0.312802
O27	O	1.094253	-0.080156	-0.654834
O28	O	1.594253	0.419844	-0.154834
O29	O	1.364127	0.116707	-0.828224
O30	O	1.864127	0.616707	-0.328224
O31	O	1.304517	-0.181181	-0.605173
O32	O	1.804517	0.318819	-0.105173
O33	O	1.223769	-0.181121	-0.685901
O34	O	1.723769	0.318879	-0.185901
C35	C	1.055346	-0.049595	-0.596946
C36	C	1.555346	0.450405	-0.096946
C37	C	0.962789	-0.073070	-0.579338
C38	C	1.462789	0.426930	-0.079338
C39	C	0.725308	0.183653	-0.772118
C40	C	1.225308	0.683653	-0.272118
C41	C	0.638332	0.161569	-0.755557
C42	C	1.138332	0.661569	-0.255557
C43	C	0.611572	0.027993	-0.655278
C44	C	1.111572	0.527993	-0.155278
C45	C	0.698547	0.050063	-0.671833
C46	C	1.198547	0.550063	-0.171833
C47	C	0.755409	0.127895	-0.730254
C48	C	1.255409	0.627895	-0.230254
C49	C	0.728648	-0.005694	-0.629969
C50	C	1.228648	0.494306	-0.129969
C51	C	0.815615	0.016377	-0.646520
C52	C	1.315615	0.516377	-0.146520
C53	C	0.872482	0.094206	-0.704936
C54	C	1.372482	0.594206	-0.204936
C55	C	0.842376	0.149966	-0.746805
C56	C	1.342376	0.649966	-0.246805
C57	C	0.671784	-0.083522	-0.571545
C58	C	1.171784	0.416478	-0.071545
C59	C	0.701885	-0.139280	-0.529680
C60	C	1.201885	0.360720	-0.029680
C61	C	0.788855	-0.117212	-0.546236
C62	C	1.288855	0.382788	-0.046236
C63	C	0.845721	-0.039383	-0.604651
C64	C	1.345721	0.460617	-0.104651
C65	C	0.818960	-0.172973	-0.504367
C66	C	1.318960	0.327027	-0.004367
C67	C	0.905928	-0.150901	-0.520918
C68	C	1.405928	0.349099	-0.020918
C69	C	0.932688	-0.017312	-0.621203
C70	C	1.432688	0.482688	-0.121203
C71	C	1.262941	-0.211396	-0.646758
C72	C	1.762941	0.288604	-0.146758
C73	C	1.259274	-0.304050	-0.650481
C74	C	1.759274	0.195950	-0.150481
C75	C	1.290974	-0.514944	-0.619051
C76	C	1.790974	-0.014944	-0.119051
C77	C	1.252595	-0.473676	-0.657290
C78	C	1.752595	0.026324	-0.157290
C79	C	1.256312	-0.379287	-0.653500
C80	C	1.756312	0.120713	-0.153500
C81	C	1.287258	-0.609341	-0.622840
C82	C	1.787258	-0.109341	-0.122840
C83	C	1.488912	0.060296	-0.679519
C84	C	1.988912	0.560296	-0.179519
C85	C	1.581472	0.083756	-0.697147
C86	C	2.081472	0.583756	-0.197147
C87	C	1.317445	0.060423	-0.850942
C88	C	1.817445	0.560423	-0.350942
C89	C	1.336936	0.083937	-0.941621
C90	C	1.836936	0.583937	-0.441621
C91	C	1.280532	0.222740	-0.629535
C92	C	1.780532	0.722740	-0.129535
C93	C	1.284293	0.315424	-0.625863
C94	C	1.784293	0.815424	-0.125863
C95	C	1.123972	-0.172855	-1.199708
C96	C	1.623972	0.327145	-0.699708
C97	C	1.142305	-0.150745	-1.284917
C98	C	1.642305	0.349255	-0.784917
C99	C	1.253136	-0.017105	-1.300965
C100	C	1.753136	0.482895	-0.800965
C101	C	1.234810	-0.039201	-1.215755
C102	C	1.734810	0.460799	-0.715755
C103	C	1.170228	-0.117078	-1.165133
C104	C	1.670228	0.382922	-0.665133
C105	C	1.281065	0.016576	-1.181180
C106	C	1.781065	0.516576	-0.681180
C107	C	1.262743	-0.005522	-1.095978
C108	C	1.762743	0.494478	-0.595978
C109	C	1.198165	-0.083396	-1.045351
C110	C	1.698165	0.416604	-0.545351
C111	C	1.151905	-0.139176	-1.079931
C112	C	1.651905	0.360824	-0.579931
C113	C	1.345651	0.094449	-1.231804
C114	C	1.845651	0.594449	-0.731804
C115	C	1.391907	0.150226	-1.197229
C116	C	1.891907	0.650226	-0.697229
C117	C	1.373581	0.128132	-1.112025
C118	C	1.873581	0.628132	-0.612025
C119	C	1.309003	0.050257	-1.061398
C120	C	1.809003	0.550257	-0.561398
C121	C	1.419841	0.183911	-1.077445
C122	C	1.919841	0.683911	-0.577445
C123	C	1.401519	0.161813	-0.992243
C124	C	1.901519	0.661813	-0.492243
C125	C	1.290681	0.028160	-0.976196
C126	C	1.790681	0.528160	-0.476196
C127	C	1.226196	-0.049648	-0.426196
C128	C	1.726196	0.450352	0.073804
C129	C	1.206876	-0.072886	-0.335539
C130	C	1.706876	0.427114	0.164461
H131	H	0.565263	-0.035375	-0.607710
H132	H	1.065263	0.464625	-0.107710
H133	H	0.978990	0.046064	-0.668777
H134	H	1.478990	0.546064	-0.168777
H135	H	1.104634	-0.196171	-1.313063
H136	H	1.604634	0.303829	-0.813063
H137	H	1.099297	-0.202576	-1.038706
H138	H	1.599297	0.297424	-0.538706
H139	H	1.326621	-0.479389	-0.583469
H140	H	1.826621	0.020611	-0.083469
H141	H	1.439183	0.207234	-0.964091
H142	H	1.939183	0.707234	-0.464091
H143	H	1.071364	-0.236255	-1.158483
H144	H	1.571364	0.263745	-0.658483
H145	H	0.943295	0.112177	-0.718408
H146	H	1.443295	0.612177	-0.218408
H147	H	0.888677	0.213342	-0.794380
H148	H	1.388677	0.713342	-0.294380
H149	H	1.216945	-0.509235	-0.692874
H150	H	1.716945	-0.009235	-0.192874
H151	H	0.655577	-0.202649	-0.482112
H152	H	1.155577	0.297351	0.017888
H153	H	1.238072	-0.035240	-0.934971
H154	H	1.738072	0.464760	-0.434971
H155	H	1.360569	0.112436	-1.301181
H156	H	1.860569	0.612436	-0.801181
H157	H	0.930436	-0.196305	-0.486828
H158	H	1.430436	0.303695	0.013172
H159	H	0.600968	-0.101476	-0.558052
H160	H	1.100968	0.398524	-0.058052
H161	H	1.183252	-0.101389	-0.975975
H162	H	1.683252	0.398611	-0.475975
H163	H	1.305721	0.046301	-1.342193
H164	H	1.805721	0.546301	-0.842193
H165	H	0.771609	0.247028	-0.819693
H166	H	1.271609	0.747028	-0.319693
H167	H	1.444492	0.213631	-1.238458
H168	H	1.944492	0.713631	-0.738458
H169	H	1.472429	0.247314	-1.118675
H170	H	1.972429	0.747314	-0.618675
H171	H	0.772650	-0.236338	-0.456795
H172	H	1.272650	0.263662	0.043205
H173	H	0.613829	0.206983	-0.789648
H174	H	1.113829	0.706983	-0.289648
