data_functionalizedCrystal
_audit_creation_method	'MofGen! by Chris Wilmer'
_symmetry_space_group_name_H-M	'P1'
_symmetry_Int_Tables_number	1
_symmetry_cell_setting	triclinic
loop_
_symmetry_equiv_pos_as_xyz
  x,y,z
_cell_length_a	10.654550
_cell_length_b	19.188930
_cell_length_c	9.130313
_cell_angle_alpha	89.993647
_cell_angle_beta	89.996220
_cell_angle_gamma	83.814841
loop_
_atom_site_label
_atom_site_type_symbol
_atom_site_fract_x
_atom_site_fract_y
_atom_site_fract_z
O1	O	1.665759	0.098059	-0.121938
O2	O	1.300083	0.107401	-0.121916
O3	O	1.493474	0.001143	-0.121899
O4	O	1.472368	0.204317	-0.121955
O5	O	1.493471	0.001146	0.121700
O6	O	1.300081	0.107404	0.121682
O7	O	1.665757	0.098062	0.121661
Cu8	Cu	1.482918	0.102733	0.143914
Cu9	Cu	1.482921	0.102730	-0.144170
O10	O	1.472366	0.204320	0.121644
C11	C	1.253298	0.106717	-0.000114
C12	C	1.113898	0.104664	-0.000104
C13	C	1.033089	0.167227	-0.000143
C14	C	0.902109	0.165295	-0.000168
C15	C	0.932761	0.038231	-0.000121
C16	C	1.063738	0.040164	-0.000086
C17	C	1.015391	0.240587	-0.000176
C18	C	0.884411	0.238654	-0.000201
C19	C	1.492789	-0.024871	-0.000096
C20	C	1.490737	-0.102389	-0.000083
C21	C	1.604213	-0.146570	-0.000083
C22	C	1.602285	-0.219407	-0.000106
C23	C	1.486876	-0.248058	-0.000100
C24	C	1.373386	-0.203867	-0.000109
C25	C	1.375316	-0.131032	-0.000100
N26	N	1.398658	-0.356639	0.082806
N27	N	1.396832	-0.425830	0.082801
C28	C	1.481052	-0.467505	-0.000129
N29	N	1.567186	-0.437377	-0.083037
N30	N	1.569016	-0.368180	-0.083025
C31	C	1.484770	-0.327034	-0.000110
C32	C	1.592445	-0.590665	-0.000157
C33	C	1.590513	-0.663502	-0.000189
C34	C	1.361610	-0.647960	-0.000177
C35	C	1.363545	-0.575125	-0.000159
C36	C	1.478966	-0.546481	-0.000142
C37	C	1.712541	0.098746	-0.000145
C38	C	1.851941	0.100798	-0.000164
C39	C	1.473051	0.230334	-0.000163
C40	C	1.475102	0.307852	-0.000186
N41	N	1.482926	0.102735	0.346537
N42	N	1.482924	0.102722	-0.346792
C43	C	1.568581	0.055700	0.423196
C44	C	1.568577	0.055692	0.576533
C45	C	1.397260	0.149759	0.576537
C46	C	1.397258	0.149764	0.423203
C47	C	1.667493	0.001393	0.423195
C48	C	1.667490	0.001385	0.576532
H49	H	0.838270	0.260826	0.104961
H50	H	1.279418	-0.227199	-0.000107
C51	C	1.783880	0.023248	0.205801
C52	C	1.790070	0.024382	0.358961
H53	H	1.859543	0.037457	0.166148
H54	H	1.773912	-0.022909	0.173670
H55	H	1.713997	0.054439	0.173715
H56	H	1.859949	-0.006813	0.391047
H57	H	1.800052	0.070546	0.391105
H58	H	1.638050	-0.049327	0.624095
H59	H	1.327501	0.188057	0.360788
H60	H	1.698197	-0.123254	-0.000074
C61	C	0.918526	-0.070663	0.125135
C62	C	0.877619	-0.032666	-0.000110
H63	H	0.884478	-0.114430	0.125142
H64	H	1.008085	-0.078464	0.125146
H65	H	0.890735	-0.044867	0.210060
H66	H	0.905418	-0.058459	-0.085036
H67	H	0.788041	-0.024867	-0.000134
C68	C	1.179641	0.189621	0.623765
C69	C	1.303100	0.201451	0.660819
H70	H	1.121512	0.221532	0.675804
H71	H	1.167392	0.196361	0.521487
H72	H	1.166288	0.142949	0.648900
H73	H	1.316456	0.248122	0.635673
H74	H	1.315354	0.194717	0.763120
H75	H	1.647186	-0.052270	0.381591
H76	H	1.044114	0.269279	0.101768
H77	H	1.694693	-0.255386	-0.000112
H78	H	1.763748	0.013347	0.618139
C79	C	1.180809	-0.095352	-0.125313
C80	C	1.250573	-0.082464	-0.000089
H81	H	1.103794	-0.065369	-0.125297
H82	H	1.228151	-0.086595	-0.210244
H83	H	1.163151	-0.142831	-0.125308
H84	H	1.268239	-0.034985	-0.000100
H85	H	1.203222	-0.091215	0.084863
C86	C	1.818510	-0.613340	-0.000205
C87	C	1.719312	-0.559174	-0.000173
H88	H	1.896830	-0.593899	-0.000229
H89	H	1.813006	-0.641430	0.084736
H90	H	1.812977	-0.641419	-0.085162
H91	H	1.724839	-0.531098	0.084789
H92	H	1.724817	-0.531072	-0.085123
H93	H	1.682922	-0.699475	-0.000197
H94	H	1.129530	-0.010781	-0.000034
H95	H	1.050553	0.263945	-0.105354
C96	C	1.257013	-0.752706	-0.000186
C97	C	1.234748	-0.679445	-0.000175
H98	H	1.178690	-0.772144	-0.000182
H99	H	1.303715	-0.767822	-0.085132
H100	H	1.303719	-0.767836	0.084765
H101	H	1.188050	-0.664315	-0.085132
H102	H	1.188025	-0.664323	0.084780
H103	H	1.271141	-0.539151	-0.000151
H104	H	0.842095	0.266294	-0.102162
