data_functionalizedCrystal
_audit_creation_method	'MofGen! by Chris Wilmer'
_symmetry_space_group_name_H-M	'P1'
_symmetry_Int_Tables_number	1
_symmetry_cell_setting	triclinic
loop_
_symmetry_equiv_pos_as_xyz
  x,y,z
_cell_length_a	17.077404
_cell_length_b	12.759400
_cell_length_c	12.759393
_cell_angle_alpha	89.969229
_cell_angle_beta	89.978201
_cell_angle_gamma	90.014910
loop_
_atom_site_label
_atom_site_type_symbol
_atom_site_fract_x
_atom_site_fract_y
_atom_site_fract_z
Zn1	Zn	1.200117	-0.418206	-0.594068
Zn2	Zn	1.200038	-0.593923	-0.418388
Zn3	Zn	1.068844	-0.418259	-0.418398
Zn4	Zn	1.068836	-0.593844	-0.594020
O5	O	1.134459	-0.506058	-0.506219
O6	O	1.309954	-0.441526	-0.570780
O7	O	1.182605	-0.570675	-0.271368
O8	O	1.086294	-0.271231	-0.441725
O9	O	1.309895	-0.570624	-0.441708
O10	O	1.182740	-0.271192	-0.570789
O11	O	1.086217	-0.441616	-0.271376
O12	O	0.958996	-0.441540	-0.441679
O13	O	1.086280	-0.570491	-0.741048
O14	O	0.958990	-0.570542	-0.570708
O15	O	1.182732	-0.441450	-0.741083
O16	O	1.182597	-0.740933	-0.441662
O17	O	1.086203	-0.740876	-0.570698
C18	C	0.930511	-0.506039	-0.506190
C19	C	0.843261	-0.506056	-0.506202
C20	C	0.802288	-0.573329	-0.573280
C21	C	0.720308	-0.573331	-0.573297
C22	C	0.679302	-0.506065	-0.506230
C23	C	0.720280	-0.438785	-0.439149
C24	C	0.802259	-0.438778	-0.439138
C25	C	0.549410	-0.438806	-0.439174
C26	C	0.467425	-0.438814	-0.439183
C27	C	0.467459	-0.573359	-0.573333
C28	C	0.549438	-0.573352	-0.573322
C29	C	0.590411	-0.506073	-0.506240
C30	C	1.134412	-0.779025	-0.506197
C31	C	1.134464	-0.895802	-0.506222
C32	C	1.184712	-0.950659	-0.439108
C33	C	1.184760	-1.060383	-0.439140
C34	C	1.084306	-1.060383	-0.573405
C35	C	1.084262	-0.950661	-0.573377
C36	C	1.234914	-0.895800	-0.371953
C37	C	1.285165	-0.950657	-0.304832
C38	C	1.285213	-1.060381	-0.304864
C39	C	1.235010	-1.115248	-0.372018
C40	C	1.339203	-0.506078	-0.506248
C41	C	1.426453	-0.506086	-0.506261
C42	C	1.134514	-0.505956	-0.780252
C43	C	1.134538	-0.505912	-0.897029
C44	C	1.134527	-0.232025	-0.506264
C45	C	1.134556	-0.115248	-0.506283
C46	C	1.084382	-0.438661	-1.061619
C47	C	1.084364	-0.438698	-0.951895
C48	C	1.184738	-0.573086	-0.951893
C49	C	1.184759	-0.573043	-1.061615
C50	C	1.034199	-0.371449	-1.116479
C51	C	0.984000	-0.304273	-1.061623
C52	C	0.983982	-0.304311	-0.951899
C53	C	1.034164	-0.371524	-0.897031
C54	C	1.134448	-0.506084	-0.233251
C55	C	1.134577	-0.505832	-0.116475
H56	H	0.686952	-0.628112	-0.627917
O57	O	0.935282	-0.239084	-1.115079
C58	C	0.890855	-0.179422	-1.284112
C59	C	0.946056	-0.253321	-1.223708
H60	H	0.899558	-0.190890	-1.371949
H61	H	0.827535	-0.197877	-1.262598
H62	H	0.904647	-0.094725	-1.262496
H63	H	0.932335	-0.338042	-1.245292
H64	H	1.009359	-0.234775	-1.245227
O65	O	1.035513	-1.113515	-0.638727
C66	C	0.935834	-1.101940	-0.771847
C67	C	0.991068	-1.041640	-0.697943
H68	H	0.899874	-1.043856	-0.819726
H69	H	0.971834	-1.153200	-0.826908
H70	H	0.894863	-1.153419	-0.723555
H71	H	1.032050	-0.990105	-0.746150
H72	H	0.955019	-0.990447	-0.642878
H73	H	1.326135	-1.105043	-0.250219
H74	H	0.686886	-0.384012	-0.384547
O75	O	1.235134	-1.221834	-0.371890
C76	C	1.290360	-1.379290	-0.298321
C77	C	1.290288	-1.258586	-0.298345
H78	H	1.334959	-1.409041	-0.238881
H79	H	1.229617	-1.409226	-0.276394
H80	H	1.306595	-1.408964	-0.379738
H81	H	1.274087	-1.228823	-0.216952
H82	H	1.351038	-1.228722	-0.320331
O83	O	1.035565	-0.897315	-0.638680
C84	C	1.024914	-0.773274	-0.780431
C85	C	1.080149	-0.833645	-0.706552
H86	H	1.060937	-0.721765	-0.835309
H87	H	0.989048	-0.831275	-0.828508
H88	H	0.983855	-0.722030	-0.732109
H89	H	1.121255	-0.884890	-0.754793
H90	H	1.115960	-0.775586	-0.658472
H91	H	1.034207	-0.371413	-1.205822
H92	H	0.434095	-0.628136	-0.627956
O93	O	0.935112	-0.239170	-0.898658
C94	C	0.801593	-0.188138	-0.865121
C95	C	0.856854	-0.261990	-0.925460
H96	H	0.738311	-0.206547	-0.886785
H97	H	0.810128	-0.199711	-0.777263
H98	H	0.815439	-0.103421	-0.886702
H99	H	0.843042	-0.346734	-0.903967
H100	H	0.848308	-0.250326	-1.013303
O101	O	0.589244	-0.373341	-0.374157
C102	C	0.681851	-0.231513	-0.360233
C103	C	0.636775	-0.305560	-0.433988
H104	H	0.720303	-0.176708	-0.408575
H105	H	0.638495	-0.183366	-0.312316
H106	H	0.720168	-0.279706	-0.305189
H107	H	0.598457	-0.257448	-0.489095
H108	H	0.680173	-0.353711	-0.481831
O109	O	0.842084	-0.638559	-0.638581
C110	C	0.867184	-0.689804	-0.817202
C111	C	0.822084	-0.615851	-0.743364
H112	H	0.851019	-0.671485	-0.901933
H113	H	0.932824	-0.678243	-0.805765
H114	H	0.851055	-0.774493	-0.798557
H115	H	0.838148	-0.531133	-0.761963
H116	H	0.756455	-0.627502	-0.754814
O117	O	1.333857	-0.897202	-0.239639
C118	C	1.378340	-0.728170	-0.180128
C119	C	1.323141	-0.788573	-0.253995
H120	H	1.369706	-0.640333	-0.191725
H121	H	1.364596	-0.749752	-0.095379
H122	H	1.441629	-0.749720	-0.198649
H123	H	1.259833	-0.767055	-0.235569
H124	H	1.336952	-0.766986	-0.338723
H125	H	0.835618	-0.383993	-0.384522
O126	O	1.034026	-0.371460	-0.790444
C127	C	0.978960	-0.297732	-0.632989
C128	C	0.979029	-0.297711	-0.753693
H129	H	0.934512	-0.238097	-0.603239
H130	H	0.962600	-0.379071	-0.603126
H131	H	1.039769	-0.275995	-0.603242
H132	H	0.918238	-0.319403	-0.783530
H133	H	0.995433	-0.216363	-0.783485
H134	H	0.582823	-0.628131	-0.627928
O135	O	1.233363	-0.638491	-0.898548
C136	C	1.243855	-0.780344	-0.774599
C137	C	1.188701	-0.706351	-0.834963
H138	H	1.207769	-0.835212	-0.723160
H139	H	1.279723	-0.828426	-0.832606
H140	H	1.284917	-0.732112	-0.723287
H141	H	1.147592	-0.754501	-0.886277
H142	H	1.152889	-0.658265	-0.776900
O143	O	0.427712	-0.373369	-0.374008
C144	C	0.436324	-0.239949	-0.240918
C145	C	0.481397	-0.313995	-0.314692
H146	H	0.479710	-0.191942	-0.192926
H147	H	0.397989	-0.185013	-0.289211
H148	H	0.397897	-0.288138	-0.185946
H149	H	0.519867	-0.265891	-0.369678
H150	H	0.519683	-0.368933	-0.266334
H151	H	1.234878	-0.806457	-0.371916
H152	H	1.225633	-0.627738	-1.106280
