data_functionalizedCrystal
_audit_creation_method	'MofGen! by Chris Wilmer'
_symmetry_space_group_name_H-M	'P1'
_symmetry_Int_Tables_number	1
_symmetry_cell_setting	triclinic
loop_
_symmetry_equiv_pos_as_xyz
  x,y,z
_cell_length_a	18.050591
_cell_length_b	29.839131
_cell_length_c	18.050582
_cell_angle_alpha	89.966163
_cell_angle_beta	89.978183
_cell_angle_gamma	90.031233
loop_
_atom_site_label
_atom_site_type_symbol
_atom_site_fract_x
_atom_site_fract_y
_atom_site_fract_z
Zn1	Zn	1.135263	-0.178927	-0.419977
Zn2	Zn	1.135156	-0.254050	-0.295764
Zn3	Zn	1.011080	-0.178929	-0.295788
Zn4	Zn	1.011015	-0.254025	-0.419899
O5	O	1.073129	-0.216483	-0.357857
O6	O	1.239173	-0.188901	-0.403522
O7	O	1.118680	-0.244096	-0.191843
O8	O	1.027625	-0.116062	-0.312304
O9	O	1.239095	-0.244094	-0.312263
O10	O	1.118862	-0.116060	-0.403545
O11	O	1.027522	-0.188906	-0.191860
O12	O	0.907147	-0.188882	-0.312229
O13	O	1.027514	-0.244052	-0.523834
O14	O	0.907099	-0.244054	-0.403413
O15	O	1.118798	-0.188877	-0.523891
O16	O	1.118617	-0.316914	-0.312188
O17	O	1.027411	-0.316895	-0.403390
C18	C	0.880176	-0.216466	-0.357816
C19	C	0.797631	-0.216470	-0.357816
C20	C	1.073015	-0.333205	-0.357794
C21	C	1.073035	-0.383140	-0.357793
C22	C	0.598185	-0.186432	-0.308344
C23	C	0.548756	-0.227408	-0.290056
C24	C	0.646500	-0.216483	-0.357850
C25	C	0.548847	-0.175522	-0.376136
C26	C	0.500515	-0.216493	-0.357881
C27	C	0.598159	-0.257480	-0.339526
C28	C	0.598254	-0.205567	-0.425638
C29	C	0.548848	-0.246571	-0.407375
C30	C	0.730599	-0.216477	-0.357830
C31	C	0.416419	-0.216504	-0.357901
C32	C	1.120625	-0.692747	-0.405434
C33	C	1.120706	-0.880420	-0.405479
O34	O	1.161058	-0.904654	-0.445939
N35	N	1.073255	-0.903925	-0.357940
C36	C	1.025777	-0.880508	-0.310389
O37	O	0.985413	-0.904806	-0.269961
C38	C	1.025693	-0.692836	-0.310349
C39	C	1.073152	-0.669334	-0.357886
C40	C	1.168080	-0.669245	-0.452968
C41	C	1.168062	-0.622329	-0.452953
C42	C	1.120590	-0.598916	-0.405405
C43	C	1.073135	-0.622418	-0.357871
C44	C	0.978212	-0.669420	-0.262803
C45	C	0.978194	-0.622499	-0.262799
C46	C	1.025653	-0.598997	-0.310335
C47	C	1.025644	-0.552090	-0.310309
N48	N	1.073095	-0.528585	-0.357848
C49	C	1.120568	-0.551998	-0.405396
C50	C	1.025825	-0.979039	-0.310413
C51	C	1.025847	-1.025957	-0.310422
C52	C	1.120775	-1.025865	-0.405512
C53	C	1.120756	-0.978947	-0.405499
C54	C	1.073276	-0.955534	-0.357952
C55	C	1.120527	-0.453473	-0.405362
C56	C	1.120508	-0.406553	-0.405341
C57	C	1.025577	-0.406648	-0.310253
C58	C	1.025599	-0.453564	-0.310271
C59	C	1.073077	-0.476975	-0.357831
O60	O	0.985307	-0.527826	-0.269876
O61	O	1.160914	-0.527692	-0.445830
C62	C	1.120643	-0.739663	-0.405448
C63	C	1.073188	-0.763165	-0.357915
C64	C	1.025715	-0.739751	-0.310367
C65	C	1.073210	-0.810083	-0.357924
C66	C	1.120682	-0.833496	-0.405472
C67	C	1.168133	-0.809991	-0.453011
C68	C	1.168116	-0.763076	-0.452997
C69	C	0.978264	-0.763256	-0.262828
C70	C	0.978286	-0.810172	-0.262845
C71	C	1.025759	-0.833585	-0.310394
C72	C	1.266834	-0.216500	-0.357899
C73	C	1.349380	-0.216507	-0.357916
C74	C	1.073161	-0.216461	-0.551563
C75	C	1.073174	-0.216452	-0.634109
C76	C	1.073263	-0.099304	-0.357936
C77	C	1.073320	-0.049370	-0.357970
C78	C	1.023580	-0.246407	-0.882903
C79	C	1.005448	-0.205430	-0.833526
C80	C	1.073237	-0.216386	-0.931229
C81	C	1.091303	-0.257394	-0.833525
C82	C	1.073205	-0.216421	-0.785244
C83	C	1.055070	-0.175387	-0.882939
C84	C	1.140957	-0.227378	-0.882942
C85	C	1.122850	-0.186373	-0.833587
C86	C	1.073254	-0.216367	-1.015328
C87	C	1.073188	-0.216435	-0.701147
C88	C	1.073139	-0.216472	-0.164905
C89	C	1.073270	-0.216354	-0.082360
H90	H	0.619847	-0.161046	-0.266434
Cl91	Cl	1.229372	-0.241733	-0.916484
Cl92	Cl	0.631459	-0.310985	-0.315562
Cl93	Cl	1.031355	-0.121851	-0.916305
H94	H	0.527322	-0.272018	-0.449253
H95	H	0.948165	-0.196145	-0.811820
H96	H	1.206706	-0.603197	-0.491664
Cl97	Cl	1.187665	-0.147156	-0.800362
Cl98	Cl	0.515188	-0.241674	-0.201569
H99	H	1.159183	-0.472528	-0.444095
Cl100	Cl	0.918500	-0.593069	-0.203021
H101	H	1.106598	-0.292059	-0.811820
H102	H	0.620013	-0.196314	-0.482934
H103	H	0.527146	-0.140882	-0.391565
Cl104	Cl	1.180176	-0.377010	-0.465105
H105	H	1.206738	-0.688303	-0.491691
Cl106	Cl	0.958722	-0.285532	-0.916342
Cl107	Cl	1.180420	-0.949406	-0.465263
H108	H	1.159430	-1.044936	-0.444227
H109	H	0.987209	-1.045088	-0.271704
Cl110	Cl	0.918541	-0.698954	-0.203041
Cl111	Cl	0.965945	-0.483110	-0.250500
Cl112	Cl	0.966127	-0.949613	-0.250635
Cl113	Cl	0.918619	-0.839711	-0.203076
H114	H	0.986927	-0.387578	-0.271538
H115	H	1.206761	-0.743944	-0.491706
H116	H	1.206790	-0.829063	-0.491724
Cl117	Cl	0.918574	-0.733829	-0.203050
