data_functionalizedCrystal
_audit_creation_method	'MofGen! by Chris Wilmer'
_symmetry_space_group_name_H-M	'P1'
_symmetry_Int_Tables_number	1
_symmetry_cell_setting	triclinic
loop_
_symmetry_equiv_pos_as_xyz
  x,y,z
_cell_length_a	17.000383
_cell_length_b	17.019361
_cell_length_c	13.448316
_cell_angle_alpha	86.129502
_cell_angle_beta	89.995171
_cell_angle_gamma	100.493211
loop_
_atom_site_label
_atom_site_type_symbol
_atom_site_fract_x
_atom_site_fract_y
_atom_site_fract_z
O1	O	1.056064	-0.028440	-0.080326
O2	O	0.824299	-0.057069	-0.077863
O3	O	0.946647	0.072524	-0.088954
O4	O	0.933716	-0.158034	-0.069234
O5	O	0.946644	0.072534	0.076429
O6	O	0.824296	-0.057059	0.087520
O7	O	1.056061	-0.028430	0.085057
Cu8	Cu	0.940179	-0.042744	0.101389
Cu9	Cu	0.940182	-0.042756	-0.094195
O10	O	0.933713	-0.158024	0.096149
C11	C	0.794642	-0.058602	0.004962
C12	C	0.706279	-0.063174	0.005358
C13	C	0.206028	-0.092697	0.007847
C14	C	0.289056	-0.088395	0.007479
C15	C	0.340136	-0.013720	0.001100
C16	C	0.308184	0.056657	-0.004923
C17	C	0.225157	0.052354	-0.004563
C18	C	0.591300	0.002900	-0.000304
C19	C	0.674332	0.007198	-0.000661
C20	C	0.655198	-0.137855	0.011740
C21	C	0.572171	-0.142151	0.012105
C22	C	0.540227	-0.071774	0.006077
C23	C	0.425004	-0.009321	0.000727
C24	C	0.455360	-0.076174	0.006442
C25	C	0.946155	0.101884	-0.008776
C26	C	0.944685	0.189351	-0.016263
C27	C	1.085718	-0.026897	0.002230
C28	C	1.174081	-0.022325	0.001827
N29	N	0.940184	-0.042758	-0.231759
C30	C	0.943990	0.230455	0.070365
C31	C	0.942614	0.312641	0.063322
C32	C	0.941925	0.353719	-0.030351
C33	C	0.942622	0.312609	-0.116986
C34	C	0.944005	0.230426	-0.109942
C35	C	0.937756	0.601858	-0.056132
C36	C	0.936371	0.684046	-0.063170
C37	C	0.936364	0.684072	0.117139
C38	C	0.937742	0.601887	0.124175
C39	C	0.938443	0.560785	0.037540
C40	C	0.940515	0.437725	-0.037553
C41	C	0.939859	0.476782	0.044743
C42	C	0.934205	0.812617	0.015970
C43	C	0.935677	0.725150	0.023459
C44	C	0.994461	0.014527	-0.288703
C45	C	0.994464	0.014530	-0.392806
C46	C	0.940187	-0.042751	-0.439964
C47	C	0.885908	-0.100042	-0.383013
C48	C	0.885909	-0.100047	-0.278911
C49	C	0.885908	-0.100026	-0.599995
C50	C	0.885906	-0.100020	-0.704104
C51	C	0.994463	0.014551	-0.713889
C52	C	0.994464	0.014546	-0.609787
C53	C	0.940184	-0.042745	-0.552844
N54	N	0.940182	-0.042734	0.238953
H55	H	0.530587	-0.202959	0.017297
H56	H	0.199148	0.109659	-0.009467
H57	H	0.315063	-0.145699	0.012372
H58	H	0.466602	0.051480	-0.004463
H59	H	0.841710	-0.146680	-0.553634
F60	F	0.400996	-0.155646	0.013226
F61	F	0.944747	0.186681	-0.202144
F62	F	0.941873	0.356383	0.155524
F63	F	1.052232	0.075498	-0.453410
F64	F	0.938499	0.558124	-0.148337
F65	F	0.935619	0.727821	0.209335
F66	F	1.052227	0.075513	-0.559598
F67	F	0.689203	-0.212750	0.018149
F68	F	0.728694	0.086681	-0.007452
F69	F	0.940595	0.433063	0.144434
F70	F	0.939787	0.481451	-0.137245
H71	H	0.938320	0.568450	0.200453
F72	F	1.052231	0.075524	-0.774497
H73	H	0.565302	0.060206	-0.005210
H74	H	0.944537	0.197013	0.146644
H75	H	0.942067	0.346062	-0.193257
F76	F	0.362549	0.136132	-0.011716
H77	H	0.935803	0.717488	-0.139453
H78	H	1.038656	0.061174	-0.250314
F79	F	0.828137	-0.160987	-0.754286
H80	H	0.841717	-0.146684	-0.421415
H81	H	0.841712	-0.146696	-0.232548
H82	H	0.164444	-0.153506	0.013049
