data_functionalizedCrystal
_audit_creation_method	'MofGen! by Chris Wilmer'
_symmetry_space_group_name_H-M	'P1'
_symmetry_Int_Tables_number	1
_symmetry_cell_setting	triclinic
loop_
_symmetry_equiv_pos_as_xyz
  x,y,z
_cell_length_a	10.723023
_cell_length_b	10.489741
_cell_length_c	9.198806
_cell_angle_alpha	89.997101
_cell_angle_beta	89.996191
_cell_angle_gamma	84.503361
loop_
_atom_site_label
_atom_site_type_symbol
_atom_site_fract_x
_atom_site_fract_y
_atom_site_fract_z
O1	O	1.657298	0.178901	-0.120888
O2	O	1.294156	0.196027	-0.120891
O3	O	1.483990	0.001861	-0.120881
O4	O	1.467464	0.373067	-0.120898
O5	O	1.483975	0.001861	0.120904
O6	O	1.294141	0.196027	0.120894
O7	O	1.657283	0.178901	0.120897
Cu8	Cu	1.475710	0.187464	0.142972
Cu9	Cu	1.475728	0.187464	-0.142966
O10	O	1.467448	0.373067	0.120887
C11	C	1.247648	0.194781	0.000001
C12	C	1.109091	0.191053	-0.000000
C13	C	1.047326	0.189391	-0.125253
C14	C	0.904121	0.185538	-0.125257
C15	C	1.482734	-0.045670	0.000011
C16	C	1.479000	-0.187297	0.000008
C17	C	1.358214	-0.255360	-0.000004
C18	C	1.415265	-0.347519	0.119210
C19	C	1.415308	-0.347493	-0.119172
C20	C	1.536100	-0.277591	0.119320
C21	C	1.536127	-0.277556	-0.119168
C22	C	1.593265	-0.369688	0.000074
C23	C	1.703791	0.180147	0.000002
C24	C	1.842347	0.183875	-0.000006
C25	C	1.468704	0.420598	-0.000008
C26	C	1.472439	0.562225	-0.000015
N27	N	1.475707	0.187463	0.344086
N28	N	1.475741	0.187456	-0.344080
C29	C	1.555412	0.105578	0.416288
C30	C	1.555432	0.105574	0.583700
H31	H	1.055950	0.189630	0.107229
H32	H	1.100466	0.190827	-0.232483
Br33	Br	0.815601	0.183140	-0.303998
H34	H	0.895456	0.185299	0.107233
H35	H	1.258904	-0.205645	0.000115
Br36	Br	1.330078	-0.399152	0.287195
H37	H	1.587157	-0.246792	0.220218
H38	H	1.623634	0.035472	0.354166
Br39	Br	1.669185	-0.011268	0.687180
H40	H	1.407503	0.257568	0.593839
H41	H	1.407477	0.257559	0.406211
H42	H	1.692664	-0.419175	0.000141
H43	H	1.364192	-0.378424	-0.219967
Br44	Br	1.621252	-0.225863	-0.287160
