data_functionalizedCrystal
_audit_creation_method	'MofGen! by Chris Wilmer'
_symmetry_space_group_name_H-M	'P1'
_symmetry_Int_Tables_number	1
_symmetry_cell_setting	triclinic
loop_
_symmetry_equiv_pos_as_xyz
  x,y,z
_cell_length_a	12.759399
_cell_length_b	18.050591
_cell_length_c	12.759393
_cell_angle_alpha	90.029518
_cell_angle_beta	89.968801
_cell_angle_gamma	89.991160
loop_
_atom_site_label
_atom_site_type_symbol
_atom_site_fract_x
_atom_site_fract_y
_atom_site_fract_z
Zn1	Zn	-0.418388	-1.135408	-0.594293
Zn2	Zn	-0.594107	-1.135332	-0.418614
Zn3	Zn	-0.418423	-1.011213	-0.418599
Zn4	Zn	-0.594006	-1.011203	-0.594222
O5	O	-0.506231	-1.073289	-0.506432
O6	O	-0.441726	-1.239323	-0.571025
O7	O	-0.570859	-1.118840	-0.271591
O8	O	-0.271397	-1.027724	-0.441928
O9	O	-0.570826	-1.239267	-0.441955
O10	O	-0.271372	-1.118969	-0.571010
O11	O	-0.441784	-1.027650	-0.271579
O12	O	-0.441686	-0.907287	-0.441859
O13	O	-0.570653	-1.027707	-0.741252
O14	O	-0.570686	-0.907280	-0.570889
O15	O	-0.441627	-1.118960	-0.741305
O16	O	-0.741115	-1.118830	-0.441886
O17	O	-0.741040	-1.027633	-0.570904
C18	C	-0.506180	-0.880337	-0.506365
C19	C	-0.506183	-0.797791	-0.506361
C20	C	-0.435942	-0.548948	-0.436343
C21	C	-0.410345	-0.598384	-0.532227
C22	C	-0.506214	-0.500671	-0.506426
C23	C	-0.531746	-0.598317	-0.410515
C24	C	-0.506196	-0.646656	-0.506389
C25	C	-0.480569	-0.549020	-0.602361
C26	C	-0.602014	-0.548948	-0.480584
C27	C	-0.576454	-0.598362	-0.576535
C28	C	-0.506222	-0.416573	-0.506445
C29	C	-0.506189	-0.730753	-0.506380
C30	C	-0.779198	-1.073243	-0.506412
C31	C	-0.895975	-1.073291	-0.506438
C32	C	-1.060566	-1.120882	-0.439365
C33	C	-0.950842	-1.120834	-0.439334
C34	C	-0.950838	-1.025788	-0.573570
C35	C	-1.060560	-1.025833	-0.573595
C36	C	-1.115427	-1.168434	-0.372264
C37	C	-1.060571	-1.215936	-0.305130
C38	C	-0.950847	-1.215887	-0.305099
C39	C	-0.895979	-1.168337	-0.372202
C40	C	-0.232198	-1.073356	-0.506475
C41	C	-0.115421	-1.073385	-0.506494
C42	C	-0.506125	-1.073341	-0.780465
C43	C	-0.506080	-1.073363	-0.897242
C44	C	-0.506265	-0.266995	-0.506481
C45	C	-0.506231	-0.349541	-0.506455
C46	C	-0.438890	-1.120885	-0.952133
C47	C	-0.438852	-1.120903	-1.061857
C48	C	-0.573203	-1.025875	-1.061790
C49	C	-0.573235	-1.025854	-0.952068
C50	C	-0.371735	-1.168395	-0.897307
C51	C	-0.304540	-1.215921	-0.952198
C52	C	-0.304502	-1.215939	-1.061923
C53	C	-0.371659	-1.168430	-1.116756
C54	C	-0.506261	-1.073280	-0.233464
C55	C	-0.506010	-1.073402	-0.116688
H56	H	-0.553347	-0.619973	-0.329421
O57	O	-0.451812	-0.520460	-0.709808
H58	H	-0.509804	-0.540711	-0.767955
O59	O	-0.891684	-1.267120	-0.232694
H60	H	-0.841614	-1.304858	-0.279770
H61	H	-0.371610	-1.168440	-1.206101
O62	O	-0.645637	-0.974637	-1.120924
H63	H	-0.634332	-0.982640	-1.206442
O64	O	-0.303024	-0.627155	-0.561162
H65	H	-0.281320	-0.606555	-0.640195
H66	H	-1.105253	-1.254646	-0.250492
O67	O	-0.371770	-1.168384	-0.778963
H68	H	-0.451028	-1.183372	-0.750027
O69	O	-0.709302	-0.520148	-0.451611
H70	H	-0.730327	-0.539852	-0.371940
O71	O	-0.232034	-1.267195	-1.121133
H72	H	-0.185352	-1.300230	-1.064572
O73	O	-0.777632	-1.168281	-0.372174
H74	H	-0.748702	-1.209300	-0.314224
H75	H	-0.249858	-1.254596	-0.907546
O76	O	-0.891670	-0.974504	-0.645948
H77	H	-0.841613	-1.007701	-0.699448
O78	O	-0.357184	-0.520199	-0.357955
H79	H	-0.277715	-0.539999	-0.379647
O80	O	-0.655163	-0.626930	-0.655100
H81	H	-0.633715	-0.607081	-0.734587
O82	O	-1.233771	-1.168478	-0.372290
H83	H	-1.262706	-1.209516	-0.314347
O84	O	-0.645700	-0.974599	-0.892851
H85	H	-0.692401	-0.941573	-0.949406
O86	O	-1.119738	-0.974610	-0.646001
H87	H	-1.063158	-0.941545	-0.692669
