data_functionalizedCrystal
_audit_creation_method	'MofGen! by Chris Wilmer'
_symmetry_space_group_name_H-M	'P1'
_symmetry_Int_Tables_number	1
_symmetry_cell_setting	triclinic
loop_
_symmetry_equiv_pos_as_xyz
  x,y,z
_cell_length_a	21.295417
_cell_length_b	18.215407
_cell_length_c	18.215399
_cell_angle_alpha	90.014769
_cell_angle_beta	89.965438
_cell_angle_gamma	89.973873
loop_
_atom_site_label
_atom_site_type_symbol
_atom_site_fract_x
_atom_site_fract_y
_atom_site_fract_z
Zn1	Zn	-0.250674	-1.125021	-0.416054
Zn2	Zn	0.082659	-0.791688	-0.082721
Zn3	Zn	0.415992	-0.458355	0.250613
Zn4	Zn	-0.355950	-1.124924	-0.292979
Zn5	Zn	-0.022617	-0.791591	0.040355
Zn6	Zn	0.310717	-0.458257	0.373688
Zn7	Zn	-0.250690	-1.001960	-0.293006
Zn8	Zn	0.082643	-0.668627	0.040328
Zn9	Zn	0.415976	-0.335294	0.373661
Zn10	Zn	-0.355902	-1.001908	-0.416008
Zn11	Zn	-0.022568	-0.668574	-0.082675
Zn12	Zn	0.310765	-0.335241	0.250659
O13	O	-0.303304	-1.063453	-0.354512
O14	O	0.030029	-0.730120	-0.021178
O15	O	0.363363	-0.396787	0.312155
O16	O	-0.264653	-1.227993	-0.399736
O17	O	0.068681	-0.894659	-0.066402
O18	O	0.402014	-0.561326	0.266931
O19	O	-0.342014	-1.108594	-0.189998
O20	O	-0.008681	-0.775261	0.143335
O21	O	0.324653	-0.441927	0.476669
O22	O	-0.162599	-1.018347	-0.309359
O23	O	0.170734	-0.685014	0.023974
O24	O	0.504068	-0.351681	0.357308
O25	O	-0.341998	-1.227921	-0.309313
O26	O	-0.008665	-0.894588	0.024021
O27	O	0.324668	-0.561255	0.357354
O28	O	-0.162587	-1.108760	-0.399762
O29	O	0.170746	-0.775426	-0.066429
O30	O	0.504080	-0.442093	0.266905
O31	O	-0.264680	-1.018253	-0.190018
O32	O	0.068653	-0.684920	0.143316
O33	O	0.401986	-0.351586	0.476649
O34	O	-0.264633	-0.898969	-0.309314
O35	O	0.068700	-0.565636	0.024019
O36	O	0.402033	-0.232302	0.357352
O37	O	-0.341916	-1.018258	-0.518998
O38	O	-0.008583	-0.684924	-0.185665
O39	O	0.324751	-0.351591	0.147668
O40	O	-0.341932	-0.898930	-0.399684
O41	O	-0.008598	-0.565597	-0.066350
O42	O	0.324735	-0.232264	0.266983
O43	O	-0.264606	-1.108709	-0.519032
O44	O	0.068727	-0.775375	-0.185699
O45	O	0.402061	-0.442042	0.147635
O46	O	-0.444033	-1.108543	-0.309268
O47	O	-0.110699	-0.775210	0.024065
O48	O	0.222634	-0.441876	0.357399
O49	O	-0.443997	-1.018163	-0.399657
O50	O	-0.110664	-0.684830	-0.066324
O51	O	0.222669	-0.351497	0.267009
C52	C	-0.303279	-0.872247	-0.354497
C53	C	0.030054	-0.538914	-0.021164
C54	C	0.363387	-0.205580	0.312169
C55	C	-0.303284	-0.790448	-0.354509
C56	C	0.030049	-0.457115	-0.021175
C57	C	0.363383	-0.123782	0.312158
C58	C	-0.263088	-0.602290	-0.401665
C59	C	0.070245	-0.268957	-0.068332
C60	C	0.403579	0.064376	0.265002
C61	C	-0.263091	-0.525432	-0.401667
C62	C	0.070242	-0.192098	-0.068333
C63	C	0.403575	0.141235	0.265000
C64	C	-0.343510	-0.525368	-0.307364
C65	C	-0.010177	-0.192035	0.025969
C66	C	0.323156	0.141298	0.359303
C67	C	-0.343503	-0.602226	-0.307359
C68	C	-0.010170	-0.268892	0.025974
C69	C	0.323163	0.064441	0.359308
C70	C	-0.303293	-0.640685	-0.354514
C71	C	0.030040	-0.307351	-0.021180
C72	C	0.363373	0.025982	0.312153
C73	C	-0.303303	-0.486969	-0.354521
C74	C	0.030030	-0.153635	-0.021187
C75	C	0.363363	0.179698	0.312146
C76	C	-0.303307	-0.403635	-0.354522
C77	C	0.030026	-0.070302	-0.021189
C78	C	0.363359	0.263032	0.312144
C79	C	-0.303288	-0.724024	-0.354511
C80	C	0.030045	-0.390690	-0.021178
C81	C	0.363378	-0.057357	0.312156
C82	C	-0.466856	-1.063357	-0.354471
C83	C	-0.133522	-0.730024	-0.021137
C84	C	0.199811	-0.396690	0.312196
C85	C	-0.536824	-1.063383	-0.354478
C86	C	-0.203490	-0.730050	-0.021145
C87	C	0.129843	-0.396716	0.312189
C88	C	-0.569688	-1.110485	-0.307461
C89	C	-0.236355	-0.777152	0.025873
C90	C	0.096979	-0.443819	0.359206
C91	C	-0.635430	-1.110520	-0.307477
C92	C	-0.302097	-0.777187	0.025856
C93	C	0.031236	-0.443853	0.359190
C94	C	-0.668306	-1.063439	-0.354503
C95	C	-0.334973	-0.730105	-0.021170
C96	C	-0.001640	-0.396772	0.312163
C97	C	-0.635434	-1.016333	-0.401530
C98	C	-0.302101	-0.683000	-0.068197
C99	C	0.031233	-0.349666	0.265137
C100	C	-0.569693	-1.016305	-0.401517
C101	C	-0.236359	-0.682972	-0.068184
C102	C	0.096974	-0.349638	0.265149
N103	N	-0.771568	-0.999060	-0.360109
N104	N	-0.438234	-0.665726	-0.026776
N105	N	-0.104901	-0.332393	0.306558
N106	N	-0.834019	-0.999088	-0.360117
N107	N	-0.500686	-0.665755	-0.026783
N108	N	-0.167352	-0.332422	0.306550
C109	C	-0.866381	-1.063521	-0.354546
C110	C	-0.533048	-0.730188	-0.021212
C111	C	-0.199714	-0.396855	0.312121
N112	N	-0.833932	-1.127926	-0.348952
N113	N	-0.500599	-0.794592	-0.015619
N114	N	-0.167265	-0.461259	0.317715
N115	N	-0.771475	-1.127896	-0.348940
N116	N	-0.438142	-0.794563	-0.015607
N117	N	-0.104808	-0.461230	0.317726
C118	C	-0.739592	-1.063464	-0.354523
C119	C	-0.406258	-0.730131	-0.021189
C120	C	-0.072925	-0.396797	0.312144
C121	C	-0.970531	-1.110665	-0.307544
C122	C	-0.637197	-0.777332	0.025790
C123	C	-0.303864	-0.443998	0.359123
C124	C	-1.036274	-1.110701	-0.307565
C125	C	-0.702941	-0.777367	0.025768
C126	C	-0.369608	-0.444034	0.359101
C127	C	-1.036277	-1.016507	-0.401614
C128	C	-0.702943	-0.683174	-0.068281
C129	C	-0.369610	-0.349841	0.265052
C130	C	-0.970534	-1.016478	-0.401596
C131	C	-0.637201	-0.683145	-0.068263
C132	C	-0.303868	-0.349811	0.265070
C133	C	-0.937665	-1.063556	-0.354557
C134	C	-0.604332	-0.730223	-0.021224
C135	C	-0.270999	-0.396889	0.312110
C136	C	-0.139114	-1.063570	-0.354569
C137	C	0.194220	-0.730237	-0.021235
C138	C	0.527553	-0.396904	0.312098
C139	C	-0.069146	-1.063620	-0.354593
C140	C	0.264188	-0.730287	-0.021260
C141	C	0.597521	-0.396953	0.312074
C142	C	-0.303254	-1.063488	-0.546465
C143	C	0.030080	-0.730155	-0.213131
C144	C	0.363413	-0.396821	0.120202
C145	C	-0.303232	-1.063503	-0.628264
C146	C	0.030101	-0.730170	-0.294930
C147	C	0.363434	-0.396836	0.038403
C148	C	-0.303322	-0.255406	-0.354525
C149	C	0.030011	0.077927	-0.021191
C150	C	0.363344	0.411260	0.312142
C151	C	-0.303313	-0.337205	-0.354525
C152	C	0.030021	-0.003872	-0.021192
C153	C	0.363354	0.329462	0.312141
C154	C	-0.262938	-1.016502	-0.816469
C155	C	0.070396	-0.683169	-0.483135
C156	C	0.403729	-0.349836	-0.149802
C157	C	-0.262925	-1.016515	-0.893328
C158	C	0.070409	-0.683182	-0.559994
C159	C	0.403742	-0.349848	-0.226661
C160	C	-0.343452	-1.110592	-0.893296
C161	C	-0.010119	-0.777258	-0.559963
C162	C	0.323215	-0.443925	-0.226630
C163	C	-0.343467	-1.110575	-0.816439
C164	C	-0.010134	-0.777241	-0.483105
C165	C	0.323199	-0.443908	-0.149772
C166	C	-0.303207	-1.063531	-0.778027
C167	C	0.030127	-0.730198	-0.444694
C168	C	0.363460	-0.396864	-0.111360
C169	C	-0.303179	-1.063561	-0.931743
C170	C	0.030155	-0.730227	-0.598410
C171	C	0.363488	-0.396894	-0.265077
C172	C	-0.303165	-1.063575	-1.015077
C173	C	0.030168	-0.730242	-0.681744
C174	C	0.363502	-0.396908	-0.348410
C175	C	-0.303221	-1.063516	-0.694688
C176	C	0.030113	-0.730182	-0.361355
C177	C	0.363446	-0.396849	-0.028021
C178	C	-0.303309	-1.063461	-0.163305
C179	C	0.030025	-0.730128	0.170028
C180	C	0.363358	-0.396794	0.503361
C181	C	-0.303153	-1.063589	-0.081507
C182	C	0.030181	-0.730256	0.251826
C183	C	0.363514	-0.396922	0.585160
H184	H	-0.376249	-0.494046	-0.268973
H185	H	-0.042915	-0.160712	0.064360
H186	H	0.290418	0.172621	0.397693
O187	O	-0.219727	-0.484024	-0.452526
O188	O	0.113607	-0.150691	-0.119193
O189	O	0.446940	0.182643	0.214141
H190	H	-0.187663	-0.449019	-0.419657
H191	H	0.145670	-0.115686	-0.086323
H192	H	0.479004	0.217648	0.247010
O193	O	-0.386869	-0.643639	-0.256496
O194	O	-0.053536	-0.310306	0.076838
O195	O	0.279798	0.023027	0.410171
H196	H	-0.380102	-0.703544	-0.264408
H197	H	-0.046768	-0.370210	0.068925
H198	H	0.286565	-0.036877	0.402258
H199	H	-0.542928	-1.148821	-0.269160
H200	H	-0.209595	-0.815487	0.064173
H201	H	0.123739	-0.482154	0.397506
O202	O	-0.670890	-1.161318	-0.256758
O203	O	-0.337556	-0.827985	0.076575
O204	O	-0.004223	-0.494652	0.409909
H205	H	-0.636989	-1.194045	-0.224043
H206	H	-0.303655	-0.860712	0.109290
H207	H	0.029678	-0.527379	0.442623
O208	O	-0.670895	-0.965551	-0.452245
O209	O	-0.337562	-0.632217	-0.118912
O210	O	-0.004228	-0.298884	0.214421
H211	H	-0.658239	-0.978134	-0.510015
H212	H	-0.324906	-0.644801	-0.176682
H213	H	0.008428	-0.311467	0.156652
H214	H	-0.542934	-0.977948	-0.439805
H215	H	-0.209601	-0.644615	-0.106472
H216	H	0.123732	-0.311281	0.226861
H217	H	-0.943768	-1.149001	-0.269244
H218	H	-0.610434	-0.815668	0.064090
H219	H	-0.277101	-0.482334	0.397423
O220	O	-0.219485	-0.965800	-0.934793
O221	O	0.113848	-0.632466	-0.601459
O222	O	0.447182	-0.299133	-0.268126
H223	H	-0.230269	-0.908029	-0.920031
H224	H	0.103065	-0.574695	-0.586697
H225	H	0.436398	-0.241362	-0.253364
O226	O	-0.386873	-1.161335	-0.934723
O227	O	-0.053540	-0.828001	-0.601389
O228	O	0.279793	-0.494668	-0.268056
H229	H	-0.358696	-1.198810	-0.969746
H230	H	-0.025363	-0.865477	-0.636413
H231	H	0.307971	-0.532143	-0.303080
H232	H	-1.063043	-0.978176	-0.439907
H233	H	-0.729710	-0.644843	-0.106574
H234	H	-0.396377	-0.311510	0.226760
H235	H	-0.230155	-0.978196	-0.785196
H236	H	0.103179	-0.644863	-0.451863
H237	H	0.436512	-0.311529	-0.118530
O238	O	-1.071726	-1.161505	-0.256850
O239	O	-0.738393	-0.828172	0.076483
O240	O	-0.405059	-0.494838	0.409816
H241	H	-1.037823	-1.194229	-0.224136
H242	H	-0.704489	-0.860895	0.109197
H243	H	-0.371156	-0.527562	0.442531
O244	O	-0.386903	-1.161308	-0.774978
O245	O	-0.053569	-0.827975	-0.441644
O246	O	0.279764	-0.494641	-0.108311
H247	H	-0.418938	-1.128341	-0.739952
H248	H	-0.085605	-0.795008	-0.406618
H249	H	0.247728	-0.461675	-0.073285
H250	H	-0.230344	-0.633602	-0.440059
H251	H	0.102989	-0.300268	-0.106726
H252	H	0.436322	0.033065	0.226608
O253	O	-0.935081	-0.965656	-0.452289
O254	O	-0.601748	-0.632322	-0.118956
O255	O	-0.268414	-0.298989	0.214378
H256	H	-0.968984	-0.932913	-0.484985
H257	H	-0.635651	-0.599580	-0.151652
H258	H	-0.302318	-0.266247	0.181682
