data_functionalizedCrystal
_audit_creation_method	'MofGen! by Chris Wilmer'
_symmetry_space_group_name_H-M	'P1'
_symmetry_Int_Tables_number	1
_symmetry_cell_setting	triclinic
loop_
_symmetry_equiv_pos_as_xyz
  x,y,z
_cell_length_a	14.971486
_cell_length_b	11.792241
_cell_length_c	14.048226
_cell_angle_alpha	89.993434
_cell_angle_beta	89.998499
_cell_angle_gamma	83.903772
loop_
_atom_site_label
_atom_site_type_symbol
_atom_site_fract_x
_atom_site_fract_y
_atom_site_fract_z
O1	O	1.187540	0.147909	-0.079051
O2	O	0.927210	0.165622	-0.079077
O3	O	1.063692	-0.008446	-0.079057
O4	O	1.051058	0.321977	-0.079072
O5	O	1.063676	-0.008456	0.079264
O6	O	0.927194	0.165611	0.079244
O7	O	1.187523	0.147899	0.079270
Zn8	Zn	1.057356	0.156753	0.104394
Zn9	Zn	1.057378	0.156767	-0.104201
O10	O	1.051041	0.321966	0.079250
C11	C	0.893874	0.164824	0.000080
C12	C	0.794568	0.162451	0.000070
C13	C	0.737752	0.264710	0.000067
C14	C	0.644444	0.262473	0.000081
C15	C	0.607953	0.157975	0.000092
C16	C	0.664776	0.055707	0.000098
C17	C	0.758082	0.057946	0.000091
C18	C	0.470294	0.051049	0.000111
C19	C	0.376981	0.048810	0.000117
C20	C	0.356656	0.255577	0.000102
C21	C	0.449963	0.257815	0.000095
C22	C	0.506779	0.155547	0.000099
C23	C	1.062891	-0.050737	0.000103
C24	C	1.060515	-0.176735	0.000102
C25	C	1.056147	-0.407419	0.000086
C26	C	1.058574	-0.279050	0.000095
C27	C	1.220859	0.148696	0.000110
C28	C	1.320166	0.151070	0.000114
C29	C	1.051843	0.364257	0.000087
C30	C	1.054218	0.490256	0.000082
N31	N	1.057347	0.156744	0.246754
N32	N	1.057393	0.156768	-0.246562
C33	C	1.117801	0.079698	0.296582
C34	C	1.117807	0.079698	0.396239
C35	C	1.057363	0.156749	0.446068
C36	C	0.996903	0.233797	0.396234
C37	C	0.996894	0.233792	0.296578
C38	C	0.996929	0.233806	0.603948
C39	C	0.996940	0.233813	0.703611
C40	C	1.117843	0.079712	0.703609
C41	C	1.117833	0.079706	0.603953
C42	C	1.057374	0.156757	0.554126
H43	H	0.635057	-0.029377	0.000120
O44	O	0.819369	-0.052348	0.000091
H45	H	0.778321	-0.125389	0.000091
O46	O	0.489328	0.370519	0.000078
H47	H	0.531362	0.376468	0.064600
H48	H	1.167032	0.016961	0.436808
O49	O	0.295383	0.365886	0.000108
H50	H	0.224370	0.346778	0.000129
O51	O	0.931717	0.316910	0.449979
H52	H	0.889675	0.370480	0.398585
H53	H	0.767455	0.349805	0.000058
H54	H	0.347274	-0.036282	0.000127
O55	O	0.531572	-0.059259	0.000116
H56	H	0.574565	-0.063195	0.064647
H57	H	1.167025	0.016959	0.256017
O58	O	1.183021	-0.003399	0.550203
H59	H	1.225056	-0.056986	0.601591
O60	O	1.183049	-0.003405	0.757342
H61	H	1.172895	0.009529	0.835010
H62	H	0.947719	0.296555	0.744177
O63	O	0.931695	0.316895	0.242828
H64	H	0.889672	0.370483	0.294218
O65	O	0.931726	0.316913	0.550200
H66	H	0.889704	0.370504	0.601589
H67	H	0.598187	0.345744	0.000078
