data_functionalizedCrystal
_audit_creation_method	'MofGen! by Chris Wilmer'
_symmetry_space_group_name_H-M	'P1'
_symmetry_Int_Tables_number	1
_symmetry_cell_setting	triclinic
loop_
_symmetry_equiv_pos_as_xyz
  x,y,z
_cell_length_a	14.519709
_cell_length_b	14.519709
_cell_length_c	16.053802
_cell_angle_alpha	92.569364
_cell_angle_beta	87.419624
_cell_angle_gamma	83.680145
loop_
_atom_site_label
_atom_site_type_symbol
_atom_site_fract_x
_atom_site_fract_y
_atom_site_fract_z
O1	O	1.227746	0.117021	-0.069322
O2	O	1.727746	0.617021	0.430678
O3	O	0.959270	0.131256	-0.069348
O4	O	1.459270	0.631256	0.430652
O5	O	1.100626	-0.010100	-0.069327
O6	O	1.600626	0.489900	0.430673
O7	O	1.086390	0.258376	-0.069343
O8	O	1.586390	0.758376	0.430657
O9	O	1.092845	-0.002351	0.069531
O10	O	1.592845	0.497649	0.569531
O11	O	0.951490	0.139004	0.069510
O12	O	1.451490	0.639004	0.569510
O13	O	1.219965	0.124769	0.069536
O14	O	1.719965	0.624769	0.569536
Zn15	Zn	1.084492	0.133117	0.091570
Zn16	Zn	1.584492	0.633117	0.591570
Zn17	Zn	1.094743	0.122908	-0.091381
Zn18	Zn	1.594743	0.622908	0.408619
O19	O	1.078610	0.266125	0.069515
O20	O	1.578610	0.766125	0.569515
C21	C	0.921020	0.134466	0.000078
C22	C	1.421020	0.634466	0.500078
C23	C	0.818640	0.132478	0.000068
C24	C	1.318640	0.632478	0.500068
C25	C	0.443742	0.125160	0.000107
C26	C	0.943742	0.625160	0.500107
C27	C	0.548050	0.127192	0.000096
C28	C	1.048050	0.627192	0.500096
C29	C	0.631187	0.128819	0.000087
C30	C	1.131187	0.628819	0.500087
C31	C	0.735502	0.130851	0.000077
C32	C	1.235502	0.630851	0.500077
C33	C	1.096072	-0.040585	0.000102
C34	C	1.596072	0.459415	0.500102
C35	C	1.094084	-0.142966	0.000103
C36	C	1.594084	0.357034	0.500103
C37	C	1.086766	-0.517864	0.000080
C38	C	1.586766	-0.017864	0.500080
C39	C	1.088798	-0.413555	0.000087
C40	C	1.588798	0.086445	0.500087
C41	C	1.090424	-0.330418	0.000092
C42	C	1.590424	0.169582	0.500092
C43	C	1.092457	-0.226103	0.000097
C44	C	1.592457	0.273897	0.500097
C45	C	1.258215	0.121559	0.000108
C46	C	1.758215	0.621559	0.500108
C47	C	1.360596	0.123547	0.000112
C48	C	1.860596	0.623547	0.500112
C49	C	1.083163	0.296610	0.000084
C50	C	1.583163	0.796610	0.500084
C51	C	1.085152	0.398991	0.000078
C52	C	1.585152	0.898991	0.500078
N53	N	1.077502	0.140084	0.216429
N54	N	1.577502	0.640084	0.716429
N55	N	1.101740	0.115934	-0.216241
N56	N	1.601740	0.615934	0.283759
C57	C	1.137671	0.079958	0.260132
C58	C	1.637671	0.579958	0.760132
C59	C	1.132791	0.084840	0.347538
C60	C	1.632791	0.584840	0.847538
C61	C	1.067745	0.149853	0.391239
C62	C	1.567745	0.649853	0.891239
C63	C	1.007570	0.209981	0.347530
C64	C	1.507570	0.709981	0.847530
C65	C	1.012446	0.205094	0.260126
C66	C	1.512446	0.705094	0.760126
C67	C	1.046442	0.171175	0.652646
C68	C	1.546442	0.671175	1.152646
C69	C	1.041571	0.176059	0.740056
C70	C	1.541571	0.676059	1.240056
C71	C	1.166792	0.050917	0.740058
C72	C	1.666792	0.550917	1.240058
C73	C	1.171667	0.046039	0.652652
C74	C	1.671667	0.546039	1.152652
C75	C	1.111488	0.106164	0.608950
C76	C	1.611488	0.606164	1.108950
N77	N	1.062756	0.154847	0.480582
N78	N	1.562756	0.654847	0.980582
N79	N	1.116473	0.101165	0.519609
N80	N	1.616473	0.601165	1.019609
H81	H	1.190643	0.027022	0.224556
H82	H	1.690643	0.527022	0.724556
H83	H	0.997443	0.220133	0.617071
H84	H	1.497443	0.720133	1.117071
C85	C	1.198960	0.018675	0.395607
C86	C	1.698960	0.518675	0.895607
N87	N	1.248793	-0.031173	0.431812
N88	N	1.748793	0.468827	0.931812
H89	H	1.224632	-0.006899	0.617072
H90	H	1.724632	0.493101	1.117072
C91	C	0.970010	0.247579	0.788126
C92	C	1.470010	0.747579	1.288126
N93	N	0.916113	0.301445	0.824333
N94	N	1.416113	0.801445	1.324333
H95	H	0.963449	0.254054	0.224544
H96	H	1.463449	0.754054	0.724544
C97	C	1.232976	-0.015223	0.788136
C98	C	1.732976	0.484777	1.288136
N99	N	1.282826	-0.065046	0.824349
N100	N	1.782826	0.434954	1.324349
C101	C	0.936009	0.281488	0.395605
C102	C	1.436009	0.781488	0.895605
N103	N	0.882108	0.335347	0.431814
N104	N	1.382108	0.835347	0.931814
