data_functionalizedCrystal
_audit_creation_method	'MofGen! by Chris Wilmer'
_symmetry_space_group_name_H-M	'P1'
_symmetry_Int_Tables_number	1
_symmetry_cell_setting	triclinic
loop_
_symmetry_equiv_pos_as_xyz
  x,y,z
_cell_length_a	10.686220
_cell_length_b	18.215405
_cell_length_c	18.215399
_cell_angle_alpha	89.969449
_cell_angle_beta	94.351112
_cell_angle_gamma	94.406955
loop_
_atom_site_label
_atom_site_type_symbol
_atom_site_fract_x
_atom_site_fract_y
_atom_site_fract_z
Zn1	Zn	1.929037	-0.206568	-0.329900
Zn2	Zn	1.928880	-0.329646	-0.206835
Zn3	Zn	1.718027	-0.216044	-0.216277
Zn4	Zn	1.717968	-0.339053	-0.339285
O5	O	1.823478	-0.272828	-0.273074
O6	O	2.105592	-0.214991	-0.305696
O7	O	1.900868	-0.314606	-0.105105
O8	O	1.746108	-0.111799	-0.231373
O9	O	2.105476	-0.305416	-0.215281
O10	O	1.901136	-0.104836	-0.314851
O11	O	1.745956	-0.231143	-0.112042
O12	O	1.541443	-0.240265	-0.240473
O13	O	1.746008	-0.321450	-0.441023
O14	O	1.541400	-0.330639	-0.330847
O15	O	1.901079	-0.224113	-0.434128
O16	O	1.900812	-0.433882	-0.224381
O17	O	1.745856	-0.440794	-0.321692
C18	C	1.823345	-0.464040	-0.273045
C19	C	1.823403	-0.545836	-0.273052
C20	C	1.495638	-0.287502	-0.287703
C21	C	1.355386	-0.293797	-0.293979
C22	C	1.904278	-0.730398	-0.222460
C23	C	1.904334	-0.807255	-0.222476
C24	C	1.742839	-0.814498	-0.323734
C25	C	1.742790	-0.737643	-0.323722
C26	C	1.823508	-0.695595	-0.273081
C27	C	1.823613	-0.849306	-0.273108
C28	C	1.823674	-0.932637	-0.273125
C29	C	1.823449	-0.612259	-0.273064
C30	C	2.152598	-0.258097	-0.258389
C31	C	2.292850	-0.251820	-0.252130
C32	C	1.823555	-0.272774	-0.465024
C33	C	1.823588	-0.272751	-0.546821
C34	C	1.823646	-0.080867	-0.273119
C35	C	1.823718	0.000935	-0.273137
C36	C	1.904362	-0.222022	-0.731425
C37	C	1.904377	-0.222000	-0.808283
C38	C	1.742902	-0.323361	-0.815452
C39	C	1.742882	-0.323379	-0.738595
C40	C	1.823619	-0.272711	-0.696584
C41	C	1.823654	-0.272670	-0.850298
C42	C	1.823670	-0.272647	-0.933631
C43	C	1.823602	-0.272733	-0.613245
C44	C	1.823474	-0.272825	-0.081868
C45	C	1.823686	-0.272630	-0.000060
H46	H	1.970108	-0.835588	-0.181257
C47	C	1.993160	-0.166282	-0.685212
C48	C	2.081970	-0.110523	-0.723541
C49	C	2.170766	-0.054780	-0.677330
C50	C	2.170753	-0.054796	-0.592791
C51	C	2.081940	-0.110558	-0.554457
C52	C	1.993143	-0.166301	-0.600668
H53	H	2.081982	-0.110509	-0.786126
H54	H	2.236512	-0.013501	-0.705708
H55	H	2.236486	-0.013531	-0.558583
H56	H	2.081927	-0.110572	-0.491872
H57	H	1.927398	-0.207579	-0.572290
H58	H	1.677172	-0.364615	-0.849667
H59	H	1.677120	-0.848742	-0.364963
H60	H	1.970124	-0.180723	-0.836647
H61	H	1.301623	-0.334558	-0.334607
C62	C	1.654059	-0.379141	-0.700264
C63	C	1.565262	-0.434881	-0.746471
C64	C	1.476441	-0.490637	-0.708139
C65	C	1.476416	-0.490654	-0.623600
C66	C	1.565216	-0.434912	-0.577388
C67	C	1.654037	-0.379156	-0.615720
H68	H	1.565278	-0.434871	-0.809056
H69	H	1.410705	-0.531901	-0.742349
H70	H	1.410665	-0.531928	-0.595225
H71	H	1.565200	-0.434922	-0.514803
H72	H	1.719773	-0.337892	-0.581510
H73	H	1.970005	-0.696165	-0.181227
H74	H	1.677017	-0.709304	-0.364946
C75	C	1.365462	-0.196759	-0.197242
C76	C	1.456146	-0.134997	-0.225227
C77	C	1.528767	-0.079934	-0.170338
C78	C	1.510705	-0.086634	-0.087464
C79	C	1.420018	-0.148398	-0.059475
C80	C	1.347396	-0.203460	-0.114364
H81	H	1.469520	-0.130035	-0.286579
H82	H	1.595900	-0.034213	-0.191058
H83	H	1.564464	-0.045873	-0.046832
H84	H	1.406644	-0.153359	0.001877
H85	H	1.280264	-0.249182	-0.093644
