data_functionalizedCrystal
_audit_creation_method	'MofGen! by Chris Wilmer'
_symmetry_space_group_name_H-M	'P1'
_symmetry_Int_Tables_number	1
_symmetry_cell_setting	triclinic
loop_
_symmetry_equiv_pos_as_xyz
  x,y,z
_cell_length_a	12.759395
_cell_length_b	29.839132
_cell_length_c	29.839125
_cell_angle_alpha	89.986179
_cell_angle_beta	90.011518
_cell_angle_gamma	89.953200
loop_
_atom_site_label
_atom_site_type_symbol
_atom_site_fract_x
_atom_site_fract_y
_atom_site_fract_z
Zn1	Zn	1.605952	0.178925	0.253973
Zn2	Zn	1.605777	0.254029	0.178840
Zn3	Zn	1.430278	0.178916	0.178858
Zn4	Zn	1.430149	0.254031	0.253944
O5	O	1.518039	0.216475	0.216404
O6	O	1.752950	0.188891	0.244011
O7	O	1.582477	0.244061	0.115975
O8	O	1.453709	0.116050	0.188842
O9	O	1.752821	0.244069	0.188811
O10	O	1.582776	0.116057	0.244029
O11	O	1.453539	0.188875	0.115989
O12	O	1.283240	0.188877	0.188814
O13	O	1.453489	0.244072	0.316815
O14	O	1.283145	0.244063	0.243980
O15	O	1.582651	0.188892	0.316836
O16	O	1.582352	0.316896	0.188783
O17	O	1.453319	0.316898	0.243962
C18	C	1.245071	0.216470	0.216396
C19	C	1.128295	0.216478	0.216404
C20	C	1.128235	0.274037	0.273754
C21	C	1.073344	0.302820	0.302431
C22	C	0.963622	0.302825	0.302436
C23	C	0.908789	0.274044	0.273763
C24	C	0.963680	0.245261	0.245086
C25	C	1.073404	0.245259	0.245083
C26	C	0.963740	0.187701	0.187739
C27	C	1.073462	0.187697	0.187730
C28	C	0.908907	0.158919	0.159065
C29	C	0.963798	0.130138	0.130386
C30	C	1.073526	0.130134	0.130381
C31	C	1.128352	0.158914	0.159054
C32	C	1.517831	0.333198	0.216377
C33	C	1.517838	0.383132	0.216381
C34	C	1.585274	0.692762	0.187696
C35	C	1.585374	0.880435	0.187706
O36	O	1.642597	0.904689	0.163309
N37	N	1.518149	0.903917	0.216411
C38	C	1.450899	0.880478	0.245118
O39	O	1.393730	0.904757	0.269537
C40	C	1.450805	0.692806	0.245110
C41	C	1.518027	0.669326	0.216399
C42	C	1.652491	0.669283	0.158988
C43	C	1.652461	0.622367	0.158984
C44	C	1.585214	0.598931	0.187688
C45	C	1.517997	0.622411	0.216395
C46	C	1.383561	0.669367	0.273818
C47	C	1.383545	0.622446	0.273815
C48	C	1.450767	0.598967	0.245104
C49	C	1.450720	0.552059	0.245095
N50	N	1.517945	0.528578	0.216390
C51	C	1.585192	0.552014	0.187686
C52	C	1.450952	0.979009	0.245120
C53	C	1.450974	1.025926	0.245121
C54	C	1.585450	1.025880	0.187710
C55	C	1.585422	0.978962	0.187706
C56	C	1.518177	0.955527	0.216414
C57	C	1.585124	0.453488	0.187680
C58	C	1.585085	0.406568	0.187677
C59	C	1.450613	0.406618	0.245090
C60	C	1.450647	0.453534	0.245091
C61	C	1.517911	0.476967	0.216385
O62	O	1.393535	0.527777	0.269483
O63	O	1.642369	0.527726	0.163278
C64	C	1.585304	0.739678	0.187700
C65	C	1.518086	0.763157	0.216407
C66	C	1.450839	0.739721	0.245111
C67	C	1.518108	0.810075	0.216409
C68	C	1.585355	0.833511	0.187705
C69	C	1.652580	0.810029	0.159000
C70	C	1.652551	0.763114	0.158996
C71	C	1.383614	0.763203	0.273816
C72	C	1.383648	0.810119	0.273817
C73	C	1.450896	0.833555	0.245114
C74	C	1.792072	0.216481	0.216412
C75	C	1.908849	0.216483	0.216415
C76	C	1.518075	0.216484	0.333582
C77	C	1.518091	0.216487	0.383517
C78	C	1.518237	1.099297	0.216431
C79	C	1.518221	1.049362	0.216418
C80	C	1.518063	0.216434	0.099681
C81	C	1.518252	0.216304	0.049747
C82	C	1.450909	0.245116	0.740093
C83	C	1.450871	0.245168	0.552420
O84	O	1.393648	0.269594	0.528146
N85	N	1.518114	0.216446	0.528962
C86	C	1.585366	0.187706	0.552425
O87	O	1.642552	0.163274	0.528166
C88	C	1.585398	0.187652	0.740097
C89	C	1.518158	0.216380	0.763553
C90	C	1.383674	0.273841	0.763549
C91	C	1.383688	0.273830	0.810464
C92	C	1.450937	0.245093	0.833924
C93	C	1.518172	0.216368	0.810468
C94	C	1.652644	0.158911	0.763560
C95	C	1.652644	0.158899	0.810481
C96	C	1.585404	0.187627	0.833936
C97	C	1.585436	0.187620	0.880844
N98	N	1.518193	0.216343	0.904302
C99	C	1.450944	0.245079	0.880842
C100	C	1.585346	0.187737	0.453894
C101	C	1.585340	0.187751	0.406977
C102	C	1.450843	0.245212	0.406975
C103	C	1.450856	0.245200	0.453893
C104	C	1.518104	0.216459	0.477352
C105	C	1.450979	0.245053	0.979368
C106	C	1.451002	0.245041	1.026287
C107	C	1.585494	0.187578	1.026285
C108	C	1.585476	0.187592	0.979370
C109	C	1.518210	0.216331	0.955912
O110	O	1.642621	0.163204	0.905146
O111	O	1.393750	0.269501	0.905109
C112	C	1.450895	0.245128	0.693178
C113	C	1.518130	0.216403	0.669722
C114	C	1.585379	0.187667	0.693182
C115	C	1.518124	0.216417	0.622804
C116	C	1.450874	0.245153	0.599344
C117	C	1.383632	0.273876	0.622802
C118	C	1.383646	0.273864	0.669718
C119	C	1.652622	0.158944	0.669724
C120	C	1.652603	0.158958	0.622808
C121	C	1.585354	0.187695	0.599348
H122	H	1.639825	0.387453	0.164296
H123	H	1.217694	0.158915	0.159051
H124	H	0.918930	0.326260	0.325790
H125	H	1.328787	0.603368	0.297194
H126	H	1.328855	0.744125	0.297191
H127	H	1.640161	0.959848	0.164328
H128	H	1.118211	0.106692	0.107032
H129	H	1.328932	0.297221	0.829558
H130	H	1.639899	0.472562	0.164305
H131	H	1.707202	0.603253	0.135607
H132	H	1.707258	0.688359	0.135614
H133	H	1.640206	1.044970	0.164338
H134	H	1.707402	0.135492	0.829579
H135	H	1.396102	0.268593	0.472988
H136	H	0.919144	0.106704	0.107045
H137	H	1.707385	0.135543	0.688820
H138	H	1.396225	1.045039	0.268496
H139	H	1.396189	0.959931	0.268498
H140	H	1.328816	0.688476	0.297195
H141	H	1.328905	0.297242	0.744453
H142	H	1.396247	0.268436	1.045383
H143	H	0.819448	0.274047	0.273774
H144	H	0.819566	0.158924	0.159074
H145	H	1.395913	0.472652	0.268471
H146	H	1.328879	0.297275	0.603693
H147	H	1.395858	0.387529	0.268459
H148	H	1.396088	0.268611	0.387866
H149	H	1.707289	0.744000	0.135618
H150	H	1.707333	0.829119	0.135627
H151	H	1.707367	0.135565	0.603715
H152	H	1.640235	0.164203	0.960271
H153	H	1.640250	0.164183	1.045395
H154	H	1.328899	0.829232	0.297196
H155	H	1.640104	0.164363	0.387883
H156	H	1.396195	0.268452	0.960274
H157	H	1.640112	0.164332	0.472990
H158	H	1.328892	0.297257	0.688811
H159	H	1.707398	0.135518	0.744470
H160	H	1.217576	0.274039	0.273749
H161	H	1.118001	0.326252	0.325777
