data_functionalizedCrystal
_audit_creation_method	'MofGen! by Chris Wilmer'
_symmetry_space_group_name_H-M	'P1'
_symmetry_Int_Tables_number	1
_symmetry_cell_setting	triclinic
loop_
_symmetry_equiv_pos_as_xyz
  x,y,z
_cell_length_a	17.077404
_cell_length_b	21.295417
_cell_length_c	17.077396
_cell_angle_alpha	89.966808
_cell_angle_beta	89.981638
_cell_angle_gamma	90.028477
loop_
_atom_site_label
_atom_site_type_symbol
_atom_site_fract_x
_atom_site_fract_y
_atom_site_fract_z
Zn1	Zn	1.200013	-0.250643	-0.443793
Zn2	Zn	1.700013	0.249357	0.056207
Zn3	Zn	1.199903	-0.355916	-0.312516
Zn4	Zn	1.699903	0.144084	0.187484
Zn5	Zn	1.068745	-0.250661	-0.312544
Zn6	Zn	1.568745	0.249339	0.187456
Zn7	Zn	1.068695	-0.355875	-0.443743
Zn8	Zn	1.568695	0.144125	0.056257
O9	O	1.134339	-0.303274	-0.378149
O10	O	1.634339	0.196726	0.121851
O11	O	1.309845	-0.264618	-0.426389
O12	O	1.809845	0.235382	0.073611
O13	O	1.182479	-0.341979	-0.202673
O14	O	1.682479	0.158021	0.297327
O15	O	1.086225	-0.162569	-0.329987
O16	O	1.586225	0.337431	0.170013
O17	O	1.309764	-0.341962	-0.329940
O18	O	1.809764	0.158038	0.170060
O19	O	1.182667	-0.162556	-0.426415
O20	O	1.682667	0.337444	0.073585
O21	O	1.086118	-0.264648	-0.202693
O22	O	1.586118	0.235352	0.297307
O23	O	0.958891	-0.264608	-0.329938
O24	O	1.458891	0.235392	0.170062
O25	O	1.086140	-0.341891	-0.553596
O26	O	1.586140	0.158109	-0.053596
O27	O	0.958855	-0.341908	-0.426329
O28	O	1.458855	0.158092	0.073671
O29	O	1.182619	-0.264578	-0.553633
O30	O	1.682619	0.235422	-0.053633
O31	O	1.182431	-0.444000	-0.329891
O32	O	1.682431	0.056000	0.170109
O33	O	1.086033	-0.443970	-0.426302
O34	O	1.586033	0.056030	0.073698
C35	C	0.930391	-0.303256	-0.378131
C36	C	1.430391	0.196744	0.121869
C37	C	0.843141	-0.303264	-0.378142
C38	C	1.343141	0.196736	0.121858
C39	C	0.802194	-0.263062	-0.428440
C40	C	1.302194	0.236938	0.071560
C41	C	0.720214	-0.263066	-0.428443
C42	C	1.220214	0.236934	0.071557
C43	C	0.679182	-0.303275	-0.378153
C44	C	1.179182	0.196725	0.121847
C45	C	0.720135	-0.343478	-0.327850
C46	C	1.220135	0.156522	0.172150
C47	C	0.802114	-0.343471	-0.327843
C48	C	1.302114	0.156529	0.172157
C49	C	0.549265	-0.343493	-0.327870
C50	C	1.049265	0.156507	0.172130
C51	C	0.467280	-0.343501	-0.327877
C52	C	0.967280	0.156499	0.172123
C53	C	0.467365	-0.263088	-0.428470
C54	C	0.967365	0.236912	0.071530
C55	C	0.549344	-0.263081	-0.428463
C56	C	1.049344	0.236919	0.071537
C57	C	0.590291	-0.303285	-0.378161
C58	C	1.090291	0.196715	0.121839
C59	C	1.134236	-0.466826	-0.378105
C60	C	1.634236	0.033174	0.121895
C61	C	1.134264	-0.536794	-0.378113
C62	C	1.634264	-0.036794	0.121887
C63	C	1.184503	-0.569655	-0.327963
C64	C	1.684503	-0.069655	0.172037
C65	C	1.184539	-0.635398	-0.327981
C66	C	1.684539	-0.135398	0.172019
C67	C	1.134323	-0.668276	-0.378140
C68	C	1.634323	-0.168276	0.121860
C69	C	1.084081	-0.635407	-0.428300
C70	C	1.584081	-0.135407	0.071700
C71	C	1.084051	-0.569665	-0.428286
C72	C	1.584051	-0.069665	0.071714
N73	N	1.065655	-0.771540	-0.384118
N74	N	1.565655	-0.271540	0.115882
N75	N	1.065685	-0.833991	-0.384127
N76	N	1.565685	-0.333991	0.115873
C77	C	1.134411	-0.866351	-0.378185
C78	C	1.634411	-0.366351	0.121815
N79	N	1.203107	-0.833900	-0.372220
N80	N	1.703107	-0.333900	0.127780
N81	N	1.203076	-0.771443	-0.372207
N82	N	1.703076	-0.271443	0.127793
C83	C	1.134350	-0.739562	-0.378161
C84	C	1.634350	-0.239562	0.121839
C85	C	1.184694	-0.970498	-0.328052
C86	C	1.684694	-0.470498	0.171948
C87	C	1.184732	-1.036242	-0.328075
C88	C	1.684732	-0.536242	0.171925
C89	C	1.084267	-1.036249	-0.428390
C90	C	1.584267	-0.536249	0.071610
C91	C	1.084236	-0.970507	-0.428371
C92	C	1.584236	-0.470507	0.071629
C93	C	1.134448	-0.937635	-0.378198
C94	C	1.634448	-0.437635	0.121802
C95	C	1.339083	-0.303292	-0.378167
C96	C	1.839083	0.196708	0.121833
C97	C	1.426333	-0.303300	-0.378175
C98	C	1.926333	0.196700	0.121825
C99	C	1.134386	-0.303228	-0.582893
C100	C	1.634386	0.196772	-0.082893
C101	C	1.134407	-0.303208	-0.670143
C102	C	1.634407	0.196792	-0.170143
C103	C	1.134464	-0.139084	-0.378210
C104	C	1.634464	0.360916	0.121790
C105	C	1.134517	-0.069116	-0.378236
C106	C	1.634517	0.430884	0.121764
C107	C	1.184645	-0.262948	-0.711154
C108	C	1.684645	0.237052	-0.211154
C109	C	1.184654	-0.262927	-0.793134
C110	C	1.684654	0.237073	-0.293134
C111	C	1.134429	-0.303170	-0.834103
C112	C	1.634429	0.196830	-0.334103
C113	C	1.084185	-0.343432	-0.793086
C114	C	1.584185	0.156568	-0.293086
C115	C	1.084172	-0.343449	-0.711107
C116	C	1.584172	0.156551	-0.211107
C117	C	1.084217	-0.343394	-0.963956
C118	C	1.584217	0.156606	-0.463956
C119	C	1.084231	-0.343377	-1.045941
C120	C	1.584231	0.156623	-0.545941
C121	C	1.184699	-0.262871	-1.045984
C122	C	1.684699	0.237129	-0.545984
C123	C	1.184686	-0.262889	-0.964005
C124	C	1.684686	0.237111	-0.464005
C125	C	1.134443	-0.303152	-0.922994
C126	C	1.634443	0.196848	-0.422994
C127	C	1.134337	-0.303275	-0.174201
C128	C	1.634337	0.196725	0.325799
C129	C	1.134469	-0.303117	-0.086952
C130	C	1.634469	0.196883	0.413048
H131	H	0.433874	-0.376243	-0.286927
H132	H	0.933874	0.123757	0.213073
H133	H	1.225648	-1.062997	-0.287238
H134	H	1.725648	-0.562997	0.212762
H135	H	1.043255	-0.376227	-0.677717
H136	H	1.543255	0.123773	-0.177717
H137	H	0.434021	-0.230352	-0.469426
H138	H	0.934021	0.269648	0.030574
O139	O	0.593434	-0.386856	-0.273619
O140	O	1.093434	0.113144	0.226381
H141	H	0.551131	-0.414823	-0.238656
H142	H	1.051131	0.085177	0.261344
H143	H	1.043196	-0.662180	-0.469141
H144	H	1.543196	-0.162180	0.030859
H145	H	1.225583	-0.943733	-0.287200
H146	H	1.725583	-0.443733	0.212800
H147	H	1.043384	-1.063018	-0.469234
H148	H	1.543384	-0.563018	0.030766
O149	O	1.030042	-0.935062	-0.482459
O150	O	1.530042	-0.435062	0.017541
H151	H	1.038461	-0.883825	-0.474027
H152	H	1.538461	-0.383825	0.025973
O153	O	0.846449	-0.219690	-0.482677
O154	O	1.346449	0.280310	0.017323
H155	H	0.804200	-0.191731	-0.517645
H156	H	1.304200	0.308269	-0.017645
H157	H	0.686720	-0.376214	-0.286899
H158	H	1.186720	0.123786	0.213101
O159	O	0.676046	-0.219706	-0.482691
O160	O	1.176046	0.280294	0.017309
H161	H	0.718351	-0.191751	-0.517666
H162	H	1.218351	0.308249	-0.017666
H163	H	0.835452	-0.376206	-0.286885
H164	H	1.335452	0.123794	0.213115
H165	H	1.225390	-0.542893	-0.287111
H166	H	1.725390	-0.042893	0.212889
H167	H	0.582750	-0.230343	-0.469418
H168	H	1.082750	0.269657	0.030582
H169	H	1.225565	-0.230144	-0.826522
H170	H	1.725565	0.269856	-0.326522
H171	H	1.043291	-0.376170	-0.930568
H172	H	1.543291	0.123830	-0.430568
O173	O	1.238821	-0.219541	-0.666975
O174	O	1.738821	0.280459	-0.166975
H175	H	1.278737	-0.247728	-0.629628
H176	H	1.778737	0.252272	-0.129628
O177	O	1.238737	-0.670860	-0.273905
O178	O	1.738737	-0.170860	0.226095
H179	H	1.203642	-0.700870	-0.233952
H180	H	1.703642	-0.200870	0.266048
O181	O	1.029849	-0.534215	-0.482364
O182	O	1.529849	-0.034215	0.017636
H183	H	0.994929	-0.568119	-0.517242
H184	H	1.494929	-0.068119	-0.017242
O185	O	1.238859	-0.219488	-0.919812
O186	O	1.738859	0.280512	-0.419812
H187	H	1.273795	-0.191485	-0.962100
H188	H	1.773795	0.308515	-0.462100
H189	H	1.225607	-0.230087	-1.079379
H190	H	1.725607	0.269913	-0.579379
H191	H	1.043331	-0.376145	-1.079295
H192	H	1.543331	0.123855	-0.579295
O193	O	1.030005	-0.386832	-0.837270
O194	O	1.530005	0.113168	-0.337270
H195	H	1.065116	-0.418860	-0.874609
H196	H	1.565116	0.081140	-0.374609
