data_functionalizedCrystal
_audit_creation_method	'MofGen! by Chris Wilmer'
_symmetry_space_group_name_H-M	'P1'
_symmetry_Int_Tables_number	1
_symmetry_cell_setting	triclinic
loop_
_symmetry_equiv_pos_as_xyz
  x,y,z
_cell_length_a	10.654545
_cell_length_b	15.625429
_cell_length_c	9.130313
_cell_angle_alpha	71.918332
_cell_angle_beta	89.996934
_cell_angle_gamma	84.351614
loop_
_atom_site_label
_atom_site_type_symbol
_atom_site_fract_x
_atom_site_fract_y
_atom_site_fract_z
O1	O	1.666525	0.126605	-0.189017
O2	O	1.300920	0.138673	-0.195432
O3	O	1.493491	0.001463	-0.122555
O4	O	1.473954	0.263815	-0.261893
O5	O	1.493478	0.001459	0.121046
O6	O	1.300907	0.138669	0.048169
O7	O	1.666512	0.126601	0.054584
Cu8	Cu	1.483708	0.132635	0.073620
Cu9	Cu	1.483724	0.132640	-0.214467
O10	O	1.473941	0.263811	-0.018292
C11	C	1.254125	0.137786	-0.073162
C12	C	1.114709	0.135137	-0.071757
C13	C	1.049210	0.133888	0.061693
C14	C	0.918216	0.131385	0.063022
C15	C	0.918231	0.131383	-0.202562
C16	C	1.049224	0.133880	-0.203886
C17	C	1.492600	-0.032132	0.017084
C18	C	1.489950	-0.132229	0.070237
C19	C	1.481235	-0.461424	-0.418830
C20	C	1.478739	-0.555480	-0.368839
C21	C	1.478725	-0.555470	-0.103283
C22	C	1.481227	-0.461413	-0.153251
C23	C	1.482481	-0.414398	-0.311026
C24	C	1.482473	-0.414387	-0.045447
C25	C	1.484968	-0.320338	-0.095412
C26	C	1.486217	-0.273315	-0.253181
C27	C	1.484976	-0.320348	-0.360991
C28	C	1.481211	-0.461404	0.112327
C29	C	1.482456	-0.414377	0.220131
C30	C	1.484960	-0.320327	0.170167
C31	C	1.486210	-0.273304	0.012398
C32	C	1.486202	-0.273294	0.277977
C33	C	1.488697	-0.179244	0.228012
C34	C	1.488705	-0.179255	-0.037567
C35	C	1.713307	0.127488	-0.067689
C36	C	1.852723	0.130137	-0.069103
C37	C	1.474831	0.297406	-0.157934
C38	C	1.477481	0.397503	-0.211097
N39	N	1.483706	0.132631	0.276244
N40	N	1.483735	0.132636	-0.417088
C41	C	1.569005	0.071900	0.385152
C42	C	1.569017	0.071900	0.538489
C43	C	1.398427	0.193370	0.473992
C44	C	1.398410	0.193365	0.320661
H45	H	1.102555	0.134895	-0.312563
H46	H	0.864897	0.130361	-0.310137
C47	C	1.662851	0.005098	0.658288
C48	C	1.756689	-0.061690	0.609419
C49	C	1.850525	-0.128496	0.729221
C50	C	1.850524	-0.128514	0.897892
C51	C	1.756682	-0.061723	0.946769
C52	C	1.662846	0.005083	0.826967
H53	H	1.756693	-0.061679	0.484552
H54	H	1.919993	-0.177939	0.693038
H55	H	1.919987	-0.177968	0.986577
H56	H	1.756678	-0.061734	1.071637
H57	H	1.593378	0.054526	0.863150
H58	H	1.482267	-0.423142	-0.547306
C59	C	0.846165	0.130015	0.209817
C60	C	0.770251	0.050149	0.288767
C61	C	0.698200	0.048777	0.435568
C62	C	0.702063	0.127271	0.503420
C63	C	0.777980	0.207143	0.424470
C64	C	0.850031	0.208515	0.277668
H65	H	0.767389	-0.007962	0.238539
H66	H	0.642001	-0.010350	0.494012
H67	H	0.648727	0.126256	0.612092
H68	H	0.780842	0.265254	0.474698
H69	H	0.906230	0.267641	0.219225
C70	C	1.490098	-0.127526	-0.211121
C71	C	1.598733	-0.150016	-0.308715
C72	C	1.600129	-0.098285	-0.482259
C73	C	1.492888	-0.024065	-0.558210
C74	C	1.384245	-0.001572	-0.460615
C75	C	1.382849	-0.053302	-0.287071
H76	H	1.678126	-0.204961	-0.252492
H77	H	1.680554	-0.114936	-0.554505
H78	H	1.493921	0.014229	-0.686678
H79	H	1.304852	0.053374	-0.516838
H80	H	1.302424	-0.036651	-0.214826
H81	H	1.477714	-0.593764	-0.456639
C82	C	1.304614	0.260182	0.522848
C83	C	1.304698	0.260248	0.691475
C84	C	1.210884	0.327065	0.740324
C85	C	1.116987	0.393816	0.620546
C86	C	1.116899	0.393753	0.451909
C87	C	1.210713	0.326936	0.403060
H88	H	1.374209	0.210833	0.780151
H89	H	1.210949	0.327112	0.865161
H90	H	1.047540	0.443278	0.656707
H91	H	1.047387	0.443168	0.363232
H92	H	1.210647	0.326890	0.278223
H93	H	1.102524	0.134912	0.169281
H94	H	1.488235	-0.196733	-0.293861
C95	C	1.477344	-0.607200	0.070262
C96	C	1.366660	-0.662296	0.136043
C97	C	1.365279	-0.714027	0.309588
C98	C	1.474582	-0.710663	0.417352
C99	C	1.585275	-0.655565	0.351573
C100	C	1.586655	-0.603834	0.178028
H101	H	1.285739	-0.664788	0.056267
H102	H	1.283336	-0.754814	0.358281
H103	H	1.473560	-0.748957	0.545821
H104	H	1.666195	-0.653073	0.431348
H105	H	1.668598	-0.563047	0.129334
H106	H	1.486007	-0.282066	-0.489467
H107	H	1.479165	-0.537984	0.153003
H108	H	1.638457	0.022446	0.348994
H109	H	1.328943	0.242820	0.231980
H110	H	1.485169	-0.311587	0.406438
H111	H	1.481431	-0.452670	0.348592
H112	H	1.489684	-0.140952	0.315796
