data_functionalizedCrystal
_audit_creation_method	'MofGen! by Chris Wilmer'
_symmetry_space_group_name_H-M	'P1'
_symmetry_Int_Tables_number	1
_symmetry_cell_setting	triclinic
loop_
_symmetry_equiv_pos_as_xyz
  x,y,z
_cell_length_a	12.759393
_cell_length_b	19.805407
_cell_length_c	19.805405
_cell_angle_alpha	90.023727
_cell_angle_beta	89.963446
_cell_angle_gamma	89.978080
loop_
_atom_site_label
_atom_site_type_symbol
_atom_site_fract_x
_atom_site_fract_y
_atom_site_fract_z
Zn1	Zn	-0.594003	1.034763	-0.269479
Zn2	Zn	-0.418305	1.034670	-0.382682
Zn3	Zn	-0.418335	0.921570	-0.269507
Zn4	Zn	-0.593939	0.921541	-0.382626
O5	O	-0.506146	0.978136	-0.326073
O6	O	-0.570711	1.129467	-0.284507
O7	O	-0.271288	1.019640	-0.367704
O8	O	-0.441678	0.936636	-0.174786
O9	O	-0.441626	1.129399	-0.367677
O10	O	-0.570740	1.019799	-0.174766
O11	O	-0.271310	0.936545	-0.284554
O12	O	-0.441616	0.826849	-0.284500
O13	O	-0.740969	0.936588	-0.367582
O14	O	-0.570631	0.826829	-0.367609
O15	O	-0.741016	1.019771	-0.284453
O16	O	-0.441563	1.019612	-0.477391
O17	O	-0.570601	0.936497	-0.477350
C18	C	-0.506120	0.802280	-0.326052
C19	C	-0.506134	0.727048	-0.326059
C20	C	-0.573451	0.691740	-0.282830
C21	C	-0.573455	0.621052	-0.282833
C22	C	-0.506147	0.585672	-0.326070
C23	C	-0.438823	0.620985	-0.369302
C24	C	-0.438814	0.691672	-0.369295
C25	C	-0.438855	0.335912	-0.369332
C26	C	-0.438871	0.265220	-0.369338
C27	C	-0.573496	0.265291	-0.282871
C28	C	-0.573487	0.335978	-0.282863
C29	C	-0.506160	0.371285	-0.326092
C30	C	-0.506155	0.447933	-0.326087
C31	C	-0.506156	0.509025	-0.326080
C32	C	-0.780179	0.978187	-0.326008
C33	C	-0.896956	0.978208	-0.325981
C34	C	-0.951844	1.021525	-0.282689
C35	C	-1.061568	1.021537	-0.282659
C36	C	-1.061506	0.934912	-0.369220
C37	C	-0.951784	0.934898	-0.369245
C38	C	-1.211560	1.045784	-0.202804
C39	C	-1.266452	1.089112	-0.159518
C40	C	-1.230864	1.155156	-0.149143
C41	C	-1.140386	1.177887	-0.182065
C42	C	-1.085500	1.134563	-0.225356
C43	C	-1.121086	1.068509	-0.235718
C44	C	-0.801790	0.910658	-0.449102
C45	C	-0.746902	0.867337	-0.492397
C46	C	-0.782488	0.801291	-0.502778
C47	C	-0.872969	0.778562	-0.469868
C48	C	-0.927858	0.821883	-0.426573
C49	C	-0.892264	0.887929	-0.416191
C50	C	-0.233178	0.978124	-0.326089
C51	C	-0.116402	0.978234	-0.325926
C52	C	-0.506095	0.978060	-0.501929
C53	C	-0.506108	0.978089	-0.577161
C54	C	-0.506172	1.154679	-0.326095
C55	C	-0.506183	1.229911	-0.326104
C56	C	-0.438989	1.021409	-0.612504
C57	C	-0.439012	1.021438	-0.683193
C58	C	-0.506150	0.978143	-0.718537
C59	C	-0.573277	0.934821	-0.683189
C60	C	-0.573258	0.934796	-0.612502
C61	C	-0.573355	0.934921	-0.968262
C62	C	-0.573366	0.934947	-1.038954
C63	C	-0.439108	1.021563	-1.038953
C64	C	-0.439090	1.021538	-0.968266
C65	C	-0.506220	0.978219	-0.932924
C66	C	-0.506196	0.978189	-0.856276
C67	C	-0.506170	0.978169	-0.795184
C68	C	-0.506220	0.978231	-0.149531
C69	C	-0.506251	0.978271	-0.074299
H70	H	-0.384057	0.236416	-0.404549
H71	H	-0.384356	1.056713	-0.711966
O72	O	-0.892711	1.068237	-0.236024
H73	H	-0.807192	1.060957	-0.243318
H74	H	-1.111423	1.231670	-0.173620
H75	H	-0.384034	0.364650	-0.404533
O76	O	-0.645790	0.888254	-1.077080
H77	H	-0.692476	0.858132	-1.040630
O78	O	-1.364031	1.064593	-0.124008
H79	H	-1.396227	1.105819	-0.092172
H80	H	-0.384014	0.592174	-0.404503
O81	O	-1.290053	1.201887	-0.102448
H82	H	-1.358937	1.174985	-0.081295
O83	O	-0.723281	0.754563	-0.549472
H84	H	-0.775556	0.738356	-0.591213
O85	O	-0.987912	1.159066	-0.260860
H86	H	-0.972381	1.212272	-0.246373
H87	H	-0.628300	0.364781	-0.247658
H88	H	-0.627947	0.899572	-0.711972
H89	H	-0.628313	0.236536	-0.247669
H90	H	-0.627915	0.899521	-0.583726
O91	O	-0.366679	1.068239	-0.930147
H92	H	-0.413751	1.102642	-0.897891
H93	H	-1.240539	0.992004	-0.211241
H94	H	-0.628264	0.720541	-0.247622
H95	H	-0.383997	0.720419	-0.404496
O96	O	-0.646059	0.582967	-0.236206
H97	H	-0.692869	0.619444	-0.206145
O98	O	-1.120641	0.888201	-0.415884
H99	H	-1.206159	0.895491	-0.408598
O100	O	-0.649275	0.891839	-0.527862
H101	H	-0.617081	0.850618	-0.559705
O102	O	-1.025443	0.797371	-0.391067
H103	H	-1.040966	0.744164	-0.405552
H104	H	-0.901947	0.724783	-0.478323
O105	O	-0.763413	0.981898	-0.437905
H106	H	-0.691286	0.990428	-0.468073
O107	O	-0.645724	0.888180	-0.930147
H108	H	-0.692391	0.858068	-0.966602
O109	O	-0.366579	1.068109	-0.574383
H110	H	-0.319920	1.098242	-0.610838
H111	H	-0.384452	1.056838	-1.067737
