data_functionalizedCrystal
_audit_creation_method	'MofGen! by Chris Wilmer'
_symmetry_space_group_name_H-M	'P1'
_symmetry_Int_Tables_number	1
_symmetry_cell_setting	triclinic
loop_
_symmetry_equiv_pos_as_xyz
  x,y,z
_cell_length_a	18.101398
_cell_length_b	16.959454
_cell_length_c	16.959447
_cell_angle_alpha	90.026736
_cell_angle_beta	89.989209
_cell_angle_gamma	89.981773
loop_
_atom_site_label
_atom_site_type_symbol
_atom_site_fract_x
_atom_site_fract_y
_atom_site_fract_z
Zn1	Zn	1.132152	0.314705	-0.446854
Zn2	Zn	1.632152	0.814705	0.053146
Zn3	Zn	1.132079	0.446897	-0.314684
Zn4	Zn	1.632079	0.946897	0.185316
Zn5	Zn	1.008318	0.314733	-0.314700
Zn6	Zn	1.508318	0.814733	0.185300
Zn7	Zn	1.008285	0.446841	-0.446830
Zn8	Zn	1.508285	0.946841	0.053170
O9	O	1.070209	0.380794	-0.380767
O10	O	1.570209	0.880794	0.119233
O11	O	1.235775	0.332253	-0.429324
O12	O	1.735775	0.832253	0.070676
O13	O	1.115645	0.429401	-0.204075
O14	O	1.615645	0.929401	0.295925
O15	O	1.024789	0.204118	-0.332247
O16	O	1.524789	0.704118	0.167753
O17	O	1.235722	0.429374	-0.332219
O18	O	1.735722	0.929374	0.167781
O19	O	1.115769	0.204098	-0.429340
O20	O	1.615769	0.704098	0.070660
O21	O	1.024719	0.332300	-0.204087
O22	O	1.524719	0.832300	0.295913
O23	O	0.904681	0.332245	-0.332224
O24	O	1.404681	0.832245	0.167776
O25	O	1.024733	0.429278	-0.557444
O26	O	1.524733	0.929278	-0.057444
O27	O	0.904657	0.429305	-0.429300
O28	O	1.404657	0.929305	0.070700
O29	O	1.115737	0.332198	-0.557462
O30	O	1.615737	0.832198	-0.057462
O31	O	1.115613	0.557501	-0.332197
O32	O	1.615613	1.057501	0.167803
O33	O	1.024663	0.557459	-0.429284
O34	O	1.524663	1.057459	0.070716
C35	C	0.877798	0.380772	-0.380761
C36	C	1.377798	0.880772	0.119239
C37	C	0.795484	0.380782	-0.380778
C38	C	1.295484	0.880782	0.119222
C39	C	0.644776	0.380797	-0.380777
C40	C	1.144776	0.880797	0.119223
C41	C	0.613431	0.441958	-0.441760
C42	C	1.113431	0.941958	0.058240
C43	C	0.527813	0.442206	-0.441579
C44	C	1.027813	0.942206	0.058421
C45	C	0.496393	0.380811	-0.380777
C46	C	0.996393	0.880811	0.119223
C47	C	0.527455	0.403044	-0.297375
C48	C	1.027455	0.903044	0.202625
C49	C	0.613100	0.403480	-0.297728
C50	C	1.113100	0.903480	0.202272
C51	C	0.613238	0.297251	-0.402467
C52	C	1.113238	0.797251	0.097533
C53	C	0.527588	0.297709	-0.404304
C54	C	1.027588	0.797709	0.095696
C55	C	0.412534	0.380818	-0.380772
C56	C	0.912534	0.880818	0.119228
C57	C	0.728635	0.380792	-0.380776
C58	C	1.228635	0.880792	0.119224
C59	C	1.070147	0.586160	-0.380753
C60	C	1.570147	1.086160	0.119247
C61	C	1.070188	0.674017	-0.380774
C62	C	1.570188	1.174017	0.119226
C63	C	1.070239	0.380729	-0.586935
C64	C	1.570239	0.880729	-0.086935
C65	C	1.070253	0.380701	-0.674792
C66	C	1.570253	0.880701	-0.174792
C67	C	1.263371	0.380816	-0.380773
C68	C	1.763371	0.880816	0.119227
C69	C	1.345685	0.380826	-0.380775
C70	C	1.845685	0.880826	0.119225
C71	C	1.070291	0.174626	-0.380798
C72	C	1.570291	0.674626	0.119202
C73	C	1.070326	0.086769	-0.380811
C74	C	1.570326	0.586769	0.119189
C75	C	1.022919	1.045501	-0.431315
C76	C	1.522919	1.545501	0.068685
C77	C	1.117704	1.045484	-0.330299
C78	C	1.617704	1.545484	0.169701
C79	C	1.117678	0.962938	-0.330292
C80	C	1.617678	1.462938	0.169708
C81	C	1.070271	0.921670	-0.380796
C82	C	1.570271	1.421670	0.119204
C83	C	1.022890	0.962947	-0.431308
C84	C	1.522890	1.462947	0.068692
C85	C	1.165053	0.921654	-0.279776
C86	C	1.665053	1.421654	0.220224
C87	C	1.165029	0.839103	-0.279766
C88	C	1.665029	1.339103	0.220234
C89	C	1.117625	0.797834	-0.330275
C90	C	1.617625	1.297834	0.169725
C91	C	1.070243	0.839116	-0.380789
C92	C	1.570243	1.339116	0.119211
C93	C	1.022836	0.797848	-0.431293
C94	C	1.522836	1.297848	0.068707
C95	C	0.975456	0.839129	-0.481812
C96	C	1.475456	1.339129	0.018188
C97	C	0.975487	0.921677	-0.481816
C98	C	1.475487	1.421677	0.018184
C99	C	1.117595	0.715285	-0.330270
C100	C	1.617595	1.215285	0.169730
C101	C	1.022807	0.715294	-0.431286
C102	C	1.522807	1.215294	0.068714
C103	C	1.022959	0.431162	-1.046261
C104	C	1.522959	0.931162	-0.546261
C105	C	1.117723	0.330072	-1.046274
C106	C	1.617723	0.830072	-0.546274
C107	C	1.117703	0.330089	-0.963728
C108	C	1.617703	0.830089	-0.463728
C109	C	1.070312	0.380644	-0.922445
C110	C	1.570312	0.880644	-0.422445
C111	C	1.022940	0.431182	-0.963707
C112	C	1.522940	0.931182	-0.463707
C113	C	1.165079	0.279557	-0.922459
C114	C	1.665079	0.779557	-0.422459
C115	C	1.165062	0.279573	-0.839908
C116	C	1.665062	0.779573	-0.339908
C117	C	1.117666	0.330124	-0.798624
C118	C	1.617666	0.830124	-0.298624
C119	C	1.070292	0.380664	-0.839891
C120	C	1.570292	0.880664	-0.339891
C121	C	1.022900	0.431219	-0.798608
C122	C	1.522900	0.931219	-0.298608
C123	C	0.975522	0.481755	-0.839874
C124	C	1.475522	0.981755	-0.339874
C125	C	0.975544	0.481734	-0.922423
C126	C	1.475544	0.981734	-0.422423
C127	C	1.117644	0.330146	-0.716075
C128	C	1.617644	0.830146	-0.216075
C129	C	1.022881	0.431239	-0.716054
C130	C	1.522881	0.931239	-0.216054
C131	C	1.070221	0.380802	-0.175401
C132	C	1.570221	0.880802	0.324599
C133	C	1.070351	0.380607	-0.087544
C134	C	1.570351	0.880607	0.412456
H135	H	0.634046	0.428250	-0.503783
H136	H	1.134046	0.928250	-0.003783
N137	N	1.216186	0.966165	-0.225313
N138	N	1.716186	1.466165	0.274687
H139	H	1.246194	0.927490	-0.193309
H140	H	1.746194	1.427490	0.306691
H141	H	1.186076	1.000462	-0.188713
H142	H	1.686076	1.500462	0.311287
H143	H	1.156296	1.079090	-0.289176
H144	H	1.656296	1.579090	0.210824
H145	H	0.633509	0.251686	-0.358055
H146	H	1.133509	0.751686	0.141945
N147	N	0.641863	0.270337	-0.481669
N148	N	1.141863	0.770337	0.018331
H149	H	0.697561	0.267184	-0.480037
H150	H	1.197561	0.767184	0.019963
H151	H	0.626216	0.309198	-0.523572
H152	H	1.126216	0.809198	-0.023572
H153	H	1.156221	0.289002	-0.682480
H154	H	1.656221	0.789002	-0.182480
N155	N	1.216134	0.794582	-0.225289
N156	N	1.716134	1.294582	0.274711
H157	H	1.246171	0.833252	-0.193299
H158	H	1.746171	1.333252	0.306701
H159	H	1.250373	0.760295	-0.257501
H160	H	1.750373	1.260295	0.242499
H161	H	1.203640	0.238423	-0.806317
H162	H	1.703640	0.738423	-0.306317
N163	N	0.639539	0.484356	-0.273441
N164	N	1.139539	0.984356	0.226559
H165	H	0.595559	0.519391	-0.262609
H166	H	1.095559	1.019391	0.237391
H167	H	0.670170	0.507905	-0.317283
H168	H	1.170170	1.007905	0.182717
H169	H	0.984282	0.472400	-0.682447
H170	H	1.484282	0.972400	-0.182447
H171	H	0.936939	0.522921	-0.806251
H172	H	1.436939	1.022921	-0.306251
N173	N	0.500696	0.275480	-0.485603
N174	N	1.000696	0.775480	0.014397
H175	H	0.544450	0.267445	-0.521690
H176	H	1.044450	0.767445	-0.021690
H177	H	0.468430	0.319075	-0.507041
H178	H	0.968430	0.819075	-0.007041
H179	H	0.633834	0.360836	-0.250732
H180	H	1.133834	0.860836	0.249268
H181	H	0.984346	1.079116	-0.472448
H182	H	1.484346	1.579116	0.027552
N183	N	0.499273	0.234156	-0.349802
N184	N	0.999273	0.734156	0.150198
H185	H	0.443567	0.232208	-0.352568
H186	H	0.943567	0.732208	0.147432
H187	H	0.515106	0.246239	-0.293990
H188	H	1.015106	0.746239	0.206010
H189	H	0.984205	0.681699	-0.472415
H190	H	1.484205	1.181699	0.027585
H191	H	0.936973	0.522880	-0.956029
H192	H	1.436973	1.022880	-0.456029
H193	H	0.936854	0.805519	-0.522929
H194	H	1.436854	1.305519	-0.022929
H195	H	0.507103	0.359863	-0.250690
H196	H	1.007103	0.859863	0.249310
H197	H	1.156167	0.681678	-0.289135
H198	H	1.656167	1.181678	0.210865
H199	H	0.936912	0.955296	-0.522945
H200	H	1.436912	1.455296	-0.022945
H201	H	0.634931	0.503514	-0.427544
H202	H	1.134931	1.003514	0.072456
N203	N	0.499987	0.423094	-0.523307
N204	N	0.999987	0.923094	-0.023307
H205	H	0.543358	0.414515	-0.559795
H206	H	1.043358	0.914515	-0.059795
H207	H	0.468869	0.468178	-0.543568
H208	H	0.968869	0.968178	-0.043568
N209	N	0.971845	0.485652	-1.090762
N210	N	1.471845	0.985652	-0.590762
H211	H	0.979040	0.477965	-1.149321
H212	H	1.479040	0.977965	-0.649321
H213	H	0.983334	0.542113	-1.076327
H214	H	1.483334	1.042113	-0.576327
H215	H	0.505987	0.463439	-0.278730
H216	H	1.005987	0.963439	0.221270
N217	N	0.500636	0.524211	-0.422513
N218	N	1.000636	1.024211	0.077487
H219	H	0.544293	0.560338	-0.414189
H220	H	1.044293	1.060338	0.085811
H221	H	0.469746	0.522577	-0.372943
H222	H	0.969746	1.022577	0.127057
H223	H	1.156311	0.288917	-1.079892
H224	H	1.656311	0.788917	-0.579892
H225	H	1.203668	0.238403	-0.956078
H226	H	1.703668	0.738403	-0.456078
