data_functionalizedCrystal
_audit_creation_method	'MofGen! by Chris Wilmer'
_symmetry_space_group_name_H-M	'P1'
_symmetry_Int_Tables_number	1
_symmetry_cell_setting	triclinic
loop_
_symmetry_equiv_pos_as_xyz
  x,y,z
_cell_length_a	15.944551
_cell_length_b	16.109301
_cell_length_c	15.186229
_cell_angle_alpha	90.005167
_cell_angle_beta	90.001133
_cell_angle_gamma	96.519890
loop_
_atom_site_label
_atom_site_type_symbol
_atom_site_fract_x
_atom_site_fract_y
_atom_site_fract_z
O1	O	1.114487	-0.107227	-0.073140
O2	O	0.869933	-0.120447	-0.073162
O3	O	0.998929	0.007192	-0.073141
O4	O	0.985492	-0.234866	-0.073160
O5	O	0.998920	0.007194	0.073316
O6	O	0.869925	-0.120445	0.073295
O7	O	1.114479	-0.107225	0.073318
Zn8	Zn	0.992200	-0.113835	0.096560
Zn9	Zn	0.992212	-0.113837	-0.096404
O10	O	0.985484	-0.234864	0.073297
C11	C	0.838635	-0.119897	0.000064
C12	C	0.745390	-0.118252	0.000056
C13	C	0.998380	0.038168	0.000088
C14	C	0.996748	0.130464	0.000089
C15	C	0.986032	-0.265840	0.000066
C16	C	0.987664	-0.358136	0.000059
C17	C	0.530561	-0.035203	0.000079
C18	C	0.469532	-0.073769	-0.072135
C19	C	0.574665	-0.115275	0.000066
C20	C	0.469546	-0.073786	0.072261
C21	C	0.409753	-0.112394	0.000081
C22	C	0.514865	-0.153864	-0.072207
C23	C	0.514885	-0.153870	0.072253
C24	C	0.453874	-0.192494	0.000021
C25	C	0.669667	-0.116933	0.000058
C26	C	0.314753	-0.110743	0.000083
C27	C	1.145777	-0.107775	0.000090
C28	C	1.239022	-0.109420	0.000092
N29	N	0.992199	-0.113833	0.228252
C30	C	1.069497	0.352712	0.000082
C31	C	1.067958	0.439433	0.000074
C32	C	0.914909	0.419608	0.000064
C33	C	0.916450	0.332889	0.000065
C34	C	0.993746	0.299444	0.000078
C35	C	0.990666	0.472884	0.000070
C36	C	0.988996	0.566910	0.000062
C37	C	0.995417	0.205411	0.000085
N38	N	0.992220	-0.113833	-0.228097
C39	C	1.049337	-0.057333	0.453984
C40	C	1.049340	-0.057331	0.546174
C41	C	0.935075	-0.170335	0.546165
C42	C	0.935070	-0.170332	0.453977
C43	C	0.992205	-0.113833	0.407889
C44	C	0.992214	-0.113833	0.592267
C45	C	0.992216	-0.113832	0.692223
C46	C	0.992202	-0.113833	0.307927
H47	H	0.563915	0.031251	-0.000005
H48	H	1.095861	-0.011324	0.583703
H49	H	1.095859	-0.011327	0.416462
H50	H	1.129642	0.482802	0.000075
H51	H	0.854760	0.289515	0.000060
H52	H	0.888558	-0.216337	0.583699
H53	H	0.888542	-0.216341	0.416443
H54	H	0.535001	-0.187708	0.133303
H55	H	0.851977	0.446851	0.000055
H56	H	1.132437	0.325484	0.000091
H57	H	0.449437	-0.039902	-0.133182
H58	H	0.534845	-0.187707	-0.133325
H59	H	0.449467	-0.039903	0.133310
H60	H	0.420693	-0.259016	-0.000025
