data_functionalizedCrystal
_audit_creation_method	'MofGen! by Chris Wilmer'
_symmetry_space_group_name_H-M	'P1'
_symmetry_Int_Tables_number	1
_symmetry_cell_setting	triclinic
loop_
_symmetry_equiv_pos_as_xyz
  x,y,z
_cell_length_a	12.759394
_cell_length_b	12.759401
_cell_length_c	12.759393
_cell_angle_alpha	89.980678
_cell_angle_beta	90.032294
_cell_angle_gamma	89.987249
loop_
_atom_site_label
_atom_site_type_symbol
_atom_site_fract_x
_atom_site_fract_y
_atom_site_fract_z
Zn1	Zn	-0.418263	-1.606254	0.593999
Zn2	Zn	0.081737	-1.106254	1.093999
Zn3	Zn	-0.593982	-1.606148	0.418317
Zn4	Zn	-0.093982	-1.106148	0.918317
Zn5	Zn	-0.418311	-1.430556	0.418336
Zn6	Zn	0.081689	-0.930556	0.918336
Zn7	Zn	-0.593894	-1.430545	0.593956
Zn8	Zn	-0.093894	-0.930545	1.093956
O9	O	-0.506113	-1.518376	0.506152
O10	O	-0.006113	-1.018376	1.006152
O11	O	-0.441589	-1.753261	0.570705
O12	O	0.058411	-1.253261	1.070705
O13	O	-0.570736	-1.582816	0.271298
O14	O	-0.070736	-1.082816	0.771298
O15	O	-0.271284	-1.453912	0.441664
O16	O	0.228716	-0.953912	0.941664
O17	O	-0.570689	-1.753183	0.441632
O18	O	-0.070689	-1.253183	0.941632
O19	O	-0.271248	-1.582997	0.570723
O20	O	0.228752	-1.082997	1.070723
O21	O	-0.441671	-1.453810	0.271312
O22	O	0.058329	-0.953810	0.771312
O23	O	-0.441586	-1.283534	0.441622
O24	O	0.058414	-0.783534	0.941622
O25	O	-0.570539	-1.453892	0.740983
O26	O	-0.070539	-0.953892	1.240983
O27	O	-0.570586	-1.283525	0.570649
O28	O	-0.070586	-0.783525	1.070649
O29	O	-0.441504	-1.582986	0.741015
O30	O	0.058496	-1.082986	1.241015
O31	O	-0.740991	-1.582805	0.441590
O32	O	-0.240991	-1.082805	0.941590
O33	O	-0.740927	-1.453789	0.570631
O34	O	-0.240927	-0.953789	1.070631
C35	C	-0.506083	-1.245409	0.506134
C36	C	-0.006083	-0.745409	1.006134
C37	C	-0.506095	-1.128632	0.506151
C38	C	-0.006095	-0.628632	1.006151
C39	C	-0.573371	-1.073793	0.573224
C40	C	-0.073371	-0.573793	1.073224
C41	C	-0.573380	-0.964069	0.573233
C42	C	-0.073380	-0.464069	1.073233
C43	C	-0.438834	-0.964032	0.439089
C44	C	0.061166	-0.464032	0.939089
C45	C	-0.438821	-1.073755	0.439085
C46	C	0.061179	-0.573755	0.939085
C47	C	-0.640645	-1.128670	0.640289
C48	C	-0.140645	-0.628670	1.140289
C49	C	-0.707927	-1.073831	0.707366
C50	C	-0.207927	-0.573831	1.207366
C51	C	-0.707936	-0.964107	0.707376
C52	C	-0.207936	-0.464107	1.207376
C53	C	-0.640663	-0.909222	0.640309
C54	C	-0.140663	-0.409222	1.140309
C55	C	-0.779080	-1.518313	0.506127
C56	C	-0.279080	-1.018313	1.006127
C57	C	-0.895857	-1.518382	0.506151
C58	C	-0.395857	-1.018382	1.006151
C59	C	-0.895871	-1.652826	0.371881
C60	C	-0.395871	-1.152826	0.871881
C61	C	-0.950738	-1.720076	0.304758
C62	C	-0.450738	-1.220076	0.804758
C63	C	-1.060460	-1.720138	0.304787
C64	C	-0.560460	-1.220138	0.804787
C65	C	-1.115316	-1.652945	0.371948
C66	C	-0.615316	-1.152945	0.871948
C67	C	-1.060449	-1.585695	0.439070
C68	C	-0.560449	-1.085695	0.939070
C69	C	-0.950724	-1.585638	0.439032
C70	C	-0.450724	-1.085638	0.939032
C71	C	-1.060435	-1.451257	0.573344
C72	C	-0.560435	-0.951257	1.073344
C73	C	-0.950713	-1.451189	0.573312
C74	C	-0.450713	-0.951189	1.073312
C75	C	-1.115291	-1.384064	0.640504
C76	C	-0.615291	-0.884064	1.140504
C77	C	-1.060423	-1.316808	0.707623
C78	C	-0.560423	-0.816808	1.207623
C79	C	-0.950695	-1.316748	0.707591
C80	C	-0.450695	-0.816748	1.207591
C81	C	-0.895845	-1.383939	0.640434
C82	C	-0.395845	-0.883939	1.140434
C83	C	-0.232079	-1.518468	0.506201
C84	C	0.267921	-1.018468	1.006201
C85	C	-0.115302	-1.518507	0.506221
C86	C	0.384698	-1.018507	1.006221
C87	C	-0.506007	-1.518449	0.780185
C88	C	-0.006007	-1.018449	1.280185
C89	C	-0.505961	-1.518481	0.896962
C90	C	-0.005961	-1.018481	1.396962
C91	C	-0.506134	-0.792409	0.506167
C92	C	-0.006134	-0.292409	1.006167
C93	C	-0.506117	-0.909186	0.506165
C94	C	-0.006117	-0.409186	1.006165
C95	C	-0.506142	-1.518363	0.233185
C96	C	-0.006142	-1.018363	0.733185
C97	C	-0.505892	-1.518535	0.116409
C98	C	-0.005892	-1.018535	0.616409
C99	C	-0.438766	-1.585709	0.951842
C100	C	0.061234	-1.085709	1.451842
C101	C	-0.438728	-1.585734	1.061567
C102	C	0.061272	-1.085734	1.561567
C103	C	-0.573090	-1.451300	1.061521
C104	C	-0.073090	-0.951300	1.561521
C105	C	-0.573122	-1.451270	0.951798
C106	C	-0.073122	-0.951270	1.451798
C107	C	-0.371606	-1.652919	0.897006
C108	C	0.128394	-1.152919	1.397006
C109	C	-0.304406	-1.720154	0.951887
C110	C	0.195594	-1.220154	1.451887
C111	C	-0.304368	-1.720179	1.061611
C112	C	0.195632	-1.220179	1.561611
C113	C	-0.371530	-1.652969	1.116455
C114	C	0.128470	-1.152969	1.616455
H115	H	-0.762713	-0.919460	0.762001
H116	H	-0.262713	-0.419460	1.262001
H117	H	-0.762691	-1.118526	0.761977
H118	H	-0.262691	-0.618526	1.261977
H119	H	-0.640667	-0.819877	0.640331
H120	H	-0.140667	-0.319877	1.140331
Cl121	Cl	-0.354244	-1.142700	0.354764
Cl122	Cl	0.145756	-0.642700	0.854764
H123	H	-0.384065	-0.919336	0.384485
H124	H	0.115935	-0.419336	0.884485
H125	H	-0.640647	-1.218013	0.640287
H126	H	-0.140647	-0.718013	1.140287
Cl127	Cl	-0.757934	-1.653049	0.372135
Cl128	Cl	-0.257934	-1.153049	0.872135
Cl129	Cl	-1.253227	-1.383697	0.640096
Cl130	Cl	-0.753227	-0.883697	1.140096
Cl131	Cl	-1.253252	-1.652580	0.371536
Cl132	Cl	-0.753252	-1.152580	0.871536
Cl133	Cl	-0.881772	-1.804548	0.220337
Cl134	Cl	-0.381772	-1.304548	0.720337
Cl135	Cl	-1.129439	-1.804686	0.220409
Cl136	Cl	-0.629439	-1.304686	0.720409
H137	H	-1.105096	-1.262110	0.762305
H138	H	-0.605096	-0.762110	1.262305
H139	H	-0.806504	-1.383890	0.640395
H140	H	-0.306504	-0.883890	1.140395
Cl141	Cl	-0.881728	-1.232206	0.791985
Cl142	Cl	-0.381728	-0.732206	1.291985
H143	H	-0.627822	-1.396511	0.907114
H144	H	-0.127822	-0.896511	1.407114
Cl145	Cl	-0.371653	-1.652896	0.759068
Cl146	Cl	0.128347	-1.152896	1.259068
Cl147	Cl	-0.219963	-1.804624	0.882942
Cl148	Cl	0.280037	-1.304624	1.382942
Cl149	Cl	-0.219893	-1.804703	1.130601
Cl150	Cl	0.280107	-1.304703	1.630601
Cl151	Cl	-0.657520	-1.366818	1.130468
Cl152	Cl	-0.157520	-0.866818	1.630468
H153	H	-0.371482	-1.652983	1.205799
H154	H	0.128518	-1.152983	1.705799
