data_functionalizedCrystal
_audit_creation_method	'MofGen! by Chris Wilmer'
_symmetry_space_group_name_H-M	'P1'
_symmetry_Int_Tables_number	1
_symmetry_cell_setting	triclinic
loop_
_symmetry_equiv_pos_as_xyz
  x,y,z
_cell_length_a	15.995350
_cell_length_b	23.532407
_cell_length_c	15.072220
_cell_angle_alpha	89.994175
_cell_angle_beta	89.991149
_cell_angle_gamma	83.170526
loop_
_atom_site_label
_atom_site_type_symbol
_atom_site_fract_x
_atom_site_fract_y
_atom_site_fract_z
O1	O	1.110385	0.073404	-0.073717
O2	O	0.866535	0.082469	-0.073736
O3	O	0.995813	-0.004967	-0.073710
O4	O	0.981107	0.160840	-0.073743
O5	O	0.995781	-0.004962	0.073856
O6	O	0.866503	0.082474	0.073829
O7	O	1.110354	0.073409	0.073848
Zn8	Zn	0.988423	0.077942	0.097268
Zn9	Zn	0.988465	0.077935	-0.097155
O10	O	0.981075	0.160845	0.073822
C11	C	0.835327	0.082096	0.000044
C12	C	0.742386	0.080973	0.000038
C13	C	0.995423	-0.026182	0.000075
C14	C	0.994297	-0.089404	0.000082
C15	C	0.404672	0.076938	0.000057
C16	C	0.452624	0.014668	0.000399
C17	C	0.549305	0.015792	0.000060
C18	C	0.572216	0.078939	0.000048
C19	C	0.530892	0.109650	-0.084222
C20	C	0.434269	0.108086	-0.084286
C21	C	0.433883	0.109378	0.083523
C22	C	0.530828	0.109363	0.084631
C23	C	0.666904	0.080074	0.000040
C24	C	0.309984	0.075805	0.000059
C25	C	1.063739	-0.488239	0.000039
C26	C	1.062693	-0.547644	0.000032
O27	O	1.127067	-0.584141	0.000004
N28	N	0.985837	-0.570566	0.000027
C29	C	0.910022	-0.534080	0.000019
O30	O	0.844554	-0.559031	0.000013
C31	C	0.911069	-0.474677	0.000019
C32	C	0.987930	-0.451758	0.000034
C33	C	1.140594	-0.465320	0.000052
C34	C	1.141640	-0.405920	0.000061
C35	C	1.065830	-0.369439	0.000056
C36	C	0.988975	-0.392358	0.000042
C37	C	0.835255	-0.438192	0.000005
C38	C	0.836308	-0.378785	0.000005
C39	C	0.913169	-0.355867	0.000020
C40	C	0.914212	-0.296477	0.000046
N41	N	0.991068	-0.273555	0.000051
C42	C	1.066877	-0.310036	0.000056
C43	C	0.907829	-0.658831	0.000016
C44	C	0.906781	-0.718233	0.000022
C45	C	1.059453	-0.731793	0.000034
C46	C	1.060500	-0.672389	0.000034
C47	C	0.984685	-0.635909	0.000022
C48	C	1.069067	-0.185291	0.000075
C49	C	1.070106	-0.125885	0.000087
C50	C	0.917435	-0.112330	0.000071
C51	C	0.916396	-0.171731	0.000063
C52	C	0.992219	-0.208210	0.000062
O53	O	0.849872	-0.259945	0.000070
O54	O	1.132335	-0.285076	0.000051
C55	C	1.141561	0.073781	0.000066
C56	C	1.234502	0.074905	0.000067
C57	C	0.981465	0.182060	0.000035
C58	C	0.982591	0.245281	0.000023
N59	N	0.988401	0.077946	0.229957
N60	N	0.988494	0.077927	-0.229844
C61	C	0.988463	0.077933	0.589158
C62	C	0.919059	0.124562	0.551537
C63	C	0.919216	0.124732	0.448711
C64	C	0.988431	0.077940	0.410954
C65	C	1.075688	0.090918	0.448249
C66	C	1.075299	0.091250	0.551107
C67	C	0.971391	0.018188	0.551269
C68	C	0.969383	0.018587	0.448405
C69	C	0.988419	0.077942	0.310241
C70	C	0.988482	0.077932	0.689872
H71	H	0.434296	-0.010221	0.060832
N72	N	1.034884	-0.025340	0.581809
N73	N	1.044652	-0.034273	0.663112
H74	H	1.089494	-0.065011	0.684686
H75	H	0.855713	-0.082617	0.000070
H76	H	0.401641	0.153804	-0.088119
N77	N	0.756742	-0.461594	-0.000035
N78	N	0.739142	-0.493217	-0.062250
H79	H	0.683688	-0.509745	-0.062283
N80	N	0.548128	0.167850	-0.088156
N81	N	0.591166	0.187388	-0.028754
H82	H	0.603341	0.228492	-0.031530
N83	N	0.837884	-0.195142	0.000039
N84	N	0.820276	-0.226763	-0.062177
H85	H	0.764825	-0.243292	-0.062203
H86	H	0.433249	-0.010110	-0.059692
N87	N	0.837411	0.115016	0.582598
N88	N	0.829416	0.073739	0.632829
H89	H	0.771749	0.066995	0.654771
N90	N	1.220153	-0.382516	0.000082
N91	N	1.271135	-0.393700	0.062287
H92	H	1.326590	-0.377175	0.062301
H93	H	0.413503	0.089023	0.147397
N94	N	0.830373	-0.621577	0.000007
N95	N	0.761762	-0.642056	0.000001
H96	H	0.707058	-0.615748	-0.000008
H97	H	0.844194	-0.736887	0.000026
H98	H	0.774569	-0.349085	-0.000006
H99	H	0.577378	-0.008516	-0.060444
H100	H	0.854341	0.116999	0.423497
H101	H	0.929757	0.168648	0.577368
H102	H	0.577922	-0.008349	0.060468
H103	H	1.090419	0.134821	0.575081
N104	N	1.095121	0.144955	0.415906
N105	N	1.044852	0.173995	0.365400
H106	H	1.058572	0.212160	0.342558
N107	N	1.142008	0.049458	0.417554
N108	N	1.200968	0.064974	0.372650
H109	H	1.247806	0.035692	0.350969
H110	H	1.128531	0.058627	0.575992
N111	N	0.932782	0.180361	0.417830
N112	N	0.942171	0.219180	0.472243
H113	H	0.951738	0.258474	0.450434
N114	N	0.565282	0.081240	0.162852
N115	N	0.602713	0.108330	0.218622
H116	H	0.627040	0.088466	0.273869
H117	H	0.909172	0.005708	0.577257
H118	H	1.130810	-0.214986	0.000071
H119	H	0.905198	0.008737	0.424031
N120	N	0.411559	0.079987	-0.163303
N121	N	0.467042	0.061665	-0.218018
H122	H	0.451008	0.041818	-0.273826
N123	N	1.028740	-0.026975	0.416171
N124	N	1.105424	-0.027125	0.432270
H125	H	1.147354	-0.059300	0.409504
N126	N	0.566737	0.082911	-0.162900
N127	N	0.643951	0.081285	-0.177266
H128	H	0.669271	0.062404	-0.232834
N129	N	0.549656	0.167125	0.091001
N130	N	0.624456	0.177241	0.096336
H131	H	0.637764	0.218035	0.100824
H132	H	1.132698	-0.107228	0.000101
N133	N	0.393558	0.166972	0.084218
N134	N	0.343511	0.184120	0.023574
H135	H	0.315027	0.224794	0.024058
N136	N	1.136894	-0.769063	0.000052
N137	N	1.153325	-0.803728	0.062255
H138	H	1.208015	-0.830050	0.062271
H139	H	1.202331	-0.495018	0.000053
H140	H	1.123087	-0.653734	0.000045
