data_functionalizedCrystal
_audit_creation_method	'MofGen! by Chris Wilmer'
_symmetry_space_group_name_H-M	'P1'
_symmetry_Int_Tables_number	1
_symmetry_cell_setting	triclinic
loop_
_symmetry_equiv_pos_as_xyz
  x,y,z
_cell_length_a	21.395362
_cell_length_b	19.805405
_cell_length_c	21.395355
_cell_angle_alpha	90.019910
_cell_angle_beta	90.043940
_cell_angle_gamma	90.042288
loop_
_atom_site_label
_atom_site_type_symbol
_atom_site_fract_x
_atom_site_fract_y
_atom_site_fract_z
Zn1	Zn	0.957878	-0.269255	0.354580
Zn2	Zn	1.207878	-0.019255	0.604580
Zn3	Zn	1.457878	0.230745	0.854580
Zn4	Zn	1.707878	0.480745	1.104580
Zn5	Zn	0.957789	-0.382425	0.249800
Zn6	Zn	1.207789	-0.132425	0.499800
Zn7	Zn	1.457789	0.117575	0.749800
Zn8	Zn	1.707789	0.367575	0.999800
Zn9	Zn	0.853093	-0.269286	0.249781
Zn10	Zn	1.103093	-0.019286	0.499781
Zn11	Zn	1.353093	0.230714	0.749781
Zn12	Zn	1.603093	0.480714	0.999781
Zn13	Zn	0.853070	-0.382438	0.354504
Zn14	Zn	1.103070	-0.132438	0.604504
Zn15	Zn	1.353070	0.117562	0.854504
Zn16	Zn	1.603070	0.367562	1.104504
O17	O	0.905458	-0.325851	0.302166
O18	O	1.155458	-0.075851	0.552166
O19	O	1.405458	0.174149	0.802166
O20	O	1.655458	0.424149	1.052166
O21	O	1.045544	-0.284248	0.340720
O22	O	1.295544	-0.034248	0.590720
O23	O	1.545544	0.215752	0.840720
O24	O	1.795544	0.465752	1.090720
O25	O	0.943873	-0.367424	0.162119
O26	O	1.193873	-0.117424	0.412119
O27	O	1.443873	0.132576	0.662119
O28	O	1.693873	0.382576	0.912119
O29	O	0.867040	-0.174565	0.263706
O30	O	1.117040	0.075435	0.513706
O31	O	1.367040	0.325435	0.763706
O32	O	1.617040	0.575435	1.013706
O33	O	1.045478	-0.367393	0.263738
O34	O	1.295478	-0.117393	0.513738
O35	O	1.545478	0.132607	0.763738
O36	O	1.795478	0.382607	1.013738
O37	O	0.944025	-0.174542	0.340701
O38	O	1.194025	0.075458	0.590701
O39	O	1.444025	0.325458	0.840701
O40	O	1.694025	0.575458	1.090701
O41	O	0.866953	-0.284302	0.162105
O42	O	1.116953	-0.034302	0.412105
O43	O	1.366953	0.215698	0.662105
O44	O	1.616953	0.465698	0.912105
O45	O	0.765412	-0.284315	0.263633
O46	O	1.015412	-0.034315	0.513633
O47	O	1.265412	0.215685	0.763633
O48	O	1.515412	0.465685	1.013633
O49	O	0.867001	-0.367417	0.442192
O50	O	1.117001	-0.117417	0.692192
O51	O	1.367001	0.132583	0.942192
O52	O	1.617001	0.382583	1.192192
O53	O	0.765395	-0.367448	0.340573
O54	O	1.015395	-0.117448	0.590573
O55	O	1.265395	0.132552	0.840573
O56	O	1.515395	0.382552	1.090573
O57	O	0.944003	-0.284261	0.442247
O58	O	1.194003	-0.034261	0.692247
O59	O	1.444003	0.215739	0.942247
O60	O	1.694003	0.465739	1.192247
O61	O	0.943850	-0.477143	0.263665
O62	O	1.193850	-0.227143	0.513665
O63	O	1.443850	0.022857	0.763665
O64	O	1.693850	0.272857	1.013665
O65	O	0.866914	-0.477153	0.340591
O66	O	1.116914	-0.227153	0.590591
O67	O	1.366914	0.022847	0.840591
O68	O	1.616914	0.272847	1.090591
C69	C	0.742670	-0.325887	0.302093
C70	C	0.992670	-0.075887	0.552093
C71	C	1.242670	0.174113	0.802093
C72	C	1.492670	0.424113	1.052093
C73	C	0.673029	-0.325918	0.302077
C74	C	0.923029	-0.075918	0.552077
C75	C	1.173029	0.174082	0.802077
C76	C	1.423029	0.424082	1.052077
C77	C	0.640323	-0.369263	0.342080
C78	C	0.890323	-0.119263	0.592080
C79	C	1.140323	0.130737	0.842080
C80	C	1.390323	0.380737	1.092080
C81	C	0.574888	-0.369246	0.342108
C82	C	0.824888	-0.119246	0.592108
C83	C	1.074888	0.130754	0.842108
C84	C	1.324888	0.380754	1.092108
C85	C	0.542160	-0.325892	0.302122
C86	C	0.792160	-0.075892	0.552122
C87	C	1.042160	0.174108	0.802122
C88	C	1.292160	0.424108	1.052122
C89	C	0.574874	-0.282539	0.262116
C90	C	0.824874	-0.032539	0.512116
C91	C	1.074874	0.217461	0.762116
C92	C	1.324874	0.467461	1.012116
C93	C	0.640308	-0.282553	0.262094
C94	C	0.890308	-0.032553	0.512094
C95	C	1.140308	0.217447	0.762094
C96	C	1.390308	0.467447	1.012094
C97	C	0.438435	-0.320440	0.245717
C98	C	0.688435	-0.070440	0.495717
C99	C	0.938435	0.179560	0.745717
C100	C	1.188435	0.429560	0.995717
C101	C	0.373002	-0.320431	0.245738
C102	C	0.623002	-0.070431	0.495738
C103	C	0.873002	0.179569	0.745738
C104	C	1.123002	0.429569	0.995738
C105	C	0.340340	-0.325848	0.302191
C106	C	0.590340	-0.075848	0.552191
C107	C	0.840340	0.174152	0.802191
C108	C	1.090340	0.424152	1.052191
C109	C	0.373118	-0.331287	0.358624
C110	C	0.623118	-0.081287	0.608624
C111	C	0.873118	0.168713	0.858624
C112	C	1.123118	0.418713	1.108624
C113	C	0.438552	-0.331301	0.358602
C114	C	0.688552	-0.081301	0.608602
C115	C	0.938552	0.168699	0.858602
C116	C	1.188552	0.418699	1.108602
C117	C	0.471208	-0.325873	0.302142
C118	C	0.721208	-0.075873	0.552142
C119	C	0.971208	0.174127	0.802142
C120	C	1.221208	0.424127	1.052142
C121	C	0.236682	-0.369177	0.342227
C122	C	0.486682	-0.119177	0.592227
C123	C	0.736682	0.130823	0.842227
C124	C	0.986682	0.380823	1.092227
C125	C	0.171245	-0.369156	0.342256
C126	C	0.421245	-0.119156	0.592256
C127	C	0.671245	0.130844	0.842256
C128	C	0.921245	0.380844	1.092256
C129	C	0.171232	-0.282452	0.262259
C130	C	0.421232	-0.032452	0.512259
C131	C	0.671232	0.217548	0.762259
C132	C	0.921232	0.467548	1.012259
C133	C	0.236668	-0.282470	0.262236
C134	C	0.486668	-0.032470	0.512236
C135	C	0.736668	0.217530	0.762236
C136	C	0.986668	0.467530	1.012236
C137	C	0.269388	-0.325836	0.302219
C138	C	0.519388	-0.075836	0.552219
C139	C	0.769388	0.174164	0.802219
C140	C	1.019388	0.424164	1.052219
C141	C	0.905387	-0.501707	0.302136
C142	C	1.155387	-0.251707	0.552136
C143	C	1.405387	-0.001707	0.802136
C144	C	1.655387	0.248293	1.052136
C145	C	0.905414	-0.576939	0.302144
C146	C	1.155414	-0.326939	0.552144
C147	C	1.405414	-0.076939	0.802144
C148	C	1.655414	0.173061	1.052144
C149	C	0.945514	-0.612255	0.262130
C150	C	1.195514	-0.362255	0.512130
C151	C	1.445514	-0.112255	0.762130
C152	C	1.695514	0.137745	1.012130
C153	C	0.945540	-0.682944	0.262144
C154	C	1.195540	-0.432944	0.512144
C155	C	1.445540	-0.182944	0.762144
C156	C	1.695540	0.067056	1.012144
C157	C	0.905464	-0.718315	0.302169
C158	C	1.155464	-0.468315	0.552169
C159	C	1.405464	-0.218315	0.802169
C160	C	1.655464	0.031685	1.052169
C161	C	0.865362	-0.682993	0.342187
C162	C	1.115362	-0.432993	0.592187
C163	C	1.365362	-0.182993	0.842187
C164	C	1.615362	0.067007	1.092187
C165	C	0.865339	-0.612306	0.342175
C166	C	1.115339	-0.362306	0.592175
C167	C	1.365339	-0.112306	0.842175
C168	C	1.615339	0.137694	1.092175
C169	C	0.865455	-0.968067	0.342233
C170	C	1.115455	-0.718067	0.592233
C171	C	1.365455	-0.468067	0.842233
C172	C	1.615455	-0.218067	1.092233
C173	C	0.865480	-1.038759	0.342240
C174	C	1.115480	-0.788759	0.592240
C175	C	1.365480	-0.538759	0.842240
C176	C	1.615480	-0.288759	1.092240
C177	C	0.945656	-1.038704	0.262202
C178	C	1.195656	-0.788704	0.512202
C179	C	1.445656	-0.538704	0.762202
C180	C	1.695656	-0.288704	1.012202
C181	C	0.945633	-0.968017	0.262191
C182	C	1.195633	-0.718017	0.512191
C183	C	1.445633	-0.468017	0.762191
C184	C	1.695633	-0.218017	1.012191
C185	C	0.905534	-0.932702	0.302210
C186	C	1.155534	-0.682702	0.552210
C187	C	1.405534	-0.432702	0.802210
C188	C	1.655534	-0.182702	1.052210
C189	C	0.905507	-0.856053	0.302196
C190	C	1.155507	-0.606053	0.552196
C191	C	1.405507	-0.356053	0.802196
C192	C	1.655507	-0.106053	1.052196
C193	C	0.905488	-0.794962	0.302181
C194	C	1.155488	-0.544962	0.552181
C195	C	1.405488	-0.294962	0.802181
C196	C	1.655488	-0.044962	1.052181
C197	C	1.068881	-0.325816	0.302239
C198	C	1.318881	-0.075816	0.552239
C199	C	1.568881	0.174184	0.802239
C200	C	1.818881	0.424184	1.052239
C201	C	1.138522	-0.325800	0.302271
C202	C	1.388522	-0.075800	0.552271
C203	C	1.638522	0.174200	0.802271
C204	C	1.888522	0.424200	1.052271
C205	C	0.905510	-0.325837	0.465589
C206	C	1.155510	-0.075837	0.715589
C207	C	1.405510	0.174163	0.965589
C208	C	1.655510	0.424163	1.215589
C209	C	0.905532	-0.325831	0.535231
C210	C	1.155532	-0.075831	0.785231
C211	C	1.405532	0.174169	1.035231
C212	C	1.655532	0.424169	1.285231
C213	C	0.905545	-0.149308	0.302210
C214	C	1.155545	0.100692	0.552210
C215	C	1.405545	0.350692	0.802210
C216	C	1.655545	0.600692	1.052210
C217	C	0.905583	-0.074076	0.302229
C218	C	1.155583	0.175924	0.552229
C219	C	1.405583	0.425924	0.802229
C220	C	1.655583	0.675924	1.052229
C221	C	0.905442	-0.325816	0.139378
C222	C	1.155442	-0.075816	0.389378
C223	C	1.405442	0.174184	0.639378
C224	C	1.655442	0.424184	0.889378
C225	C	0.905541	-0.325631	0.069738
C226	C	1.155541	-0.075631	0.319738
C227	C	1.405541	0.174369	0.569738
C228	C	1.655541	0.424369	0.819738
C229	C	0.945625	-0.282530	0.567974
C230	C	1.195625	-0.032530	0.817974
C231	C	1.445625	0.217470	1.067974
C232	C	1.695625	0.467470	1.317974
C233	C	0.945624	-0.282501	0.633409
C234	C	1.195624	-0.032501	0.883409
C235	C	1.445624	0.217499	1.133409
C236	C	1.695624	0.467499	1.383409
C237	C	0.905537	-0.325785	0.666099
C238	C	1.155537	-0.075785	0.916099
C239	C	1.405537	0.174215	1.166099
C240	C	1.655537	0.424215	1.416099
C241	C	0.865436	-0.369089	0.633348
C242	C	1.115436	-0.119089	0.883348
C243	C	1.365436	0.130911	1.133348
C244	C	1.615436	0.380911	1.383348
C245	C	0.865433	-0.369112	0.567914
C246	C	1.115433	-0.119112	0.817914
C247	C	1.365433	0.130888	1.067914
C248	C	1.615433	0.380888	1.317914
C249	C	0.900565	-0.386731	0.769762
C250	C	1.150565	-0.136731	1.019762
C251	C	1.400565	0.113269	1.269762
C252	C	1.650565	0.363269	1.519762
C253	C	0.900572	-0.386709	0.835195
C254	C	1.150572	-0.136709	1.085195
C255	C	1.400572	0.113291	1.335195
C256	C	1.650572	0.363291	1.585195
C257	C	0.905540	-0.325714	0.867920
C258	C	1.155540	-0.075714	1.117920
C259	C	1.405540	0.174286	1.367920
C260	C	1.655540	0.424286	1.617920
C261	C	0.910516	-0.264738	0.835204
C262	C	1.160516	-0.014738	1.085204
C263	C	1.410516	0.235262	1.335204
C264	C	1.660516	0.485262	1.585204
C265	C	0.910513	-0.264762	0.769770
C266	C	1.160513	-0.014762	1.019770
C267	C	1.410513	0.235238	1.269770
C268	C	1.660513	0.485238	1.519770
C269	C	0.905534	-0.325765	0.737051
C270	C	1.155534	-0.075765	0.987051
C271	C	1.405534	0.174235	1.237051
C272	C	1.655534	0.424235	1.487051
C273	C	0.945635	-0.282378	0.971615
C274	C	1.195635	-0.032378	1.221615
C275	C	1.445635	0.217622	1.471615
C276	C	1.695635	0.467622	1.721615
C277	C	0.945630	-0.282347	1.037052
C278	C	1.195630	-0.032347	1.287052
C279	C	1.445630	0.217653	1.537052
C280	C	1.695630	0.467653	1.787052
C281	C	0.865444	-0.368941	1.036990
C282	C	1.115444	-0.118941	1.286990
C283	C	1.365444	0.131059	1.536990
C284	C	1.615444	0.381059	1.786990
C285	C	0.865446	-0.368966	0.971555
C286	C	1.115446	-0.118966	1.221555
C287	C	1.365446	0.131034	1.471555
C288	C	1.615446	0.381034	1.721555
C289	C	0.905545	-0.325685	0.938871
C290	C	1.155545	-0.075685	1.188871
C291	C	1.405545	0.174315	1.438871
C292	C	1.655545	0.424315	1.688871
H293	H	0.666960	-0.404574	0.374638
H294	H	0.916960	-0.154574	0.624638
H295	H	1.166960	0.095426	0.874638
H296	H	1.416960	0.345426	1.124638
H297	H	0.346526	-0.335697	0.404594
H298	H	0.596526	-0.085697	0.654594
H299	H	0.846526	0.164303	0.904594
H300	H	1.096526	0.414303	1.154594
H301	H	0.666936	-0.247254	0.229519
H302	H	0.916936	0.002746	0.479519
H303	H	1.166936	0.252746	0.729519
H304	H	1.416936	0.502746	0.979519
Cl305	Cl	0.533763	-0.423741	0.392400
Cl306	Cl	0.783763	-0.173741	0.642400
Cl307	Cl	1.033763	0.076259	0.892400
Cl308	Cl	1.283763	0.326259	1.142400
H309	H	0.263324	-0.404485	0.374787
H310	H	0.513324	-0.154485	0.624787
H311	H	0.763324	0.095515	0.874787
H312	H	1.013324	0.345515	1.124787
Cl313	Cl	0.996040	-0.227965	0.930525
Cl314	Cl	1.246040	0.022035	1.180525
Cl315	Cl	1.496040	0.272035	1.430525
Cl316	Cl	1.746040	0.522035	1.680525
H317	H	0.978265	-0.939220	0.229597
H318	H	1.228265	-0.689220	0.479597
H319	H	1.478265	-0.439220	0.729597
H320	H	1.728265	-0.189220	0.979597
H321	H	0.978308	-1.067466	0.229618
H322	H	1.228308	-0.817466	0.479618
H323	H	1.478308	-0.567466	0.729618
H324	H	1.728308	-0.317466	0.979618
Cl325	Cl	0.916762	-0.188111	0.728644
Cl326	Cl	1.166762	0.061889	0.978644
Cl327	Cl	1.416762	0.311889	1.228644
Cl328	Cl	1.666762	0.561889	1.478644
Cl329	Cl	0.130129	-0.423647	0.392554
Cl330	Cl	0.380129	-0.173647	0.642554
Cl331	Cl	0.630129	0.076353	0.892554
Cl332	Cl	0.880129	0.326353	1.142554
Cl333	Cl	0.814984	-0.727460	0.392507
Cl334	Cl	1.064984	-0.477460	0.642507
Cl335	Cl	1.314984	-0.227460	0.892507
Cl336	Cl	1.564984	0.022540	1.142507
H337	H	0.144586	-0.247150	0.229705
H338	H	0.394586	0.002850	0.479705
H339	H	0.644586	0.252850	0.729705
H340	H	0.894586	0.502850	0.979705
Cl341	Cl	0.916765	-0.188053	0.876337
Cl342	Cl	1.166765	0.061947	1.126337
Cl343	Cl	1.416765	0.311947	1.376337
Cl344	Cl	1.666765	0.561947	1.626337
H345	H	0.465238	-0.335727	0.404552
H346	H	0.715238	-0.085727	0.654552
H347	H	0.965238	0.164273	0.904552
H348	H	1.215238	0.414273	1.154552
Cl349	Cl	0.995956	-0.727339	0.211841
Cl350	Cl	1.245956	-0.477339	0.461841
Cl351	Cl	1.495956	-0.227339	0.711841
Cl352	Cl	1.745956	0.022661	0.961841
H353	H	0.832845	-1.067556	0.374837
H354	H	1.082845	-0.817556	0.624837
H355	H	1.332845	-0.567556	0.874837
H356	H	1.582845	-0.317556	1.124837
Cl357	Cl	0.277785	-0.227979	0.211942
Cl358	Cl	0.527785	0.022021	0.461942
Cl359	Cl	0.777785	0.272021	0.711942
Cl360	Cl	1.027785	0.522021	0.961942
H361	H	0.978277	-0.247083	1.063710
H362	H	1.228277	0.002917	1.313710
H363	H	1.478277	0.252917	1.563710
H364	H	1.728277	0.502917	1.813710
H365	H	0.346319	-0.316007	0.199786
H366	H	0.596319	-0.066007	0.449786
H367	H	0.846319	0.183993	0.699786
H368	H	1.096319	0.433993	0.949786
H369	H	0.896524	-0.436359	0.861827
H370	H	1.146524	-0.186359	1.111827
H371	H	1.396524	0.063641	1.361827
H372	H	1.646524	0.313641	1.611827
H373	H	0.896351	-0.436388	0.743122
H374	H	1.146351	-0.186388	0.993122
H375	H	1.396351	0.063612	1.243122
H376	H	1.646351	0.313612	1.493122
H377	H	0.832802	-0.404230	0.944895
H378	H	1.082802	-0.154230	1.194895
H379	H	1.332802	0.095770	1.444895
H380	H	1.582802	0.345770	1.694895
Cl381	Cl	0.814928	-0.567908	0.392482
Cl382	Cl	1.064928	-0.317908	0.642482
Cl383	Cl	1.314928	-0.067908	0.892482
Cl384	Cl	1.564928	0.182092	1.142482
H385	H	0.465024	-0.316026	0.199743
H386	H	0.715024	-0.066026	0.449743
H387	H	0.965024	0.183974	0.699743
H388	H	1.215024	0.433974	0.949743
H389	H	0.548223	-0.247239	0.229561
H390	H	0.798223	0.002761	0.479561
H391	H	1.048223	0.252761	0.729561
H392	H	1.298223	0.502761	0.979561
H393	H	0.978146	-0.583461	0.229535
H394	H	1.228146	-0.333461	0.479535
H395	H	1.478146	-0.083461	0.729535
H396	H	1.728146	0.166539	0.979535
H397	H	0.832804	-0.939318	0.374817
H398	H	1.082804	-0.689318	0.624817
H399	H	1.332804	-0.439318	0.874817
H400	H	1.582804	-0.189318	1.124817
Cl401	Cl	0.815042	-0.423350	1.078080
Cl402	Cl	1.065042	-0.173350	1.328080
Cl403	Cl	1.315042	0.076650	1.578080
Cl404	Cl	1.565042	0.326650	1.828080
Cl405	Cl	0.996031	-0.228116	0.526889
Cl406	Cl	1.246031	0.021884	0.776889
Cl407	Cl	1.496031	0.271884	1.026889
Cl408	Cl	1.746031	0.521884	1.276889
H409	H	0.978271	-0.247237	0.660074
H410	H	1.228271	0.002763	0.910074
H411	H	1.478271	0.252763	1.160074
H412	H	1.728271	0.502763	1.410074
H413	H	0.832794	-0.404329	0.659969
H414	H	1.082794	-0.154329	0.909969
H415	H	1.332794	0.095671	1.159969
H416	H	1.582794	0.345671	1.409969
Cl417	Cl	0.815026	-0.423553	0.526749
Cl418	Cl	1.065026	-0.173553	0.776749
Cl419	Cl	1.315026	0.076447	1.026749
Cl420	Cl	1.565026	0.326447	1.276749
