data_functionalizedCrystal
_audit_creation_method	'MofGen! by Chris Wilmer'
_symmetry_space_group_name_H-M	'P1'
_symmetry_Int_Tables_number	1
_symmetry_cell_setting	triclinic
loop_
_symmetry_equiv_pos_as_xyz
  x,y,z
_cell_length_a	29.839131
_cell_length_b	18.215407
_cell_length_c	29.839125
_cell_angle_alpha	90.010341
_cell_angle_beta	89.982291
_cell_angle_gamma	89.962959
loop_
_atom_site_label
_atom_site_type_symbol
_atom_site_fract_x
_atom_site_fract_y
_atom_site_fract_z
Zn1	Zn	-0.178969	-1.124933	-0.253986
Zn2	Zn	0.071031	-0.874933	-0.003986
Zn3	Zn	0.321031	-0.624933	0.246014
Zn4	Zn	0.571031	-0.374933	0.496014
Zn5	Zn	-0.254081	-1.124822	-0.178855
Zn6	Zn	-0.004081	-0.874822	0.071145
Zn7	Zn	0.245919	-0.624822	0.321145
Zn8	Zn	0.495919	-0.374822	0.571145
Zn9	Zn	-0.178960	-1.001882	-0.178870
Zn10	Zn	0.071040	-0.751882	0.071130
Zn11	Zn	0.321040	-0.501882	0.321130
Zn12	Zn	0.571040	-0.251882	0.571130
Zn13	Zn	-0.254067	-1.001796	-0.253959
Zn14	Zn	-0.004067	-0.751796	-0.003959
Zn15	Zn	0.245933	-0.501796	0.246041
Zn16	Zn	0.495933	-0.251796	0.496041
O17	O	-0.216519	-1.063358	-0.216418
O18	O	0.033481	-0.813358	0.033582
O19	O	0.283481	-0.563358	0.283582
O20	O	0.533481	-0.313358	0.533582
O21	O	-0.188942	-1.227903	-0.244024
O22	O	0.061058	-0.977903	0.005976
O23	O	0.311058	-0.727903	0.255976
O24	O	0.561058	-0.477903	0.505976
O25	O	-0.244118	-1.108503	-0.115990
O26	O	0.005882	-0.858503	0.134010
O27	O	0.255882	-0.608503	0.384010
O28	O	0.505882	-0.358503	0.634010
O29	O	-0.116094	-1.018287	-0.188852
O30	O	0.133906	-0.768287	0.061148
O31	O	0.383906	-0.518287	0.311148
O32	O	0.633906	-0.268287	0.561148
O33	O	-0.244127	-1.227821	-0.188826
O34	O	0.005873	-0.977821	0.061174
O35	O	0.255873	-0.727821	0.311174
O36	O	0.505873	-0.477821	0.561174
O37	O	-0.116101	-1.108693	-0.244039
O38	O	0.133899	-0.858693	0.005961
O39	O	0.383899	-0.608693	0.255961
O40	O	0.633899	-0.358693	0.505961
O41	O	-0.188927	-1.018179	-0.116001
O42	O	0.061073	-0.768179	0.133999
O43	O	0.311073	-0.518179	0.383999
O44	O	0.561073	-0.268179	0.633999
O45	O	-0.188913	-0.898886	-0.188826
O46	O	0.061087	-0.648886	0.061174
O47	O	0.311087	-0.398886	0.311174
O48	O	0.561087	-0.148886	0.561174
O49	O	-0.244103	-1.018141	-0.316830
O50	O	0.005897	-0.768141	-0.066830
O51	O	0.255897	-0.518141	0.183170
O52	O	0.505897	-0.268141	0.433170
O53	O	-0.244094	-0.898823	-0.243994
O54	O	0.005906	-0.648823	0.006006
O55	O	0.255906	-0.398823	0.256006
O56	O	0.505906	-0.148823	0.506006
O57	O	-0.188929	-1.108610	-0.316849
O58	O	0.061071	-0.858610	-0.066849
O59	O	0.311071	-0.608610	0.183151
O60	O	0.561071	-0.358610	0.433151
O61	O	-0.316946	-1.108420	-0.188801
O62	O	-0.066946	-0.858420	0.061199
O63	O	0.183054	-0.608420	0.311199
O64	O	0.433054	-0.358420	0.561199
O65	O	-0.316936	-1.018034	-0.243979
O66	O	-0.066936	-0.768034	0.006021
O67	O	0.183064	-0.518034	0.256021
O68	O	0.433064	-0.268034	0.506021
C69	C	-0.216502	-0.872152	-0.216409
C70	C	0.033498	-0.622152	0.033591
C71	C	0.283498	-0.372152	0.283591
C72	C	0.533498	-0.122152	0.533591
C73	C	-0.216505	-0.790353	-0.216416
C74	C	0.033495	-0.540353	0.033584
C75	C	0.283495	-0.290353	0.283584
C76	C	0.533495	-0.040353	0.533584
C77	C	-0.187826	-0.602201	-0.245202
C78	C	0.062174	-0.352201	0.004798
C79	C	0.312174	-0.102201	0.254798
C80	C	0.562174	0.147799	0.504798
C81	C	-0.187828	-0.525342	-0.245203
C82	C	0.062172	-0.275342	0.004797
C83	C	0.312172	-0.025342	0.254797
C84	C	0.562172	0.224658	0.504797
C85	C	-0.245206	-0.525268	-0.187637
C86	C	0.004794	-0.275268	0.062363
C87	C	0.254794	-0.025268	0.312363
C88	C	0.504794	0.224732	0.562363
C89	C	-0.245201	-0.602125	-0.187634
C90	C	0.004799	-0.352125	0.062366
C91	C	0.254799	-0.102125	0.312366
C92	C	0.504799	0.147875	0.562366
C93	C	-0.216511	-0.640590	-0.216419
C94	C	0.033489	-0.390590	0.033581
C95	C	0.283489	-0.140590	0.283581
C96	C	0.533489	0.109410	0.533581
C97	C	-0.216519	-0.486874	-0.216423
C98	C	0.033481	-0.236874	0.033577
C99	C	0.283481	0.013126	0.283577
C100	C	0.533481	0.263126	0.533577
C101	C	-0.216521	-0.403540	-0.216424
C102	C	0.033479	-0.153540	0.033576
C103	C	0.283479	0.096460	0.283576
C104	C	0.533479	0.346460	0.533576
C105	C	-0.216508	-0.723929	-0.216417
C106	C	0.033492	-0.473929	0.033583
C107	C	0.283492	-0.223929	0.283583
C108	C	0.533492	0.026071	0.533583
C109	C	-0.333242	-1.063225	-0.216395
C110	C	-0.083242	-0.813225	0.033605
C111	C	0.166758	-0.563225	0.283605
C112	C	0.416758	-0.313225	0.533605
C113	C	-0.383176	-1.063236	-0.216401
C114	C	-0.133176	-0.813236	0.033599
C115	C	0.116824	-0.563236	0.283599
C116	C	0.366824	-0.313236	0.533599
C117	C	-0.692812	-1.110508	-0.187728
C118	C	-0.442812	-0.860508	0.062272
C119	C	-0.192812	-0.610508	0.312272
C120	C	0.057188	-0.360508	0.562272
C121	C	-0.880485	-1.110599	-0.187746
C122	C	-0.630485	-0.860599	0.062254
C123	C	-0.380485	-0.610599	0.312254
C124	C	-0.130485	-0.360599	0.562254
O125	O	-0.904744	-1.150686	-0.163350
O126	O	-0.654744	-0.900686	0.086650
O127	O	-0.404744	-0.650686	0.336650
O128	O	-0.154744	-0.400686	0.586650
N129	N	-0.903961	-1.063511	-0.216451
N130	N	-0.653961	-0.813511	0.033549
N131	N	-0.403961	-0.563511	0.283549
N132	N	-0.153961	-0.313511	0.533549
C133	C	-0.880516	-1.016400	-0.245157
C134	C	-0.630516	-0.766400	0.004843
C135	C	-0.380516	-0.516400	0.254843
C136	C	-0.130516	-0.266400	0.504843
O137	O	-0.904790	-0.976356	-0.269577
O138	O	-0.654790	-0.726356	-0.019577
O139	O	-0.404790	-0.476356	0.230423
O140	O	-0.154790	-0.226356	0.480423
C141	C	-0.692844	-1.016314	-0.245142
C142	C	-0.442844	-0.766314	0.004858
C143	C	-0.192844	-0.516314	0.254858
C144	C	0.057156	-0.266314	0.504858
C145	C	-0.669370	-1.063400	-0.216431
C146	C	-0.419370	-0.813400	0.033569
C147	C	-0.169370	-0.563400	0.283569
C148	C	0.080630	-0.313400	0.533569
C149	C	-0.669339	-1.157591	-0.159020
C150	C	-0.419339	-0.907591	0.090980
C151	C	-0.169339	-0.657591	0.340980
C152	C	0.080661	-0.407591	0.590980
C153	C	-0.622423	-1.157565	-0.159014
C154	C	-0.372423	-0.907565	0.090986
C155	C	-0.122423	-0.657565	0.340986
C156	C	0.127577	-0.407565	0.590986
C157	C	-0.598981	-1.110456	-0.187717
C158	C	-0.348981	-0.860456	0.062283
C159	C	-0.098981	-0.610456	0.312283
C160	C	0.151019	-0.360456	0.562283
C161	C	-0.622455	-1.063374	-0.216425
C162	C	-0.372455	-0.813374	0.033575
C163	C	-0.122455	-0.563374	0.283575
C164	C	0.127545	-0.313374	0.533575
C165	C	-0.669399	-0.969207	-0.273849
C166	C	-0.419399	-0.719207	-0.023849
C167	C	-0.169399	-0.469207	0.226151
C168	C	0.080601	-0.219207	0.476151
C169	C	-0.622478	-0.969191	-0.273844
C170	C	-0.372478	-0.719191	-0.023844
C171	C	-0.122478	-0.469191	0.226156
C172	C	0.127522	-0.219191	0.476156
C173	C	-0.599005	-1.016277	-0.245133
C174	C	-0.349005	-0.766277	0.004867
C175	C	-0.099005	-0.516277	0.254867
C176	C	0.150995	-0.266277	0.504867
C177	C	-0.552097	-1.016239	-0.245122
C178	C	-0.302097	-0.766239	0.004878
C179	C	-0.052097	-0.516239	0.254878
C180	C	0.197903	-0.266239	0.504878
N181	N	-0.528622	-1.063327	-0.216416
N182	N	-0.278622	-0.813327	0.033584
N183	N	-0.028622	-0.563327	0.283584
N184	N	0.221378	-0.313327	0.533584
C185	C	-0.552063	-1.110436	-0.187713
C186	C	-0.302063	-0.860436	0.062287
C187	C	-0.052063	-0.610436	0.312287
C188	C	0.197937	-0.360436	0.562287
C189	C	-0.979046	-1.016448	-0.245163
C190	C	-0.729046	-0.766448	0.004837
C191	C	-0.479046	-0.516448	0.254837
C192	C	-0.229046	-0.266448	0.504837
C193	C	-1.025964	-1.016469	-0.245166
C194	C	-0.775964	-0.766469	0.004834
C195	C	-0.525964	-0.516469	0.254834
C196	C	-0.275964	-0.266469	0.504834
C197	C	-1.025930	-1.110669	-0.187755
C198	C	-0.775930	-0.860669	0.062245
C199	C	-0.525930	-0.610669	0.312245
C200	C	-0.275930	-0.360669	0.562245
C201	C	-0.979012	-1.110644	-0.187750
C202	C	-0.729012	-0.860644	0.062250
C203	C	-0.479012	-0.610644	0.312250
C204	C	-0.229012	-0.360644	0.562250
C205	C	-0.955571	-1.063536	-0.216457
C206	C	-0.705571	-0.813536	0.033543
C207	C	-0.455571	-0.563536	0.283543
C208	C	-0.205571	-0.313536	0.533543
C209	C	-0.453538	-1.110377	-0.187703
C210	C	-0.203538	-0.860377	0.062297
C211	C	0.046462	-0.610377	0.312297
C212	C	0.296462	-0.360377	0.562297
C213	C	-0.406618	-1.110345	-0.187698
C214	C	-0.156618	-0.860345	0.062302
C215	C	0.093382	-0.610345	0.312302
C216	C	0.343382	-0.360345	0.562302
C217	C	-0.406656	-1.016148	-0.245111
C218	C	-0.156656	-0.766148	0.004889
C219	C	0.093344	-0.516148	0.254889
C220	C	0.343344	-0.266148	0.504889
C221	C	-0.453572	-1.016177	-0.245114
C222	C	-0.203572	-0.766177	0.004886
C223	C	0.046428	-0.516177	0.254886
C224	C	0.296428	-0.266177	0.504886
C225	C	-0.477011	-1.063298	-0.216408
C226	C	-0.227011	-0.813298	0.033592
C227	C	0.022989	-0.563298	0.283592
C228	C	0.272989	-0.313298	0.533592
O229	O	-0.527810	-0.976178	-0.269508
O230	O	-0.277810	-0.726178	-0.019508
O231	O	-0.027810	-0.476178	0.230492
O232	O	0.222190	-0.226178	0.480492
O233	O	-0.527781	-1.150485	-0.163304
O234	O	-0.277781	-0.900485	0.086696
O235	O	-0.027781	-0.650485	0.336696
O236	O	0.222219	-0.400485	0.586696
C237	C	-0.739728	-1.110534	-0.187734
C238	C	-0.489728	-0.860534	0.062266
C239	C	-0.239728	-0.610534	0.312266
C240	C	0.010272	-0.360534	0.562266
C241	C	-0.763201	-1.063452	-0.216442
C242	C	-0.513201	-0.813452	0.033558
C243	C	-0.263201	-0.563452	0.283558
C244	C	-0.013201	-0.313452	0.533558
C245	C	-0.739759	-1.016343	-0.245145
C246	C	-0.489759	-0.766343	0.004855
C247	C	-0.239759	-0.516343	0.254855
C248	C	0.010241	-0.266343	0.504855
C249	C	-0.810119	-1.063472	-0.216446
C250	C	-0.560119	-0.813472	0.033554
C251	C	-0.310119	-0.563472	0.283554
C252	C	-0.060119	-0.313472	0.533554
C253	C	-0.833561	-1.110581	-0.187743
C254	C	-0.583561	-0.860581	0.062257
C255	C	-0.333561	-0.610581	0.312257
C256	C	-0.083561	-0.360581	0.562257
C257	C	-0.810085	-1.157669	-0.159037
C258	C	-0.560085	-0.907669	0.090963
C259	C	-0.310085	-0.657669	0.340963
C260	C	-0.060085	-0.407669	0.590963
C261	C	-0.763170	-1.157643	-0.159032
C262	C	-0.513170	-0.907643	0.090968
C263	C	-0.263170	-0.657643	0.340968
C264	C	-0.013170	-0.407643	0.590968
C265	C	-0.763235	-0.969255	-0.273851
C266	C	-0.513235	-0.719255	-0.023851
C267	C	-0.263235	-0.469255	0.226149
C268	C	-0.013235	-0.219255	0.476149
C269	C	-0.810151	-0.969284	-0.273854
C270	C	-0.560151	-0.719284	-0.023854
C271	C	-0.310151	-0.469284	0.226146
C272	C	-0.060151	-0.219284	0.476146
C273	C	-0.833593	-1.016393	-0.245151
C274	C	-0.583593	-0.766393	0.004849
C275	C	-0.333593	-0.516393	0.254849
C276	C	-0.083593	-0.266393	0.504849
C277	C	-0.099341	-1.063512	-0.216450
C278	C	0.150659	-0.813512	0.033550
C279	C	0.400659	-0.563512	0.283550
C280	C	0.650659	-0.313512	0.533550
C281	C	-0.049406	-1.063577	-0.216464
C282	C	0.200594	-0.813577	0.033536
C283	C	0.450594	-0.563577	0.283536
C284	C	0.700594	-0.313577	0.533536
C285	C	-0.216515	-1.063378	-0.333596
C286	C	0.033485	-0.813378	-0.083596
C287	C	0.283485	-0.563378	0.166404
C288	C	0.533485	-0.313378	0.416404
C289	C	-0.216513	-1.063387	-0.383530
C290	C	0.033487	-0.813387	-0.133530
C291	C	0.283487	-0.563387	0.116470
C292	C	0.533487	-0.313387	0.366470
C293	C	-0.216532	-0.255311	-0.216426
C294	C	0.033468	-0.005311	0.033574
C295	C	0.283468	0.244689	0.283574
C296	C	0.533468	0.494689	0.533574
C297	C	-0.216525	-0.337110	-0.216426
C298	C	0.033475	-0.087110	0.033574
C299	C	0.283475	0.162890	0.283574
C300	C	0.533475	0.412890	0.533574
C301	C	-0.187709	-1.110543	-0.693187
C302	C	0.062291	-0.860543	-0.443187
C303	C	0.312291	-0.610543	-0.193187
C304	C	0.562291	-0.360543	0.056813
C305	C	-0.187671	-1.110580	-0.880860
C306	C	0.062329	-0.860580	-0.630860
C307	C	0.312329	-0.610580	-0.380860
C308	C	0.562329	-0.360580	-0.130860
O309	O	-0.163223	-1.150619	-0.905136
O310	O	0.086777	-0.900619	-0.655136
O311	O	0.336777	-0.650619	-0.405136
O312	O	0.586777	-0.400619	-0.155136
N313	N	-0.216393	-1.063484	-0.904316
N314	N	0.033607	-0.813484	-0.654316
N315	N	0.283607	-0.563484	-0.404316
N316	N	0.533607	-0.313484	-0.154316
C317	C	-0.245125	-1.016373	-0.880850
C318	C	0.004875	-0.766373	-0.630850
C319	C	0.254875	-0.516373	-0.380850
C320	C	0.504875	-0.266373	-0.130850
O321	O	-0.269551	-0.976311	-0.905107
O322	O	-0.019551	-0.726311	-0.655107
O323	O	0.230449	-0.476311	-0.405107
O324	O	0.480449	-0.226311	-0.155107
C325	C	-0.245161	-1.016334	-0.693178
C326	C	0.004839	-0.766334	-0.443178
C327	C	0.254839	-0.516334	-0.193178
C328	C	0.504839	-0.266334	0.056822
C329	C	-0.216440	-1.063437	-0.669725
C330	C	0.033560	-0.813437	-0.419725
C331	C	0.283560	-0.563437	-0.169725
C332	C	0.533560	-0.313437	0.080275
C333	C	-0.158990	-1.157642	-0.669734
C334	C	0.091010	-0.907642	-0.419734
C335	C	0.341010	-0.657642	-0.169734
C336	C	0.591010	-0.407642	0.080266
C337	C	-0.159001	-1.157636	-0.622818
C338	C	0.090999	-0.907636	-0.372818
C339	C	0.340999	-0.657636	-0.122818
C340	C	0.590999	-0.407636	0.127182
C341	C	-0.187732	-1.110530	-0.599356
C342	C	0.062268	-0.860530	-0.349356
C343	C	0.312268	-0.610530	-0.099356
C344	C	0.562268	-0.360530	0.150644
C345	C	-0.216451	-1.063430	-0.622809
C346	C	0.033549	-0.813430	-0.372809
C347	C	0.283549	-0.563430	-0.122809
C348	C	0.533549	-0.313430	0.127191
C349	C	-0.273890	-0.969219	-0.669713
C350	C	-0.023890	-0.719219	-0.419713
C351	C	0.226110	-0.469219	-0.169713
C352	C	0.476110	-0.219219	0.080287
C353	C	-0.273896	-0.969212	-0.622792
C354	C	-0.023896	-0.719212	-0.372792
C355	C	0.226104	-0.469212	-0.122792
C356	C	0.476104	-0.219212	0.127208
C357	C	-0.245175	-1.016316	-0.599339
C358	C	0.004825	-0.766316	-0.349339
C359	C	0.254825	-0.516316	-0.099339
C360	C	0.504825	-0.266316	0.150661
C361	C	-0.245193	-1.016318	-0.552431
C362	C	0.004807	-0.766318	-0.302431
C363	C	0.254807	-0.516318	-0.052431
C364	C	0.504807	-0.266318	0.197569
N365	N	-0.216471	-1.063413	-0.528976
N366	N	0.033529	-0.813413	-0.278976
N367	N	0.283529	-0.563413	-0.028976
N368	N	0.533529	-0.313413	0.221024
C369	C	-0.187740	-1.110519	-0.552438
C370	C	0.062260	-0.860519	-0.302438
C371	C	0.312260	-0.610519	-0.052438
C372	C	0.562260	-0.360519	0.197562
C373	C	-0.245105	-1.016398	-0.979381
C374	C	0.004895	-0.766398	-0.729381
C375	C	0.254895	-0.516398	-0.479381
C376	C	0.504895	-0.266398	-0.229381
C377	C	-0.245097	-1.016409	-1.026299
C378	C	0.004903	-0.766409	-0.776299
C379	C	0.254903	-0.516409	-0.526299
C380	C	0.504903	-0.266409	-0.276299
C381	C	-0.187641	-1.110615	-1.026305
C382	C	0.062359	-0.860615	-0.776305
C383	C	0.312359	-0.610615	-0.526305
C384	C	0.562359	-0.360615	-0.276305
C385	C	-0.187652	-1.110607	-0.979387
C386	C	0.062348	-0.860607	-0.729387
C387	C	0.312348	-0.610607	-0.479387
C388	C	0.562348	-0.360607	-0.229387
C389	C	-0.216382	-1.063494	-0.955925
C390	C	0.033618	-0.813494	-0.705925
C391	C	0.283618	-0.563494	-0.455925
C392	C	0.533618	-0.313494	-0.205925
C393	C	-0.187767	-1.110502	-0.453912
C394	C	0.062233	-0.860502	-0.203912
C395	C	0.312233	-0.610502	0.046088
C396	C	0.562233	-0.360502	0.296088
C397	C	-0.187783	-1.110493	-0.406993
C398	C	0.062217	-0.860493	-0.156993
C399	C	0.312217	-0.610493	0.093007
C400	C	0.562217	-0.360493	0.343007
C401	C	-0.245236	-1.016285	-0.406990
C402	C	0.004764	-0.766285	-0.156990
C403	C	0.254764	-0.516285	0.093010
C404	C	0.504764	-0.266285	0.343010
C405	C	-0.245222	-1.016296	-0.453906
C406	C	0.004778	-0.766296	-0.203906
C407	C	0.254778	-0.516296	0.046094
C408	C	0.504778	-0.266296	0.296094
C409	C	-0.216484	-1.063407	-0.477366
C410	C	0.033516	-0.813407	-0.227366
C411	C	0.283516	-0.563407	0.022634
C412	C	0.533516	-0.313407	0.272634
O413	O	-0.269625	-0.976293	-0.528127
O414	O	-0.019625	-0.726293	-0.278127
O415	O	0.230375	-0.476293	-0.028127
O416	O	0.480375	-0.226293	0.221873
O417	O	-0.163311	-1.150563	-0.528174
O418	O	0.086689	-0.900563	-0.278174
O419	O	0.336689	-0.650563	-0.028174
O420	O	0.586689	-0.400563	0.221826
C421	C	-0.187697	-1.110550	-0.740103
C422	C	0.062303	-0.860550	-0.490103
C423	C	0.312303	-0.610550	-0.240103
C424	C	0.562303	-0.360550	0.009897
C425	C	-0.216416	-1.063451	-0.763556
C426	C	0.033584	-0.813451	-0.513556
C427	C	0.283584	-0.563451	-0.263556
C428	C	0.533584	-0.313451	-0.013556
C429	C	-0.245147	-1.016345	-0.740093
C430	C	0.004853	-0.766345	-0.490093
C431	C	0.254853	-0.516345	-0.240093
C432	C	0.504853	-0.266345	0.009907
C433	C	-0.216408	-1.063461	-0.810474
C434	C	0.033592	-0.813461	-0.560474
C435	C	0.283592	-0.563461	-0.310474
C436	C	0.533592	-0.313461	-0.060474
C437	C	-0.187677	-1.110567	-0.833936
C438	C	0.062323	-0.860567	-0.583936
C439	C	0.312323	-0.610567	-0.333936
C440	C	0.562323	-0.360567	-0.083936
C441	C	-0.158955	-1.157663	-0.810480
C442	C	0.091045	-0.907663	-0.560480
C443	C	0.341045	-0.657663	-0.310480
C444	C	0.591045	-0.407663	-0.060480
C445	C	-0.158967	-1.157656	-0.763565
C446	C	0.091033	-0.907656	-0.513565
C447	C	0.341033	-0.657656	-0.263565
C448	C	0.591033	-0.407656	-0.013565
C449	C	-0.273870	-0.969249	-0.763549
C450	C	-0.023870	-0.719249	-0.513549
C451	C	0.226130	-0.469249	-0.263549
C452	C	0.476130	-0.219249	-0.013549
C453	C	-0.273856	-0.969261	-0.810464
C454	C	-0.023856	-0.719261	-0.560464
C455	C	0.226144	-0.469261	-0.310464
C456	C	0.476144	-0.219261	-0.060464
C457	C	-0.245125	-1.016367	-0.833927
C458	C	0.004875	-0.766367	-0.583927
C459	C	0.254875	-0.516367	-0.333927
C460	C	0.504875	-0.266367	-0.083927
C461	C	-0.216491	-1.063381	-0.099695
C462	C	0.033509	-0.813381	0.150305
C463	C	0.283509	-0.563381	0.400305
C464	C	0.533509	-0.313381	0.650305
C465	C	-0.216366	-1.063515	-0.049761
C466	C	0.033634	-0.813515	0.200239
C467	C	0.283634	-0.563515	0.450239
C468	C	0.533634	-0.313515	0.700239
H469	H	-0.387507	-1.148688	-0.164317
H470	H	-0.137507	-0.898688	0.085683
H471	H	0.112493	-0.648688	0.335683
H472	H	0.362493	-0.398688	0.585683
H473	H	-0.164394	-1.148853	-0.387899
H474	H	0.085606	-0.898853	-0.137899
H475	H	0.335606	-0.648853	0.112101
H476	H	0.585606	-0.398853	0.362101
H477	H	-0.268503	-0.978033	-0.960283
H478	H	-0.018503	-0.728033	-0.710283
H479	H	0.231497	-0.478033	-0.460283
H480	H	0.481497	-0.228033	-0.210283
H481	H	-1.045072	-0.978120	-0.268541
H482	H	-0.795072	-0.728120	-0.018541
H483	H	-0.545072	-0.478120	0.231459
H484	H	-0.295072	-0.228120	0.481459
H485	H	-0.297278	-0.930862	-0.688801
H486	H	-0.047278	-0.680862	-0.438801
H487	H	0.202722	-0.430862	-0.188801
H488	H	0.452722	-0.180862	0.061199
H489	H	-0.472685	-0.977838	-0.268494
H490	H	-0.222685	-0.727838	-0.018494
H491	H	0.027315	-0.477838	0.231506
H492	H	0.277315	-0.227838	0.481506
H493	H	-0.268560	-0.633382	-0.164193
H494	H	-0.018560	-0.383382	0.085807
H495	H	0.231440	-0.133382	0.335807
H496	H	0.481440	0.116618	0.585807
H497	H	-0.387562	-0.977790	-0.268479
H498	H	-0.137562	-0.727790	-0.018479
H499	H	0.112438	-0.477790	0.231521
H500	H	0.362438	-0.227790	0.481521
H501	H	-0.164469	-0.494089	-0.268640
H502	H	0.085531	-0.244089	-0.018640
H503	H	0.335531	0.005911	0.231360
H504	H	0.585531	0.255911	0.481360
H505	H	-0.135563	-1.196020	-0.829592
H506	H	0.114437	-0.946020	-0.579592
H507	H	0.364437	-0.696020	-0.329592
H508	H	0.614437	-0.446020	-0.079592
H509	H	-0.297248	-0.930904	-0.829556
H510	H	-0.047248	-0.680904	-0.579556
H511	H	0.202752	-0.430904	-0.329556
H512	H	0.452752	-0.180904	-0.079556
H513	H	-0.297287	-0.930838	-0.603692
H514	H	-0.047287	-0.680838	-0.353692
H515	H	0.202713	-0.430838	-0.103692
H516	H	0.452713	-0.180838	0.146308
H517	H	-0.268613	-0.977947	-0.473002
H518	H	-0.018613	-0.727947	-0.223002
H519	H	0.231387	-0.477947	0.026998
H520	H	0.481387	-0.227947	0.276998
H521	H	-0.472617	-1.148749	-0.164329
H522	H	-0.222617	-0.898749	0.085671
H523	H	0.027383	-0.648749	0.335671
H524	H	0.277383	-0.398749	0.585671
H525	H	-0.164248	-1.148971	-1.045416
H526	H	0.085752	-0.898971	-0.795416
H527	H	0.335752	-0.648971	-0.545416
H528	H	0.585752	-0.398971	-0.295416
H529	H	-0.268489	-0.978061	-1.045390
H530	H	-0.018489	-0.728061	-0.795390
H531	H	0.231511	-0.478061	-0.545390
H532	H	0.481511	-0.228061	-0.295390
H533	H	-0.268564	-0.493941	-0.164202
H534	H	-0.018564	-0.243941	0.085798
H535	H	0.231436	0.006059	0.335798
H536	H	0.481436	0.256059	0.585798
H537	H	-0.164464	-0.633516	-0.268639
H538	H	0.085536	-0.383516	-0.018639
H539	H	0.335536	-0.133516	0.231361
H540	H	0.585536	0.116484	0.481361
H541	H	-0.603314	-1.195908	-0.135637
H542	H	-0.353314	-0.945908	0.114363
H543	H	-0.103314	-0.695908	0.364363
H544	H	0.146686	-0.445908	0.614363
H545	H	-0.744061	-1.195985	-0.135653
H546	H	-0.494061	-0.945985	0.114347
H547	H	-0.244061	-0.695985	0.364347
H548	H	0.005939	-0.445985	0.614347
H549	H	-0.688420	-1.195956	-0.135647
H550	H	-0.438420	-0.945956	0.114353
H551	H	-0.188420	-0.695956	0.364353
H552	H	0.061580	-0.445956	0.614353
H553	H	-0.959964	-0.978085	-0.268540
H554	H	-0.709964	-0.728085	-0.018540
H555	H	-0.459964	-0.478085	0.231460
H556	H	-0.209964	-0.228085	0.481460
H557	H	-0.164365	-1.148861	-0.473008
H558	H	0.085635	-0.898861	-0.223008
H559	H	0.335635	-0.648861	0.026992
H560	H	0.585635	-0.398861	0.276992
H561	H	-1.045025	-1.149027	-0.164384
H562	H	-0.795025	-0.899027	0.085616
H563	H	-0.545025	-0.649027	0.335616
H564	H	-0.295025	-0.399027	0.585616
H565	H	-0.959902	-1.148985	-0.164371
H566	H	-0.709902	-0.898985	0.085629
H567	H	-0.459902	-0.648985	0.335629
H568	H	-0.209902	-0.398985	0.585629
H569	H	-0.135613	-1.195991	-0.603727
H570	H	0.114387	-0.945991	-0.353727
H571	H	0.364387	-0.695991	-0.103727
H572	H	0.614387	-0.445991	0.146273
H573	H	-0.268629	-0.977934	-0.387879
H574	H	-0.018629	-0.727934	-0.137879
H575	H	0.231371	-0.477934	0.112121
H576	H	0.481371	-0.227934	0.362121
H577	H	-0.688503	-0.930861	-0.297227
H578	H	-0.438503	-0.680861	-0.047227
H579	H	-0.188503	-0.430861	0.202773
H580	H	0.061497	-0.180861	0.452773
H581	H	-0.744152	-0.930894	-0.297224
H582	H	-0.494152	-0.680894	-0.047224
H583	H	-0.244152	-0.430894	0.202776
H584	H	0.005848	-0.180894	0.452776
H585	H	-0.829180	-1.196024	-0.135666
H586	H	-0.579180	-0.946024	0.114334
H587	H	-0.329180	-0.696024	0.364334
H588	H	-0.079180	-0.446024	0.614334
H589	H	-0.603395	-0.930831	-0.297222
H590	H	-0.353395	-0.680831	-0.047222
H591	H	-0.103395	-0.430831	0.202778
H592	H	0.146605	-0.180831	0.452778
H593	H	-0.135591	-1.196002	-0.688832
H594	H	0.114409	-0.946002	-0.438832
H595	H	0.364409	-0.696002	-0.188832
H596	H	0.614409	-0.446002	0.061168
H597	H	-0.164264	-1.148962	-0.960294
H598	H	0.085736	-0.898962	-0.710294
H599	H	0.335736	-0.648962	-0.460294
H600	H	0.585736	-0.398962	-0.210294
H601	H	-0.135579	-1.196012	-0.744473
H602	H	0.114421	-0.946012	-0.494473
H603	H	0.364421	-0.696012	-0.244473
H604	H	0.614421	-0.446012	0.005527
H605	H	-0.297267	-0.930890	-0.744451
H606	H	-0.047267	-0.680890	-0.494451
H607	H	0.202733	-0.430890	-0.244451
H608	H	0.452733	-0.180890	0.005549
H609	H	-0.829259	-0.930935	-0.297233
H610	H	-0.579259	-0.680935	-0.047233
H611	H	-0.329259	-0.430935	0.202767
H612	H	-0.079259	-0.180935	0.452767
