data_functionalizedCrystal
_audit_creation_method	'MofGen! by Chris Wilmer'
_symmetry_space_group_name_H-M	'P1'
_symmetry_Int_Tables_number	1
_symmetry_cell_setting	triclinic
loop_
_symmetry_equiv_pos_as_xyz
  x,y,z
_cell_length_a	13.635800
_cell_length_b	10.943867
_cell_length_c	11.102300
_cell_angle_alpha	88.139684
_cell_angle_beta	108.605850
_cell_angle_gamma	71.156739
loop_
_atom_site_label
_atom_site_type_symbol
_atom_site_fract_x
_atom_site_fract_y
_atom_site_fract_z
V1	V	2.056388	-0.178633	0.396242
O2	O	2.035251	0.008584	0.388714
O3	O	2.045389	-0.354199	0.393518
O4	O	2.044769	-0.175885	0.569063
O5	O	2.035876	-0.170964	0.211953
V6	V	2.294861	-0.156240	0.374201
O7	O	2.194230	-0.227754	0.444590
O8	O	2.382118	-0.107118	0.325853
O9	O	2.194257	0.019327	0.376926
O10	O	2.374696	-0.343457	0.381730
O11	O	2.374072	-0.163908	0.558490
O12	O	2.194877	-0.158987	0.201380
V13	V	2.556388	-0.178633	0.396242
O14	O	2.535251	0.008584	0.388714
O15	O	2.545389	-0.354199	0.393518
O16	O	2.544769	-0.175885	0.569063
O17	O	2.535876	-0.170964	0.211953
V18	V	2.794861	-0.156240	0.374201
O19	O	2.694230	-0.227754	0.444590
O20	O	2.882118	-0.107118	0.325853
O21	O	2.694257	0.019327	0.376926
O22	O	2.874696	-0.343457	0.381730
O23	O	2.874072	-0.163908	0.558490
O24	O	2.694877	-0.158987	0.201380
C25	C	1.970694	-0.396999	0.387264
C26	C	2.002428	-0.540526	0.386188
C27	C	2.117128	-0.631410	0.392173
C28	C	2.115328	-0.730526	0.493488
C29	C	2.060769	-0.697154	0.282982
C30	C	2.000231	-0.637766	0.487604
C31	C	1.945660	-0.604373	0.277005
C32	C	1.943788	-0.703449	0.378341
C33	C	1.969902	-0.169539	0.611188
C34	C	2.001131	-0.168454	0.752470
C35	C	2.100624	0.062119	0.383177
C36	C	2.058510	0.205646	0.384260
C37	C	2.101415	-0.165337	0.159249
C38	C	2.059804	-0.166416	0.017966
C39	C	2.470694	-0.396999	0.387264
C40	C	2.502428	-0.540526	0.386188
C41	C	2.469902	-0.169539	0.611188
C42	C	2.501131	-0.168454	0.752470
C43	C	2.107831	-0.174393	0.825318
C44	C	2.137167	-0.173369	0.958067
C45	C	1.953095	-0.160473	0.945107
C46	C	1.923758	-0.161488	0.812360
C47	C	2.600624	0.062119	0.383177
C48	C	2.558510	0.205646	0.384260
C49	C	2.601415	-0.165337	0.159249
C50	C	2.559804	-0.166416	0.017966
C51	C	2.609363	-0.614532	0.392023
C52	C	2.639177	-0.749393	0.391023
C53	C	2.455108	-0.736229	0.378347
C54	C	2.425298	-0.601372	0.379357
C55	C	2.607831	-0.174393	0.825318
C56	C	2.637167	-0.173369	0.958067
C57	C	2.453095	-0.160473	0.945107
C58	C	2.423758	-0.161488	0.812360
H59	H	2.190115	-0.599574	0.398162
H60	H	2.724049	-0.178203	1.017374
C61	C	2.370268	-0.803169	0.370809
N62	N	2.306362	-0.853585	0.365122
H63	H	1.890105	-0.154804	0.993886
C64	C	2.307655	-0.519960	0.372934
N65	N	2.219050	-0.458641	0.368099
H66	H	2.670835	-0.180063	0.776560
C67	C	2.694215	-0.547611	0.399561
N68	N	2.758132	-0.497210	0.405248
C69	C	2.367960	-0.152687	1.010980
N70	N	2.303823	-0.146778	1.060587
C71	C	2.306377	-0.154961	0.732222
N72	N	2.217968	-0.150046	0.671863
H73	H	2.086701	-0.723686	0.196504
C74	C	1.848390	-0.530366	0.153367
N75	N	1.775131	-0.474622	0.060233
C76	C	2.212634	-0.804493	0.617122
N77	N	2.285930	-0.860201	0.710240
C78	C	1.965355	-0.602170	0.604579
N79	N	1.939092	-0.575357	0.692686
H80	H	2.726253	-0.809644	0.395776
C81	C	1.806377	-0.154961	0.732222
N82	N	1.717968	-0.150046	0.671863
H83	H	2.170835	-0.180063	0.776560
H84	H	2.224049	-0.178203	1.017374
H85	H	1.870724	-0.735069	0.372513
