data_functionalizedCrystal
_audit_creation_method	'MofGen! by Chris Wilmer'
_symmetry_space_group_name_H-M	'P1'
_symmetry_Int_Tables_number	1
_symmetry_cell_setting	triclinic
loop_
_symmetry_equiv_pos_as_xyz
  x,y,z
_cell_length_a	10.654550
_cell_length_b	10.654551
_cell_length_c	18.366186
_cell_angle_alpha	89.996635
_cell_angle_beta	89.987444
_cell_angle_gamma	84.485132
loop_
_atom_site_label
_atom_site_type_symbol
_atom_site_fract_x
_atom_site_fract_y
_atom_site_fract_z
O1	O	1.667850	0.176400	-0.060605
O2	O	1.302372	0.193207	-0.060592
O3	O	1.493513	0.002064	-0.060599
O4	O	1.476708	0.367543	-0.060598
O5	O	1.493480	0.002055	0.060500
O6	O	1.302339	0.193197	0.060507
O7	O	1.667817	0.176391	0.060495
Zn8	Zn	1.485073	0.184792	0.079728
Zn9	Zn	1.485116	0.184805	-0.079826
O10	O	1.476676	0.367533	0.060502
C11	C	1.255557	0.191968	-0.000041
C12	C	1.116114	0.188276	-0.000037
C13	C	1.036629	0.300817	-0.000047
C14	C	0.905608	0.297341	-0.000060
C15	C	0.933570	0.068771	-0.000055
C16	C	1.064589	0.072249	-0.000037
C17	C	1.020484	0.432780	-0.000053
C18	C	0.889463	0.429304	-0.000066
C19	C	1.492263	-0.044739	-0.000051
C20	C	1.488570	-0.184182	-0.000056
C21	C	1.486856	-0.249688	-0.066066
C22	C	1.483376	-0.380709	-0.066062
C23	C	1.483329	-0.380705	0.065967
C24	C	1.486801	-0.249686	0.065963
C25	C	1.486888	-0.249692	-0.142292
C26	C	1.483408	-0.380713	-0.142288
C27	C	1.714632	0.177629	-0.000058
C28	C	1.854075	0.181321	-0.000067
C29	C	1.477926	0.414336	-0.000048
C30	C	1.481619	0.553779	-0.000048
N31	N	1.485052	0.184783	0.188619
N32	N	1.485146	0.184805	-0.188717
C33	C	1.569718	0.100187	0.226717
C34	C	1.569726	0.100182	0.302944
C35	C	1.485080	0.184793	0.341072
C36	C	1.400398	0.269395	0.302965
C37	C	1.400384	0.269390	0.226739
C38	C	1.469622	0.299032	0.461833
C39	C	1.469645	0.299039	0.538058
C40	C	1.485116	0.184809	0.576179
C41	C	1.500591	0.070568	0.538067
C42	C	1.500577	0.070563	0.461840
C43	C	1.485086	0.184808	0.423727
C44	C	1.569795	0.100201	0.696932
C45	C	1.569794	0.100194	0.773161
C46	C	1.400473	0.269418	0.773180
C47	C	1.400468	0.269414	0.696953
C48	C	1.485135	0.184807	0.658833
H49	H	1.049801	0.484386	0.050630
Cl50	Cl	1.293981	0.375760	0.350895
Cl51	Cl	1.342002	-0.426371	-0.178807
Cl52	Cl	1.352909	-0.178225	-0.187477
H53	H	1.638657	0.031292	0.195682
H54	H	1.513174	-0.022456	0.430812
Cl55	Cl	1.293940	0.375748	0.178842
H56	H	0.843777	0.469180	0.052216
Cl57	Cl	1.676174	-0.006176	0.350846
H58	H	1.513188	-0.022448	0.569103
Cl59	Cl	0.825043	0.506071	-0.078314
Cl60	Cl	1.294032	0.375775	0.649054
H61	H	1.578493	-0.220124	-0.165946
H62	H	1.481886	-0.434054	0.119717
Cl63	Cl	1.075566	0.497659	-0.080773
H64	H	1.570207	-0.427001	-0.171559
H65	H	1.638733	0.031305	0.665893
Cl66	Cl	1.676233	-0.006171	0.821058
H67	H	0.891602	-0.025694	-0.000066
Cl68	Cl	1.294051	0.375778	0.821107
Cl69	Cl	1.488914	-0.167333	0.148950
H70	H	1.457053	0.392060	0.569083
Cl71	Cl	1.450289	0.442653	0.413917
H72	H	1.129302	-0.019393	-0.000018
