data_functionalizedCrystal
_audit_creation_method	'MofGen! by Chris Wilmer'
_symmetry_space_group_name_H-M	'P1'
_symmetry_Int_Tables_number	1
_symmetry_cell_setting	triclinic
loop_
_symmetry_equiv_pos_as_xyz
  x,y,z
_cell_length_a	17.638574
_cell_length_b	17.638032
_cell_length_c	17.640968
_cell_angle_alpha	70.335276
_cell_angle_beta	65.686938
_cell_angle_gamma	87.824201
loop_
_atom_site_label
_atom_site_type_symbol
_atom_site_fract_x
_atom_site_fract_y
_atom_site_fract_z
Zn1	Zn	-1.241787	0.443415	0.607915
Zn2	Zn	-0.741787	0.943415	1.107915
Zn3	Zn	-1.174691	0.597837	0.430929
Zn4	Zn	-0.674691	1.097837	0.930929
Zn5	Zn	-1.076117	0.443369	0.442305
Zn6	Zn	-0.576117	0.943369	0.942305
Zn7	Zn	-1.076088	0.553290	0.552180
Zn8	Zn	-0.576088	1.053290	1.052180
O9	O	-1.142171	0.509478	0.508332
O10	O	-0.642171	1.009478	1.008332
O11	O	-1.343486	0.482562	0.603001
O12	O	-0.843486	0.982562	1.103001
O13	O	-1.133547	0.595970	0.312385
O14	O	-0.633547	1.095970	0.812385
O15	O	-1.126185	0.332747	0.492360
O16	O	-0.626185	0.832747	0.992360
O17	O	-1.294191	0.596015	0.472970
O18	O	-0.794191	1.096015	0.972970
O19	O	-1.247903	0.332781	0.614033
O20	O	-0.747903	0.832781	1.114033
O21	O	-1.061125	0.482483	0.320744
O22	O	-0.561125	0.982483	0.820744
O23	O	-0.965514	0.439288	0.438316
O24	O	-0.465514	0.939288	0.938316
O25	O	-1.126137	0.520091	0.679625
O26	O	-0.626137	1.020091	1.179625
O27	O	-0.965493	0.520046	0.519040
O28	O	-0.465493	1.020046	1.019040
O29	O	-1.247875	0.439366	0.720574
O30	O	-0.747875	0.939366	1.220574
O31	O	-1.133520	0.702555	0.418927
O32	O	-0.633520	1.202555	0.918927
O33	O	-1.061076	0.669827	0.508009
O34	O	-0.561076	1.169827	1.008009
C35	C	-0.936826	0.474828	0.473865
C36	C	-0.436826	0.974828	0.973865
C37	C	-0.848978	0.460021	0.459135
C38	C	-0.348978	0.960021	0.959135
C39	C	-0.725188	0.397014	0.396450
C40	C	-0.225188	0.897014	0.896450
C41	C	-0.807735	0.410932	0.410296
C42	C	-0.307735	0.910932	0.910296
C43	C	-0.807684	0.495215	0.494144
C44	C	-0.307684	0.995215	0.994144
C45	C	-0.725135	0.481307	0.480302
C46	C	-0.225135	0.981307	0.980302
C47	C	-0.683894	0.432205	0.431455
C48	C	-0.183894	0.932205	0.931455
C49	C	-0.683840	0.516498	0.515307
C50	C	-0.183840	1.016498	1.015307
C51	C	-0.601299	0.502587	0.501469
C52	C	-0.101299	1.002587	1.001469
C53	C	-0.560053	0.453486	0.452626
C54	C	-0.060053	0.953486	0.952626
C55	C	-0.601353	0.418295	0.417617
C56	C	-0.101353	0.918295	0.917617
C57	C	-0.725084	0.565595	0.564159
C58	C	-0.225084	1.065595	1.064159
C59	C	-0.683789	0.600786	0.599164
C60	C	-0.183789	1.100786	1.099164
C61	C	-0.601245	0.586880	0.585321
C62	C	-0.101245	1.086880	1.085321
C63	C	-0.559999	0.537779	0.536478
C64	C	-0.059999	1.037779	1.036478
C65	C	-0.559946	0.622071	0.620330
C66	C	-0.059946	1.122071	1.120330
C67	C	-0.477405	0.608161	0.606493
C68	C	0.022595	1.108161	1.106493
C69	C	-0.477459	0.523868	0.522641
C70	C	0.022541	1.023868	1.022641
C71	C	-1.090040	0.714876	0.456208
C72	C	-0.590040	1.214876	0.956208
C73	C	-1.067817	0.802755	0.433950
C74	C	-0.567817	1.302755	0.933950
C75	C	-0.348317	0.544256	0.542926
C76	C	0.151683	1.044256	1.042926
C77	C	-0.436164	0.559059	0.557646
C78	C	0.063836	1.059059	1.057646
C79	C	-1.311446	1.091490	0.677735
C80	C	-0.811446	1.591490	1.177735
C81	C	-1.290536	1.174063	0.656801
C82	C	-0.790536	1.674063	1.156801
C83	C	-1.163834	1.174163	0.530008
C84	C	-0.663834	1.674163	1.030008
C85	C	-1.184736	1.091589	0.550929
C86	C	-0.684736	1.591589	1.050929
C87	C	-1.258543	1.050259	0.624794
C88	C	-0.758543	1.550259	1.124794
C89	C	-1.131832	1.050358	0.497989
C90	C	-0.631832	1.550358	0.997989
C91	C	-1.152731	0.967791	0.518911
C92	C	-0.652731	1.467791	1.018911
C93	C	-1.226533	0.926454	0.592774
C94	C	-0.726533	1.426454	1.092774
C95	C	-1.279441	0.967692	0.645717
C96	C	-0.779441	1.467692	1.145717
C97	C	-1.058023	1.091688	0.424128
C98	C	-0.558023	1.591688	0.924128
C99	C	-1.005119	1.050457	0.371187
C100	C	-0.505119	1.550457	0.871187
C101	C	-1.026020	0.967890	0.392105
C102	C	-0.526020	1.467890	0.892105
C103	C	-1.099822	0.926553	0.465968
C104	C	-0.599822	1.426553	0.965968
C105	C	-0.973112	0.926652	0.339162
C106	C	-0.473112	1.426652	0.839162
C107	C	-0.994010	0.844085	0.360085
C108	C	-0.494010	1.344085	0.860085
C109	C	-1.120721	0.843986	0.486890
C110	C	-0.620721	1.343986	0.986890
C111	C	-1.194506	1.303274	0.560673
C112	C	-0.694506	1.803274	1.060673
C113	C	-1.216744	1.215394	0.582954
C114	C	-0.716744	1.715394	1.082954
C115	C	-1.194487	0.474765	0.732098
C116	C	-0.694487	0.974765	1.232098
C117	C	-1.216781	0.459972	0.827454
C118	C	-0.716781	0.959972	1.327454
C119	C	-1.090118	0.544006	0.285459
C120	C	-0.590118	1.044006	0.785459
C121	C	-1.068034	0.558602	0.190185
C122	C	-0.568034	1.058602	0.690185
C123	C	-0.973218	0.621477	1.034473
C124	C	-0.473218	1.121477	1.534473
C125	C	-0.994186	0.607569	1.124079
C126	C	-0.494186	1.107569	1.624079
C127	C	-1.120941	0.523519	1.166705
C128	C	-0.620941	1.023519	1.666705
C129	C	-1.099982	0.537415	1.077100
C130	C	-0.599982	1.037415	1.577100
C131	C	-1.026120	0.586396	1.010990
C132	C	-0.526120	1.086396	1.510990
C133	C	-1.152884	0.502335	1.053618
C134	C	-0.652884	1.002335	1.553618
C135	C	-1.131928	0.516234	0.964021
C136	C	-0.631928	1.016234	1.464021
C137	C	-1.058071	0.565214	0.897906
C138	C	-0.558071	1.065214	1.397906
C139	C	-1.005164	0.600295	0.921393
C140	C	-0.505164	1.100295	1.421393
C141	C	-1.226749	0.453359	1.119729
C142	C	-0.726749	0.953359	1.619729
C143	C	-1.279651	0.418279	1.096246
C144	C	-0.779651	0.918279	1.596246
C145	C	-1.258692	0.432173	1.006648
C146	C	-0.758692	0.932173	1.506648
C147	C	-1.184835	0.481153	0.940533
C148	C	-0.684835	0.981153	1.440533
C149	C	-1.311599	0.397092	0.983161
C150	C	-0.811599	0.897092	1.483161
C151	C	-1.290643	0.410992	0.893564
C152	C	-0.790643	0.910992	1.393564
C153	C	-1.163879	0.495053	0.850936
C154	C	-0.663879	0.995053	1.350936
H155	H	-0.792297	0.576913	0.575431
H156	H	-0.292297	1.076913	1.075431
H157	H	-1.371552	1.057840	0.737878
H158	H	-0.871552	1.557840	1.237878
H159	H	-1.243547	0.859222	0.609807
H160	H	-0.743547	1.359222	1.109807
F161	F	-1.346949	0.373657	0.868570
F162	F	-0.846949	0.873657	1.368570
H163	H	-0.492845	0.442157	0.441365
H164	H	0.007155	0.942157	0.941365
H165	H	-1.333614	1.207627	0.699928
H166	H	-0.833614	1.707627	1.199928
F167	F	-1.358001	0.923703	0.724325
F168	F	-0.858001	1.423703	1.224325
H169	H	-1.103719	0.534915	0.797106
H170	H	-0.603719	1.034915	1.297106
F171	F	-0.433455	0.645612	0.643752
F172	F	0.066545	1.145612	1.143752
F173	F	-0.557451	0.366046	0.365614
F174	F	-0.057451	0.866046	0.865614
F175	F	-0.727688	0.653046	0.651144
F176	F	-0.227688	1.153046	1.151144
F177	F	-0.894557	0.970646	0.260562
F178	F	-0.394557	1.470646	0.760562
F179	F	-1.199281	0.799997	0.565499
F180	F	-0.699281	1.299997	1.065499
F181	F	-0.603849	0.674324	0.672318
F182	F	-0.103849	1.174324	1.172318
F183	F	-0.894600	0.673600	0.964108
F184	F	-0.394600	1.173600	1.464108
F185	F	-0.926567	1.094451	0.292582
F186	F	-0.426567	1.594451	0.792582
F187	F	-1.358259	0.366154	1.166612
F188	F	-0.858259	0.866154	1.666612
H189	H	-1.041005	1.158918	0.407102
H190	H	-0.541005	1.658918	0.907102
F191	F	-0.433557	0.471620	0.470638
F192	F	0.066443	0.971620	0.970638
F193	F	-0.681287	0.344766	0.344447
F194	F	-0.181287	0.844766	0.844447
H195	H	-1.103739	1.207825	0.469869
H196	H	-0.603739	1.707825	0.969869
F197	F	-0.937706	0.800202	0.303737
F198	F	-0.437706	1.300202	0.803737
F199	F	-0.937873	0.644909	1.149065
F200	F	-0.437873	1.144909	1.649065
H201	H	-0.841274	0.535191	0.533918
H202	H	-0.341274	1.035191	1.033918
H203	H	-1.041013	0.576534	0.824951
H204	H	-0.541013	1.076534	1.324951
F205	F	-0.926547	0.652419	0.851029
F206	F	-0.426547	1.152419	1.351029
H207	H	-1.371741	0.357219	1.036999
H208	H	-0.871741	0.857219	1.536999
H209	H	-1.181082	0.483641	1.220542
H210	H	-0.681082	0.983641	1.720542
H211	H	-0.841357	0.382264	0.381797
H212	H	-0.341357	0.882264	0.881797
H213	H	-1.243810	0.442046	1.192683
H214	H	-0.743810	0.942046	1.692683
