data_functionalizedCrystal
_audit_creation_method	'MofGen! by Chris Wilmer'
_symmetry_space_group_name_H-M	'P1'
_symmetry_Int_Tables_number	1
_symmetry_cell_setting	triclinic
loop_
_symmetry_equiv_pos_as_xyz
  x,y,z
_cell_length_a	10.654550
_cell_length_b	15.944551
_cell_length_c	9.130313
_cell_angle_alpha	89.997799
_cell_angle_beta	89.996220
_cell_angle_gamma	83.991820
loop_
_atom_site_label
_atom_site_type_symbol
_atom_site_fract_x
_atom_site_fract_y
_atom_site_fract_z
O1	O	1.666308	0.117973	-0.121923
O2	O	1.300684	0.129213	-0.121900
O3	O	1.493480	0.001376	-0.121899
O4	O	1.473511	0.245810	-0.121924
O5	O	1.493478	0.001379	0.121700
O6	O	1.300681	0.129216	0.121699
O7	O	1.666305	0.117976	0.121676
Cu8	Cu	1.483493	0.123596	0.143930
Cu9	Cu	1.483496	0.123592	-0.144154
O10	O	1.473509	0.245813	0.121675
C11	C	1.253895	0.128389	-0.000098
C12	C	1.114484	0.125920	-0.000088
C13	C	1.492650	-0.029921	-0.000099
C14	C	1.490165	-0.123182	-0.000098
C15	C	1.034024	0.201188	-0.000117
C16	C	0.903034	0.198863	-0.000142
C17	C	0.932975	0.045995	-0.000116
C18	C	1.063963	0.048321	-0.000080
C19	C	1.084545	0.278788	-0.000126
C20	C	1.004084	0.354062	-0.000156
C21	C	0.873094	0.351737	-0.000182
C22	C	0.822564	0.274137	-0.000176
C23	C	1.364720	-0.338765	-0.000111
C24	C	1.422971	-0.399443	0.119995
C25	C	1.485668	-0.293934	-0.000109
C26	C	1.423002	-0.399430	-0.120175
C27	C	1.481317	-0.458872	-0.000126
C28	C	1.543953	-0.353384	0.120095
C29	C	1.543967	-0.353364	-0.120182
C30	C	1.602306	-0.414024	-0.000048
C31	C	1.488172	-0.198917	-0.000098
C32	C	1.478822	-0.553887	-0.000127
C33	C	1.713094	0.118800	-0.000130
C34	C	1.852505	0.121269	-0.000149
C35	C	1.474339	0.277110	-0.000128
C36	C	1.476824	0.370371	-0.000139
N37	N	1.483500	0.123599	0.346552
N38	N	1.483499	0.123583	-0.346777
C39	C	1.568892	0.067012	0.423205
C40	C	1.568889	0.067002	0.576542
C41	C	1.398098	0.180173	0.576560
C42	C	1.398096	0.180178	0.423226
C43	C	1.654296	0.010433	0.346531
C44	C	1.739696	-0.046158	0.423184
C45	C	1.739693	-0.046168	0.576520
C46	C	1.654290	0.010412	0.653205
H47	H	1.045235	0.417241	-0.000149
H48	H	1.654309	0.010437	0.221677
O49	O	1.362030	-0.423939	0.241089
C50	C	1.361519	-0.512328	0.240041
H51	H	1.442664	-0.541764	0.169331
H52	H	1.268189	-0.529221	0.193291
C53	C	1.277758	-0.510143	0.484415
C54	C	1.377428	-0.546298	0.397576
H55	H	1.287565	-0.531098	0.581589
H56	H	1.278097	-0.450594	0.485120
H57	H	1.199992	-0.524224	0.445439
H58	H	1.455190	-0.532208	0.436542
H59	H	1.377102	-0.605846	0.396881
H60	H	0.807585	0.413029	-0.000192
H61	H	0.715901	0.272250	-0.000174
H62	H	1.371831	-0.419804	-0.221721
O63	O	1.722195	-0.452859	0.000278
C64	C	1.785482	-0.429360	0.127055
H65	H	1.713384	-0.407871	0.215169
H66	H	1.843957	-0.375534	0.099542
C67	C	1.961570	-0.531822	0.075455
C68	C	1.873018	-0.505436	0.183682
H69	H	2.015570	-0.578747	0.110383
H70	H	1.918935	-0.547652	-0.009961
H71	H	2.010285	-0.486961	0.052537
H72	H	1.824294	-0.550293	0.206585
H73	H	1.915647	-0.489615	0.269103
H74	H	1.264327	-0.306038	0.000016
O75	O	0.883684	-0.029308	-0.000188
C76	C	0.750817	-0.015221	-0.000193
H77	H	0.720077	0.050150	-0.046321
H78	H	0.714322	-0.019503	0.116663
C79	C	0.734261	-0.162641	-0.039084
C80	C	0.696505	-0.082354	-0.095751
H81	H	0.700756	-0.204054	-0.098022
H82	H	0.823776	-0.172133	-0.039075
H83	H	0.703845	-0.166197	0.058295
H84	H	0.726934	-0.078796	-0.193120
H85	H	0.606993	-0.072863	-0.095778
H86	H	1.328561	0.226256	0.360815
O87	O	1.141950	-0.024872	-0.000129
C88	C	1.069274	-0.093862	-0.000110
H89	H	0.971522	-0.073117	-0.046252
H90	H	1.059922	-0.117612	0.116754
C91	C	1.254630	-0.190644	-0.038952
C92	C	1.134572	-0.165166	-0.095636
H93	H	1.294910	-0.234629	-0.097871
H94	H	1.303594	-0.144165	-0.038959
H95	H	1.246819	-0.210430	0.058434
H96	H	1.142385	-0.145371	-0.193013
H97	H	1.085610	-0.211643	-0.095648
H98	H	1.595080	-0.332939	-0.221733
O99	O	1.822524	-0.101250	0.348794
C100	C	1.802106	-0.184520	0.386321
H101	H	1.701557	-0.185541	0.428456
H102	H	1.871688	-0.208753	0.475346
C103	C	1.945131	-0.240110	0.198385
C104	C	1.821631	-0.241365	0.250125
H105	H	1.957180	-0.275177	0.114376
H106	H	1.958892	-0.184010	0.173105
H107	H	2.003102	-0.260303	0.272585
H108	H	1.763663	-0.221163	0.175931
H109	H	1.807861	-0.297463	0.275389
O110	O	1.315098	0.235020	0.651210
C111	C	1.237611	0.189549	0.739885
H112	H	1.287627	0.124130	0.762844
H113	H	1.144799	0.183268	0.680805
C114	C	1.149351	0.317082	0.857346
C115	C	1.210786	0.236736	0.885555
H116	H	1.132798	0.346191	0.947200
H117	H	1.201551	0.347718	0.797601
H118	H	1.072014	0.311837	0.808109
H119	H	1.288128	0.241983	0.934775
H120	H	1.158597	0.206102	0.945312
H121	H	1.595065	-0.333096	0.221746
H122	H	1.809220	-0.092252	0.638929
H123	H	1.191203	0.280689	-0.000112
H124	H	1.654286	0.010394	0.778062
