data_functionalizedCrystal
_audit_creation_method	'MofGen! by Chris Wilmer'
_symmetry_space_group_name_H-M	'P1'
_symmetry_Int_Tables_number	1
_symmetry_cell_setting	triclinic
loop_
_symmetry_equiv_pos_as_xyz
  x,y,z
_cell_length_a	17.699104
_cell_length_b	16.053802
_cell_length_c	17.699104
_cell_angle_alpha	87.440421
_cell_angle_beta	96.708483
_cell_angle_gamma	87.422075
loop_
_atom_site_label
_atom_site_type_symbol
_atom_site_fract_x
_atom_site_fract_y
_atom_site_fract_z
O1	O	-1.007273	0.069464	0.092591
O2	O	-0.786898	0.069459	0.105028
O3	O	-0.903303	0.069454	-0.011378
O4	O	-0.890868	0.069469	0.208997
O5	O	-0.896896	-0.069405	-0.004997
O6	O	-0.780490	-0.069400	0.111408
O7	O	-1.000866	-0.069395	0.098972
Zn8	Zn	-0.889661	-0.091444	0.106204
Zn9	Zn	-0.898103	0.091508	0.097796
O10	O	-0.884461	-0.069390	0.215378
C11	C	-0.755497	0.000029	0.107770
C12	C	-0.671480	0.000026	0.106425
N13	N	-0.883905	-0.216304	0.111941
C14	C	-0.146614	0.000031	0.167168
C15	C	-0.225558	0.000034	0.168427
C16	C	-0.274170	0.000030	0.100093
C17	C	-0.243835	0.000031	0.030494
C18	C	-0.164893	0.000033	0.029236
C19	C	-0.562201	0.000023	0.035568
C20	C	-0.641148	0.000019	0.036832
C21	C	-0.622866	0.000024	0.174759
C22	C	-0.543924	0.000027	0.173500
C23	C	-0.513596	0.000032	0.103903
C24	C	-0.427996	0.000029	0.102538
C25	C	-0.359768	0.000027	0.101456
C26	C	-0.933454	-0.260000	0.062428
C27	C	-0.929435	-0.347407	0.066448
C28	C	-0.875870	-0.391116	0.119986
C29	C	-0.826316	-0.347414	0.169501
C30	C	-0.830332	-0.260009	0.165476
C31	C	-0.858327	-0.652525	0.137544
C32	C	-0.854316	-0.739936	0.141566
C33	C	-0.957434	-0.739923	0.038512
C34	C	-0.961449	-0.652516	0.034495
C35	C	-0.911892	-0.608822	0.084008
N36	N	-0.871762	-0.480459	0.124098
N37	N	-0.915997	-0.519480	0.079891
C38	C	-0.032266	0.000033	0.096230
C39	C	-0.116283	0.000029	0.097575
C40	C	-0.899651	0.000025	-0.036384
C41	C	-0.898306	0.000024	-0.120401
N42	N	-0.903865	0.216368	0.092053
C43	C	-0.959051	0.000049	-0.645269
C44	C	-0.960309	0.000042	-0.566325
C45	C	-0.891975	0.000038	-0.517712
C46	C	-0.822376	0.000034	-0.548047
C47	C	-0.821118	0.000035	-0.626990
C48	C	-0.827449	0.000027	-0.229680
C49	C	-0.828713	0.000028	-0.150733
C50	C	-0.966640	0.000034	-0.169016
C51	C	-0.965382	0.000035	-0.247958
C52	C	-0.895784	0.000026	-0.278286
C53	C	-0.894420	0.000033	-0.363886
C54	C	-0.893338	0.000038	-0.432114
C55	C	-0.888113	0.000041	0.240384
C56	C	-0.889458	0.000047	0.324401
H57	H	-0.107038	0.000028	0.222814
F58	F	-0.257833	0.000040	0.242497
H59	H	-0.997780	-0.775507	-0.001800
H60	H	-1.021028	0.000042	-0.287536
H61	H	-0.504346	0.000026	0.229146
F62	F	-0.132614	0.000032	-0.044834
F63	F	-0.755978	0.000023	-0.098996
F64	F	-0.295574	0.000030	-0.042233
F65	F	-0.692884	0.000015	-0.035903
F66	F	-0.797302	-0.786449	0.198553
H67	H	-0.537518	0.000025	-0.021103
F68	F	-1.031784	0.000059	-0.697000
H69	H	-0.817977	-0.616956	0.177860
F70	F	-0.990469	-0.213490	0.005448
F71	F	-0.753377	0.000023	-0.261947
F72	F	-0.655149	0.000024	0.248832
F73	F	-0.749649	0.000026	-0.496308
F74	F	-0.982169	-0.393911	0.013750
H75	H	-1.005065	-0.616930	-0.009099
F76	F	-0.747048	0.000029	-0.659268
F77	F	-1.040714	0.000040	-0.136733
F78	F	-0.769304	-0.393933	0.226477
F79	F	-1.034380	0.000061	-0.534050
H80	H	-0.789983	-0.224432	0.205794
