data_functionalizedCrystal
_audit_creation_method	'MofGen! by Chris Wilmer'
_symmetry_space_group_name_H-M	'P1'
_symmetry_Int_Tables_number	1
_symmetry_cell_setting	triclinic
loop_
_symmetry_equiv_pos_as_xyz
  x,y,z
_cell_length_a	14.908558
_cell_length_b	15.297327
_cell_length_c	14.908308
_cell_angle_alpha	77.691786
_cell_angle_beta	89.824401
_cell_angle_gamma	96.990375
loop_
_atom_site_label
_atom_site_type_symbol
_atom_site_fract_x
_atom_site_fract_y
_atom_site_fract_z
Zn1	Zn	1.259454	-0.470271	0.663953
Zn2	Zn	1.242017	-0.612800	0.536743
Zn3	Zn	1.120929	-0.452961	0.502140
Zn4	Zn	1.083240	-0.611727	0.678222
O5	O	1.176410	-0.536940	0.595264
O6	O	1.381563	-0.496872	0.655588
O7	O	1.234429	-0.584802	0.405224
O8	O	1.162375	-0.329164	0.503152
O9	O	1.368751	-0.601587	0.562127
O10	O	1.264148	-0.341882	0.622035
O11	O	1.145466	-0.467369	0.379802
O12	O	0.991507	-0.466328	0.516988
O13	O	1.098140	-0.599758	0.803257
O14	O	0.963818	-0.582973	0.646354
O15	O	1.227603	-0.495831	0.792774
O16	O	1.197884	-0.738751	0.575963
O17	O	1.081232	-0.737963	0.679907
C18	C	0.945401	-0.522657	0.579465
C19	C	0.846569	-0.516569	0.572731
C20	C	0.721669	-0.447179	0.495968
C21	C	0.814532	-0.452894	0.502291
C22	C	0.785737	-0.574531	0.636856
C23	C	0.692874	-0.568816	0.630533
C24	C	0.660844	-0.505139	0.560086
C25	C	0.567979	-0.499429	0.553760
C26	C	0.539186	-0.621061	0.688329
C27	C	0.632049	-0.626776	0.694652
C28	C	1.133599	-0.771054	0.633260
C29	C	1.115363	-0.871216	0.649550
C30	C	1.307087	-1.155092	0.479169
C31	C	1.324219	-1.060985	0.463858
C32	C	1.272007	-1.013538	0.510280
C33	C	1.202659	-1.060207	0.572015
C34	C	1.185519	-1.154323	0.587321
C35	C	1.150440	-1.012769	0.618433
C36	C	1.081091	-1.059438	0.680167
C37	C	1.063956	-1.153545	0.695471
C38	C	1.116168	-1.200992	0.649049
C39	C	1.167579	-0.918653	0.603126
C40	C	1.046012	-0.917885	0.711279
C41	C	1.028879	-1.011992	0.726589
C42	C	1.408320	-0.551280	0.611126
C43	C	1.507147	-0.557391	0.617885
C44	C	1.160613	-0.549606	0.831847
C45	C	1.153881	-0.555003	0.932664
C46	C	1.219411	-0.301915	0.557142
C47	C	1.237735	-0.201761	0.540897
C48	C	1.192208	-0.524262	0.359595
C49	C	1.199159	-0.518621	0.258749
C50	C	1.276043	-0.456905	1.111193
C51	C	1.269721	-0.461973	1.205920
C52	C	1.134912	-0.570203	1.216845
C53	C	1.141234	-0.565134	1.122118
C54	C	1.211802	-0.508485	1.069296
C55	C	1.218127	-0.503422	0.974568
C56	C	1.083316	-0.611646	0.985494
C57	C	1.076994	-0.616714	1.080221
H58	H	1.224043	-0.880663	0.552861
O59	O	1.363388	-1.206283	0.429119
H60	H	1.356229	-1.183527	0.353946
O61	O	1.290492	-0.912036	0.493757
H62	H	1.229179	-0.882161	0.466754
H63	H	0.695590	-0.395332	0.438606
H64	H	1.031008	-0.653648	0.951372
O65	O	1.339011	-0.406348	1.251115
H66	H	1.389145	-0.366112	1.198468
O67	O	1.058794	-0.631282	1.273826
H68	H	1.087314	-0.681896	1.327147
O69	O	1.352158	-0.395812	1.054221
H70	H	1.392897	-0.436635	1.020708
O71	O	1.000881	-0.677810	1.137193
H72	H	1.007277	-0.672672	1.210103
O73	O	0.880134	-0.390378	0.433132
H74	H	0.950090	-0.405043	0.449365
H75	H	0.541903	-0.447578	0.496399
O76	O	0.989156	-1.203886	0.762049
H77	H	0.955732	-1.155087	0.791765
H78	H	0.658141	-0.678618	0.752009
O79	O	0.820294	-0.643170	0.712868
H80	H	0.895088	-0.637391	0.706499
O81	O	1.399018	-1.010648	0.397288
H82	H	1.432453	-1.059450	0.367587
H83	H	1.102224	-1.277622	0.661514
H84	H	1.275588	-0.457296	0.931562
O85	O	0.989693	-0.866710	0.761343
H86	H	0.917667	-0.879682	0.743893
O87	O	0.954082	-1.062337	0.793168
H88	H	0.920655	-1.013542	0.822886
O89	O	0.473584	-0.683579	0.757496
H90	H	0.403628	-0.668906	0.741270
