data_functionalizedCrystal
_audit_creation_method	'MofGen! by Chris Wilmer'
_symmetry_space_group_name_H-M	'P1'
_symmetry_Int_Tables_number	1
_symmetry_cell_setting	triclinic
loop_
_symmetry_equiv_pos_as_xyz
  x,y,z
_cell_length_a	12.645331
_cell_length_b	12.645330
_cell_length_c	12.645323
_cell_angle_alpha	89.975130
_cell_angle_beta	90.022676
_cell_angle_gamma	89.983329
loop_
_atom_site_label
_atom_site_type_symbol
_atom_site_fract_x
_atom_site_fract_y
_atom_site_fract_z
Zn1	Zn	1.620731	0.422060	0.599446
Zn2	Zn	1.620613	0.599348	0.422186
Zn3	Zn	1.443446	0.422096	0.422191
Zn4	Zn	1.443428	0.599279	0.599402
O5	O	1.532054	0.510695	0.510806
O6	O	1.769063	0.445591	0.575949
O7	O	1.597069	0.575879	0.273840
O8	O	1.467020	0.273744	0.445724
O9	O	1.768976	0.575844	0.445717
O10	O	1.597271	0.273717	0.575953
O11	O	1.466906	0.445653	0.273843
O12	O	1.295096	0.445585	0.445681
O13	O	1.466989	0.575726	0.747755
O14	O	1.295083	0.575761	0.575877
O15	O	1.597253	0.445524	0.747788
O16	O	1.597052	0.747686	0.445674
O17	O	1.466874	0.747635	0.575873
C18	C	1.531977	0.786125	0.510791
C19	C	1.532041	0.903955	0.510821
C20	C	1.532132	0.510614	0.787312
C21	C	1.532166	0.510579	0.905142
C22	C	1.256625	0.510670	0.510776
C23	C	1.138795	0.510685	0.510788
C24	C	0.971204	0.428415	0.429333
C25	C	1.093763	0.428628	0.428974
C26	C	1.094274	0.622359	0.480273
C27	C	0.971676	0.621910	0.479717
C28	C	0.971645	0.482344	0.623072
C29	C	1.094251	0.479849	0.622448
C30	C	1.808560	0.510722	0.510838
C31	C	1.926390	0.510733	0.510851
C32	C	1.532161	0.234190	0.510844
C33	C	1.532206	0.116360	0.510861
C34	C	1.450484	1.071531	0.592982
C35	C	1.450067	0.948972	0.592717
C36	C	1.501796	0.948549	0.399099
C37	C	1.501298	1.071147	0.399597
C38	C	1.644342	1.071047	0.539475
C39	C	1.643654	0.948440	0.541918
C40	C	1.532038	0.510701	0.235377
C41	C	1.532210	0.510437	0.117547
C42	C	1.449964	0.592103	1.072685
C43	C	1.450179	0.592506	0.950125
C44	C	1.643865	0.540899	0.949662
C45	C	1.643414	0.541410	1.072260
C46	C	1.503724	0.398278	1.072340
C47	C	1.501232	0.398951	0.949733
H48	H	1.123864	0.345817	0.448100
Cl49	Cl	1.479272	0.720867	0.904859
Cl50	Cl	0.926904	0.574909	0.716848
H51	H	1.559431	0.919391	0.336240
H52	H	1.367350	0.573532	0.920023
Cl53	Cl	0.927444	0.659074	0.353055
H54	H	1.123444	0.685331	0.537783
H55	H	1.707747	0.917790	0.486462
Cl56	Cl	1.374740	1.115447	0.362174
Cl57	Cl	1.478649	0.719661	1.120344
H58	H	1.366889	0.573311	1.102159
Cl59	Cl	1.380156	0.355609	1.120047
H60	H	0.940749	0.402333	0.650823
Cl61	Cl	1.678874	0.903436	0.668862
Cl62	Cl	1.321716	0.903825	0.563453
Cl63	Cl	1.374313	0.363650	0.904821
H64	H	1.124930	0.646847	0.399115
Cl65	Cl	1.139204	0.352980	0.657989
Cl66	Cl	0.925714	0.300172	0.458541
H67	H	1.124909	0.535432	0.686433
H68	H	1.468990	0.918818	0.675558
Cl69	Cl	0.923557	0.457041	0.301697
H70	H	0.942031	0.685319	0.536502
Cl71	Cl	1.589194	1.116943	0.301901
H72	H	1.667560	0.623400	1.100871
Cl73	Cl	1.479424	1.116945	0.721306
Cl74	Cl	1.738349	1.115825	0.447148
H75	H	1.367871	1.102431	0.574266
H76	H	1.563628	0.337434	1.101353
H77	H	1.420678	0.917936	0.374420
H78	H	1.706788	0.483299	0.920526
Cl79	Cl	1.138974	0.457592	0.300580
Cl80	Cl	1.686939	1.118665	0.663119
H81	H	1.706772	0.484511	1.101938
H82	H	1.668424	0.622030	0.918973
H83	H	1.556760	0.334889	0.919112
