data_functionalizedCrystal
_audit_creation_method	'MofGen! by Chris Wilmer'
_symmetry_space_group_name_H-M	'P1'
_symmetry_Int_Tables_number	1
_symmetry_cell_setting	triclinic
loop_
_symmetry_equiv_pos_as_xyz
  x,y,z
_cell_length_a	12.376457
_cell_length_b	16.992694
_cell_length_c	16.992695
_cell_angle_alpha	89.331777
_cell_angle_beta	77.943136
_cell_angle_gamma	77.932115
loop_
_atom_site_label
_atom_site_type_symbol
_atom_site_fract_x
_atom_site_fract_y
_atom_site_fract_z
O1	O	0.093862	-1.064980	0.152796
O2	O	0.593862	-0.564980	0.652796
O3	O	0.093895	-0.836585	0.150960
O4	O	0.593895	-0.336585	0.650960
O5	O	0.093870	-0.949866	0.037679
O6	O	0.593870	-0.449866	0.537679
O7	O	0.093888	-0.951699	0.266076
O8	O	0.593888	-0.451699	0.766076
O9	O	-0.094136	-0.921554	0.065959
O10	O	0.405864	-0.421554	0.565959
O11	O	-0.094110	-0.808273	0.179239
O12	O	0.405890	-0.308273	0.679239
O13	O	-0.094144	-1.036668	0.181075
O14	O	0.405856	-0.536668	0.681075
Zn15	Zn	-0.123977	-0.917975	0.184647
Zn16	Zn	0.376023	-0.417975	0.684647
Zn17	Zn	0.123729	-0.955278	0.147388
Zn18	Zn	0.623729	-0.455278	0.647388
O19	O	-0.094118	-0.923388	0.294356
O20	O	0.405882	-0.423388	0.794356
C21	C	-0.000103	-0.793069	0.162743
C22	C	0.499897	-0.293069	0.662743
C23	C	-0.000091	-0.705587	0.155712
C24	C	0.499909	-0.205587	0.655712
N25	N	-0.293029	-0.892523	0.210076
N26	N	0.206971	-0.392523	0.710076
C27	C	-0.000132	-0.933354	0.022459
C28	C	0.499868	-0.433354	0.522459
C29	C	-0.000131	-0.926325	-0.065026
C30	C	0.499869	-0.426325	0.434974
C31	C	-0.648048	-1.039817	0.062910
C32	C	-0.148048	-0.539817	0.562910
C33	C	-0.529712	-1.057627	0.045112
C34	C	-0.029712	-0.557627	0.545112
C35	C	-0.470535	-1.016352	0.086351
C36	C	0.029465	-0.516352	0.586351
C37	C	-0.529706	-0.957265	0.145392
C38	C	-0.029706	-0.457265	0.645392
C39	C	-0.648054	-0.939459	0.163196
C40	C	-0.148054	-0.439459	0.663196
C41	C	-0.470542	-0.915994	0.186637
C42	C	0.029458	-0.415994	0.686637
C43	C	-0.529713	-0.856907	0.245678
C44	C	-0.029713	-0.356907	0.745678
C45	C	-0.648049	-0.839103	0.263479
C46	C	-0.148049	-0.339103	0.763479
C47	C	-0.707225	-0.880377	0.222239
C48	C	-0.207225	-0.380377	0.722239
C49	C	-0.352194	-0.933800	0.168833
C50	C	0.147806	-0.433800	0.668833
C51	C	-0.352201	-0.833442	0.269119
C52	C	0.147799	-0.333442	0.769119
C53	C	-0.470536	-0.815632	0.286917
C54	C	0.029464	-0.315632	0.786917
N55	N	0.292781	-0.980736	0.121953
N56	N	0.792781	-0.480736	0.621953
C57	C	-0.000142	-1.080184	0.169292
C58	C	0.499858	-0.580184	0.669292
C59	C	-0.000147	-1.167668	0.176321
C60	C	0.499853	-0.667668	0.676321
C61	C	-0.000086	-0.659597	0.223530
C62	C	0.499914	-0.159597	0.723530
C63	C	-0.000102	-0.577393	0.216923
C64	C	0.499898	-0.077393	0.716923
C65	C	-0.000115	-0.541183	0.142497
C66	C	0.499885	-0.041183	0.642497
C67	C	-0.000123	-0.587179	0.074675
C68	C	0.499877	-0.087179	0.574675
C69	C	-0.000115	-0.669379	0.081284
C70	C	0.499885	-0.169379	0.581284
C71	C	-0.000147	-0.295864	0.115108
C72	C	0.499853	0.204136	0.615108
C73	C	-0.000152	-0.213658	0.108504
C74	C	0.499848	0.286342	0.608504
C75	C	-0.000134	-0.203878	0.250752
C76	C	0.499866	0.296122	0.750752
C77	C	-0.000119	-0.286081	0.257353
C78	C	0.499881	0.213919	0.757353
C79	C	-0.000133	-0.332069	0.189532
C80	C	0.499867	0.167931	0.689532
N81	N	-0.000128	-0.457159	0.135742
N82	N	0.499872	0.042841	0.635742
N83	N	-0.000128	-0.416090	0.196290
N84	N	0.499872	0.083910	0.696290
C85	C	-0.000142	-0.994142	-0.111015
C86	C	0.499858	-0.494142	0.388985
C87	C	-0.000130	-0.987535	-0.193218
C88	C	0.499870	-0.487535	0.306782
C89	C	-0.000116	-0.913109	-0.229428
C90	C	0.499884	-0.413109	0.270572
C91	C	-0.000101	-0.845288	-0.183434
C92	C	0.499899	-0.345288	0.316566
C93	C	-0.000105	-0.851897	-0.101234
C94	C	0.499895	-0.351897	0.398766
C95	C	-0.000096	-0.885718	-0.474746
C96	C	0.499904	-0.385718	0.025254
C97	C	-0.000096	-0.879113	-0.556951
C98	C	0.499904	-0.379113	-0.056951
C99	C	-0.000123	-1.021360	-0.566730
C100	C	0.499877	-0.521360	-0.066730
C101	C	-0.000133	-1.027962	-0.484527
C102	C	0.499867	-0.527962	0.015473
C103	C	-0.000113	-0.960142	-0.438541
C104	C	0.499887	-0.460142	0.061459
N105	N	-0.000107	-0.906353	-0.313452
N106	N	0.499893	-0.406353	0.186548
N107	N	-0.000113	-0.966900	-0.354520
N108	N	0.499887	-0.466900	0.145480
C109	C	-0.000113	-0.939900	0.309576
C110	C	0.499887	-0.439900	0.809576
C111	C	-0.000107	-0.946929	0.397060
C112	C	0.499893	-0.446929	0.897060
H113	H	-0.304028	-0.981909	0.120762
H114	H	0.195972	-0.481909	0.620762
Cl115	Cl	-0.321768	-1.038740	0.063974
Cl116	Cl	0.178232	-0.538740	0.563974
Cl117	Cl	-0.000172	-1.087708	-0.065500
Cl118	Cl	0.499828	-0.587708	0.434500
H119	H	-0.000098	-0.539952	0.272147
H120	H	0.499902	-0.039952	0.772147
Cl121	Cl	-0.455328	-1.131903	-0.029106
Cl122	Cl	0.044672	-0.631903	0.470894
Cl123	Cl	-0.000087	-0.766639	-0.043419
Cl124	Cl	0.499913	-0.266639	0.456581
Cl125	Cl	-0.722441	-1.091706	0.011079
Cl126	Cl	-0.222441	-0.591706	0.511079
Cl127	Cl	-0.000148	-1.072793	-0.251029
Cl128	Cl	0.499852	-0.572793	0.248971
H129	H	-0.304020	-0.799834	0.302702
H130	H	0.195980	-0.299834	0.802702
H131	H	-0.000149	-0.557688	0.014079
H132	H	0.499851	-0.057688	0.514079
Cl133	Cl	-0.000096	-0.331597	0.350920
Cl134	Cl	0.499904	0.168403	0.850920
Cl135	Cl	-0.000193	-0.168134	0.014937
Cl136	Cl	0.499807	0.331866	0.514937
Cl137	Cl	-0.855997	-0.857983	0.244612
Cl138	Cl	-0.355997	-0.357983	0.744612
H139	H	-0.000125	-0.166426	0.305969
H140	H	0.499875	0.333574	0.805969
Cl141	Cl	-0.000084	-0.785541	-0.602471
Cl142	Cl	0.499916	-0.285541	-0.102471
H143	H	-0.696226	-0.790997	0.311559
H144	H	-0.196226	-0.290997	0.811559
Cl145	Cl	-0.000163	-0.353667	0.029846
Cl146	Cl	0.499837	0.146333	0.529846
H147	H	-0.518728	-0.767523	0.334990
H148	H	-0.018728	-0.267523	0.834990
H149	H	-0.000075	-0.689073	0.284135
H150	H	0.499925	-0.189073	0.784135
H151	H	-0.000117	-0.706824	0.026060
H152	H	0.499883	-0.206824	0.526060
Cl153	Cl	-0.000115	-1.121535	-0.439017
Cl154	Cl	0.499885	-0.621535	0.060983
H155	H	-0.000138	-1.076575	-0.604181
H156	H	0.499862	-0.576575	-0.104181
H157	H	-0.000080	-0.830493	-0.437313
H158	H	0.499920	-0.330493	0.062687
H159	H	-0.000082	-0.784690	-0.212924
H160	H	0.499918	-0.284690	0.287076
