data_functionalizedCrystal
_audit_creation_method	'MofGen! by Chris Wilmer'
_symmetry_space_group_name_H-M	'P1'
_symmetry_Int_Tables_number	1
_symmetry_cell_setting	triclinic
loop_
_symmetry_equiv_pos_as_xyz
  x,y,z
_cell_length_a	19.805407
_cell_length_b	25.639239
_cell_length_c	19.805399
_cell_angle_alpha	89.965354
_cell_angle_beta	90.019573
_cell_angle_gamma	89.960118
loop_
_atom_site_label
_atom_site_type_symbol
_atom_site_fract_x
_atom_site_fract_y
_atom_site_fract_z
Zn1	Zn	1.034672	0.208163	0.382686
Zn2	Zn	1.534672	0.708163	0.882686
Zn3	Zn	1.034561	0.295597	0.269484
Zn4	Zn	1.534561	0.795597	0.769484
Zn5	Zn	0.921487	0.208177	0.269511
Zn6	Zn	1.421487	0.708177	0.769511
Zn7	Zn	0.921424	0.295569	0.382631
Zn8	Zn	1.421424	0.795569	0.882631
O9	O	0.978036	0.251877	0.326078
O10	O	1.478036	0.751877	0.826078
O11	O	1.129374	0.219767	0.367682
O12	O	1.629374	0.719767	0.867682
O13	O	1.019541	0.284018	0.174771
O14	O	1.519541	0.784018	0.674771
O15	O	0.936574	0.135010	0.284558
O16	O	1.436574	0.635010	0.784558
O17	O	1.129292	0.284004	0.284513
O18	O	1.629292	0.784004	0.784513
O19	O	1.019731	0.135000	0.367708
O20	O	1.519731	0.635000	0.867708
O21	O	0.936466	0.219791	0.174791
O22	O	1.436466	0.719791	0.674791
O23	O	0.826762	0.219764	0.284505
O24	O	1.326762	0.719764	0.784505
O25	O	0.936467	0.283957	0.477355
O26	O	1.436467	0.783957	0.977355
O27	O	0.826716	0.283971	0.367613
O28	O	1.326716	0.783971	0.867613
O29	O	1.019670	0.219740	0.477396
O30	O	1.519670	0.719740	0.977396
O31	O	1.019480	0.368758	0.284459
O32	O	1.519480	0.868758	0.784459
O33	O	0.936358	0.368738	0.367587
O34	O	1.436358	0.868738	0.867587
C35	C	0.802180	0.251867	0.326056
C36	C	1.302180	0.751867	0.826056
C37	C	0.726948	0.251875	0.326063
C38	C	1.226948	0.751875	0.826063
C39	C	0.691597	0.285357	0.369268
C40	C	1.191597	0.785357	0.869268
C41	C	0.620909	0.285358	0.369277
C42	C	1.120909	0.785358	0.869277
C43	C	0.585572	0.251879	0.326078
C44	C	1.085572	0.751879	0.826078
C45	C	0.620928	0.218393	0.282872
C46	C	1.120928	0.718393	0.782872
C47	C	0.691615	0.218390	0.282866
C48	C	1.191615	0.718390	0.782866
C49	C	0.335855	0.218404	0.282894
C50	C	0.835855	0.718404	0.782894
C51	C	0.265162	0.218411	0.282901
C52	C	0.765162	0.718411	0.782901
C53	C	0.265148	0.285373	0.369305
C54	C	0.765148	0.785373	0.869305
C55	C	0.335836	0.285370	0.369299
C56	C	0.835836	0.785370	0.869299
C57	C	0.371185	0.251882	0.326096
C58	C	0.871185	0.751882	0.826096
C59	C	0.447833	0.251881	0.326087
C60	C	0.947833	0.751881	0.826087
C61	C	0.508925	0.251883	0.326083
C62	C	1.008925	0.751883	0.826083
C63	C	0.977918	0.387719	0.326029
C64	C	1.477918	0.887719	0.826029
C65	C	0.977930	0.445833	0.326031
C66	C	1.477930	0.945833	0.826031
C67	C	1.021268	0.806152	0.369468
C68	C	1.521268	1.306152	0.869468
C69	C	1.021279	0.860757	0.369483
C70	C	1.521279	1.360757	0.869483
O71	O	1.058058	0.888956	0.406353
O72	O	1.558058	1.388956	0.906353
N73	N	0.978027	0.888116	0.326162
N74	N	1.478027	1.388116	0.826162
C75	C	0.934757	0.860868	0.282827
C76	C	1.434757	1.360868	0.782827
O77	O	0.897969	0.889153	0.245980
O78	O	1.397969	1.389153	0.745980
C79	C	0.934743	0.806264	0.282815
C80	C	1.434743	1.306264	0.782815
C81	C	0.978002	0.778908	0.326135
C82	C	1.478002	1.278908	0.826135
C83	C	1.064523	0.778796	0.412785
C84	C	1.564523	1.278796	0.912785
C85	C	1.064513	0.724195	0.412768
C86	C	1.564513	1.224195	0.912768
C87	C	1.021247	0.696951	0.369435
C88	C	1.521247	1.196951	0.869435
C89	C	0.977992	0.724308	0.326119
C90	C	1.477992	1.224308	0.826119
C91	C	0.891469	0.779017	0.239484
C92	C	1.391469	1.279017	0.739484
C93	C	0.891459	0.724410	0.239477
C94	C	1.391459	1.224410	0.739477
C95	C	0.934718	0.697054	0.282797
C96	C	1.434718	1.197054	0.782797
C97	C	0.934715	0.642463	0.282769
C98	C	1.434715	1.142463	0.782769
N99	N	0.977967	0.615104	0.326091
N100	N	1.477967	1.115104	0.826091
C101	C	1.021233	0.642348	0.369424
C102	C	1.521233	1.142348	0.869424
C103	C	0.934789	0.975538	0.282855
C104	C	1.434789	1.475538	0.782855
C105	C	0.934806	1.030141	0.282862
C106	C	1.434806	1.530141	0.782862
C107	C	1.021327	1.030026	0.369520
C108	C	1.521327	1.530026	0.869520
C109	C	1.021313	0.975422	0.369508
C110	C	1.521313	1.475422	0.869508
C111	C	0.978041	0.948179	0.326176
C112	C	1.478041	1.448179	0.826176
C113	C	1.021208	0.527683	0.369386
C114	C	1.521208	1.027683	0.869386
C115	C	1.021196	0.473077	0.369364
C116	C	1.521196	0.973077	0.869364
C117	C	0.934672	0.473197	0.282709
C118	C	1.434672	0.973197	0.782709
C119	C	0.934687	0.527798	0.282728
C120	C	1.434687	1.027798	0.782728
C121	C	0.977957	0.555039	0.326072
C122	C	1.477957	1.055039	0.826072
O123	O	0.897954	0.614229	0.245920
O124	O	1.397954	1.114229	0.745920
O125	O	1.058009	0.614056	0.406270
O126	O	1.558009	1.114056	0.906270
C127	C	1.154579	0.251887	0.326100
C128	C	1.654579	0.751887	0.826100
C129	C	1.229811	0.251891	0.326110
C130	C	1.729811	0.751891	0.826110
C131	C	0.978132	1.115504	0.326149
C132	C	1.478132	1.615504	0.826149
C133	C	0.978069	1.057390	0.326198
C134	C	1.478069	1.557390	0.826198
C135	C	0.978074	0.251844	0.502621
C136	C	1.478074	0.751844	1.002621
C137	C	0.978090	0.251830	0.577853
C138	C	1.478090	0.751830	1.077853
C139	C	0.978037	0.251872	0.150222
C140	C	1.478037	0.751872	0.650222
C141	C	0.978152	0.251738	0.074991
C142	C	1.478152	0.751738	0.574991
C143	C	1.021415	0.218390	0.613219
C144	C	1.521415	0.718390	1.113219
C145	C	1.021422	0.218375	0.683908
C146	C	1.521422	0.718375	1.183908
C147	C	0.978107	0.251802	0.719229
C148	C	1.478107	0.751802	1.219229
C149	C	0.934777	0.285243	0.683857
C150	C	1.434777	0.785243	1.183857
C151	C	0.934767	0.285255	0.613170
C152	C	1.434767	0.785255	1.113170
C153	C	0.934815	0.285195	0.968931
C154	C	1.434815	0.785195	1.468931
C155	C	0.934830	0.285181	1.039623
C156	C	1.434830	0.785181	1.539623
C157	C	1.021470	0.218314	1.039669
C158	C	1.521470	0.718314	1.539669
C159	C	1.021460	0.218326	0.968981
C160	C	1.521460	0.718326	1.468981
C161	C	0.978128	0.251765	0.933616
C162	C	1.478128	0.751765	1.433616
C163	C	0.978120	0.251780	0.856968
C164	C	1.478120	0.751780	1.356968
C165	C	0.978118	0.251790	0.795876
C166	C	1.478118	0.751790	1.295876
H167	H	0.720363	0.312622	0.404443
H168	H	1.220363	0.812622	0.904443
H169	H	1.099736	0.701925	0.448045
H170	H	1.599736	1.201925	0.948045
H171	H	0.899467	0.550072	0.247449
H172	H	1.399467	1.050072	0.747449
O173	O	1.063598	0.185925	0.934636
O174	O	1.563598	0.685925	1.434636
C175	C	1.107269	0.215694	0.893721
C176	C	1.607269	0.715694	1.393721
H177	H	1.111429	0.256868	0.915004
H178	H	1.611429	0.756868	1.415004
H179	H	1.086321	0.217507	0.840148
H180	H	1.586321	0.717507	1.340148
C181	C	1.172539	0.139570	0.866507
C182	C	1.672539	0.639570	1.366507
C183	C	1.177653	0.190141	0.892650
C184	C	1.677653	0.690141	1.392650
H185	H	1.215955	0.123807	0.865843
H186	H	1.715955	0.623807	1.365843
H187	H	1.143117	0.119514	0.894070
H188	H	1.643117	0.619514	1.394070
H189	H	1.155081	0.141089	0.821865
H190	H	1.655081	0.641089	1.321865
H191	H	1.195104	0.188621	0.937293
H192	H	1.695104	0.688621	1.437293
H193	H	1.207081	0.210196	0.865094
H194	H	1.707081	0.710196	1.365094
O195	O	0.892666	0.446646	0.240682
O196	O	1.392666	0.946646	0.740682
C197	C	0.901948	0.392586	0.249953
C198	C	1.401948	0.892586	0.749953
H199	H	0.924089	0.385088	0.302205
H200	H	1.424089	0.885088	0.802205
H201	H	0.938010	0.377090	0.209834
H202	H	1.438010	0.877090	0.709834
C203	C	0.806270	0.373808	0.179514
C204	C	1.306270	0.873808	0.679514
C205	C	0.833459	0.364597	0.243693
C206	C	1.333459	0.864597	0.743693
H207	H	0.764023	0.356542	0.175649
H208	H	1.264023	0.856542	0.675649
H209	H	0.800017	0.410228	0.173265
H210	H	1.300017	0.910228	0.673265
H211	H	0.836328	0.360894	0.146088
H212	H	1.336328	0.860894	0.646088
H213	H	0.803405	0.377516	0.277117
H214	H	1.303405	0.877516	0.777117
H215	H	0.839704	0.328178	0.249947
H216	H	1.339704	0.828178	0.749947
H217	H	1.056750	0.191085	1.068471
H218	H	1.556750	0.691085	1.568471
O219	O	0.892695	0.317719	0.934687
O220	O	1.392695	0.817719	1.434687
C221	C	0.854452	0.347206	0.981023
C222	C	1.354452	0.847206	1.481023
H223	H	0.882191	0.349020	1.031410
H224	H	1.382191	0.849020	1.531410
H225	H	0.803077	0.328042	0.988553
H226	H	1.303077	0.828042	1.488553
C227	C	0.810539	0.400623	0.891515
C228	C	1.310539	0.900623	1.391515
C229	C	0.844611	0.402855	0.953399
C230	C	1.344611	0.902855	1.453399
H231	H	0.804465	0.434949	0.874474
H232	H	1.304465	0.934949	1.374474
H233	H	0.836301	0.380756	0.860297
H234	H	1.336301	0.880756	1.360297
H235	H	0.767729	0.384651	0.897798
H236	H	1.267729	0.884651	1.397798
H237	H	0.887422	0.418820	0.947113
H238	H	1.387422	0.918820	1.447113
H239	H	0.818855	0.422726	0.984615
H240	H	1.318855	0.922726	1.484615
O241	O	0.892734	0.317787	0.718092
O242	O	1.392734	0.817787	1.218092
C243	C	0.907482	0.369902	0.700808
C244	C	1.407482	0.869902	1.200808
H245	H	0.933491	0.370995	0.649488
H246	H	1.433491	0.870995	1.149488
H247	H	0.942270	0.387507	0.740588
H248	H	1.442270	0.887507	1.240588
C249	C	0.809520	0.400225	0.760546
C250	C	1.309520	0.900225	1.260546
C251	C	0.841460	0.401569	0.697512
C252	C	1.341460	0.901569	1.197512
H253	H	0.768795	0.419760	0.758516
H254	H	1.268795	0.919760	1.258516
H255	H	0.799585	0.365115	0.772194
H256	H	1.299585	0.865115	1.272194
H257	H	0.838517	0.414896	0.793690
H258	H	1.338517	0.914896	1.293690
H259	H	0.812466	0.386893	0.664371
H260	H	1.312466	0.886893	1.164371
H261	H	0.851388	0.436678	0.685859
H262	H	1.351388	0.936678	1.185859
O263	O	0.370192	0.317946	0.411168
O264	O	0.870192	0.817946	0.911168
C265	C	0.411051	0.351666	0.372549
C266	C	0.911051	0.851666	0.872549
H267	H	0.389724	0.354847	0.319235
H268	H	0.889724	0.854847	0.819235
H269	H	0.464635	0.335493	0.370252
H270	H	0.964635	0.835493	0.870252
C271	C	0.438306	0.402143	0.470969
C272	C	0.938306	0.902143	0.970969
C273	C	0.412108	0.406053	0.405489
C274	C	0.912108	0.906053	0.905489
H275	H	0.438961	0.435691	0.491289
H276	H	0.938961	0.935691	0.991289
H277	H	0.410780	0.379424	0.496988
H278	H	0.910780	0.879424	0.996988
H279	H	0.482956	0.388663	0.469046
H280	H	0.982956	0.888663	0.969046
H281	H	0.367456	0.419527	0.407414
H282	H	0.867456	0.919527	0.907414
H283	H	0.439626	0.428776	0.379471
H284	H	0.939626	0.928776	0.879471
H285	H	0.236358	0.312639	0.404486
H286	H	0.736358	0.812639	0.904486
O287	O	1.063321	1.056438	0.411713
O288	O	1.563321	1.556438	0.911713
C289	C	1.048472	1.043077	0.479156
C290	C	1.548472	1.543077	0.979156
H291	H	1.022448	1.003446	0.480527
H292	H	1.522448	1.503446	0.980527
H293	H	1.013661	1.073816	0.501924
H294	H	1.513661	1.573816	1.001924
C295	C	1.146392	1.089167	0.518538
C296	C	1.646392	1.589167	1.018538
C297	C	1.114434	1.040490	0.520222
C298	C	1.614434	1.540490	1.020222
H299	H	1.187080	1.087574	0.543870
H300	H	1.687080	1.587574	1.043870
H301	H	1.156395	1.098171	0.473100
H302	H	1.656395	1.598171	0.973100
H303	H	1.117376	1.114778	0.537509
H304	H	1.617376	1.614778	1.037509
H305	H	1.143447	1.014881	0.501243
H306	H	1.643447	1.514881	1.001243
H307	H	1.104437	1.031481	0.565657
H308	H	1.604437	1.531481	1.065657
H309	H	1.056425	0.450806	0.404639
H310	H	1.556425	0.950806	0.904639
O311	O	0.892725	1.056630	0.240755
O312	O	1.392725	1.556630	0.740755
C313	C	0.854552	1.020868	0.202495
C314	C	1.354552	1.520868	0.702495
H315	H	0.852189	0.981930	0.230209
H316	H	1.352189	1.481930	0.730209
H317	H	0.879369	1.015076	0.151112
H318	H	1.379369	1.515076	0.651112
C319	C	0.785426	1.090050	0.158635
C320	C	1.285426	1.590050	0.658635
C321	C	0.782518	1.042227	0.192677
C322	C	1.282518	1.542227	0.692677
H323	H	0.740992	1.103226	0.152576
H324	H	1.240992	1.603226	0.652576
H325	H	0.811145	1.114144	0.184409
H326	H	1.311145	1.614144	0.684409
H327	H	0.806110	1.085217	0.115820
H328	H	1.306110	1.585217	0.615820
H329	H	0.761842	1.047063	0.235495
H330	H	1.261842	1.547063	0.735495
H331	H	0.756794	1.018134	0.166910
H332	H	1.256794	1.518134	0.666910
O333	O	0.230940	0.185835	0.240917
O334	O	0.730940	0.685835	0.740917
C335	C	0.277297	0.156285	0.202772
C336	C	0.777297	0.656285	0.702772
H337	H	0.327699	0.154499	0.230494
H338	H	0.827699	0.654499	0.730494
H339	H	0.284778	0.175374	0.151316
H340	H	0.784778	0.675374	0.651316
C341	C	0.187840	0.102825	0.159116
C342	C	0.687840	0.602825	0.659116
C343	C	0.249743	0.100628	0.193168
C344	C	0.749743	0.600628	0.693168
H345	H	0.170843	0.068493	0.153189
H346	H	0.670843	0.568493	0.653189
H347	H	0.156607	0.122734	0.184813
H348	H	0.656607	0.622734	0.684813
H349	H	0.194082	0.118735	0.116239
H350	H	0.694082	0.618735	0.616239
H351	H	0.243498	0.084724	0.236047
H352	H	0.743498	0.584724	0.736047
H353	H	0.280974	0.080714	0.167478
H354	H	0.780974	0.580714	0.667478
H355	H	1.099755	0.800972	0.448075
H356	H	1.599755	1.300972	0.948075
H357	H	0.899555	0.312402	1.068379
H358	H	1.399555	0.812402	1.568379
H359	H	0.364628	0.191140	0.247710
H360	H	0.864628	0.691140	0.747710
H361	H	0.899481	0.312480	0.584376
H362	H	1.399481	0.812480	1.084376
O363	O	1.063301	0.554059	0.411514
O364	O	1.563301	1.054059	0.911514
C365	C	1.101458	0.518196	0.449751
C366	C	1.601458	1.018196	0.949751
H367	H	1.103808	0.479292	0.422011
H368	H	1.603808	0.979292	0.922011
H369	H	1.076636	0.512368	0.501129
H370	H	1.576636	1.012368	1.001129
C371	C	1.170609	0.587229	0.493661
C372	C	1.670609	1.087229	0.993661
C373	C	1.173500	0.539448	0.459587
C374	C	1.673500	1.039448	0.959587
H375	H	1.215047	0.600339	0.499732
H376	H	1.715047	1.100339	0.999732
H377	H	1.144901	0.611391	0.467902
H378	H	1.644901	1.111391	0.967902
H379	H	1.149921	0.582366	0.536472
H380	H	1.649921	1.082366	1.036472
H381	H	1.194180	0.544313	0.416774
H382	H	1.694180	1.044313	0.916774
H383	H	1.199214	0.515287	0.485340
H384	H	1.699214	1.015287	0.985340
H385	H	0.592130	0.312624	0.404458
H386	H	1.092130	0.812624	0.904458
O387	O	0.849380	0.805502	0.197384
O388	O	1.349380	1.305502	0.697384
C389	C	0.811204	0.769736	0.159133
C390	C	1.311204	1.269736	0.659133
H391	H	0.808848	0.730799	0.186851
H392	H	1.308848	1.230799	0.686851
H393	H	0.836014	0.763942	0.107747
H394	H	1.336014	1.263942	0.607747
C395	C	0.742064	0.838912	0.115279
C396	C	1.242064	1.338912	0.615279
C397	C	0.739166	0.791091	0.149325
C398	C	1.239166	1.291091	0.649325
H399	H	0.697629	0.852085	0.109226
H400	H	1.197629	1.352085	0.609226
H401	H	0.767785	0.863009	0.141047
H402	H	1.267785	1.363009	0.641047
H403	H	0.762742	0.834078	0.072461
H404	H	1.262742	1.334078	0.572461
H405	H	0.718497	0.795927	0.192146
H406	H	1.218497	1.295927	0.692146
H407	H	0.713440	0.766995	0.123564
H408	H	1.213440	1.266995	0.623564
O409	O	0.586499	0.185917	0.240933
O410	O	1.086499	0.685917	0.740933
C411	C	0.516528	0.193089	0.250213
C412	C	1.016528	0.693089	0.750213
H413	H	0.506849	0.233463	0.272276
H414	H	1.006849	0.733463	0.772276
H415	H	0.496511	0.162116	0.286340
H416	H	0.996511	0.662116	0.786340
C417	C	0.492099	0.138637	0.154647
C418	C	0.992099	0.638637	0.654647
C419	C	0.480211	0.188226	0.181740
C420	C	0.980211	0.688226	0.681740
H421	H	0.469696	0.135635	0.112410
H422	H	0.969696	0.635635	0.612410
H423	H	0.539240	0.133803	0.148395
H424	H	1.039240	0.633803	0.648395
H425	H	0.475418	0.112831	0.184759
H426	H	0.975418	0.612831	0.684759
H427	H	0.496900	0.214030	0.151632
H428	H	0.996900	0.714030	0.651632
H429	H	0.433072	0.193064	0.187985
H430	H	0.933072	0.693064	0.687985
H431	H	0.856219	0.702231	0.204192
H432	H	1.356219	1.202231	0.704192
O433	O	1.063236	0.948793	0.411626
O434	O	1.563236	1.448793	0.911626
C435	C	1.024666	0.917221	0.455314
C436	C	1.524666	1.417221	0.955314
H437	H	0.973385	0.909088	0.431393
H438	H	1.473385	1.409088	0.931393
H439	H	1.017203	0.938244	0.505468
H440	H	1.517203	1.438244	1.005468
C441	C	1.124872	0.875312	0.496982
C442	C	1.624872	1.375312	0.996982
C443	C	1.061890	0.865319	0.467599
C444	C	1.561890	1.365319	0.967599
H445	H	1.147834	0.843297	0.504563
H446	H	1.647834	1.343297	1.004563
H447	H	1.150858	0.896584	0.467551
H448	H	1.650858	1.396584	0.967551
H449	H	1.118644	0.892833	0.538774
H450	H	1.618644	1.392833	1.038774
H451	H	1.068119	0.847805	0.425804
H452	H	1.568119	1.347805	0.925804
H453	H	1.035906	0.844043	0.497024
H454	H	1.535906	1.344043	0.997024
H455	H	0.720397	0.191122	0.247688
H456	H	1.220397	0.691122	0.747688
H457	H	0.899553	0.953359	0.247563
H458	H	1.399553	1.453359	0.747563
H459	H	1.056689	0.191171	0.584466
H460	H	1.556689	0.691171	1.084466
H461	H	1.056703	0.191147	0.712700
H462	H	1.556703	0.691147	1.212700
