data_functionalizedCrystal
_audit_creation_method	'MofGen! by Chris Wilmer'
_symmetry_space_group_name_H-M	'P1'
_symmetry_Int_Tables_number	1
_symmetry_cell_setting	triclinic
loop_
_symmetry_equiv_pos_as_xyz
  x,y,z
_cell_length_a	19.188933
_cell_length_b	19.188924
_cell_length_c	16.053802
_cell_angle_alpha	92.554672
_cell_angle_beta	87.428887
_cell_angle_gamma	83.143767
loop_
_atom_site_label
_atom_site_type_symbol
_atom_site_fract_x
_atom_site_fract_y
_atom_site_fract_z
O1	O	0.929095	0.084227	-0.069405
O2	O	0.725784	0.095959	-0.069413
O3	O	0.833309	-0.011563	-0.069399
O4	O	0.821571	0.191748	-0.069419
O5	O	0.827391	-0.005669	0.069459
O6	O	0.719866	0.101853	0.069445
O7	O	0.923177	0.090121	0.069453
Zn8	Zn	0.820582	0.096923	0.091496
Zn9	Zn	0.828379	0.089157	-0.091456
O10	O	0.815652	0.197642	0.069439
C11	C	0.696814	0.098526	0.000015
C12	C	0.619310	0.097385	0.000012
C13	C	0.829970	-0.034627	0.000031
C14	C	0.828832	-0.112131	0.000033
C15	C	0.069280	0.086027	-0.075670
C16	C	0.142105	0.087095	-0.075673
C17	C	0.175296	0.090845	0.000018
C18	C	0.135658	0.093509	0.075718
C19	C	0.062836	0.092434	0.075720
N20	N	0.281913	0.134655	0.056355
N21	N	0.351091	0.135678	0.056348
C22	C	0.394704	0.094083	0.000019
N23	N	0.366525	0.051436	-0.056316
N24	N	0.297341	0.050416	-0.056312
C25	C	0.254259	0.092011	0.000025
C26	C	0.513298	0.092572	-0.075680
C27	C	0.586124	0.093636	-0.075680
C28	C	0.579675	0.100057	0.075714
C29	C	0.506851	0.098986	0.075712
C30	C	0.473667	0.095247	0.000013
C31	C	0.831526	-0.151743	-0.075659
C32	C	0.830447	-0.224566	-0.075665
C33	C	0.826686	-0.257776	0.000025
C34	C	0.823987	-0.218155	0.075726
C35	C	0.825060	-0.145332	0.075731
N36	N	0.862333	-0.375048	0.056360
N37	N	0.861315	-0.444227	0.056351
C38	C	0.823452	-0.477186	0.000016
N39	N	0.786654	-0.438354	-0.056322
N40	N	0.787675	-0.369170	-0.056315
C41	C	0.825522	-0.336739	0.000028
C42	C	0.824976	-0.595761	-0.075688
C43	C	0.823891	-0.668584	-0.075691
C44	C	0.817439	-0.662172	0.075703
C45	C	0.818516	-0.589349	0.075704
C46	C	0.822288	-0.556148	0.000006
C47	C	0.952147	0.087554	0.000023
C48	C	1.029652	0.088695	0.000021
C49	C	0.818991	0.220706	0.000007
C50	C	0.820130	0.298211	-0.000000
N51	N	0.815265	0.102222	0.216355
N52	N	0.833702	0.083852	-0.216315
C53	C	0.861034	0.056488	0.260055
C54	C	0.857321	0.060201	0.347462
C55	C	0.807843	0.109653	0.391166
C56	C	0.762069	0.155390	0.347460
C57	C	0.765779	0.151672	0.260056
C58	C	0.791638	0.125871	0.652574
C59	C	0.787933	0.129587	0.739985
C60	C	0.883184	0.034397	0.739980
C61	C	0.886892	0.030687	0.652574
C62	C	0.841117	0.076421	0.608875
N63	N	0.804048	0.113452	0.480510
N64	N	0.844908	0.072618	0.519533
H65	H	0.042267	0.082979	-0.137310
H66	H	0.822863	-0.113080	0.137370
H67	H	0.728509	0.188913	0.224476
H68	H	0.174376	0.084926	-0.137311
Cl69	Cl	0.725727	0.191762	0.794922
H70	H	0.834595	-0.124715	-0.137298
H71	H	0.826082	-0.700835	-0.137331
Cl72	Cl	0.177383	0.098221	0.170873
H73	H	0.894589	0.022960	0.383042
Cl74	Cl	0.013014	0.095792	0.170881
H75	H	0.486278	0.089525	-0.137318
H76	H	0.618390	0.091458	-0.137319
H77	H	0.606698	0.103108	0.137343
Cl78	Cl	0.923242	-0.005681	0.205122
Cl79	Cl	0.734096	0.183367	0.597644
H80	H	0.474584	0.101161	0.137347
H81	H	0.832637	-0.256824	-0.137304
Cl82	Cl	0.699864	0.217556	0.402401
H83	H	0.820923	-0.245199	0.137353
H84	H	0.828043	-0.568726	-0.137325
Cl85	Cl	0.812708	-0.703915	0.170857
H86	H	0.927182	-0.009581	0.616991
Cl87	Cl	0.815128	-0.539549	0.170865
H88	H	0.920452	-0.002838	0.775567
