data_functionalizedCrystal
_audit_creation_method	'MofGen! by Chris Wilmer'
_symmetry_space_group_name_H-M	'P1'
_symmetry_Int_Tables_number	1
_symmetry_cell_setting	triclinic
loop_
_symmetry_equiv_pos_as_xyz
  x,y,z
_cell_length_a	12.759401
_cell_length_b	12.759400
_cell_length_c	12.759393
_cell_angle_alpha	90.029373
_cell_angle_beta	90.019554
_cell_angle_gamma	90.013326
loop_
_atom_site_label
_atom_site_type_symbol
_atom_site_fract_x
_atom_site_fract_y
_atom_site_fract_z
Zn1	Zn	1.606278	-0.418211	0.593990
Zn2	Zn	1.606173	-0.593927	0.418313
Zn3	Zn	1.430576	-0.418263	0.418329
Zn4	Zn	1.430573	-0.593849	0.593955
O5	O	1.518400	-0.506062	0.506147
O6	O	1.753285	-0.441531	0.570694
O7	O	1.582838	-0.570678	0.271294
O8	O	1.453928	-0.271235	0.441652
O9	O	1.753208	-0.570628	0.441625
O10	O	1.583015	-0.271197	0.570709
O11	O	1.453827	-0.441619	0.271306
O12	O	1.283555	-0.441544	0.441618
O13	O	1.453923	-0.570496	0.740980
O14	O	1.283552	-0.570546	0.570649
O15	O	1.583012	-0.441456	0.741006
O16	O	1.582835	-0.740937	0.441591
O17	O	1.453822	-0.740880	0.570634
C18	C	1.245433	-0.506043	0.506132
C19	C	1.128656	-0.506060	0.506151
C20	C	1.073820	-0.573339	0.573227
C21	C	0.964096	-0.573352	0.573238
C22	C	0.964053	-0.438804	0.439089
C23	C	1.073775	-0.438787	0.439084
C24	C	1.128701	-0.640612	0.640294
C25	C	1.073865	-0.707898	0.707374
C26	C	0.964141	-0.707911	0.707385
C27	C	0.909253	-0.640639	0.640316
C28	C	1.518345	-0.779030	0.506130
C29	C	1.518417	-0.895806	0.506158
C30	C	1.585599	-0.950569	0.573413
C31	C	1.585648	-1.060293	0.573439
C32	C	1.451330	-1.060482	0.438945
C33	C	1.451277	-0.950760	0.438926
C34	C	1.652740	-0.895615	0.640645
C35	C	1.719928	-0.950378	0.707905
C36	C	1.719977	-1.060102	0.707931
C37	C	1.652838	-1.115063	0.640697
C38	C	1.792433	-0.506082	0.506161
C39	C	1.909210	-0.506091	0.506168
C40	C	1.518479	-0.505961	0.780180
C41	C	1.518512	-0.505918	0.896957
C42	C	1.518484	-0.232029	0.506186
C43	C	1.518520	-0.115252	0.506203
C44	C	1.518382	-0.506087	0.233179
C45	C	1.518552	-0.505834	0.116403
C46	C	1.585734	-0.438716	0.951834
C47	C	1.585752	-0.438671	1.061558
C48	C	1.451323	-0.573039	1.061518
C49	C	1.451301	-0.573078	0.951796
H50	H	0.919496	-0.762690	0.762012
C51	C	0.903672	-0.364817	0.365313
N52	N	0.858193	-0.309091	0.309740
H53	H	0.819908	-0.640646	0.640340
C54	C	1.377344	-0.647006	0.891428
N55	N	1.321640	-0.702684	0.845958
H56	H	1.118424	-0.383994	0.384473
H57	H	1.118562	-0.762661	0.761985
C58	C	1.249399	-0.640629	0.640261
N59	N	1.340309	-0.640652	0.640226
C60	C	1.377383	-0.890518	0.364932
N61	N	1.321725	-0.845143	0.309197
H62	H	1.652710	-0.806272	0.640630
C63	C	1.793775	-0.889918	0.781861
N64	N	1.849399	-0.844381	0.837565
C65	C	1.793885	-1.120337	0.781916
N66	N	1.849562	-1.165705	0.837638
H67	H	1.652871	-1.204408	0.640735
H68	H	1.396669	-1.105240	0.384206
C69	C	1.659659	-0.364829	0.891514
N70	N	1.715338	-0.309172	0.846085
H71	H	1.640489	-0.383947	1.106234
H72	H	1.396604	-0.627720	1.106182
