data_functionalizedCrystal
_audit_creation_method	'MofGen! by Chris Wilmer'
_symmetry_space_group_name_H-M	'P1'
_symmetry_Int_Tables_number	1
_symmetry_cell_setting	triclinic
loop_
_symmetry_equiv_pos_as_xyz
  x,y,z
_cell_length_a	18.101395
_cell_length_b	18.101398
_cell_length_c	21.395355
_cell_angle_alpha	89.966328
_cell_angle_beta	90.015727
_cell_angle_gamma	89.973721
loop_
_atom_site_label
_atom_site_type_symbol
_atom_site_fract_x
_atom_site_fract_y
_atom_site_fract_z
Zn1	Zn	-0.295011	-1.132162	0.354426
Zn2	Zn	0.204989	-0.632162	0.854426
Zn3	Zn	-0.418834	-1.132045	0.249654
Zn4	Zn	0.081166	-0.632045	0.749654
Zn5	Zn	-0.295000	-1.008309	0.249646
Zn6	Zn	0.205000	-0.508309	0.749646
Zn7	Zn	-0.418804	-1.008271	0.354377
Zn8	Zn	0.081196	-0.508271	0.854377
O9	O	-0.356912	-1.070197	0.302026
O10	O	0.143088	-0.570197	0.802026
O11	O	-0.311453	-1.235779	0.340551
O12	O	0.188547	-0.735779	0.840551
O13	O	-0.402415	-1.115598	0.161975
O14	O	0.097585	-0.615598	0.661975
O15	O	-0.191369	-1.024802	0.263563
O16	O	0.308631	-0.524802	0.763563
O17	O	-0.402425	-1.235694	0.263575
O18	O	0.097575	-0.735694	0.763575
O19	O	-0.191376	-1.115796	0.340544
O20	O	0.308624	-0.615796	0.840544
O21	O	-0.311435	-1.024689	0.161969
O22	O	0.188565	-0.524689	0.661969
O23	O	-0.311407	-0.904671	0.263515
O24	O	0.188593	-0.404671	0.763515
O25	O	-0.402375	-1.024739	0.442062
O26	O	0.097625	-0.524739	0.942062
O27	O	-0.402365	-0.904643	0.340461
O28	O	0.097635	-0.404643	0.840461
O29	O	-0.311424	-1.115760	0.442097
O30	O	0.188576	-0.615760	0.942097
O31	O	-0.522463	-1.115562	0.263528
O32	O	-0.022463	-0.615562	0.763528
O33	O	-0.522441	-1.024626	0.340468
O34	O	-0.022441	-0.524626	0.840468
C35	C	-0.356882	-0.877786	0.301982
C36	C	0.143118	-0.377786	0.801982
C37	C	-0.356887	-0.795472	0.301978
C38	C	0.143113	-0.295472	0.801978
C39	C	-0.356895	-0.644764	0.301999
C40	C	0.143105	-0.144764	0.801999
C41	C	-0.299583	-0.613402	0.253666
C42	C	0.200417	-0.113402	0.753666
C43	C	-0.299364	-0.527784	0.253821
C44	C	0.200636	-0.027784	0.753821
C45	C	-0.356904	-0.496381	0.302019
C46	C	0.143096	0.003619	0.802019
C47	C	-0.336087	-0.527529	0.368125
C48	C	0.163913	-0.027529	0.868125
C49	C	-0.335667	-0.613173	0.367835
C50	C	0.164333	-0.113173	0.867835
C51	C	-0.435170	-0.613158	0.284807
C52	C	0.064830	-0.113158	0.784807
C53	C	-0.434754	-0.527506	0.283362
C54	C	0.065246	-0.027506	0.783362
C55	C	-0.356910	-0.412522	0.302034
C56	C	0.143090	0.087478	0.802034
C57	C	-0.356888	-0.728623	0.301989
C58	C	0.143112	-0.228623	0.801989
C59	C	-0.549323	-1.070098	0.302007
C60	C	-0.049323	-0.570098	0.802007
C61	C	-0.631637	-1.070123	0.302020
C62	C	-0.131637	-0.570123	0.802020
C63	C	-0.930728	-1.070285	0.302054
C64	C	-0.430728	-0.570285	0.802054
C65	C	-0.899420	-1.013203	0.350583
C66	C	-0.399420	-0.513203	0.850583
C67	C	-0.813802	-1.012932	0.350431
C68	C	-0.313802	-0.512932	0.850431
C69	C	-0.782345	-1.070205	0.302038
C70	C	-0.282345	-0.570205	0.802038
C71	C	-0.813479	-1.049068	0.236002
C72	C	-0.313479	-0.549068	0.736002
C73	C	-0.899124	-1.048700	0.236292
C74	C	-0.399124	-0.548700	0.736292
C75	C	-0.899082	-1.148629	0.318980
C76	C	-0.399082	-0.648629	0.818980
C77	C	-0.813432	-1.148169	0.320428
C78	C	-0.313432	-0.648169	0.820428
C79	C	-0.698486	-1.070161	0.302025
C80	C	-0.198486	-0.570161	0.802025
C81	C	-1.014587	-1.070328	0.302063
C82	C	-0.514587	-0.570328	0.802063
C83	C	-0.163750	-1.070316	0.302058
C84	C	0.336250	-0.570316	0.802058
C85	C	-0.081436	-1.070367	0.302072
C86	C	0.418564	-0.570367	0.802072
C87	C	-0.356897	-1.070258	0.465449
C88	C	0.143103	-0.570258	0.965449
C89	C	-0.356891	-1.070284	0.535090
C90	C	0.143109	-0.570284	1.035090
C91	C	-0.356932	-0.263359	0.302057
C92	C	0.143068	0.236641	0.802057
C93	C	-0.356912	-0.345673	0.302039
C94	C	0.143088	0.154327	0.802039
C95	C	-0.356874	-1.070178	0.139238
C96	C	0.143126	-0.570178	0.639238
C97	C	-0.356672	-1.070295	0.069597
C98	C	0.143328	-0.570295	0.569597
C99	C	-0.309531	-1.117677	0.567823
C100	C	0.190469	-0.617677	1.067823
C101	C	-0.309499	-1.117676	0.633259
C102	C	0.190501	-0.617676	1.133259
C103	C	-0.356841	-1.070290	0.665959
C104	C	0.143159	-0.570290	1.165959
C105	C	-0.404204	-1.022888	0.633218
C106	C	0.095796	-0.522888	1.133218
C107	C	-0.404229	-1.022885	0.567784
C108	C	0.095771	-0.522885	1.067784
C109	C	-0.423521	-1.064408	0.769626
C110	C	0.076479	-0.564408	1.269626
C111	C	-0.423497	-1.064416	0.835059
C112	C	0.076503	-0.564416	1.335059
C113	C	-0.356762	-1.070295	0.867780
C114	C	0.143238	-0.570295	1.367780
C115	C	-0.290049	-1.076181	0.835059
C116	C	0.209951	-0.576181	1.335059
C117	C	-0.290074	-1.076178	0.769625
C118	C	0.209926	-0.576178	1.269625
C119	C	-0.356818	-1.070288	0.736911
C120	C	0.143182	-0.570288	1.236911
C121	C	-0.309364	-1.117689	0.971465
C122	C	0.190636	-0.617689	1.471465
C123	C	-0.309331	-1.117683	1.036902
C124	C	0.190669	-0.617683	1.536902
C125	C	-0.404042	-1.022898	1.036860
C126	C	0.095958	-0.522898	1.536860
C127	C	-0.404069	-1.022901	0.971424
C128	C	0.095931	-0.522901	1.471424
C129	C	-0.356730	-1.070300	0.938731
C130	C	0.143270	-0.570300	1.438731
H131	H	-0.375613	-0.633924	0.405093
H132	H	0.124387	-0.133924	0.905093
H133	H	-0.235754	-1.080968	0.742986
H134	H	0.264246	-0.580968	1.242986
N135	N	-0.455310	-0.971755	0.532484
N136	N	0.044690	-0.471755	1.032484
H137	H	-0.508222	-0.983217	0.543879
H138	H	-0.008222	-0.483217	1.043879
H139	H	-0.448084	-0.978961	0.486080
H140	H	0.051916	-0.478961	0.986080
H141	H	-0.479715	-0.506122	0.315973
H142	H	0.020285	-0.006122	0.815973
H143	H	-0.312349	-0.506721	0.204812
H144	H	0.187651	-0.006721	0.704812
N145	N	-0.786733	-0.936016	0.335569
N146	N	-0.286733	-0.436016	0.835569
H147	H	-0.730939	-0.935519	0.335410
H148	H	-0.230939	-0.435519	0.835410
H149	H	-0.805545	-0.900444	0.368253
H150	H	-0.305545	-0.400444	0.868253
N151	N	-0.786482	-1.102396	0.186795
N152	N	-0.286482	-0.602396	0.686795
H153	H	-0.807171	-1.087749	0.144727
H154	H	-0.307171	-0.587749	0.644727
H155	H	-0.803457	-1.153980	0.197623
H156	H	-0.303457	-0.653980	0.697623
H157	H	-0.312422	-0.633938	0.204496
H158	H	0.187578	-0.133938	0.704496
H159	H	-0.270984	-1.156273	0.541208
H160	H	0.229016	-0.656273	1.041208
H161	H	-0.792751	-1.026157	0.399396
H162	H	-0.292751	-0.526157	0.899396
H163	H	-0.477819	-1.059628	0.861695
H164	H	0.022181	-0.559628	1.361695
H165	H	-0.241911	-0.634951	0.264934
H166	H	0.258089	-0.134951	0.764934
N167	N	-0.927994	-0.936746	0.335923
N168	N	-0.427994	-0.436746	0.835923
H169	H	-0.983729	-0.936638	0.338111
H170	H	-0.483729	-0.436638	0.838111
H171	H	-0.911726	-0.922003	0.292524
H172	H	-0.411726	-0.422003	0.792524
N173	N	-0.258416	-1.168794	0.668574
N174	N	0.241584	-0.668794	1.168574
H175	H	-0.228431	-1.198820	0.637934
H176	H	0.271569	-0.698820	1.137934
H177	H	-0.288563	-1.203044	0.695739
H178	H	0.211437	-0.703044	1.195739
H179	H	-0.376558	-0.507192	0.405132
H180	H	0.123442	-0.007192	0.905132
H181	H	-0.235707	-1.080969	0.861698
H182	H	0.264293	-0.580969	1.361698
N183	N	-0.926660	-1.030535	0.415654
N184	N	-0.426660	-0.530535	0.915654
H185	H	-0.883087	-1.040571	0.443912
H186	H	-0.383087	-0.540571	0.943912
H187	H	-0.959570	-1.075544	0.414253
H188	H	-0.459570	-0.575544	0.914253
H189	H	-0.793081	-1.164108	0.369027
H190	H	-0.293081	-0.664108	0.869027
N191	N	-0.455254	-0.971766	0.668483
N192	N	0.044746	-0.471766	1.168483
H193	H	-0.448050	-0.978957	0.714902
H194	H	0.051950	-0.478957	1.214902
H195	H	-0.508154	-0.983248	0.657056
H196	H	-0.008154	-0.483248	1.157056
N197	N	-0.785063	-1.207491	0.277029
N198	N	-0.285063	-0.707491	0.777029
H199	H	-0.751510	-1.184565	0.244685
H200	H	-0.251510	-0.684565	0.744685
H201	H	-0.828140	-1.232161	0.255499
H202	H	-0.328140	-0.732161	0.755499
H203	H	-0.919159	-0.991431	0.221955
H204	H	-0.419159	-0.491431	0.721955
H205	H	-0.279512	-0.506110	0.382911
H206	H	0.220488	-0.006110	0.882911
N207	N	-0.222538	-0.500672	0.268929
N208	N	0.277462	-0.000672	0.768929
H209	H	-0.188683	-0.544357	0.275519
H210	H	0.311317	-0.044357	0.775519
H211	H	-0.224073	-0.469821	0.308224
H212	H	0.275927	0.030179	0.808224
H213	H	-0.278460	-0.633180	0.382366
H214	H	0.221540	-0.133180	0.882366
H215	H	-0.919836	-1.088472	0.198901
H216	H	-0.419836	-0.588472	0.698901
N217	N	-0.258308	-1.168807	0.936197
N218	N	0.241692	-0.668807	1.436197
H219	H	-0.228295	-1.198827	0.966865
H220	H	0.271705	-0.698827	1.466865
H221	H	-0.224044	-1.138683	0.909029
H222	H	0.275956	-0.638683	1.409029
H223	H	-0.454185	-0.634713	0.237409
H224	H	0.045815	-0.134713	0.737409
N225	N	-0.491727	-0.640026	0.331431
N226	N	0.008273	-0.140026	0.831431
H227	H	-0.493571	-0.695784	0.330690
H228	H	0.006429	-0.195784	0.830690
H229	H	-0.541873	-0.619495	0.320126
H230	H	-0.041873	-0.119495	0.820126
H231	H	-0.442639	-0.984313	0.944773
H232	H	0.057361	-0.484313	1.444773
N233	N	-0.455560	-0.500541	0.218917
N234	N	0.044440	-0.000541	0.718917
H235	H	-0.414734	-0.468295	0.201874
H236	H	0.085266	0.031705	0.701874
H237	H	-0.502828	-0.471028	0.221440
H238	H	-0.002828	0.028972	0.721440
H239	H	-0.792086	-0.992406	0.221408
H240	H	-0.292086	-0.492406	0.721408
H241	H	-0.920643	-1.167898	0.366314
H242	H	-0.420643	-0.667898	0.866314
H243	H	-0.477851	-1.059423	0.742991
H244	H	0.022149	-0.559423	1.242991
H245	H	-0.919327	-1.191157	0.283635
H246	H	-0.419327	-0.691157	0.783635
N247	N	-0.258234	-1.168789	1.072210
N248	N	0.241766	-0.668789	1.572210
H249	H	-0.228249	-1.198811	1.041567
H250	H	0.271751	-0.698811	1.541567
H251	H	-0.288366	-1.203042	1.099383
H252	H	0.211634	-0.703042	1.599383
H253	H	-0.442581	-0.984308	1.063484
H254	H	0.057419	-0.484308	1.563484
