data_functionalizedCrystal
_audit_creation_method	'MofGen! by Chris Wilmer'
_symmetry_space_group_name_H-M	'P1'
_symmetry_Int_Tables_number	1
_symmetry_cell_setting	triclinic
loop_
_symmetry_equiv_pos_as_xyz
  x,y,z
_cell_length_a	6.817900
_cell_length_b	11.168138
_cell_length_c	12.200737
_cell_angle_alpha	92.529358
_cell_angle_beta	107.141108
_cell_angle_gamma	108.508793
loop_
_atom_site_label
_atom_site_type_symbol
_atom_site_fract_x
_atom_site_fract_y
_atom_site_fract_z
V1	V	-4.093939	-0.174999	-0.357671
O2	O	-4.053826	0.008106	-0.350852
O3	O	-4.070337	-0.346703	-0.355234
O4	O	-4.063276	-0.172441	-0.513659
O5	O	-4.060936	-0.167362	-0.191331
V6	V	-4.572056	-0.153082	-0.337774
O7	O	-4.367058	-0.223077	-0.401316
O8	O	-4.749135	-0.105005	-0.294129
O9	O	-4.372452	0.018621	-0.340211
O10	O	-4.729566	-0.336188	-0.344593
O11	O	-4.722456	-0.160719	-0.504114
O12	O	-4.379512	-0.155641	-0.181786
C13	C	-3.920797	-0.388556	-0.349594
C14	C	-3.982904	-0.528927	-0.348642
C15	C	-3.911789	-0.166266	-0.551680
C16	C	-3.968166	-0.165310	-0.679201
C17	C	-4.249374	-0.742696	-0.352673
C18	C	-4.185186	-0.597616	-0.353658
C19	C	-4.013948	-0.164532	-0.782762
C20	C	-4.071398	-0.163551	-0.912684
C21	C	-4.185335	0.060468	-0.345848
C22	C	-4.102466	0.200837	-0.346808
C23	C	-4.194342	-0.161820	-0.143759
C24	C	-4.117202	-0.162769	-0.016237
H25	H	-4.310856	-0.549034	-0.358686
N26	N	-3.885078	-0.725085	-0.341443
N27	N	-3.811114	-0.749414	-0.418748
H28	H	-3.657578	-0.697098	-0.414960
N29	N	-3.825217	-0.589851	-0.342313
N30	N	-3.653095	-0.556899	-0.257336
H31	H	-3.541730	-0.599934	-0.252863
N32	N	-4.466756	-0.816795	-0.358044
N33	N	-4.518586	-0.934543	-0.357230
H34	H	-4.672117	-0.986875	-0.361022
