data_functionalizedCrystal
_audit_creation_method	'MofGen! by Chris Wilmer'
_symmetry_space_group_name_H-M	'P1'
_symmetry_Int_Tables_number	1
_symmetry_cell_setting	triclinic
loop_
_symmetry_equiv_pos_as_xyz
  x,y,z
_cell_length_a	13.033291
_cell_length_b	13.032721
_cell_length_c	19.805399
_cell_angle_alpha	97.154168
_cell_angle_beta	82.794679
_cell_angle_gamma	105.184202
loop_
_atom_site_label
_atom_site_type_symbol
_atom_site_fract_x
_atom_site_fract_y
_atom_site_fract_z
Zn1	Zn	1.570148	-0.216844	-0.529919
Zn2	Zn	2.070148	0.283156	-0.029919
Zn3	Zn	1.547478	-0.394484	-0.429475
Zn4	Zn	2.047478	0.105516	0.070525
Zn5	Zn	1.392526	-0.239412	-0.403966
Zn6	Zn	1.892526	0.260588	0.096034
Zn7	Zn	1.369927	-0.416950	-0.529842
Zn8	Zn	1.869927	0.083050	-0.029842
O9	O	1.470020	-0.316922	-0.473300
O10	O	1.970020	0.183078	0.026700
O11	O	1.715782	-0.221561	-0.527303
O12	O	2.215782	0.278439	-0.027303
O13	O	1.526893	-0.373956	-0.331376
O14	O	2.026893	0.126044	0.168624
O15	O	1.435034	-0.087776	-0.410031
O16	O	1.935034	0.412224	0.089969
O17	O	1.699126	-0.352072	-0.453507
O18	O	2.199126	0.147928	0.046493
O19	O	1.565532	-0.071195	-0.502568
O20	O	2.065532	0.428805	-0.002568
O21	O	1.413051	-0.260026	-0.312634
O22	O	1.913051	0.239974	0.187366
O23	O	1.240888	-0.281810	-0.409956
O24	O	1.740888	0.218190	0.090044
O25	O	1.396517	-0.390363	-0.624567
O26	O	1.896517	0.109637	-0.124567
O27	O	1.224284	-0.412246	-0.502436
O28	O	1.724284	0.087754	-0.002436
O29	O	1.543619	-0.243346	-0.624625
O30	O	2.043619	0.256654	-0.124625
O31	O	1.504979	-0.546107	-0.453432
O32	O	2.004979	-0.046107	0.046568
O33	O	1.374534	-0.562613	-0.527171
O34	O	1.874534	-0.062613	-0.027171
C35	C	1.194045	-0.351916	-0.453420
C36	C	1.694045	0.148084	0.046580
C37	C	1.075978	-0.366912	-0.444932
C38	C	1.575978	0.133088	0.055068
C39	C	0.909545	-0.324612	-0.468965
C40	C	1.409545	0.175388	0.031035
C41	C	1.031573	-0.309115	-0.477737
C42	C	1.531573	0.190885	0.022263
C43	C	1.434873	-0.592898	-0.493078
C44	C	1.934873	-0.092898	0.006922
C45	C	1.419934	-0.710949	-0.501568
C46	C	1.919934	-0.210949	-0.001568
C47	C	1.477873	-0.755371	-0.468904
C48	C	1.977873	-0.255371	0.031096
C49	C	1.462434	-0.877383	-0.477678
C50	C	1.962434	-0.377383	0.022322
C51	C	1.747072	-0.281793	-0.493259
C52	C	2.247072	0.218207	0.006741
C53	C	1.865136	-0.266823	-0.501765
C54	C	2.365136	0.233177	-0.001765
C55	C	1.470076	-0.316843	-0.649841
C56	C	1.970076	0.183157	-0.149841
C57	C	1.470100	-0.316809	-0.725073
C58	C	1.970100	0.183191	-0.225073
C59	C	1.505333	-0.039866	-0.453463
C60	C	2.005333	0.460134	0.046537
C61	C	1.520381	0.078199	-0.445009
C62	C	2.020381	0.578199	0.054991
C63	C	1.410842	-0.257477	-0.750659
C64	C	1.910842	0.242523	-0.250659
C65	C	1.410860	-0.257454	-0.821347
C66	C	1.910860	0.242546	-0.321347
C67	C	1.470141	-0.316759	-0.866447
C68	C	1.970141	0.183241	-0.366447
C69	C	1.529400	-0.376098	-0.840857
C70	C	2.029400	0.123902	-0.340857
C71	C	1.529376	-0.376126	-0.770170
C72	C	2.029376	0.123874	-0.270170
C73	C	1.529497	-0.375988	-1.125930
C74	C	2.029497	0.124012	-0.625930
C75	C	1.529519	-0.375953	-1.196621
C76	C	2.029519	0.124047	-0.696621
C77	C	1.410980	-0.257316	-1.177106
C78	C	1.910980	0.242684	-0.677106
C79	C	1.410956	-0.257344	-1.106419
C80	C	1.910956	0.242656	-0.606419
C81	C	1.470211	-0.316687	-1.080835
C82	C	1.970211	0.183313	-0.580835
C83	C	1.470190	-0.316713	-1.004187
C84	C	1.970190	0.183287	-0.504187
C85	C	1.470169	-0.316728	-0.943094
C86	C	1.970169	0.183272	-0.443094
C87	C	1.470035	-0.316917	-0.297445
C88	C	1.970035	0.183083	0.202555
C89	C	1.470255	-0.316626	-0.222208
C90	C	1.970255	0.183374	0.277792
H91	H	0.917456	-0.205871	-0.536336
H92	H	1.417456	0.294129	-0.036336
O93	O	1.353351	-0.199889	-0.706755
O94	O	1.853351	0.300111	-0.206755
C95	C	1.366012	-0.212654	-0.638877
C96	C	1.866012	0.287346	-0.138877
H97	H	1.443549	-0.237049	-0.637616
H98	H	1.943549	0.262951	-0.137616
H99	H	1.368936	-0.134014	-0.605799
H100	H	1.868936	0.365986	-0.105799
H101	H	1.295792	-0.277218	-0.618329
H102	H	1.795792	0.222782	-0.118329
O103	O	1.013636	-0.439510	-0.403580
O104	O	1.513636	0.060490	0.096420
C105	C	1.043614	-0.412776	-0.336401
C106	C	1.543614	0.087224	0.163599
H107	H	1.084976	-0.324060	-0.329170
H108	H	1.584976	0.175940	0.170830
H109	H	0.969436	-0.431067	-0.298391
H110	H	1.469436	0.068933	0.201609
H111	H	1.100668	-0.461581	-0.327319
H112	H	1.600668	0.038419	0.172681
O113	O	0.847234	-0.397458	-0.427769
O114	O	1.347234	0.102542	0.072231
C115	C	0.860774	-0.499947	-0.451982
C116	C	1.360774	0.000053	0.048018
H117	H	0.941074	-0.492040	-0.483912
H118	H	1.441074	0.007960	0.016088
H119	H	0.858375	-0.547019	-0.406752
H120	H	1.358375	-0.047019	0.093248
H121	H	0.793823	-0.543657	-0.484860
H122	H	1.293823	-0.043657	0.015140
O123	O	1.550540	-0.692960	-0.427704
O124	O	2.050540	-0.192960	0.072296
C125	C	1.498160	-0.636542	-0.375040
C126	C	1.998160	-0.136542	0.124960
H127	H	1.410288	-0.680725	-0.367187
H128	H	1.910288	-0.180725	0.132813
H129	H	1.536799	-0.630309	-0.325645
H130	H	2.036799	-0.130309	0.174355
H131	H	1.505038	-0.552972	-0.389702
H132	H	2.005038	-0.052972	0.110298
H133	H	1.401401	-0.929676	-0.512145
H134	H	1.901401	-0.429676	-0.012145
O135	O	1.587124	-0.433667	-1.240339
O136	O	2.087124	0.066333	-0.740339
C137	C	1.639438	-0.486033	-1.202601
C138	C	2.139438	0.013967	-0.702601
H139	H	1.595447	-0.495249	-1.149342
H140	H	2.095447	0.004751	-0.649342
H141	H	1.640099	-0.568278	-1.229835
H142	H	2.140099	-0.068278	-0.729835
H143	H	1.725068	-0.436917	-1.198110
H144	H	2.225068	0.063083	-0.698110
H145	H	1.581423	-0.869508	-0.410548
H146	H	2.081423	-0.369508	0.089452
H147	H	1.083890	-0.248158	-0.512311
H148	H	1.583890	0.251842	-0.012311
H149	H	1.358905	-0.763245	-0.536032
H150	H	1.858905	-0.263245	-0.036032
H151	H	1.362602	-0.209144	-0.842175
H152	H	1.862602	0.290856	-0.342175
O153	O	1.353274	-0.199715	-1.062704
O154	O	1.853274	0.300285	-0.562704
C155	C	1.300994	-0.147321	-1.100445
C156	C	1.800994	0.352679	-0.600445
H157	H	1.291789	-0.191272	-1.153683
H158	H	1.791789	0.308728	-0.653683
H159	H	1.218741	-0.146613	-1.073182
H160	H	1.718741	0.353387	-0.573182
H161	H	1.350174	-0.061711	-1.104988
H162	H	1.850174	0.438289	-0.604988
H163	H	1.362729	-0.208999	-1.197944
H164	H	1.862729	0.291001	-0.697944
O165	O	1.586773	-0.433892	-0.745279
O166	O	2.086773	0.066108	-0.245279
C167	C	1.517538	-0.510162	-0.704933
C168	C	2.017538	-0.010162	-0.204933
H169	H	1.433053	-0.527319	-0.720682
H170	H	1.933053	-0.027319	-0.220682
H171	H	1.545532	-0.587039	-0.712748
H172	H	2.045532	-0.087039	-0.212748
H173	H	1.518044	-0.477804	-0.648747
H174	H	2.018044	0.022196	-0.148747
H175	H	1.577733	-0.424322	-1.105108
H176	H	2.077733	0.075678	-0.605108
H177	H	1.577662	-0.424391	-0.877584
H178	H	2.077662	0.075609	-0.377584
