data_functionalizedCrystal
_audit_creation_method	'MofGen! by Chris Wilmer'
_symmetry_space_group_name_H-M	'P1'
_symmetry_Int_Tables_number	1
_symmetry_cell_setting	triclinic
loop_
_symmetry_equiv_pos_as_xyz
  x,y,z
_cell_length_a	14.519709
_cell_length_b	10.540510
_cell_length_c	13.596369
_cell_angle_alpha	89.996501
_cell_angle_beta	90.000291
_cell_angle_gamma	84.096728
loop_
_atom_site_label
_atom_site_type_symbol
_atom_site_fract_x
_atom_site_fract_y
_atom_site_fract_z
O1	O	1.224752	0.166402	-0.081658
O2	O	1.724752	0.666402	0.418342
O3	O	0.956379	0.185998	-0.081687
O4	O	1.456379	0.685998	0.418313
O5	O	1.096703	-0.008572	-0.081671
O6	O	1.596703	0.491428	0.418329
O7	O	1.084429	0.360971	-0.081673
O8	O	1.584429	0.860971	0.418327
O9	O	1.096689	-0.008582	0.081912
O10	O	1.596689	0.491418	0.581912
O11	O	0.956365	0.185987	0.081896
O12	O	1.456365	0.685987	0.581896
O13	O	1.224738	0.166392	0.081925
O14	O	1.724738	0.666392	0.581925
Zn15	Zn	1.090549	0.176188	0.107883
Zn16	Zn	1.590549	0.676188	0.607883
Zn17	Zn	1.090568	0.176202	-0.107645
Zn18	Zn	1.590568	0.676202	0.392355
O19	O	1.084414	0.360961	0.081909
O20	O	1.584414	0.860961	0.581909
C21	C	0.922008	0.185079	0.000100
C22	C	1.422008	0.685079	0.500100
C23	C	0.819612	0.182343	0.000089
C24	C	1.319612	0.682343	0.500089
C25	C	1.095781	-0.055871	0.000118
C26	C	1.595781	0.444129	0.500118
C27	C	1.093044	-0.196793	0.000112
C28	C	1.593044	0.303207	0.500112
C29	C	0.444662	0.172268	0.000134
C30	C	0.944662	0.672268	0.500134
C31	C	0.548985	0.175066	0.000121
C32	C	1.048985	0.675066	0.500121
C33	C	0.632134	0.177305	0.000111
C34	C	1.132134	0.677305	0.500111
C35	C	0.736463	0.180103	0.000100
C36	C	1.236463	0.680103	0.500100
C37	C	1.190527	-0.415244	0.000497
C38	C	1.690527	0.084756	0.500497
C39	C	1.193446	-0.268678	0.000124
C40	C	1.693446	0.231322	0.500124
C41	C	1.041657	-0.241021	-0.093306
C42	C	1.541657	0.258979	0.406694
C43	C	1.039449	-0.387760	-0.093379
C44	C	1.539449	0.112240	0.406621
C45	C	1.037342	-0.387559	0.092645
C46	C	1.537342	0.112441	0.592645
C47	C	1.042104	-0.241266	0.093875
C48	C	1.542104	0.258734	0.593875
C49	C	1.259110	0.167310	0.000135
C50	C	1.759110	0.667310	0.500135
C51	C	1.361505	0.170047	0.000140
C52	C	1.861505	0.670047	0.500140
C53	C	1.085336	0.408261	0.000118
C54	C	1.585336	0.908261	0.500118
C55	C	1.088073	0.549182	0.000118
C56	C	1.588073	1.049182	0.500118
N57	N	1.090543	0.176178	0.254975
N58	N	1.590543	0.676178	0.754975
N59	N	1.090581	0.176202	-0.254737
N60	N	1.590581	0.676202	0.245263
C61	C	1.090567	0.176203	0.656266
C62	C	1.590567	0.676203	1.156266
C63	C	1.090557	0.176200	0.544614
C64	C	1.590557	0.676200	1.044614
C65	C	1.090555	0.176191	0.455624
C66	C	1.590555	0.676191	0.955624
C67	C	1.090545	0.176187	0.343965
C68	C	1.590545	0.676187	0.843965
H69	H	1.233654	-0.239749	0.067088
H70	H	1.733654	0.260251	0.567088
C71	C	1.080209	-0.445332	0.188302
C72	C	1.580209	0.054668	0.688302
N73	N	1.112508	-0.488847	0.260347
N74	N	1.612508	0.011153	0.760347
C75	C	1.243368	-0.472476	0.091001
C76	C	1.743368	0.027524	0.591001
N77	N	1.283168	-0.515594	0.159171
N78	N	1.783168	-0.015594	0.659171
H79	H	1.233899	-0.240681	-0.066949
H80	H	1.733899	0.259319	0.433051
C81	C	0.935509	-0.416463	0.093495
C82	C	1.435509	0.083537	0.593495
N83	N	0.858813	-0.438247	0.094130
N84	N	1.358813	0.061753	0.594130
H85	H	1.079496	-0.213040	0.162985
H86	H	1.579496	0.286960	0.662985
C87	C	1.086922	-0.442573	-0.187699
C88	C	1.586922	0.057427	0.312301
N89	N	1.122685	-0.483853	-0.258740
N90	N	1.622685	0.016147	0.241260
H91	H	1.229422	-0.459142	-0.066110
H92	H	1.729422	0.040858	0.433890
H93	H	0.964355	-0.409988	-0.097620
H94	H	1.464355	0.090012	0.402380
H95	H	0.967743	-0.192878	-0.096787
H96	H	1.467743	0.307122	0.403213
H97	H	0.968803	-0.191451	0.099508
H98	H	1.468803	0.308549	0.599508
C99	C	1.089889	-0.199836	-0.187217
C100	C	1.589889	0.300164	0.312783
N101	N	1.126224	-0.168821	-0.257949
N102	N	1.626224	0.331179	0.242051
