data_functionalizedCrystal
_audit_creation_method	'MofGen! by Chris Wilmer'
_symmetry_space_group_name_H-M	'P1'
_symmetry_Int_Tables_number	1
_symmetry_cell_setting	triclinic
loop_
_symmetry_equiv_pos_as_xyz
  x,y,z
_cell_length_a	16.959455
_cell_length_b	21.295417
_cell_length_c	16.959447
_cell_angle_alpha	89.965854
_cell_angle_beta	89.985678
_cell_angle_gamma	90.026649
loop_
_atom_site_label
_atom_site_type_symbol
_atom_site_fract_x
_atom_site_fract_y
_atom_site_fract_z
Zn1	Zn	1.208331	-0.250648	-0.446888
Zn2	Zn	1.208231	-0.355925	-0.314700
Zn3	Zn	1.076159	-0.250668	-0.314725
Zn4	Zn	1.076102	-0.355878	-0.446839
O5	O	1.142206	-0.303280	-0.380788
O6	O	1.318929	-0.264625	-0.429363
O7	O	1.190694	-0.341990	-0.204093
O8	O	1.093758	-0.162576	-0.332288
O9	O	1.318855	-0.341971	-0.332245
O10	O	1.190864	-0.162561	-0.429387
O11	O	1.093661	-0.264658	-0.204111
O12	O	0.965541	-0.264613	-0.332240
O13	O	1.093660	-0.341891	-0.557456
O14	O	0.965499	-0.341910	-0.429304
O15	O	1.190808	-0.264579	-0.557492
O16	O	1.190638	-0.444008	-0.332198
O17	O	1.093563	-0.443973	-0.429280
C18	C	0.936840	-0.303259	-0.380770
C19	C	0.848983	-0.303265	-0.380781
C20	C	0.477505	-0.262998	-0.330353
C21	C	0.477510	-0.343613	-0.431269
C22	C	0.560056	-0.343604	-0.431264
C23	C	0.601330	-0.303292	-0.380802
C24	C	0.560058	-0.262989	-0.330345
C25	C	0.601333	-0.383911	-0.481714
C26	C	0.683884	-0.383904	-0.481711
C27	C	0.725160	-0.343588	-0.431252
C28	C	0.683884	-0.303283	-0.380794
C29	C	0.725158	-0.262971	-0.330332
C30	C	0.683883	-0.222662	-0.279877
C31	C	0.601334	-0.222673	-0.279886
C32	C	0.807709	-0.343577	-0.431243
C33	C	0.807711	-0.262962	-0.330324
C34	C	1.142105	-0.466831	-0.380748
C35	C	1.142134	-0.536799	-0.380757
C36	C	1.192668	-0.569601	-0.431353
C37	C	1.192696	-0.635344	-0.431372
C38	C	1.142198	-0.668282	-0.380782
C39	C	1.091654	-0.635472	-0.330183
C40	C	1.091622	-0.569731	-0.330170
N41	N	1.136233	-0.771547	-0.311606
N42	N	1.136268	-0.833998	-0.311620
C43	C	1.142291	-0.866356	-0.380818
N44	N	1.148292	-0.833904	-0.450002
N45	N	1.148261	-0.771447	-0.449987
C46	C	1.142227	-0.739567	-0.380790
C47	C	1.192858	-0.970444	-0.431439
C48	C	1.192880	-1.036188	-0.431460
C49	C	1.091842	-1.036315	-0.330263
C50	C	1.091816	-0.970572	-0.330249
C51	C	1.142328	-0.937641	-0.380836
C52	C	1.348374	-0.303301	-0.380807
C53	C	1.436231	-0.303310	-0.380815
C54	C	1.142239	-0.303228	-0.586956
C55	C	1.142253	-0.303205	-0.674813
C56	C	1.142328	-0.139089	-0.380845
C57	C	1.142381	-0.069121	-0.380870
C58	C	1.091767	-0.343392	-1.046273
C59	C	1.192928	-0.262886	-1.046305
C60	C	1.192907	-0.262900	-0.963759
C61	C	1.142316	-0.303160	-0.922466
C62	C	1.091746	-0.343407	-0.963719
C63	C	1.243482	-0.222658	-0.922500
C64	C	1.243463	-0.222670	-0.839949
C65	C	1.192867	-0.262928	-0.798654
C66	C	1.142295	-0.303176	-0.839912
C67	C	1.091704	-0.343437	-0.798619
C68	C	1.041126	-0.383682	-0.839876
C69	C	1.041150	-0.383665	-0.922425
C70	C	1.192844	-0.262945	-0.716106
C71	C	1.091683	-0.343453	-0.716066
C72	C	1.142219	-0.303286	-0.175422
C73	C	1.142358	-0.303131	-0.087566
H74	H	0.841311	-0.376398	-0.472320
H75	H	1.233796	-0.542790	-0.472546
H76	H	1.233841	-0.662056	-0.472583
C77	C	1.299087	-0.178399	-0.794570
H78	H	1.291832	-0.184174	-0.739493
H79	H	1.287553	-0.136101	-0.808122
H80	H	1.352196	-0.187617	-0.808091
C81	C	1.036138	-0.387660	-1.091649
H82	H	1.043396	-0.381889	-1.146727
H83	H	0.983034	-0.378447	-1.078122
H84	H	1.047679	-0.429961	-1.078102
H85	H	0.999939	-0.416465	-0.806244
C86	C	0.432111	-0.218660	-0.274855
H87	H	0.468518	-0.194649	-0.244807
H88	H	0.399883	-0.242705	-0.240363
H89	H	0.399936	-0.191261	-0.305165
C90	C	1.036110	-0.671701	-0.274534
H91	H	1.043372	-0.715552	-0.281782
H92	H	0.982988	-0.660958	-0.286051
H93	H	1.047712	-0.660949	-0.221431
C94	C	1.248470	-1.072273	-0.487115
H95	H	1.241250	-1.116143	-0.479885
H96	H	1.301580	-1.061471	-0.475588
H97	H	1.236864	-1.061474	-0.540216
H98	H	0.443899	-0.376437	-0.472348
C99	C	1.036291	-1.072538	-0.274619
H100	H	1.043548	-1.116390	-0.281871
H101	H	0.983171	-1.061791	-0.286139
H102	H	1.047891	-1.061791	-0.221515
H103	H	0.999975	-0.416433	-0.956023
H104	H	1.050670	-0.943863	-0.289046
H105	H	1.050478	-0.376232	-0.682451
C106	C	1.299131	-0.178377	-0.967918
H107	H	1.329255	-0.154416	-0.931526
H108	H	1.268925	-0.150939	-1.000132
H109	H	1.333560	-0.202461	-1.000109
C110	C	1.248472	-0.218683	-0.670724
H111	H	1.241217	-0.224460	-0.615646
H112	H	1.236946	-0.176384	-0.684272
H113	H	1.301579	-0.227908	-0.684247
H114	H	0.567721	-0.189857	-0.238807
C115	C	0.729280	-0.428235	-0.537215
H116	H	0.692874	-0.452241	-0.567273
H117	H	0.761466	-0.455629	-0.506919
H118	H	0.761498	-0.404178	-0.571711
H119	H	1.050471	-0.543023	-0.288969
C120	C	1.248569	-0.218600	-1.091725
H121	H	1.241335	-0.224352	-1.146796
H122	H	1.301669	-0.227814	-1.078193
H123	H	1.237017	-0.176305	-1.078216
H124	H	0.567722	-0.416735	-0.522792
C125	C	0.853107	-0.218617	-0.274816
H126	H	0.816701	-0.194617	-0.244767
H127	H	0.885334	-0.191218	-0.305111
H128	H	0.885284	-0.242663	-0.240311
C129	C	0.729286	-0.178319	-0.224372
H130	H	0.692886	-0.154315	-0.194321
H131	H	0.761514	-0.150923	-0.254672
H132	H	0.761463	-0.202367	-0.189870
C133	C	1.248393	-0.934217	-0.487105
H134	H	1.278481	-0.963171	-0.517256
H135	H	1.282848	-0.908560	-0.456912
H136	H	1.218100	-0.908578	-0.521508
