data_functionalizedCrystal
_audit_creation_method	'MofGen! by Chris Wilmer'
_symmetry_space_group_name_H-M	'P1'
_symmetry_Int_Tables_number	1
_symmetry_cell_setting	triclinic
loop_
_symmetry_equiv_pos_as_xyz
  x,y,z
_cell_length_a	21.295418
_cell_length_b	25.639239
_cell_length_c	21.295411
_cell_angle_alpha	89.980474
_cell_angle_beta	89.956262
_cell_angle_gamma	90.054499
loop_
_atom_site_label
_atom_site_type_symbol
_atom_site_fract_x
_atom_site_fract_y
_atom_site_fract_z
Zn1	Zn	0.962320	-0.207990	-0.356243
Zn2	Zn	0.962207	-0.295410	-0.250972
Zn3	Zn	0.857043	-0.208014	-0.250953
Zn4	Zn	0.856998	-0.295420	-0.356169
O5	O	0.909642	-0.251708	-0.303584
O6	O	1.050395	-0.219572	-0.342318
O7	O	0.948229	-0.283822	-0.162880
O8	O	0.871075	-0.134846	-0.264943
O9	O	1.050312	-0.283799	-0.264976
O10	O	0.948421	-0.134828	-0.342299
O11	O	0.870965	-0.219613	-0.162866
O12	O	0.768948	-0.219623	-0.264871
O13	O	0.870997	-0.283816	-0.444268
O14	O	0.768914	-0.283840	-0.342172
O15	O	0.948377	-0.219582	-0.444322
O16	O	0.948185	-0.368576	-0.264904
O17	O	0.870888	-0.368584	-0.342191
C18	C	0.746090	-0.251736	-0.303512
C19	C	0.676122	-0.251760	-0.303496
C20	C	0.643255	-0.285242	-0.343686
C21	C	0.577512	-0.285229	-0.343715
C22	C	0.544640	-0.251740	-0.303541
C23	C	0.577515	-0.218252	-0.263347
C24	C	0.643257	-0.218262	-0.263325
N25	N	0.441365	-0.247648	-0.248483
N26	N	0.378913	-0.247641	-0.248506
C27	C	0.346565	-0.251707	-0.303608
N28	N	0.379028	-0.255789	-0.358686
N29	N	0.441485	-0.255799	-0.358662
C30	C	0.473354	-0.251725	-0.303561
C31	C	0.242412	-0.285176	-0.343832
C32	C	0.176668	-0.285160	-0.343862
C33	C	0.176673	-0.218185	-0.263489
C34	C	0.242415	-0.218199	-0.263465
C35	C	0.275281	-0.251697	-0.303636
C36	C	0.909536	-0.387551	-0.303555
C37	C	0.909548	-0.445665	-0.303564
C38	C	0.949996	-0.806011	-0.263409
C39	C	0.950020	-0.860616	-0.263418
O40	O	0.984300	-0.888838	-0.229245
N41	N	0.909753	-0.887947	-0.303626
C42	C	0.869463	-0.860672	-0.343833
O43	O	0.835215	-0.888934	-0.378034
C44	C	0.869442	-0.806069	-0.343827
C45	C	0.909708	-0.778740	-0.303612
C46	C	0.990259	-0.778683	-0.223198
C47	C	0.990233	-0.724082	-0.223188
C48	C	0.949945	-0.696810	-0.263391
C49	C	0.909682	-0.724139	-0.303603
C50	C	0.829156	-0.778794	-0.384037
C51	C	0.829139	-0.724187	-0.384028
C52	C	0.869404	-0.696858	-0.343812
C53	C	0.869369	-0.642267	-0.343796
N54	N	0.909636	-0.614935	-0.303588
C55	C	0.949924	-0.642207	-0.263385
C56	C	0.869510	-0.975343	-0.343842
C57	C	0.869527	-1.029945	-0.343845
C58	C	0.950086	-1.029885	-0.263431
C59	C	0.950065	-0.975282	-0.263425
C60	C	0.909778	-0.948011	-0.303634
C61	C	0.949868	-0.527542	-0.263369
C62	C	0.949837	-0.472937	-0.263361
C63	C	0.869281	-0.473001	-0.343778
C64	C	0.869309	-0.527602	-0.343783
C65	C	0.909607	-0.554871	-0.303577
O66	O	0.835108	-0.614010	-0.377953
O67	O	0.984172	-0.613939	-0.229195
C68	C	1.073832	-0.251681	-0.303657
C69	C	1.143801	-0.251670	-0.303688
C70	C	0.909694	-0.251697	-0.467774
C71	C	0.909717	-0.251693	-0.537743
C72	C	0.909766	-0.115335	-0.303627
C73	C	0.909818	-0.057221	-0.303645
C74	C	0.950007	-0.218244	-0.570639
C75	C	0.950006	-0.218221	-0.636381
C76	C	0.909721	-0.251657	-0.669225
C77	C	0.869424	-0.285108	-0.636321
C78	C	0.869421	-0.285126	-0.570580
N79	N	0.904857	-0.297396	-0.772441
N80	N	0.904863	-0.297377	-0.834892
C81	C	0.909725	-0.251604	-0.867300
N82	N	0.914594	-0.205848	-0.834897
N83	N	0.914591	-0.205867	-0.772440
C84	C	0.909719	-0.251641	-0.740511
C85	C	0.950017	-0.218128	-0.971482
C86	C	0.950011	-0.218104	-1.037225
C87	C	0.869433	-0.284995	-1.037164
C88	C	0.869435	-0.285014	-0.971422
C89	C	0.909730	-0.251581	-0.938584
C90	C	0.909626	-0.251682	-0.140032
C91	C	0.909726	-0.251539	-0.070065
H92	H	0.149909	-0.190915	-0.230781
O93	O	0.144641	-0.317636	-0.382886
C94	C	0.043362	-0.347324	-0.418515
C95	C	0.079555	-0.310510	-0.374299
H96	H	-0.009266	-0.341583	-0.411578
H97	H	0.056313	-0.338210	-0.469304
H98	H	0.056253	-0.389466	-0.407366
H99	H	0.066684	-0.268356	-0.385391
H100	H	0.066602	-0.319668	-0.323523
O101	O	0.830397	-0.948911	-0.382986
C102	C	0.799798	-0.932184	-0.490025
C103	C	0.844121	-0.962156	-0.445766
H104	H	0.810886	-0.942873	-0.540793
H105	H	0.749041	-0.942992	-0.478956
H106	H	0.806683	-0.888465	-0.483087
H107	H	0.837292	-1.005882	-0.452679
H108	H	0.894862	-0.951304	-0.456846
O109	O	0.988985	-0.446333	-0.224383
C110	C	1.073978	-0.384621	-0.216009
C111	C	1.029675	-0.414705	-0.260220
H112	H	1.106896	-0.359051	-0.244966
H113	H	1.045118	-0.359067	-0.183061
H114	H	1.102749	-0.413506	-0.187265
H115	H	1.000895	-0.385858	-0.289004
H116	H	1.058571	-0.440267	-0.293126
O117	O	0.989087	-0.185623	-1.069280
C118	C	1.024818	-0.155963	-1.170584
C119	C	0.980525	-0.192769	-1.134360
H120	H	1.017920	-0.161736	-1.223208
H121	H	1.013800	-0.113799	-1.157692
H122	H	1.075563	-0.165134	-1.157663
H123	H	0.929766	-0.183645	-1.147262
H124	H	0.991597	-0.234922	-1.147256
O125	O	0.989030	-0.553945	-0.224251
C126	C	1.068949	-0.548108	-0.144510
C127	C	1.024624	-0.518142	-0.188772
H128	H	1.097747	-0.519175	-0.115823
H129	H	1.040107	-0.573701	-0.111518
H130	H	1.101840	-0.573640	-0.173460
H131	H	0.991724	-0.492583	-0.159873
H132	H	1.053505	-0.492583	-0.221765
O133	O	0.545509	-0.317783	-0.382670
C134	C	0.471230	-0.388396	-0.390999
C135	C	0.507418	-0.351553	-0.346812
H136	H	0.440434	-0.415715	-0.362025
H137	H	0.440477	-0.364459	-0.423970
H138	H	0.506028	-0.412312	-0.419719
H139	H	0.472665	-0.327629	-0.318051
H140	H	0.538180	-0.375520	-0.313883
H141	H	0.269176	-0.190937	-0.230734
H142	H	1.023070	-0.800881	-0.190460
O143	O	0.830430	-1.056570	-0.382848
C144	C	0.794787	-1.140709	-0.418540
C145	C	0.839083	-1.110624	-0.374323
H146	H	0.801777	-1.184417	-0.411673
H147	H	0.744015	-1.130070	-0.407420
H148	H	0.805807	-1.129905	-0.469303
H149	H	0.828120	-1.121412	-0.323546
H150	H	0.889841	-1.121265	-0.385497
H151	H	0.670017	-0.190995	-0.230596
H152	H	1.023023	-0.701834	-0.190444
H153	H	0.796364	-0.801036	-0.416781
O154	O	0.274245	-0.317726	-0.382918
C155	C	0.267304	-0.384171	-0.462617
C156	C	0.231177	-0.347328	-0.418394
H157	H	0.232499	-0.408122	-0.491301
H158	H	0.298136	-0.360236	-0.495613
H159	H	0.298028	-0.411459	-0.433637
H160	H	0.200419	-0.320033	-0.447323
H161	H	0.200385	-0.371296	-0.385396
O162	O	0.830367	-0.317585	-0.939492
C163	C	0.799699	-0.406530	-0.919385
C164	C	0.843997	-0.369703	-0.955571
H165	H	0.810695	-0.448675	-0.932381
H166	H	0.806618	-0.400846	-0.866749
H167	H	0.748954	-0.397324	-0.932268
H168	H	0.894760	-0.378886	-0.942741
H169	H	0.837025	-0.375394	-1.008198
H170	H	0.982893	-1.052099	-0.230698
O171	O	0.989195	-0.185832	-0.538705
C172	C	1.074135	-0.178775	-0.464487
C173	C	1.029816	-0.215547	-0.500631
H174	H	1.106979	-0.202785	-0.433685
H175	H	1.102977	-0.154864	-0.499258
H176	H	1.045222	-0.151448	-0.433726
H177	H	1.058680	-0.242906	-0.531392
H178	H	1.000971	-0.239422	-0.465826
H179	H	0.836524	-0.549854	-0.376532
H180	H	0.836609	-0.312363	-0.543796
O181	O	0.989240	-0.948817	-0.224343
C182	C	1.069113	-0.954536	-0.144553
C183	C	1.024788	-0.984568	-0.188793
H184	H	1.097856	-0.983427	-0.115790
H185	H	1.102051	-0.928943	-0.173458
H186	H	1.040210	-0.929000	-0.111624
H187	H	1.053640	-1.010133	-0.221730
H188	H	0.991848	-1.010128	-0.159848
H189	H	0.670010	-0.312519	-0.376398
O190	O	0.989172	-0.185599	-0.939676
C191	C	1.069118	-0.119272	-0.946674
C192	C	1.024797	-0.156075	-0.982769
H193	H	1.097941	-0.095400	-0.981499
H194	H	1.040271	-0.091913	-0.915890
H195	H	1.101985	-0.143288	-0.915904
H196	H	0.991920	-0.132101	-1.013573
H197	H	1.053683	-0.183435	-1.013513
H198	H	0.796333	-0.701986	-0.416773
O199	O	0.830234	-0.317605	-0.668125
C200	C	0.750338	-0.383973	-0.661128
C201	C	0.794682	-0.347189	-0.625033
H202	H	0.721592	-0.407909	-0.626303
H203	H	0.717404	-0.359991	-0.691867
H204	H	0.779226	-0.411277	-0.691942
H205	H	0.765844	-0.319878	-0.594184
H206	H	0.827617	-0.371203	-0.594333
H207	H	0.982813	-0.190981	-0.663170
O208	O	0.545560	-0.185797	-0.224251
C209	C	0.471230	-0.178651	-0.139322
C210	C	0.507389	-0.215468	-0.183549
H211	H	0.440350	-0.202625	-0.106412
H212	H	0.505990	-0.154732	-0.110545
H213	H	0.440545	-0.151333	-0.168302
H214	H	0.538074	-0.242819	-0.154618
H215	H	0.472594	-0.239351	-0.212329
O216	O	0.830207	-0.446423	-0.382810
C217	C	0.794458	-0.362324	-0.418407
C218	C	0.838747	-0.392359	-0.374178
H219	H	0.801338	-0.318608	-0.411434
H220	H	0.805497	-0.372987	-0.469195
H221	H	0.743714	-0.373146	-0.407304
H222	H	0.889506	-0.381553	-0.385224
H223	H	0.827654	-0.381693	-0.323403
O224	O	0.830364	-0.317462	-1.069158
C225	C	0.794638	-0.347065	-1.170409
C226	C	0.838926	-0.310277	-1.134251
H227	H	0.801536	-0.341261	-1.223043
H228	H	0.805662	-0.389235	-1.157535
H229	H	0.743892	-0.337907	-1.157411
H230	H	0.889687	-0.319387	-1.147230
H231	H	0.827848	-0.268117	-1.147128
