data_functionalizedCrystal
_audit_creation_method	'MofGen! by Chris Wilmer'
_symmetry_space_group_name_H-M	'P1'
_symmetry_Int_Tables_number	1
_symmetry_cell_setting	triclinic
loop_
_symmetry_equiv_pos_as_xyz
  x,y,z
_cell_length_a	26.210047
_cell_length_b	19.288864
_cell_length_c	19.288857
_cell_angle_alpha	96.865323
_cell_angle_beta	89.997665
_cell_angle_gamma	89.977148
loop_
_atom_site_label
_atom_site_type_symbol
_atom_site_fract_x
_atom_site_fract_y
_atom_site_fract_z
O1	O	0.042595	-0.921352	0.086638
O2	O	0.042560	-0.719091	0.098327
O3	O	0.042573	-0.826068	-0.008648
O4	O	0.042583	-0.814374	0.193613
O5	O	-0.042285	-0.826048	-0.008632
O6	O	-0.042298	-0.719070	0.098343
O7	O	-0.042263	-0.921331	0.086655
Cu8	Cu	-0.050029	-0.820199	0.092501
Cu9	Cu	0.050326	-0.820223	0.092481
O10	O	-0.042275	-0.814353	0.193630
C11	C	0.000127	-0.693204	0.097959
C12	C	0.000113	-0.616100	0.096830
N13	N	-0.120613	-0.820187	0.092514
C14	C	0.000143	-0.825683	-0.034517
C15	C	0.000141	-0.824556	-0.111620
C16	C	-0.473121	-0.867588	0.045123
C17	C	-0.686780	-0.867603	0.045113
O18	O	-0.714397	-0.907879	0.004823
N19	N	-0.713506	-0.820227	0.092466
C20	C	-0.686815	-0.772840	0.139821
O21	O	-0.714450	-0.732539	0.180092
C22	C	-0.473158	-0.772822	0.139826
C23	C	-0.446434	-0.820206	0.092476
C24	C	-0.446397	-0.914968	-0.002224
C25	C	-0.392986	-0.914966	-0.002219
C26	C	-0.366298	-0.867584	0.045134
C27	C	-0.393022	-0.820204	0.092481
C28	C	-0.446467	-0.725433	0.187178
C29	C	-0.393049	-0.725431	0.187174
C30	C	-0.366326	-0.772815	0.139823
C31	C	-0.312923	-0.772821	0.139839
N32	N	-0.286197	-0.820198	0.092487
C33	C	-0.312884	-0.867579	0.045134
C34	C	-0.798988	-0.772854	0.139815
C35	C	-0.852403	-0.772859	0.139815
C36	C	-0.852364	-0.867622	0.045106
C37	C	-0.798948	-0.867619	0.045111
C38	C	-0.772262	-0.820230	0.092463
C39	C	-0.200716	-0.867572	0.045150
C40	C	-0.147300	-0.867568	0.045161
C41	C	-0.147344	-0.772804	0.139867
C42	C	-0.200755	-0.772810	0.139858
C43	C	-0.227440	-0.820197	0.092494
O44	O	-0.285273	-0.732561	0.180104
O45	O	-0.285240	-0.907864	0.004859
C46	C	-0.526533	-0.867590	0.045118
C47	C	-0.553257	-0.820210	0.092465
C48	C	-0.526569	-0.772828	0.139818
C49	C	-0.606671	-0.820215	0.092464
C50	C	-0.633358	-0.867597	0.045112
C51	C	-0.606632	-0.914973	-0.002241
C52	C	-0.553220	-0.914971	-0.002235
C53	C	-0.553296	-0.725452	0.187170
C54	C	-0.606707	-0.725458	0.187161
C55	C	-0.633395	-0.772840	0.139808
N56	N	0.120910	-0.820241	0.092462
C57	C	0.000172	-0.947218	0.087022
C58	C	0.000188	-1.024321	0.088151
C59	C	0.000125	-0.571402	0.159598
C60	C	0.000130	-0.498955	0.158537
C61	C	0.000135	-0.471210	0.094705
C62	C	0.000121	-0.515917	0.031929
C63	C	0.000110	-0.588363	0.032991
C64	C	0.029879	-0.362956	0.044520
C65	C	0.029893	-0.290512	0.043460
C66	C	0.000166	-0.247764	0.091425
C67	C	-0.029569	-0.277468	0.140462
C68	C	-0.029580	-0.349914	0.141525
C69	C	0.000146	-0.392656	0.093546
C70	C	0.000182	-0.124510	0.153048
C71	C	0.000185	-0.052062	0.151984
C72	C	0.000180	-0.069026	0.025374
C73	C	0.000173	-0.141472	0.026439
C74	C	0.000176	-0.169210	0.090278
C75	C	0.046397	-0.824041	-0.147840
C76	C	0.046401	-0.822972	-0.220286
C77	C	0.000146	-0.822432	-0.256512
C78	C	-0.046116	-0.822943	-0.220283
C79	C	-0.046119	-0.824005	-0.147837
C80	C	-0.035282	-0.861425	-0.376736
C81	C	-0.035277	-0.860368	-0.449181
C82	C	0.000151	-0.819155	-0.479957
C83	C	0.035584	-0.779008	-0.438281
C84	C	0.035582	-0.780069	-0.365836
C85	C	0.000143	-0.821281	-0.335067
C86	C	0.046414	-0.817480	-0.594731
C87	C	0.046416	-0.816407	-0.667178
C88	C	-0.046103	-0.816385	-0.667174
C89	C	-0.046103	-0.817451	-0.594728
C90	C	0.000157	-0.818002	-0.558511
C91	C	0.000155	-0.814739	0.219498
C92	C	0.000160	-0.815866	0.296602
H93	H	-0.125543	-0.906157	0.006603
C94	C	-0.117983	-0.720686	0.191952
H95	H	-0.141546	-0.692468	0.220157
H96	H	-0.097154	-0.691858	0.167034
H97	H	-0.097140	-0.745581	0.220806
C98	C	0.062586	-0.409971	-0.008240
H99	H	0.080302	-0.381906	-0.037587
H100	H	0.041153	-0.441976	-0.035871
H101	H	0.086489	-0.435029	0.016194
C102	C	0.097281	-0.824635	-0.108004
H103	H	0.124830	-0.824168	-0.139954
H104	H	0.099213	-0.865543	-0.085164
H105	H	0.099195	-0.784545	-0.074322
H106	H	-0.531571	-0.686867	0.225730
H107	H	-0.083770	-0.817876	-0.565238
C108	C	-0.881726	-0.919735	-0.006986
H109	H	-0.917364	-0.912943	-0.000205
H110	H	-0.872962	-0.966069	0.000428
H111	H	-0.872974	-0.912327	-0.053325
C112	C	-0.096983	-0.815785	-0.707012
H113	H	-0.090357	-0.815081	-0.755347
H114	H	-0.115994	-0.775458	-0.689711
H115	H	-0.115984	-0.856455	-0.700567
C116	C	-0.363594	-0.967103	-0.054289
H117	H	-0.327959	-0.960331	-0.047503
H118	H	-0.372344	-0.959727	-0.100634
H119	H	-0.372344	-1.013426	-0.046839
C120	C	-0.881793	-0.720737	0.191901
H121	H	-0.858244	-0.692514	0.220094
H122	H	-0.902626	-0.745621	0.220756
H123	H	-0.902635	-0.691904	0.166979
H124	H	-0.777264	-0.734263	0.178377
H125	H	-0.064127	-0.893061	-0.483108
C126	C	-0.475745	-0.967096	-0.054313
H127	H	-0.452172	-0.995311	-0.082503
H128	H	-0.496592	-0.942217	-0.083172
H129	H	-0.496569	-0.995935	-0.029395
H130	H	-0.468218	-0.686848	0.225734
H131	H	-0.053776	-0.242664	0.179520
H132	H	0.000177	-0.147095	0.205029
C133	C	-0.097002	-0.824578	-0.107995
H134	H	-0.124551	-0.824106	-0.139943
H135	H	-0.098933	-0.784498	-0.074305
H136	H	-0.098918	-0.865495	-0.085164
H137	H	0.084085	-0.815985	-0.696666
H138	H	0.084070	-0.822549	-0.249781
C139	C	0.000129	-0.485400	-0.038285
H140	H	0.000143	-0.435852	-0.029928
H141	H	-0.029465	-0.500730	-0.064117
H142	H	0.029722	-0.500784	-0.064124
H143	H	-0.777193	-0.906203	0.006553
C144	C	-0.363697	-0.673305	0.239266
H145	H	-0.387266	-0.645093	0.267466
H146	H	-0.342866	-0.644472	0.214357
H147	H	-0.342857	-0.698200	0.268124
C148	C	-0.074256	-0.906762	-0.342889
H149	H	-0.095352	-0.930527	-0.378084
H150	H	-0.094756	-0.877841	-0.310698
H151	H	-0.056700	-0.939898	-0.319012
H152	H	0.000191	-0.015669	0.203100
H153	H	0.000216	-0.046436	-0.026600
C154	C	-0.230153	-0.720663	0.191916
H155	H	-0.206606	-0.692434	0.220107
H156	H	-0.251000	-0.745520	0.220777
H157	H	-0.250980	-0.691839	0.166963
H158	H	-0.628462	-0.686873	0.225726
C159	C	0.000104	-0.637533	-0.036057
H160	H	0.000110	-0.610635	-0.074227
H161	H	-0.029490	-0.666126	-0.038270
H162	H	0.029698	-0.666165	-0.038276
H163	H	0.000166	-0.177867	-0.024674
C164	C	-0.635995	-0.967089	-0.054330
H165	H	-0.671633	-0.960295	-0.047550
H166	H	-0.627231	-1.013422	-0.046911
H167	H	-0.627242	-0.959686	-0.100670
H168	H	-0.083778	-0.822501	-0.249782
C169	C	0.062597	-0.257844	-0.010480
H170	H	0.080292	-0.293678	-0.038903
H171	H	0.086510	-0.226386	0.013108
H172	H	0.041159	-0.233323	-0.038934
C173	C	0.000119	-0.601910	0.229818
H174	H	0.000121	-0.564909	0.267049
H175	H	0.029705	-0.629847	0.232863
H176	H	-0.029483	-0.629790	0.232867
H177	H	-0.222437	-0.906158	0.006580
C178	C	0.000150	-0.449779	0.227585
H179	H	0.000155	-0.476674	0.265756
H180	H	-0.029434	-0.421134	0.229815
H181	H	0.029753	-0.421197	0.229784
C182	C	-0.062287	-0.382590	0.195455
H183	H	-0.058032	-0.431857	0.189218
H184	H	-0.097172	-0.371508	0.189183
H185	H	-0.051829	-0.364573	0.241237
H186	H	0.064431	-0.747379	-0.331906
H187	H	0.064433	-0.745448	-0.463337
C188	C	0.097296	-0.818077	-0.554886
H189	H	0.090670	-0.818793	-0.506553
H190	H	0.116296	-0.777411	-0.561331
H191	H	0.116309	-0.858408	-0.572187
H192	H	-0.531465	-0.953556	-0.040793
