data_functionalizedCrystal
_audit_creation_method	'MofGen! by Chris Wilmer'
_symmetry_space_group_name_H-M	'P1'
_symmetry_Int_Tables_number	1
_symmetry_cell_setting	triclinic
loop_
_symmetry_equiv_pos_as_xyz
  x,y,z
_cell_length_a	12.759401
_cell_length_b	12.594516
_cell_length_c	12.759393
_cell_angle_alpha	89.970876
_cell_angle_beta	89.981504
_cell_angle_gamma	90.016214
loop_
_atom_site_label
_atom_site_type_symbol
_atom_site_fract_x
_atom_site_fract_y
_atom_site_fract_z
Zn1	Zn	1.606246	-0.423675	-0.593999
Zn2	Zn	1.606136	-0.601694	-0.418327
Zn3	Zn	1.430547	-0.423730	-0.418339
Zn4	Zn	1.430532	-0.601612	-0.593968
O5	O	1.518365	-0.512678	-0.506158
O6	O	1.753252	-0.447300	-0.570704
O7	O	1.582804	-0.578144	-0.271307
O8	O	1.453907	-0.274777	-0.441658
O9	O	1.753171	-0.578090	-0.441638
O10	O	1.582991	-0.274736	-0.570715
O11	O	1.453800	-0.447395	-0.271316
O12	O	1.283524	-0.447316	-0.441628
O13	O	1.453880	-0.577951	-0.740993
O14	O	1.283513	-0.578005	-0.570663
O15	O	1.582976	-0.447221	-0.741016
O16	O	1.582789	-0.750629	-0.441608
O17	O	1.453774	-0.750569	-0.570651
C18	C	1.245398	-0.512658	-0.506144
C19	C	1.128621	-0.512676	-0.506163
C20	C	1.073781	-0.580834	-0.573240
C21	C	0.964057	-0.580848	-0.573251
C22	C	0.964023	-0.444541	-0.439099
C23	C	1.073745	-0.444523	-0.439094
C24	C	1.128657	-0.648987	-0.640308
C25	C	1.073816	-0.717152	-0.707390
C26	C	0.964092	-0.717165	-0.707402
C27	C	0.909209	-0.649014	-0.640331
C28	C	1.518296	-0.789219	-0.506148
C29	C	1.518363	-0.907524	-0.506179
C30	C	1.448185	-0.976783	-0.576316
C31	C	1.422585	-1.047654	-0.480449
C32	C	1.544058	-1.047453	-0.602062
C33	C	1.492713	-0.976836	-0.410261
C34	C	1.614230	-0.976629	-0.531938
C35	C	1.588667	-1.047468	-0.436006
C36	C	1.792398	-0.512698	-0.506173
C37	C	1.909175	-0.512707	-0.506179
C38	C	1.518439	-0.512570	-0.780192
C39	C	1.518470	-0.512525	-0.896968
C40	C	1.518463	-0.235057	-0.506192
C41	C	1.518505	-0.116752	-0.506206
C42	C	1.585700	-0.444447	-0.951844
C43	C	1.585725	-0.444409	-1.061568
C44	C	1.451288	-0.580534	-1.061531
C45	C	1.451258	-0.580567	-0.951809
C46	C	1.652912	-0.376405	-0.897003
C47	C	1.720147	-0.308323	-0.951879
C48	C	1.720172	-0.308284	-1.061603
C49	C	1.652962	-0.376328	-1.116451
C50	C	1.518352	-0.512708	-0.233191
C51	C	1.518525	-0.512454	-0.116415
H52	H	1.388731	-0.945746	-0.635542
O53	O	1.386062	-0.646783	-1.114692
C54	C	1.408997	-0.752876	-1.087877
H55	H	1.449359	-0.755107	-1.008211
H56	H	1.333155	-0.800600	-1.084111
H57	H	1.463019	-0.788711	-1.149623
H58	H	1.648075	-1.078309	-0.376636
H59	H	1.341578	-1.078874	-0.458684
O60	O	1.386110	-0.646752	-0.898370
C61	C	1.445901	-0.715526	-0.834912
H62	H	1.525531	-0.677991	-0.818509
H63	H	1.403097	-0.729800	-0.757740
H64	H	1.457423	-0.794398	-0.877173
O65	O	0.910757	-0.378200	-0.374057
C66	C	0.937601	-0.272138	-0.397170
H67	H	0.967797	-0.266852	-0.481108
H68	H	0.865442	-0.219561	-0.388209
H69	H	1.001269	-0.244236	-0.340883
H70	H	1.695219	-0.945412	-0.553750
O71	O	0.802622	-0.649032	-0.640172
C72	C	0.765889	-0.676281	-0.539456
H73	H	0.829077	-0.658012	-0.478945
H74	H	0.692474	-0.628264	-0.520890
H75	H	0.746412	-0.764597	-0.537091
O76	O	1.126981	-0.378438	-0.373780
C77	C	1.100112	-0.401566	-0.269032
H78	H	1.069928	-0.486592	-0.263591
H79	H	1.172256	-0.392336	-0.217142
H80	H	1.036429	-0.344472	-0.241659
H81	H	1.565734	-1.078472	-0.683138
O82	O	1.653106	-0.376437	-0.790419
C83	C	1.753784	-0.403825	-0.753802
H84	H	1.814299	-0.385635	-0.817066
H85	H	1.772492	-0.355838	-0.680418
H86	H	1.755973	-0.492145	-0.734312
H87	H	1.774911	-0.252841	-1.106280
O88	O	1.235241	-0.649169	-0.640295
C89	C	1.271870	-0.751133	-0.613105
H90	H	1.208638	-0.812472	-0.630955
H91	H	1.345294	-0.770104	-0.660451
H92	H	1.291299	-0.753274	-0.525924
H93	H	1.774861	-0.252918	-0.907214
H94	H	1.470943	-0.945945	-0.329163
H95	H	1.652975	-0.376279	-1.205796
O96	O	0.910656	-0.783273	-0.772530
C97	C	0.802044	-0.768695	-0.758142
H98	H	0.787055	-0.686513	-0.723876
H99	H	0.760376	-0.776020	-0.836829
H100	H	0.770876	-0.831764	-0.702087
H101	H	1.118509	-0.772632	-0.762003
