data_functionalizedCrystal
_audit_creation_method	'MofGen! by Chris Wilmer'
_symmetry_space_group_name_H-M	'P1'
_symmetry_Int_Tables_number	1
_symmetry_cell_setting	triclinic
loop_
_symmetry_equiv_pos_as_xyz
  x,y,z
_cell_length_a	34.408637
_cell_length_b	34.407814
_cell_length_c	34.404193
_cell_angle_alpha	60.004510
_cell_angle_beta	60.009006
_cell_angle_gamma	59.994604
loop_
_atom_site_label
_atom_site_type_symbol
_atom_site_fract_x
_atom_site_fract_y
_atom_site_fract_z
O1	O	0.053973	-0.567860	0.474801
O2	O	0.020377	-0.442124	0.382567
O3	O	0.100004	-0.521670	0.382483
O4	O	-0.025653	-0.488314	0.474886
O5	O	0.126426	-0.495253	0.408816
O6	O	0.046800	-0.415707	0.408900
O7	O	0.080396	-0.541443	0.501134
Zn8	Zn	0.067793	-0.474381	0.459198
Zn9	Zn	0.032980	-0.509186	0.424503
O10	O	0.000769	-0.461897	0.501219
N11	N	0.091552	-0.450631	0.482879
N12	N	0.009225	-0.532940	0.400823
C13	C	0.142848	-0.268847	0.534081
C14	C	0.142979	-0.399386	0.664559
C15	C	0.142862	-0.399365	0.534081
C16	C	0.273409	-0.399338	0.533986
C17	C	0.157225	-0.311914	0.548422
C18	C	0.157300	-0.385019	0.621491
C19	C	0.230339	-0.384991	0.548370
C20	C	0.157235	-0.385007	0.548422
C21	C	0.124548	-0.214028	0.515827
C22	C	0.124571	-0.417639	0.515827
C23	C	0.175526	-0.366733	0.566676
C24	C	0.353121	-0.385580	0.491988
C25	C	0.402952	-0.402180	0.475348
C26	C	0.402981	-0.482812	0.506096
C27	C	0.353151	-0.466211	0.522737
C28	C	0.136544	-0.189099	0.466839
C29	C	0.119905	-0.139265	0.450247
C30	C	0.079280	-0.139291	0.531632
C31	C	0.095918	-0.189125	0.548224
C32	C	0.075577	-0.405615	0.527900
C33	C	0.058953	-0.422228	0.511301
C34	C	0.140315	-0.462889	0.470566
C35	C	0.156941	-0.446276	0.487159
C36	C	0.075772	-0.405653	0.744326
C37	C	0.059206	-0.422280	0.794159
C38	C	0.140607	-0.462951	0.794094
C39	C	0.157172	-0.446325	0.744260
C40	C	0.124753	-0.417674	0.719377
C41	C	0.328223	-0.417595	0.515681
C42	C	-0.172390	-0.583988	0.349141
C43	C	-0.041751	-0.584138	0.218783
C44	C	-0.041941	-0.584130	0.349402
C45	C	-0.041957	-0.714607	0.349338
C46	C	-0.129326	-0.598388	0.334853
C47	C	-0.056165	-0.598473	0.261852
C48	C	-0.056282	-0.671535	0.334962
C49	C	-0.056272	-0.598469	0.334999
C50	C	-0.227205	-0.565659	0.367327
C51	C	-0.023703	-0.565882	0.367734
C52	C	-0.074511	-0.616717	0.316667
C53	C	-0.055754	-0.794298	0.391257
C54	C	-0.039181	-0.844132	0.407888
C55	C	0.041447	-0.844215	0.377269
C56	C	0.024873	-0.794381	0.360637
C57	C	-0.252183	-0.577666	0.416302
C58	C	-0.302014	-0.561001	0.432833
C59	C	-0.301886	-0.520329	0.351410
C60	C	-0.252055	-0.536994	0.334880
C61	C	-0.035709	-0.516892	0.355682
C62	C	-0.019129	-0.500308	0.372353
C63	C	0.021465	-0.581700	0.413115
C64	C	0.004884	-0.598286	0.396450
C65	C	-0.035389	-0.516907	0.139026
C66	C	-0.018707	-0.500324	0.089193
C67	C	0.021949	-0.581721	0.089240
C68	C	0.005268	-0.598303	0.139074
C69	C	-0.023402	-0.565894	0.163965
C70	C	-0.023728	-0.769425	0.367633
N71	N	0.427173	-0.450553	0.482630
O72	O	0.589997	-0.458460	0.365361
O73	O	0.590185	-0.550997	0.490963
O74	O	0.590104	-0.550786	0.411309
O75	O	0.590077	-0.458671	0.445016
O76	O	0.510940	-0.524462	0.437777
O77	O	0.511020	-0.524674	0.517432
O78	O	0.510832	-0.432136	0.391830
Zn79	Zn	0.498357	-0.474225	0.458833
Zn80	Zn	0.602660	-0.508908	0.423960
O81	O	0.510913	-0.432348	0.471484
N82	N	0.673844	-0.532580	0.400158
N83	N	0.091520	-0.115070	0.482873
O84	O	-0.025663	0.047841	0.474857
O85	O	0.099940	0.047877	0.382299
O86	O	0.020247	0.047844	0.382560
O87	O	0.054030	0.047874	0.474596
O88	O	0.046674	-0.031326	0.408942
O89	O	0.126367	-0.031293	0.408680
O90	O	0.000764	-0.031329	0.501238
Zn91	Zn	0.067761	-0.043881	0.459148
Zn92	Zn	0.032943	0.060429	0.424389
O93	O	0.080457	-0.031296	0.500977
N94	N	0.009178	0.131618	0.400665
N95	N	0.091852	-0.450680	0.818332
O96	O	0.083862	-0.567845	0.981235
O97	O	-0.008657	-0.442198	0.981276
O98	O	-0.008441	-0.521875	0.981252
O99	O	0.083646	-0.488168	0.981258
O100	O	0.017919	-0.495468	0.902085
O101	O	0.017703	-0.415791	0.902109
O102	O	0.110222	-0.541438	0.902067
Zn103	Zn	0.068148	-0.474422	0.889518
Zn104	Zn	0.033417	-0.509214	0.993825
O105	O	0.110006	-0.461761	0.902091
N106	N	0.009712	-0.532961	1.065011
C107	C	0.030439	-0.413071	0.383027
C108	C	0.129046	-0.511580	0.382922
C109	C	0.070334	-0.570496	0.500675
C110	C	-0.028274	-0.471987	0.500780
C111	C	0.550625	-0.550579	0.520021
C112	C	0.550527	-0.550317	0.421379
C113	C	0.550389	-0.432554	0.362773
C114	C	0.550491	-0.432816	0.461414
C115	C	0.128944	0.008394	0.382712
C116	C	0.030287	0.008256	0.383068
C117	C	-0.028273	0.008252	0.500793
C118	C	0.070417	0.008292	0.500470
C119	C	-0.008218	-0.413165	0.941698
C120	C	-0.007945	-0.511830	0.941653
C121	C	0.109783	-0.570471	0.941646
C122	C	0.109516	-0.471800	0.941673
H123	H	0.019320	-0.412483	0.814467
H124	H	0.165136	-0.518689	0.353905
H125	H	0.550329	-0.403500	0.326702
H126	H	0.550485	-0.403881	0.468626
C127	C	0.040109	-0.374136	0.716957
C128	C	-0.013770	-0.360913	0.744401
C129	C	-0.049432	-0.329398	0.717032
C130	C	-0.031215	-0.311107	0.662219
C131	C	0.022667	-0.324330	0.634772
C132	C	0.058329	-0.355845	0.662141
H133	H	-0.027257	-0.374453	0.784980
H134	H	-0.089318	-0.319609	0.737351
H135	H	-0.057614	-0.287778	0.641959
H136	H	0.036154	-0.310790	0.594193
H137	H	0.098216	-0.365634	0.641823
C138	C	0.176267	-0.494456	0.821466
C139	C	0.230147	-0.507676	0.794024
C140	C	0.265807	-0.539184	0.821396
C141	C	0.247587	-0.557472	0.876209
C142	C	0.193705	-0.544252	0.903654
C143	C	0.158045	-0.512744	0.876282
H144	H	0.243636	-0.494138	0.753445
H145	H	0.305694	-0.548970	0.801079
H146	H	0.273985	-0.580795	0.896471
H147	H	0.180216	-0.557790	0.944232
H148	H	0.118158	-0.502958	0.896599
H149	H	0.550674	-0.579628	0.556096
H150	H	0.550540	-0.579254	0.414165
C151	C	0.177571	0.008708	0.343356
C152	C	0.216766	0.008876	0.352788
C153	C	0.265393	0.009190	0.313432
C154	C	0.274826	0.009335	0.264644
C155	C	0.235630	0.009167	0.255209
C156	C	0.187002	0.008853	0.294565
H157	H	0.209785	0.008768	0.388906
H158	H	0.294409	0.009314	0.320416
H159	H	0.310823	0.009568	0.235510
H160	H	0.242611	0.009275	0.219091
H161	H	0.157987	0.008729	0.287581
H162	H	-0.036863	-0.519031	0.941619
H163	H	0.023050	0.008252	0.354152
C164	C	-0.077002	0.008240	0.540049
C165	C	-0.116247	0.008223	0.530567
C166	C	-0.164976	0.008211	0.569823
C167	C	-0.174459	0.008216	0.618561
C168	C	-0.135212	0.008234	0.628046
C169	C	-0.086484	0.008246	0.588790
H170	H	-0.109228	0.008219	0.494486
H171	H	-0.194029	0.008198	0.562802
H172	H	-0.210531	0.008208	0.647621
H173	H	-0.142231	0.008238	0.664127
H174	H	-0.057431	0.008258	0.595811
H175	H	0.138832	-0.606554	0.941627
H176	H	0.077653	0.008301	0.529384
H177	H	0.015032	-0.638195	0.159378
C178	C	0.148603	-0.462059	0.941667
C179	C	0.169106	-0.492876	0.982766
C180	C	0.208192	-0.483135	0.982761
C181	C	0.226775	-0.442578	0.941656
C182	C	0.206272	-0.411759	0.900553
C183	C	0.167186	-0.421500	0.900559
H184	H	0.155349	-0.522901	1.013198
H185	H	0.223370	-0.505950	1.013188
H186	H	0.255709	-0.435368	0.941652
H187	H	0.220029	-0.381734	0.870122
H188	H	0.152008	-0.398685	0.870132
C189	C	0.430403	-0.536289	0.513854
C190	C	0.403016	-0.571507	0.539917
C191	C	0.430441	-0.624984	0.547675
C192	C	0.485252	-0.643244	0.529370
C193	C	0.512642	-0.608025	0.503306
C194	C	0.485218	-0.554547	0.495548
H195	H	0.362438	-0.557991	0.553469
H196	H	0.410165	-0.651056	0.566970
H197	H	0.505554	-0.682831	0.535113
H198	H	0.553220	-0.621541	0.489754
H199	H	0.505494	-0.528476	0.476253
C200	C	-0.077029	-0.462390	0.539980
C201	C	-0.107717	-0.493295	0.560498
C202	C	-0.156472	-0.483698	0.599698
C203	C	-0.174539	-0.443196	0.618382
C204	C	-0.143850	-0.412289	0.597864
C205	C	-0.095095	-0.421886	0.558663
H206	H	-0.094343	-0.523279	0.546667
H207	H	-0.179190	-0.506578	0.614887
H208	H	-0.210630	-0.436092	0.647400
H209	H	-0.157224	-0.382304	0.611694
H210	H	-0.072377	-0.399006	0.543475
H211	H	0.197059	-0.456117	0.723950
H212	H	-0.037264	-0.377079	0.941710
H213	H	0.049217	-0.382297	0.551240
H214	H	0.019058	-0.412426	0.521121
H215	H	0.196836	-0.456064	0.477324
C216	C	0.175925	-0.494393	0.439034
C217	C	0.211805	-0.542456	0.458071
C218	C	0.247413	-0.573958	0.426538
C219	C	0.247140	-0.557398	0.375970
C220	C	0.211258	-0.509333	0.356930
C221	C	0.175651	-0.477831	0.388462
H222	H	0.212009	-0.554717	0.495507
H223	H	0.273975	-0.609539	0.440633
H224	H	0.273498	-0.580718	0.352628
H225	H	0.211055	-0.497072	0.319494
H226	H	0.149089	-0.442250	0.374368
H227	H	0.023260	-0.376951	0.354059
H228	H	0.332881	-0.492283	0.542031
C229	C	0.080027	-0.619290	0.539812
C230	C	0.128825	-0.658426	0.530136
C231	C	0.138518	-0.707220	0.569274
C232	C	0.099414	-0.716878	0.618088
C233	C	0.050613	-0.677741	0.627766
C234	C	0.040919	-0.628947	0.588628
H235	H	0.157775	-0.651277	0.494000
H236	H	0.174644	-0.736191	0.562109
H237	H	0.106589	-0.752999	0.647060
H238	H	0.021662	-0.684890	0.663902
H239	H	0.004793	-0.599976	0.595793
H240	H	-0.028907	-0.460416	0.362542
H241	H	0.423225	-0.376108	0.456057
C242	C	0.325698	-0.332101	0.484228
C243	C	0.353089	-0.296887	0.458168
C244	C	0.325669	-0.243408	0.450406
C245	C	0.270857	-0.225143	0.468705
C246	C	0.243463	-0.260358	0.494767
C247	C	0.270883	-0.313837	0.502529
H248	H	0.393667	-0.310407	0.444620
H249	H	0.345948	-0.217340	0.431113
H250	H	0.250559	-0.185555	0.462959
H251	H	0.202886	-0.246838	0.508314
H252	H	0.250604	-0.339905	0.521822
H253	H	0.129672	-0.118967	0.410356
C254	C	0.168035	-0.216490	0.431201
C255	C	0.216075	-0.209616	0.395319
C256	C	0.247566	-0.237009	0.359681
C257	C	0.231017	-0.271277	0.359925
C258	C	0.182974	-0.278153	0.395809
C259	C	0.151483	-0.250760	0.431446
H260	H	0.228328	-0.184248	0.395137
H261	H	0.283131	-0.231919	0.333118
H262	H	0.254329	-0.291555	0.333544
H263	H	0.170721	-0.303521	0.395990
H264	H	0.115918	-0.255850	0.458009
C265	C	0.047790	-0.111896	0.567268
C266	C	0.034602	-0.139317	0.621155
C267	C	0.003110	-0.111924	0.656792
C268	C	-0.015193	-0.057108	0.638543
C269	C	-0.002005	-0.029683	0.584654
C270	C	0.029487	-0.057077	0.549016
H271	H	0.048151	-0.179898	0.634667
H272	H	-0.006652	-0.132226	0.696685
H273	H	-0.038504	-0.036830	0.664924
H274	H	-0.015554	0.010897	0.571142
H275	H	0.039249	-0.036775	0.509124
H276	H	-0.028474	-0.460433	0.068892
C277	C	0.082722	-0.216544	0.602112
C278	C	0.097247	-0.209693	0.633379
C279	C	0.084048	-0.237113	0.687268
C280	C	0.056324	-0.271383	0.709891
C281	C	0.041798	-0.278236	0.678624
C282	C	0.054996	-0.250817	0.624734
H283	H	0.117771	-0.184322	0.616632
H284	H	0.094802	-0.232039	0.710414
H285	H	0.046554	-0.291681	0.749784
H286	H	0.021273	-0.303607	0.695371
H287	H	0.044243	-0.255890	0.601588
H288	H	-0.058738	-0.490513	0.159288
H289	H	0.045284	-0.608113	0.068976
H290	H	-0.058984	-0.490504	0.332300
H291	H	0.044746	-0.608091	0.436494
H292	H	0.014660	-0.638178	0.406265
H293	H	0.081021	-0.864532	0.371574
C294	C	0.060105	-0.767022	0.334648
C295	C	0.113564	-0.794479	0.326957
C296	C	0.148798	-0.767120	0.300968
C297	C	0.130574	-0.712304	0.282670
C298	C	0.077112	-0.684845	0.290361
C299	C	0.041878	-0.712204	0.316350
H300	H	0.127058	-0.835059	0.340503
H301	H	0.188374	-0.787448	0.295275
H302	H	0.156656	-0.692052	0.263431
H303	H	0.063618	-0.644264	0.276815
H304	H	0.002302	-0.691876	0.322043
H305	H	-0.095331	-0.773979	0.396956
C306	C	-0.074413	-0.871495	0.433879
C307	C	-0.115253	-0.864601	0.480128
C308	C	-0.150485	-0.891964	0.506123
C309	C	-0.144876	-0.926221	0.485870
C310	C	-0.104033	-0.933117	0.439619
C311	C	-0.068802	-0.905754	0.413624
H312	H	-0.119407	-0.839240	0.495123
H313	H	-0.180719	-0.886859	0.540361
H314	H	-0.170956	-0.946477	0.505113
H315	H	-0.099879	-0.958478	0.424624
H316	H	-0.038568	-0.910859	0.379386
H317	H	-0.322352	-0.570775	0.472713
C318	C	-0.224850	-0.609196	0.451995
C319	C	-0.231746	-0.590123	0.487867
C320	C	-0.204411	-0.621654	0.523559
C321	C	-0.170180	-0.672259	0.523380
C322	C	-0.163283	-0.691335	0.487507
C323	C	-0.190618	-0.659803	0.451815
H324	H	-0.257087	-0.552660	0.488001
H325	H	-0.209517	-0.607533	0.550115
H326	H	-0.149945	-0.695600	0.549802
H327	H	-0.137942	-0.728798	0.487373
H328	H	-0.185512	-0.673925	0.425259
C329	C	-0.329222	-0.488800	0.315718
C330	C	-0.322325	-0.507874	0.279847
C331	C	-0.349659	-0.476343	0.244153
C332	C	-0.383890	-0.425738	0.244332
C333	C	-0.390788	-0.406662	0.280205
C334	C	-0.363454	-0.438193	0.315898
H335	H	-0.296984	-0.545337	0.279713
H336	H	-0.344553	-0.490465	0.217598
H337	H	-0.404125	-0.402397	0.217910
H338	H	-0.416129	-0.369199	0.280338
H339	H	-0.368561	-0.424071	0.342453
H340	H	-0.231721	-0.527215	0.295000
