data_functionalizedCrystal
_audit_creation_method	'MofGen! by Chris Wilmer'
_symmetry_space_group_name_H-M	'P1'
_symmetry_Int_Tables_number	1
_symmetry_cell_setting	triclinic
loop_
_symmetry_equiv_pos_as_xyz
  x,y,z
_cell_length_a	14.853558
_cell_length_b	10.540510
_cell_length_c	13.330367
_cell_angle_alpha	89.997867
_cell_angle_beta	89.992972
_cell_angle_gamma	84.072222
loop_
_atom_site_label
_atom_site_type_symbol
_atom_site_fract_x
_atom_site_fract_y
_atom_site_fract_z
O1	O	1.197281	0.165674	-0.083406
O2	O	0.934928	0.185428	-0.083410
O3	O	1.072104	-0.009224	-0.083407
O4	O	1.060105	0.360326	-0.083408
O5	O	1.072084	-0.009229	0.083440
O6	O	0.934908	0.185424	0.083437
O7	O	1.197261	0.165669	0.083442
Cu8	Cu	1.066083	0.175546	0.098674
Cu9	Cu	1.066106	0.175551	-0.098642
O10	O	1.060085	0.360322	0.083439
C11	C	0.901324	0.184533	0.000013
C12	C	0.801226	0.181857	0.000012
C13	C	0.754210	0.180605	-0.090941
C14	C	0.754186	0.180585	0.090963
C15	C	0.660138	0.178064	0.090964
C16	C	0.613122	0.176811	0.000012
C17	C	0.660154	0.178080	-0.090942
C18	C	0.613101	0.176782	0.181916
C19	C	0.519048	0.174260	0.181922
C20	C	0.472030	0.173016	0.090968
C21	C	0.519067	0.174286	0.000011
C22	C	0.472050	0.173034	-0.090941
C23	C	0.519085	0.174313	-0.181900
C24	C	0.613135	0.176836	-0.181895
C25	C	0.377979	0.170493	0.090964
C26	C	0.377995	0.170509	-0.090942
C27	C	1.071200	-0.056520	0.000014
C28	C	1.068525	-0.197441	0.000008
C29	C	1.163820	-0.415949	0.000392
C30	C	1.166673	-0.269385	0.000011
C31	C	1.018293	-0.241642	-0.095268
C32	C	1.016135	-0.388379	-0.095343
C33	C	1.014068	-0.388170	0.094393
C34	C	1.018723	-0.241880	0.095647
C35	C	1.230864	0.166564	0.000016
C36	C	1.330963	0.169240	0.000011
C37	C	1.060989	0.407618	0.000015
C38	C	1.063664	0.548538	0.000015
N39	N	1.066072	0.175542	0.237455
N40	N	1.066124	0.175546	-0.237424
C41	C	1.005362	0.261710	0.710077
C42	C	1.126875	0.089383	0.710047
C43	C	1.126865	0.089379	0.605029
C44	C	1.066103	0.175543	0.552530
C45	C	1.005352	0.261711	0.605049
C46	C	1.187621	0.003222	0.552502
C47	C	1.187614	0.003215	0.447477
C48	C	1.126847	0.089374	0.394976
C49	C	1.066093	0.175544	0.447502
C50	C	1.005331	0.261708	0.395003
C51	C	0.944572	0.347874	0.447526
C52	C	0.944585	0.347870	0.552548
C53	C	1.126834	0.089378	0.289955
C54	C	1.005321	0.261710	0.289975
H55	H	0.480761	0.173217	0.255986
C56	C	0.326245	0.169087	0.191004
H57	H	0.367716	0.170198	0.245171
H58	H	0.295959	0.094140	0.194779
H59	H	0.283151	0.242081	0.194790
C60	C	0.877729	0.442604	0.610320
H61	H	0.841523	0.493901	0.564015
H62	H	0.910467	0.495546	0.651298
H63	H	0.839929	0.396791	0.651282
H64	H	0.480793	0.173286	-0.255953
H65	H	0.651390	0.177791	0.255965
C66	C	1.193705	-0.005395	0.767789
H67	H	1.229887	-0.056709	0.721467
H68	H	1.160942	-0.058313	0.808770
H69	H	1.231532	0.040368	0.808744
C70	C	0.938534	0.356488	0.767847
H71	H	0.947242	0.344156	0.837914
H72	H	0.878280	0.342552	0.750647
H73	H	0.948868	0.441236	0.750630
C74	C	1.068068	-0.203732	0.190873
H75	H	1.037616	-0.230867	0.248473
H76	H	1.068471	-0.113697	0.192607
H77	H	1.128556	-0.243104	0.190293
H78	H	1.237096	-0.066925	0.595250
H79	H	1.237086	-0.066946	0.404719
C80	C	0.938484	0.356494	0.232233
H81	H	0.902308	0.407812	0.278558
H82	H	0.900666	0.310740	0.191270
H83	H	0.971251	0.409428	0.191261
C84	C	0.326283	0.169138	-0.190992
H85	H	0.367768	0.170255	-0.245157
H86	H	0.283184	0.242117	-0.194766
H87	H	0.296007	0.094176	-0.194782
C88	C	0.664876	0.178223	-0.281937
H89	H	0.727623	0.179888	-0.268908
H90	H	0.643066	0.251775	-0.319313
H91	H	0.655872	0.103834	-0.319303
C92	C	1.220102	-0.231584	-0.092404
H93	H	1.222041	-0.141778	-0.092947
H94	H	1.191233	-0.256790	-0.151675
H95	H	1.280011	-0.272852	-0.089594
H96	H	1.176307	0.019229	0.247195
H97	H	1.045250	-0.430698	0.166613
H98	H	1.205977	-0.240477	0.068307
H99	H	0.792509	0.181651	-0.164997
C100	C	1.215468	-0.473185	0.092700
H101	H	1.176419	-0.519265	0.131834
H102	H	1.235775	-0.406494	0.131922
H103	H	1.266067	-0.529133	0.071291
H104	H	0.895103	0.418034	0.404770
C105	C	0.805901	0.181964	0.191001
H106	H	0.868649	0.183656	0.177975
H107	H	0.796890	0.107585	0.228373
H108	H	0.784077	0.255525	0.228369
H109	H	1.201846	-0.459873	-0.067548
H110	H	1.050480	-0.428972	-0.166563
H111	H	0.942726	-0.410563	-0.099661
C112	C	0.920687	-0.176539	-0.100069
H113	H	0.909678	-0.121688	-0.043878
H114	H	0.879417	-0.239632	-0.099185
H115	H	0.912755	-0.128109	-0.160104
C116	C	1.065437	-0.200492	-0.191058
H117	H	1.034538	-0.227674	-0.248316
H118	H	1.126357	-0.238161	-0.191912
H119	H	1.064487	-0.110244	-0.192048
C120	C	0.921924	-0.174521	0.103429
H121	H	0.910561	-0.118172	0.048201
H122	H	0.915749	-0.127445	0.164240
H123	H	0.879738	-0.236394	0.102626
H124	H	0.940377	-0.409505	0.095034
