data_functionalizedCrystal
_audit_creation_method	'MofGen! by Chris Wilmer'
_symmetry_space_group_name_H-M	'P1'
_symmetry_Int_Tables_number	1
_symmetry_cell_setting	triclinic
loop_
_symmetry_equiv_pos_as_xyz
  x,y,z
_cell_length_a	14.519709
_cell_length_b	19.288865
_cell_length_c	12.996460
_cell_angle_alpha	90.005525
_cell_angle_beta	90.000602
_cell_angle_gamma	83.408197
loop_
_atom_site_label
_atom_site_type_symbol
_atom_site_fract_x
_atom_site_fract_y
_atom_site_fract_z
O1	O	-1.223293	-0.091045	-0.085445
O2	O	-0.889960	0.242288	0.247888
O3	O	-0.556626	0.575622	0.581221
O4	O	-0.954748	-0.101767	-0.085478
O5	O	-0.621415	0.231566	0.247855
O6	O	-0.288081	0.564899	0.581189
O7	O	-1.096780	0.004696	-0.085440
O8	O	-0.763447	0.338029	0.247893
O9	O	-0.430113	0.671363	0.581226
O10	O	-1.081261	-0.197509	-0.085483
O11	O	-0.747927	0.135825	0.247850
O12	O	-0.414594	0.469158	0.581184
O13	O	-1.096762	0.004690	0.085693
O14	O	-0.763429	0.338023	0.419027
O15	O	-0.430095	0.671357	0.752360
O16	O	-0.954730	-0.101774	0.085656
O17	O	-0.621396	0.231560	0.418989
O18	O	-0.288063	0.564893	0.752322
O19	O	-1.223275	-0.091051	0.085689
O20	O	-0.889941	0.242282	0.419022
O21	O	-0.556608	0.575615	0.752355
Cu22	Cu	-1.089001	-0.096413	0.101298
Cu23	Cu	-0.755667	0.236920	0.434631
Cu24	Cu	-0.422334	0.570254	0.767965
Cu25	Cu	-1.089022	-0.096406	-0.101088
Cu26	Cu	-0.755689	0.236928	0.232246
Cu27	Cu	-0.422355	0.570261	0.565579
O28	O	-1.081243	-0.197515	0.085651
O29	O	-0.747909	0.135818	0.418984
O30	O	-0.414576	0.469152	0.752317
C31	C	-0.920382	-0.101271	0.000085
C32	C	-0.587049	0.232063	0.333418
C33	C	-0.253716	0.565396	0.666752
C34	C	-0.818010	-0.099773	0.000073
C35	C	-0.484677	0.233560	0.333407
C36	C	-0.151344	0.566893	0.666740
C37	C	-1.096272	0.030571	0.000130
C38	C	-0.762938	0.363905	0.333463
C39	C	-0.429605	0.697238	0.666796
C40	C	-1.094773	0.107680	0.000138
C41	C	-0.761439	0.441014	0.333472
C42	C	-0.428106	0.774347	0.666805
C43	C	-1.257640	-0.091548	0.000123
C44	C	-0.924307	0.241785	0.333457
C45	C	-0.590974	0.575119	0.666790
C46	C	-1.360012	-0.093045	0.000128
C47	C	-1.026679	0.240288	0.333462
C48	C	-0.693345	0.573621	0.666795
C49	C	-0.443150	-0.094261	0.000121
C50	C	-0.109816	0.239073	0.333455
C51	C	0.223517	0.572406	0.666788
C52	C	-0.547448	-0.095792	0.000108
C53	C	-0.214115	0.237542	0.333441
C54	C	0.119219	0.570875	0.666774
C55	C	-0.630577	-0.097017	0.000096
C56	C	-0.297243	0.236316	0.333430
C57	C	0.036090	0.569650	0.666763
C58	C	-0.734882	-0.098548	0.000084
C59	C	-0.401548	0.234785	0.333418
C60	C	-0.068215	0.568119	0.666751
C61	C	-1.081751	-0.223390	0.000079
C62	C	-0.748418	0.109943	0.333412
C63	C	-0.415084	0.443277	0.666745
C64	C	-1.083250	-0.300499	0.000063
C65	C	-0.749917	0.032834	0.333396
C66	C	-0.416583	0.366168	0.666730
N67	N	-1.088992	-0.096418	0.243645
N68	N	-0.755659	0.236916	0.576978
N69	N	-0.422325	0.570249	0.910312
C70	C	-1.178111	0.152077	0.000154
C71	C	-0.844777	0.485410	0.333487
C72	C	-0.511444	0.818743	0.666820
C73	C	-1.176702	0.224529	0.000137
C74	C	-0.843369	0.557862	0.333471
C75	C	-0.510036	0.891195	0.666804
C76	C	-1.091951	0.252581	0.000126
C77	C	-0.758618	0.585915	0.333460
C78	C	-0.425285	0.919248	0.666793
C79	C	-1.008602	0.208175	0.000105
C80	C	-0.675269	0.541508	0.333438
C81	C	-0.341936	0.874842	0.666772
C82	C	-1.010013	0.135725	0.000111
C83	C	-0.676680	0.469058	0.333445
C84	C	-0.343346	0.802391	0.666778
C85	C	-1.025321	0.361106	0.060062
C86	C	-0.691987	0.694440	0.393396
C87	C	-0.358654	1.027773	0.726729
C88	C	-1.023914	0.433556	0.060063
C89	C	-0.690580	0.766889	0.393396
C90	C	-0.357247	1.100223	0.726729
C91	C	-1.087597	0.476043	0.000103
C92	C	-0.754264	0.809376	0.333436
C93	C	-0.420930	1.142709	0.666769
C94	C	-1.152703	0.446072	-0.059844
C95	C	-0.819370	0.779406	0.273489
C96	C	-0.486036	1.112739	0.606822
C97	C	-1.154114	0.373622	-0.059838
C98	C	-0.820780	0.706955	0.273495
C99	C	-0.487447	1.040288	0.606828
C100	C	-1.090412	0.331141	0.000119
C101	C	-0.757079	0.664474	0.333452
C102	C	-0.423746	0.997808	0.666786
C103	C	-1.169414	0.599000	0.000099
C104	C	-0.836080	0.932334	0.333432
C105	C	-0.502747	1.265667	0.666765
C106	C	-1.168002	0.671454	0.000076
C107	C	-0.834668	1.004787	0.333409
C108	C	-0.501335	1.338120	0.666742
C109	C	-0.999899	0.655098	0.000054
C110	C	-0.666566	0.988432	0.333387
C111	C	-0.333233	1.321765	0.666721
C112	C	-1.001314	0.582647	0.000066
C113	C	-0.667980	0.915980	0.333400
C114	C	-0.334647	1.249313	0.666733
C115	C	-1.086073	0.554602	0.000094
C116	C	-0.752740	0.887936	0.333427
C117	C	-0.419407	1.221269	0.666760
N118	N	-1.089038	-0.096396	-0.243435
N119	N	-0.755705	0.236938	0.089899
N120	N	-0.422371	0.570271	0.423232
C121	C	-1.088996	-0.096419	0.336751
C122	C	-0.755663	0.236914	0.670084
C123	C	-0.422330	0.570247	1.003418
C124	C	-1.089005	-0.096415	0.453556
C125	C	-0.755671	0.236919	0.786890
C126	C	-0.422338	0.570252	1.120223
C127	C	-1.089016	-0.096407	0.546654
C128	C	-0.755683	0.236926	0.879988
C129	C	-0.422350	0.570260	1.213321
C130	C	-1.089026	-0.096403	0.663467
C131	C	-0.755693	0.236930	0.996800
C132	C	-0.422360	0.570263	1.330134
H133	H	-1.247128	0.129248	0.000172
H134	H	-0.913795	0.462581	0.333506
H135	H	-0.580462	0.795915	0.666839
Br136	Br	-0.884878	0.693161	0.000029
Br137	Br	-0.551544	1.026495	0.333362
Br138	Br	-0.218211	1.359828	0.666695
H139	H	-0.973460	0.326519	0.108895
H140	H	-0.640126	0.659852	0.442228
H141	H	-0.306793	0.993185	0.775561
Br142	Br	-0.896902	0.075468	0.000088
Br143	Br	-0.563569	0.408801	0.333421
Br144	Br	-0.230236	0.742134	0.666754
Br145	Br	-0.888205	0.522390	0.000047
Br146	Br	-0.554872	0.855724	0.333380
Br147	Br	-0.221539	1.189057	0.666714
H148	H	-0.939597	0.231020	0.000094
H149	H	-0.606264	0.564353	0.333427
H150	H	-0.272931	0.897687	0.666761
Br151	Br	-1.289812	0.284793	0.000153
Br152	Br	-0.956478	0.618126	0.333487
Br153	Br	-0.623145	0.951460	0.666820
H154	H	-1.207124	0.349223	-0.108651
H155	H	-0.873790	0.682556	0.224682
H156	H	-0.540457	1.015890	0.558016
Br157	Br	-1.239138	0.503724	-0.141224
Br158	Br	-0.905805	0.837057	0.192109
Br159	Br	-0.572472	1.170391	0.525443
Br160	Br	-1.284441	0.560936	0.000146
Br161	Br	-0.951108	0.894269	0.333479
Br162	Br	-0.617775	1.227602	0.666813
Br163	Br	-1.281114	0.731709	0.000085
Br164	Br	-0.947781	1.065042	0.333419
Br165	Br	-0.614447	1.398375	0.666752
Br166	Br	-0.935563	0.474223	0.141425
Br167	Br	-0.602229	0.807556	0.474758
Br168	Br	-0.268896	1.140890	0.808091
