data_functionalizedCrystal
_audit_creation_method	'MofGen! by Chris Wilmer'
_symmetry_space_group_name_H-M	'P1'
_symmetry_Int_Tables_number	1
_symmetry_cell_setting	triclinic
loop_
_symmetry_equiv_pos_as_xyz
  x,y,z
_cell_length_a	17.699104
_cell_length_b	10.489741
_cell_length_c	16.176319
_cell_angle_alpha	89.993511
_cell_angle_beta	89.991696
_cell_angle_gamma	83.915346
loop_
_atom_site_label
_atom_site_type_symbol
_atom_site_fract_x
_atom_site_fract_y
_atom_site_fract_z
O1	O	1.005125	0.161422	-0.068763
O2	O	0.784886	0.182380	-0.068761
O3	O	0.900017	-0.013789	-0.068757
O4	O	0.889994	0.357591	-0.068767
O5	O	0.900001	-0.013802	0.068736
O6	O	0.784870	0.182367	0.068732
O7	O	1.005109	0.161410	0.068730
Cu8	Cu	0.894988	0.171887	0.081286
Cu9	Cu	0.895007	0.171902	-0.081316
O10	O	0.889978	0.357579	0.068727
C11	C	0.756676	0.181618	-0.000014
C12	C	0.672644	0.179351	-0.000013
C13	C	0.148443	0.281717	-0.000024
C14	C	0.227400	0.283839	-0.000027
C15	C	0.275264	0.168680	-0.000024
C16	C	0.244167	0.051392	-0.000026
C17	C	0.165211	0.049272	-0.000030
C18	C	0.562589	0.059941	-0.000013
C19	C	0.641550	0.062071	-0.000007
C20	C	0.624778	0.294509	-0.000010
C21	C	0.545822	0.292388	-0.000014
C22	C	0.514732	0.175101	-0.000021
C23	C	0.429117	0.172802	-0.000020
C24	C	0.360878	0.170978	-0.000019
C25	C	0.899252	-0.061313	-0.000011
C26	C	0.896987	-0.202901	-0.000012
C27	C	0.823732	-0.269689	-0.000018
C28	C	0.858329	-0.362456	0.067773
C29	C	0.858362	-0.362419	-0.067784
C30	C	0.931614	-0.293803	0.067835
C31	C	0.931637	-0.293756	-0.067784
C32	C	0.966287	-0.386497	0.000024
C33	C	1.033318	0.162172	-0.000018
C34	C	1.117350	0.164438	-0.000025
C35	C	0.890743	0.405103	-0.000021
C36	C	0.893008	0.546690	-0.000025
N37	N	0.894980	0.171876	0.195651
N38	N	0.895020	0.171903	-0.195681
C39	C	0.945976	0.085048	0.238917
C40	C	0.945979	0.085047	0.325464
C41	C	0.894991	0.171881	0.368743
C42	C	0.843989	0.258713	0.325471
C43	C	0.843983	0.258707	0.238926
C44	C	0.844015	0.258737	0.674500
C45	C	0.844028	0.258738	0.761051
C46	C	0.946012	0.085076	0.761038
C47	C	0.946005	0.085071	0.674492
C48	C	0.895002	0.171898	0.631228
C49	C	0.894997	0.171897	0.537384
C50	C	0.894998	0.171889	0.462586
H51	H	0.506854	0.386162	-0.000012
H52	H	0.109476	0.375493	-0.000021
H53	H	0.252711	0.379339	-0.000034
H54	H	0.827327	-0.392901	0.125086
C55	C	1.002111	-0.010447	0.808636
N56	N	1.044364	-0.082393	0.844486
C57	C	0.973483	-0.252576	-0.145216
N58	N	1.004997	-0.221555	-0.203545
H59	H	0.827364	-0.392806	-0.125102
C60	C	0.658984	0.423529	-0.000011
N61	N	0.684747	0.520704	-0.000010
H62	H	0.283145	-0.042372	-0.000029
H63	H	0.987500	0.014343	0.203684
H64	H	0.139898	-0.046229	-0.000032
H65	H	0.763503	-0.218927	0.000051
H66	H	0.537286	-0.035561	-0.000017
C67	C	0.973439	-0.252934	0.145350
N68	N	1.004939	-0.222146	0.203735
C69	C	1.047724	-0.454783	0.000076
N70	N	1.109061	-0.506220	0.000120
H71	H	0.987503	0.014344	0.360690
H72	H	0.987528	0.014367	0.639256
C73	C	0.787929	0.354259	0.808657
N74	N	0.745676	0.426200	0.844514
C75	C	0.788009	0.354415	0.626920
N76	N	0.745858	0.426543	0.591080
C77	C	0.787894	0.354219	0.373082
N78	N	0.745641	0.426157	0.408942
H79	H	0.680521	-0.031711	-0.000007
C80	C	0.787889	0.354235	0.191334
N81	N	0.745639	0.426191	0.155489
