data_functionalizedCrystal
_audit_creation_method	'MofGen! by Chris Wilmer'
_symmetry_space_group_name_H-M	'P1'
_symmetry_Int_Tables_number	1
_symmetry_cell_setting	triclinic
loop_
_symmetry_equiv_pos_as_xyz
  x,y,z
_cell_length_a	21.395362
_cell_length_b	16.120484
_cell_length_c	21.395364
_cell_angle_alpha	87.117689
_cell_angle_beta	90.025888
_cell_angle_gamma	92.942400
loop_
_atom_site_label
_atom_site_type_symbol
_atom_site_fract_x
_atom_site_fract_y
_atom_site_fract_z
Zn1	Zn	0.945128	-0.331680	0.367216
Zn2	Zn	0.939760	-0.471073	0.267746
Zn3	Zn	0.840375	-0.331713	0.262418
Zn4	Zn	0.835008	-0.471096	0.372452
O5	O	0.890067	-0.401391	0.317458
O6	O	1.032095	-0.350148	0.354059
O7	O	0.926576	-0.452591	0.179362
O8	O	0.858763	-0.215040	0.271899
O9	O	1.028151	-0.452559	0.280980
O10	O	0.935725	-0.215016	0.348893
O11	O	0.853558	-0.350203	0.175447
O12	O	0.751984	-0.350226	0.276976
O13	O	0.849616	-0.452599	0.459435
O14	O	0.748041	-0.452630	0.357817
O15	O	0.930521	-0.350170	0.455588
O16	O	0.921371	-0.587745	0.286057
O17	O	0.844410	-0.587762	0.362984
C18	C	0.727278	-0.401435	0.317387
C19	C	0.657635	-0.401474	0.317372
C20	C	0.622883	-0.454866	0.359409
C21	C	0.557448	-0.454846	0.359436
C22	C	0.526768	-0.401442	0.317416
C23	C	0.561529	-0.348039	0.275376
C24	C	0.626963	-0.348055	0.275354
C25	C	0.423317	-0.394722	0.260755
C26	C	0.357884	-0.394712	0.260776
C27	C	0.324950	-0.401387	0.317483
C28	C	0.357455	-0.408091	0.374172
C29	C	0.422888	-0.408107	0.374150
C30	C	0.455817	-0.401418	0.317435
C31	C	0.219245	-0.454761	0.359553
C32	C	0.153810	-0.454734	0.359581
C33	C	0.157892	-0.347931	0.275515
C34	C	0.223326	-0.347953	0.275492
C35	C	0.253999	-0.401372	0.317510
C36	C	0.881743	-0.618005	0.325680
C37	C	0.878239	-0.710673	0.329219
C38	C	0.871845	-0.880339	0.335692
C39	C	0.908402	-0.921602	0.299234
C40	C	0.904844	-1.016010	0.302836
C41	C	0.875402	-0.785923	0.332091
C42	C	1.053492	-0.401347	0.317530
C43	C	1.123134	-0.401328	0.317560
C44	C	0.890068	-0.401383	0.480881
C45	C	0.890069	-0.401380	0.550522
C46	C	0.898442	-0.183931	0.309217
C47	C	0.902010	-0.091262	0.305706
C48	C	0.932167	-0.348055	1.050317
C49	C	0.932173	-0.348056	0.984881
C50	C	0.890052	-0.401383	0.954161
C51	C	0.847931	-0.454728	0.988882
C52	C	0.847930	-0.454731	1.054316
C53	C	0.833350	-0.407977	0.850717
C54	C	0.833350	-0.407969	0.785283
C55	C	0.890055	-0.401380	0.752340
C56	C	0.946762	-0.394782	0.784837
C57	C	0.946761	-0.394784	0.850271
C58	C	0.890048	-0.401387	0.883208
C59	C	0.932183	-0.348044	0.646675
C60	C	0.932190	-0.348052	0.581238
C61	C	0.847943	-0.454719	0.585240
C62	C	0.847941	-0.454716	0.650675
C63	C	0.890060	-0.401374	0.681388
C64	C	0.890058	-0.401409	1.154671
C65	C	0.890050	-0.401389	1.085029
H66	H	0.244220	-0.498253	0.393769
N67	N	0.826843	-0.927453	0.380611
H68	H	0.837090	-0.912315	0.424826
H69	H	0.830668	-0.989178	0.376790
N70	N	0.977586	-0.290515	1.083443
H71	H	1.004266	-0.256725	1.051519
H72	H	1.005282	-0.324431	1.111893
H73	H	0.942370	-0.886024	0.265317
H74	H	0.966470	-0.304622	0.956613
N75	N	0.457949	-0.415334	0.435287
H76	H	0.427161	-0.419562	0.471217
H77	H	0.487073	-0.364554	0.439228
N78	N	1.007918	-0.387677	0.885323
H79	H	1.043843	-0.383503	0.854529
H80	H	1.011775	-0.438477	0.914395
H81	H	0.330641	-0.413525	0.420348
N82	N	1.007928	-0.387670	0.749316
H83	H	0.999327	-0.388673	0.702933
H84	H	1.034085	-0.435873	0.762594
H85	H	0.966478	-0.304610	0.671683
H86	H	0.251622	-0.304479	0.241258
N87	N	0.322828	-0.387489	0.199637
H88	H	0.353619	-0.383252	0.163710
H89	H	0.297671	-0.336115	0.198663
N90	N	0.977623	-0.290531	0.543795
H91	H	1.004302	-0.256741	0.573183
H92	H	0.953603	-0.251959	0.515171
H93	H	0.813649	-0.498142	0.560228
N94	N	0.802512	-0.512238	0.688120
H95	H	0.775828	-0.546021	0.658731
H96	H	0.774822	-0.478310	0.713971
H97	H	0.132913	-0.304445	0.241304
N98	N	0.116323	-0.512328	0.404920
H99	H	0.145685	-0.546172	0.431530
H100	H	0.087660	-0.550845	0.380832
H101	H	0.787176	-0.413341	0.758829
H102	H	0.813637	-0.498148	0.963865
H103	H	0.787171	-0.413344	0.877534
N104	N	0.802503	-0.512258	1.091761
H105	H	0.775820	-0.546045	1.062373
H106	H	0.774811	-0.478330	1.117610
H107	H	0.647852	-0.498363	0.393625
H108	H	0.450127	-0.389282	0.214574
H109	H	0.529147	-0.498324	0.393670
H110	H	0.536546	-0.304555	0.241164
H111	H	0.655258	-0.304573	0.241123
