data_functionalizedCrystal
_audit_creation_method	'MofGen! by Chris Wilmer'
_symmetry_space_group_name_H-M	'P1'
_symmetry_Int_Tables_number	1
_symmetry_cell_setting	triclinic
loop_
_symmetry_equiv_pos_as_xyz
  x,y,z
_cell_length_a	18.050589
_cell_length_b	16.625548
_cell_length_c	16.625539
_cell_angle_alpha	89.977655
_cell_angle_beta	90.024824
_cell_angle_gamma	89.971920
loop_
_atom_site_label
_atom_site_type_symbol
_atom_site_fract_x
_atom_site_fract_y
_atom_site_fract_z
Zn1	Zn	-0.295661	-1.232648	0.455967
Zn2	Zn	-0.419859	-1.232538	0.321142
Zn3	Zn	-0.295687	-1.097810	0.321143
Zn4	Zn	-0.419813	-1.097767	0.455928
O5	O	-0.357755	-1.165191	0.388545
O6	O	-0.312144	-1.345466	0.438098
O7	O	-0.403417	-1.214638	0.208310
O8	O	-0.191759	-1.115761	0.339045
O9	O	-0.403392	-1.345385	0.339043
O10	O	-0.191740	-1.214826	0.438099
O11	O	-0.312188	-1.115654	0.208311
O12	O	-0.312144	-0.984972	0.339007
O13	O	-0.403315	-1.115687	0.568766
O14	O	-0.403339	-0.984940	0.438033
O15	O	-0.312100	-1.214784	0.568794
O16	O	-0.523777	-1.214596	0.339005
O17	O	-0.523744	-1.115580	0.438032
C18	C	-0.357740	-0.955700	0.388516
C19	C	-0.357752	-0.866079	0.388523
C20	C	-0.550707	-1.165093	0.388532
C21	C	-0.633253	-1.165126	0.388553
C22	C	-0.357750	-0.537903	0.388547
C23	C	-0.357749	-0.629212	0.388538
C24	C	-0.357751	-0.701988	0.388534
C25	C	-0.357749	-0.793302	0.388526
C26	C	-0.832712	-1.111334	0.442385
C27	C	-0.882154	-1.091677	0.368808
C28	C	-0.784383	-1.165205	0.388564
C29	C	-0.882023	-1.184901	0.462149
C30	C	-0.930368	-1.165280	0.388580
C31	C	-0.832738	-1.145510	0.314948
C32	C	-0.832602	-1.238767	0.408338
C33	C	-0.882022	-1.219139	0.334711
C34	C	-0.700285	-1.165160	0.388555
C35	C	-1.014465	-1.165325	0.388580
C36	C	-0.164049	-1.165310	0.388576
C37	C	-0.081503	-1.165361	0.388590
C38	C	-0.357699	-1.165243	0.598854
C39	C	-0.357676	-1.165266	0.688475
C40	C	-0.357765	-0.375500	0.388567
C41	C	-0.357757	-0.465121	0.388557
C42	C	-0.357756	-1.165185	0.179054
C43	C	-0.357571	-1.165319	0.089434
C44	C	-0.357593	-1.165303	1.016651
C45	C	-0.357618	-1.165290	0.925343
C46	C	-0.357635	-1.165285	0.852566
C47	C	-0.357659	-1.165271	0.761252
H48	H	-0.811060	-1.065710	0.487835
H49	H	-0.810823	-1.300928	0.425083
O50	O	-0.910698	-1.206936	0.544568
H51	H	-0.890949	-1.162089	0.589116
H52	H	-0.811178	-1.128809	0.252708
O53	O	-0.910987	-1.009320	0.346648
H54	H	-0.891243	-0.964676	0.391401
H55	H	-0.903536	-1.264728	0.289150
