data_functionalizedCrystal
_audit_creation_method	'MofGen! by Chris Wilmer'
_symmetry_space_group_name_H-M	'P1'
_symmetry_Int_Tables_number	1
_symmetry_cell_setting	triclinic
loop_
_symmetry_equiv_pos_as_xyz
  x,y,z
_cell_length_a	15.995350
_cell_length_b	10.489716
_cell_length_c	14.472310
_cell_angle_alpha	90.003057
_cell_angle_beta	89.990621
_cell_angle_gamma	84.010755
loop_
_atom_site_label
_atom_site_type_symbol
_atom_site_fract_x
_atom_site_fract_y
_atom_site_fract_z
O1	O	1.111978	0.164401	-0.076754
O2	O	0.868324	0.184704	-0.076772
O3	O	0.995706	-0.011125	-0.076766
O4	O	0.984596	0.360230	-0.076760
O5	O	0.995673	-0.011114	0.076916
O6	O	0.868291	0.184715	0.076910
O7	O	1.111945	0.164413	0.076928
Cu8	Cu	0.990115	0.174565	0.090951
Cu9	Cu	0.990154	0.174552	-0.090796
O10	O	0.984563	0.360241	0.076922
C11	C	0.837108	0.183870	0.000066
C12	C	0.744143	0.181354	0.000059
C13	C	0.406341	0.172317	0.000078
C14	C	0.452942	0.032851	0.000419
C15	C	0.549648	0.035368	0.000066
C16	C	0.573928	0.176799	0.000069
C17	C	0.533271	0.245582	-0.087686
C18	C	0.436614	0.242079	-0.087753
C19	C	0.436255	0.244973	0.087012
C20	C	0.533200	0.244940	0.088166
C21	C	0.668641	0.179340	0.000061
C22	C	0.311628	0.169780	0.000080
C23	C	0.994855	-0.058640	0.000072
C24	C	0.992358	-0.200236	0.000063
C25	C	1.070472	-0.299003	0.000078
C26	C	1.029211	-0.375792	-0.075696
C27	C	1.029160	-0.375744	0.075822
C28	C	0.951129	-0.275160	-0.075773
C29	C	0.951090	-0.275107	0.075813
C30	C	0.909771	-0.351846	0.000021
C31	C	1.143162	0.165246	0.000087
C32	C	1.236127	0.167763	0.000088
C33	C	0.985415	0.407756	0.000081
C34	C	0.987912	0.549352	0.000084
N35	N	0.990094	0.174574	0.218782
N36	N	0.990182	0.174533	-0.218627
C37	C	0.990153	0.174546	0.592873
C38	C	0.921761	0.278979	0.553704
C39	C	0.921922	0.279360	0.446616
C40	C	0.990123	0.174560	0.407282
C41	C	1.077661	0.203628	0.446126
C42	C	1.077278	0.204371	0.553248
C43	C	0.971785	0.040736	0.553399
C44	C	0.969787	0.041628	0.446271
C45	C	0.990111	0.174565	0.302394
C46	C	0.990170	0.174544	0.697761
H47	H	0.577740	-0.018699	0.062973
H48	H	1.138418	-0.275277	0.000006
F49	F	0.409043	0.185381	0.173955
H50	H	0.918130	-0.231123	0.139873
F51	F	0.426912	-0.039694	-0.081382
H52	H	1.062200	-0.419753	-0.139754
H53	H	0.549180	0.348077	0.093469
H54	H	0.918185	-0.231399	-0.139905
F55	F	0.885613	0.012791	0.413090
H56	H	1.021651	-0.036980	0.578727
H57	H	1.016304	-0.039727	0.419499
H58	H	0.841774	-0.375325	-0.000025
H59	H	0.561374	0.197799	-0.152997
H60	H	1.062138	-0.419673	0.139881
H61	H	0.577194	-0.019074	-0.062952
F62	F	0.412308	0.176504	-0.173498
H63	H	0.434074	-0.022892	0.063351
F64	F	0.836895	0.256788	0.412288
F65	F	0.395261	0.375911	-0.092956
H66	H	0.856509	0.261945	0.579487
H67	H	0.548017	0.349488	-0.090947
F68	F	0.937000	0.408044	0.588864
H69	H	0.933735	0.378658	0.420984
F70	F	1.098275	0.331923	0.585900
F71	F	1.145789	0.108632	0.587116
H72	H	0.560203	0.194729	0.153087
F73	F	1.145817	0.106852	0.412826
F74	F	1.099137	0.329727	0.411053
H75	H	0.405107	0.347800	0.087608
F76	F	0.890092	0.004221	0.588745
