data_functionalizedCrystal
_audit_creation_method	'MofGen! by Chris Wilmer'
_symmetry_space_group_name_H-M	'P1'
_symmetry_Int_Tables_number	1
_symmetry_cell_setting	triclinic
loop_
_symmetry_equiv_pos_as_xyz
  x,y,z
_cell_length_a	14.908571
_cell_length_b	12.759399
_cell_length_c	14.908308
_cell_angle_alpha	93.272288
_cell_angle_beta	89.824947
_cell_angle_gamma	93.287980
loop_
_atom_site_label
_atom_site_type_symbol
_atom_site_fract_x
_atom_site_fract_y
_atom_site_fract_z
Zn1	Zn	1.345333	0.548283	0.587624
Zn2	Zn	1.353925	0.714463	0.437277
Zn3	Zn	1.203647	0.528103	0.428620
Zn4	Zn	1.194953	0.713215	0.578929
O5	O	1.274465	0.626016	0.508113
O6	O	1.472300	0.579295	0.574942
O7	O	1.341225	0.681819	0.310303
O8	O	1.222485	0.383763	0.449729
O9	O	1.478612	0.701387	0.464483
O10	O	1.326581	0.398589	0.566548
O11	O	1.230816	0.544901	0.303943
O12	O	1.076667	0.543691	0.441297
O13	O	1.207667	0.699260	0.705907
O14	O	1.070279	0.679692	0.551728
O15	O	1.318151	0.578085	0.712296
O16	O	1.332794	0.861315	0.456051
O17	O	1.215998	0.860398	0.560122
C18	C	1.040848	0.609367	0.494630
C19	C	0.940904	0.602271	0.488884
C20	C	0.746506	0.730754	0.592922
C21	C	0.652600	0.724090	0.587526
C22	C	0.659184	0.582275	0.472700
C23	C	0.753090	0.588939	0.478096
C24	C	0.796748	0.663182	0.538209
C25	C	0.890656	0.669850	0.543600
C26	C	0.897238	0.528031	0.428779
C27	C	0.803332	0.521367	0.423382
C28	C	1.274408	0.898979	0.508104
C29	C	1.274464	1.015762	0.508135
C30	C	1.335340	1.071075	0.454015
C31	C	1.335391	1.180805	0.454051
C32	C	1.213685	1.179898	0.562329
C33	C	1.213638	1.070171	0.562297
C34	C	1.396166	1.016666	0.399853
C35	C	1.457045	1.071979	0.345728
C36	C	1.457097	1.181709	0.345764
C37	C	1.396269	1.236126	0.399925
C38	C	1.508993	0.642731	0.521648
C39	C	1.608936	0.649854	0.527416
C40	C	1.260980	0.640784	0.742639
C41	C	1.255234	0.647077	0.842580
C42	C	1.274541	1.351991	0.508154
C43	C	1.274563	1.235219	0.508203
C44	C	1.287948	0.611234	0.274502
C45	C	1.293868	0.604657	0.174571
C46	C	1.359481	0.532698	1.037034
C47	C	1.354085	0.538608	1.130938
C48	C	1.239042	0.664799	1.124293
C49	C	1.244438	0.658890	1.030389
C50	C	1.304661	0.592838	0.986763
C51	C	1.310061	0.586935	0.892858
C52	C	1.195014	0.713120	0.886215
C53	C	1.189618	0.719030	0.980118
H54	H	0.938156	0.473011	0.384224
H55	H	1.150377	0.762094	0.845274
Br56	Br	1.157309	0.754422	1.183515
Br57	Br	0.805760	0.831521	0.674488
Br58	Br	1.131139	1.253749	0.635827
H59	H	1.359098	0.533154	0.857339
H60	H	1.408521	0.478922	1.001513
Br61	Br	0.949905	0.770610	0.625175
H62	H	1.396128	0.927318	0.399814
Br63	Br	0.744075	0.420608	0.341812
H64	H	1.506574	1.027668	0.301637
H65	H	0.611696	0.779112	0.632082
Br66	Br	0.599919	0.481507	0.391143
H67	H	1.506674	1.226743	0.301699
H68	H	1.396323	1.325476	0.399957
H69	H	1.398723	0.489633	1.171865
Br70	Br	1.131025	0.995096	0.635751
H71	H	1.140584	0.772805	1.015652
