data_functionalizedCrystal
_audit_creation_method	'MofGen! by Chris Wilmer'
_symmetry_space_group_name_H-M	'P1'
_symmetry_Int_Tables_number	1
_symmetry_cell_setting	triclinic
loop_
_symmetry_equiv_pos_as_xyz
  x,y,z
_cell_length_a	15.995350
_cell_length_b	15.995292
_cell_length_c	12.503572
_cell_angle_alpha	93.525692
_cell_angle_beta	86.485305
_cell_angle_gamma	83.480495
loop_
_atom_site_label
_atom_site_type_symbol
_atom_site_fract_x
_atom_site_fract_y
_atom_site_fract_z
O1	O	1.115787	0.103091	-0.089222
O2	O	0.872010	0.116418	-0.089243
O3	O	1.000588	-0.012137	-0.089233
O4	O	0.987209	0.231645	-0.089231
O5	O	0.990918	-0.002453	0.089408
O6	O	0.862340	0.126102	0.089398
O7	O	1.106117	0.112775	0.089419
Cu8	Cu	0.983346	0.120323	0.105720
Cu9	Cu	0.994782	0.108870	-0.105544
O10	O	0.977540	0.241329	0.089410
C11	C	0.835981	0.120708	0.000075
C12	C	0.743031	0.119056	0.000066
C13	C	0.405284	0.113125	0.000089
C14	C	0.452715	0.021592	0.000486
C15	C	0.549427	0.023222	0.000076
C16	C	0.572844	0.116067	0.000078
C17	C	0.537269	0.155695	-0.101930
C18	C	0.440638	0.153391	-0.102008
C19	C	0.429303	0.166295	0.101141
C20	C	0.526175	0.166346	0.102481
C21	C	0.667542	0.117734	0.000069
C22	C	0.310586	0.111460	0.000091
C23	C	0.995209	-0.038490	0.000084
C24	C	0.993577	-0.131444	0.000076
C25	C	0.987575	-0.469182	0.000085
C26	C	1.080357	-0.445847	0.000493
C27	C	1.082143	-0.349194	0.000086
C28	C	0.990553	-0.301626	0.000081
C29	C	0.949677	-0.336257	-0.101932
C30	C	0.948564	-0.433052	-0.102014
C31	C	0.935673	-0.421897	0.101135
C32	C	0.939039	-0.325331	0.102479
C33	C	0.992231	-0.206930	0.000076
C34	C	0.985894	-0.563878	0.000084
C35	C	1.142147	0.108484	0.000099
C36	C	1.235097	0.110136	0.000101
C37	C	0.982919	0.267683	0.000090
C38	C	0.984551	0.360636	0.000091
N39	N	0.975309	0.128377	0.254312
N40	N	1.002825	0.100809	-0.254135
C41	C	0.963486	0.140233	0.473426
C42	C	1.014646	0.088956	0.526757
C43	C	1.008067	0.095553	0.648680
C44	C	0.970063	0.133637	0.351492
H45	H	0.426464	0.116326	-0.178263
H46	H	0.880770	-0.447853	-0.106639
O47	O	0.993016	-0.317098	-0.192426
C48	C	0.990890	-0.228811	-0.193836
H49	H	0.978670	-0.198911	-0.108357
H50	H	1.053961	-0.212751	-0.229423
H51	H	0.938321	-0.203382	-0.244870
H52	H	0.573905	-0.008310	0.073200
H53	H	0.430241	-0.011039	0.073641
H54	H	0.437067	-0.018780	-0.072265
H55	H	0.541193	0.234385	0.108644
H56	H	0.914750	0.189084	0.519330
H57	H	1.063386	0.040103	0.480848
H58	H	0.408626	0.220358	-0.106636
O59	O	0.587355	-0.024030	-0.087432
C60	C	0.557470	0.009509	-0.181497
H61	H	0.532337	0.078871	-0.163660
H62	H	0.611236	0.003474	-0.246728
H63	H	0.504674	-0.026696	-0.210167
H64	H	0.960713	-0.445794	0.178460
H65	H	0.404588	0.140555	0.178461
O66	O	0.554451	0.236801	-0.106327
C67	C	0.598969	0.258994	-0.016958
H68	H	0.631762	0.199479	0.014954
H69	H	0.648098	0.301615	-0.042198
H70	H	0.553048	0.293834	0.048635
O71	O	0.974544	-0.298209	0.192411
C72	C	1.045683	-0.258013	0.162930
H73	H	1.039703	-0.234869	0.078999
H74	H	1.049739	-0.202057	0.222640
H75	H	1.105131	-0.304605	0.163314
O76	O	0.858906	-0.285564	0.109648
C77	C	0.847624	-0.235160	0.021846
H78	H	0.895646	-0.260243	-0.047054
H79	H	0.781160	-0.237149	-0.005554
H80	H	0.856942	-0.167330	0.047147
H81	H	0.867325	-0.435850	0.101818
O82	O	0.991768	-0.470115	-0.192945
C83	C	0.991346	-0.558267	-0.194188
H84	H	0.935356	-0.573266	-0.140854
H85	H	0.985922	-0.584746	-0.279909
H86	H	1.052416	-0.588073	-0.162808
H87	H	0.549414	0.137472	0.177947
H88	H	0.397490	0.233835	0.101832
H89	H	1.114522	-0.326205	0.073212
H90	H	1.112168	-0.469879	0.073651
H91	H	1.122660	-0.334760	-0.073163
O92	O	0.576164	0.113372	-0.192424
C93	C	0.663619	0.118606	-0.193829
H94	H	0.682158	0.131692	-0.108348
H95	H	0.699429	0.056448	-0.229415
H96	H	0.679988	0.171908	-0.244860
H97	H	0.882484	-0.304595	-0.105728
O98	O	1.127422	-0.485063	-0.086407
C99	C	1.091841	-0.459114	-0.181115
H100	H	1.052109	-0.395384	-0.163530
H101	H	1.144372	-0.453298	-0.245122
H102	H	1.050273	-0.507677	-0.211278
