data_functionalizedCrystal
_audit_creation_method	'MofGen! by Chris Wilmer'
_symmetry_space_group_name_H-M	'P1'
_symmetry_Int_Tables_number	1
_symmetry_cell_setting	triclinic
loop_
_symmetry_equiv_pos_as_xyz
  x,y,z
_cell_length_a	15.944551
_cell_length_b	17.699104
_cell_length_c	16.176319
_cell_angle_alpha	89.991696
_cell_angle_beta	90.001912
_cell_angle_gamma	96.604872
loop_
_atom_site_label
_atom_site_type_symbol
_atom_site_fract_x
_atom_site_fract_y
_atom_site_fract_z
O1	O	-0.106305	1.004250	-0.068754
O2	O	0.393695	1.504250	0.431246
O3	O	-0.120107	0.783898	-0.068751
O4	O	0.379893	1.283898	0.431249
O5	O	0.009081	0.900091	-0.068758
O6	O	0.509081	1.400091	0.431242
O7	O	-0.235493	0.888057	-0.068748
O8	O	0.264507	1.388057	0.431252
O9	O	0.009089	0.900075	0.068736
O10	O	0.509089	1.400075	0.568736
O11	O	-0.120098	0.783882	0.068742
O12	O	0.379902	1.283882	0.568742
O13	O	-0.106297	1.004234	0.068739
O14	O	0.393703	1.504234	0.568739
Cu15	Cu	-0.113197	0.894057	0.081295
Cu16	Cu	0.386803	1.394057	0.581295
Cu17	Cu	-0.113207	0.894076	-0.081307
Cu18	Cu	0.386793	1.394076	0.418693
O19	O	-0.235485	0.888041	0.068745
O20	O	0.264515	1.388041	0.568745
C21	C	-0.119605	0.755692	-0.000004
C22	C	0.380395	1.255692	0.499996
C23	C	-0.118113	0.671672	-0.000004
C24	C	0.381887	1.171672	0.499996
C25	C	-0.185526	0.146917	-0.000010
C26	C	0.314474	0.646917	0.499990
C27	C	-0.186923	0.225863	-0.000012
C28	C	0.313077	0.725863	0.499988
C29	C	-0.111085	0.274351	-0.000015
C30	C	0.388915	0.774351	0.499985
C31	C	-0.033845	0.243889	-0.000024
C32	C	0.466155	0.743889	0.499976
C33	C	-0.032448	0.164944	-0.000027
C34	C	0.467552	0.664944	0.499973
C35	C	-0.039475	0.562265	-0.000010
C36	C	0.460525	1.062265	0.499990
C37	C	-0.040877	0.641214	-0.000004
C38	C	0.459123	1.141214	0.499996
C39	C	-0.193950	0.623183	0.000005
C40	C	0.306050	1.123183	0.500005
C41	C	-0.192553	0.544238	0.000002
C42	C	0.307447	1.044238	0.500002
C43	C	-0.115313	0.513783	-0.000012
C44	C	0.384687	1.013783	0.499988
C45	C	-0.113799	0.428181	-0.000011
C46	C	0.386201	0.928181	0.499989
C47	C	-0.112598	0.359952	-0.000010
C48	C	0.387402	0.859952	0.499990
C49	C	-0.266782	0.888548	-0.000000
C50	C	0.233218	1.388548	0.500000
C51	C	-0.360025	0.890046	0.000003
C52	C	0.139975	1.390046	0.500003
C53	C	-0.574729	0.965649	-0.000010
C54	C	-0.074729	1.465649	0.499990
C55	C	-0.635812	0.930533	0.067782
C56	C	-0.135812	1.430533	0.567782
C57	C	-0.530745	0.892756	-0.000004
C58	C	-0.030745	1.392756	0.499996
C59	C	-0.635806	0.930532	-0.067775
C60	C	-0.135806	1.430532	0.432225
C61	C	-0.695653	0.895379	-0.000015
C62	C	-0.195653	1.395379	0.499985
C63	C	-0.590600	0.857621	0.067845
C64	C	-0.090600	1.357621	0.567845
C65	C	-0.590587	0.857629	-0.067774
C66	C	-0.090587	1.357629	0.432226
C67	C	-0.651653	0.822461	0.000035
C68	C	-0.151653	1.322461	0.500035
C69	C	-0.435746	0.891247	0.000003
C70	C	0.064254	1.391247	0.500003
C71	C	-0.790651	0.896882	-0.000016
C72	C	-0.290651	1.396882	0.499984
C73	C	0.040378	0.899584	-0.000014
C74	C	0.540378	1.399584	0.499986
C75	C	0.133621	0.898086	-0.000023
C76	C	0.633621	1.398086	0.499977
C77	C	-0.106799	1.032440	-0.000010
C78	C	0.393201	1.532440	0.499990
C79	C	-0.108291	1.116460	-0.000016
C80	C	0.391709	1.616460	0.499984
N81	N	-0.113190	0.894049	0.195660
N82	N	0.386810	1.394049	0.695660
N83	N	-0.113207	0.894089	-0.195672
N84	N	0.386793	1.394089	0.304328
C85	C	-0.056009	0.945515	0.238921
C86	C	0.443991	1.445515	0.738921
C87	C	-0.056008	0.945519	0.325468
C88	C	0.443992	1.445519	0.825468
C89	C	-0.113193	0.894060	0.368752
C90	C	0.386807	1.394060	0.868752
C91	C	-0.170376	0.842588	0.325485
C92	C	0.329624	1.342588	0.825485
C93	C	-0.170372	0.842581	0.238940
C94	C	0.329628	1.342581	0.738940
C95	C	-0.170392	0.842614	0.674513
C96	C	0.329608	1.342614	1.174513
C97	C	-0.170393	0.842626	0.761065
C98	C	0.329607	1.342626	1.261065
C99	C	-0.056027	0.945551	0.761042
C100	C	0.443973	1.445551	1.261042
C101	C	-0.056024	0.945545	0.674497
C102	C	0.443976	1.445545	1.174497
C103	C	-0.113204	0.894071	0.631237
C104	C	0.386796	1.394071	1.131237
C105	C	-0.113203	0.894066	0.537393
C106	C	0.386797	1.394066	1.037393
C107	C	-0.113198	0.894067	0.462595
C108	C	0.386802	1.394067	0.962595
H109	H	0.030444	0.140148	-0.000034
H110	H	0.530444	0.640148	0.499966
Br111	Br	-0.669225	0.981908	0.163303
Br112	Br	-0.169225	1.481908	0.663303
Br113	Br	0.021599	1.015364	0.384183
Br114	Br	0.521599	1.515364	0.884183
H115	H	-0.009465	0.987462	0.796273
H116	H	0.490535	1.487462	1.296273
Br117	Br	-0.669197	0.981951	-0.163294
Br118	Br	-0.169197	1.481951	0.336706
H119	H	-0.249815	0.250656	-0.000014
H120	H	0.250185	0.750656	0.499986
H121	H	-0.541301	1.026154	0.000056
H122	H	-0.041301	1.526154	0.500056
H123	H	-0.570668	0.826807	0.125220
H124	H	-0.070668	1.326807	0.625220
H125	H	-0.570524	0.826832	-0.125089
H126	H	-0.070524	1.326832	0.374911
Br127	Br	-0.295480	0.478437	0.000010
Br128	Br	0.204520	0.978437	0.500010
H129	H	-0.684934	0.761904	0.000074
H130	H	-0.184934	1.261904	0.500074
Br131	Br	-0.298778	0.664518	0.000020
Br132	Br	0.201222	1.164518	0.500020
Br133	Br	0.021598	1.015362	0.180187
Br134	Br	0.521598	1.515362	0.680187
Br135	Br	-0.248007	0.772785	0.819808
Br136	Br	0.251993	1.272785	1.319808
H137	H	-0.216934	0.800671	0.203717
H138	H	0.283066	1.300671	0.703717
Br139	Br	-0.288455	0.081118	0.000004
Br140	Br	0.211545	0.581118	0.500004
H141	H	0.020883	0.680692	-0.000009
H142	H	0.520883	1.180692	0.499991
H143	H	0.023419	0.537478	-0.000019
H144	H	0.523419	1.037478	0.499981
Br145	Br	0.069080	0.309693	-0.000032
Br146	Br	0.569080	0.809693	0.499968
H147	H	-0.009461	0.987450	0.639257
H148	H	0.490539	1.487450	1.139257
Br149	Br	-0.247993	0.772760	0.615808
Br150	Br	0.252007	1.272760	1.115808
H151	H	-0.216934	0.800685	0.360732
H152	H	0.283066	1.300685	0.860732
