data_functionalizedCrystal
_audit_creation_method	'MofGen! by Chris Wilmer'
_symmetry_space_group_name_H-M	'P1'
_symmetry_Int_Tables_number	1
_symmetry_cell_setting	triclinic
loop_
_symmetry_equiv_pos_as_xyz
  x,y,z
_cell_length_a	14.044220
_cell_length_b	19.188930
_cell_length_c	12.503572
_cell_angle_alpha	93.506241
_cell_angle_beta	86.164750
_cell_angle_gamma	88.166830
loop_
_atom_site_label
_atom_site_type_symbol
_atom_site_fract_x
_atom_site_fract_y
_atom_site_fract_z
O1	O	1.262485	0.164589	-0.089229
O2	O	0.986542	0.158515	-0.089255
O3	O	1.132475	0.060411	-0.089220
O4	O	1.116552	0.262693	-0.089264
O5	O	1.121500	0.067803	0.089419
O6	O	0.975567	0.165907	0.089384
O7	O	1.251510	0.171980	0.089411
Cu8	Cu	1.112536	0.169618	0.105709
Cu9	Cu	1.125516	0.160877	-0.105553
O10	O	1.105577	0.270084	0.089376
C11	C	0.945752	0.159553	0.000061
C12	C	0.840559	0.151624	0.000052
C13	C	0.647956	0.137129	0.000077
C14	C	0.590090	0.193363	0.000069
C15	C	0.482920	0.185298	0.000083
C16	C	0.755137	0.145193	0.000063
C17	C	1.126472	0.038063	0.000102
C18	C	1.124923	-0.039541	0.000112
C19	C	1.210552	-0.078939	0.000125
C20	C	1.209099	-0.151857	0.000108
C21	C	1.122010	-0.185374	0.000098
C22	C	1.036370	-0.145968	0.000079
C23	C	1.037826	-0.073051	0.000086
N24	N	1.051706	-0.295160	0.060886
N25	N	1.050328	-0.364427	0.060882
C26	C	1.117616	-0.405067	0.000076
N27	N	1.186348	-0.373823	-0.060712
N28	N	1.187729	-0.304548	-0.060704
C29	C	1.120421	-0.264440	0.000091
C30	C	1.201676	-0.523532	0.000069
C31	C	1.200219	-0.596451	0.000045
C32	C	1.027487	-0.590560	0.000028
C33	C	1.028947	-0.517642	0.000041
C34	C	1.116043	-0.484132	0.000067
C35	C	1.292301	0.170943	0.000092
C36	C	1.397493	0.178872	0.000094
C37	C	1.111580	0.292433	0.000051
C38	C	1.113129	0.370037	0.000034
N39	N	1.103414	0.175766	0.254299
N40	N	1.134645	0.154724	-0.254143
C41	C	1.089995	0.184816	0.473411
C42	C	1.148061	0.145676	0.526752
C43	C	1.140595	0.150712	0.648673
C44	C	1.097461	0.179782	0.351478
H45	H	1.281473	-0.051660	0.000142
H46	H	1.034680	0.222105	0.519305
H47	H	0.965462	-0.173262	0.000069
C48	C	0.606157	0.063910	0.000087
C49	C	0.497415	0.055844	0.000092
C50	C	0.455603	-0.017374	0.000096
C51	C	0.522532	-0.082527	0.000095
C52	C	0.631281	-0.074464	0.000091
C53	C	0.673093	-0.001245	0.000087
H54	H	0.447864	0.104076	0.000092
H55	H	0.375100	-0.023343	0.000099
H56	H	0.491580	-0.136728	0.000099
H57	H	0.680832	-0.122695	0.000091
H58	H	0.753596	0.004724	0.000083
H59	H	0.621038	0.247564	0.000052
C60	C	1.222802	0.095304	0.464751
C61	C	1.230217	0.090237	0.341066
C62	C	1.304957	0.039869	0.279060
C63	C	1.372282	-0.005432	0.340739
C64	C	1.364869	-0.000367	0.464431
C65	C	1.290129	0.050001	0.526437
H66	H	1.180377	0.123773	0.295402
H67	H	1.310444	0.036119	0.187495
H68	H	1.427609	-0.042718	0.294838
H69	H	1.414710	-0.033903	0.510095
H70	H	1.284642	0.053750	0.618002
C71	C	1.303295	-0.195206	0.000133
C72	C	1.399096	-0.158347	0.000164
C73	C	1.493291	-0.201693	0.000193
C74	C	1.491686	-0.281898	0.000192
C75	C	1.395882	-0.318761	0.000161
C76	C	1.301686	-0.275415	0.000132
H77	H	1.400287	-0.098970	0.000165
H78	H	1.564212	-0.174403	0.000216
H79	H	1.561415	-0.313985	0.000213
H80	H	1.394691	-0.378137	0.000160
H81	H	1.230766	-0.302704	0.000109
H82	H	0.968095	-0.040973	0.000075
C83	C	1.297477	-0.486663	0.000087
C84	C	1.362827	-0.495295	0.092854
C85	C	1.458628	-0.458428	0.092873
C86	C	1.489077	-0.412929	0.000125
C87	C	1.423725	-0.404295	-0.092649
C88	C	1.327925	-0.441162	-0.092668
H89	H	1.340288	-0.528978	0.161518
H90	H	1.507006	-0.464820	0.161550
H91	H	1.559995	-0.385638	0.000139
H92	H	1.446265	-0.370612	-0.161313
H93	H	1.279547	-0.434770	-0.161346
H94	H	1.269952	-0.628529	0.000050
C95	C	0.934751	-0.474299	0.000046
C96	C	0.838952	-0.511161	0.000039
C97	C	0.744751	-0.467818	0.000042
C98	C	0.746349	-0.387612	0.000052
C99	C	0.842151	-0.350746	0.000059
C100	C	0.936352	-0.394089	0.000056
H101	H	0.837766	-0.570538	0.000031
H102	H	0.673832	-0.495109	0.000037
H103	H	0.676616	-0.355527	0.000055
H104	H	0.843337	-0.291369	0.000067
H105	H	1.007271	-0.366797	0.000061
H106	H	0.956578	-0.617849	0.000015
