data_functionalizedCrystal
_audit_creation_method	'MofGen! by Chris Wilmer'
_symmetry_space_group_name_H-M	'P1'
_symmetry_Int_Tables_number	1
_symmetry_cell_setting	triclinic
loop_
_symmetry_equiv_pos_as_xyz
  x,y,z
_cell_length_a	27.732048
_cell_length_b	27.732048
_cell_length_c	26.210047
_cell_angle_alpha	90.000479
_cell_angle_beta	89.996535
_cell_angle_gamma	97.357345
loop_
_atom_site_label
_atom_site_type_symbol
_atom_site_fract_x
_atom_site_fract_y
_atom_site_fract_z
O1	O	0.640931	-0.057510	-0.042369
O2	O	0.500138	-0.066256	-0.042385
O3	O	0.574907	0.008514	-0.042367
O4	O	0.566162	-0.132279	-0.042387
O5	O	0.574893	0.008502	0.042491
O6	O	0.500123	-0.066267	0.042473
O7	O	0.640917	-0.057522	0.042489
Cu8	Cu	0.570519	-0.061896	0.050229
Cu9	Cu	0.570536	-0.061882	-0.050125
O10	O	0.566147	-0.132291	0.042471
C11	C	0.482124	-0.066078	0.000042
C12	C	0.428469	-0.065525	0.000036
C13	C	0.089654	-0.106229	0.000053
C14	C	-0.112006	-0.104178	0.000057
O15	O	-0.143262	-0.141398	0.000074
N16	N	-0.131130	-0.059843	0.000063
C17	C	-0.099835	-0.016017	0.000071
O18	O	-0.120728	0.021740	0.000081
C19	C	0.101824	-0.018068	0.000069
C20	C	0.120944	-0.062407	0.000059
C21	C	0.108775	-0.150563	0.000043
C22	C	0.159187	-0.151076	0.000039
C23	C	0.190477	-0.107253	0.000045
C24	C	0.171356	-0.062919	0.000055
C25	C	0.133117	0.025757	0.000081
C26	C	0.183535	0.025240	0.000082
C27	C	0.202655	-0.019098	0.000071
C28	C	0.253059	-0.019609	0.000057
N29	N	0.272183	-0.063944	0.000051
C30	C	0.240892	-0.107766	0.000045
C31	C	-0.205709	-0.014943	0.000070
C32	C	-0.256124	-0.014430	0.000070
C33	C	-0.268291	-0.102591	0.000057
C34	C	-0.217876	-0.103104	0.000054
C35	C	-0.186585	-0.059278	0.000065
C36	C	0.346761	-0.108839	0.000036
C37	C	0.397178	-0.109347	0.000030
C38	C	0.409341	-0.021186	0.000045
C39	C	0.358929	-0.020678	0.000049
C40	C	0.327639	-0.064508	0.000046
O41	O	0.284343	0.017592	0.000046
O42	O	0.261794	-0.145518	0.000047
C43	C	0.039242	-0.105716	0.000057
C44	C	0.020120	-0.061382	0.000067
C45	C	0.051411	-0.017560	0.000073
C46	C	-0.030294	-0.060869	0.000066
C47	C	-0.061585	-0.104691	0.000060
C48	C	-0.042461	-0.149026	0.000054
C49	C	0.007951	-0.149539	0.000050
C50	C	0.032287	0.026775	0.000078
C51	C	-0.018125	0.027284	0.000082
C52	C	-0.049416	-0.016538	0.000076
C53	C	0.574716	0.026515	0.000064
C54	C	0.574164	0.080170	0.000068
C55	C	0.658931	-0.057699	0.000061
C56	C	0.712586	-0.058252	0.000064
C57	C	0.566338	-0.150292	0.000040
C58	C	0.566891	-0.203947	0.000032
N59	N	0.570510	-0.061905	0.120813
C60	C	0.614867	0.418985	0.000046
C61	C	0.612816	0.620645	0.000039
O62	O	0.650037	0.651900	0.000021
N63	N	0.568481	0.639768	0.000034
C64	C	0.524656	0.608474	0.000028
O65	O	0.486899	0.629367	0.000019
C66	C	0.526707	0.406815	0.000032
C67	C	0.571045	0.387694	0.000042
C68	C	0.659202	0.399864	0.000056
C69	C	0.659714	0.349452	0.000060
C70	C	0.615892	0.318161	0.000056
C71	C	0.571557	0.337282	0.000046
C72	C	0.482882	0.375521	0.000022
C73	C	0.483399	0.325104	0.000022
C74	C	0.527737	0.305983	0.000032
C75	C	0.528247	0.255580	0.000046
N76	N	0.572583	0.236456	0.000051
C77	C	0.616405	0.267747	0.000056
C78	C	0.523582	0.714348	0.000027
C79	C	0.523069	0.764762	0.000027
C80	C	0.611230	0.776930	0.000037
C81	C	0.611742	0.726514	0.000041
C82	C	0.567917	0.695224	0.000032
C83	C	0.617477	0.161878	0.000066
C84	C	0.617986	0.111461	0.000073
C85	C	0.529825	0.099298	0.000060
C86	C	0.529316	0.149710	0.000056
C87	C	0.573147	0.180999	0.000057
O88	O	0.491047	0.224296	0.000059
O89	O	0.654156	0.246844	0.000054
C90	C	0.614355	0.469397	0.000042
C91	C	0.570021	0.488518	0.000033
C92	C	0.526198	0.457228	0.000028
C93	C	0.569508	0.538933	0.000033
C94	C	0.613330	0.570223	0.000037
C95	C	0.657665	0.551100	0.000042
C96	C	0.658177	0.500688	0.000046
C97	C	0.481863	0.476351	0.000023
C98	C	0.481355	0.526764	0.000019
C99	C	0.525177	0.558054	0.000024
N100	N	0.570548	-0.061868	-0.120709
C101	C	0.603640	-0.028781	0.473336
C102	C	0.603651	-0.028774	0.686994
O103	O	0.631801	-0.000614	0.714623
N104	N	0.570538	-0.061871	0.713707
C105	C	0.537419	-0.094970	0.687003
O106	O	0.509251	-0.123117	0.714626
C107	C	0.537406	-0.094974	0.473345
C108	C	0.570524	-0.061878	0.446635
C109	C	0.636755	0.004312	0.446625
C110	C	0.636754	0.004308	0.393214
C111	C	0.603638	-0.028789	0.366513
C112	C	0.570523	-0.061882	0.393223
C113	C	0.504284	-0.128070	0.446641
C114	C	0.504283	-0.128067	0.393223
C115	C	0.537401	-0.094971	0.366513
C116	C	0.537405	-0.094983	0.313111
N117	N	0.570518	-0.061886	0.286397
C118	C	0.603634	-0.028789	0.313098
C119	C	0.537428	-0.094966	0.799176
C120	C	0.537432	-0.094965	0.852590
C121	C	0.603664	-0.028769	0.852578
C122	C	0.603662	-0.028773	0.799163
C123	C	0.570541	-0.061869	0.772463
C124	C	0.603629	-0.028800	0.200931
C125	C	0.603626	-0.028808	0.147514
C126	C	0.537393	-0.095002	0.147531
C127	C	0.537397	-0.094996	0.200943
C128	C	0.570517	-0.061891	0.227641
O129	O	0.509267	-0.123125	0.285449
O130	O	0.631790	-0.000639	0.285466
C131	C	0.603641	-0.028777	0.526747
C132	C	0.570527	-0.061871	0.553457
C133	C	0.537410	-0.094968	0.526756
C134	C	0.570530	-0.061870	0.606872
C135	C	0.603646	-0.028773	0.633573
C136	C	0.636759	0.004323	0.606859
C137	C	0.636758	0.004320	0.553448
C138	C	0.504298	-0.128064	0.553470
C139	C	0.504302	-0.128058	0.606881
C140	C	0.537418	-0.094961	0.633582
H141	H	0.321291	-0.144530	0.000036
O142	O	0.639340	0.006897	0.118705
H143	H	0.662685	-0.013285	0.094368
H144	H	0.630629	-0.001823	0.777418
O145	O	-0.076218	-0.196291	0.000049
H146	H	-0.054457	-0.227211	0.000040
H147	H	0.343360	0.015426	0.000050
O148	O	0.706473	0.433608	0.000069
H149	H	0.727719	0.426845	-0.034510
H150	H	0.174750	-0.187180	0.000030
H151	H	0.654093	0.095896	0.000082
H152	H	0.209009	0.060929	0.000091
O153	O	0.075029	-0.197832	0.000034
H154	H	0.096803	-0.228742	0.000024
O155	O	0.468551	-0.163760	0.364429
H156	H	0.474105	-0.158199	0.322798
H157	H	0.477330	-0.155015	0.531734
H158	H	0.445246	0.542327	0.000016
O159	O	0.468584	-0.163758	0.635692
H160	H	0.488758	-0.187112	0.660024
H161	H	0.647846	0.710950	0.000048
H162	H	0.510434	-0.121950	0.222691
O163	O	0.501675	-0.130690	0.118718
H164	H	0.507545	-0.168336	0.128957
O165	O	0.417798	-0.157173	0.000020
H166	H	0.458111	-0.150171	0.000013
H167	H	0.630629	-0.001821	0.874327
O168	O	0.672473	0.040020	0.524641
H169	H	0.695494	0.063035	0.552189
O170	O	0.434593	0.442608	0.000028
H171	H	0.413359	0.449368	-0.034557
O172	O	0.501724	-0.130678	0.881391
H173	H	0.464086	-0.124784	0.871147
H174	H	0.663722	0.031266	0.468360
H175	H	0.434827	0.014492	0.000048
H176	H	0.693347	0.576585	0.000048
O177	O	0.468581	-0.163783	0.475443
H178	H	0.445559	-0.186796	0.447894
O179	O	0.639356	0.006899	0.229724
H180	H	0.662384	0.029903	0.202169
H181	H	0.510456	-0.121918	0.777440
H182	H	0.663725	0.031271	0.628608
H183	H	0.663720	0.031259	0.371469
O184	O	-0.171965	0.032330	0.000077
H185	H	-0.148711	0.034208	0.034667
H186	H	0.117558	0.061861	0.000090
H187	H	-0.202311	-0.139207	0.000049
O188	O	0.705999	0.480067	0.000054
H189	H	0.708347	0.457387	-0.034530
H190	H	0.486964	0.780325	0.000028
O191	O	-0.276744	0.033392	0.000074
H192	H	-0.299427	0.035728	0.034660
O193	O	0.482562	0.065541	0.000054
H194	H	0.461319	0.072294	0.034638
O195	O	0.664752	0.195619	0.000075
H196	H	0.666645	0.218877	-0.034513
H197	H	-0.293777	-0.138273	0.000053
O198	O	0.436128	0.291356	0.000014
H199	H	0.434247	0.268096	0.034600
O200	O	0.028572	-0.197360	0.000049
H201	H	-0.001662	-0.227742	0.000052
H202	H	-0.033688	0.063392	0.000086
H203	H	0.695819	0.333889	0.000066
O204	O	0.066033	0.074044	0.000086
H205	H	0.059275	0.095280	-0.034499
O206	O	0.658497	0.810683	0.000038
H207	H	0.650687	0.848950	0.000033
O208	O	0.476308	0.680604	0.000029
H209	H	0.455074	0.687368	-0.034555
O210	O	0.435060	0.396138	0.000010
H211	H	0.404679	0.365902	0.000000
H212	H	0.493213	0.165279	0.000062
