data_functionalizedCrystal
_audit_creation_method	'MofGen! by Chris Wilmer'
_symmetry_space_group_name_H-M	'P1'
_symmetry_Int_Tables_number	1
_symmetry_cell_setting	triclinic
loop_
_symmetry_equiv_pos_as_xyz
  x,y,z
_cell_length_a	21.295411
_cell_length_b	21.295418
_cell_length_c	21.295417
_cell_angle_alpha	90.046319
_cell_angle_beta	90.021644
_cell_angle_gamma	90.043738
loop_
_atom_site_label
_atom_site_type_symbol
_atom_site_fract_x
_atom_site_fract_y
_atom_site_fract_z
Zn1	Zn	-0.356234	-0.962356	0.250415
Zn2	Zn	-0.022900	-0.629022	0.583749
Zn3	Zn	0.310433	-0.295689	0.917082
Zn4	Zn	-0.250959	-0.962258	0.355667
Zn5	Zn	0.082374	-0.628925	0.689000
Zn6	Zn	0.415708	-0.295592	1.022334
Zn7	Zn	-0.250943	-0.857079	0.250445
Zn8	Zn	0.082390	-0.523746	0.583778
Zn9	Zn	0.415723	-0.190412	0.917111
Zn10	Zn	-0.356155	-0.857048	0.355680
Zn11	Zn	-0.022822	-0.523715	0.689013
Zn12	Zn	0.310511	-0.190382	1.022346
O13	O	-0.303573	-0.909685	0.303052
O14	O	0.029760	-0.576352	0.636385
O15	O	0.363094	-0.243019	0.969718
O16	O	-0.342308	-1.050432	0.264360
O17	O	-0.008975	-0.717099	0.597693
O18	O	0.324359	-0.383766	0.931026
O19	O	-0.162867	-0.948278	0.341716
O20	O	0.170466	-0.614945	0.675050
O21	O	0.503799	-0.281611	1.008383
O22	O	-0.264937	-0.871098	0.162351
O23	O	0.068397	-0.537764	0.495685
O24	O	0.401730	-0.204431	0.829018
O25	O	-0.264963	-1.050361	0.341688
O26	O	0.068370	-0.717027	0.675021
O27	O	0.401704	-0.383694	1.008354
O28	O	-0.342293	-0.948444	0.162330
O29	O	-0.008960	-0.615111	0.495663
O30	O	0.324374	-0.281778	0.828996
O31	O	-0.162856	-0.871003	0.264410
O32	O	0.170477	-0.537670	0.597743
O33	O	0.503811	-0.204337	0.931077
O34	O	-0.264861	-0.768985	0.264422
O35	O	0.068473	-0.435652	0.597755
O36	O	0.401806	-0.102319	0.931089
O37	O	-0.444255	-0.871046	0.341709
O38	O	-0.110922	-0.537712	0.675042
O39	O	0.222411	-0.204379	1.008376
O40	O	-0.342160	-0.768963	0.341738
O41	O	-0.008826	-0.435630	0.675071
O42	O	0.324507	-0.102296	1.008404
O43	O	-0.444313	-0.948415	0.264372
O44	O	-0.110979	-0.615081	0.597705
O45	O	0.222354	-0.281748	0.931038
O46	O	-0.264887	-0.948248	0.443758
O47	O	0.068446	-0.614915	0.777091
O48	O	0.401779	-0.281582	1.110425
O49	O	-0.342175	-0.870951	0.443767
O50	O	-0.008841	-0.537618	0.777101
O51	O	0.324492	-0.204284	1.110434
C52	C	-0.303500	-0.746134	0.303085
C53	C	0.029833	-0.412800	0.636418
C54	C	0.363166	-0.079467	0.969751
C55	C	-0.303484	-0.676166	0.303114
C56	C	0.029849	-0.342832	0.636447
C57	C	0.363182	-0.009499	0.969781
C58	C	-0.303538	-0.909603	0.466603
C59	C	0.029795	-0.576269	0.799937
C60	C	0.363129	-0.242936	1.133270
C61	C	-0.303544	-0.909625	0.536571
C62	C	0.029789	-0.576292	0.869905
C63	C	0.363123	-0.242958	1.203238
C64	C	-0.467763	-0.909738	0.303038
C65	C	-0.134430	-0.576404	0.636372
C66	C	0.198903	-0.243071	0.969705
C67	C	-0.537731	-0.909760	0.303033
C68	C	-0.204398	-0.576427	0.636366
C69	C	0.128935	-0.243093	0.969699
C70	C	-0.570629	-0.950044	0.262761
C71	C	-0.237296	-0.616711	0.596095
C72	C	0.096038	-0.283377	0.929428
C73	C	-0.636371	-0.950043	0.262734
C74	C	-0.303038	-0.616710	0.596067
C75	C	0.030295	-0.283377	0.929401
C76	C	-0.669214	-0.909765	0.302989
C77	C	-0.335881	-0.576431	0.636323
C78	C	-0.002547	-0.243098	0.969656
C79	C	-0.636308	-0.869473	0.343263
C80	C	-0.302975	-0.536139	0.676597
C81	C	0.030358	-0.202806	1.009930
C82	C	-0.570567	-0.869470	0.343285
C83	C	-0.237234	-0.536137	0.676618
C84	C	0.096100	-0.202804	1.009952
N85	N	-0.772428	-0.904908	0.358058
N86	N	-0.439094	-0.571575	0.691392
N87	N	-0.105761	-0.238241	1.024725
N88	N	-0.834879	-0.904914	0.358036
N89	N	-0.501546	-0.571581	0.691369
N90	N	-0.168213	-0.238247	1.024703
C91	C	-0.867289	-0.909769	0.302926
C92	C	-0.533955	-0.576435	0.636259
C93	C	-0.200622	-0.243102	0.969592
N94	N	-0.834888	-0.914629	0.247837
N95	N	-0.501554	-0.581296	0.581170
N96	N	-0.168221	-0.247963	0.914504
N97	N	-0.772430	-0.914627	0.247860
N98	N	-0.439097	-0.581293	0.581193
N99	N	-0.105764	-0.247960	0.914527
C100	C	-0.740499	-0.909763	0.302970
C101	C	-0.407166	-0.576429	0.636303
C102	C	-0.073833	-0.243096	0.969637
C103	C	-0.971472	-0.950054	0.262621
C104	C	-0.638139	-0.616721	0.595955
C105	C	-0.304805	-0.283388	0.929288
C106	C	-1.037216	-0.950049	0.262593
C107	C	-0.703882	-0.616716	0.595926
C108	C	-0.370549	-0.283382	0.929260
C109	C	-1.037151	-0.869482	0.343128
C110	C	-0.703818	-0.536148	0.676461
C111	C	-0.370485	-0.202815	1.009795
C112	C	-0.971409	-0.869484	0.343151
C113	C	-0.638076	-0.536150	0.676484
C114	C	-0.304742	-0.202817	1.009817
C115	C	-0.938573	-0.909773	0.302898
C116	C	-0.605240	-0.576440	0.636231
C117	C	-0.271906	-0.243107	0.969565
C118	C	-0.140021	-0.909670	0.303019
C119	C	0.193312	-0.576336	0.636353
C120	C	0.526645	-0.243003	0.969686
C121	C	-0.070054	-0.909769	0.302848
C122	C	0.263280	-0.576436	0.636181
C123	C	0.596613	-0.243103	0.969514
C124	C	-0.303646	-1.073876	0.303019
C125	C	0.029687	-0.740542	0.636352
C126	C	0.363021	-0.407209	0.969686
C127	C	-0.303677	-1.143844	0.303005
C128	C	0.029656	-0.810510	0.636338
C129	C	0.362990	-0.477177	0.969672
C130	C	-0.343674	-0.643304	0.343426
C131	C	-0.010340	-0.309970	0.676759
C132	C	0.322993	0.023363	1.010092
C133	C	-0.343702	-0.577561	0.343410
C134	C	-0.010369	-0.244228	0.676743
C135	C	0.322965	0.089106	1.010077
C136	C	-0.303530	-0.544683	0.303090
C137	C	0.029804	-0.211350	0.636423
C138	C	0.363137	0.121984	0.969756
C139	C	-0.263337	-0.577553	0.262770
C140	C	0.069996	-0.244220	0.596104
C141	C	0.403329	0.089114	0.929437
C142	C	-0.263315	-0.643294	0.262783
C143	C	0.070018	-0.309961	0.596116
C144	C	0.403352	0.023373	0.929449
N145	N	-0.248472	-0.441407	0.298163
N146	N	0.084861	-0.108074	0.631496
N147	N	0.418195	0.225260	0.964829
N148	N	-0.248495	-0.378956	0.298155
N149	N	0.084838	-0.045622	0.631488
N150	N	0.418171	0.287711	0.964821
C151	C	-0.303596	-0.346608	0.303050
C152	C	0.029737	-0.013275	0.636383
C153	C	0.363070	0.320058	0.969716
N154	N	-0.358675	-0.379072	0.307965
N155	N	-0.025341	-0.045739	0.641298
N156	N	0.307992	0.287595	0.974632
N157	N	-0.358650	-0.441529	0.307976
N158	N	-0.025317	-0.108196	0.641309
N159	N	0.308016	0.225138	0.974643
C160	C	-0.303550	-0.473398	0.303072
C161	C	0.029783	-0.140064	0.636405
C162	C	0.363117	0.193269	0.969738
C163	C	-0.343820	-0.242461	0.343346
C164	C	-0.010486	0.090872	0.676680
C165	C	0.322847	0.424206	1.010013
C166	C	-0.343849	-0.176717	0.343326
C167	C	-0.010516	0.156616	0.676660
C168	C	0.322818	0.489949	1.009993
C169	C	-0.263479	-0.176710	0.262690
C170	C	0.069854	0.156623	0.596023
C171	C	0.403188	0.489956	0.929357
C172	C	-0.263455	-0.242453	0.262707
C173	C	0.069878	0.090881	0.596040
C174	C	0.403211	0.424214	0.929373
C175	C	-0.303625	-0.275324	0.303038
C176	C	0.029709	0.058009	0.636372
C177	C	0.363042	0.391343	0.969705
C178	C	-0.303622	-0.909785	0.138861
C179	C	0.029712	-0.576452	0.472195
C180	C	0.363045	-0.243119	0.805528
C181	C	-0.303642	-0.909828	0.068893
C182	C	0.029691	-0.576495	0.402227
C183	C	0.363024	-0.243161	0.735560
C184	C	-0.263342	-0.949910	0.569412
C185	C	0.069991	-0.616576	0.902746
C186	C	0.403325	-0.283243	1.236079
C187	C	-0.263356	-0.949939	0.635155
C188	C	0.069977	-0.616606	0.968488
C189	C	0.403311	-0.283272	1.301822
C190	C	-0.303566	-0.909673	0.668054
C191	C	0.029767	-0.576340	1.001387
C192	C	0.363101	-0.243006	1.334721
C193	C	-0.343776	-0.869386	0.635205
C194	C	-0.010443	-0.536052	0.968538
C195	C	0.322891	-0.202719	1.301872
C196	C	-0.343765	-0.869362	0.569464
C197	C	-0.010432	-0.536028	0.902797
C198	C	0.322902	-0.202695	1.236130
N199	N	-0.308340	-0.854606	0.771336
N200	N	0.024993	-0.521272	1.104669
N201	N	0.358326	-0.187939	1.438002
N202	N	-0.308347	-0.854630	0.833787
N203	N	0.024986	-0.521297	1.167120
N204	N	0.358320	-0.187964	1.500454
C205	C	-0.303602	-0.909743	0.866129
C206	C	0.029731	-0.576410	1.199462
C207	C	0.363065	-0.243077	1.532795
N208	N	-0.298838	-0.964832	0.833659
N209	N	0.034496	-0.631499	1.166993
N210	N	0.367829	-0.298166	1.500326
N211	N	-0.298828	-0.964807	0.771202
N212	N	0.034506	-0.631474	1.104535
N213	N	0.367839	-0.298140	1.437869
C214	C	-0.303582	-0.909695	0.739339
C215	C	0.029751	-0.576361	1.072673
C216	C	0.363084	-0.243028	1.406006
C217	C	-0.263413	-0.950063	0.970255
C218	C	0.069920	-0.616730	1.303588
C219	C	0.403254	-0.283397	1.636922
C220	C	-0.263431	-0.950094	1.035999
C221	C	0.069902	-0.616760	1.369332
C222	C	0.403235	-0.283427	1.702665
C223	C	-0.343848	-0.869535	1.036048
C224	C	-0.010515	-0.536201	1.369381
C225	C	0.322819	-0.202868	1.702714
C226	C	-0.343833	-0.869510	0.970305
C227	C	-0.010500	-0.536176	1.303638
C228	C	0.322834	-0.202843	1.636972
C229	C	-0.303612	-0.909773	0.937413
C230	C	0.029721	-0.576440	1.270746
C231	C	0.363055	-0.243106	1.604079
H232	H	-0.663162	-0.982846	0.229937
H233	H	-0.329829	-0.649513	0.563270
H234	H	0.003505	-0.316180	0.896604
H235	H	-0.230773	-0.149942	0.229857
H236	H	0.102560	0.183392	0.563191
H237	H	0.435894	0.516725	0.896524
H238	H	-0.376384	-0.670063	0.376266
H239	H	-0.043050	-0.336730	0.709599
H240	H	0.290283	-0.003397	1.042932
O241	O	-0.224351	-0.274281	0.223532
O242	O	0.108982	0.059052	0.556865
O243	O	0.442316	0.392386	0.890199
C244	C	-0.188910	-0.231167	0.187928
C245	C	0.144423	0.102166	0.521261
C246	C	0.477756	0.435499	0.854594
H247	H	-0.186699	-0.184276	0.213699
H248	H	0.146635	0.149057	0.547033
H249	H	0.479968	0.482390	0.880366
H250	H	-0.139319	-0.250114	0.181143
H251	H	0.194014	0.083219	0.514476
H252	H	0.527347	0.416552	0.847810
H253	H	-0.212054	-0.224249	0.140152
H254	H	0.121280	0.109084	0.473485
H255	H	0.454613	0.442417	0.806819
O256	O	-0.382767	-0.545727	0.382627
O257	O	-0.049433	-0.212394	0.715960
O258	O	0.283900	0.120939	1.049294
C259	C	-0.418231	-0.588838	0.418211
C260	C	-0.084898	-0.255505	0.751544
C261	C	0.248436	0.077829	1.084877
H262	H	-0.392428	-0.635670	0.420366
H263	H	-0.059095	-0.302337	0.753699
H264	H	0.274239	0.030997	1.087033
H265	H	-0.424862	-0.569797	0.467812
H266	H	-0.091529	-0.236464	0.801146
H267	H	0.241804	0.096870	1.134479
H268	H	-0.466079	-0.595907	0.395229
H269	H	-0.132746	-0.262573	0.728563
H270	H	0.200587	0.070760	1.061896
O271	O	-0.382925	-0.830338	0.667132
O272	O	-0.049592	-0.497004	1.000465
O273	O	0.283741	-0.163671	1.333799
C274	C	-0.445679	-0.844050	0.651008
C275	C	-0.112345	-0.510717	0.984341
C276	C	0.220988	-0.177383	1.317674
H277	H	-0.448916	-0.894331	0.632876
H278	H	-0.115583	-0.560998	0.966209
H279	H	0.217750	-0.227664	1.299542
H280	H	-0.476777	-0.838628	0.694232
H281	H	-0.143444	-0.505295	1.027565
H282	H	0.189889	-0.171962	1.360899
H283	H	-0.462087	-0.810280	0.612878
H284	H	-0.128753	-0.476946	0.946212
H285	H	0.204580	-0.143613	1.279545
H286	H	-0.944736	-0.982857	0.229842
H287	H	-0.611402	-0.649524	0.563175
H288	H	-0.278069	-0.316190	0.896508
O289	O	-0.668236	-0.830438	0.382437
O290	O	-0.334903	-0.497104	0.715770
O291	O	-0.001570	-0.163771	1.049103
C292	C	-0.706297	-0.866254	0.423066
C293	C	-0.372963	-0.532921	0.756399
C294	C	-0.039630	-0.199587	1.089732
H295	H	-0.686519	-0.915829	0.426950
H296	H	-0.353186	-0.582496	0.760283
H297	H	-0.019853	-0.249162	1.093617
H298	H	-0.707022	-0.843457	0.471515
H299	H	-0.373689	-0.510124	0.804848
H300	H	-0.040356	-0.176790	1.138181
H301	H	-0.756124	-0.868437	0.403588
H302	H	-0.422791	-0.535104	0.736921
H303	H	-0.089457	-0.201771	1.070254
H304	H	-0.230593	-0.982696	0.542633
H305	H	0.102740	-0.649363	0.875967
H306	H	0.436073	-0.316029	1.209300
H307	H	-0.376591	-0.836752	1.062833
H308	H	-0.043257	-0.503419	1.396167
H309	H	0.290076	-0.170085	1.729500
H310	H	-0.543782	-0.836663	0.376078
H311	H	-0.210449	-0.503330	0.709411
H312	H	0.122884	-0.169996	1.042745
O313	O	-0.224293	-0.545716	0.223545
O314	O	0.109041	-0.212382	0.556878
O315	O	0.442374	0.120951	0.890212
C316	C	-0.188802	-0.588822	0.187978
C317	C	0.144532	-0.255488	0.521311
C318	C	0.477865	0.077845	0.854645
H319	H	-0.214575	-0.635714	0.185844
H320	H	0.118759	-0.302381	0.519177
H321	H	0.452092	0.030952	0.852510
H322	H	-0.182185	-0.569867	0.138368
H323	H	0.151149	-0.236534	0.471701
H324	H	0.484482	0.096799	0.805035
H325	H	-0.140948	-0.595740	0.210960
H326	H	0.192385	-0.262406	0.544294
H327	H	0.525719	0.070927	0.877627
H328	H	-0.230619	-0.982746	0.661899
H329	H	0.102715	-0.649412	0.995233
H330	H	0.436048	-0.316079	1.328566
O331	O	-1.069246	-0.989209	0.223555
O332	O	-0.735913	-0.655876	0.556889
O333	O	-0.402580	-0.322542	0.890222
C334	C	-1.107297	-1.029852	0.259373
C335	C	-0.773963	-0.696518	0.592706
C336	C	-0.440630	-0.363185	0.926040
H337	H	-1.117125	-1.007621	0.307079
H338	H	-0.783792	-0.674287	0.640412
H339	H	-0.450459	-0.340954	0.973746
H340	H	-1.153534	-1.038298	0.233714
H341	H	-0.820200	-0.704965	0.567047
H342	H	-0.486867	-0.371632	0.900380
H343	H	-1.082001	-1.076500	0.266289
H344	H	-0.748667	-0.743167	0.599622
H345	H	-0.415334	-0.409833	0.932955
H346	H	-0.230664	-0.982850	0.943473
H347	H	0.102669	-0.649517	1.276806
H348	H	0.436002	-0.316184	1.610140
H349	H	-1.063891	-0.836680	0.375898
H350	H	-0.730558	-0.503346	0.709231
H351	H	-0.397224	-0.170013	1.042565
O352	O	-0.939546	-0.830334	0.382333
O353	O	-0.606213	-0.497001	0.715667
O354	O	-0.272879	-0.163667	1.049000
C355	C	-0.982628	-0.794769	0.417847
C356	C	-0.649295	-0.461436	0.751180
C357	C	-0.315961	-0.128103	1.084513
H358	H	-1.029509	-0.820554	0.420008
H359	H	-0.696176	-0.487220	0.753341
H360	H	-0.362843	-0.153887	1.086675
H361	H	-0.963625	-0.788021	0.467451
H362	H	-0.630292	-0.454687	0.800784
H363	H	-0.296958	-0.121354	1.134117
H364	H	-0.989587	-0.746976	0.394799
H365	H	-0.656254	-0.413643	0.728133
H366	H	-0.322920	-0.080309	1.061466
O367	O	-0.382754	-0.274424	0.382584
O368	O	-0.049420	0.058910	0.715918
O369	O	0.283913	0.392243	1.049251
C370	C	-0.346828	-0.312380	0.423190
C371	C	-0.013495	0.020954	0.756523
C372	C	0.319838	0.354287	1.089856
H373	H	-0.297250	-0.292508	0.427002
H374	H	0.036084	0.040825	0.760336
H375	H	0.369417	0.374158	1.093669
H376	H	-0.369508	-0.313100	0.471667
H377	H	-0.036174	0.020233	0.805000
H378	H	0.297159	0.353566	1.138333
H379	H	-0.344677	-0.362222	0.403735
H380	H	-0.011344	-0.028889	0.737069
H381	H	0.321990	0.304445	1.070402
O382	O	-0.382730	-0.830194	0.537490
O383	O	-0.049396	-0.496861	0.870823
O384	O	0.283937	-0.163527	1.204157
C385	C	-0.346831	-0.789528	0.499545
C386	C	-0.013498	-0.456195	0.832878
C387	C	0.319836	-0.122862	1.166211
H388	H	-0.299151	-0.811749	0.489698
H389	H	0.034182	-0.478415	0.823031
H390	H	0.367515	-0.145082	1.156364
H391	H	-0.372451	-0.781062	0.453310
H392	H	-0.039118	-0.447729	0.786643
H393	H	0.294216	-0.114395	1.119977
H394	H	-0.339863	-0.742892	0.524941
H395	H	-0.006529	-0.409558	0.858274
H396	H	0.326804	-0.076225	1.191607
H397	H	-0.230588	-0.670050	0.229954
H398	H	0.102746	-0.336717	0.563287
H399	H	0.436079	-0.003383	0.896621
O400	O	-0.382910	-0.144890	0.382548
O401	O	-0.049577	0.188443	0.715881
O402	O	0.283756	0.521776	1.049214
C403	C	-0.418367	-0.188004	0.418135
C404	C	-0.085034	0.145329	0.751469
C405	C	0.248300	0.478662	1.084802
H406	H	-0.392562	-0.234836	0.420283
H407	H	-0.059228	0.098497	0.753617
H408	H	0.274105	0.431831	1.086950
H409	H	-0.424990	-0.168967	0.467739
H410	H	-0.091657	0.164367	0.801073
H411	H	0.241676	0.497700	1.134406
H412	H	-0.466219	-0.195074	0.395162
H413	H	-0.132886	0.138260	0.728495
H414	H	0.200448	0.471593	1.061829
O415	O	-0.224318	-0.989249	1.067805
O416	O	0.109015	-0.655916	1.401139
O417	O	0.442349	-0.322582	1.734472
C418	C	-0.188829	-1.024789	1.024673
C419	C	0.144504	-0.691456	1.358006
C420	C	0.477838	-0.358122	1.691339
H421	H	-0.186610	-0.998987	0.977843
H422	H	0.146724	-0.665654	1.311176
H423	H	0.480057	-0.332321	1.644509
H424	H	-0.139244	-1.031532	1.043688
H425	H	0.194090	-0.698198	1.377022
H426	H	0.527423	-0.364865	1.710355
H427	H	-0.211935	-1.072586	1.017609
H428	H	0.121398	-0.739252	1.350943
H429	H	0.454731	-0.405919	1.684276
H430	H	-0.376567	-0.836704	0.943564
H431	H	-0.043233	-0.503370	1.276898
H432	H	0.290100	-0.170037	1.610231
H433	H	-0.543898	-0.982850	0.229984
H434	H	-0.210565	-0.649517	0.563317
H435	H	0.122769	-0.316184	0.896651
