data_functionalizedCrystal
_audit_creation_method	'MofGen! by Chris Wilmer'
_symmetry_space_group_name_H-M	'P1'
_symmetry_Int_Tables_number	1
_symmetry_cell_setting	triclinic
loop_
_symmetry_equiv_pos_as_xyz
  x,y,z
_cell_length_a	23.532407
_cell_length_b	19.188900
_cell_length_c	18.266242
_cell_angle_alpha	90.017742
_cell_angle_beta	89.989064
_cell_angle_gamma	97.009417
loop_
_atom_site_label
_atom_site_type_symbol
_atom_site_fract_x
_atom_site_fract_y
_atom_site_fract_z
O1	O	0.071020	-0.925936	-0.061030
O2	O	0.404354	-0.592603	0.272303
O3	O	0.737687	-0.259270	0.605636
O4	O	0.080610	-0.722591	-0.061002
O5	O	0.413943	-0.389258	0.272332
O6	O	0.747276	-0.055925	0.605665
O7	O	-0.007104	-0.830396	-0.061003
O8	O	0.326229	-0.497062	0.272330
O9	O	0.659562	-0.163729	0.605663
O10	O	0.158734	-0.818132	-0.061029
O11	O	0.492067	-0.484799	0.272305
O12	O	0.825401	-0.151465	0.605638
O13	O	-0.007109	-0.830377	0.060759
O14	O	0.326225	-0.497044	0.394092
O15	O	0.659558	-0.163710	0.727425
O16	O	0.080605	-0.722573	0.060760
O17	O	0.413939	-0.389239	0.394094
O18	O	0.747272	-0.055906	0.727427
O19	O	0.071016	-0.925917	0.060732
O20	O	0.404349	-0.592584	0.394065
O21	O	0.737683	-0.259251	0.727398
Zn22	Zn	0.075810	-0.824242	0.080078
Zn23	Zn	0.409143	-0.490909	0.413412
Zn24	Zn	0.742477	-0.157575	0.746745
Zn25	Zn	0.075816	-0.824267	-0.080348
Zn26	Zn	0.409149	-0.490934	0.252985
Zn27	Zn	0.742482	-0.157600	0.586318
O28	O	0.158730	-0.818113	0.060733
O29	O	0.492063	-0.484780	0.394067
O30	O	0.825397	-0.151447	0.727400
C31	C	0.080300	-0.696572	-0.000117
C32	C	0.413633	-0.363238	0.333217
C33	C	0.746966	-0.029905	0.666550
C34	C	0.079376	-0.619069	-0.000105
C35	C	0.412709	-0.285736	0.333228
C36	C	0.746043	0.047598	0.666561
C37	C	0.078935	-0.582689	-0.066479
C38	C	0.412268	-0.249355	0.266855
C39	C	0.745602	0.083978	0.600188
C40	C	0.078061	-0.509868	-0.066486
C41	C	0.411394	-0.176534	0.266847
C42	C	0.744727	0.156799	0.600181
C43	C	0.077616	-0.473432	-0.000116
C44	C	0.410950	-0.140098	0.333217
C45	C	0.744283	0.193235	0.666551
C46	C	0.078061	-0.509820	0.066266
C47	C	0.411394	-0.176487	0.399600
C48	C	0.744728	0.156847	0.732933
C49	C	0.078941	-0.582639	0.066272
C50	C	0.412274	-0.249305	0.399605
C51	C	0.745608	0.084028	0.732938
N52	N	0.043824	-0.364511	0.049284
N53	N	0.377157	-0.031178	0.382617
N54	N	0.710490	0.302155	0.715950
N55	N	0.042987	-0.295337	0.049274
N56	N	0.376320	0.037997	0.382607
N57	N	0.709653	0.371330	0.715941
C58	C	0.074967	-0.254033	-0.000128
C59	C	0.408300	0.079300	0.333205
C60	C	0.741633	0.412634	0.666538
N61	N	0.107808	-0.284518	-0.049532
N62	N	0.441141	0.048815	0.283802
N63	N	0.774475	0.382149	0.617135
N64	N	0.108643	-0.353699	-0.049524
N65	N	0.441976	-0.020366	0.283809
N66	N	0.775309	0.312967	0.617142
C67	C	0.076663	-0.394472	-0.000114
C68	C	0.409996	-0.061139	0.333219
C69	C	0.743329	0.272195	0.666552
C70	C	0.073578	-0.138692	-0.066514
C71	C	0.406911	0.194642	0.266819
C72	C	0.740245	0.527975	0.600152
C73	C	0.072707	-0.065869	-0.066519
C74	C	0.406041	0.267465	0.266815
C75	C	0.739374	0.600798	0.600148
C76	C	0.072702	-0.065823	0.066235
C77	C	0.406035	0.267510	0.399569
C78	C	0.739369	0.600843	0.732902
C79	C	0.073578	-0.138644	0.066238
C80	C	0.406912	0.194689	0.399571
C81	C	0.740245	0.528023	0.732905
C82	C	0.074014	-0.175074	-0.000139
C83	C	0.407347	0.158259	0.333195
C84	C	0.740680	0.491592	0.666528
C85	C	-0.028323	-0.830074	-0.000121
C86	C	0.305010	-0.496741	0.333213
C87	C	0.638344	-0.163407	0.666546
C88	C	-0.091542	-0.829135	-0.000115
C89	C	0.241791	-0.495802	0.333219
C90	C	0.575125	-0.162468	0.666552
C91	C	-0.490527	-0.887042	-0.000163
C92	C	-0.157194	-0.553709	0.333170
C93	C	0.176139	-0.220376	0.666504
C94	C	-0.549929	-0.886170	-0.000168
C95	C	-0.216596	-0.552837	0.333165
C96	C	0.116737	-0.219503	0.666498
O97	O	-0.586565	-0.939851	-0.000203
O98	O	-0.253231	-0.606517	0.333130
O99	O	0.080102	-0.273184	0.666464
N100	N	-0.572686	-0.822080	-0.000159
N101	N	-0.239353	-0.488747	0.333174
N102	N	0.093981	-0.155414	0.666508
C103	C	-0.536037	-0.758859	-0.000151
C104	C	-0.202704	-0.425526	0.333182
C105	C	0.130630	-0.092192	0.666515
O106	O	-0.560848	-0.704266	-0.000144
O107	O	-0.227514	-0.370932	0.333189
O108	O	0.105819	-0.037599	0.666522
C109	C	-0.476636	-0.759732	-0.000151
C110	C	-0.143303	-0.426399	0.333182
C111	C	0.190031	-0.093065	0.666516
C112	C	-0.453883	-0.823826	-0.000153
C113	C	-0.120550	-0.490492	0.333180
C114	C	0.212784	-0.157159	0.666513
C115	C	-0.467774	-0.951131	-0.000166
C116	C	-0.134440	-0.617798	0.333167
C117	C	0.198893	-0.284464	0.666501
C118	C	-0.408376	-0.952003	-0.000159
C119	C	-0.075042	-0.618669	0.333174
C120	C	0.258291	-0.285336	0.666507
C121	C	-0.371731	-0.888786	-0.000149
C122	C	-0.038398	-0.555453	0.333184
C123	C	0.294935	-0.222119	0.666517
C124	C	-0.394485	-0.824698	-0.000146
C125	C	-0.061152	-0.491364	0.333187
C126	C	0.272182	-0.158031	0.666520
C127	C	-0.439988	-0.696511	-0.000149
C128	C	-0.106655	-0.363178	0.333185
C129	C	0.226678	-0.029844	0.666518
C130	C	-0.380584	-0.697390	-0.000149
C131	C	-0.047251	-0.364056	0.333184
C132	C	0.286083	-0.030723	0.666517
C133	C	-0.357831	-0.761483	-0.000151
C134	C	-0.024498	-0.428150	0.333182
C135	C	0.308836	-0.094817	0.666515
C136	C	-0.298443	-0.762353	-0.000130
C137	C	0.034890	-0.429020	0.333203
C138	C	0.368224	-0.095686	0.666537
N139	N	-0.275686	-0.826443	-0.000140
N140	N	0.057647	-0.493109	0.333194
N141	N	0.390980	-0.159776	0.666527
C142	C	-0.312331	-0.889659	-0.000149
C143	C	0.021003	-0.556326	0.333184
C144	C	0.354336	-0.222992	0.666517
C145	C	-0.660783	-0.757031	-0.000153
C146	C	-0.327450	-0.423697	0.333180
C147	C	0.005883	-0.090364	0.666514
C148	C	-0.720183	-0.756157	-0.000148
C149	C	-0.386850	-0.422823	0.333185
C150	C	-0.053516	-0.089490	0.666519
C151	C	-0.734071	-0.883468	-0.000167
C152	C	-0.400738	-0.550135	0.333167
C153	C	-0.067405	-0.216802	0.666500
C154	C	-0.674670	-0.884341	-0.000166
C155	C	-0.341337	-0.551008	0.333167
C156	C	-0.008004	-0.217675	0.666500
C157	C	-0.638027	-0.821120	-0.000163
C158	C	-0.304693	-0.487787	0.333171
C159	C	0.028640	-0.154453	0.666504
C160	C	-0.187590	-0.891485	-0.000134
C161	C	0.145743	-0.558152	0.333199
C162	C	0.479077	-0.224819	0.666532
C163	C	-0.128186	-0.892352	-0.000125
C164	C	0.205147	-0.559018	0.333209
C165	C	0.538480	-0.225685	0.666542
C166	C	-0.114303	-0.765041	-0.000110
C167	C	0.219030	-0.431707	0.333223
C168	C	0.552363	-0.098374	0.666557
C169	C	-0.173702	-0.764174	-0.000116
C170	C	0.159631	-0.430841	0.333217
C171	C	0.492965	-0.097507	0.666551
C172	C	-0.210344	-0.827402	-0.000131
C173	C	0.122989	-0.494069	0.333203
C174	C	0.456322	-0.160735	0.666536
O175	O	-0.261773	-0.708701	-0.000098
O176	O	0.071560	-0.375367	0.333235
O177	O	0.404894	-0.042034	0.666568
O178	O	-0.287512	-0.944243	-0.000166
O179	O	0.045822	-0.610910	0.333167
O180	O	0.379155	-0.277577	0.666501
C181	C	0.179949	-0.818435	-0.000151
C182	C	0.513282	-0.485102	0.333182
C183	C	0.846615	-0.151768	0.666516
C184	C	0.243168	-0.819374	-0.000162
C185	C	0.576501	-0.486041	0.333172
C186	C	0.909834	-0.152707	0.666505
N187	N	0.075806	-0.824230	0.189565
N188	N	0.409139	-0.490897	0.522899
N189	N	0.742472	-0.157564	0.856232
C190	C	0.071330	0.048063	-0.000149
C191	C	0.404663	0.381397	0.333184
C192	C	0.737996	0.714730	0.666518
C193	C	0.072264	-0.029438	-0.000148
C194	C	0.405598	0.303896	0.333185
C195	C	0.738931	0.637229	0.666519
C196	C	0.036985	-0.871981	0.227873
C197	C	0.370318	-0.538648	0.561207
C198	C	0.703652	-0.205315	0.894540
C199	C	0.036983	-0.871985	0.304518
C200	C	0.370316	-0.538652	0.637852
C201	C	0.703649	-0.205319	0.971185
C202	C	0.075811	-0.824245	0.342852
C203	C	0.409144	-0.490912	0.676186
C204	C	0.742477	-0.157578	1.009519
C205	C	0.114634	-0.776485	0.304535
C206	C	0.447967	-0.443152	0.637868
C207	C	0.781301	-0.109818	0.971202
C208	C	0.114632	-0.776478	0.227891
C209	C	0.447965	-0.443144	0.561225
C210	C	0.781298	-0.109811	0.894558
N211	N	0.126227	-0.815008	0.463178
N212	N	0.459560	-0.481674	0.796511
N213	N	0.792893	-0.148341	1.129844
N214	N	0.126227	-0.815019	0.535986
N215	N	0.459561	-0.481685	0.869319
N216	N	0.792894	-0.148352	1.202652
C217	C	0.075819	-0.824263	0.573775
C218	C	0.409152	-0.490930	0.907108
C219	C	0.742486	-0.157596	1.240441
N220	N	0.025409	-0.833510	0.536005
N221	N	0.358742	-0.500176	0.869338
N222	N	0.692076	-0.166843	1.202671
N223	N	0.025409	-0.833502	0.463190
N224	N	0.358742	-0.500169	0.796523
N225	N	0.692076	-0.166835	1.129857
C226	C	0.075817	-0.824247	0.425959
C227	C	0.409150	-0.490914	0.759292
C228	C	0.742484	-0.157581	1.092626
C229	C	0.036992	-0.872021	0.695190
C230	C	0.370326	-0.538688	1.028523
C231	C	0.703659	-0.205355	1.361856
C232	C	0.036989	-0.872020	0.771836
C233	C	0.370323	-0.538687	1.105169
C234	C	0.703656	-0.205354	1.438503
C235	C	0.114646	-0.776523	0.771851
C236	C	0.447979	-0.443190	1.105185
C237	C	0.781312	-0.109857	1.438518
C238	C	0.114644	-0.776521	0.695206
C239	C	0.447977	-0.443188	1.028540
C240	C	0.781311	-0.109854	1.361873
C241	C	0.075818	-0.824273	0.656880
C242	C	0.409151	-0.490940	0.990214
C243	C	0.742485	-0.157607	1.323547
N244	N	0.075817	-0.824279	0.810165
N245	N	0.409150	-0.490945	1.143498
N246	N	0.742484	-0.157612	1.476831
H247	H	0.072344	-0.036157	0.120275
H248	H	0.405677	0.297176	0.453609
H249	H	0.739011	0.630509	0.786942
F250	F	-0.464191	-0.628293	-0.000150
F251	F	-0.130857	-0.294959	0.333184
F252	F	0.202476	0.038374	0.666517
F253	F	-0.004334	-0.922842	0.812608
F254	F	0.328999	-0.589509	1.145941
F255	F	0.662333	-0.256175	1.479275
H256	H	0.146248	-0.737613	0.335750
H257	H	0.479581	-0.404280	0.669084
H258	H	0.812914	-0.070946	1.002417
H259	H	0.079301	-0.612259	0.120323
H260	H	0.412634	-0.278926	0.453656
H261	H	0.745967	0.054408	0.786989
H262	H	0.073939	-0.168354	-0.120562
H263	H	0.407272	0.164980	0.212771
H264	H	0.740605	0.498313	0.546105
H265	H	0.146258	-0.737650	0.803062
H266	H	0.479591	-0.404316	1.136395
H267	H	0.812925	-0.070983	1.469729
F268	F	-0.506765	-1.018421	-0.000177
F269	F	-0.173432	-0.685088	0.333156
F270	F	0.159901	-0.351754	0.666490
F271	F	-0.384168	-1.020221	-0.000177
F272	F	-0.050835	-0.686887	0.333156
F273	F	0.282499	-0.353554	0.666489
H274	H	0.146258	-0.737640	0.664014
H275	H	0.479591	-0.404307	0.997347
H276	H	0.812924	-0.070974	1.330681
H277	H	-0.630950	-0.705545	-0.000144
H278	H	-0.297617	-0.372212	0.333190
H279	H	0.035716	-0.038878	0.666523
H280	H	-0.350751	-0.645906	-0.000147
H281	H	-0.017418	-0.312573	0.333186
H282	H	0.315916	0.020761	0.666519
H283	H	-0.738703	-0.703965	-0.000134
H284	H	-0.405369	-0.370632	0.333200
H285	H	-0.072036	-0.037299	0.666533
H286	H	0.005369	-0.910871	0.335714
H287	H	0.338702	-0.577538	0.669048
H288	H	0.672036	-0.244204	1.002381
F289	F	-0.004338	-0.922800	0.187085
F290	F	0.328995	-0.589467	0.520419
F291	F	0.662328	-0.256134	0.853752
H292	H	-0.192228	-0.711984	-0.000094
H293	H	0.141105	-0.378650	0.333240
H294	H	0.474439	-0.045317	0.666573
H295	H	0.146245	-0.737592	0.196700
H296	H	0.479578	-0.404259	0.530034
H297	H	0.812911	-0.070926	0.863367
F298	F	0.079400	-0.621456	-0.137123
F299	F	0.412733	-0.288123	0.196210
F300	F	0.746067	0.045211	0.529543
F301	F	0.072242	-0.027150	-0.137166
F302	F	0.405576	0.306184	0.196167
F303	F	0.738909	0.639517	0.529500
H304	H	0.077702	-0.480241	-0.120537
H305	H	0.411036	-0.146908	0.212796
H306	H	0.744369	0.186426	0.546130
F307	F	-0.075294	-0.697765	-0.000099
F308	F	0.258040	-0.364431	0.333234
F309	F	0.591373	-0.031098	0.666567
F310	F	-0.773081	-0.950749	-0.000181
F311	F	-0.439748	-0.617416	0.333153
F312	F	-0.106415	-0.284083	0.666486
H313	H	0.077701	-0.480149	0.120305
H314	H	0.411034	-0.146816	0.453638
H315	H	0.744367	0.186518	0.786972
F316	F	-0.004332	-0.922841	0.654399
F317	F	0.329002	-0.589507	0.987733
F318	F	0.662335	-0.256174	1.321066
F319	F	-0.103975	-0.960572	-0.000127
F320	F	0.229358	-0.627239	0.333206
F321	F	0.562692	-0.293905	0.666539
F322	F	-0.226580	-0.958780	-0.000150
F323	F	0.106754	-0.625447	0.333183
F324	F	0.440087	-0.292113	0.666516
F325	F	0.074045	-0.177365	0.136883
F326	F	0.407379	0.155969	0.470216
F327	F	0.740712	0.489302	0.803549
H328	H	-0.656149	-0.936532	-0.000169
H329	H	-0.322816	-0.603199	0.333165
H330	H	0.010517	-0.269865	0.666498
