data_functionalizedCrystal
_audit_creation_method	'MofGen! by Chris Wilmer'
_symmetry_space_group_name_H-M	'P1'
_symmetry_Int_Tables_number	1
_symmetry_cell_setting	triclinic
loop_
_symmetry_equiv_pos_as_xyz
  x,y,z
_cell_length_a	17.640112
_cell_length_b	19.121063
_cell_length_c	17.640968
_cell_angle_alpha	98.351500
_cell_angle_beta	87.860920
_cell_angle_gamma	103.148881
loop_
_atom_site_label
_atom_site_type_symbol
_atom_site_fract_x
_atom_site_fract_y
_atom_site_fract_z
Zn1	Zn	1.247036	-0.020114	0.196194
Zn2	Zn	1.747036	0.479886	0.696194
Zn3	Zn	1.215936	-0.164540	0.077209
Zn4	Zn	1.715936	0.335460	0.577209
Zn5	Zn	1.092687	-0.065650	0.097361
Zn6	Zn	1.592687	0.434350	0.597361
Zn7	Zn	1.115017	-0.155325	0.229281
Zn8	Zn	1.615017	0.344675	0.729281
O9	O	1.167669	-0.101407	0.150011
O10	O	1.667669	0.398593	0.650011
O11	O	1.349741	-0.024071	0.158129
O12	O	1.849741	0.475929	0.658129
O13	O	1.177226	-0.174335	-0.025122
O14	O	1.677226	0.325665	0.474878
O15	O	1.116833	0.038363	0.105059
O16	O	1.616833	0.538363	0.605059
O17	O	1.326892	-0.130180	0.070712
O18	O	1.826892	0.369820	0.570712
O19	O	1.230232	0.071818	0.177670
O20	O	1.730232	0.571818	0.677670
O21	O	1.086676	-0.101681	-0.010316
O22	O	1.586676	0.398319	0.489684
O23	O	0.988819	-0.092746	0.137142
O24	O	1.488819	0.407254	0.637142
O25	O	1.154890	-0.114475	0.329896
O26	O	1.654890	0.385525	0.829896
O27	O	1.005224	-0.158630	0.234062
O28	O	1.505224	0.341370	0.734062
O29	O	1.251884	-0.015136	0.305587
O30	O	1.751884	0.484864	0.805587
O31	O	1.198878	-0.261289	0.102795
O32	O	1.698878	0.238711	0.602795
O33	O	1.124733	-0.254519	0.214521
O34	O	1.624733	0.245481	0.714521
C35	C	0.969322	-0.129630	0.191380
C36	C	1.469322	0.370370	0.691380
C37	C	0.884471	-0.141717	0.209096
C38	C	1.384471	0.358283	0.709096
C39	C	0.562686	-0.009571	0.015428
C40	C	1.062686	0.490429	0.515428
C41	C	0.482957	-0.020940	0.032086
C42	C	0.982957	0.479060	0.532086
C43	C	0.500055	-0.089704	0.132851
C44	C	1.000055	0.410296	0.632851
C45	C	0.579787	-0.078338	0.116204
C46	C	1.079787	0.421662	0.616204
C47	C	0.611096	-0.038271	0.057491
C48	C	1.111096	0.461729	0.557491
C49	C	0.628197	-0.107038	0.158266
C50	C	1.128197	0.392962	0.658266
C51	C	0.707921	-0.095675	0.141618
C52	C	1.207921	0.404325	0.641618
C53	C	0.739236	-0.055612	0.082906
C54	C	1.239236	0.444388	0.582906
C55	C	0.690820	-0.026908	0.040842
C56	C	1.190820	0.473092	0.540842
C57	C	0.596886	-0.147109	0.216975
C58	C	1.096886	0.352891	0.716975
C59	C	0.645295	-0.175809	0.259038
C60	C	1.145295	0.324191	0.759038
C61	C	0.725022	-0.164442	0.242393
C62	C	1.225022	0.335558	0.742393
C63	C	0.756337	-0.124379	0.183682
C64	C	1.256337	0.375621	0.683682
C65	C	0.773438	-0.193146	0.284457
C66	C	1.273438	0.306854	0.784457
C67	C	0.853163	-0.181784	0.267809
C68	C	1.353163	0.318216	0.767809
C69	C	0.836061	-0.113017	0.167033
C70	C	1.336061	0.386983	0.667033
C71	C	1.160878	-0.283301	0.160074
C72	C	1.660878	0.216699	0.660074
C73	C	1.158048	-0.361101	0.164389
C74	C	1.658048	0.138899	0.664389
C75	C	1.195368	-0.401138	0.108278
C76	C	1.695368	0.098862	0.608278
C77	C	1.192712	-0.474238	0.112340
C78	C	1.692712	0.025762	0.612340
C79	C	1.152731	-0.507299	0.172510
C80	C	1.652731	-0.007299	0.672510
C81	C	1.115410	-0.467255	0.228626
C82	C	1.615410	0.032745	0.728626
C83	C	1.118071	-0.394156	0.224567
C84	C	1.618071	0.105844	0.724567
C85	C	1.142766	-0.727835	0.187679
C86	C	1.642766	-0.227835	0.687679
C87	C	1.140106	-0.800941	0.191733
C88	C	1.640106	-0.300941	0.691733
C89	C	1.217410	-0.807918	0.075447
C90	C	1.717410	-0.307918	0.575447
C91	C	1.220063	-0.734818	0.071390
C92	C	1.720063	-0.234818	0.571390
C93	C	1.182746	-0.694779	0.127508
C94	C	1.682746	-0.194779	0.627508
C95	C	1.150013	-0.582019	0.176662
C96	C	1.650013	-0.082019	0.676662
C97	C	1.185469	-0.620060	0.123359
C98	C	1.685469	-0.120060	0.623359
C99	C	1.366791	-0.073074	0.108482
C100	C	1.866791	0.426926	0.608482
C101	C	1.451644	-0.061001	0.090784
C102	C	1.951644	0.438999	0.590784
C103	C	1.209347	-0.058698	0.345729
C104	C	1.709347	0.441302	0.845729
C105	C	1.227107	-0.040499	0.429132
C106	C	1.727107	0.459501	0.929132
C107	C	1.174511	0.081204	0.139922
C108	C	1.674511	0.581204	0.639922
C109	C	1.177426	0.159022	0.135622
C110	C	1.677426	0.659022	0.635622
C111	C	1.126199	-0.143893	-0.044957
C112	C	1.626199	0.356107	0.455043
C113	C	1.108594	-0.161874	-0.128402
C114	C	1.608594	0.338126	0.371598
C115	C	1.033051	-0.239247	0.766711
C116	C	1.533051	0.260753	1.266711
C117	C	1.049756	-0.222134	0.845077
C118	C	1.549756	0.277866	1.345077
C119	C	1.150747	-0.118701	0.819756
C120	C	1.650747	0.381299	1.319756
C121	C	1.134048	-0.135803	0.741387
C122	C	1.634048	0.364197	1.241387
C123	C	1.075199	-0.196077	0.714871
C124	C	1.575199	0.303923	1.214871
C125	C	1.176197	-0.092633	0.689546
C126	C	1.676197	0.407367	1.189546
C127	C	1.159501	-0.109736	0.611183
C128	C	1.659501	0.390264	1.111183
C129	C	1.100657	-0.170009	0.584660
C130	C	1.600657	0.329991	1.084660
C131	C	1.058504	-0.213180	0.636508
C132	C	1.558504	0.286820	1.136508
C133	C	1.235048	-0.032362	0.716063
C134	C	1.735048	0.467638	1.216063
C135	C	1.277197	0.010807	0.664223
C136	C	1.777197	0.510807	1.164223
C137	C	1.260498	-0.006292	0.585859
C138	C	1.760498	0.493708	1.085859
C139	C	1.201654	-0.066565	0.559336
C140	C	1.701654	0.433435	1.059336
C141	C	1.302651	0.036879	0.534012
C142	C	1.802651	0.536879	1.034012
C143	C	1.285956	0.019776	0.455648
C144	C	1.785956	0.519776	0.955648
C145	C	1.184959	-0.083668	0.480973
C146	C	1.684959	0.416332	0.980973
H147	H	0.531968	-0.156359	0.230528
H148	H	1.031968	0.343641	0.730528
C149	C	0.725265	0.017171	-0.023742
C150	C	1.225265	0.517171	0.476258
N151	N	0.751208	0.050368	-0.072387
N152	N	1.251208	0.550368	0.427613
C153	C	1.264022	-0.698463	0.005182
C154	C	1.764022	-0.198463	0.505182
N155	N	1.297122	-0.671084	-0.044693
N156	N	1.797122	-0.171084	0.455307
C157	C	1.120221	-0.149973	0.451802
C158	C	1.620221	0.350027	0.951802
N159	N	1.071465	-0.199913	0.429829
N160	N	1.571465	0.300087	0.929829
C161	C	0.906417	-0.213352	0.314083
C162	C	1.406417	0.286648	0.814083
N163	N	0.946529	-0.237130	0.348938
N164	N	1.446529	0.262870	0.848938
H165	H	1.087682	-0.361557	0.270259
H166	H	1.587682	0.138443	0.770259
H167	H	0.474551	-0.122329	0.180653
H168	H	0.974551	0.377671	0.680653
H169	H	0.747933	-0.225774	0.332256
H170	H	1.247933	0.274226	0.832256
C171	C	1.229445	-0.583691	0.057172
C172	C	1.729445	-0.083691	0.557172
N173	N	1.262565	-0.556292	0.007317
N174	N	1.762565	-0.056292	0.507317
H175	H	0.588182	0.023068	-0.032371
H176	H	1.088182	0.523068	0.467629
C177	C	1.258459	-0.851965	0.013722
C178	C	1.758459	-0.351965	0.513722
N179	N	1.289381	-0.885141	-0.032770
N180	N	1.789381	-0.385141	0.467230
H181	H	1.223101	-0.506834	0.066648
H182	H	1.723101	-0.006834	0.566648
H183	H	1.107560	-0.827852	0.240742
H184	H	1.607560	-0.327852	0.740742
C185	C	1.003382	-0.269628	0.902102
C186	C	1.503382	0.230372	1.402102
N187	N	0.968454	-0.305400	0.945052
N188	N	1.468454	0.194600	1.445052
C189	C	1.106024	-0.618396	0.242842
C190	C	1.606024	-0.118396	0.742842
N191	N	1.072890	-0.645799	0.292687
N192	N	1.572890	-0.145799	0.792687
C193	C	0.993767	-0.279485	0.607336
C194	C	1.493767	0.220515	1.107336
N195	N	0.945011	-0.329425	0.585363
N196	N	1.445011	0.170575	1.085363
H197	H	0.985113	-0.288314	0.745124
H198	H	1.485113	0.211686	1.245124
C199	C	0.870506	-0.068938	0.102448
C200	C	1.370506	0.431062	0.602448
N201	N	0.896449	-0.035741	0.053804
N202	N	1.396449	0.464259	0.553804
H203	H	0.443545	0.002440	-0.002166
H204	H	0.943545	0.502440	0.497834
C205	C	1.071427	-0.503626	0.294813
C206	C	1.571427	-0.003626	0.794813
N207	N	1.038294	-0.531021	0.344663
N208	N	1.538294	-0.031021	0.844663
H209	H	1.320276	0.054930	0.413438
H210	H	1.820276	0.554930	0.913438
H211	H	1.198664	-0.069627	0.841357
H212	H	1.698664	0.430373	1.341357
C213	C	1.367381	0.103179	0.563191
C214	C	1.867381	0.603179	1.063191
N215	N	1.416135	0.153119	0.585169
N216	N	1.916135	0.653119	1.085169
C217	C	1.253411	-0.013549	0.802266
C218	C	1.753411	0.486451	1.302266
N219	N	1.267240	0.000621	0.867195
N220	N	1.767240	0.500621	1.367195
C221	C	1.341922	0.077112	0.693401
C222	C	1.841922	0.577112	1.193401
N223	N	1.390670	0.127058	0.715378
N224	N	1.890670	0.627058	1.215378
H225	H	0.804153	-0.046363	0.069350
H226	H	1.304153	0.453637	0.569350
H227	H	1.087068	-0.183935	0.520851
H228	H	1.587068	0.316065	1.020851
H229	H	1.227921	-0.374226	0.059278
H230	H	1.727921	0.125774	0.559278
C231	C	0.610847	-0.219880	0.323622
C232	C	1.110847	0.280120	0.823622
N233	N	0.584901	-0.253072	0.372269
N234	N	1.084901	0.246928	0.872269
H235	H	1.112379	-0.695242	0.233372
H236	H	1.612379	-0.195242	0.733372
