data_functionalizedCrystal
_audit_creation_method	'MofGen! by Chris Wilmer'
_symmetry_space_group_name_H-M	'P1'
_symmetry_Int_Tables_number	1
_symmetry_cell_setting	triclinic
loop_
_symmetry_equiv_pos_as_xyz
  x,y,z
_cell_length_a	16.120484
_cell_length_b	14.908780
_cell_length_c	14.908404
_cell_angle_alpha	89.842281
_cell_angle_beta	89.376719
_cell_angle_gamma	83.626566
loop_
_atom_site_label
_atom_site_type_symbol
_atom_site_fract_x
_atom_site_fract_y
_atom_site_fract_z
Zn1	Zn	-0.228763	-1.332179	-0.599685
Zn2	Zn	-0.375862	-1.332208	-0.456883
Zn3	Zn	-0.244890	-1.189527	-0.441469
Zn4	Zn	-0.376659	-1.173217	-0.598553
O5	O	-0.306544	-1.256783	-0.524147
O6	O	-0.241194	-1.458423	-0.587666
O7	O	-0.364905	-1.320119	-0.329335
O8	O	-0.126044	-1.215263	-0.456481
O9	O	-0.349267	-1.458444	-0.482750
O10	O	-0.114195	-1.320070	-0.572721
O11	O	-0.268680	-1.215292	-0.318011
O12	O	-0.269452	-1.061124	-0.455383
O13	O	-0.350624	-1.187466	-0.724206
O14	O	-0.366262	-1.049141	-0.570791
O15	O	-0.241966	-1.304255	-0.725038
O16	O	-0.492675	-1.304304	-0.481652
O17	O	-0.493260	-1.187494	-0.585736
C18	C	-0.319694	-1.022400	-0.511292
C19	C	-0.325339	-0.922127	-0.505814
C20	C	-0.223546	-0.733663	-0.604954
C21	C	-0.228847	-0.639448	-0.599810
C22	C	-0.341236	-0.639482	-0.490379
C23	C	-0.335935	-0.733697	-0.495523
C24	C	-0.277089	-0.780784	-0.552813
C25	C	-0.271793	-0.875000	-0.557961
C26	C	-0.384178	-0.875032	-0.448526
C27	C	-0.389479	-0.780817	-0.443382
C28	C	-0.523226	-1.244156	-0.535265
C29	C	-0.615918	-1.238835	-0.540055
C30	C	-0.785625	-1.229124	-0.548820
C31	C	-0.826612	-1.284602	-0.499498
C32	C	-0.921043	-1.279199	-0.504375
C33	C	-0.691186	-1.234526	-0.543944
C34	C	-0.089012	-1.269483	-0.513008
C35	C	0.003686	-1.274895	-0.508261
C36	C	-0.294585	-1.244038	-0.758073
C37	C	-0.289489	-1.238606	-0.857759
C38	C	-0.293336	-0.492082	-0.537047
C39	C	-0.287691	-0.592354	-0.542526
C40	C	-0.318393	-1.269534	-0.291131
C41	C	-0.323244	-1.275153	-0.191444
C42	C	-0.232962	-1.175675	0.007592
C43	C	-0.237517	-1.180952	0.101257
C44	C	-0.336906	-1.290990	0.089554
C45	C	-0.332350	-1.285712	-0.004112
C46	C	-0.280377	-1.228052	-0.045089
C47	C	-0.275827	-1.222770	-0.138756
C48	C	-0.375210	-1.332812	-0.150458
C49	C	-0.379766	-1.338090	-0.056793
H50	H	-0.223878	-0.913337	-0.604611
H51	H	-0.175635	-0.772002	-0.651606
H52	H	-0.437387	-0.742467	-0.396735
H53	H	-0.233508	-1.175820	-0.172118
H54	H	-0.790781	-1.336156	-0.453609
H55	H	-0.821453	-1.177573	-0.594704
H56	H	-0.190647	-1.128721	-0.025773
H57	H	-0.198905	-1.138303	0.144147
H58	H	-0.379214	-1.337940	0.122934
H59	H	-0.185244	-0.601086	-0.642266
H60	H	-0.422078	-1.385037	-0.023416
H61	H	-0.413816	-1.375466	-0.193361
H62	H	-0.389137	-0.601128	-0.443726
H63	H	-0.427783	-0.913407	-0.406076
