data_functionalizedCrystal
_audit_creation_method	'MofGen! by Chris Wilmer'
_symmetry_space_group_name_H-M	'P1'
_symmetry_Int_Tables_number	1
_symmetry_cell_setting	triclinic
loop_
_symmetry_equiv_pos_as_xyz
  x,y,z
_cell_length_a	6.817900
_cell_length_b	15.300912
_cell_length_c	11.168136
_cell_angle_alpha	93.626975
_cell_angle_beta	108.508683
_cell_angle_gamma	104.173621
loop_
_atom_site_label
_atom_site_type_symbol
_atom_site_fract_x
_atom_site_fract_y
_atom_site_fract_z
V1	V	-4.087785	-0.124772	-0.394082
O2	O	-4.070526	0.005982	-0.386186
O3	O	-4.042358	-0.247388	-0.391766
O4	O	-4.064415	-0.122859	-0.565782
O5	O	-4.048317	-0.119410	-0.210966
V6	V	-4.567785	-0.109131	-0.372134
O7	O	-4.356773	-0.159080	-0.442228
O8	O	-4.748995	-0.074823	-0.323989
O9	O	-4.390005	0.013485	-0.374450
O10	O	-4.702441	-0.239885	-0.380030
O11	O	-4.724651	-0.114494	-0.555251
O12	O	-4.367949	-0.111045	-0.200434
C13	C	-3.887272	-0.277279	-0.385647
C14	C	-3.931584	-0.377520	-0.384898
C15	C	-4.305696	-0.813885	-0.387987
C16	C	-4.264040	-0.719697	-0.388683
C17	C	-4.060053	-0.668016	-0.382723
C18	C	-3.897705	-0.710527	-0.376055
C19	C	-3.939357	-0.804712	-0.375350
C20	C	-3.810904	-0.514216	-0.377527
C21	C	-3.769249	-0.420024	-0.378234
C22	C	-4.135587	-0.429200	-0.390859
C23	C	-4.177239	-0.523386	-0.390155
C24	C	-4.014888	-0.565890	-0.383489
C25	C	-3.915406	-0.118428	-0.607620
C26	C	-3.977601	-0.117675	-0.747988
C27	C	-4.179412	-0.121617	-0.816692
C28	C	-4.243698	-0.120839	-0.961770
C29	C	-4.208433	0.043371	-0.380566
C30	C	-4.143361	0.143611	-0.381323
C31	C	-4.180299	-0.115478	-0.158589
C32	C	-4.097342	-0.116226	-0.018220
H33	H	-4.471804	-0.855957	-0.392848
H34	H	-3.807170	-0.839319	-0.369934
N35	N	-3.811784	-0.112476	-0.812340
H36	H	-3.668278	-0.109962	-0.746561
H37	H	-3.797422	-0.055837	-0.854368
N38	N	-4.439158	-0.673862	-0.395907
H39	H	-4.487419	-0.683501	-0.319895
H40	H	-4.565429	-0.701052	-0.477269
N41	N	-4.397255	-0.579132	-0.396596
H42	H	-4.493784	-0.537915	-0.400923
H43	H	-4.383401	-0.609650	-0.317911
H44	H	-4.304593	-0.125561	-0.768106
N45	N	-4.472714	-0.125308	-1.039980
H46	H	-4.535735	-0.181369	-1.107427
H47	H	-4.474139	-0.069015	-1.082468
N48	N	-3.635794	-0.560061	-0.370321
H49	H	-3.684013	-0.607699	-0.448406
H50	H	-3.605889	-0.590113	-0.291028
N51	N	-4.310709	-0.383367	-0.398058
H52	H	-4.262516	-0.335735	-0.319968
H53	H	-4.446184	-0.430463	-0.401782
N54	N	-3.549234	-0.364282	-0.371800
H55	H	-3.437303	-0.369902	-0.290245
H56	H	-3.547695	-0.298194	-0.373318
N57	N	-3.868329	-0.111754	-0.939998
H58	H	-3.767631	-0.053504	-0.947632
H59	H	-3.829235	-0.165859	-0.972545
H60	H	-3.731608	-0.668440	-0.371194
