data_functionalizedCrystal
_audit_creation_method	'MofGen! by Chris Wilmer'
_symmetry_space_group_name_H-M	'P1'
_symmetry_Int_Tables_number	1
_symmetry_cell_setting	triclinic
loop_
_symmetry_equiv_pos_as_xyz
  x,y,z
_cell_length_a	16.109302
_cell_length_b	15.995350
_cell_length_c	15.186229
_cell_angle_alpha	90.001513
_cell_angle_beta	90.005299
_cell_angle_gamma	83.477078
loop_
_atom_site_label
_atom_site_type_symbol
_atom_site_fract_x
_atom_site_fract_y
_atom_site_fract_z
O1	O	1.103159	0.107627	0.073264
O2	O	1.603159	0.607627	0.573264
O3	O	0.861101	0.121020	0.073256
O4	O	1.361101	0.621020	0.573256
O5	O	0.988747	-0.007566	0.073259
O6	O	1.488747	0.492434	0.573259
O7	O	0.975513	0.236213	0.073261
O8	O	1.475513	0.736213	0.573261
O9	O	0.988738	-0.007568	-0.073198
O10	O	1.488738	0.492432	0.426802
O11	O	0.861092	0.121018	-0.073201
O12	O	1.361092	0.621018	0.426799
O13	O	1.103151	0.107625	-0.073194
O14	O	1.603151	0.607625	0.426806
Zn15	Zn	0.982120	0.114321	-0.096451
Zn16	Zn	1.482120	0.614321	0.403549
Zn17	Zn	0.982131	0.114324	0.096513
Zn18	Zn	1.482131	0.614324	0.596513
O19	O	0.975505	0.236211	-0.073197
O20	O	1.475505	0.736211	0.426803
C21	C	0.830122	0.120476	0.000027
C22	C	1.330122	0.620476	0.500027
C23	C	0.737826	0.118850	0.000024
C24	C	1.237826	0.618850	0.500024
C25	C	0.988196	-0.038761	0.000032
C26	C	1.488196	0.461239	0.500032
C27	C	0.986555	-0.131711	0.000037
C28	C	1.486555	0.368289	0.500037
C29	C	0.525479	0.115087	-0.079801
C30	C	1.025479	0.615087	0.420199
C31	C	0.438759	0.113549	-0.079798
C32	C	0.938759	0.613549	0.420202
C33	C	0.438779	0.113556	0.079878
C34	C	0.938779	0.613556	0.579878
C35	C	0.525498	0.115087	0.079874
C36	C	1.025498	0.615087	0.579874
C37	C	0.568846	0.115857	0.000032
C38	C	1.068846	0.615857	0.500032
C39	C	0.395406	0.112788	0.000039
C40	C	0.895406	0.612788	0.500039
C41	C	0.301380	0.111121	0.000043
C42	C	0.801380	0.611121	0.500043
C43	C	0.662878	0.117523	0.000027
C44	C	1.162878	0.617523	0.500027
C45	C	0.980665	-0.469457	0.000034
C46	C	1.480665	0.030543	0.500034
C47	C	0.889758	-0.421999	0.000360
C48	C	1.389758	0.078001	0.500360
C49	C	0.891398	-0.325309	0.000030
C50	C	1.391398	0.174691	0.500030
C51	C	0.983587	-0.301898	0.000036
C52	C	1.483587	0.198102	0.500036
C53	C	1.028420	-0.342988	-0.083595
C54	C	1.528420	0.157012	0.416405
C55	C	1.026137	-0.439623	-0.083665
C56	C	1.526137	0.060377	0.416335
C57	C	1.028024	-0.439980	0.082884
C58	C	1.528024	0.060020	0.582884
C59	C	1.028003	-0.343035	0.083989
C60	C	1.528003	0.156965	0.583989
C61	C	0.985243	-0.207201	0.000034
C62	C	1.485243	0.292799	0.500034
C63	C	0.979012	-0.564155	0.000030
C64	C	1.479012	-0.064155	0.500030
C65	C	1.134130	0.108169	0.000038
C66	C	1.634130	0.608169	0.500038
C67	C	1.226426	0.109796	0.000046
C68	C	1.726426	0.609796	0.500046
C69	C	0.976056	0.267407	0.000032
C70	C	1.476056	0.767407	0.500032
C71	C	0.977696	0.360357	0.000033
C72	C	1.477696	0.860357	0.500033
N73	N	0.982119	0.114319	-0.228143
N74	N	1.482119	0.614319	0.271857
C75	C	1.038660	0.057401	-0.453865
C76	C	1.538660	0.557401	0.046135
C77	C	1.038662	0.057399	-0.546054
C78	C	1.538662	0.557399	-0.046054
C79	C	0.925593	0.171241	-0.546066
C80	C	1.425593	0.671241	-0.046066
C81	C	0.925587	0.171238	-0.453878
C82	C	1.425587	0.671238	0.046122
C83	C	0.982125	0.114319	-0.407780
C84	C	1.482125	0.614319	0.092220
C85	C	0.982133	0.114320	-0.592157
C86	C	1.482133	0.614320	-0.092157
C87	C	0.982136	0.114318	-0.692114
C88	C	1.482136	0.614318	-0.192114
C89	C	0.982122	0.114319	-0.307817
C90	C	1.482122	0.614319	0.192183
N91	N	0.982140	0.114319	0.228206
N92	N	1.482140	0.614319	0.728206
H93	H	0.560770	0.115714	-0.144814
H94	H	1.060770	0.615714	0.355186
N95	N	0.569815	0.115873	0.161418
N96	N	1.069815	0.615873	0.661418
N97	N	0.647243	0.117234	0.161400
N98	N	1.147243	0.617234	0.661400
H99	H	0.678545	0.117783	0.218987
H100	H	1.178545	0.617783	0.718987
H101	H	1.084695	0.011052	-0.416334
H102	H	1.584695	0.511052	0.083666
H103	H	0.403474	0.112930	0.144882
H104	H	0.903474	0.612930	0.644882
H105	H	0.856156	-0.296877	0.059980
H106	H	1.356156	0.203123	0.559980
H107	H	0.997274	-0.314599	-0.145835
H108	H	1.497274	0.185401	0.354165
N109	N	0.844189	-0.445230	0.075604
N110	N	1.344189	0.054770	0.575604
N111	N	0.878175	-0.497039	0.129867
N112	N	1.378175	0.002961	0.629867
H113	H	0.845993	-0.513450	0.183014
H114	H	1.345993	-0.013450	0.683014
H115	H	0.853581	-0.441584	-0.059282
H116	H	1.353581	0.058416	0.440718
N117	N	0.990749	-0.465714	0.162415
N118	N	1.490749	0.034286	0.662415
N119	N	1.020100	-0.447809	0.235333
N120	N	1.520100	0.052191	0.735333
H121	H	0.993767	-0.465982	0.291499
H122	H	1.493767	0.034018	0.791499
H123	H	0.855912	-0.297435	-0.060025
H124	H	1.355912	0.202565	0.439975
N125	N	0.394475	0.112757	-0.161354
N126	N	0.894475	0.612757	0.338646
N127	N	0.433192	0.113439	-0.232630
N128	N	0.933192	0.613439	0.267370
H129	H	0.401918	0.112878	-0.290233
H130	H	0.901918	0.612878	0.209767
N131	N	0.985114	-0.462565	-0.162098
N132	N	1.485114	0.037435	0.337902
N133	N	0.958365	-0.407233	-0.216403
N134	N	1.458365	0.092767	0.283597
H135	H	0.929390	-0.423431	-0.271798
H136	H	1.429390	0.076569	0.228202
N137	N	1.109865	-0.480094	-0.088432
N138	N	1.609865	0.019906	0.411568
N139	N	1.169798	-0.436942	-0.091702
N140	N	1.669798	0.063058	0.408298
H141	H	1.228930	-0.465520	-0.095075
H142	H	1.728930	0.034480	0.404925
N143	N	0.867849	0.229385	-0.406784
N144	N	1.367849	0.729385	0.093216
N145	N	0.867855	0.229374	-0.324474
N146	N	1.367855	0.729374	0.175526
H147	H	0.827080	0.270437	-0.291212
H148	H	1.327080	0.770437	0.208788
H149	H	1.096149	-0.328881	-0.086701
H150	H	1.596149	0.171119	0.413299
H151	H	0.995224	-0.315776	0.145858
H152	H	1.495224	0.184224	0.645858
H153	H	1.095231	-0.327691	0.089044
H154	H	1.595231	0.172309	0.589044
H155	H	1.095050	-0.471759	0.083451
H156	H	1.595050	0.028241	0.583451
N157	N	1.096413	-0.000752	-0.593115
N158	N	1.596413	0.499248	-0.093115
N159	N	1.146882	-0.051568	-0.551941
N160	N	1.646882	0.448432	-0.051941
H161	H	1.187670	-0.092642	-0.585177
H162	H	1.687670	0.407358	-0.085177
H163	H	0.879562	0.217584	-0.583609
H164	H	1.379562	0.717584	-0.083609
