data_functionalizedCrystal
_audit_creation_method	'MofGen! by Chris Wilmer'
_symmetry_space_group_name_H-M	'P1'
_symmetry_Int_Tables_number	1
_symmetry_cell_setting	triclinic
loop_
_symmetry_equiv_pos_as_xyz
  x,y,z
_cell_length_a	15.712078
_cell_length_b	17.019294
_cell_length_c	14.185569
_cell_angle_alpha	73.120776
_cell_angle_beta	107.170411
_cell_angle_gamma	101.445121
loop_
_atom_site_label
_atom_site_type_symbol
_atom_site_fract_x
_atom_site_fract_y
_atom_site_fract_z
O1	O	1.117539	0.450383	-0.122549
O2	O	0.867205	0.389576	-0.117247
O3	O	1.001713	0.305725	-0.110026
O4	O	0.983032	0.534234	-0.129770
O5	O	1.041447	0.280958	0.058942
O6	O	0.906939	0.364810	0.051720
O7	O	1.157274	0.425616	0.046419
Cu8	Cu	1.035735	0.392952	0.064497
Cu9	Cu	0.988744	0.422241	-0.135326
O10	O	1.022766	0.509467	0.039197
C11	C	0.855084	0.367260	-0.031899
C12	C	0.759771	0.337652	-0.029323
C13	C	0.387244	0.589018	-0.051111
C14	C	0.297676	0.561184	-0.048731
C15	C	0.321296	0.421700	-0.036681
C16	C	0.410867	0.449523	-0.039065
C17	C	0.443833	0.533182	-0.046279
C18	C	0.467456	0.393687	-0.034233
C19	C	0.557020	0.421507	-0.036612
C20	C	0.589995	0.505163	-0.043822
C21	C	0.533397	0.561002	-0.048658
C22	C	0.434490	0.310027	-0.027012
C23	C	0.491079	0.254192	-0.022180
C24	C	0.580643	0.282012	-0.024566
C25	C	0.613618	0.365668	-0.031776
C26	C	0.637241	0.226173	-0.019730
C27	C	0.726805	0.253993	-0.022109
C28	C	0.703182	0.393487	-0.034155
C29	C	1.021655	0.263420	-0.022958
C30	C	1.021869	0.174261	-0.015260
C31	C	1.000313	0.145879	-0.103746
C32	C	1.000509	0.062103	-0.096509
C33	C	1.022269	0.006711	-0.000785
C34	C	1.043825	0.035098	0.087709
C35	C	1.043622	0.118871	0.080471
C36	C	1.023960	-0.246907	0.025677
C37	C	1.024164	-0.330685	0.032909
C38	C	0.980847	-0.303674	-0.151310
C39	C	0.980651	-0.219900	-0.158540
C40	C	1.002202	-0.191521	-0.070046
C41	C	1.022473	-0.078921	0.006615
C42	C	1.001991	-0.105891	-0.077447
C43	C	1.169394	0.447933	-0.038932
C44	C	1.264705	0.477542	-0.041515
C45	C	1.002823	0.551772	-0.047872
C46	C	1.002607	0.640933	-0.055578
N47	N	1.068792	0.372352	0.205043
N48	N	0.955694	0.442836	-0.275871
C49	C	0.858573	0.503321	0.561413
C50	C	0.883619	0.487725	0.667778
C51	C	1.002748	0.413522	0.674130
C52	C	0.977709	0.429109	0.567763
C53	C	0.905622	0.474010	0.511414
C54	C	1.024758	0.399797	0.517764
C55	C	0.999724	0.415386	0.411407
C56	C	0.927641	0.460288	0.355049
C57	C	0.880587	0.489599	0.405056
C58	C	1.096849	0.354901	0.574115
C59	C	1.143898	0.325589	0.524115
C60	C	1.118860	0.341173	0.417757
C61	C	1.046777	0.386075	0.361399
C62	C	1.165914	0.311862	0.367749
C63	C	1.140879	0.327451	0.261392
C64	C	1.021743	0.401664	0.255042
H65	H	0.361563	0.287377	-0.025063
O66	O	0.601684	0.135941	-0.011935
H67	H	0.545271	0.130024	-0.079429
O68	O	1.123849	0.338089	0.688830
H69	H	1.194323	0.365665	0.714104
H70	H	1.179193	0.303583	0.220682
O71	O	0.977221	0.031500	-0.191960
H72	H	1.025441	0.064126	-0.238416
O73	O	1.067308	-0.024646	0.190953
H74	H	1.009790	-0.073552	0.199542
O75	O	0.832871	0.519340	0.721714
H76	H	0.761340	0.492428	0.703924
O77	O	0.686598	0.535169	-0.046382
H78	H	0.700015	0.602720	-0.052200
H79	H	0.984269	-0.060789	-0.155385
O80	O	1.221646	0.277158	0.584893
H81	H	1.231147	0.271237	0.667251
H82	H	1.041879	-0.375786	0.110863
H83	H	0.963300	-0.326790	-0.223356
H84	H	0.251603	0.606658	-0.052662
O85	O	0.738743	0.483723	-0.041941
H86	H	0.810528	0.493684	-0.042788
H87	H	1.040193	-0.124030	0.084555
H88	H	0.464228	0.186074	-0.016295
H89	H	0.962933	-0.174804	-0.236489
H90	H	1.041525	-0.223810	0.097735
H91	H	0.772881	0.208526	-0.018177
H92	H	0.963036	0.438220	0.209160
H93	H	1.061163	0.141975	0.152526
H94	H	0.907261	0.472983	0.268446
H95	H	0.821880	0.526155	0.359175
H96	H	0.982599	0.190975	-0.181696
O97	O	0.780819	0.551750	0.500621
H98	H	0.752306	0.569518	0.553255
H99	H	1.224614	0.275310	0.413643
O100	O	0.568967	0.651236	-0.056439
H101	H	0.514572	0.685392	-0.059397
O102	O	0.422813	0.679251	-0.058893
H103	H	0.368418	0.713408	-0.061850
H104	H	0.294445	0.353583	-0.030796
H105	H	1.061445	0.376965	0.720021
