data_functionalizedCrystal
_audit_creation_method	'MofGen! by Chris Wilmer'
_symmetry_space_group_name_H-M	'P1'
_symmetry_Int_Tables_number	1
_symmetry_cell_setting	triclinic
loop_
_symmetry_equiv_pos_as_xyz
  x,y,z
_cell_length_a	11.792241
_cell_length_b	17.038278
_cell_length_c	10.868271
_cell_angle_alpha	89.987716
_cell_angle_beta	89.999461
_cell_angle_gamma	92.348041
loop_
_atom_site_label
_atom_site_type_symbol
_atom_site_fract_x
_atom_site_fract_y
_atom_site_fract_z
O1	O	-1.516301	0.107207	-0.102205
O2	O	-1.186928	0.118256	-0.102240
O3	O	-1.349659	-0.001093	-0.102192
O4	O	-1.353571	0.226555	-0.102254
O5	O	-1.349644	-0.001097	0.102453
O6	O	-1.186913	0.118251	0.102405
O7	O	-1.516286	0.107202	0.102439
Zn8	Zn	-1.351598	0.112726	0.134914
Zn9	Zn	-1.351617	0.112732	-0.134714
O10	O	-1.353556	0.226551	0.102391
C11	C	-1.144569	0.117559	0.000078
C12	C	-1.018373	0.115482	0.000066
C13	C	-0.787326	0.111662	0.000100
C14	C	-0.915898	0.113785	0.000082
C15	C	-1.346091	-0.030239	0.000136
C16	C	-1.335468	-0.117079	0.000151
C17	C	-1.270207	-0.607779	0.000031
C18	C	-1.280197	-0.526184	0.000045
C19	C	-1.387727	-0.494276	0.000073
C20	C	-1.485274	-0.543966	0.000075
C21	C	-1.475283	-0.625559	0.000053
C22	C	-1.423023	-0.248362	0.000132
C23	C	-1.433007	-0.166763	0.000157
C24	C	-1.227929	-0.148987	0.000124
C25	C	-1.217948	-0.230582	0.000110
C26	C	-1.315494	-0.280266	0.000106
C27	C	-1.397941	-0.410873	0.000090
C28	C	-1.305279	-0.363666	0.000080
C29	C	-0.558646	0.107899	0.000115
C30	C	-0.684841	0.109976	0.000110
C31	C	-1.357124	0.255697	0.000061
C32	C	-1.367747	0.342537	0.000038
N33	N	-1.351592	0.112721	0.318928
N34	N	-1.351630	0.112731	-0.318728
C35	C	-1.351611	0.112730	0.569934
C36	C	-1.351597	0.112728	0.430256
H37	H	-1.200770	-0.485734	0.000036
H38	H	-1.572828	-0.517980	0.000100
N39	N	-1.160376	-0.640384	0.000016
N40	N	-1.131912	-0.683950	0.086264
H41	H	-1.054341	-0.706977	0.086252
H42	H	-1.130385	-0.256556	0.000073
H43	H	-1.148513	-0.108526	0.000126
H44	H	-1.554710	-0.666012	0.000053
H45	H	-1.217729	-0.389650	0.000050
H46	H	-1.485493	-0.384884	0.000154
N47	N	-1.542856	-0.134172	0.000152
N48	N	-1.571313	-0.090605	-0.086098
H49	H	-1.648890	-0.067588	-0.086103
H50	H	-1.502454	-0.288805	0.000136
