data_functionalizedCrystal
_audit_creation_method	'MofGen! by Chris Wilmer'
_symmetry_space_group_name_H-M	'P1'
_symmetry_Int_Tables_number	1
_symmetry_cell_setting	triclinic
loop_
_symmetry_equiv_pos_as_xyz
  x,y,z
_cell_length_a	16.109301
_cell_length_b	13.930277
_cell_length_c	16.109301
_cell_angle_alpha	90.005979
_cell_angle_beta	83.461481
_cell_angle_gamma	90.004498
loop_
_atom_site_label
_atom_site_type_symbol
_atom_site_fract_x
_atom_site_fract_y
_atom_site_fract_z
O1	O	1.103135	0.079773	0.106867
O2	O	0.861073	0.079789	0.120166
O3	O	0.988754	0.079771	-0.007515
O4	O	0.975455	0.079791	0.234547
O5	O	0.988736	-0.079891	-0.007518
O6	O	0.861056	-0.079873	0.120163
O7	O	1.103117	-0.079889	0.106864
Zn8	Zn	0.982084	-0.105231	0.113513
Zn9	Zn	0.982107	0.105131	0.113517
O10	O	0.975437	-0.079871	0.234544
C11	C	0.830090	-0.000040	0.119626
C12	C	0.737794	-0.000035	0.118011
N13	N	0.982074	-0.248797	0.113510
C14	C	0.515522	-0.000040	0.190018
C15	C	0.428801	-0.000046	0.188494
C16	C	0.448676	-0.000055	0.037006
C17	C	0.535394	-0.000055	0.038530
C18	C	0.568815	-0.000043	0.115039
C19	C	0.395376	-0.000049	0.111990
C20	C	0.301350	-0.000055	0.110337
C21	C	0.662847	-0.000038	0.116693
C22	C	0.925568	-0.701058	0.170031
C23	C	1.038669	-0.701043	0.056995
C24	C	1.038659	-0.600548	0.056993
C25	C	0.982104	-0.550302	0.113511
C26	C	0.925558	-0.600553	0.170032
C27	C	1.095210	-0.550290	0.000478
C28	C	1.095203	-0.449788	0.000474
C29	C	1.038642	-0.399541	0.056989
C30	C	0.982094	-0.449797	0.113512
C31	C	0.925538	-0.399552	0.170030
C32	C	0.868985	-0.449807	0.226550
C33	C	0.868998	-0.550306	0.226547
C34	C	1.038629	-0.299042	0.056992
C35	C	0.925528	-0.299047	0.170031
C36	C	1.134101	-0.000057	0.107404
C37	C	1.226397	-0.000057	0.109019
C38	C	0.988206	-0.000061	-0.038491
C39	C	0.986591	-0.000062	-0.130786
N40	N	0.982123	0.248697	0.113513
C41	C	1.058599	-0.000051	-0.353059
C42	C	1.057075	-0.000043	-0.439779
C43	C	0.905586	-0.000037	-0.419905
C44	C	0.907111	-0.000038	-0.333186
C45	C	0.983620	-0.000050	-0.299766
C46	C	0.980571	-0.000041	-0.473205
C47	C	0.978918	-0.000032	-0.567231
C48	C	0.985273	-0.000057	-0.205734
C49	C	0.975984	-0.000037	0.265521
C50	C	0.977600	-0.000030	0.357816
H51	H	0.542730	-0.000037	0.252317
H52	H	0.385413	-0.000045	0.249550
H53	H	0.879470	-0.258144	0.216053
H54	H	0.846050	-0.000035	-0.289792
C55	C	1.141687	0.000147	-0.316818
C56	C	1.187004	0.082305	-0.343883
C57	C	1.263545	0.082531	-0.310509
H58	H	1.172659	-0.055463	-0.335095
H59	H	1.131893	0.000198	-0.257535
H60	H	1.196800	0.082245	-0.403153
H61	H	1.156058	0.137928	-0.325607
H62	H	1.253752	0.082582	-0.251226
H63	H	1.294509	0.026918	-0.328789
H64	H	1.294299	0.138278	-0.328861
C65	C	0.412227	-0.000010	-0.045973
C66	C	0.324875	0.000019	-0.031263
C67	C	0.291273	0.000076	-0.107685
H68	H	0.430425	-0.055674	-0.076912
H69	H	0.430480	0.055689	-0.076849
H70	H	0.306630	-0.055674	-0.000401
H71	H	0.306655	0.055679	-0.000337
H72	H	0.309526	0.055775	-0.138560
H73	H	0.309477	-0.055589	-0.138618
H74	H	0.232002	0.000105	-0.097714
H75	H	0.822940	-0.408886	0.272571
C76	C	0.593125	-0.000009	-0.042971
C77	C	0.545298	0.000014	-0.110300
C78	C	0.598450	0.000066	-0.185387
H79	H	0.627381	-0.055672	-0.045644
H80	H	0.627359	0.055690	-0.045566
H81	H	0.511078	-0.055679	-0.107707
H82	H	0.511043	0.055673	-0.107655
H83	H	0.632684	0.055765	-0.187982
H84	H	0.632703	-0.055599	-0.188051
H85	H	0.566007	0.000090	-0.231079
H86	H	0.822955	-0.591230	0.272564
C87	C	1.138457	0.000152	-0.497680
C88	C	1.142027	0.082311	-0.548019
C89	C	1.216992	0.082533	-0.601358
H90	H	1.141087	-0.055457	-0.532009
H91	H	1.184260	0.000198	-0.465381
H92	H	1.096235	0.082257	-0.580315
H93	H	1.139410	0.137934	-0.513712
H94	H	1.262795	0.082579	-0.569059
H95	H	1.219616	0.026920	-0.635681
H96	H	1.219427	0.138281	-0.635514
H97	H	0.879521	-0.741978	0.216047
C98	C	1.100154	-0.755418	-0.004411
C99	C	1.149679	-0.689898	-0.053900
C100	C	1.206333	-0.739956	-0.110477
H101	H	1.070349	-0.794634	-0.039103
H102	H	1.134807	-0.794594	0.025478
H103	H	1.115031	-0.650738	-0.083788
H104	H	1.179502	-0.650680	-0.019232
H105	H	1.240986	-0.779133	-0.080588
H106	H	1.176521	-0.779171	-0.145163
H107	H	1.239948	-0.695509	-0.144058
C108	C	1.156632	-0.395403	-0.060986
C109	C	1.206148	-0.460918	-0.110494
C110	C	1.262736	-0.410853	-0.167130
H111	H	1.191305	-0.356179	-0.031168
H112	H	1.126750	-0.356235	-0.095652
H113	H	1.236027	-0.500070	-0.075833
H114	H	1.171498	-0.500145	-0.140331
H115	H	1.232854	-0.371685	-0.201796
H116	H	1.297403	-0.371630	-0.137304
H117	H	1.296334	-0.455297	-0.200733
C118	C	1.099901	-0.244343	-0.004384
C119	C	1.055646	-0.186631	-0.055286
C120	C	1.112069	-0.136214	-0.111823
H121	H	1.133623	-0.288539	-0.038123
H122	H	1.134467	-0.205078	0.025538
H123	H	1.021095	-0.225892	-0.085207
H124	H	1.021928	-0.142417	-0.021570
H125	H	1.146635	-0.096950	-0.081900
H126	H	1.145788	-0.180417	-0.145556
H127	H	1.082051	-0.097044	-0.146361
C128	C	0.822607	-0.000084	-0.456354
C129	C	0.837318	-0.000112	-0.543705
C130	C	0.760896	-0.000171	-0.577308
H131	H	0.791674	0.055579	-0.438147
H132	H	0.791725	-0.055784	-0.438109
H133	H	0.868186	0.055583	-0.561942
H134	H	0.868238	-0.055770	-0.561934
H135	H	0.730014	-0.055871	-0.559063
H136	H	0.729969	0.055492	-0.559095
H137	H	0.770866	-0.000199	-0.636578
H138	H	1.141260	-0.591202	-0.045533
