data_functionalizedCrystal
_audit_creation_method	'MofGen! by Chris Wilmer'
_symmetry_space_group_name_H-M	'P1'
_symmetry_Int_Tables_number	1
_symmetry_cell_setting	triclinic
loop_
_symmetry_equiv_pos_as_xyz
  x,y,z
_cell_length_a	18.050590
_cell_length_b	18.050589
_cell_length_c	11.169409
_cell_angle_alpha	90.032850
_cell_angle_beta	90.007496
_cell_angle_gamma	90.017386
loop_
_atom_site_label
_atom_site_type_symbol
_atom_site_fract_x
_atom_site_fract_y
_atom_site_fract_z
Zn1	Zn	1.135353	-0.295814	0.678143
Zn2	Zn	1.135246	-0.420029	0.477459
Zn3	Zn	1.011154	-0.295834	0.477521
Zn4	Zn	1.011120	-0.419943	0.678147
O5	O	1.073218	-0.357905	0.577817
O6	O	1.239263	-0.312319	0.651495
O7	O	1.118754	-0.403599	0.309517
O8	O	1.027689	-0.191907	0.504159
O9	O	1.239185	-0.403579	0.504052
O10	O	1.118937	-0.191892	0.651555
O11	O	1.027585	-0.312353	0.309563
O12	O	0.907225	-0.312270	0.504162
O13	O	1.027631	-0.403433	0.846096
O14	O	0.907200	-0.403452	0.651561
O15	O	1.118904	-0.312236	0.846094
O16	O	1.118721	-0.523942	0.504055
O17	O	1.027527	-0.523879	0.651500
C18	C	0.880266	-0.357854	0.577869
C19	C	0.797720	-0.357851	0.577920
C20	C	0.598278	-0.407578	0.657885
C21	C	0.548887	-0.339858	0.687410
C22	C	0.646590	-0.357892	0.577861
C23	C	0.548899	-0.425651	0.548334
C24	C	0.500605	-0.357938	0.577807
C25	C	0.598287	-0.290136	0.607444
C26	C	0.598303	-0.375975	0.468317
C27	C	0.548935	-0.308208	0.497801
C28	C	0.730688	-0.357867	0.577895
C29	C	0.416508	-0.357956	0.577772
C30	C	1.073129	-0.550857	0.577798
C31	C	1.073158	-0.633403	0.577829
C32	C	1.023615	-0.832846	0.657981
C33	C	1.005508	-0.882294	0.548473
C34	C	1.073231	-0.784533	0.577845
C35	C	1.091375	-0.882167	0.687366
C36	C	1.073300	-0.930519	0.577869
C37	C	1.055088	-0.832894	0.468278
C38	C	1.140987	-0.832763	0.607245
C39	C	1.122905	-0.882188	0.497661
C40	C	1.073190	-0.700435	0.577832
C41	C	1.073342	-1.014615	0.577870
C42	C	1.266924	-0.357957	0.577766
C43	C	1.349470	-0.357979	0.577744
C44	C	1.073275	-0.357823	0.890860
C45	C	1.073300	-0.357788	1.024260
C46	C	1.073329	-0.164200	0.577864
C47	C	1.073376	-0.081654	0.577883
C48	C	1.073204	-0.357934	0.265993
C49	C	1.073324	-0.357760	0.132593
H50	H	0.527181	-0.324579	0.780027
H51	H	0.527406	-0.266162	0.430105
H52	H	0.948241	-0.904068	0.523628
O53	O	0.967956	-0.804138	0.747614
H54	H	0.982473	-0.824726	0.838247
H55	H	1.039703	-0.811339	0.375641
H56	H	1.164893	-0.903717	0.429824
H57	H	1.106694	-0.903811	0.779977
H58	H	1.198241	-0.810991	0.632143
H59	H	0.619890	-0.232836	0.632499
O60	O	0.520174	-0.501533	0.515283
H61	H	0.458690	-0.500736	0.514736
O62	O	0.626989	-0.463139	0.747613
H63	H	0.607197	-0.447966	0.838455
H64	H	0.620025	-0.391274	0.375727
