data_functionalizedCrystal
_audit_creation_method	'MofGen! by Chris Wilmer'
_symmetry_space_group_name_H-M	'P1'
_symmetry_Int_Tables_number	1
_symmetry_cell_setting	triclinic
loop_
_symmetry_equiv_pos_as_xyz
  x,y,z
_cell_length_a	6.817900
_cell_length_b	19.551136
_cell_length_c	9.170709
_cell_angle_alpha	86.469058
_cell_angle_beta	112.460645
_cell_angle_gamma	101.650842
loop_
_atom_site_label
_atom_site_type_symbol
_atom_site_fract_x
_atom_site_fract_y
_atom_site_fract_z
V1	V	-4.103107	-0.066658	-0.486888
O2	O	-4.098319	0.034044	-0.476829
O3	O	-4.045300	-0.161834	-0.484318
O4	O	-4.092019	-0.052101	-0.698890
O5	O	-4.051277	-0.076449	-0.260772
V6	V	-4.583119	-0.056212	-0.459750
O7	O	-4.372067	-0.089573	-0.546416
O8	O	-4.764357	-0.033298	-0.400222
O9	O	-4.417720	0.038963	-0.462320
O10	O	-4.705304	-0.156914	-0.469809
O11	O	-4.752347	-0.046422	-0.685866
O12	O	-4.371001	-0.070770	-0.247748
C13	C	-3.886805	-0.185458	-0.476833
C14	C	-3.921076	-0.263178	-0.476145
C15	C	-3.872812	-0.298497	-0.332943
C16	C	-3.905077	-0.371525	-0.332249
C17	C	-3.985567	-0.409229	-0.474762
C18	C	-4.033846	-0.373901	-0.617983
C19	C	-4.001601	-0.300876	-0.618675
C20	C	-3.968264	-0.523869	-0.578096
C21	C	-4.000494	-0.596893	-0.577398
C22	C	-4.085034	-0.634464	-0.472636
C23	C	-4.137302	-0.599002	-0.368545
C24	C	-4.105056	-0.525976	-0.369236
C25	C	-4.020540	-0.488413	-0.474029
C26	C	-4.071753	-0.748968	-0.328672
C27	C	-4.104033	-0.821997	-0.327984
C28	C	-4.232784	-0.824372	-0.613722
C29	C	-4.200523	-0.751345	-0.614407
C30	C	-4.119998	-0.713647	-0.471877
C31	C	-3.946399	-0.045482	-0.750539
C32	C	-4.018555	-0.034209	-0.923856
C33	C	-4.239556	0.062584	-0.469801
C34	C	-4.184525	0.140304	-0.470499
C35	C	-4.179962	-0.077391	-0.196091
C36	C	-4.087044	-0.088661	-0.022772
H37	H	-4.040913	-0.272120	-0.735290
H38	H	-4.015128	0.021039	-0.971770
H39	H	-4.090492	-0.143905	-0.974866
H40	H	-3.807258	-0.267808	-0.216884
H41	H	-4.147621	-0.497106	-0.284484
F42	F	-3.853700	-0.409122	-0.179827
H43	H	-4.206121	-0.629591	-0.283228
F44	F	-3.986063	-0.708845	-0.176982
H45	H	-4.099386	-0.404605	-0.734019
H46	H	-4.064740	-0.850752	-0.211368
F47	F	-4.251876	-0.713754	-0.766823
F48	F	-3.944808	-0.634627	-0.688150
F49	F	-4.318465	-0.864495	-0.765398
F50	F	-3.878299	-0.483890	-0.689613
