data_functionalizedCrystal
_audit_creation_method	'MofGen! by Chris Wilmer'
_symmetry_space_group_name_H-M	'P1'
_symmetry_Int_Tables_number	1
_symmetry_cell_setting	triclinic
loop_
_symmetry_equiv_pos_as_xyz
  x,y,z
_cell_length_a	6.817900
_cell_length_b	11.102289
_cell_length_c	11.102182
_cell_angle_alpha	91.949517
_cell_angle_beta	108.603774
_cell_angle_gamma	108.605707
loop_
_atom_site_label
_atom_site_type_symbol
_atom_site_fract_x
_atom_site_fract_y
_atom_site_fract_z
V1	V	-4.111514	-0.175852	-0.396258
O2	O	-4.070547	0.008437	-0.388715
O3	O	-4.088291	-0.348672	-0.393547
O4	O	-4.088287	-0.173153	-0.569079
O5	O	-4.070550	-0.168297	-0.211967
V6	V	-4.588617	-0.153808	-0.374215
O7	O	-4.386853	-0.224207	-0.444610
O8	O	-4.763475	-0.105454	-0.325863
O9	O	-4.388634	0.019012	-0.376925
O10	O	-4.746981	-0.338098	-0.381758
O11	O	-4.746978	-0.161363	-0.558505
O12	O	-4.388637	-0.156507	-0.201393
C13	C	-3.938602	-0.390802	-0.387296
C14	C	-4.001069	-0.532085	-0.386232
C15	C	-3.938596	-0.166908	-0.611203
C16	C	-4.001056	-0.165845	-0.752486
C17	C	-4.214423	-0.604933	-0.392072
C18	C	-4.273111	-0.737685	-0.391083
C19	C	-3.905067	-0.724726	-0.378409
C20	C	-3.846387	-0.591979	-0.379407
C21	C	-4.426909	-0.612415	-0.399384
C22	C	-4.485597	-0.745166	-0.398395
C23	C	-4.090570	-0.281724	-0.837021
C24	C	-4.149273	-0.280709	-0.969769
C25	C	-4.028931	-0.047925	-0.933433
C26	C	-3.970244	-0.048942	-0.800688
C27	C	-4.121382	-0.398627	-0.788819
C28	C	-4.210898	-0.514516	-0.873356
C29	C	-4.269602	-0.513501	-1.006104
C30	C	-4.238789	-0.396597	-1.054315
C31	C	-4.201665	0.061135	-0.383173
C32	C	-4.118437	0.202416	-0.384245
C33	C	-4.201670	-0.162757	-0.159263
C34	C	-4.118447	-0.163813	-0.017979
H35	H	-3.672666	-0.532672	-0.374666
C36	C	-4.576183	-0.587042	-0.522737
C37	C	-4.726161	-0.704235	-0.597194
C38	C	-4.863679	-0.680912	-0.710839
H39	H	-4.654726	-0.537179	-0.502365
H40	H	-4.489178	-0.541602	-0.569706
H41	H	-4.813155	-0.749656	-0.550234
H42	H	-4.647680	-0.754115	-0.617600
H43	H	-4.776675	-0.635472	-0.757808
H44	H	-4.942207	-0.631047	-0.690455
H45	H	-4.965442	-0.760422	-0.761377
H46	H	-4.426981	-0.559185	-0.309775
H47	H	-4.617401	-0.803036	-0.492550
H48	H	-4.003848	0.047252	-0.972698
H49	H	-4.286583	-0.395780	-1.162409
H50	H	-3.779139	-0.773508	-0.372853
H51	H	-4.235995	-0.609694	-0.834093
H52	H	-4.536908	-0.770133	-0.311580
C53	C	-4.057897	-0.400002	-0.644739
C54	C	-4.104088	-0.527180	-0.620615
C55	C	-4.045658	-0.528495	-0.487906
H56	H	-3.904687	-0.353270	-0.603721
H57	H	-4.140181	-0.361374	-0.612100
H58	H	-4.021802	-0.565791	-0.653239
H59	H	-4.257286	-0.573937	-0.661602
H60	H	-4.127942	-0.489867	-0.455268
H61	H	-3.892449	-0.481758	-0.446900
H62	H	-4.077009	-0.614784	-0.471522
H63	H	-4.342506	-0.607863	-1.074932
H64	H	-3.897356	0.045417	-0.731856
