data_functionalizedCrystal
_audit_creation_method	'MofGen! by Chris Wilmer'
_symmetry_space_group_name_H-M	'P1'
_symmetry_Int_Tables_number	1
_symmetry_cell_setting	triclinic
loop_
_symmetry_equiv_pos_as_xyz
  x,y,z
_cell_length_a	16.120530
_cell_length_b	12.594516
_cell_length_c	16.120297
_cell_angle_alpha	92.877768
_cell_angle_beta	90.128140
_cell_angle_gamma	87.111852
loop_
_atom_site_label
_atom_site_type_symbol
_atom_site_fract_x
_atom_site_fract_y
_atom_site_fract_z
Zn1	Zn	1.247493	-0.539249	-0.534603
Zn2	Zn	1.497493	-0.289249	-0.284603
Zn3	Zn	1.747493	-0.039249	-0.034603
Zn4	Zn	1.997493	0.210751	0.215397
Zn5	Zn	1.254461	-0.708692	-0.395557
Zn6	Zn	1.504461	-0.458692	-0.145557
Zn7	Zn	1.754461	-0.208692	0.104443
Zn8	Zn	2.004461	0.041308	0.354443
Zn9	Zn	1.115482	-0.521263	-0.388519
Zn10	Zn	1.365482	-0.271263	-0.138519
Zn11	Zn	1.615482	-0.021263	0.111481
Zn12	Zn	1.865482	0.228737	0.361481
Zn13	Zn	1.108417	-0.707712	-0.527526
Zn14	Zn	1.358417	-0.457712	-0.277526
Zn15	Zn	1.608417	-0.207712	-0.027526
Zn16	Zn	1.858417	0.042288	0.222474
O17	O	1.181463	-0.619229	-0.461551
O18	O	1.431463	-0.369229	-0.211551
O19	O	1.681463	-0.119229	0.038449
O20	O	1.931463	0.130771	0.288449
O21	O	1.364785	-0.569664	-0.522065
O22	O	1.614785	-0.319664	-0.272065
O23	O	1.864785	-0.069664	-0.022065
O24	O	2.114785	0.180336	0.227935
O25	O	1.241897	-0.676712	-0.278258
O26	O	1.491897	-0.426712	-0.028258
O27	O	1.741897	-0.176712	0.221742
O28	O	1.991897	0.073288	0.471742
O29	O	1.133034	-0.374707	-0.407914
O30	O	1.383034	-0.124707	-0.157914
O31	O	1.633034	0.125293	0.092086
O32	O	1.883034	0.375293	0.342086
O33	O	1.369904	-0.694153	-0.419909
O34	O	1.619904	-0.444153	-0.169909
O35	O	1.869904	-0.194153	0.080091
O36	O	2.119904	0.055847	0.330091
O37	O	1.230022	-0.387921	-0.515241
O38	O	1.480022	-0.137921	-0.265241
O39	O	1.730022	0.112079	-0.015241
O40	O	1.980022	0.362079	0.234759
O41	O	1.139790	-0.539009	-0.273087
O42	O	1.389790	-0.289009	-0.023087
O43	O	1.639790	-0.039009	0.226913
O44	O	1.889790	0.210991	0.476913
O45	O	0.998178	-0.538058	-0.401052
O46	O	1.248178	-0.288058	-0.151052
O47	O	1.498178	-0.038058	0.098948
O48	O	1.748178	0.211942	0.348948
O49	O	1.120993	-0.692482	-0.644831
O50	O	1.370993	-0.442482	-0.394831
O51	O	1.620993	-0.192482	-0.144831
O52	O	1.870993	0.057518	0.105169
O53	O	0.992987	-0.675042	-0.503180
O54	O	1.242987	-0.425042	-0.253180
O55	O	1.492987	-0.175042	-0.003180
O56	O	1.742987	0.074958	0.246820
O57	O	1.223172	-0.568713	-0.650030
O58	O	1.473172	-0.318713	-0.400030
O59	O	1.723172	-0.068713	-0.150030
O60	O	1.973172	0.181287	0.099970
O61	O	1.235047	-0.857504	-0.413047
O62	O	1.485047	-0.607504	-0.163047
O63	O	1.735047	-0.357504	0.086953
O64	O	1.985047	-0.107504	0.336953
O65	O	1.127749	-0.856784	-0.510004
O66	O	1.377749	-0.606784	-0.260004
O67	O	1.627749	-0.356784	-0.010004
O68	O	1.877749	-0.106784	0.239996
C69	C	0.965410	-0.604493	-0.450585
C70	C	1.215410	-0.354493	-0.200585
C71	C	1.465410	-0.104493	0.049415
C72	C	1.715410	0.145507	0.299415
C73	C	0.872980	-0.598215	-0.445913
C74	C	1.122980	-0.348215	-0.195913
C75	C	1.372980	-0.098215	0.054087
C76	C	1.622980	0.151785	0.304087
C77	C	0.703749	-0.586730	-0.437391
C78	C	0.953749	-0.336730	-0.187391
C79	C	1.203749	-0.086730	0.062609
C80	C	1.453749	0.163270	0.312609
C81	C	0.660015	-0.651810	-0.485772
C82	C	0.910015	-0.401810	-0.235772
C83	C	1.160015	-0.151810	0.014228
C84	C	1.410015	0.098190	0.264228
C85	C	0.565849	-0.645420	-0.481031
C86	C	0.815849	-0.395420	-0.231031
C87	C	1.065849	-0.145420	0.018969
C88	C	1.315849	0.104580	0.268969
C89	C	0.797924	-0.593119	-0.442132
C90	C	1.047924	-0.343119	-0.192132
C91	C	1.297924	-0.093119	0.057868
C92	C	1.547924	0.156881	0.307868
C93	C	1.181409	-0.895766	-0.461540
C94	C	1.431409	-0.645766	-0.211540
C95	C	1.681409	-0.395766	0.038460
C96	C	1.931409	-0.145766	0.288460
C97	C	1.181461	-1.014076	-0.461567
C98	C	1.431461	-0.764076	-0.211567
C99	C	1.681461	-0.514076	0.038433
C100	C	1.931461	-0.264076	0.288433
C101	C	1.123098	-1.082974	-0.514263
C102	C	1.373098	-0.832974	-0.264263
C103	C	1.623098	-0.582974	-0.014263
C104	C	1.873098	-0.332974	0.235737
C105	C	1.106686	-1.147787	-0.437359
C106	C	1.356686	-0.897787	-0.187359
C107	C	1.606686	-0.647787	0.062641
C108	C	1.856686	-0.397787	0.312641
C109	C	1.197948	-1.160068	-0.538488
C110	C	1.447948	-0.910068	-0.288488
C111	C	1.697948	-0.660068	-0.038488
C112	C	1.947948	-0.410068	0.211512
C113	C	1.165010	-1.077326	-0.384621
C114	C	1.415010	-0.827326	-0.134621
C115	C	1.665010	-0.577326	0.115379
C116	C	1.915010	-0.327326	0.365379
C117	C	1.256305	-1.089606	-0.485803
C118	C	1.506305	-0.839606	-0.235803
C119	C	1.756305	-0.589606	0.014197
C120	C	2.006305	-0.339606	0.264197
C121	C	1.239924	-1.154387	-0.408848
C122	C	1.489924	-0.904387	-0.158848
C123	C	1.739924	-0.654387	0.091152
C124	C	1.989924	-0.404387	0.341152
C125	C	1.398360	-0.634024	-0.472561
C126	C	1.648360	-0.384024	-0.222561
C127	C	1.898360	-0.134024	0.027439
C128	C	2.148360	0.115976	0.277439
C129	C	1.490789	-0.640328	-0.477253
C130	C	1.740789	-0.390328	-0.227253
C131	C	1.990789	-0.140328	0.022747
C132	C	2.240789	0.109672	0.272747
C133	C	1.170517	-0.632495	-0.678446
C134	C	1.420517	-0.382495	-0.428446
C135	C	1.670517	-0.132495	-0.178446
C136	C	1.920517	0.117505	0.071554
C137	C	1.165853	-0.638148	-0.770874
C138	C	1.415853	-0.388148	-0.520874
C139	C	1.665853	-0.138148	-0.270874
C140	C	1.915853	0.111852	-0.020874
C141	C	1.181539	-0.341615	-0.461582
C142	C	1.431539	-0.091615	-0.211582
C143	C	1.681539	0.158385	0.038418
C144	C	1.931539	0.408385	0.288418
C145	C	1.181572	-0.223313	-0.461595
C146	C	1.431572	0.026687	-0.211595
C147	C	1.681572	0.276687	0.038405
C148	C	1.931572	0.526687	0.288405
C149	C	1.157306	-0.648443	-0.940100
C150	C	1.407306	-0.398443	-0.690100
C151	C	1.657306	-0.148443	-0.440100
C152	C	1.907306	0.101557	-0.190100
C153	C	1.205784	-0.589708	-0.983863
C154	C	1.455784	-0.339708	-0.733863
C155	C	1.705784	-0.089708	-0.483863
C156	C	1.955784	0.160292	-0.233863
C157	C	1.201029	-0.595436	-1.078026
C158	C	1.451029	-0.345436	-0.828026
C159	C	1.701029	-0.095436	-0.578026
C160	C	1.951029	0.154564	-0.328026
C161	C	1.162061	-0.642716	-0.845928
C162	C	1.412061	-0.392716	-0.595928
C163	C	1.662061	-0.142716	-0.345928
C164	C	1.912061	0.107284	-0.095928
C165	C	1.192414	-0.605942	-0.245502
C166	C	1.442414	-0.355942	0.004498
C167	C	1.692414	-0.105942	0.254498
C168	C	1.942414	0.144058	0.504498
C169	C	1.197240	-0.600000	-0.153083
C170	C	1.447240	-0.350000	0.096917
C171	C	1.697240	-0.100000	0.346917
C172	C	1.947240	0.150000	0.596917
H173	H	0.670473	-0.526218	-0.392412
H174	H	0.920473	-0.276218	-0.142412
H175	H	1.170473	-0.026218	0.107588
H176	H	1.420473	0.223782	0.357588
F177	F	0.703509	-0.730905	-0.544572
F178	F	0.953509	-0.480905	-0.294572
F179	F	1.203509	-0.230905	-0.044572
F180	F	1.453509	0.019095	0.205428
F181	F	1.024019	-1.181464	-0.410573
F182	F	1.274019	-0.931464	-0.160573
F183	F	1.524019	-0.681464	0.089427
F184	F	1.774019	-0.431464	0.339427
F185	F	1.338948	-1.055898	-0.512616
F186	F	1.588948	-0.805898	-0.262616
F187	F	1.838948	-0.555898	-0.012616
F188	F	2.088948	-0.305898	0.237384
F189	F	1.264715	-0.518377	-0.940405
F190	F	1.514715	-0.268377	-0.690405
F191	F	1.764715	-0.018377	-0.440405
F192	F	2.014715	0.231623	-0.190405
F193	F	1.216117	-1.207314	-0.623499
F194	F	1.466117	-0.957314	-0.373499
F195	F	1.716117	-0.707314	-0.123499
F196	F	1.966117	-0.457314	0.126501
H197	H	1.073662	-1.051620	-0.558754
H198	H	1.323662	-0.801620	-0.308754
H199	H	1.573662	-0.551620	-0.058754
H200	H	1.823662	-0.301620	0.191246
F201	F	1.146747	-1.030248	-0.299580
F202	F	1.396747	-0.780248	-0.049580
F203	F	1.646747	-0.530248	0.200420
F204	F	1.896747	-0.280248	0.450420
H205	H	1.112236	-0.703026	-0.973349
H206	H	1.362236	-0.453026	-0.723349
H207	H	1.612236	-0.203026	-0.473349
H208	H	1.862236	0.046974	-0.223349
H209	H	1.289330	-1.185534	-0.364243
H210	H	1.539330	-0.935534	-0.114243
H211	H	1.789330	-0.685534	0.135757
H212	H	2.039330	-0.435534	0.385757
