data_functionalizedCrystal
_audit_creation_method	'MofGen! by Chris Wilmer'
_symmetry_space_group_name_H-M	'P1'
_symmetry_Int_Tables_number	1
_symmetry_cell_setting	triclinic
loop_
_symmetry_equiv_pos_as_xyz
  x,y,z
_cell_length_a	10.723024
_cell_length_b	16.992695
_cell_length_c	15.455313
_cell_angle_alpha	87.142836
_cell_angle_beta	87.296187
_cell_angle_gamma	92.431954
loop_
_atom_site_label
_atom_site_type_symbol
_atom_site_fract_x
_atom_site_fract_y
_atom_site_fract_z
O1	O	1.661523	-0.113435	0.072127
O2	O	1.299277	-0.123968	0.072130
O3	O	1.478948	-0.004551	0.072121
O4	O	1.481851	-0.232852	0.072135
O5	O	1.489212	0.002257	-0.072141
O6	O	1.309541	-0.117160	-0.072133
O7	O	1.671787	-0.106627	-0.072136
Cu8	Cu	1.491601	-0.111272	-0.085307
Cu9	Cu	1.479462	-0.119323	0.085301
O10	O	1.492116	-0.226044	-0.072127
C11	C	1.257843	-0.119797	-0.000001
C12	C	1.119092	-0.117504	-0.000000
N13	N	1.470925	-0.124980	0.205296
C14	C	1.480344	0.028086	-0.000010
C15	C	1.469196	0.115190	-0.000009
C16	C	1.049862	-0.184324	0.000004
C17	C	0.906455	-0.181955	0.000005
C18	C	1.713220	-0.110798	-0.000003
C19	C	1.851972	-0.113091	0.000002
C20	C	1.490720	-0.258681	0.000006
C21	C	1.501867	-0.345785	0.000011
C22	C	1.576757	0.164852	-0.000011
C23	C	1.566274	0.246695	-0.000003
C24	C	1.448231	0.278874	0.000001
C25	C	1.340662	0.229205	0.000005
C26	C	1.351145	0.147364	0.000003
C27	C	1.404782	0.522705	0.000013
C28	C	1.394307	0.604553	0.000013
C29	C	1.619920	0.622036	0.000006
C30	C	1.630393	0.540193	-0.000001
C31	C	1.522824	0.490531	0.000008
N32	N	1.437513	0.362530	0.000007
N33	N	1.533542	0.406876	0.000008
N34	N	1.500148	-0.105608	-0.205303
C35	C	1.547420	-0.074347	0.250687
C36	C	1.540961	-0.078624	0.341495
C37	C	1.457999	-0.133530	0.386911
C38	C	1.381501	-0.184169	0.341514
C39	C	1.387967	-0.179895	0.250708
C40	C	1.430116	-0.151973	0.658494
C41	C	1.423653	-0.156241	0.749307
C42	C	1.583116	-0.050697	0.749282
C43	C	1.589569	-0.046425	0.658473
C44	C	1.513075	-0.097066	0.613084
N45	N	1.451392	-0.137902	0.479732
N46	N	1.519690	-0.092699	0.520265
H47	H	1.096761	-0.243283	0.000003
Cl48	Cl	1.192263	0.269659	0.000021
H49	H	1.726516	0.513999	-0.000005
H50	H	1.653862	0.287127	-0.000006
Cl51	Cl	0.814586	-0.270277	0.000018
Cl52	Cl	1.245898	0.645005	0.000013
Cl53	Cl	1.215920	0.084931	0.000009
H54	H	0.911471	-0.055886	0.000003
H55	H	1.317191	0.482280	0.000020
H56	H	1.614971	-0.029633	0.213715
H57	H	1.672880	0.138659	-0.000020
H58	H	1.072191	-0.058545	0.000018
Cl59	Cl	1.637130	-0.014971	0.398559
Cl60	Cl	1.693864	0.022601	0.601379
Cl61	Cl	1.679547	0.012797	0.806347
Cl62	Cl	1.319345	-0.225272	0.806395
H63	H	1.707496	0.662479	0.000000
Cl64	Cl	1.333950	-0.215632	0.601439
H65	H	1.313956	-0.228879	0.378497
H66	H	1.325678	-0.221127	0.213752
