data_functionalizedCrystal
_audit_creation_method	'MofGen! by Chris Wilmer'
_symmetry_space_group_name_H-M	'P1'
_symmetry_Int_Tables_number	1
_symmetry_cell_setting	triclinic
loop_
_symmetry_equiv_pos_as_xyz
  x,y,z
_cell_length_a	23.532361
_cell_length_b	23.532407
_cell_length_c	22.010155
_cell_angle_alpha	90.000423
_cell_angle_beta	89.995873
_cell_angle_gamma	97.160827
loop_
_atom_site_label
_atom_site_type_symbol
_atom_site_fract_x
_atom_site_fract_y
_atom_site_fract_z
O1	O	0.755281	-0.069001	-0.050470
O2	O	1.005281	0.180999	0.199530
O3	O	1.255281	0.430999	0.449530
O4	O	1.505281	0.680999	0.699530
O5	O	0.589414	-0.079032	-0.050486
O6	O	0.839414	0.170968	0.199514
O7	O	1.089414	0.420968	0.449514
O8	O	1.339414	0.670968	0.699514
O9	O	0.677349	0.008916	-0.050466
O10	O	0.927349	0.258916	0.199534
O11	O	1.177349	0.508916	0.449534
O12	O	1.427349	0.758916	0.699534
O13	O	0.667346	-0.156949	-0.050490
O14	O	0.917346	0.093051	0.199510
O15	O	1.167346	0.343051	0.449510
O16	O	1.417346	0.593051	0.699510
O17	O	0.677333	0.008903	0.050584
O18	O	0.927333	0.258903	0.300584
O19	O	1.177333	0.508903	0.550584
O20	O	1.427333	0.758903	0.800584
O21	O	0.589398	-0.079045	0.050565
O22	O	0.839398	0.170955	0.300565
O23	O	1.089398	0.420955	0.550565
O24	O	1.339398	0.670955	0.800565
O25	O	0.755265	-0.069014	0.050580
O26	O	1.005265	0.180986	0.300580
O27	O	1.255265	0.430986	0.550580
O28	O	1.505265	0.680986	0.800580
Cu29	Cu	0.672330	-0.074030	0.059799
Cu30	Cu	0.922330	0.175970	0.309799
Cu31	Cu	1.172330	0.425970	0.559799
Cu32	Cu	1.422330	0.675970	0.809799
Cu33	Cu	0.672349	-0.074015	-0.059705
Cu34	Cu	0.922349	0.175985	0.190295
Cu35	Cu	1.172349	0.425985	0.440295
Cu36	Cu	1.422349	0.675985	0.690295
O37	O	0.667330	-0.156962	0.050561
O38	O	0.917330	0.093038	0.300561
O39	O	1.167330	0.343038	0.550561
O40	O	1.417330	0.593038	0.800561
C41	C	0.568189	-0.078787	0.000038
C42	C	0.818189	0.171213	0.250038
C43	C	1.068189	0.421213	0.500038
C44	C	1.318189	0.671213	0.750038
C45	C	0.504971	-0.078032	0.000032
C46	C	0.754971	0.171968	0.250032
C47	C	1.004971	0.421968	0.500032
C48	C	1.254971	0.671968	0.750032
C49	C	0.231736	-0.074721	-0.055046
C50	C	0.481736	0.175279	0.194954
C51	C	0.731736	0.425279	0.444954
C52	C	0.981736	0.675279	0.694954
C53	C	0.291136	-0.075436	-0.055048
C54	C	0.541136	0.174564	0.194952
C55	C	0.791136	0.424564	0.444952
C56	C	1.041136	0.674564	0.694952
O57	O	0.321869	-0.075780	-0.101892
O58	O	0.571869	0.174220	0.148108
O59	O	0.821869	0.424220	0.398108
O60	O	1.071869	0.674220	0.648108
N61	N	0.320832	-0.075804	0.000035
N62	N	0.570832	0.174196	0.250035
N63	N	0.820832	0.424196	0.500035
N64	N	1.070832	0.674196	0.750035
C65	C	0.291127	-0.075452	0.055123
C66	C	0.541127	0.174548	0.305123
C67	C	0.791127	0.424548	0.555123
C68	C	1.041127	0.674548	0.805123
O69	O	0.321841	-0.075830	0.101975
O70	O	0.571841	0.174170	0.351975
O71	O	0.821841	0.424170	0.601975
O72	O	1.071841	0.674170	0.851975
C73	C	0.231729	-0.074733	0.055124
C74	C	0.481729	0.175267	0.305124
C75	C	0.731729	0.425267	0.555124
C76	C	0.981729	0.675267	0.805124
C77	C	0.202035	-0.074370	0.000037
C78	C	0.452035	0.175630	0.250037
C79	C	0.702035	0.425630	0.500037
C80	C	0.952035	0.675630	0.750037
C81	C	0.202041	-0.074358	-0.110128
C82	C	0.452041	0.175642	0.139872
C83	C	0.702041	0.425642	0.389872
C84	C	0.952041	0.675642	0.639872
C85	C	0.142645	-0.073644	-0.110126
C86	C	0.392645	0.176356	0.139874
C87	C	0.642645	0.426356	0.389874
C88	C	0.892645	0.676356	0.639874
C89	C	0.112944	-0.073293	-0.055043
C90	C	0.362944	0.176707	0.194957
C91	C	0.612944	0.426707	0.444957
C92	C	0.862944	0.676707	0.694957
C93	C	0.142639	-0.073657	0.000039
C94	C	0.392639	0.176343	0.250039
C95	C	0.642639	0.426343	0.500039
C96	C	0.892639	0.676343	0.750039
C97	C	0.202026	-0.074376	0.110211
C98	C	0.452026	0.175624	0.360211
C99	C	0.702026	0.425624	0.610211
C100	C	0.952026	0.675624	0.860211
C101	C	0.142624	-0.073657	0.110207
C102	C	0.392624	0.176343	0.360207
C103	C	0.642624	0.426343	0.610207
C104	C	0.892624	0.676343	0.860207
C105	C	0.112929	-0.073294	0.055121
C106	C	0.362929	0.176706	0.305121
C107	C	0.612929	0.426706	0.555121
C108	C	0.862929	0.676706	0.805121
C109	C	0.053542	-0.072592	0.055125
C110	C	0.303542	0.177408	0.305125
C111	C	0.553542	0.427408	0.555125
C112	C	0.803542	0.677408	0.805125
N113	N	0.023845	-0.072224	0.000042
N114	N	0.273845	0.177776	0.250042
N115	N	0.523845	0.427776	0.500042
N116	N	0.773845	0.677776	0.750042
C117	C	0.053546	-0.072574	-0.055042
C118	C	0.303546	0.177426	0.194958
C119	C	0.553546	0.427426	0.444958
C120	C	0.803546	0.677426	0.694958
C121	C	0.415868	-0.076961	0.055117
C122	C	0.665868	0.173039	0.305117
C123	C	0.915868	0.423039	0.555117
C124	C	1.165868	0.673039	0.805117
C125	C	0.475264	-0.077684	0.055116
C126	C	0.725264	0.172316	0.305116
C127	C	0.975264	0.422316	0.555116
C128	C	1.225264	0.672316	0.805116
C129	C	0.475268	-0.077667	-0.055055
C130	C	0.725268	0.172333	0.194945
C131	C	0.975268	0.422333	0.444945
C132	C	1.225268	0.672333	0.694945
C133	C	0.415870	-0.076948	-0.055054
C134	C	0.665870	0.173052	0.194946
C135	C	0.915870	0.423052	0.444946
C136	C	1.165870	0.673052	0.694946
C137	C	0.386171	-0.076593	0.000034
C138	C	0.636171	0.173407	0.250034
C139	C	0.886171	0.423407	0.500034
C140	C	1.136171	0.673407	0.750034
C141	C	-0.071190	-0.071076	-0.055034
C142	C	0.178810	0.178924	0.194966
C143	C	0.428810	0.428924	0.444966
C144	C	0.678810	0.678924	0.694966
C145	C	-0.130591	-0.070364	-0.055027
C146	C	0.119409	0.179636	0.194973
C147	C	0.369409	0.429636	0.444973
C148	C	0.619409	0.679636	0.694973
C149	C	-0.130589	-0.070378	0.055144
C150	C	0.119411	0.179622	0.305144
C151	C	0.369411	0.429622	0.555144
C152	C	0.619411	0.679622	0.805144
C153	C	-0.071194	-0.071093	0.055137
C154	C	0.178806	0.178907	0.305137
C155	C	0.428806	0.428907	0.555137
C156	C	0.678806	0.678907	0.805137
C157	C	-0.041495	-0.071440	0.000044
C158	C	0.208505	0.178560	0.250044
C159	C	0.458505	0.428560	0.500044
C160	C	0.708505	0.678560	0.750044
O161	O	0.022771	-0.072245	0.101945
O162	O	0.272771	0.177755	0.351945
O163	O	0.522771	0.427755	0.601945
O164	O	0.772771	0.677755	0.851945
O165	O	0.022826	-0.072188	-0.101886
O166	O	0.272826	0.177812	0.148114
O167	O	0.522826	0.427812	0.398114
O168	O	0.772826	0.677812	0.648114
C169	C	0.677086	0.030126	0.000060
C170	C	0.927086	0.280126	0.250060
C171	C	1.177086	0.530126	0.500060
C172	C	1.427086	0.780126	0.750060
C173	C	0.676320	0.093343	0.000065
C174	C	0.926320	0.343343	0.250065
C175	C	1.176320	0.593343	0.500065
C176	C	1.426320	0.843343	0.750065
C177	C	0.776489	-0.069258	0.000055
C178	C	1.026489	0.180742	0.250055
C179	C	1.276489	0.430742	0.500055
C180	C	1.526489	0.680742	0.750055
C181	C	0.839708	-0.070014	0.000057
C182	C	1.089708	0.179986	0.250057
C183	C	1.339708	0.429986	0.500057
C184	C	1.589708	0.679986	0.750057
C185	C	0.667592	-0.178171	0.000033
C186	C	0.917592	0.071829	0.250033
C187	C	1.167592	0.321829	0.500033
C188	C	1.417592	0.571829	0.750033
C189	C	0.668358	-0.241388	0.000024
C190	C	0.918358	0.008612	0.250024
C191	C	1.168358	0.258612	0.500024
C192	C	1.418358	0.508612	0.750024
N193	N	0.672321	-0.074041	0.143851
N194	N	0.922321	0.175959	0.393851
N195	N	1.172321	0.425959	0.643851
N196	N	1.422321	0.675959	0.893851
C197	C	0.723555	0.492454	0.000036
C198	C	0.973555	0.742454	0.250036
C199	C	1.223555	0.992454	0.500036
C200	C	1.473555	1.242454	0.750036
C201	C	0.722844	0.551854	0.000031
C202	C	0.972844	0.801854	0.250031
C203	C	1.222844	1.051854	0.500031
C204	C	1.472844	1.301854	0.750031
O205	O	0.766630	0.588606	0.000013
O206	O	1.016630	0.838606	0.250013
O207	O	1.266630	1.088606	0.500013
O208	O	1.516630	1.338606	0.750013
N209	N	0.670566	0.574471	0.000027
N210	N	0.920566	0.824471	0.250027
N211	N	1.170566	1.074471	0.500027
N212	N	1.420566	1.324471	0.750027
C213	C	0.618997	0.537685	0.000021
C214	C	0.868997	0.787685	0.250021
C215	C	1.118997	1.037685	0.500021
C216	C	1.368997	1.287685	0.750021
O217	O	0.574465	0.562377	0.000016
O218	O	0.824465	0.812377	0.250016
O219	O	1.074465	1.062377	0.500016
O220	O	1.324465	1.312377	0.750016
C221	C	0.619709	0.478286	0.000021
C222	C	0.869709	0.728286	0.250021
C223	C	1.119709	0.978286	0.500021
C224	C	1.369709	1.228286	0.750021
C225	C	0.671990	0.455672	0.000032
C226	C	0.921990	0.705672	0.250032
C227	C	1.171990	0.955672	0.500032
C228	C	1.421990	1.205672	0.750032
C229	C	0.775832	0.469839	0.000046
C230	C	1.025832	0.719839	0.250046
C231	C	1.275832	0.969839	0.500046
C232	C	1.525832	1.219839	0.750046
C233	C	0.776543	0.410443	0.000052
C234	C	1.026543	0.660443	0.250052
C235	C	1.276543	0.910443	0.500052
C236	C	1.526543	1.160443	0.750052
C237	C	0.724977	0.373662	0.000048
C238	C	0.974977	0.623662	0.250048
C239	C	1.224977	0.873662	0.500048
C240	C	1.474977	1.123662	0.750048
C241	C	0.672701	0.396276	0.000038
C242	C	0.922701	0.646276	0.250038
C243	C	1.172701	0.896276	0.500038
C244	C	1.422701	1.146276	0.750038
C245	C	0.568140	0.441501	0.000011
C246	C	0.818140	0.691501	0.250011
C247	C	1.068140	0.941501	0.500011
C248	C	1.318140	1.191501	0.750011
C249	C	0.568857	0.382099	0.000011
C250	C	0.818857	0.632099	0.250011
C251	C	1.068857	0.882099	0.500011
C252	C	1.318857	1.132099	0.750011
C253	C	0.621137	0.359485	0.000021
C254	C	0.871137	0.609485	0.250021
C255	C	1.121137	0.859485	0.500021
C256	C	1.371137	1.109485	0.750021
C257	C	0.621847	0.300099	0.000039
C258	C	0.871847	0.550099	0.250039
C259	C	1.121847	0.800099	0.500039
C260	C	1.371847	1.050099	0.750039
N261	N	0.674124	0.277481	0.000044
N262	N	0.924124	0.527481	0.250044
N263	N	1.174124	0.777481	0.500044
N264	N	1.424124	1.027481	0.750044
C265	C	0.725690	0.314263	0.000048
C266	C	0.975690	0.564263	0.250048
C267	C	1.225690	0.814263	0.500048
C268	C	1.475690	1.064263	0.750048
C269	C	0.617505	0.662427	0.000019
C270	C	0.867505	0.912427	0.250019
C271	C	1.117505	1.162427	0.500019
C272	C	1.367505	1.412427	0.750019
C273	C	0.616793	0.721825	0.000023
C274	C	0.866793	0.971825	0.250023
C275	C	1.116793	1.221825	0.500023
C276	C	1.366793	1.471825	0.750023
C277	C	0.720640	0.735990	0.000032
C278	C	0.970640	0.985990	0.250032
C279	C	1.220640	1.235990	0.500032
C280	C	1.470640	1.485990	0.750032
C281	C	0.721352	0.676591	0.000033
C282	C	0.971352	0.926591	0.250033
C283	C	1.221352	1.176591	0.500033
C284	C	1.471352	1.426591	0.750033
C285	C	0.669783	0.639810	0.000024
C286	C	0.919783	0.889810	0.250024
C287	C	1.169783	1.139810	0.500024
C288	C	1.419783	1.389810	0.750024
C289	C	0.727179	0.189526	0.000061
C290	C	0.977179	0.439526	0.250061
C291	C	1.227179	0.689526	0.500061
C292	C	1.477179	0.939526	0.750061
C293	C	0.727886	0.130124	0.000069
C294	C	0.977886	0.380124	0.250069
C295	C	1.227886	0.630124	0.500069
C296	C	1.477886	0.880124	0.750069
C297	C	0.624039	0.115965	0.000057
C298	C	0.874039	0.365965	0.250057
C299	C	1.124039	0.615965	0.500057
C300	C	1.374039	0.865965	0.750057
C301	C	0.623332	0.175361	0.000051
C302	C	0.873332	0.425361	0.250051
C303	C	1.123332	0.675361	0.500051
C304	C	1.373332	0.925361	0.750051
C305	C	0.674907	0.212141	0.000051
C306	C	0.924907	0.462141	0.250051
C307	C	1.174907	0.712141	0.500051
C308	C	1.424907	0.962141	0.750051
O309	O	0.578083	0.263312	0.000055
O310	O	0.828083	0.513312	0.250055
O311	O	1.078083	0.763312	0.500055
O312	O	1.328083	1.013312	0.750055
O313	O	0.770214	0.289562	0.000045
O314	O	1.020214	0.539562	0.250045
O315	O	1.270214	0.789562	0.500045
O316	O	1.520214	1.039562	0.750045
N317	N	0.672362	-0.074000	-0.143757
N318	N	0.922362	0.176000	0.106243
N319	N	1.172362	0.426000	0.356243
N320	N	1.422362	0.676000	0.606243
C321	C	0.711289	-0.035077	0.563639
C322	C	0.961289	0.214923	0.813639
C323	C	1.211289	0.464923	1.063639
C324	C	1.461289	0.714923	1.313639
C325	C	0.711291	-0.035073	0.627247
C326	C	0.961291	0.214927	0.877247
C327	C	1.211291	0.464927	1.127247
C328	C	1.461291	0.714927	1.377247
O329	O	0.744400	-0.001952	0.660146
O330	O	0.994400	0.248048	0.910146
O331	O	1.244400	0.498048	1.160146
O332	O	1.494400	0.748048	1.410146
N333	N	0.672349	-0.074003	0.659059
N334	N	0.922349	0.175997	0.909059
N335	N	1.172349	0.425997	1.159059
N336	N	1.422349	0.675997	1.409059
C337	C	0.633397	-0.112935	0.627259
C338	C	0.883397	0.137065	0.877259
C339	C	1.133397	0.387065	1.127259
C340	C	1.383397	0.637065	1.377259
O341	O	0.600272	-0.146048	0.660158
O342	O	0.850272	0.103952	0.910158
O343	O	1.100272	0.353952	1.160158
O344	O	1.350272	0.603952	1.410158
C345	C	0.633392	-0.112936	0.563653
C346	C	0.883392	0.137064	0.813653
C347	C	1.133392	0.387064	1.063653
C348	C	1.383392	0.637064	1.313653
C349	C	0.672341	-0.074008	0.531845
C350	C	0.922341	0.175992	0.781845
C351	C	1.172341	0.425992	1.031845
C352	C	1.422341	0.675992	1.281845
C353	C	0.750235	0.003849	0.531831
C354	C	1.000235	0.253849	0.781831
C355	C	1.250235	0.503849	1.031831
C356	C	1.500235	0.753849	1.281831
C357	C	0.750232	0.003844	0.468228
C358	C	1.000232	0.253844	0.718228
C359	C	1.250232	0.503844	0.968228
C360	C	1.500232	0.753844	1.218228
C361	C	0.711285	-0.035087	0.436433
C362	C	0.961285	0.214913	0.686433
C363	C	1.211285	0.464913	0.936433
C364	C	1.461285	0.714913	1.186433
C365	C	0.672339	-0.074012	0.468241
C366	C	0.922339	0.175988	0.718241
C367	C	1.172339	0.425988	0.968241
C368	C	1.422339	0.675988	1.218241
C369	C	0.594437	-0.151866	0.531855
C370	C	0.844437	0.098134	0.781855
C371	C	1.094437	0.348134	1.031855
C372	C	1.344437	0.598134	1.281855
C373	C	0.594436	-0.151863	0.468244
C374	C	0.844436	0.098137	0.718244
C375	C	1.094436	0.348137	0.968244
C376	C	1.344436	0.598137	1.218244
C377	C	0.633385	-0.112934	0.436436
C378	C	0.883385	0.137066	0.686436
C379	C	1.133385	0.387066	0.936436
C380	C	1.383385	0.637066	1.186436
C381	C	0.633389	-0.112948	0.372843
C382	C	0.883389	0.137052	0.622843
C383	C	1.133389	0.387052	0.872843
C384	C	1.383389	0.637052	1.122843
N385	N	0.672332	-0.074018	0.341032
N386	N	0.922332	0.175982	0.591032
N387	N	1.172332	0.425982	0.841032
N388	N	1.422332	0.675982	1.091032
C389	C	0.711280	-0.035087	0.372827
C390	C	0.961280	0.214913	0.622827
C391	C	1.211280	0.464913	0.872827
C392	C	1.461280	0.714913	1.122827
C393	C	0.633409	-0.112930	0.760837
C394	C	0.883409	0.137070	1.010837
C395	C	1.133409	0.387070	1.260837
C396	C	1.383409	0.637070	1.510837
C397	C	0.633416	-0.112933	0.824442
C398	C	0.883416	0.137067	1.074442
C399	C	1.133416	0.387067	1.324442
C400	C	1.383416	0.637067	1.574442
C401	C	0.711311	-0.035069	0.824426
C402	C	0.961311	0.214931	1.074426
C403	C	1.211311	0.464931	1.324426
C404	C	1.461311	0.714931	1.574426
C405	C	0.711306	-0.035070	0.760819
C406	C	0.961306	0.214930	1.010819
C407	C	1.211306	0.464930	1.260819
C408	C	1.461306	0.714930	1.510819
C409	C	0.672352	-0.074000	0.729025
C410	C	0.922352	0.176000	0.979025
C411	C	1.172352	0.426000	1.229025
C412	C	1.422352	0.676000	1.479025
C413	C	0.711273	-0.035101	0.239255
C414	C	0.961273	0.214899	0.489255
C415	C	1.211273	0.464899	0.739255
C416	C	1.461273	0.714899	0.989255
C417	C	0.711269	-0.035110	0.175646
C418	C	0.961269	0.214890	0.425646
C419	C	1.211269	0.464890	0.675646
C420	C	1.461269	0.714890	0.925646
C421	C	0.633373	-0.112971	0.175669
C422	C	0.883373	0.137029	0.425669
C423	C	1.133373	0.387029	0.675669
C424	C	1.383373	0.637029	0.925669
C425	C	0.633378	-0.112964	0.239272
C426	C	0.883378	0.137036	0.489272
C427	C	1.133378	0.387036	0.739272
C428	C	1.383378	0.637036	0.989272
C429	C	0.672331	-0.074024	0.271064
C430	C	0.922331	0.175976	0.521064
C431	C	1.172331	0.425976	0.771064
C432	C	1.422331	0.675976	1.021064
O433	O	0.600295	-0.146051	0.339904
O434	O	0.850295	0.103949	0.589904
O435	O	1.100295	0.353949	0.839904
O436	O	1.350295	0.603949	1.089904
O437	O	0.744393	-0.001976	0.339920
O438	O	0.994393	0.248024	0.589920
O439	O	1.244393	0.498024	0.839920
O440	O	1.494393	0.748024	1.089920
H441	H	0.391689	-0.076679	0.099978
H442	H	0.641689	0.173321	0.349978
H443	H	0.891689	0.423321	0.599978
H444	H	1.141689	0.673321	0.849978
H445	H	0.580761	0.193774	0.000060
H446	H	0.830761	0.443774	0.250060
H447	H	1.080761	0.693774	0.500060
H448	H	1.330761	0.943774	0.750060
H449	H	0.499462	-0.077952	-0.099907
H450	H	0.749462	0.172048	0.150093
H451	H	0.999462	0.422048	0.400093
H452	H	1.249462	0.672048	0.650093
H453	H	0.499435	-0.077988	0.099973
H454	H	0.749435	0.172012	0.349973
H455	H	0.999435	0.422012	0.599973
H456	H	1.249435	0.672012	0.849973
H457	H	0.226218	-0.074642	-0.154986
H458	H	0.476218	0.175358	0.095014
H459	H	0.726218	0.425358	0.345014
H460	H	0.976218	0.675358	0.595014
H461	H	0.582056	0.086007	0.000055
H462	H	0.832056	0.336007	0.250055
H463	H	1.082056	0.586007	0.500055
H464	H	1.332056	0.836007	0.750055
H465	H	0.743023	-0.003369	0.850325
H466	H	0.993023	0.246631	1.100325
H467	H	1.243023	0.496631	1.350325
H468	H	1.493023	0.746631	1.600325
H469	H	0.781947	0.035545	0.442333
H470	H	1.031947	0.285545	0.692333
H471	H	1.281947	0.535545	0.942333
H472	H	1.531947	0.785545	1.192333
H473	H	0.526862	0.352154	0.000003
H474	H	0.776862	0.602154	0.250003
H475	H	1.026862	0.852154	0.500003
H476	H	1.276862	1.102154	0.750003
H477	H	0.742988	-0.003410	0.149750
H478	H	0.992988	0.246590	0.399750
H479	H	1.242988	0.496590	0.649750
H480	H	1.492988	0.746590	0.899750
H481	H	0.601690	-0.144637	0.734954
H482	H	0.851690	0.105363	0.984954
H483	H	1.101690	0.355363	1.234954
H484	H	1.351690	0.605363	1.484954
H485	H	0.817825	0.499782	0.000047
H486	H	1.067825	0.749782	0.250047
H487	H	1.317825	0.999782	0.500047
H488	H	1.567825	1.249782	0.750047
H489	H	0.763923	0.658183	0.000041
H490	H	1.013923	0.908183	0.250041
H491	H	1.263923	1.158183	0.500041
H492	H	1.513923	1.408183	0.750041
H493	H	0.601706	-0.144638	0.850336
H494	H	0.851706	0.105362	1.100336
H495	H	1.101706	0.355362	1.350336
H496	H	1.351706	0.605362	1.600336
H497	H	0.226193	-0.074670	0.155068
H498	H	0.476193	0.175330	0.405068
H499	H	0.726193	0.425330	0.655068
H500	H	0.976193	0.675330	0.905068
H501	H	0.762627	0.765949	0.000033
H502	H	1.012627	1.015949	0.250033
H503	H	1.262627	1.265949	0.500033
H504	H	1.512627	1.515949	0.750033
H505	H	0.601663	-0.144670	0.149771
H506	H	0.851663	0.105330	0.399771
H507	H	1.101663	0.355330	0.649771
H508	H	1.351663	0.605330	0.899771
H509	H	0.742990	-0.003391	0.265133
H510	H	0.992990	0.246609	0.515133
H511	H	1.242990	0.496609	0.765133
H512	H	1.492990	0.746609	1.015133
H513	H	-0.154766	-0.070071	-0.099887
H514	H	0.095234	0.179929	0.150113
H515	H	0.345234	0.429929	0.400113
H516	H	0.595234	0.679929	0.650113
H517	H	0.743021	-0.003371	0.734925
H518	H	0.993021	0.246629	0.984925
H519	H	1.243021	0.496629	1.234925
H520	H	1.493021	0.746629	1.484925
H521	H	0.562721	-0.183564	0.557744
H522	H	0.812721	0.066436	0.807744
H523	H	1.062721	0.316436	1.057744
H524	H	1.312721	0.566436	1.307744
H525	H	0.118445	-0.073372	0.155067
H526	H	0.368445	0.176628	0.405067
H527	H	0.618445	0.426628	0.655067
H528	H	0.868445	0.676628	0.905067
H529	H	0.781951	0.035553	0.557713
H530	H	1.031951	0.285553	0.807713
H531	H	1.281951	0.535553	1.057713
H532	H	1.531951	0.785553	1.307713
H533	H	0.118474	-0.073346	-0.154983
H534	H	0.368474	0.176654	0.095017
H535	H	0.618474	0.426654	0.345017
H536	H	0.868474	0.676654	0.595017
H537	H	0.562713	-0.183564	0.442360
H538	H	0.812713	0.066436	0.692360
H539	H	1.062713	0.316436	0.942360
H540	H	1.312713	0.566436	1.192360
H541	H	0.525567	0.459902	-0.000001
H542	H	0.775567	0.709902	0.249999
H543	H	1.025567	0.959902	0.499999
H544	H	1.275567	1.209902	0.749999
H545	H	0.601668	-0.144669	0.265171
H546	H	0.851668	0.105331	0.515171
H547	H	1.101668	0.355331	0.765171
H548	H	1.351668	0.605331	1.015171
H549	H	0.391697	-0.076653	-0.099910
H550	H	0.641697	0.173347	0.150090
H551	H	0.891697	0.423347	0.400090
H552	H	1.141697	0.673347	0.650090
H553	H	0.574220	0.740232	0.000025
H554	H	0.824220	0.990232	0.250025
H555	H	1.074220	1.240232	0.500025
H556	H	1.324220	1.490232	0.750025
H557	H	-0.047017	-0.071399	0.099993
H558	H	0.202983	0.178601	0.349993
H559	H	0.452983	0.428601	0.599993
H560	H	0.702983	0.678601	0.849993
H561	H	-0.154783	-0.070095	0.099991
H562	H	0.095217	0.179905	0.349991
H563	H	0.345217	0.429905	0.599991
H564	H	0.595217	0.679905	0.849991
H565	H	0.770461	0.111716	0.000079
H566	H	1.020461	0.361716	0.250079
H567	H	1.270461	0.611716	0.500079
H568	H	1.520461	0.861716	0.750079
H569	H	-0.047016	-0.071359	-0.099896
H570	H	0.202984	0.178641	0.150104
H571	H	0.452984	0.428641	0.400104
H572	H	0.702984	0.678641	0.650104
H573	H	0.769176	0.219466	0.000058
H574	H	1.019176	0.469466	0.250058
H575	H	1.269176	0.719466	0.500058
H576	H	1.519176	0.969466	0.750058
H577	H	0.819115	0.392037	0.000058
H578	H	1.069115	0.642037	0.250058
H579	H	1.319115	0.892037	0.500058
H580	H	1.569115	1.142037	0.750058
H581	H	0.575509	0.632483	0.000017
H582	H	0.825509	0.882483	0.250017
H583	H	1.075509	1.132483	0.500017
H584	H	1.325509	1.382483	0.750017
