data_functionalizedCrystal
_audit_creation_method	'MofGen! by Chris Wilmer'
_symmetry_space_group_name_H-M	'P1'
_symmetry_Int_Tables_number	1
_symmetry_cell_setting	triclinic
loop_
_symmetry_equiv_pos_as_xyz
  x,y,z
_cell_length_a	10.654541
_cell_length_b	12.837942
_cell_length_c	11.892283
_cell_angle_alpha	85.692779
_cell_angle_beta	86.070631
_cell_angle_gamma	90.343566
loop_
_atom_site_label
_atom_site_type_symbol
_atom_site_fract_x
_atom_site_fract_y
_atom_site_fract_z
O1	O	1.676504	-0.152278	0.093966
O2	O	1.312540	-0.166165	0.093976
O3	O	1.486452	-0.008260	0.093964
O4	O	1.502592	-0.310183	0.093978
O5	O	1.500921	0.004884	-0.094039
O6	O	1.327009	-0.153021	-0.094027
O7	O	1.690973	-0.139134	-0.094037
Zn8	Zn	1.511288	-0.143990	-0.123882
Zn9	Zn	1.492225	-0.161309	0.123821
O10	O	1.517061	-0.297038	-0.094026
C11	C	1.272865	-0.158574	-0.000025
C12	C	1.133088	-0.155525	-0.000021
C13	C	1.488234	0.036972	-0.000037
C14	C	1.471971	0.152165	-0.000034
N15	N	1.524308	-0.132170	-0.292932
C16	C	1.125720	-0.344344	0.000002
C17	C	1.056370	-0.437316	0.000017
C18	C	0.925039	-0.434445	0.000018
C19	C	0.863055	-0.338591	0.000000
C20	C	0.932405	-0.245618	-0.000016
C21	C	1.063739	-0.248500	-0.000013
C22	C	0.939774	-0.056801	-0.000046
C23	C	1.071105	-0.059671	-0.000039
C24	C	0.877790	0.039053	-0.000065
C25	C	0.947139	0.132028	-0.000072
C26	C	1.078479	0.129152	-0.000072
C27	C	1.140455	0.033302	-0.000055
C28	C	1.730648	-0.146725	-0.000034
C29	C	1.870424	-0.149774	-0.000030
C30	C	1.515279	-0.342270	-0.000022
C31	C	1.531541	-0.457465	-0.000017
C32	C	1.667474	0.391718	-0.000016
C33	C	1.652200	0.499954	-0.000014
C34	C	1.426149	0.476873	-0.000019
C35	C	1.441423	0.368638	-0.000022
C36	C	1.562090	0.326065	-0.000022
C37	C	1.577364	0.217828	-0.000032
C38	C	1.351313	0.194749	-0.000030
C39	C	1.336038	0.302984	-0.000027
C40	C	1.615030	-0.049871	-0.470442
C41	C	1.605902	-0.058141	-0.352103
C42	C	1.451838	-0.197936	-0.352109
C43	C	1.460966	-0.189665	-0.470448
C44	C	1.542563	-0.115630	-0.529611
C45	C	1.551683	-0.107355	-0.647952
C46	C	1.397627	-0.247153	-0.647956
C47	C	1.388499	-0.255424	-0.529617
N48	N	1.479214	-0.173120	0.292871
H49	H	1.232655	-0.346693	0.000026
O50	O	0.880292	0.235406	-0.000102
H51	H	0.814732	0.235887	0.076522
O52	O	1.296006	0.522795	-0.000005
H53	H	1.250632	0.501849	-0.076628
O54	O	1.319462	-0.318091	-0.711770
H55	H	1.339519	-0.299908	-0.803999
H56	H	1.738015	0.553406	-0.000006
O57	O	1.684039	0.012807	-0.288289
H58	H	1.663985	-0.005378	-0.196060
O59	O	0.721406	-0.335492	-0.000021
H60	H	0.682455	-0.299324	0.076592
O61	O	0.736140	0.042159	-0.000067
H62	H	0.698326	-0.038593	-0.000042
H63	H	1.237794	0.337662	-0.000023
O64	O	1.237645	0.123927	-0.000040
H65	H	1.186432	0.144529	-0.076676
O66	O	1.707505	0.171904	-0.000031
H67	H	1.713959	0.117775	0.076591
O68	O	1.797617	0.345798	-0.000016
H69	H	1.815886	0.302406	-0.076648
H70	H	1.134936	0.204863	-0.000089
O71	O	1.282105	0.030195	-0.000063
H72	H	1.324214	0.075545	-0.076699
H73	H	1.618120	-0.047069	-0.696121
H74	H	1.681460	0.010419	-0.518613
H75	H	1.385413	-0.258221	-0.303924
H76	H	1.322068	-0.315705	-0.481433
H77	H	1.106852	-0.515359	0.000029
H78	H	0.868575	-0.510152	0.000023
