data_functionalizedCrystal
_audit_creation_method	'MofGen! by Chris Wilmer'
_symmetry_space_group_name_H-M	'P1'
_symmetry_Int_Tables_number	1
_symmetry_cell_setting	triclinic
loop_
_symmetry_equiv_pos_as_xyz
  x,y,z
_cell_length_a	17.699077
_cell_length_b	10.654545
_cell_length_c	16.776229
_cell_angle_alpha	89.995723
_cell_angle_beta	89.993415
_cell_angle_gamma	83.883002
loop_
_atom_site_label
_atom_site_type_symbol
_atom_site_fract_x
_atom_site_fract_y
_atom_site_fract_z
O1	O	1.005091	0.158773	-0.066274
O2	O	1.505091	0.658773	0.433726
O3	O	0.784844	0.179442	-0.066277
O4	O	1.284844	0.679442	0.433723
O5	O	0.900031	-0.013721	-0.066275
O6	O	1.400031	0.486279	0.433725
O7	O	0.889904	0.351936	-0.066276
O8	O	1.389904	0.851936	0.433724
O9	O	0.900015	-0.013732	0.066302
O10	O	1.400015	0.486268	0.566302
O11	O	0.784828	0.179430	0.066300
O12	O	1.284828	0.679430	0.566300
O13	O	1.005076	0.158761	0.066303
O14	O	1.505076	0.658761	0.566303
Zn15	Zn	0.894949	0.169094	0.087351
Zn16	Zn	1.394949	0.669094	0.587351
Zn17	Zn	0.894970	0.169109	-0.087325
Zn18	Zn	1.394970	0.669109	0.412675
O19	O	0.889888	0.351924	0.066301
O20	O	1.389888	0.851924	0.566301
C21	C	0.756634	0.178697	0.000011
C22	C	1.256634	0.678697	0.500011
C23	C	0.672602	0.176479	0.000009
C24	C	1.172602	0.676479	0.500009
C25	C	0.633119	0.175427	0.072278
C26	C	1.133119	0.675427	0.572278
C27	C	0.554163	0.173323	0.072279
C28	C	1.054163	0.673323	0.572279
C29	C	0.514691	0.172280	0.000010
C30	C	1.014691	0.672280	0.500010
C31	C	0.554179	0.173328	-0.072264
C32	C	1.054179	0.673328	0.427736
C33	C	0.633134	0.175423	-0.072264
C34	C	1.133134	0.675423	0.427736
C35	C	0.235762	0.164877	-0.072265
C36	C	0.735762	0.664877	0.427735
C37	C	0.156801	0.162785	-0.072260
C38	C	0.656801	0.662785	0.427740
C39	C	0.156791	0.162777	0.072277
C40	C	0.656791	0.662777	0.572277
C41	C	0.235746	0.164872	0.072277
C42	C	0.735746	0.664872	0.572277
C43	C	0.275228	0.165913	0.000004
C44	C	0.775228	0.665913	0.500004
C45	C	0.360841	0.168192	0.000004
C46	C	0.860841	0.668192	0.500004
C47	C	0.429078	0.170009	0.000009
C48	C	0.929078	0.670009	0.500009
C49	C	0.899279	-0.060511	0.000012
C50	C	1.399279	0.439489	0.500012
C51	C	0.897054	-0.199916	0.000007
C52	C	1.397054	0.300084	0.500007
C53	C	0.897080	-0.199911	-0.144532
C54	C	1.397080	0.300089	0.355468
C55	C	0.896050	-0.265401	-0.216801
C56	C	1.396050	0.234599	0.283199
C57	C	0.893960	-0.396383	-0.216802
C58	C	1.393960	0.103617	0.283198
C59	C	0.892897	-0.461878	-0.144526
C60	C	1.392897	0.038122	0.355474
C61	C	0.893926	-0.396389	-0.072257
C62	C	1.393926	0.103611	0.427743
C63	C	0.896019	-0.265404	-0.072263
C64	C	1.396019	0.234596	0.427737
C65	C	0.893895	-0.396392	0.072281
C66	C	1.393895	0.103608	0.572281
C67	C	0.895991	-0.265411	0.072283
C68	C	1.395991	0.234589	0.572283
C69	C	0.892831	-0.461887	0.144557
C70	C	1.392831	0.038113	0.644557
C71	C	0.893867	-0.396398	0.216828
C72	C	1.393867	0.103602	0.716828
C73	C	0.895958	-0.265409	0.216826
C74	C	1.395958	0.234591	0.716826
C75	C	0.897020	-0.199921	0.144553
C76	C	1.397020	0.300079	0.644553
C77	C	1.033285	0.159506	0.000013
C78	C	1.533285	0.659506	0.500013
C79	C	1.117318	0.161724	0.000010
C80	C	1.617318	0.661724	0.500010
C81	C	0.890640	0.398715	0.000012
C82	C	1.390640	0.898715	0.500012
C83	C	0.892865	0.538119	0.000012
C84	C	1.392865	1.038119	0.500012
N85	N	0.894941	0.169082	0.206562
N86	N	1.394941	0.669082	0.706562
N87	N	0.894984	0.169111	-0.206536
N88	N	1.394984	0.669111	0.293464
C89	C	0.945962	0.083585	0.248280
C90	C	1.445962	0.583585	0.748280
C91	C	0.945966	0.083584	0.331732
C92	C	1.445966	0.583584	0.831732
C93	C	0.894953	0.169087	0.373465
C94	C	1.394953	0.669087	0.873465
C95	C	0.843926	0.254589	0.331741
C96	C	1.343926	0.754589	0.831741
C97	C	0.843919	0.254583	0.248290
C98	C	1.343919	0.754583	0.748290
C99	C	0.843954	0.254613	0.668288
C100	C	1.343954	0.754613	1.168288
C101	C	0.843967	0.254615	0.751745
C102	C	1.343967	0.754615	1.251745
C103	C	0.946001	0.083615	0.751730
C104	C	1.446001	0.583615	1.251730
C105	C	0.945994	0.083609	0.668279
C106	C	1.445994	0.583609	1.168279
C107	C	0.894965	0.169105	0.626563
C108	C	1.394965	0.669105	1.126563
C109	C	0.894960	0.169104	0.536074
C110	C	1.394960	0.669104	1.036074
C111	C	0.894960	0.169096	0.463952
C112	C	1.394960	0.669096	0.963952
H113	H	0.267899	0.165720	-0.131115
H114	H	0.767899	0.665720	0.368885
H115	H	0.802386	0.324203	0.365724
H116	H	1.302386	0.824203	0.865724
H117	H	0.802372	0.324202	0.214324
H118	H	1.302372	0.824202	0.714324
F119	F	0.890600	-0.601288	0.144554
F120	F	1.390600	-0.101288	0.644554
H121	H	0.124665	0.161934	-0.131113
H122	H	0.624665	0.661934	0.368887
H123	H	0.987549	0.013994	0.785705
H124	H	1.487549	0.513994	1.285705
F125	F	0.114766	0.161663	0.149198
F126	F	0.614766	0.661663	0.649198
H127	H	0.987506	0.013964	0.214307
H128	H	1.487506	0.513964	0.714307
H129	H	0.522035	0.172469	-0.131106
H130	H	1.022035	0.672469	0.368894
H131	H	0.987536	0.013988	0.634303
H132	H	1.487536	0.513988	1.134303
H133	H	0.892995	-0.449734	0.275669
H134	H	1.392995	0.050266	0.775669
F135	F	1.000267	-0.007413	0.376132
F136	F	1.500267	0.492587	0.876132
F137	F	0.897049	-0.195718	0.293746
F138	F	1.397049	0.304282	0.793746
H139	H	0.802422	0.324245	0.785722
H140	H	1.302422	0.824245	1.285722
H141	H	0.665251	0.176287	0.131127
H142	H	1.165251	0.676287	0.631127
F143	F	0.512145	0.172221	0.149197
F144	F	1.012145	0.672221	0.649197
H145	H	0.665279	0.176281	-0.131112
H146	H	1.165279	0.676281	0.368888
H147	H	0.802406	0.324230	0.634329
H148	H	1.302406	0.824230	1.134329
F149	F	0.277751	0.165990	0.149195
F150	F	0.777751	0.665990	0.649195
F151	F	0.897198	-0.195692	-0.293718
F152	F	1.397198	0.304308	0.206282
F153	F	0.899318	-0.060511	-0.144537
F154	F	1.399318	0.439489	0.355463
H155	H	0.898727	-0.093270	0.144544
H156	H	1.398727	0.406730	0.644544
F157	F	0.892858	-0.466082	-0.293718
F158	F	1.392858	0.033918	0.206282
H159	H	0.891185	-0.568529	-0.144533
H160	H	1.391185	-0.068529	0.355467
