data_functionalizedCrystal
_audit_creation_method	'MofGen! by Chris Wilmer'
_symmetry_space_group_name_H-M	'P1'
_symmetry_Int_Tables_number	1
_symmetry_cell_setting	triclinic
loop_
_symmetry_equiv_pos_as_xyz
  x,y,z
_cell_length_a	23.532407
_cell_length_b	23.532407
_cell_length_c	9.798715
_cell_angle_alpha	89.988376
_cell_angle_beta	89.999003
_cell_angle_gamma	82.848747
loop_
_atom_site_label
_atom_site_type_symbol
_atom_site_fract_x
_atom_site_fract_y
_atom_site_fract_z
O1	O	0.755259	0.069134	-0.113430
O2	O	1.255259	0.569134	0.386570
O3	O	0.589396	0.079137	-0.113455
O4	O	1.089396	0.579137	0.386545
O5	O	0.677329	-0.008796	-0.113403
O6	O	1.177329	0.491204	0.386597
O7	O	0.667326	0.157067	-0.113481
O8	O	1.167326	0.657067	0.386519
O9	O	0.677322	-0.008796	0.113579
O10	O	1.177322	0.491204	0.613579
O11	O	0.589389	0.079137	0.113527
O12	O	1.089389	0.579137	0.613527
O13	O	0.755252	0.069134	0.113552
O14	O	1.255252	0.569134	0.613552
Zn15	Zn	0.672320	0.074135	0.149578
Zn16	Zn	1.172320	0.574135	0.649578
Zn17	Zn	0.672328	0.074136	-0.149481
Zn18	Zn	1.172328	0.574136	0.350519
O19	O	0.667319	0.157067	0.113501
O20	O	1.167319	0.657067	0.613501
C21	C	0.568176	0.078882	0.000034
C22	C	1.068176	0.578882	0.500034
C23	C	0.504959	0.078116	0.000026
C24	C	1.004959	0.578116	0.500026
C25	C	0.238792	0.022921	0.000089
C26	C	0.738792	0.522921	0.500089
C27	C	0.298192	0.023632	0.000088
C28	C	0.798192	0.523632	0.500088
O29	O	0.334937	-0.020153	0.000156
O30	O	0.834937	0.479847	0.500156
N31	N	0.320818	0.075909	0.000054
N32	N	0.820818	0.575909	0.500054
C33	C	0.284041	0.127477	0.000035
C34	C	0.784041	0.627477	0.500035
O35	O	0.308740	0.172007	0.000007
O36	O	0.808740	0.672007	0.500007
C37	C	0.224642	0.126765	0.000046
C38	C	0.724642	0.626765	0.500046
C39	C	0.202019	0.074485	0.000066
C40	C	0.702019	0.574485	0.500066
C41	C	0.216168	-0.029354	0.000111
C42	C	0.716168	0.470646	0.500111
C43	C	0.156772	-0.030066	0.000109
C44	C	0.656772	0.469934	0.500109
C45	C	0.119999	0.021499	0.000085
C46	C	0.619999	0.521499	0.500085
C47	C	0.142623	0.073774	0.000064
C48	C	0.642623	0.573774	0.500064
C49	C	0.187865	0.178333	0.000036
C50	C	0.687865	0.678333	0.500036
C51	C	0.128463	0.177616	0.000047
C52	C	0.628463	0.677616	0.500047
C53	C	0.105840	0.125336	0.000068
C54	C	0.605840	0.625336	0.500068
C55	C	0.046454	0.124627	0.000038
C56	C	0.546454	0.624627	0.500038
N57	N	0.023828	0.072351	0.000072
N58	N	0.523828	0.572351	0.500072
C59	C	0.060600	0.020787	0.000096
C60	C	0.560600	0.520787	0.500096
C61	C	0.408783	0.128968	0.000015
C62	C	0.908783	0.628968	0.500015
C63	C	0.468181	0.129681	-0.000005
C64	C	0.968181	0.629681	0.499995
C65	C	0.482328	0.025836	0.000051
C66	C	0.982328	0.525836	0.500051
C67	C	0.422929	0.025124	0.000061
C68	C	0.922929	0.525124	0.500061
C69	C	0.386157	0.076692	0.000049
C70	C	0.886157	0.576692	0.500049
C71	C	-0.064136	0.019297	0.000091
C72	C	0.435864	0.519297	0.500091
C73	C	-0.123538	0.018590	0.000083
C74	C	0.376462	0.518590	0.500083
C75	C	-0.137680	0.122435	0.000035
C76	C	0.362320	0.622435	0.500035
C77	C	-0.078284	0.123142	0.000035
C78	C	0.421716	0.623142	0.500035
C79	C	-0.041512	0.071568	0.000068
C80	C	0.458488	0.571568	0.500068
O81	O	0.009675	0.168390	-0.000024
O82	O	0.509675	0.668390	0.499976
O83	O	0.035892	-0.023737	0.000141
O84	O	0.535892	0.476263	0.500141
C85	C	0.677071	-0.030012	0.000095
C86	C	1.177071	0.469988	0.500095
C87	C	0.676305	-0.093229	0.000115
C88	C	1.176305	0.406771	0.500115
C89	C	0.621110	-0.359397	0.000022
C90	C	1.121110	0.140603	0.500022
C91	C	0.621821	-0.299997	0.000032
C92	C	1.121821	0.200003	0.500032
O93	O	0.578035	-0.263252	-0.000017
O94	O	1.078035	0.236748	0.499983
N95	N	0.674097	-0.277370	0.000056
N96	N	1.174097	0.222630	0.500056
C97	C	0.725666	-0.314148	0.000055
C98	C	1.225666	0.185852	0.500055
O99	O	0.770196	-0.289448	0.000075
O100	O	1.270196	0.210552	0.500075
C101	C	0.724953	-0.373547	0.000035
C102	C	1.224953	0.126453	0.500035
C103	C	0.672674	-0.396170	0.000025
C104	C	1.172674	0.103830	0.500025
C105	C	0.568834	-0.382020	0.000010
C106	C	1.068834	0.117980	0.500010
C107	C	0.568123	-0.441416	0.000002
C108	C	1.068123	0.058584	0.500002
C109	C	0.619687	-0.478189	0.000006
C110	C	1.119687	0.021811	0.500006
C111	C	0.671963	-0.455566	0.000017
C112	C	1.171963	0.044434	0.500017
C113	C	0.776521	-0.410323	0.000024
C114	C	1.276521	0.089677	0.500024
C115	C	0.775805	-0.469726	0.000003
C116	C	1.275805	0.030274	0.500003
C117	C	0.723525	-0.492348	-0.000007
C118	C	1.223525	0.007652	0.499993
C119	C	0.722816	-0.551735	0.000012
C120	C	1.222816	-0.051735	0.500012
N121	N	0.670539	-0.574361	-0.000011
N122	N	1.170539	-0.074361	0.499989
C123	C	0.618975	-0.537588	-0.000015
C124	C	1.118975	-0.037588	0.499985
C125	C	0.727157	-0.189405	0.000096
C126	C	1.227157	0.310595	0.500096
C127	C	0.727870	-0.130007	0.000126
C128	C	1.227870	0.369993	0.500126
C129	C	0.624025	-0.115860	0.000100
C130	C	1.124025	0.384140	0.500100
C131	C	0.623313	-0.175259	0.000080
C132	C	1.123313	0.324741	0.500080
C133	C	0.674881	-0.212031	0.000072
C134	C	1.174881	0.287969	0.500072
C135	C	0.617485	-0.662325	-0.000030
C136	C	1.117485	-0.162325	0.499970
C137	C	0.616779	-0.721727	-0.000033
C138	C	1.116779	-0.221727	0.499967
C139	C	0.720623	-0.735869	-0.000015
C140	C	1.220623	-0.235869	0.499985
C141	C	0.721330	-0.676472	-0.000005
C142	C	1.221330	-0.176472	0.499995
C143	C	0.669757	-0.639701	-0.000018
C144	C	1.169757	-0.139701	0.499982
O145	O	0.766579	-0.588514	0.000056
O146	O	1.266579	-0.088514	0.500056
O147	O	0.574452	-0.562296	-0.000052
O148	O	1.074452	-0.062296	0.499948
C149	C	0.776472	0.069389	0.000061
C150	C	1.276472	0.569389	0.500061
C151	C	0.839689	0.070155	0.000060
C152	C	1.339689	0.570155	0.500060
C153	C	0.667577	0.178283	-0.000000
C154	C	1.167577	0.678283	0.500000
C155	C	0.668343	0.241500	-0.000030
C156	C	1.168343	0.741500	0.499970
N157	N	0.672318	0.074135	0.353678
N158	N	1.172318	0.574135	0.853678
N159	N	0.672335	0.074132	-0.353580
N160	N	1.172335	0.574132	0.146420
C161	C	0.709241	0.037054	0.421476
C162	C	1.209241	0.537054	0.921476
C163	C	0.709250	0.037052	0.578639
C164	C	1.209250	0.537052	1.078639
H165	H	0.378846	0.170964	-0.000004
H166	H	0.878846	0.670964	0.499996
H167	H	0.817798	-0.499664	-0.000011
H168	H	1.317798	0.000336	0.499989
F169	F	0.631016	0.115633	0.570224
F170	F	1.131016	0.615633	1.070224
F171	F	0.783513	-0.105937	0.000156
F172	F	1.283513	0.394063	0.500156
H173	H	0.486595	0.172252	-0.000040
H174	H	0.986595	0.672252	0.499960
F175	F	0.631005	0.115627	0.429882
F176	F	1.131005	0.615627	0.929882
F177	F	0.398858	-0.030518	0.000087
F178	F	0.898858	0.469482	0.500087
F179	F	0.561133	-0.745800	-0.000040
F180	F	1.061133	-0.245800	0.499960
H181	H	-0.141954	-0.023984	0.000096
H182	H	0.358046	0.476016	0.500096
F183	F	0.132703	-0.085709	0.000119
F184	F	0.632703	0.414291	0.500119
F185	F	-0.025010	-0.035594	0.000125
F186	F	0.474990	0.464406	0.500125
H187	H	0.246104	-0.071347	0.000134
H188	H	0.746104	0.428653	0.500134
F189	F	0.211929	0.233977	0.000014
F190	F	0.711929	0.733977	0.500014
F191	F	0.521475	-0.029043	0.000075
F192	F	1.021475	0.470957	0.500075
H193	H	0.740864	0.005307	0.636943
H194	H	1.240864	0.505307	1.136943
F195	F	-0.176827	0.177310	0.000002
F196	F	0.323173	0.677310	0.500002
F197	F	0.089330	0.232503	0.000040
F198	F	0.589330	0.732503	0.500040
H199	H	0.740844	0.005306	0.363172
H200	H	1.240844	0.505306	0.863172
H201	H	-0.059863	0.165712	0.000017
H202	H	0.440137	0.665712	0.500017
H203	H	0.582038	-0.085909	0.000099
H204	H	1.082038	0.414091	0.500099
F205	F	0.512479	-0.465485	-0.000020
F206	F	1.012479	0.034515	0.499980
F207	F	0.562595	-0.623198	-0.000043
F208	F	1.062595	-0.123198	0.499957
H209	H	0.526842	-0.352085	0.000003
H210	H	1.026842	0.147915	0.500003
F211	F	0.567670	-0.199330	0.000068
F212	F	1.067670	0.300670	0.500068
H213	H	0.769152	-0.219343	0.000098
H214	H	1.269152	0.280657	0.500098
H215	H	0.819093	-0.391915	0.000031
H216	H	1.319093	0.108085	0.500031
F217	F	0.776972	-0.652395	0.000049
F218	F	1.276972	-0.152395	0.500049
F219	F	0.775499	-0.775015	-0.000001
F220	F	1.275499	-0.275015	0.499999
