data_functionalizedCrystal
_audit_creation_method	'MofGen! by Chris Wilmer'
_symmetry_space_group_name_H-M	'P1'
_symmetry_Int_Tables_number	1
_symmetry_cell_setting	triclinic
loop_
_symmetry_equiv_pos_as_xyz
  x,y,z
_cell_length_a	17.699104
_cell_length_b	15.944499
_cell_length_c	16.776229
_cell_angle_alpha	89.996595
_cell_angle_beta	89.991971
_cell_angle_gamma	83.384563
loop_
_atom_site_label
_atom_site_type_symbol
_atom_site_fract_x
_atom_site_fract_y
_atom_site_fract_z
O1	O	1.004232	0.106308	-0.066299
O2	O	1.504232	0.606308	0.433701
O3	O	0.783877	0.120109	-0.066296
O4	O	1.283877	0.620109	0.433704
O5	O	0.900093	-0.009081	-0.066299
O6	O	1.400093	0.490919	0.433701
O7	O	0.888017	0.235499	-0.066296
O8	O	1.388017	0.735499	0.433704
O9	O	0.900077	-0.009089	0.066278
O10	O	1.400077	0.490911	0.566278
O11	O	0.783862	0.120102	0.066281
O12	O	1.283862	0.620102	0.566281
O13	O	1.004217	0.106300	0.066278
O14	O	1.504217	0.606300	0.566278
Zn15	Zn	0.894037	0.113199	0.087329
Zn16	Zn	1.394037	0.613199	0.587329
Zn17	Zn	0.894057	0.113210	-0.087347
Zn18	Zn	1.394057	0.613210	0.412653
O19	O	0.888002	0.235491	0.066281
O20	O	1.388002	0.735491	0.566281
C21	C	0.755672	0.119608	-0.000007
C22	C	1.255672	0.619608	0.499993
C23	C	0.671653	0.118115	-0.000007
C24	C	1.171653	0.618115	0.499993
C25	C	0.899591	-0.040379	-0.000012
C26	C	1.399591	0.459621	0.499988
C27	C	0.898108	-0.133624	-0.000018
C28	C	1.398108	0.366376	0.499982
C29	C	0.146886	0.185530	-0.000014
C30	C	0.646886	0.685530	0.499986
C31	C	0.225831	0.186928	-0.000017
C32	C	0.725831	0.686928	0.499983
C33	C	0.274332	0.111088	-0.000017
C34	C	0.774332	0.611088	0.499983
C35	C	0.243883	0.033845	-0.000024
C36	C	0.743883	0.533845	0.499976
C37	C	0.164939	0.032449	-0.000027
C38	C	0.664939	0.532449	0.499973
C39	C	0.562258	0.039476	-0.000011
C40	C	1.062258	0.539476	0.499989
C41	C	0.641207	0.040878	-0.000005
C42	C	1.141207	0.540878	0.499995
C43	C	0.623151	0.193954	-0.000000
C44	C	1.123151	0.693954	0.500000
C45	C	0.544206	0.192558	-0.000004
C46	C	1.044206	0.692558	0.499996
C47	C	0.513764	0.115316	-0.000014
C48	C	1.013764	0.615316	0.499986
C49	C	0.428162	0.113802	-0.000013
C50	C	0.928162	0.613802	0.499987
C51	C	0.359933	0.112601	-0.000012
C52	C	0.859933	0.612601	0.499988
C53	C	0.965626	-0.425297	-0.000015
C54	C	1.465626	0.074703	0.499985
C55	C	0.930521	-0.364205	0.065356
C56	C	1.430521	0.135795	0.565356
C57	C	0.892723	-0.469250	-0.000009
C58	C	1.392723	0.030750	0.499991
C59	C	0.930517	-0.364203	-0.065354
C60	C	1.430517	0.135797	0.434646
C61	C	0.895373	-0.304347	-0.000015
C62	C	1.395373	0.195653	0.499985
C63	C	0.857598	-0.409386	0.065415
C64	C	1.357598	0.090614	0.565415
C65	C	0.857604	-0.409391	-0.065353
C66	C	1.357604	0.090609	0.434647
C67	C	0.822446	-0.348316	0.000033
C68	C	1.322446	0.151684	0.500033
C69	C	0.891199	-0.564247	-0.000005
C70	C	1.391199	-0.064247	0.499995
C71	C	0.896892	-0.209351	-0.000013
C72	C	1.396892	0.290649	0.499987
C73	C	1.032422	0.106801	-0.000012
C74	C	1.532422	0.606801	0.499988
C75	C	1.116442	0.108294	-0.000018
C76	C	1.616442	0.608294	0.499982
C77	C	0.888504	0.266788	-0.000007
C78	C	1.388504	0.766788	0.499993
C79	C	0.889986	0.360034	-0.000007
C80	C	1.389986	0.860034	0.499993
N81	N	0.894029	0.113192	0.206540
N82	N	1.394029	0.613192	0.706540
N83	N	0.894072	0.113211	-0.206558
N84	N	1.394072	0.613211	0.293442
C85	C	0.945504	0.056010	0.248256
C86	C	1.445504	0.556010	0.748256
C87	C	0.945509	0.056009	0.331708
C88	C	1.445509	0.556009	0.831708
C89	C	0.894040	0.113195	0.373443
C90	C	1.394040	0.613195	0.873443
C91	C	0.842559	0.170380	0.331721
C92	C	1.342559	0.670380	0.831721
C93	C	0.842552	0.170376	0.248270
C94	C	1.342552	0.670376	0.748270
C95	C	0.842586	0.170397	0.668268
C96	C	1.342586	0.670397	1.168268
C97	C	0.842599	0.170398	0.751725
C98	C	1.342599	0.670398	1.251725
C99	C	0.945543	0.056029	0.751706
C100	C	1.445543	0.556029	1.251706
C101	C	0.945536	0.056025	0.668255
C102	C	1.445536	0.556025	1.168255
C103	C	0.894052	0.113207	0.626541
C104	C	1.394052	0.613207	1.126541
C105	C	0.894047	0.113206	0.536052
C106	C	1.394047	0.613206	1.036052
C107	C	0.894048	0.113201	0.463930
C108	C	1.394048	0.613201	0.963930
H109	H	0.107401	0.247288	-0.000008
H110	H	0.607401	0.747288	0.499992
N111	N	0.789972	0.228800	0.205668
N112	N	1.289972	0.728800	0.705668
N113	N	0.790997	0.306441	0.214981
N114	N	1.290997	0.806441	0.714981
H115	H	0.753859	0.347705	0.184895
H116	H	1.253859	0.847705	0.684895
H117	H	0.826800	-0.429438	-0.120620
H118	H	1.326800	0.070562	0.379380
H119	H	0.961351	-0.344179	0.120619
H120	H	1.461351	0.155821	0.620619
N121	N	0.969232	-0.339082	-0.134670
N122	N	1.469232	0.160918	0.365330
N123	N	1.037258	-0.367015	-0.146298
N124	N	1.537258	0.132985	0.353702
H125	H	1.064608	-0.349274	-0.195247
H126	H	1.564608	0.150726	0.304753
N127	N	0.789990	0.228804	0.374347
N128	N	1.289990	0.728804	0.874347
N129	N	0.791011	0.306444	0.365017
N130	N	1.291011	0.806444	0.865017
H131	H	0.753884	0.347710	0.395119
H132	H	1.253884	0.847710	0.895119
N133	N	0.998044	-0.002456	0.205641
N134	N	1.498044	0.497544	0.705641
N135	N	1.043969	-0.053542	0.242901
N136	N	1.543969	0.446458	0.742901
H137	H	1.081060	-0.094856	0.212807
H138	H	1.581060	0.405144	0.712807
H139	H	0.987462	0.009466	0.785679
H140	H	1.487462	0.509466	1.285679
N141	N	0.998092	-0.002411	0.374307
N142	N	1.498092	0.497589	0.874307
N143	N	1.044044	-0.053463	0.337035
N144	N	1.544044	0.446537	0.837035
H145	H	1.081183	-0.094726	0.367119
H146	H	1.581183	0.405274	0.867119
N147	N	0.790008	0.228799	0.625649
N148	N	1.290008	0.728799	1.125649
N149	N	0.743031	0.202210	0.579096
N150	N	1.243031	0.702210	1.079096
H151	H	0.705897	0.243459	0.548990
H152	H	1.205897	0.743459	1.048990
H153	H	0.987449	0.009462	0.634277
H154	H	1.487449	0.509462	1.134277
H155	H	0.826781	-0.429309	0.120739
H156	H	1.326781	0.070691	0.620739
N157	N	0.746479	-0.306541	0.000086
N158	N	1.246479	0.193459	0.500086
N159	N	0.702461	-0.318154	0.056262
N160	N	1.202461	0.181846	0.556262
H161	H	0.648810	-0.288650	0.056304
H162	H	1.148810	0.211350	0.556304
N163	N	0.293410	-0.043633	-0.000030
N164	N	0.793410	0.456367	0.499970
N165	N	0.290645	-0.095036	-0.055915
N166	N	0.790645	0.404964	0.444085
H167	H	0.325621	-0.149759	-0.055917
H168	H	0.825621	0.350241	0.444083
N169	N	0.256916	0.265830	-0.000021
N170	N	0.756916	0.765830	0.499979
N171	N	0.213604	0.333538	-0.000021
N172	N	0.713604	0.833538	0.499979
H173	H	0.235556	0.389268	-0.000027
H174	H	0.735556	0.889268	0.499973
N175	N	0.790017	0.228821	0.794345
N176	N	1.290017	0.728821	1.294345
N177	N	0.744053	0.279871	0.757092
N178	N	1.244053	0.779871	1.257092
H179	H	0.706920	0.321132	0.787192
H180	H	1.206920	0.821132	1.287192
H181	H	0.647945	0.256849	0.000005
H182	H	1.147945	0.756849	0.500005
N183	N	0.494667	0.270028	0.000015
N184	N	0.994667	0.770028	0.500015
N185	N	0.497433	0.321427	0.055903
N186	N	0.997433	0.821427	0.555903
H187	H	0.462448	0.376143	0.055916
H188	H	0.962448	0.876143	0.555916
N189	N	0.690741	-0.036603	-0.000002
N190	N	1.190741	0.463397	0.499998
N191	N	0.663552	-0.105562	-0.000010
N192	N	1.163552	0.394438	0.499990
H193	H	0.698534	-0.160281	-0.000006
H194	H	1.198534	0.339719	0.499994
H195	H	1.026129	-0.458749	0.000047
H196	H	1.526129	0.041251	0.500047
N197	N	0.531181	-0.039429	-0.000025
N198	N	1.031181	0.460571	0.499975
N199	N	0.574496	-0.107135	-0.000025
N200	N	1.074496	0.392865	0.499975
H201	H	0.552547	-0.162866	-0.000036
H202	H	1.052547	0.337134	0.499964
H203	H	0.140153	-0.030445	-0.000032
H204	H	0.640153	0.469555	0.499968
