data_functionalizedCrystal
_audit_creation_method	'MofGen! by Chris Wilmer'
_symmetry_space_group_name_H-M	'P1'
_symmetry_Int_Tables_number	1
_symmetry_cell_setting	triclinic
loop_
_symmetry_equiv_pos_as_xyz
  x,y,z
_cell_length_a	19.902436
_cell_length_b	15.698487
_cell_length_c	19.902436
_cell_angle_alpha	59.996401
_cell_angle_beta	90.004623
_cell_angle_gamma	60.006980
loop_
_atom_site_label
_atom_site_type_symbol
_atom_site_fract_x
_atom_site_fract_y
_atom_site_fract_z
Zr1	Zr	-0.088100	0.932288	0.647320
O2	O	-0.195386	1.109999	0.540027
O3	O	-0.055214	0.754577	0.680211
O4	O	-0.195377	0.932267	0.680211
O5	O	0.055343	0.932325	0.540027
O6	O	-0.195368	0.932251	0.790789
O7	O	-0.055222	0.932309	0.540027
O8	O	0.055358	0.614396	0.790789
O9	O	-0.195383	1.250180	0.540027
O10	O	-0.041179	0.827660	0.776762
O11	O	0.041328	0.827685	0.694238
O12	O	-0.123696	1.036891	0.694238
O13	O	-0.041189	1.036916	0.611714
Zr14	Zr	0.088253	0.932288	0.823680
Zr15	Zr	-0.088086	0.932262	0.823680
Zr16	Zr	0.088239	0.932314	0.647320
Zr17	Zr	-0.088096	1.155861	0.647319
Zr18	Zr	0.088249	0.708715	0.823680
O19	O	0.055367	1.109999	0.790789
O20	O	-0.195365	1.109961	0.790789
O21	O	0.055347	1.110036	0.540027
O22	O	0.195539	0.754577	0.930972
O23	O	-0.055194	0.754540	0.930972
O24	O	0.195518	0.754615	0.680210
O25	O	-0.055191	0.932251	0.930972
O26	O	0.195530	0.932309	0.790789
O27	O	0.195521	0.932325	0.680210
O28	O	0.055375	0.932267	0.930972
O29	O	-0.195372	1.250159	0.680210
O30	O	0.195525	0.614417	0.790789
O31	O	0.195536	0.614396	0.930972
O32	O	0.055370	0.614375	0.930973
O33	O	-0.055217	1.250201	0.540027
O34	O	-0.055205	1.250180	0.680210
O35	O	0.123849	0.827685	0.776762
O36	O	0.041342	0.827660	0.859285
O37	O	-0.041175	1.036891	0.776762
O38	O	0.041332	1.036916	0.694238
C39	C	0.000071	0.652632	0.735500
C40	C	0.000070	0.557720	0.735500
C41	C	-0.220498	0.932255	0.735500
C42	C	-0.295358	0.932244	0.735500
C43	C	0.000084	0.383937	0.735498
C44	C	0.000078	0.480642	0.735497
C45	C	-0.567407	0.932303	0.735499
C46	C	-0.486863	0.800316	0.787805
C47	C	-0.408960	0.800233	0.787579
C48	C	-0.432440	0.932273	0.735500
C49	C	-0.486566	0.997830	0.645832
C50	C	-0.564128	0.996986	0.646118
C51	C	-0.565257	0.999678	0.772139
C52	C	-0.486379	0.997197	0.773954
C53	C	-0.356165	0.932263	0.735496
C54	C	-0.643683	0.932317	0.735498
C55	C	0.220651	0.932321	0.735500
C56	C	0.295511	0.932332	0.735500
C57	C	0.000059	0.932321	0.514900
C58	C	0.000052	0.932332	0.440030
C59	C	0.000082	1.211944	0.735500
C60	C	0.000083	1.306856	0.735499
C61	C	0.000084	0.932273	0.168028
C62	C	-0.051719	1.064260	0.144461
C63	C	-0.052007	1.064343	0.222299
C64	C	0.000069	0.932303	0.302971
C65	C	-0.037890	0.866746	0.300560
C66	C	-0.038274	0.867590	0.222332
C67	C	0.089871	0.864898	0.223320
C68	C	0.089733	0.867379	0.300241
C69	C	0.000060	0.932313	0.379238
C70	C	0.000090	0.932259	0.091763
C71	C	0.000094	0.932255	0.956100
C72	C	0.000100	0.932244	1.030969
C73	C	0.000089	0.652599	0.956100
C74	C	0.000094	0.557676	1.030970
C75	C	0.220645	0.652665	0.735500
C76	C	0.295505	0.557764	0.735500
C77	C	0.220663	0.652632	0.956100
C78	C	0.295529	0.557720	1.030970
C79	C	-0.220510	1.211944	0.514900
C80	C	-0.295376	1.306856	0.440030
C81	C	0.000064	1.211977	0.514900
C82	C	0.000059	1.306900	0.440030
C83	C	-0.220492	1.211911	0.735500
C84	C	-0.295352	1.306812	0.735500
C85	C	-0.042987	0.513098	1.023053
C86	C	-0.042999	0.423920	1.093394
C87	C	0.000074	0.379314	1.171652
C88	C	0.043156	0.423900	1.179567
C89	C	0.043163	0.513083	1.109226
C90	C	0.373742	0.513197	0.778576
C91	C	0.444086	0.424040	0.778573
C92	C	0.436192	0.379444	0.735498
C93	C	0.357947	0.424020	0.692416
C94	C	0.287604	0.513182	0.692415
C95	C	0.287618	0.513135	1.109213
C96	C	0.357955	0.423967	1.179568
C97	C	0.436202	0.379379	1.171677
C98	C	0.444111	0.423973	1.093426
C99	C	0.373774	0.513145	1.023073
C100	C	-0.287465	1.351452	0.361786
C101	C	-0.357802	1.440648	0.291432
C102	C	-0.436049	1.485240	0.299322
C103	C	-0.443958	1.440641	0.377574
C104	C	-0.373622	1.351453	0.447927
C105	C	0.043132	1.351487	0.447947
C106	C	0.043125	1.440690	0.377605
C107	C	0.000049	1.485299	0.299348
C108	C	-0.043029	1.440709	0.291433
C109	C	-0.043026	1.351513	0.361773
C110	C	-0.287431	1.351379	0.778583
C111	C	-0.357763	1.440537	0.778599
C112	C	-0.436013	1.485133	0.735526
C113	C	-0.443932	1.440557	0.692441
C114	C	-0.373602	1.351394	0.692431
H115	H	-0.369561	0.748799	0.853608
F116	F	0.349559	0.376545	0.646576
F117	F	-0.138576	1.131976	0.219976
F118	F	-0.088868	1.304064	0.353335
H119	H	0.000054	1.557928	0.242079
F120	F	0.382162	0.560639	0.824429
H121	H	0.507790	0.387757	0.813659
F122	F	0.089023	0.560510	1.117665
F123	F	-0.484638	0.732583	0.874334
F124	F	-0.088868	1.488195	0.208139
F125	F	-0.485885	0.732947	0.754894
F126	F	0.204340	0.560598	0.646569
H127	H	-0.351347	1.476945	0.227723
H128	H	-0.504900	1.093525	0.739818
F129	F	-0.349318	1.487967	0.824454
F130	F	0.349521	0.376519	1.262841
H131	H	-0.493315	1.557862	0.242030
H132	H	0.223912	0.549425	1.115654
F133	F	-0.088851	0.376480	1.084953
H134	H	0.493467	0.306769	1.228970
H135	H	-0.223722	1.315083	0.813658
H136	H	0.507829	0.387656	1.087013
F137	F	0.382206	0.560581	0.939802
H138	H	-0.493274	1.557735	0.735541
H139	H	-0.507653	1.476881	0.657373
F140	F	-0.204196	1.304007	0.353370
H141	H	-0.002981	0.770752	0.241680
H142	H	-0.622018	1.096919	0.734209
F143	F	0.009054	0.739848	0.374818
F144	F	-0.527241	1.488109	0.385959
H145	H	-0.380072	1.315144	0.511635
F146	F	-0.124633	0.928473	0.174563
H147	H	-0.568239	0.957429	0.837172
H148	H	-0.026743	1.116039	0.221021
F149	F	0.511066	0.284549	0.735507
H150	H	0.000063	0.306694	1.228921
H151	H	0.078215	1.315173	0.511661
F152	F	0.088997	0.376412	1.262861
H153	H	0.078208	1.476981	0.384066
H154	H	-0.380062	1.315118	0.657343
H155	H	-0.563936	0.950413	0.616786
F156	F	-0.638681	1.123557	0.592410
F157	F	-0.357961	0.732658	0.754313
F158	F	0.140557	0.737808	0.249366
F159	F	-0.512403	1.124727	0.592677
H160	H	-0.449053	0.949387	0.840018
F161	F	-0.437617	0.938340	0.607218
H162	H	-0.026388	1.116072	0.105294
H163	H	-0.117552	1.115803	0.104550
H164	H	0.121579	0.907141	0.187007
F165	F	-0.123428	0.926236	0.302586
H166	H	0.118090	0.915179	0.299864
H167	H	0.131580	0.771048	0.357701
H168	H	-0.078072	0.549416	0.959338
