data_functionalizedCrystal
_audit_creation_method	'MofGen! by Chris Wilmer'
_symmetry_space_group_name_H-M	'P1'
_symmetry_Int_Tables_number	1
_symmetry_cell_setting	triclinic
loop_
_symmetry_equiv_pos_as_xyz
  x,y,z
_cell_length_a	16.109302
_cell_length_b	15.538191
_cell_length_c	14.586319
_cell_angle_alpha	89.999456
_cell_angle_beta	89.994552
_cell_angle_gamma	65.366938
loop_
_atom_site_label
_atom_site_type_symbol
_atom_site_fract_x
_atom_site_fract_y
_atom_site_fract_z
O1	O	1.066615	0.121097	-0.076271
O2	O	1.566615	0.621097	0.423729
O3	O	0.820009	0.136166	-0.076263
O4	O	1.320009	0.636166	0.423737
O5	O	0.991316	-0.008513	-0.076273
O6	O	1.491316	0.491487	0.423727
O7	O	0.895308	0.265775	-0.076261
O8	O	1.395308	0.765775	0.423739
O9	O	0.991308	-0.008515	0.076208
O10	O	1.491308	0.491485	0.576208
O11	O	0.820001	0.136164	0.076218
O12	O	1.320001	0.636164	0.576218
O13	O	1.066607	0.121095	0.076210
O14	O	1.566607	0.621095	0.576210
Cu15	Cu	0.943303	0.128629	0.090137
Cu16	Cu	1.443303	0.628629	0.590137
Cu17	Cu	0.943313	0.128631	-0.090190
Cu18	Cu	1.443313	0.628631	0.409810
O19	O	0.895300	0.265773	0.076220
O20	O	1.395300	0.765773	0.576220
C21	C	0.789214	0.135554	-0.000021
C22	C	1.289214	0.635554	0.499979
C23	C	0.697471	0.133724	-0.000019
C24	C	1.197471	0.633724	0.499981
C25	C	0.486402	0.129490	0.083089
C26	C	0.986402	0.629490	0.583089
C27	C	0.400204	0.127760	0.083086
C28	C	0.900204	0.627760	0.583086
C29	C	0.400221	0.127767	-0.083157
C30	C	0.900221	0.627767	0.416843
C31	C	0.486421	0.129491	-0.083153
C32	C	0.986421	0.629491	0.416847
C33	C	0.529507	0.130357	-0.000027
C34	C	1.029507	0.630357	0.499973
C35	C	0.357109	0.126904	-0.000034
C36	C	0.857109	0.626904	0.499966
C37	C	0.263649	0.125028	-0.000038
C38	C	0.763649	0.625028	0.499962
C39	C	0.622974	0.132231	-0.000022
C40	C	1.122974	0.632231	0.499978
C41	C	1.001357	-0.043612	-0.000036
C42	C	1.501357	0.456388	0.499964
C43	C	1.031277	-0.148195	-0.000046
C44	C	1.531277	0.351805	0.499954
C45	C	0.734025	-0.435895	-0.000016
C46	C	1.234025	0.064105	0.499984
C47	C	0.762160	-0.534170	-0.000015
C48	C	1.262160	-0.034170	0.499985
C49	C	0.920418	-0.556661	-0.000021
C50	C	1.420418	-0.056661	0.499979
C51	C	0.892296	-0.458386	-0.000026
C52	C	1.392296	0.041614	0.499974
C53	C	0.799098	-0.398011	-0.000023
C54	C	1.299098	0.101989	0.499977
C55	C	0.957369	-0.420502	-0.000033
C56	C	1.457369	0.079498	0.499967
C57	C	0.929248	-0.322236	-0.000034
C58	C	1.429248	0.177764	0.499966
C59	C	0.836054	-0.261855	-0.000028
C60	C	1.336054	0.238145	0.499972
C61	C	0.770977	-0.299745	-0.000024
C62	C	1.270977	0.200255	0.499976
C63	C	1.050566	-0.480879	-0.000030
C64	C	1.550566	0.019121	0.499970
C65	C	1.115639	-0.442995	-0.000037
C66	C	1.615639	0.057005	0.499963
C67	C	1.087519	-0.344727	-0.000044
C68	C	1.587519	0.155273	0.499956
C69	C	0.994325	-0.284346	-0.000038
C70	C	1.494325	0.215654	0.499962
C71	C	1.152596	-0.306837	-0.000049
C72	C	1.652596	0.193163	0.499951
C73	C	1.124475	-0.208571	-0.000049
C74	C	1.624475	0.291429	0.499951
C75	C	0.966204	-0.186080	-0.000039
C76	C	1.466204	0.313920	0.499961
C77	C	1.097402	0.121706	-0.000034
C78	C	1.597402	0.621706	0.499966
C79	C	1.189145	0.123537	-0.000042
C80	C	1.689145	0.623537	0.499958
C81	C	0.885259	0.300873	-0.000019
C82	C	1.385259	0.800873	0.499981
C83	C	0.855339	0.405456	-0.000015
C84	C	1.355339	0.905456	0.499985
N85	N	0.943303	0.128627	0.216968
N86	N	1.443303	0.628627	0.716968
N87	N	0.943322	0.128626	-0.217021
N88	N	1.443322	0.628626	0.282979
C89	C	1.019169	0.064584	0.451970
C90	C	1.519169	0.564584	0.951970
C91	C	1.019173	0.064582	0.547952
C92	C	1.519173	0.564582	1.047952
C93	C	0.867449	0.192672	0.547970
C94	C	1.367449	0.692672	1.047970
C95	C	0.867444	0.192669	0.451991
C96	C	1.367444	0.692669	0.951991
C97	C	0.943309	0.128626	0.403993
C98	C	1.443309	0.628626	0.903993
C99	C	0.943316	0.128627	0.595954
C100	C	1.443316	0.628627	1.095954
C101	C	0.943319	0.128625	0.700021
C102	C	1.443319	0.628625	1.200021
C103	C	0.943305	0.128627	0.299919
C104	C	1.443305	0.628627	0.799919
H105	H	0.890313	-0.136918	-0.000043
H106	H	1.390313	0.363082	0.499957
H107	H	0.709163	-0.565010	0.000004
H108	H	1.209163	-0.065010	0.500004
H109	H	1.080942	0.012436	0.412893
H110	H	1.580942	0.512436	0.912893
Cl111	Cl	1.114543	-0.015933	0.608263
Cl112	Cl	1.614543	0.484067	1.108263
H113	H	0.805682	0.244815	0.587059
H114	H	1.305682	0.744815	1.087059
Cl115	Cl	1.037577	-0.632569	-0.000018
Cl116	Cl	1.537577	-0.132569	0.499982
H117	H	1.073459	-0.560893	-0.000038
H118	H	1.573459	-0.060893	0.499962
Cl119	Cl	1.269754	-0.382748	-0.000035
Cl120	Cl	1.769754	0.117252	0.499965
H121	H	1.177465	-0.177725	-0.000054
H122	H	1.677465	0.322275	0.499946
Cl123	Cl	0.772066	0.273180	0.391670
Cl124	Cl	1.272066	0.773180	0.891670
H125	H	0.521519	0.130194	-0.150840
H126	H	1.021519	0.630194	0.349160
Cl127	Cl	0.800700	-0.138318	-0.000020
Cl128	Cl	1.300700	0.361682	0.499980
Cl129	Cl	0.540567	0.130573	0.187590
Cl130	Cl	1.040567	0.630573	0.687590
Cl131	Cl	0.346017	0.126673	0.187580
Cl132	Cl	0.846017	0.626673	0.687580
H133	H	1.191521	-0.492165	-0.000036
H134	H	1.691521	0.007835	0.499964
H135	H	0.695086	-0.250583	-0.000028
H136	H	1.195086	0.249417	0.499972
H137	H	0.365130	0.127063	-0.150835
H138	H	0.865130	0.627063	0.349165
H139	H	0.658133	-0.386734	-0.000020
H140	H	1.158133	0.113266	0.499980
