data_functionalizedCrystal
_audit_creation_method	'MofGen! by Chris Wilmer'
_symmetry_space_group_name_H-M	'P1'
_symmetry_Int_Tables_number	1
_symmetry_cell_setting	triclinic
loop_
_symmetry_equiv_pos_as_xyz
  x,y,z
_cell_length_a	14.044191
_cell_length_b	14.044220
_cell_length_c	13.101039
_cell_angle_alpha	86.332523
_cell_angle_beta	86.339405
_cell_angle_gamma	86.809673
loop_
_atom_site_label
_atom_site_type_symbol
_atom_site_fract_x
_atom_site_fract_y
_atom_site_fract_z
O1	O	1.281974	-0.225380	-0.085125
O2	O	1.531974	0.024620	0.164875
O3	O	1.781974	0.274620	0.414875
O4	O	2.031974	0.524620	0.664875
O5	O	1.005303	-0.217066	-0.085147
O6	O	1.255303	0.032934	0.164853
O7	O	1.505303	0.282934	0.414853
O8	O	1.755303	0.532934	0.664853
O9	O	1.139485	-0.082888	-0.085126
O10	O	1.389485	0.167112	0.164874
O11	O	1.639485	0.417112	0.414874
O12	O	1.889485	0.667112	0.664874
O13	O	1.147792	-0.359558	-0.085146
O14	O	1.397792	-0.109558	0.164854
O15	O	1.647792	0.140442	0.414854
O16	O	1.897792	0.390442	0.664854
O17	O	1.129859	-0.092532	0.085302
O18	O	1.379859	0.157468	0.335302
O19	O	1.629859	0.407468	0.585302
O20	O	1.879859	0.657468	0.835302
O21	O	0.995677	-0.226710	0.085281
O22	O	1.245677	0.023290	0.335281
O23	O	1.495677	0.273290	0.585281
O24	O	1.745677	0.523290	0.835281
O25	O	1.272348	-0.235024	0.085304
O26	O	1.522348	0.014976	0.335304
O27	O	1.772348	0.264976	0.585304
O28	O	2.022348	0.514976	0.835304
Zn29	Zn	1.132484	-0.232399	0.112352
Zn30	Zn	1.382484	0.017601	0.362352
Zn31	Zn	1.632484	0.267601	0.612352
Zn32	Zn	1.882484	0.517601	0.862352
Zn33	Zn	1.145167	-0.219692	-0.112195
Zn34	Zn	1.395167	0.030308	0.137805
Zn35	Zn	1.645167	0.280308	0.387805
Zn36	Zn	1.895167	0.530308	0.637805
O37	O	1.138166	-0.369203	0.085283
O38	O	1.388166	-0.119203	0.335283
O39	O	1.638166	0.130797	0.585283
O40	O	1.888166	0.380797	0.835283
C41	C	1.131036	-0.052088	0.000088
C42	C	1.381036	0.197912	0.250088
C43	C	1.631036	0.447912	0.500088
C44	C	1.881036	0.697912	0.750088
C45	C	1.120192	0.054055	0.000089
C46	C	1.370192	0.304055	0.250089
C47	C	1.620192	0.554055	0.500089
C48	C	1.870192	0.804055	0.750089
C49	C	0.964868	-0.218251	0.000064
C50	C	1.214868	0.031749	0.250064
C51	C	1.464868	0.281749	0.500064
C52	C	1.714868	0.531749	0.750064
C53	C	0.858725	-0.207404	0.000056
C54	C	1.108725	0.042596	0.250056
C55	C	1.358725	0.292596	0.500056
C56	C	1.608725	0.542596	0.750056
C57	C	1.312783	-0.233839	0.000090
C58	C	1.562783	0.016161	0.250090
C59	C	1.812783	0.266161	0.500090
C60	C	2.062783	0.516161	0.750090
C61	C	1.418926	-0.244686	0.000092
C62	C	1.668926	0.005314	0.250092
C63	C	1.918926	0.255314	0.500092
C64	C	2.168926	0.505314	0.750092
C65	C	1.664385	-0.187585	0.000075
C66	C	1.914385	0.062415	0.250075
C67	C	2.164385	0.312415	0.500075
C68	C	2.414385	0.562415	0.750075
C69	C	1.613260	-0.264501	0.000073
C70	C	1.863260	-0.014501	0.250073
C71	C	2.113260	0.235499	0.500073
C72	C	2.363260	0.485499	0.750073
C73	C	1.505122	-0.253473	0.000083
C74	C	1.755122	-0.003473	0.250083
C75	C	2.005122	0.246527	0.500083
C76	C	2.255122	0.496527	0.750083
C77	C	1.772533	-0.198611	0.000064
C78	C	2.022533	0.051389	0.250064
C79	C	2.272533	0.301389	0.500064
C80	C	2.522533	0.551389	0.750064
C81	C	1.146615	-0.400002	0.000066
C82	C	1.396615	-0.150002	0.250066
C83	C	1.646615	0.099998	0.500066
C84	C	1.896615	0.349998	0.750066
C85	C	1.157460	-0.506145	0.000059
C86	C	1.407460	-0.256145	0.250059
C87	C	1.657460	-0.006145	0.500059
C88	C	1.907460	0.243855	0.750059
N89	N	1.123835	-0.241071	0.265599
N90	N	1.373835	0.008929	0.515599
N91	N	1.623835	0.258929	0.765599
N92	N	1.873835	0.508929	1.015599
C93	C	1.100366	0.248394	0.000072
C94	C	1.350366	0.498394	0.250072
C95	C	1.600366	0.748394	0.500072
C96	C	1.850366	0.998394	0.750072
C97	C	1.177281	0.299522	0.000075
C98	C	1.427281	0.549522	0.250075
C99	C	1.677281	0.799522	0.500075
C100	C	1.927281	1.049522	0.750075
C101	C	1.166250	0.407659	0.000066
C102	C	1.416250	0.657659	0.250066
C103	C	1.666250	0.907659	0.500066
C104	C	1.916250	1.157659	0.750066
C105	C	1.111396	0.140247	0.000081
C106	C	1.361396	0.390247	0.250081
C107	C	1.611396	0.640247	0.500081
C108	C	1.861396	0.890247	0.750081
N109	N	1.153822	-0.211012	-0.265442
N110	N	1.403822	0.038988	-0.015442
N111	N	1.653822	0.288988	0.234558
N112	N	1.903822	0.538988	0.484558
C113	C	1.112069	-0.252879	0.474640
C114	C	1.362069	-0.002879	0.724640
C115	C	1.612069	0.247121	0.974640
C116	C	1.862069	0.497121	1.224640
C117	C	1.165585	-0.199208	0.525524
C118	C	1.415585	0.050792	0.775524
C119	C	1.665585	0.300792	1.025524
C120	C	1.915585	0.550792	1.275524
C121	C	1.159039	-0.205778	0.641841
C122	C	1.409039	0.044222	0.891841
C123	C	1.659039	0.294222	1.141841
C124	C	1.909039	0.544222	1.391841
C125	C	1.118615	-0.246310	0.358312
C126	C	1.368615	0.003690	0.608312
C127	C	1.618615	0.253690	0.858312
C128	C	1.868615	0.503690	1.108312
H129	H	1.650704	-0.338633	0.000063
H130	H	1.900704	-0.088633	0.250063
H131	H	2.150704	0.161367	0.500063
H132	H	2.400704	0.411367	0.750063
O133	O	1.002172	0.297983	0.000082
O134	O	1.252172	0.547983	0.250082
O135	O	1.502172	0.797983	0.500082
O136	O	1.752172	1.047983	0.750082
H137	H	0.997404	0.347171	-0.069377
H138	H	1.247404	0.597171	0.180623
H139	H	1.497404	0.847171	0.430623
H140	H	1.747404	1.097171	0.680623
H141	H	1.216319	-0.148325	0.481729
H142	H	1.466319	0.101675	0.731729
H143	H	1.716319	0.351675	0.981729
H144	H	1.966319	0.601675	1.231729
O145	O	1.044880	-0.320289	0.532636
O146	O	1.294880	-0.070289	0.782636
O147	O	1.544880	0.179711	1.032636
O148	O	1.794880	0.429711	1.282636
H149	H	1.050229	-0.314943	0.616218
H150	H	1.300229	-0.064943	0.866218
H151	H	1.550229	0.185057	1.116218
H152	H	1.800229	0.435057	1.366218
O153	O	1.614794	-0.089393	0.000087
O154	O	1.864794	0.160607	0.250087
O155	O	2.114794	0.410607	0.500087
O156	O	2.364794	0.660607	0.750087
H157	H	1.639716	-0.046135	-0.069373
H158	H	1.889716	0.203865	0.180627
H159	H	2.139716	0.453865	0.430627
H160	H	2.389716	0.703865	0.680627
O161	O	1.275483	0.249938	0.000102
O162	O	1.525483	0.499938	0.250102
O163	O	1.775483	0.749938	0.500102
O164	O	2.025483	0.999938	0.750102
H165	H	1.268851	0.171551	0.000119
H166	H	1.518851	0.421551	0.250119
H167	H	1.768851	0.671551	0.500119
H168	H	2.018851	0.921551	0.750119
