data_functionalizedCrystal
_audit_creation_method	'MofGen! by Chris Wilmer'
_symmetry_space_group_name_H-M	'P1'
_symmetry_Int_Tables_number	1
_symmetry_cell_setting	triclinic
loop_
_symmetry_equiv_pos_as_xyz
  x,y,z
_cell_length_a	16.956995
_cell_length_b	15.995350
_cell_length_c	16.053802
_cell_angle_alpha	92.567808
_cell_angle_beta	87.607939
_cell_angle_gamma	79.773423
loop_
_atom_site_label
_atom_site_type_symbol
_atom_site_fract_x
_atom_site_fract_y
_atom_site_fract_z
O1	O	1.061404	0.030941	-0.069486
O2	O	0.829246	0.060336	-0.069474
O3	O	0.951671	-0.076688	-0.069479
O4	O	0.938979	0.167965	-0.069480
O5	O	0.944932	-0.069175	0.069380
O6	O	0.822507	0.067849	0.069386
O7	O	1.054665	0.038454	0.069374
Zn8	Zn	0.937516	0.054344	0.091427
Zn9	Zn	0.946395	0.044446	-0.091526
O10	O	0.932240	0.175478	0.069379
C11	C	0.796169	0.065598	-0.000042
C12	C	0.707648	0.070073	-0.000038
C13	C	0.208349	0.103545	-0.000069
C14	C	0.291524	0.099334	-0.000069
C15	C	0.342612	0.020295	-0.000062
C16	C	0.310522	-0.054539	-0.000064
C17	C	0.227348	-0.050327	-0.000071
C18	C	0.592384	-0.000550	-0.000047
C19	C	0.675562	-0.004755	-0.000038
C20	C	0.656559	0.149118	-0.000044
C21	C	0.573385	0.153323	-0.000045
C22	C	0.541302	0.078489	-0.000052
N23	N	0.427631	0.015989	-0.000059
N24	N	0.456285	0.082795	-0.000061
C25	C	0.947777	-0.104090	-0.000051
C26	C	0.946204	-0.196932	-0.000056
C27	C	0.940555	-0.534288	-0.000053
C28	C	0.853381	-0.480837	-0.000360
C29	C	0.854939	-0.384239	-0.000047
C30	C	0.943357	-0.366922	-0.000055
C31	C	0.982514	-0.406685	0.079237
C32	C	0.980320	-0.503166	0.079304
C33	C	0.989784	-0.512193	-0.078605
C34	C	0.989814	-0.415302	-0.079653
C35	C	0.944945	-0.272334	-0.000053
C36	C	0.938969	-0.628876	-0.000049
C37	C	1.087743	0.033192	-0.000059
C38	C	1.176264	0.028717	-0.000069
C39	C	0.936134	0.202880	-0.000051
C40	C	0.937707	0.295722	-0.000052
N41	N	0.931463	0.061099	0.216287
N42	N	0.952455	0.037684	-0.216387
C43	C	0.983574	0.002813	0.259979
C44	C	0.979347	0.007546	0.347386
C45	C	0.923012	0.070569	0.391099
C46	C	0.870895	0.128857	0.347402
C47	C	0.875119	0.124120	0.259996
C48	C	0.904562	0.091236	0.652510
C49	C	0.900343	0.095970	0.739921
C50	C	1.008794	-0.025343	0.739899
C51	C	1.013016	-0.030071	0.652492
C52	C	0.960897	0.028215	0.608802
N53	N	0.918692	0.075409	0.480443
N54	N	0.965214	0.023370	0.519460
H55	H	0.317644	0.160267	-0.000076
H56	H	0.964195	-0.534011	-0.138704
O57	O	0.952002	-0.380470	-0.157362
H58	H	0.900339	-0.328911	-0.139377
H59	H	0.832684	0.171582	0.224424
H60	H	0.566272	-0.061485	-0.000051
H61	H	0.854466	0.147294	0.775509
H62	H	1.051227	-0.072798	0.775480
H63	H	0.862125	0.138696	0.616944
O64	O	0.806210	-0.340129	0.075384
H65	H	0.756236	-0.292203	0.054674
H66	H	0.166758	0.167908	-0.000068
O67	O	0.518288	0.238575	-0.000051
H68	H	0.482687	0.241110	-0.056646
O69	O	0.810138	0.196840	0.394544
H70	H	0.769463	0.166418	0.434392
O71	O	0.810861	-0.506257	-0.075673
H72	H	0.755991	-0.529926	-0.054776
O73	O	1.044322	-0.065181	0.212838
H74	H	1.038505	-0.058686	0.144718
H75	H	0.682691	0.210043	-0.000039
O76	O	1.074973	-0.560185	-0.079325
H77	H	1.088224	-0.601907	-0.137169
H78	H	0.949781	-0.373044	0.138249
O79	O	0.730670	-0.090009	-0.000041
H80	H	0.694389	-0.141339	-0.000056
H81	H	0.352124	-0.118894	-0.000064
H82	H	0.201226	-0.111260	-0.000073
H83	H	0.823893	-0.356552	-0.056886
H84	H	0.815943	-0.494970	0.056189
O85	O	0.934965	-0.520286	0.157819
H86	H	0.974842	-0.565525	0.194819
H87	H	1.044158	-0.539650	0.082896
H88	H	1.047329	-0.396896	0.082180
O89	O	1.075535	-0.401220	-0.086010
H90	H	1.086415	-0.359337	-0.032291
H91	H	1.021779	-0.039916	0.382959
O92	O	1.073771	-0.098052	0.605343
H93	H	1.109292	-0.137794	0.650410
