data_functionalizedCrystal
_audit_creation_method	'MofGen! by Chris Wilmer'
_symmetry_space_group_name_H-M	'P1'
_symmetry_Int_Tables_number	1
_symmetry_cell_setting	triclinic
loop_
_symmetry_equiv_pos_as_xyz
  x,y,z
_cell_length_a	10.723024
_cell_length_b	9.130313
_cell_length_c	10.654550
_cell_angle_alpha	89.997819
_cell_angle_beta	84.476386
_cell_angle_gamma	89.999185
loop_
_atom_site_label
_atom_site_type_symbol
_atom_site_fract_x
_atom_site_fract_y
_atom_site_fract_z
O1	O	1.657207	0.121786	0.176140
O2	O	1.294057	0.121790	0.193001
O3	O	1.483981	0.121783	0.001830
O4	O	1.467282	0.121794	0.367311
O5	O	1.483981	-0.121816	0.001843
O6	O	1.294056	-0.121808	0.193014
O7	O	1.657206	-0.121813	0.176153
Cu8	Cu	1.475631	-0.144053	0.184585
Cu9	Cu	1.475632	0.144031	0.184569
O10	O	1.467282	-0.121805	0.367324
C11	C	1.247557	-0.000008	0.191780
C12	C	1.109002	-0.000007	0.188109
N13	N	1.475640	-0.346676	0.184595
C14	C	1.391520	-0.576700	0.269182
C15	C	1.391520	-0.423363	0.269203
C16	C	1.559757	-0.423333	0.099952
C17	C	1.559749	-0.576667	0.099927
C18	C	1.294394	-0.576716	0.366902
C19	C	1.294394	-0.423379	0.366922
C20	C	1.034035	-0.000002	0.295078
C21	C	0.890831	-0.000001	0.291287
C22	C	1.703706	-0.000011	0.177373
C23	C	1.842261	-0.000003	0.181045
C24	C	1.482755	-0.000015	-0.044961
C25	C	1.479086	-0.000010	-0.184404
N26	N	1.475633	0.346653	0.184549
C27	C	1.590911	-0.000016	-0.263907
C28	C	1.587456	-0.000005	-0.394927
C29	C	1.360343	0.000010	-0.366929
C30	C	1.363799	0.000011	-0.235912
C31	C	1.722033	-0.000031	-0.280072
C32	C	1.718579	-0.000021	-0.411092
C33	C	1.468508	-0.000004	0.414115
C34	C	1.472176	0.000000	0.553558
H35	H	1.628241	-0.360885	0.031054
H36	H	1.315701	-0.381792	0.463462
H37	H	1.266480	0.000028	-0.408883
H38	H	0.906672	0.000003	0.089466
N39	N	1.789970	0.134983	-0.241183
H40	H	1.744599	0.225359	-0.267162
H41	H	1.792479	0.134886	-0.146668
H42	H	1.767983	-0.101965	-0.452854
N43	N	1.777220	-0.139410	-0.232850
H44	H	1.801363	-0.206745	-0.306403
H45	H	1.853974	-0.115209	-0.188873
N46	N	1.650481	-0.659323	0.008644
H47	H	1.602327	-0.722924	-0.047423
H48	H	1.703742	-0.587369	-0.044857
N49	N	1.771100	0.139272	-0.471587
H50	H	1.799015	0.206571	-0.404450
H51	H	1.845040	0.114894	-0.534090
H52	H	1.067166	0.000028	0.093722
H53	H	1.203786	-0.375806	0.336362
H54	H	0.826412	0.000009	0.382860
H55	H	1.272741	0.000036	-0.171184
N56	N	1.167372	-0.631832	0.338414
H57	H	1.110694	-0.545829	0.325712
H58	H	1.176857	-0.693302	0.259265
H59	H	1.324722	-0.624304	0.458099
H60	H	1.075871	-0.000008	0.389466
