data_functionalizedCrystal
_audit_creation_method	'MofGen! by Chris Wilmer'
_symmetry_space_group_name_H-M	'P1'
_symmetry_Int_Tables_number	1
_symmetry_cell_setting	triclinic
loop_
_symmetry_equiv_pos_as_xyz
  x,y,z
_cell_length_a	10.654550
_cell_length_b	17.699083
_cell_length_c	9.130313
_cell_angle_alpha	89.994594
_cell_angle_beta	89.999724
_cell_angle_gamma	83.883973
loop_
_atom_site_label
_atom_site_type_symbol
_atom_site_fract_x
_atom_site_fract_y
_atom_site_fract_z
O1	O	1.665979	0.106303	-0.121693
O2	O	1.300323	0.116430	-0.121721
O3	O	1.493481	0.001243	-0.121693
O4	O	1.472820	0.221490	-0.121721
O5	O	1.493468	0.001240	0.121906
O6	O	1.300310	0.116427	0.121878
O7	O	1.665966	0.106299	0.121906
Cu8	Cu	1.483136	0.111363	0.144134
Cu9	Cu	1.483152	0.111367	-0.143949
O10	O	1.472807	0.221487	0.121878
C11	C	1.253531	0.115685	0.000076
C12	C	1.114127	0.113460	0.000066
C13	C	1.033454	0.181281	0.000061
C14	C	0.902470	0.179186	0.000087
C15	C	0.932844	0.041444	0.000115
C16	C	1.063826	0.043539	0.000100
C17	C	1.492735	-0.026960	0.000106
C18	C	1.490514	-0.110993	0.000107
C19	C	1.603894	-0.158893	0.000117
C20	C	1.601799	-0.237849	0.000104
C21	C	1.486323	-0.268904	0.000091
C22	C	1.372935	-0.220998	0.000076
C23	C	1.375030	-0.142043	0.000079
C24	C	1.364481	-0.539415	0.000064
C25	C	1.362394	-0.618376	0.000065
C26	C	1.591249	-0.635221	0.000089
C27	C	1.593345	-0.556266	0.000092
C28	C	1.479957	-0.508367	0.000069
C29	C	1.482229	-0.422753	0.000080
C30	C	1.484050	-0.354516	0.000090
C31	C	1.712757	0.107045	0.000106
C32	C	1.852161	0.109269	0.000107
C33	C	1.473554	0.249690	0.000075
C34	C	1.475775	0.333722	0.000065
N35	N	1.483135	0.111360	0.346757
N36	N	1.483164	0.111364	-0.346572
C37	C	1.568694	0.060376	0.423421
C38	C	1.568706	0.060376	0.576758
C39	C	1.397596	0.162350	0.576753
C40	C	1.397579	0.162345	0.423419
H41	H	0.836791	0.234412	0.000087
H42	H	1.074405	0.238215	0.000044
O43	O	1.705486	-0.526064	0.000359
C44	C	1.713529	-0.480887	0.126501
H45	H	1.647963	-0.499904	0.214682
H46	H	1.684370	-0.418784	0.097976
C47	C	1.930802	-0.466381	0.075404
C48	C	1.850281	-0.489743	0.183713
H49	H	2.015158	-0.471840	0.110692
H50	H	1.925383	-0.496815	-0.009584
H51	H	1.906488	-0.414630	0.051642
H52	H	1.874586	-0.541495	0.207460
H53	H	1.855708	-0.459317	0.268707
H54	H	1.327939	0.203863	0.639187
O55	O	1.314415	0.211947	0.349165
C56	C	1.238891	0.256941	0.449705
H57	H	1.290381	0.258093	0.559000
H58	H	1.145688	0.231841	0.466036
C59	C	1.149499	0.337026	0.255593
C60	C	1.212745	0.338446	0.389827
H61	H	1.133365	0.387302	0.218656
H62	H	1.200377	0.306712	0.187856
H63	H	1.071837	0.316106	0.269220
H64	H	1.290411	0.359357	0.376195
H65	H	1.161879	0.368766	0.457561
H66	H	1.278912	-0.246289	0.000056
H67	H	0.891873	-0.015484	0.000152
H68	H	1.697927	-0.133614	0.000137
O69	O	1.254371	-0.492864	-0.000208
C70	C	1.248745	-0.446672	-0.126355
H71	H	1.313061	-0.475239	-0.214528
H72	H	1.281060	-0.389094	-0.097832
C73	C	1.033075	-0.400317	-0.075277
C74	C	1.112060	-0.435406	-0.183577
H75	H	0.948761	-0.393364	-0.110572
H76	H	1.036865	-0.431435	0.009714
H77	H	1.060019	-0.352339	-0.051517
H78	H	1.085126	-0.483387	-0.207322
H79	H	1.108262	-0.404296	-0.268574
H80	H	1.694125	-0.276847	0.000116
H81	H	1.129514	-0.011692	0.000108
H82	H	1.683575	-0.674231	0.000100
O83	O	1.651839	0.010773	0.349177
C84	C	1.727377	-0.034213	0.449732
H85	H	1.675905	-0.035352	0.559041
H86	H	1.820586	-0.009115	0.466017
C87	C	1.816727	-0.114320	0.255657
C88	C	1.753504	-0.115724	0.389910
H89	H	1.832849	-0.164599	0.218755
H90	H	1.765840	-0.084011	0.187910
H91	H	1.894394	-0.093402	0.269247
H92	H	1.675832	-0.136634	0.376315
H93	H	1.804379	-0.146040	0.457654
O94	O	1.651872	0.010957	0.651390
C95	C	1.729240	0.051927	0.740037
H96	H	1.679038	0.110871	0.763003
H97	H	1.822025	0.057593	0.680929
C98	C	1.817891	-0.062989	0.857487
C99	C	1.756227	0.009404	0.885705
H100	H	1.834543	-0.089221	0.947339
H101	H	1.765771	-0.090593	0.797760
H102	H	1.895204	-0.058258	0.808227
H103	H	1.678908	0.004671	0.934947
H104	H	1.808335	0.037006	0.945443
H105	H	1.282705	-0.103043	0.000070
H106	H	1.268354	-0.643657	0.000058
