data_functionalizedCrystal
_audit_creation_method	'MofGen! by Chris Wilmer'
_symmetry_space_group_name_H-M	'P1'
_symmetry_Int_Tables_number	1
_symmetry_cell_setting	triclinic
loop_
_symmetry_equiv_pos_as_xyz
  x,y,z
_cell_length_a	19.288835
_cell_length_b	19.288865
_cell_length_c	18.366186
_cell_angle_alpha	89.988521
_cell_angle_beta	90.017524
_cell_angle_gamma	96.869897
loop_
_atom_site_label
_atom_site_type_symbol
_atom_site_fract_x
_atom_site_fract_y
_atom_site_fract_z
O1	O	-0.921366	0.086549	-0.060701
O2	O	-0.588033	0.419882	0.272633
O3	O	-0.254699	0.753216	0.605966
O4	O	-0.719102	0.098260	-0.060672
O5	O	-0.385769	0.431593	0.272661
O6	O	-0.052436	0.764926	0.605995
O7	O	-0.826079	-0.008727	-0.060673
O8	O	-0.492745	0.324607	0.272661
O9	O	-0.159412	0.657940	0.605994
O10	O	-0.814390	0.193535	-0.060700
O11	O	-0.481056	0.526869	0.272633
O12	O	-0.147723	0.860202	0.605967
O13	O	-0.826061	-0.008732	0.060427
O14	O	-0.492727	0.324602	0.393760
O15	O	-0.159394	0.657935	0.727093
O16	O	-0.719084	0.098255	0.060427
O17	O	-0.385751	0.431588	0.393761
O18	O	-0.052418	0.764921	0.727094
O19	O	-0.921348	0.086544	0.060399
O20	O	-0.588015	0.419877	0.393732
O21	O	-0.254681	0.753211	0.727065
Zn22	Zn	-0.820213	0.092398	0.079640
Zn23	Zn	-0.486880	0.425732	0.412974
Zn24	Zn	-0.153547	0.759065	0.746307
Zn25	Zn	-0.820237	0.092405	-0.079913
Zn26	Zn	-0.486904	0.425739	0.253420
Zn27	Zn	-0.153570	0.759072	0.586753
O28	O	-0.814372	0.193530	0.060399
O29	O	-0.481038	0.526864	0.393733
O30	O	-0.147705	0.860197	0.727066
C31	C	-0.693217	0.097884	-0.000118
C32	C	-0.359883	0.431217	0.333215
C33	C	-0.026550	0.764550	0.666548
C34	C	-0.616112	0.096763	-0.000107
C35	C	-0.282779	0.430096	0.333227
C36	C	0.050555	0.763430	0.666560
C37	C	-0.825694	-0.034606	-0.000121
C38	C	-0.492360	0.298728	0.333212
C39	C	-0.159027	0.632061	0.666546
C40	C	-0.824565	-0.111709	-0.000114
C41	C	-0.491231	0.221624	0.333219
C42	C	-0.157898	0.554958	0.666552
C43	C	-0.579918	0.096228	-0.066119
C44	C	-0.246585	0.429561	0.267214
C45	C	0.086748	0.762894	0.600548
C46	C	-0.507471	0.095167	-0.066126
C47	C	-0.174138	0.428500	0.267207
C48	C	0.159196	0.761834	0.600541
C49	C	-0.471222	0.094628	-0.000117
C50	C	-0.137889	0.427961	0.333216
C51	C	0.195444	0.761294	0.666549
C52	C	-0.507424	0.095167	0.065904
C53	C	-0.174091	0.428501	0.399237
C54	C	0.159242	0.761834	0.732570
C55	C	-0.579869	0.096235	0.065909
C56	C	-0.246536	0.429568	0.399242
C57	C	0.086798	0.762902	0.732576
C58	C	-0.361887	0.052250	0.050452
C59	C	-0.028554	0.385583	0.383786
C60	C	0.304780	0.718916	0.717119
C61	C	-0.289444	0.051178	0.050444
C62	C	0.043889	0.384511	0.383778
C63	C	0.377223	0.717844	0.717111
C64	C	-0.247778	0.091338	-0.000131
C65	C	0.085555	0.424671	0.333203
C66	C	0.418888	0.758004	0.666536
C67	C	-0.278565	0.132561	-0.050710
C68	C	0.054768	0.465894	0.282623
C69	C	0.388101	0.799227	0.615957
C70	C	-0.351010	0.133628	-0.050705
C71	C	-0.017677	0.466962	0.282629
C72	C	0.315657	0.800295	0.615962
C73	C	-0.392668	0.093470	-0.000116
C74	C	-0.059335	0.426804	0.333218
C75	C	0.273999	0.760137	0.666551
C76	C	-0.133029	0.089653	-0.066155
C77	C	0.200304	0.422986	0.267178
C78	C	0.533638	0.756320	0.600512
C79	C	-0.060580	0.088597	-0.066159
C80	C	0.272753	0.421930	0.267174
C81	C	0.606087	0.755263	0.600507
C82	C	-0.060536	0.088590	0.065872
C83	C	0.272798	0.421923	0.399206
C84	C	0.606131	0.755257	0.732539
C85	C	-0.132982	0.089653	0.065875
C86	C	0.200351	0.422987	0.399208
C87	C	0.533684	0.756320	0.732541
C88	C	-0.169225	0.090181	-0.000141
C89	C	0.164108	0.423515	0.333192
C90	C	0.497442	0.756848	0.666526
C91	C	-0.887333	-0.156412	-0.000120
C92	C	-0.554000	0.176921	0.333214
C93	C	-0.220667	0.510255	0.666547
C94	C	-0.886273	-0.228859	-0.000131
C95	C	-0.552939	0.104474	0.333202
C96	C	-0.219606	0.437808	0.666536
C97	C	-0.822440	-0.256600	-0.000122
C98	C	-0.489106	0.076734	0.333211
C99	C	-0.155773	0.410067	0.666544
C100	C	-0.759663	-0.211887	-0.000121
C101	C	-0.426329	0.121447	0.333212
C102	C	-0.092996	0.454780	0.666546
C103	C	-0.760725	-0.139441	-0.000117
C104	C	-0.427392	0.193892	0.333216
C105	C	-0.094058	0.527225	0.666550
C106	C	-0.772253	-0.364883	0.042303
C107	C	-0.438920	-0.031550	0.375637
C108	C	-0.105586	0.301783	0.708970
C109	C	-0.771193	-0.437328	0.042304
C110	C	-0.437860	-0.103995	0.375637
C111	C	-0.104526	0.229339	0.708970
C112	C	-0.819160	-0.480045	-0.000138
C113	C	-0.485827	-0.146712	0.333195
C114	C	-0.152493	0.186622	0.666528
C115	C	-0.868198	-0.450310	-0.042571
C116	C	-0.534865	-0.116977	0.290762
C117	C	-0.201532	0.216356	0.624096
C118	C	-0.869261	-0.377865	-0.042567
C119	C	-0.535928	-0.044532	0.290766
C120	C	-0.202594	0.288802	0.624100
C121	C	-0.821280	-0.335154	-0.000127
C122	C	-0.487947	-0.001820	0.333206
C123	C	-0.154614	0.331513	0.666539
C124	C	-0.880783	-0.603304	-0.000157
C125	C	-0.547450	-0.269970	0.333176
C126	C	-0.214116	0.063363	0.666510
C127	C	-0.879720	-0.675752	-0.000173
C128	C	-0.546386	-0.342418	0.333161
C129	C	-0.213053	-0.009085	0.666494
C130	C	-0.753108	-0.658778	-0.000156
C131	C	-0.419774	-0.325445	0.333178
C132	C	-0.086441	0.007889	0.666511
C133	C	-0.754173	-0.586332	-0.000147
C134	C	-0.420839	-0.252998	0.333186
C135	C	-0.087506	0.080335	0.666520
C136	C	-0.818012	-0.558599	-0.000144
C137	C	-0.484679	-0.225266	0.333189
C138	C	-0.151346	0.108068	0.666522
C139	C	0.052767	0.086924	-0.000151
C140	C	0.386100	0.420258	0.333183
C141	C	0.719433	0.753591	0.666516
C142	C	-0.024336	0.088059	-0.000150
C143	C	0.308997	0.421392	0.333183
C144	C	0.642331	0.754725	0.666517
C145	C	-0.814757	0.219409	-0.000154
C146	C	-0.481424	0.552743	0.333179
C147	C	-0.148090	0.886076	0.666513
C148	C	-0.815886	0.296513	-0.000165
C149	C	-0.482553	0.629846	0.333168
C150	C	-0.149219	0.963179	0.666501
N151	N	-0.820202	0.092393	0.188531
N152	N	-0.486869	0.425727	0.521865
N153	N	-0.153535	0.759060	0.855198
N154	N	-0.820254	0.092405	-0.188805
N155	N	-0.486921	0.425738	0.144529
N156	N	-0.153587	0.759072	0.477862
C157	C	-0.867587	0.045043	0.226631
C158	C	-0.534253	0.378376	0.559965
C159	C	-0.200920	0.711710	0.893298
C160	C	-0.867591	0.045040	0.302859
C161	C	-0.534258	0.378373	0.636193
C162	C	-0.200924	0.711706	0.969526
C163	C	-0.820217	0.092399	0.340984
C164	C	-0.486884	0.425732	0.674317
C165	C	-0.153551	0.759066	1.007651
C166	C	-0.772824	0.139753	0.302875
C167	C	-0.439491	0.473086	0.636208
C168	C	-0.106157	0.806420	0.969541
C169	C	-0.772816	0.139750	0.226648
C170	C	-0.439483	0.473083	0.559982
C171	C	-0.106150	0.806417	0.893315
C172	C	-0.810919	0.155688	0.461737
C173	C	-0.477586	0.489021	0.795070
C174	C	-0.144252	0.822355	1.128403
C175	C	-0.810932	0.155692	0.537962
C176	C	-0.477598	0.489025	0.871295
C177	C	-0.144265	0.822358	1.204628
C178	C	-0.820237	0.092408	0.576092
C179	C	-0.486904	0.425741	0.909425
C180	C	-0.153571	0.759074	1.242758
C181	C	-0.829545	0.029117	0.537987
C182	C	-0.496212	0.362451	0.871321
C183	C	-0.162878	0.695784	1.204654
C184	C	-0.829537	0.029114	0.461761
C185	C	-0.496204	0.362448	0.795094
C186	C	-0.162871	0.695781	1.128427
C187	C	-0.820220	0.092407	0.423639
C188	C	-0.486887	0.425740	0.756972
C189	C	-0.153554	0.759074	1.090305
C190	C	-0.867629	0.045050	0.696847
C191	C	-0.534296	0.378383	1.030180
C192	C	-0.200962	0.711717	1.363513
C193	C	-0.867629	0.045046	0.773076
C194	C	-0.534295	0.378379	1.106409
C195	C	-0.200962	0.711713	1.439742
C196	C	-0.772865	0.139765	0.773090
C197	C	-0.439532	0.473098	1.106423
C198	C	-0.106198	0.806432	1.439757
C199	C	-0.772862	0.139763	0.696862
C200	C	-0.439529	0.473096	1.030196
C201	C	-0.106196	0.806430	1.363529
C202	C	-0.820248	0.092406	0.658745
C203	C	-0.486915	0.425740	0.992078
C204	C	-0.153581	0.759073	1.325412
H205	H	-0.609423	0.096658	-0.119874
H206	H	-0.276089	0.429991	0.213459
H207	H	0.057244	0.763324	0.546792
C208	C	-0.923197	-0.345159	-0.089248
C209	C	-0.589864	-0.011825	0.244085
C210	C	-0.256530	0.321508	0.577419
N211	N	-0.963820	-0.320524	-0.124412
N212	N	-0.630487	0.012809	0.208921
N213	N	-0.297154	0.346142	0.542255
H214	H	-0.477906	0.094730	0.119649
H215	H	-0.144572	0.428063	0.452982
H216	H	0.188761	0.761397	0.786315
C217	C	-0.255584	0.005838	0.106088
C218	C	0.077749	0.339172	0.439421
C219	C	0.411082	0.672505	0.772754
N220	N	-0.230083	-0.028309	0.148003
N221	N	0.103251	0.305024	0.481336
N222	N	0.436584	0.638358	0.814670
C223	C	-0.920964	-0.497294	-0.089264
C224	C	-0.587631	-0.163960	0.244069
C225	C	-0.254297	0.169373	0.577402
N226	N	-0.960706	-0.532685	-0.124432
N227	N	-0.627372	-0.199351	0.208901
N228	N	-0.294039	0.133982	0.542235
H229	H	-0.709609	-0.103043	-0.000112
H230	H	-0.376276	0.230290	0.333221
H231	H	-0.042943	0.563623	0.666554
C232	C	-0.467651	0.094573	-0.138748
C233	C	-0.134317	0.427906	0.194586
C234	C	0.199016	0.761240	0.527919
N235	N	-0.437660	0.094124	-0.193446
N236	N	-0.104327	0.427457	0.139887
N237	N	0.229007	0.760790	0.473220
C238	C	-0.020767	0.088004	-0.138782
C239	C	0.312566	0.421338	0.194551
C240	C	0.645899	0.754671	0.527884
N241	N	0.009220	0.087556	-0.193483
N242	N	0.342553	0.420889	0.139850
N243	N	0.675886	0.754222	0.473184
C244	C	-0.172897	0.090246	-0.138773
C245	C	0.160437	0.423580	0.194560
C246	C	0.493770	0.756913	0.527894
N247	N	-0.202923	0.090696	-0.193469
N248	N	0.130410	0.424029	0.139864
N249	N	0.463744	0.757363	0.473197
C250	C	-0.020666	0.087998	0.138483
C251	C	0.312667	0.421331	0.471817
C252	C	0.646001	0.754665	0.805150
N253	N	0.009367	0.087553	0.193176
N254	N	0.342701	0.420887	0.526509
N255	N	0.676034	0.754220	0.859842
H256	H	-0.731260	-0.461531	0.076851
H257	H	-0.397927	-0.128198	0.410184
H258	H	-0.064593	0.205135	0.743518
H259	H	-0.162452	0.090085	0.119629
H260	H	0.170881	0.423418	0.452962
H261	H	0.504215	0.756752	0.786296
H262	H	-0.932765	-0.580723	-0.000158
H263	H	-0.599432	-0.247390	0.333175
H264	H	-0.266098	0.085944	0.666509
C265	C	-0.689446	-0.242403	-0.000106
C266	C	-0.356113	0.090930	0.333227
C267	C	-0.022779	0.424264	0.666560
N268	N	-0.636557	-0.265387	-0.000096
N269	N	-0.303223	0.067946	0.333238
N270	N	0.030110	0.401279	0.666571
C271	C	-0.800682	0.225310	0.419801
C272	C	-0.467349	0.558643	0.753135
C273	C	-0.134015	0.891976	1.086468
N274	N	-0.792972	0.277747	0.388217
N275	N	-0.459638	0.611081	0.721550
N276	N	-0.126305	0.944414	1.054883
C277	C	-0.919727	-0.007044	0.344778
C278	C	-0.586393	0.326289	0.678111
C279	C	-0.253060	0.659622	1.011444
N280	N	-0.958998	-0.046272	0.376349
N281	N	-0.625665	0.287062	0.709682
N282	N	-0.292331	0.620395	1.043015
H283	H	-0.395806	0.019545	0.091640
H284	H	-0.062473	0.352878	0.424973
H285	H	0.270861	0.686211	0.758307
C286	C	-0.800686	0.225312	0.579869
C287	C	-0.467353	0.558645	0.913202
C288	C	-0.134020	0.891978	1.246536
N289	N	-0.792965	0.277752	0.611432
N290	N	-0.459632	0.611085	0.944766
N291	N	-0.126298	0.944418	1.278099
H292	H	-0.376074	0.167195	-0.091886
H293	H	-0.042740	0.500529	0.241447
H294	H	0.290593	0.833862	0.574780
H295	H	-0.930836	-0.712149	-0.000181
H296	H	-0.597502	-0.378816	0.333152
H297	H	-0.264169	-0.045482	0.666485
C298	C	-0.720717	0.191872	0.184737
C299	C	-0.387384	0.525205	0.518070
C300	C	-0.054051	0.858538	0.851404
N301	N	-0.681487	0.231142	0.153168
N302	N	-0.348154	0.564475	0.486502
N303	N	-0.014820	0.897808	0.819835
H304	H	-0.939316	-0.133837	-0.000120
H305	H	-0.605983	0.199496	0.333213
H306	H	-0.272650	0.532829	0.666547
C307	C	-0.232737	0.176745	-0.106343
C308	C	0.100596	0.510079	0.226990
C309	C	0.433929	0.843412	0.560324
N310	N	-0.198217	0.210024	-0.148244
N311	N	0.135117	0.543357	0.185089
N312	N	0.468450	0.876691	0.518423
C313	C	-0.619684	0.096818	0.138531
C314	C	-0.286351	0.430152	0.471864
C315	C	0.046982	0.763485	0.805197
N316	N	-0.649674	0.097255	0.193231
N317	N	-0.316341	0.430588	0.526564
N318	N	0.016992	0.763922	0.859897
H319	H	-0.701133	-0.681363	-0.000152
H320	H	-0.367800	-0.348030	0.333181
H321	H	-0.034467	-0.014697	0.666514
H322	H	-0.937388	-0.265263	-0.000138
H323	H	-0.604055	0.068070	0.333195
H324	H	-0.270721	0.401403	0.666528
H325	H	-0.906169	0.006481	0.195599
H326	H	-0.572836	0.339814	0.528932
H327	H	-0.239502	0.673147	0.862265
H328	H	-0.703059	-0.549933	-0.000139
H329	H	-0.369726	-0.216600	0.333195
H330	H	-0.036393	0.116734	0.666528
H331	H	-0.837114	-0.022419	0.430739
H332	H	-0.503781	0.310915	0.764073
H333	H	-0.170447	0.644248	1.097406
C334	C	-0.719485	-0.317901	0.088999
C335	C	-0.386151	0.015432	0.422332
C336	C	-0.052818	0.348765	0.755666
N337	N	-0.679742	-0.282516	0.124171
N338	N	-0.346409	0.050818	0.457504
N339	N	-0.013075	0.384151	0.790837
H340	H	-0.837122	-0.022415	0.569031
H341	H	-0.503789	0.310919	0.902364
H342	H	-0.170455	0.644252	1.235698
C343	C	-0.919747	-0.007049	0.654915
C344	C	-0.586414	0.326284	0.988248
C345	C	-0.253081	0.659617	1.321582
N346	N	-0.959002	-0.046292	0.623334
N347	N	-0.625669	0.287041	0.956668
N348	N	-0.292336	0.620375	1.290001
H349	H	-0.906213	0.006484	0.804097
H350	H	-0.572879	0.339817	1.137431
H351	H	-0.239546	0.673151	1.470764
C352	C	-0.720754	0.191862	0.815023
C353	C	-0.387421	0.525195	1.148356
C354	C	-0.054087	0.858528	1.481690
N355	N	-0.681502	0.231102	0.846611
N356	N	-0.348169	0.564435	1.179944
N357	N	-0.014835	0.897768	1.513277
C358	C	-0.720785	0.191903	0.654950
C359	C	-0.387452	0.525236	0.988284
C360	C	-0.054118	0.858570	1.321617
N361	N	-0.681573	0.231193	0.623383
N362	N	-0.348240	0.564526	0.956716
N363	N	-0.014906	0.897859	1.290050
H364	H	-0.734251	0.178312	0.333920
H365	H	-0.400917	0.511646	0.667253
H366	H	-0.067584	0.844979	1.000587
