data_functionalizedCrystal
_audit_creation_method	'MofGen! by Chris Wilmer'
_symmetry_space_group_name_H-M	'P1'
_symmetry_Int_Tables_number	1
_symmetry_cell_setting	triclinic
loop_
_symmetry_equiv_pos_as_xyz
  x,y,z
_cell_length_a	17.699077
_cell_length_b	15.944551
_cell_length_c	16.776229
_cell_angle_alpha	89.992397
_cell_angle_beta	89.993415
_cell_angle_gamma	83.389657
loop_
_atom_site_label
_atom_site_type_symbol
_atom_site_fract_x
_atom_site_fract_y
_atom_site_fract_z
O1	O	1.004263	0.106198	-0.066279
O2	O	0.783907	0.120023	-0.066283
O3	O	0.900102	-0.009177	-0.066274
O4	O	0.888068	0.235398	-0.066289
O5	O	0.900087	-0.009185	0.066302
O6	O	0.783892	0.120015	0.066293
O7	O	1.004247	0.106190	0.066297
Zn8	Zn	0.894067	0.113101	0.087345
Zn9	Zn	0.894087	0.113112	-0.087331
O10	O	0.888052	0.235390	0.066288
C11	C	0.755702	0.119524	0.000004
C12	C	0.671681	0.118041	0.000003
C13	C	0.632204	0.117337	0.072271
C14	C	0.553259	0.115930	0.072272
C15	C	0.513792	0.115232	0.000004
C16	C	0.553274	0.115933	-0.072270
C17	C	0.632219	0.117334	-0.072270
C18	C	0.234902	0.110280	-0.072271
C19	C	0.155951	0.108882	-0.072265
C20	C	0.155942	0.108876	0.072271
C21	C	0.234886	0.110277	0.072271
C22	C	0.274362	0.110974	-0.000002
C23	C	0.359964	0.112498	-0.000002
C24	C	0.428191	0.113714	0.000003
C25	C	0.899595	-0.040474	0.000014
C26	C	0.898097	-0.133717	0.000015
C27	C	0.822494	-0.348413	0.000002
C28	C	0.857594	-0.409509	0.065371
C29	C	0.895388	-0.304437	0.000009
C30	C	0.857626	-0.409484	-0.065339
C31	C	0.892765	-0.469344	-0.000001
C32	C	0.930508	-0.364305	0.065431
C33	C	0.930530	-0.364274	-0.065337
C34	C	0.965683	-0.425352	0.000048
C35	C	0.896896	-0.209438	0.000015
C36	C	0.891261	-0.564342	-0.000001
C37	C	1.032453	0.106689	0.000008
C38	C	1.116474	0.108172	0.000004
C39	C	0.888559	0.266687	-0.000002
C40	C	0.890057	0.359930	-0.000008
N41	N	0.894059	0.113094	0.206556
N42	N	0.894102	0.113113	-0.206542
C43	C	0.945526	0.055907	0.248277
C44	C	0.945530	0.055907	0.331729
C45	C	0.894070	0.113097	0.373459
C46	C	0.842598	0.170286	0.331732
C47	C	0.842591	0.170282	0.248281
C48	C	0.842625	0.170302	0.668279
C49	C	0.842638	0.170304	0.751735
C50	C	0.945564	0.055927	0.751727
C51	C	0.945557	0.055923	0.668276
C52	C	0.894083	0.113109	0.626557
C53	C	0.894078	0.113108	0.536068
C54	C	0.894078	0.113103	0.463945
H55	H	0.521135	0.115359	-0.131112
C56	C	0.112536	0.108107	-0.151766
C57	C	0.131985	0.035384	-0.211376
C58	C	0.088570	0.034610	-0.290871
C59	C	0.025706	0.106559	-0.310756
C60	C	0.006254	0.179287	-0.251144
C61	C	0.049670	0.180061	-0.171649
H62	H	0.178523	-0.017881	-0.196657
H63	H	0.102969	-0.019228	-0.334999
H64	H	-0.006433	0.105986	-0.369603
H65	H	-0.040284	0.232552	-0.265863
H66	H	0.035270	0.233899	-0.127521
H67	H	0.267034	0.110845	-0.131121
C68	C	0.972114	-0.337399	0.140175
C69	C	1.055689	-0.372447	0.154937
C70	C	1.097291	-0.345539	0.229680
C71	C	1.055319	-0.283582	0.289659
C72	C	0.971739	-0.248531	0.274899
C73	C	0.930136	-0.275439	0.200156
H74	H	1.086763	-0.418314	0.110535
H75	H	1.159163	-0.371487	0.240606
H76	H	1.086115	-0.263663	0.344988
H77	H	0.940664	-0.202663	0.319301
H78	H	0.868265	-0.249491	0.189229
H79	H	0.987438	0.009341	0.365698
C80	C	0.815937	-0.436595	0.140027
C81	C	0.845687	-0.417677	0.223613
C82	C	0.804025	-0.444758	0.298265
C83	C	0.732613	-0.490757	0.289332
C84	C	0.702860	-0.509677	0.205743
C85	C	0.744522	-0.482597	0.131091
H86	H	0.898554	-0.383624	0.230229
H87	H	0.826051	-0.430751	0.360143
H88	H	0.701772	-0.510804	0.344594
H89	H	0.649993	-0.543731	0.199127
H90	H	0.722496	-0.496603	0.069213
H91	H	1.026241	-0.458640	0.000086
H92	H	0.961341	-0.344206	-0.120603
C93	C	0.740759	-0.303235	0.000084
C94	C	0.672616	-0.355201	0.000862
C95	C	0.590884	-0.310022	0.000948
C96	C	0.577295	-0.212878	0.000257
C97	C	0.645440	-0.160906	-0.000521
C98	C	0.727172	-0.206085	-0.000607
H99	H	0.682673	-0.427119	0.001373
H100	H	0.540438	-0.348496	0.001523
H101	H	0.516792	-0.179434	0.000320
H102	H	0.635383	-0.088989	-0.001033
H103	H	0.777618	-0.167612	-0.001183
H104	H	0.664360	0.117909	-0.131118
C105	C	1.002162	-0.006988	0.622374
C106	C	1.058773	-0.069899	0.668264
C107	C	1.115377	-0.132813	0.622362
C108	C	1.115368	-0.132817	0.530569
C109	C	1.058755	-0.069904	0.484674
C110	C	1.002151	-0.006990	0.530576
H111	H	1.058782	-0.069898	0.736219
H112	H	1.157286	-0.179385	0.656337
H113	H	1.157269	-0.179390	0.496590
H114	H	1.058747	-0.069905	0.416719
H115	H	0.960242	0.039583	0.496601
C116	C	0.815973	-0.436529	-0.139997
C117	C	0.732169	-0.402138	-0.154339
C118	C	0.690510	-0.429179	-0.228992
C119	C	0.732654	-0.490611	-0.289302
C120	C	0.816462	-0.525006	-0.274962
C121	C	0.858122	-0.497965	-0.200309
H122	H	0.700967	-0.356660	-0.109692
H123	H	0.628469	-0.403718	-0.239608
H124	H	0.701815	-0.510629	-0.344565
H125	H	0.847664	-0.570484	-0.319609
H126	H	0.920162	-0.523426	-0.189693
H127	H	0.987433	0.009340	0.214306
C128	C	0.786024	0.233212	0.797640
C129	C	0.729401	0.296112	0.751753
C130	C	0.672792	0.359017	0.797658
C131	C	0.672806	0.359022	0.889451
C132	C	0.729431	0.296119	0.935343
C133	C	0.786041	0.233214	0.889438
H134	H	0.729389	0.296111	0.683798
H135	H	0.630874	0.405582	0.763685
H136	H	0.630900	0.405588	0.923432
H137	H	0.729444	0.296121	1.003298
H138	H	0.827958	0.186650	0.923411
H139	H	0.800714	0.216867	0.634317
H140	H	0.987476	0.009360	0.785704
C141	C	0.785990	0.233198	0.377630
C142	C	0.786030	0.233249	0.469422
C143	C	0.729422	0.296165	0.515317
C144	C	0.672775	0.359030	0.469420
C145	C	0.672733	0.358981	0.377622
C146	C	0.729341	0.296065	0.331727
H147	H	0.827966	0.186711	0.503403
H148	H	0.729454	0.296201	0.583272
H149	H	0.630871	0.405604	0.503394
H150	H	0.630797	0.405519	0.343642
H151	H	0.729309	0.296029	0.263772
C152	C	0.675616	0.118110	0.151768
C153	C	0.656157	0.190824	0.211384
C154	C	0.699567	0.191596	0.290882
C155	C	0.762437	0.119652	0.310765
C156	C	0.781899	0.046932	0.251147
C157	C	0.738488	0.046161	0.171649
H158	H	0.609614	0.244086	0.196667
H159	H	0.685160	0.245428	0.335015
H160	H	0.794572	0.120223	0.369614
H161	H	0.828441	-0.006330	0.265864
H162	H	0.752896	-0.007672	0.127516
C163	C	0.509839	0.115154	0.151772
C164	C	0.512090	0.188254	0.211388
C165	C	0.468673	0.187473	0.290892
C166	C	0.423005	0.113592	0.310780
C167	C	0.420751	0.040487	0.251162
C168	C	0.464168	0.041267	0.171658
H169	H	0.545898	0.242950	0.196667
H170	H	0.470341	0.241592	0.335025
H171	H	0.390865	0.113014	0.369634
H172	H	0.386943	-0.014209	0.265883
H173	H	0.462500	-0.012851	0.127525
C174	C	0.112517	0.108100	0.151775
C175	C	0.049644	0.180043	0.171646
C176	C	0.006221	0.179270	0.251147
C177	C	0.025670	0.106554	0.310778
C178	C	0.088546	0.034606	0.290908
C179	C	0.131969	0.035379	0.211407
H180	H	0.035244	0.233877	0.127503
H181	H	-0.040324	0.232532	0.265856
H182	H	-0.006474	0.105982	0.369629
H183	H	0.102946	-0.019228	0.335052
H184	H	0.178514	-0.017883	0.196699
H185	H	0.267016	0.110850	0.131119
H186	H	0.800680	0.216848	0.214312
