data_functionalizedCrystal
_audit_creation_method	'MofGen! by Chris Wilmer'
_symmetry_space_group_name_H-M	'P1'
_symmetry_Int_Tables_number	1
_symmetry_cell_setting	triclinic
loop_
_symmetry_equiv_pos_as_xyz
  x,y,z
_cell_length_a	18.050591
_cell_length_b	21.295417
_cell_length_c	21.295411
_cell_angle_alpha	89.971282
_cell_angle_beta	89.977563
_cell_angle_gamma	90.026512
loop_
_atom_site_label
_atom_site_type_symbol
_atom_site_fract_x
_atom_site_fract_y
_atom_site_fract_z
Zn1	Zn	1.135292	-0.250704	-0.356012
Zn2	Zn	1.635292	0.249296	0.143988
Zn3	Zn	1.135194	-0.355969	-0.250737
Zn4	Zn	1.635194	0.144031	0.249263
Zn5	Zn	1.011108	-0.250710	-0.250746
Zn6	Zn	1.511108	0.249290	0.249254
Zn7	Zn	1.011054	-0.355932	-0.355958
Zn8	Zn	1.511054	0.144068	0.144042
O9	O	1.073162	-0.303329	-0.303363
O10	O	1.573162	0.196671	0.196637
O11	O	1.239203	-0.264681	-0.342066
O12	O	1.739203	0.235319	0.157934
O13	O	1.118716	-0.342024	-0.162649
O14	O	1.618716	0.157976	0.337351
O15	O	1.027644	-0.162620	-0.264736
O16	O	1.527644	0.337380	0.235264
O17	O	1.239132	-0.342018	-0.264721
O18	O	1.739132	0.157982	0.235279
O19	O	1.118882	-0.162615	-0.342074
O20	O	1.618882	0.337385	0.157926
O21	O	1.027550	-0.264691	-0.162655
O22	O	1.527550	0.235309	0.337345
O23	O	0.907176	-0.264655	-0.264684
O24	O	1.407176	0.235345	0.235316
O25	O	1.027553	-0.341955	-0.444055
O26	O	1.527553	0.158045	0.055945
O27	O	0.907137	-0.341961	-0.341983
O28	O	1.407137	0.158039	0.158017
O29	O	1.118830	-0.264645	-0.444094
O30	O	1.618830	0.235355	0.055906
O31	O	1.118664	-0.444053	-0.264669
O32	O	1.618664	0.055947	0.235331
O33	O	1.027458	-0.444026	-0.341974
O34	O	1.527458	0.055974	0.158026
C35	C	0.880210	-0.303305	-0.303329
C36	C	1.380210	0.196695	0.196671
C37	C	0.797664	-0.303310	-0.303329
C38	C	1.297664	0.196690	0.196671
C39	C	1.073065	-0.466880	-0.303329
C40	C	1.573065	0.033120	0.196671
C41	C	1.073091	-0.536849	-0.303335
C42	C	1.573091	-0.036849	0.196665
C43	C	0.598213	-0.261223	-0.261390
C44	C	1.098213	0.238777	0.238610
C45	C	0.548790	-0.318638	-0.245895
C46	C	1.048790	0.181362	0.254105
C47	C	0.646534	-0.303330	-0.303357
C48	C	1.146534	0.196670	0.196643
C49	C	0.548875	-0.245934	-0.318851
C50	C	1.048875	0.254066	0.181149
C51	C	0.500549	-0.303343	-0.303383
C52	C	1.000549	0.196657	0.196617
C53	C	0.598198	-0.360775	-0.287832
C54	C	1.098198	0.139225	0.212168
C55	C	0.598287	-0.288032	-0.360814
C56	C	1.098287	0.211968	0.139186
C57	C	0.548886	-0.345487	-0.345341
C58	C	1.048886	0.154513	0.154659
C59	C	0.730632	-0.303321	-0.303340
C60	C	1.230632	0.196679	0.196660
C61	C	0.416452	-0.303358	-0.303400
C62	C	0.916452	0.196642	0.196600
C63	C	1.120624	-0.569708	-0.263123
C64	C	1.620624	-0.069708	0.236877
C65	C	1.120659	-0.635451	-0.263137
C66	C	1.620659	-0.135451	0.236863
C67	C	1.073147	-0.668331	-0.303356
C68	C	1.573147	-0.168331	0.196644
C69	C	1.025611	-0.635463	-0.343576
C70	C	1.525611	-0.135463	0.156424
C71	C	1.025583	-0.569722	-0.343565
C72	C	1.525583	-0.069722	0.156435
N73	N	1.008180	-0.771593	-0.308144
N74	N	1.508180	-0.271593	0.191856
N75	N	1.008209	-0.834045	-0.308150
N76	N	1.508209	-0.334045	0.191850
C77	C	1.073230	-0.866406	-0.303392
C78	C	1.573230	-0.366406	0.196608
N79	N	1.138223	-0.833956	-0.298616
N80	N	1.638223	-0.333956	0.201384
N81	N	1.138193	-0.771499	-0.298606
N82	N	1.638193	-0.271499	0.201394
C83	C	1.073173	-0.739616	-0.303373
C84	C	1.573173	-0.239616	0.196627
C85	C	1.120805	-0.970551	-0.263194
C86	C	1.620805	-0.470551	0.236806
C87	C	1.120841	-1.036295	-0.263213
C88	C	1.620841	-0.536295	0.236787
C89	C	1.025787	-1.036306	-0.343648
C90	C	1.525787	-0.536306	0.156352
C91	C	1.025758	-0.970563	-0.343633
C92	C	1.525758	-0.470563	0.156367
C93	C	1.073266	-0.937690	-0.303402
C94	C	1.573266	-0.437690	0.196598
C95	C	1.266868	-0.303353	-0.303399
C96	C	1.766868	0.196647	0.196601
C97	C	1.349413	-0.303363	-0.303414
C98	C	1.849413	0.196637	0.196586
C99	C	1.073196	-0.303295	-0.467554
C100	C	1.573196	0.196705	0.032446
C101	C	1.073211	-0.303281	-0.537522
C102	C	1.573211	0.196719	-0.037522
C103	C	1.073280	-0.139138	-0.303412
C104	C	1.573280	0.360862	0.196588
C105	C	1.073330	-0.069170	-0.303433
C106	C	1.573330	0.430830	0.196567
C107	C	1.120764	-0.343418	-1.036977
C108	C	1.620764	0.156582	-0.536977
C109	C	1.120750	-0.343438	-0.971235
C110	C	1.620750	0.156562	-0.471235
C111	C	1.073281	-0.303183	-0.938362
C112	C	1.573281	0.196817	-0.438362
C113	C	1.025808	-0.262916	-0.971236
C114	C	1.525808	0.237084	-0.471236
C115	C	1.025818	-0.262901	-1.036978
C116	C	1.525818	0.237099	-0.536978
N117	N	1.067608	-0.248103	-0.835156
N118	N	1.567608	0.251897	-0.335156
N119	N	1.067604	-0.248119	-0.772704
N120	N	1.567604	0.251881	-0.272704
C121	C	1.073248	-0.303225	-0.740287
C122	C	1.573248	0.196775	-0.240287
N123	N	1.078912	-0.358317	-0.772680
N124	N	1.578912	0.141683	-0.272680
N125	N	1.078921	-0.358300	-0.835137
N126	N	1.578921	0.141700	-0.335137
C127	C	1.073265	-0.303194	-0.867076
C128	C	1.573265	0.196806	-0.367076
C129	C	1.120700	-0.343514	-0.636134
C130	C	1.620700	0.156486	-0.136134
C131	C	1.120681	-0.343536	-0.570391
C132	C	1.620681	0.156464	-0.070391
C133	C	1.025743	-0.263008	-0.570393
C134	C	1.525743	0.236992	-0.070393
C135	C	1.025758	-0.262993	-0.636136
C136	C	1.525758	0.237007	-0.136136
C137	C	1.073240	-0.303245	-0.669002
C138	C	1.573240	0.196755	-0.169002
C139	C	1.073171	-0.303317	-0.139812
C140	C	1.573171	0.196683	0.360188
C141	C	1.073300	-0.303154	-0.069844
C142	C	1.573300	0.196846	0.430156
H143	H	0.527051	-0.331587	-0.197315
H144	H	1.027051	0.168413	0.302685
H145	H	0.987166	-0.230112	-1.063737
H146	H	1.487166	0.269888	-0.563737
H147	H	0.987110	-0.230203	-0.662896
H148	H	1.487110	0.269797	-0.162896
N149	N	0.625404	-0.216599	-0.216832
N150	N	1.125404	0.283401	0.283168
N151	N	0.665047	-0.171898	-0.234740
N152	N	1.165047	0.328102	0.265260
H153	H	0.684252	-0.140384	-0.203271
H154	H	1.184252	0.359616	0.296729
H155	H	0.619774	-0.409334	-0.274684
H156	H	1.119774	0.090666	0.225316
N157	N	1.169176	-0.384651	-0.536806
N158	N	1.669176	0.115349	-0.036806
N159	N	1.169166	-0.384656	-0.478109
N160	N	1.669166	0.115344	0.021891
H161	H	1.203420	-0.413691	-0.454388
H162	H	1.703420	0.086309	0.045612
H163	H	0.527170	-0.197396	-0.331923
H164	H	1.027170	0.302604	0.168077
H165	H	1.159553	-1.063048	-0.230469
H166	H	1.659553	-0.563048	0.269531
H167	H	0.527364	-0.381143	-0.380842
H168	H	1.027364	0.118857	0.119158
H169	H	0.987049	-0.943807	-0.376374
H170	H	1.487049	-0.443807	0.123626
H171	H	0.986929	-0.662238	-0.376324
H172	H	1.486929	-0.162238	0.123676
H173	H	0.620045	-0.275066	-0.409379
H174	H	1.120045	0.224934	0.090621
H175	H	0.986875	-0.542967	-0.376311
H176	H	1.486875	-0.042967	0.123689
N177	N	1.169155	-0.536140	-0.222027
N178	N	1.669155	-0.036140	0.277973
N179	N	1.211594	-0.565492	-0.186126
N180	N	1.711594	-0.065492	0.313874
H181	H	1.245871	-0.541784	-0.157102
H182	H	1.745871	-0.041784	0.342898
H183	H	0.987157	-0.230141	-0.944467
H184	H	1.487157	0.269859	-0.444467
H185	H	1.159368	-0.662211	-0.230392
H186	H	1.659368	-0.162211	0.269608
H187	H	1.159361	-0.376292	-0.662896
H188	H	1.659361	0.123708	-0.162896
N189	N	1.169344	-0.936957	-0.222122
N190	N	1.669344	-0.436957	0.277878
N191	N	1.169315	-0.878260	-0.222119
N192	N	1.669315	-0.378260	0.277881
H193	H	1.203599	-0.854535	-0.193114
H194	H	1.703599	-0.354535	0.306886
H195	H	0.987106	-1.063076	-0.376398
H196	H	1.487106	-0.563076	0.123602
N197	N	1.169262	-0.384543	-1.070539
N198	N	1.669262	0.115457	-0.570539
N199	N	1.211632	-0.420496	-1.041180
N200	N	1.711632	0.079504	-0.541180
H201	H	1.245882	-0.449544	-1.064883
H202	H	1.745882	0.050456	-0.564883
H203	H	1.159412	-0.376218	-0.944469
H204	H	1.659412	0.123782	-0.444469
N205	N	0.977252	-0.221897	-0.536813
N206	N	1.477252	0.278103	-0.036813
N207	N	0.977246	-0.221917	-0.478116
N208	N	1.477246	0.278083	0.021884
H209	H	0.942995	-0.192884	-0.454396
H210	H	1.442995	0.307116	0.045604
