data_functionalizedCrystal
_audit_creation_method	'MofGen! by Chris Wilmer'
_symmetry_space_group_name_H-M	'P1'
_symmetry_Int_Tables_number	1
_symmetry_cell_setting	triclinic
loop_
_symmetry_equiv_pos_as_xyz
  x,y,z
_cell_length_a	11.792254
_cell_length_b	10.723024
_cell_length_c	9.198806
_cell_angle_alpha	89.997988
_cell_angle_beta	89.996104
_cell_angle_gamma	84.333234
loop_
_atom_site_label
_atom_site_type_symbol
_atom_site_fract_x
_atom_site_fract_y
_atom_site_fract_z
O1	O	-1.507274	-0.171111	0.120887
O2	O	-1.176973	-0.188722	0.120890
O3	O	-1.349743	0.001679	0.120883
O4	O	-1.334505	-0.361513	0.120894
O5	O	-1.349729	0.001680	-0.120902
O6	O	-1.176960	-0.188722	-0.120895
O7	O	-1.507260	-0.171111	-0.120898
Cu8	Cu	-1.342109	-0.179916	-0.142973
Cu9	Cu	-1.342125	-0.179917	0.142966
O10	O	-1.334491	-0.361512	-0.120891
C11	C	-1.348627	0.048176	-0.000008
C12	C	-1.345309	0.186722	-0.000002
C13	C	-1.134673	-0.187612	-0.000002
C14	C	-1.008653	-0.184292	-0.000001
C15	C	-1.549560	-0.172220	-0.000002
C16	C	-1.675581	-0.175541	0.000006
C17	C	-0.906311	-0.181594	0.000005
C18	C	-0.777917	-0.178220	0.000006
C19	C	-1.335607	-0.408009	0.000003
C20	C	-1.338925	-0.546555	0.000007
N21	N	-1.342106	-0.179915	-0.344087
C22	C	-1.441982	0.261956	-0.000001
C23	C	-1.438555	0.405150	0.000004
C24	C	-1.414646	-0.099619	-0.416287
C25	C	-1.414664	-0.099615	-0.583699
N26	N	-1.342137	-0.179908	0.344080
H27	H	-1.527284	0.220355	-0.000011
H28	H	-1.280009	-0.248652	-0.406213
F29	F	-1.495848	-0.009764	-0.664851
F30	F	-1.233809	0.241090	0.000012
F31	F	-1.546732	0.489645	-0.000005
H32	H	-1.280033	-0.248661	-0.593841
H33	H	-1.256161	0.388805	-0.000003
F34	F	-1.495604	-0.009545	-0.335090
