data_functionalizedCrystal
_audit_creation_method	'MofGen! by Chris Wilmer'
_symmetry_space_group_name_H-M	'P1'
_symmetry_Int_Tables_number	1
_symmetry_cell_setting	triclinic
loop_
_symmetry_equiv_pos_as_xyz
  x,y,z
_cell_length_a	12.594517
_cell_length_b	25.639240
_cell_length_c	12.594509
_cell_angle_alpha	89.958690
_cell_angle_beta	89.988522
_cell_angle_gamma	90.028646
loop_
_atom_site_label
_atom_site_type_symbol
_atom_site_fract_x
_atom_site_fract_y
_atom_site_fract_z
Zn1	Zn	1.627143	-0.208192	-0.601484
Zn2	Zn	2.127143	0.291808	-0.101484
Zn3	Zn	1.626982	-0.295635	-0.423464
Zn4	Zn	2.126982	0.204365	0.076536
Zn5	Zn	1.449147	-0.208209	-0.423543
Zn6	Zn	1.949147	0.291791	0.076457
Zn7	Zn	1.449077	-0.295592	-0.601425
Zn8	Zn	1.949077	0.204408	-0.101425
O9	O	1.538088	-0.251907	-0.512479
O10	O	2.038088	0.248093	-0.012479
O11	O	1.776068	-0.219803	-0.577860
O12	O	2.276068	0.280197	-0.077860
O13	O	1.603354	-0.284062	-0.274529
O14	O	2.103354	0.215938	0.225471
O15	O	1.472855	-0.135041	-0.447205
O16	O	1.972855	0.364959	0.052795
O17	O	1.775949	-0.284046	-0.447071
O18	O	2.275949	0.215954	0.052929
O19	O	1.603628	-0.135029	-0.577937
O20	O	2.103628	0.364971	-0.077937
O21	O	1.472699	-0.219831	-0.274587
O22	O	1.972699	0.280169	0.225413
O23	O	1.300192	-0.219790	-0.447148
O24	O	1.800192	0.280210	0.052852
O25	O	1.472737	-0.283974	-0.750379
O26	O	1.972737	0.216026	-0.250379
O27	O	1.300141	-0.283990	-0.577837
O28	O	1.800141	0.216010	-0.077837
O29	O	1.603561	-0.219762	-0.750422
O30	O	2.103561	0.280238	-0.250422
O31	O	1.603286	-0.368794	-0.447014
O32	O	2.103286	0.131206	0.052986
O33	O	1.472580	-0.368763	-0.577761
O34	O	1.972580	0.131237	-0.077761
C35	C	1.261547	-0.251887	-0.512495
C36	C	1.761547	0.248113	-0.012495
C37	C	1.143241	-0.251892	-0.512527
C38	C	1.643241	0.248108	-0.012527
C39	C	1.073991	-0.286878	-0.583472
C40	C	1.573991	0.213122	-0.083472
C41	C	1.003211	-0.239208	-0.609672
C42	C	1.503211	0.260792	-0.109672
C43	C	1.003222	-0.299602	-0.486303
C44	C	1.503222	0.200398	0.013697
C45	C	1.074019	-0.204195	-0.538778
C46	C	1.574019	0.295805	-0.038778
C47	C	1.074037	-0.264622	-0.415365
C48	C	1.574037	0.235378	0.084635
C49	C	1.003289	-0.216918	-0.441528
C50	C	1.503289	0.283082	0.058472
C51	C	1.537937	-0.387750	-0.512396
C52	C	2.037937	0.112250	-0.012396
C53	C	1.537970	-0.445864	-0.512395
C54	C	2.037970	0.054136	-0.012395
C55	C	1.606215	-0.806182	-0.580674
C56	C	2.106215	-0.306182	-0.080674
C57	C	1.606246	-0.860786	-0.580696
C58	C	2.106246	-0.360786	-0.080696
O59	O	1.664091	-0.888985	-0.638663
O60	O	2.164091	-0.388985	-0.138663
N61	N	1.538235	-0.888146	-0.512582
N62	N	2.038235	-0.388146	-0.012582
C63	C	1.470181	-0.860899	-0.444449
C64	C	1.970181	-0.360899	0.055551
O65	O	1.412334	-0.889185	-0.386516
O66	O	1.912334	-0.389185	0.113484
C67	C	1.470145	-0.806296	-0.444434
C68	C	1.970145	-0.306296	0.055566
C69	C	1.538168	-0.778939	-0.512545
C70	C	2.038168	-0.278939	-0.012545
C71	C	1.674232	-0.778825	-0.648780
C72	C	2.174232	-0.278825	-0.148780
C73	C	1.674201	-0.724224	-0.648757
C74	C	2.174201	-0.224224	-0.148757
C75	C	1.606154	-0.696981	-0.580627
C76	C	2.106154	-0.196981	-0.080627
C77	C	1.538138	-0.724338	-0.512521
C78	C	2.038138	-0.224338	-0.012521
C79	C	1.402086	-0.779049	-0.376308
C80	C	1.902086	-0.279049	0.123692
C81	C	1.402055	-0.724442	-0.376299
C82	C	1.902055	-0.224442	0.123701
C83	C	1.470078	-0.697085	-0.444410
C84	C	1.970078	-0.197085	0.055590
C85	C	1.470060	-0.642494	-0.444369
C86	C	1.970060	-0.142494	0.055631
N87	N	1.538071	-0.615134	-0.512483
N88	N	2.038071	-0.115134	-0.012483
C89	C	1.606118	-0.642378	-0.580612
C90	C	2.106118	-0.142378	-0.080612
C91	C	1.470260	-0.975569	-0.444489
C92	C	1.970260	-0.475569	0.055511
C93	C	1.470301	-1.030172	-0.444498
C94	C	1.970301	-0.530172	0.055502
C95	C	1.606365	-1.030055	-0.580746
C96	C	2.106365	-0.530055	-0.080746
C97	C	1.606329	-0.975452	-0.580730
C98	C	2.106329	-0.475452	-0.080730
C99	C	1.538271	-0.948210	-0.512602
C100	C	2.038271	-0.448210	-0.012602
C101	C	1.606050	-0.527713	-0.580557
C102	C	2.106050	-0.027713	-0.080557
C103	C	1.606017	-0.473107	-0.580525
C104	C	2.106017	0.026893	-0.080525
C105	C	1.469949	-0.473228	-0.444281
C106	C	1.969949	0.026772	0.055719
C107	C	1.469986	-0.527829	-0.444309
C108	C	1.969986	-0.027829	0.055691
C109	C	1.538040	-0.555070	-0.512456
C110	C	2.038040	-0.055070	-0.012456
O111	O	1.412242	-0.614261	-0.386434
O112	O	1.912242	-0.114261	0.113566
O113	O	1.663945	-0.614085	-0.638545
O114	O	2.163945	-0.114085	-0.138545
C115	C	1.815708	-0.251927	-0.512463
C116	C	2.315708	0.248073	-0.012463
C117	C	1.934014	-0.251936	-0.512457
C118	C	2.434014	0.248064	-0.012457
C119	C	1.538159	-0.251861	-0.790100
C120	C	2.038159	0.248139	-0.290100
C121	C	1.538189	-0.251842	-0.908406
C122	C	2.038189	0.248158	-0.408406
C123	C	1.538268	-0.115534	-0.512586
C124	C	2.038268	0.384466	-0.012586
C125	C	1.538344	-0.057420	-0.512632
C126	C	2.038344	0.442580	-0.012632
C127	C	1.467056	-0.286747	-0.977635
C128	C	1.967056	0.213253	-0.477635
C129	C	1.564169	-0.299525	-1.048403
C130	C	2.064169	0.200475	-0.548403
C131	C	1.441152	-0.239032	-1.048437
C132	C	1.941152	0.260968	-0.548437
C133	C	1.635353	-0.264645	-0.977615
C134	C	2.135353	0.235355	-0.477615
C135	C	1.512270	-0.204130	-0.977643
C136	C	2.012270	0.295870	-0.477643
C137	C	1.609450	-0.216890	-1.048378
C138	C	2.109450	0.283110	-0.548378
C139	C	1.538078	-0.251915	-0.235938
C140	C	2.038078	0.248085	0.264062
C141	C	1.538254	-0.251787	-0.117633
C142	C	2.038254	0.248213	0.382367
H143	H	1.105039	-0.316409	-0.643544
H144	H	1.605039	0.183591	-0.143544
H145	H	1.359062	-0.228220	-1.079546
H146	H	1.859062	0.271780	-0.579546
H147	H	1.717467	-0.275503	-0.946637
H148	H	2.217467	0.224497	-0.446637
H149	H	1.104987	-0.163854	-0.561022
H150	H	1.604987	0.336146	-0.061022
H151	H	1.490284	-0.163816	-0.946537
H152	H	1.990284	0.336184	-0.446537
H153	H	0.972100	-0.228456	-0.691810
H154	H	1.472100	0.271544	-0.191810
H155	H	1.414604	-0.550104	-0.388840
H156	H	1.914604	-0.050104	0.111160
H157	H	1.406949	-0.316311	-0.946574
H158	H	1.906949	0.183689	-0.446574
H159	H	1.586127	-0.339851	-1.079485
H160	H	2.086127	0.160149	-0.579485
H161	H	1.669702	-0.187348	-1.079244
H162	H	2.169702	0.312652	-0.579244
H163	H	0.972440	-0.187315	-0.381503
H164	H	1.472440	0.312685	0.118497
O165	O	1.115308	-0.278882	-0.306605
O166	O	1.615308	0.221118	0.193395
H167	H	1.087012	-0.318505	-0.285046
H168	H	1.587012	0.181495	0.214954
H169	H	0.972119	-0.339931	-0.464156
H170	H	1.472119	0.160069	0.035844
O171	O	1.328715	-0.808546	-0.302844
O172	O	1.828715	-0.308546	0.197156
H173	H	1.274554	-0.833426	-0.350451
H174	H	1.774554	-0.333426	0.149549
H175	H	1.661413	-0.450835	-0.635988
H176	H	2.161413	0.049165	-0.135988
H177	H	1.729643	-0.801001	-0.704265
H178	H	2.229643	-0.301001	-0.204265
H179	H	1.414549	-0.451038	-0.388808
H180	H	1.914549	0.048962	0.111192
O181	O	1.679456	-0.557091	-0.654048
O182	O	2.179456	-0.057091	-0.154048
H183	H	1.726748	-0.528887	-0.701389
H184	H	2.226748	-0.028887	-0.201389
H185	H	1.729588	-0.701954	-0.704221
H186	H	2.229588	-0.201954	-0.204221
O187	O	1.396941	-1.059677	-0.371030
O188	O	1.896941	-0.559677	0.128970
H189	H	1.349617	-1.031554	-0.323661
H190	H	1.849617	-0.531554	0.176339
H191	H	1.661719	-0.953181	-0.636192
H192	H	2.161719	-0.453181	-0.136192
H193	H	1.661771	-1.052247	-0.636222
H194	H	2.161771	-0.552247	-0.136222
H195	H	1.346631	-0.702264	-0.320822
H196	H	1.846631	-0.202264	0.179178
H197	H	1.414842	-0.953391	-0.389002
H198	H	1.914842	-0.453391	0.110998
