data_functionalizedCrystal
_audit_creation_method	'MofGen! by Chris Wilmer'
_symmetry_space_group_name_H-M	'P1'
_symmetry_Int_Tables_number	1
_symmetry_cell_setting	triclinic
loop_
_symmetry_equiv_pos_as_xyz
  x,y,z
_cell_length_a	13.897449
_cell_length_b	25.639239
_cell_length_c	13.897441
_cell_angle_alpha	89.965695
_cell_angle_beta	89.976606
_cell_angle_gamma	90.039513
loop_
_atom_site_label
_atom_site_type_symbol
_atom_site_fract_x
_atom_site_fract_y
_atom_site_fract_z
Zn1	Zn	1.474562	-0.208123	-0.545425
Zn2	Zn	1.474397	-0.295565	-0.384116
Zn3	Zn	1.313251	-0.208147	-0.384136
Zn4	Zn	1.313174	-0.295530	-0.545361
O5	O	1.393846	-0.251841	-0.464759
O6	O	1.609522	-0.219727	-0.524045
O7	O	1.452984	-0.283994	-0.249137
O8	O	1.334751	-0.134978	-0.405566
O9	O	1.609400	-0.283970	-0.405532
O10	O	1.453265	-0.134961	-0.524065
O11	O	1.334591	-0.219768	-0.249151
O12	O	1.178259	-0.219734	-0.405504
O13	O	1.334619	-0.283910	-0.680351
O14	O	1.178202	-0.283934	-0.523956
O15	O	1.453190	-0.219693	-0.680398
O16	O	1.452909	-0.368726	-0.405470
O17	O	1.334459	-0.368700	-0.523936
C18	C	1.143232	-0.251833	-0.464726
C19	C	1.036018	-0.251842	-0.464734
C20	C	1.393684	-0.387684	-0.464715
C21	C	1.393703	-0.445798	-0.464728
C22	C	0.948948	-0.251844	-0.464750
C23	C	0.839715	-0.251848	-0.464780
C24	C	1.455684	-0.806162	-0.403179
C25	C	1.455721	-0.860766	-0.403192
O26	O	1.508251	-0.889003	-0.350812
N27	N	1.394015	-0.888080	-0.464823
C28	C	1.332275	-0.860787	-0.526452
O29	O	1.279794	-0.889034	-0.578876
C30	C	1.332243	-0.806184	-0.526444
C31	C	1.393946	-0.778873	-0.464801
C32	C	1.517382	-0.778850	-0.341543
C33	C	1.517343	-0.724250	-0.341529
C34	C	1.455606	-0.696961	-0.403151
C35	C	1.393907	-0.724272	-0.464788
C36	C	1.270509	-0.778892	-0.588077
C37	C	1.270483	-0.724285	-0.588063
C38	C	1.332186	-0.696974	-0.526421
C39	C	1.332131	-0.642382	-0.526396
N40	N	1.393837	-0.615068	-0.464765
C41	C	1.455574	-0.642357	-0.403142
C42	C	1.332348	-0.975458	-0.526467
C43	C	1.332374	-1.030060	-0.526472
C44	C	1.455822	-1.030035	-0.403212
C45	C	1.455790	-0.975432	-0.403204
C46	C	1.394054	-0.948144	-0.464836
C47	C	1.455487	-0.527692	-0.403117
C48	C	1.455440	-0.473087	-0.403106
C49	C	1.331997	-0.473117	-0.526369
C50	C	1.332040	-0.527717	-0.526377
C51	C	1.393793	-0.555004	-0.464748
O52	O	1.279630	-0.614110	-0.578752
O53	O	1.508056	-0.614104	-0.350736
C54	C	1.645439	-0.251850	-0.464794
C55	C	1.752653	-0.251853	-0.464808
C56	C	1.393914	-0.251795	-0.716352
C57	C	1.393944	-0.251775	-0.823566
C58	C	1.394035	-0.115468	-0.464825
C59	C	1.394116	-0.057354	-0.464853
C60	C	1.393970	-0.251740	-1.019862
C61	C	1.393952	-0.251761	-0.910629
C62	C	1.393833	-0.251849	-0.214145
C63	C	1.393991	-0.251722	-0.106931
H64	H	1.505775	-0.549902	-0.352935
H65	H	1.282120	-1.052293	-0.576658
O66	O	1.515833	-1.056468	-0.343265
C67	C	1.570312	-1.020658	-0.288876
H68	H	1.530786	-0.981757	-0.285479
H69	H	1.580657	-1.036464	-0.212895
H70	H	1.643546	-1.014797	-0.324273
O71	O	1.272411	-0.949009	-0.586466
C72	C	1.293461	-0.962298	-0.682625
H73	H	1.330572	-1.001920	-0.684662
H74	H	1.223822	-0.964194	-0.725808
H75	H	1.343009	-0.931525	-0.715163
O76	O	1.271896	-0.446628	-0.586132
C77	C	1.175772	-0.460037	-0.565001
H78	H	1.170931	-0.475079	-0.487942
H79	H	1.128099	-0.424149	-0.573271
H80	H	1.150556	-0.491725	-0.616704
O81	O	1.210542	-0.805333	-0.648052
C82	C	1.156041	-0.769527	-0.702418
H83	H	1.195533	-0.730583	-0.705769
H84	H	1.145727	-0.785272	-0.778417
H85	H	1.082795	-0.763773	-0.667031
H86	H	1.281799	-0.549955	-0.576574
O87	O	1.515474	-0.446638	-0.343195
C88	C	1.569956	-0.482437	-0.288796
H89	H	1.573298	-0.521342	-0.328322
H90	H	1.645950	-0.466623	-0.278573
H91	H	1.534676	-0.488296	-0.215505
O92	O	1.577383	-0.697804	-0.281629
C93	C	1.631861	-0.733608	-0.227236
H94	H	1.635186	-0.772513	-0.266762
H95	H	1.707862	-0.717801	-0.217024
H96	H	1.596589	-0.739463	-0.153941
H97	H	1.220211	-0.702070	-0.638255
H98	H	1.567662	-0.801063	-0.291362
H99	H	1.506034	-0.953198	-0.353010
