data_functionalizedCrystal
_audit_creation_method	'MofGen! by Chris Wilmer'
_symmetry_space_group_name_H-M	'P1'
_symmetry_Int_Tables_number	1
_symmetry_cell_setting	triclinic
loop_
_symmetry_equiv_pos_as_xyz
  x,y,z
_cell_length_a	15.944499
_cell_length_b	10.268362
_cell_length_c	11.792241
_cell_angle_alpha	89.999626
_cell_angle_beta	83.835512
_cell_angle_gamma	89.997962
loop_
_atom_site_label
_atom_site_type_symbol
_atom_site_fract_x
_atom_site_fract_y
_atom_site_fract_z
O1	O	0.115131	-0.108164	1.505931
O2	O	0.365131	0.141836	1.755931
O3	O	0.615131	0.391836	2.005931
O4	O	0.865131	0.641836	2.255931
O5	O	0.126996	-0.108193	1.175490
O6	O	0.376996	0.141807	1.425490
O7	O	0.626996	0.391807	1.675490
O8	O	0.876996	0.641807	1.925490
O9	O	-0.001173	-0.108180	1.349765
O10	O	0.248827	0.141820	1.599765
O11	O	0.498827	0.391820	1.849765
O12	O	0.748827	0.641820	2.099765
O13	O	0.243301	-0.108177	1.331656
O14	O	0.493301	0.141823	1.581656
O15	O	0.743301	0.391823	1.831656
O16	O	0.993301	0.641823	2.081656
O17	O	-0.001179	0.108421	1.349750
O18	O	0.248821	0.358421	1.599750
O19	O	0.498821	0.608421	1.849750
O20	O	0.748821	0.858421	2.099750
O21	O	0.126991	0.108408	1.175474
O22	O	0.376991	0.358408	1.425474
O23	O	0.626991	0.608408	1.675474
O24	O	0.876991	0.858408	1.925474
O25	O	0.115126	0.108437	1.505916
O26	O	0.365126	0.358437	1.755916
O27	O	0.615126	0.608437	2.005916
O28	O	0.865126	0.858437	2.255916
Cu29	Cu	0.121058	0.128200	1.340694
Cu30	Cu	0.371058	0.378200	1.590694
Cu31	Cu	0.621058	0.628200	1.840694
Cu32	Cu	0.871058	0.878200	2.090694
Cu33	Cu	0.121064	-0.127956	1.340712
Cu34	Cu	0.371064	0.122044	1.590712
Cu35	Cu	0.621064	0.372044	1.840712
Cu36	Cu	0.871064	0.622044	2.090712
O37	O	0.243295	0.108424	1.331641
O38	O	0.493295	0.358424	1.581641
O39	O	0.743295	0.608424	1.831641
O40	O	0.993295	0.858424	2.081641
C41	C	0.126248	0.000103	1.133197
C42	C	0.376248	0.250103	1.383197
C43	C	0.626248	0.500103	1.633197
C44	C	0.876248	0.750103	1.883197
C45	C	0.124017	0.000092	1.007203
C46	C	0.374017	0.250092	1.257203
C47	C	0.624017	0.500092	1.507203
C48	C	0.874017	0.750092	1.757203
C49	C	-0.032474	0.000117	1.349016
C50	C	0.217526	0.250117	1.599016
C51	C	0.467526	0.500117	1.849016
C52	C	0.717526	0.750117	2.099016
C53	C	-0.125732	0.000107	1.346793
C54	C	0.124268	0.250107	1.596793
C55	C	0.374268	0.500107	1.846793
C56	C	0.624268	0.750107	2.096793
N57	N	0.121053	0.308365	1.340690
N58	N	0.371053	0.558365	1.590690
N59	N	0.621053	0.808365	1.840690
N60	N	0.871053	1.058365	2.090690
C61	C	-0.416811	0.000123	1.448042
C62	C	-0.166811	0.250123	1.698042
C63	C	0.083189	0.500123	1.948042
C64	C	0.333189	0.750123	2.198042
C65	C	-0.356026	0.106919	1.395403
C66	C	-0.106026	0.356919	1.645403
C67	C	0.143974	0.606919	1.895403
C68	C	0.393974	0.856919	2.145403
C69	C	-0.461405	0.000122	1.338718
C70	C	-0.211405	0.250122	1.588718
C71	C	0.038595	0.500122	1.838718
C72	C	0.288595	0.750122	2.088718
C73	C	-0.356027	-0.106632	1.395389
C74	C	-0.106027	0.143368	1.645389
C75	C	0.143973	0.393368	1.895389
C76	C	0.393973	0.643368	2.145389
C77	C	-0.296479	0.000112	1.342691
C78	C	-0.046479	0.250112	1.592691
C79	C	0.203521	0.500112	1.842691
C80	C	0.453521	0.750112	2.092691
C81	C	-0.401848	0.107005	1.286048
C82	C	-0.151848	0.357005	1.536048
C83	C	0.098152	0.607005	1.786048
C84	C	0.348152	0.857005	2.036048
C85	C	-0.401856	-0.106642	1.286049
C86	C	-0.151856	0.143358	1.536049
C87	C	0.098144	0.393358	1.786049
C88	C	0.348144	0.643358	2.036049
C89	C	-0.341089	0.000180	1.233330
C90	C	-0.091089	0.250180	1.483330
C91	C	0.158911	0.500180	1.733330
C92	C	0.408911	0.750180	1.983330
C93	C	-0.556416	0.000128	1.336432
C94	C	-0.306416	0.250128	1.586432
C95	C	-0.056416	0.500128	1.836432
C96	C	0.193584	0.750128	2.086432
C97	C	-0.201469	0.000115	1.344969
C98	C	0.048531	0.250115	1.594969
C99	C	0.298531	0.500115	1.844969
C100	C	0.548531	0.750115	2.094969
C101	C	0.274596	0.000124	1.332390
C102	C	0.524596	0.250124	1.582390
C103	C	0.774596	0.500124	1.832390
C104	C	1.024596	0.750124	2.082390
C105	C	0.367854	0.000125	1.334613
C106	C	0.617854	0.250125	1.584613
C107	C	0.867854	0.500125	1.834613
C108	C	1.117854	0.750125	2.084613
N109	N	0.121062	-0.308122	1.340725
N110	N	0.371062	-0.058122	1.590725
N111	N	0.621062	0.191878	1.840725
N112	N	0.871062	0.441878	2.090725
C113	C	0.121062	0.574036	1.340706
C114	C	0.371062	0.824036	1.590706
C115	C	0.621062	1.074036	1.840706
C116	C	0.871062	1.324036	2.090706
C117	C	0.121060	0.426198	1.340693
C118	C	0.371060	0.676198	1.590693
C119	C	0.621060	0.926198	1.840693
C120	C	0.871060	1.176198	2.090693
C121	C	0.119915	0.000129	0.776525
C122	C	0.369915	0.250129	1.026525
C123	C	0.619915	0.500129	1.276525
C124	C	0.869915	0.750129	1.526525
C125	C	0.122195	0.000109	0.904891
C126	C	0.372195	0.250109	1.154891
C127	C	0.622195	0.500109	1.404891
C128	C	0.872195	0.750109	1.654891
C129	C	0.115874	0.000138	1.548208
C130	C	0.365874	0.250138	1.798208
C131	C	0.615874	0.500138	2.048208
C132	C	0.865874	0.750138	2.298208
C133	C	0.118104	0.000141	1.674203
C134	C	0.368104	0.250141	1.924203
C135	C	0.618104	0.500141	2.174203
C136	C	0.868104	0.750141	2.424203
H137	H	-0.449732	0.000234	1.538771
H138	H	-0.199732	0.250234	1.788771
H139	H	0.050268	0.500234	2.038771
H140	H	0.300268	0.750234	2.288771
H141	H	-0.308316	0.000234	1.142523
H142	H	-0.058316	0.250234	1.392523
H143	H	0.191684	0.500234	1.642523
H144	H	0.441684	0.750234	1.892523
H145	H	-0.335729	0.197212	1.441638
H146	H	-0.085729	0.447212	1.691638
H147	H	0.164271	0.697212	1.941638
H148	H	0.414271	0.947212	2.191638
H149	H	-0.422175	-0.196939	1.239853
H150	H	-0.172175	0.053061	1.489853
H151	H	0.077825	0.303061	1.739853
H152	H	0.327825	0.553061	1.989853
H153	H	-0.335736	-0.196911	1.441654
H154	H	-0.085736	0.053089	1.691654
H155	H	0.164264	0.303089	1.941654
H156	H	0.414264	0.553089	2.191654
H157	H	-0.422041	0.197387	1.239839
H158	H	-0.172041	0.447387	1.489839
H159	H	0.077959	0.697387	1.739839
H160	H	0.327959	0.947387	1.989839
