data_functionalizedCrystal
_audit_creation_method	'MofGen! by Chris Wilmer'
_symmetry_space_group_name_H-M	'P1'
_symmetry_Int_Tables_number	1
_symmetry_cell_setting	triclinic
loop_
_symmetry_equiv_pos_as_xyz
  x,y,z
_cell_length_a	10.685741
_cell_length_b	10.685969
_cell_length_c	10.686551
_cell_angle_alpha	90.351934
_cell_angle_beta	89.636396
_cell_angle_gamma	99.045477
loop_
_atom_site_label
_atom_site_type_symbol
_atom_site_fract_x
_atom_site_fract_y
_atom_site_fract_z
Zn1	Zn	-0.610788	-2.022474	-0.605030
Zn2	Zn	-0.277455	-1.689141	-0.271696
Zn3	Zn	0.055879	-1.355808	0.061637
Zn4	Zn	-0.836885	-2.024851	-0.411205
Zn5	Zn	-0.503551	-1.691517	-0.077871
Zn6	Zn	-0.170218	-1.358184	0.255462
Zn7	Zn	-0.608406	-1.796405	-0.411224
Zn8	Zn	-0.275073	-1.463072	-0.077891
Zn9	Zn	0.058260	-1.129739	0.255443
Zn10	Zn	-0.804598	-1.828631	-0.634746
Zn11	Zn	-0.471265	-1.495298	-0.301413
Zn12	Zn	-0.137932	-1.161965	0.031921
O13	O	-0.715169	-1.918090	-0.515551
O14	O	-0.381836	-1.584757	-0.182218
O15	O	-0.048503	-1.251424	0.151116
O16	O	-0.655289	-2.199519	-0.566874
O17	O	-0.321955	-1.866185	-0.233540
O18	O	0.011378	-1.532852	0.099793
O19	O	-0.819092	-1.982055	-0.236546
O20	O	-0.485758	-1.648721	0.096787
O21	O	-0.152425	-1.315388	0.430120
O22	O	-0.431993	-1.811913	-0.424505
O23	O	-0.098659	-1.478579	-0.091171
O24	O	0.234674	-1.145246	0.242162
O25	O	-0.821401	-2.201265	-0.424471
O26	O	-0.488068	-1.867931	-0.091138
O27	O	-0.154734	-1.534598	0.242195
O28	O	-0.433743	-1.978005	-0.566893
O29	O	-0.100409	-1.644671	-0.233559
O30	O	0.232924	-1.311338	0.099774
O31	O	-0.651230	-1.814217	-0.236561
O32	O	-0.317896	-1.480883	0.096773
O33	O	0.015437	-1.147550	0.430106
O34	O	-0.619923	-1.623951	-0.453319
O35	O	-0.286590	-1.290618	-0.119986
O36	O	0.046744	-0.957284	0.213347
O37	O	-0.766374	-1.866837	-0.805465
O38	O	-0.433041	-1.533504	-0.472132
O39	O	-0.099707	-1.200171	-0.138798
O40	O	-0.764064	-1.647627	-0.617540
O41	O	-0.430731	-1.314294	-0.284206
O42	O	-0.097398	-0.980961	0.049127
O43	O	-0.623982	-2.009253	-0.783633
O44	O	-0.290649	-1.675920	-0.450299
O45	O	0.042684	-1.342586	-0.116966
O46	O	-1.009331	-2.013303	-0.453286
O47	O	-0.675998	-1.679970	-0.119953
O48	O	-0.342665	-1.346636	0.213380
O49	O	-0.985611	-1.869141	-0.617521
O50	O	-0.652277	-1.535808	-0.284188
O51	O	-0.318944	-1.202475	0.049146
C52	C	-0.688233	-1.589965	-0.538657
C53	C	-0.354899	-1.256632	-0.205324
C54	C	-0.021566	-0.923299	0.128010
C55	C	-0.676737	-1.449597	-0.548574
C56	C	-0.343404	-1.116263	-0.215240
C57	C	-0.010071	-0.782930	0.118093
C58	C	-0.385762	-1.891099	-0.492386
C59	C	-0.052429	-1.557765	-0.159053
C60	C	0.280904	-1.224432	0.174281
C61	C	-0.245389	-1.879597	-0.482514
C62	C	0.087944	-1.546263	-0.149181
C63	C	0.421278	-1.212930	0.184152
C64	C	-1.043296	-1.945013	-0.538651
C65	C	-0.709962	-1.611680	-0.205318
C66	C	-0.376629	-1.278347	0.128016
C67	C	-1.183676	-1.956649	-0.548567
C68	C	-0.850343	-1.623316	-0.215233
C69	C	-0.517009	-1.289983	0.118100
C70	C	-0.691842	-1.941375	-0.841103
C71	C	-0.358509	-1.608041	-0.507769
C72	C	-0.025176	-1.274708	-0.174436
C73	C	-0.681902	-1.951297	-0.979833
C74	C	-0.348568	-1.617964	-0.646500
C75	C	-0.015235	-1.284630	-0.313167
C76	C	-0.742201	-1.247495	-0.492341
C77	C	-0.408868	-0.914162	-0.159007
C78	C	-0.075534	-0.580828	0.174326
C79	C	-0.753692	-1.387862	-0.482411
C80	C	-0.420358	-1.054529	-0.149078
C81	C	-0.087025	-0.721196	0.184256
C82	C	-0.738320	-1.894962	-0.191254
C83	C	-0.404987	-1.561629	0.142079
C84	C	-0.071654	-1.228295	0.475412
C85	C	-0.747925	-1.885255	-0.052482
C86	C	-0.414592	-1.551922	0.280851
C87	C	-0.081259	-1.218588	0.614185
H88	H	-0.828383	-1.442403	-0.418180
H89	H	-0.495050	-1.109069	-0.084847
H90	H	-0.161717	-0.775736	0.248487
H91	H	-0.617777	-2.015435	-1.023769
H92	H	-0.284444	-1.682102	-0.690436
H93	H	0.048890	-1.348769	-0.357102
N94	N	-0.832889	-1.800302	-0.994293
N95	N	-0.499556	-1.466969	-0.660960
N96	N	-0.166222	-1.133636	-0.327626
H97	H	-0.828190	-1.805015	-0.900112
H98	H	-0.494857	-1.471682	-0.566779
H99	H	-0.161524	-1.138349	-0.233446
H100	H	-0.804219	-1.710102	-1.021987
H101	H	-0.470886	-1.376768	-0.688654
H102	H	-0.137552	-1.043435	-0.355321
N103	N	-0.255929	-2.055701	-0.633472
N104	N	0.077404	-1.722368	-0.300139
N105	N	0.410737	-1.389035	0.033195
H106	H	-0.349329	-2.050158	-0.628723
H107	H	-0.015996	-1.716825	-0.295390
H108	H	0.317337	-1.383491	0.037943
H109	H	-0.224941	-2.040560	-0.722400
H110	H	0.108392	-1.707226	-0.389067
H111	H	0.441726	-1.373893	-0.055734
H112	H	-0.602061	-1.395064	-0.612812
H113	H	-0.268727	-1.061731	-0.279479
H114	H	0.064606	-0.728398	0.053854
H115	H	-0.190829	-1.804827	-0.418403
H116	H	0.142504	-1.471494	-0.085070
H117	H	0.475837	-1.138160	0.248263
