data_functionalizedCrystal
_audit_creation_method	'MofGen! by Chris Wilmer'
_symmetry_space_group_name_H-M	'P1'
_symmetry_Int_Tables_number	1
_symmetry_cell_setting	triclinic
loop_
_symmetry_equiv_pos_as_xyz
  x,y,z
_cell_length_a	23.532407
_cell_length_b	17.699104
_cell_length_c	16.776229
_cell_angle_alpha	90.004353
_cell_angle_beta	90.003071
_cell_angle_gamma	83.070132
loop_
_atom_site_label
_atom_site_type_symbol
_atom_site_fract_x
_atom_site_fract_y
_atom_site_fract_z
O1	O	0.755530	0.091875	0.066240
O2	O	1.255530	0.591875	0.566240
O3	O	0.589705	0.105169	0.066252
O4	O	1.089705	0.605169	0.566252
O5	O	0.677296	-0.011690	0.066239
O6	O	1.177296	0.488310	0.566239
O7	O	0.667939	0.208734	0.066254
O8	O	1.167939	0.708734	0.566254
O9	O	0.677286	-0.011690	-0.066338
O10	O	1.177286	0.488310	0.433662
O11	O	0.589695	0.105169	-0.066324
O12	O	1.089695	0.605169	0.433676
O13	O	0.755520	0.091875	-0.066337
O14	O	1.255520	0.591875	0.433663
Zn15	Zn	0.672606	0.098522	-0.087380
Zn16	Zn	1.172606	0.598522	0.412620
Zn17	Zn	0.672619	0.098522	0.087295
Zn18	Zn	1.172619	0.598522	0.587295
O19	O	0.667929	0.208734	-0.066323
O20	O	1.167929	0.708734	0.433677
C21	C	0.568483	0.104830	-0.000034
C22	C	1.068483	0.604830	0.499966
C23	C	0.505263	0.103813	-0.000030
C24	C	1.005263	0.603813	0.499970
C25	C	0.238881	0.030461	-0.000056
C26	C	0.738881	0.530461	0.499944
C27	C	0.298284	0.031406	-0.000056
C28	C	0.798284	0.531406	0.499944
O29	O	0.334858	-0.026783	-0.000088
O30	O	0.834858	0.473217	0.499912
N31	N	0.321114	0.100879	-0.000046
N32	N	0.821114	0.600879	0.499954
C33	C	0.284537	0.169410	-0.000044
C34	C	0.784537	0.669410	0.499956
O35	O	0.309410	0.228589	-0.000036
O36	O	0.809410	0.728589	0.499964
C37	C	0.225135	0.168464	-0.000050
C38	C	0.725135	0.668464	0.499950
C39	C	0.202309	0.098987	-0.000052
C40	C	0.702309	0.598987	0.499948
C41	C	0.216054	-0.039011	-0.000059
C42	C	0.716054	0.460989	0.499941
C43	C	0.156655	-0.039956	-0.000058
C44	C	0.656655	0.460044	0.499942
C45	C	0.120083	0.028571	-0.000054
C46	C	0.620083	0.528571	0.499946
C47	C	0.142910	0.098042	-0.000051
C48	C	0.642910	0.598042	0.499949
C49	C	0.188559	0.236995	-0.000054
C50	C	0.688559	0.736995	0.499946
C51	C	0.129154	0.236042	-0.000061
C52	C	0.629154	0.736042	0.499939
C53	C	0.106328	0.166565	-0.000063
C54	C	0.606328	0.666565	0.499937
C55	C	0.046939	0.165623	-0.000045
C56	C	0.546939	0.665623	0.499955
N57	N	0.024109	0.096150	-0.000056
N58	N	0.524109	0.596150	0.499944
C59	C	0.060681	0.027624	-0.000060
C60	C	0.560681	0.527624	0.499940
C61	C	0.409285	0.171392	-0.000033
C62	C	0.909285	0.671392	0.499967
C63	C	0.468686	0.172339	-0.000021
C64	C	0.968686	0.672339	0.499979
C65	C	0.482429	0.034335	-0.000035
C66	C	0.982429	0.534335	0.499965
C67	C	0.423027	0.033389	-0.000041
C68	C	0.923027	0.533389	0.499959
C69	C	0.386456	0.101920	-0.000043
C70	C	0.886456	0.601920	0.499957
C71	C	-0.064061	0.025645	-0.000057
C72	C	0.435939	0.525645	0.499943
C73	C	-0.123466	0.024706	-0.000052
C74	C	0.376534	0.524706	0.499948
C75	C	-0.137204	0.162709	-0.000043
C76	C	0.362796	0.662709	0.499957
C77	C	-0.077804	0.163649	-0.000043
C78	C	0.422196	0.663649	0.499957
C79	C	-0.041234	0.095110	-0.000053
C80	C	0.458766	0.595110	0.499947
O81	O	0.010330	0.223781	-0.000017
O82	O	0.510330	0.723781	0.499983
O83	O	0.035800	-0.031545	-0.000078
O84	O	0.535800	0.468455	0.499922
C85	C	0.676954	-0.039885	-0.000050
C86	C	1.176954	0.460115	0.499950
C87	C	0.675942	-0.123897	-0.000050
C88	C	1.175942	0.376103	0.499950
C89	C	0.721649	-0.649000	-0.000031
C90	C	1.221649	-0.149000	0.499969
C91	C	0.722597	-0.570061	-0.000038
C92	C	1.222597	-0.070061	0.499962
C93	C	0.671177	-0.521182	-0.000036
C94	C	1.171177	-0.021182	0.499964
C95	C	0.618807	-0.551246	-0.000035
C96	C	1.118807	-0.051246	0.499965
C97	C	0.617860	-0.630184	-0.000033
C98	C	1.117860	-0.130184	0.499967
C99	C	0.622625	-0.232900	-0.000042
C100	C	1.122625	0.267100	0.499958
C101	C	0.623575	-0.153957	-0.000041
C102	C	1.123575	0.346043	0.499959
C103	C	0.727361	-0.172776	-0.000047
C104	C	1.227361	0.327224	0.499953
C105	C	0.726414	-0.251714	-0.000045
C106	C	1.226414	0.248286	0.499955
C107	C	0.674044	-0.281771	-0.000048
C108	C	1.174044	0.218229	0.499952
C109	C	0.673018	-0.367366	-0.000042
C110	C	1.173018	0.132634	0.499958
C111	C	0.672203	-0.435589	-0.000036
C112	C	1.172203	0.064411	0.499964
C113	C	0.776742	0.092214	-0.000048
C114	C	1.276742	0.592214	0.499952
C115	C	0.839962	0.093232	-0.000048
C116	C	1.339962	0.593232	0.499952
C117	C	0.668271	0.236929	-0.000033
C118	C	1.168271	0.736929	0.499967
C119	C	0.669283	0.320941	-0.000027
C120	C	1.169283	0.820941	0.499973
N121	N	0.672601	0.098521	-0.206591
N122	N	1.172601	0.598521	0.293409
C123	C	0.707078	0.144195	-0.248304
C124	C	1.207078	0.644195	0.251696
C125	C	0.707084	0.144192	-0.331756
C126	C	1.207084	0.644192	0.168244
C127	C	0.672611	0.098519	-0.373494
C128	C	1.172611	0.598519	0.126506
C129	C	0.638133	0.052840	-0.331775
C130	C	1.138133	0.552840	0.168225
C131	C	0.638130	0.052840	-0.248324
C132	C	1.138130	0.552840	0.251676
C133	C	0.638144	0.052841	-0.668322
C134	C	1.138144	0.552841	-0.168322
C135	C	0.638149	0.052847	-0.751779
C136	C	1.138149	0.552847	-0.251779
C137	C	0.707098	0.144193	-0.751754
C138	C	1.207098	0.644193	-0.251754
C139	C	0.707096	0.144193	-0.668304
C140	C	1.207096	0.644193	-0.168304
C141	C	0.672620	0.098511	-0.626592
C142	C	1.172620	0.598511	-0.126592
C143	C	0.672615	0.098514	-0.536104
C144	C	1.172615	0.598514	-0.036104
C145	C	0.672613	0.098520	-0.463981
C146	C	1.172613	0.598520	0.036019
N147	N	0.672628	0.098517	0.206507
N148	N	1.172628	0.598517	0.706507
H149	H	0.207134	0.293570	-0.000049
H150	H	0.707134	0.793570	0.499951
C151	C	0.569984	-0.037443	-0.676740
C152	C	1.069984	0.462557	-0.176740
C153	C	0.600244	0.002637	-0.622480
C154	C	1.100244	0.502637	-0.122480
H155	H	0.546582	-0.068434	-0.648435
H156	H	1.046582	0.431566	-0.148435
H157	H	0.596235	-0.068632	-0.709287
H158	H	1.096235	0.431368	-0.209287
H159	H	0.546605	-0.002443	-0.709290
H160	H	1.046605	0.497557	-0.209290
H161	H	0.623626	-0.032364	-0.589934
H162	H	1.123626	0.467636	-0.089934
H163	H	0.573989	0.033828	-0.589920
H164	H	1.073989	0.533828	-0.089920
H165	H	0.610056	0.015648	-0.214362
H166	H	1.110056	0.515648	0.285638
H167	H	0.735171	0.181387	-0.785726
H168	H	1.235171	0.681387	-0.285726
C169	C	-0.103905	-0.111614	-0.000069
C170	C	0.396095	0.388386	0.499931
C171	C	-0.148555	-0.051669	-0.000060
C172	C	0.351445	0.448331	0.499940
H173	H	-0.119394	-0.158762	-0.000080
H174	H	0.380606	0.341238	0.499920
H175	H	-0.081022	-0.108375	0.046160
H176	H	0.418978	0.391625	0.546160
H177	H	-0.081024	-0.108365	-0.046305
H178	H	0.418976	0.391635	0.453695
H179	H	-0.171434	-0.054915	0.046179
H180	H	0.328566	0.445085	0.546179
H181	H	-0.171448	-0.054909	-0.046294
H182	H	0.328552	0.445091	0.453706
C183	C	0.010703	-0.053381	-0.068213
C184	C	0.510703	0.446619	0.431787
C185	C	-0.023870	-0.049694	-0.000061
C186	C	0.476130	0.450306	0.499939
H187	H	0.035512	-0.099894	-0.068213
H188	H	0.535512	0.400106	0.431787
H189	H	0.032805	-0.011883	-0.068207
H190	H	0.532805	0.488117	0.431793
H191	H	-0.012763	-0.050878	-0.114441
H192	H	0.487237	0.449122	0.385559
H193	H	-0.000404	-0.052191	0.046167
H194	H	0.499596	0.447809	0.546167
H195	H	-0.045974	-0.091204	-0.000061
H196	H	0.454026	0.408796	0.499939
H197	H	0.735147	0.181391	-0.214327
H198	H	1.235147	0.681391	0.285673
C199	C	0.575083	-0.345541	-0.000035
C200	C	1.075083	0.154459	0.499965
C201	C	0.565061	-0.265933	-0.000032
C202	C	1.065061	0.234067	0.499968
H203	H	0.539543	-0.365934	-0.000031
H204	H	1.039543	0.134066	0.499969
H205	H	0.596251	-0.362336	0.046191
H206	H	1.096251	0.137664	0.546191
H207	H	0.596243	-0.362340	-0.046274
H208	H	1.096243	0.137660	0.453726
H209	H	0.543904	-0.249133	0.046211
H210	H	1.043904	0.250867	0.546211
H211	H	0.543883	-0.249131	-0.046262
H212	H	1.043883	0.250869	0.453738
C213	C	0.520884	-0.143278	-0.000054
C214	C	1.020884	0.356722	0.499946
C215	C	0.567051	-0.100228	-0.000046
C216	C	1.067051	0.399772	0.499954
H217	H	0.485991	-0.110107	-0.000061
H218	H	0.985991	0.389893	0.499939
H219	H	0.522670	-0.174453	0.046175
H220	H	1.022670	0.325547	0.546175
H221	H	0.522676	-0.174463	-0.046290
H222	H	1.022676	0.325537	0.453710
H223	H	0.565261	-0.069047	0.046193
H224	H	1.065261	0.430953	0.546193
H225	H	0.565264	-0.069040	-0.046280
H226	H	1.065264	0.430960	0.453720
C227	C	-0.234369	0.222521	-0.000054
C228	C	0.265631	0.722521	0.499946
C229	C	-0.177412	0.238031	-0.000045
C230	C	0.322588	0.738031	0.499955
H231	H	-0.259191	0.269022	-0.000065
H232	H	0.240809	0.769022	0.499935
H233	H	-0.241275	0.194025	0.046177
H234	H	0.258725	0.694025	0.546177
H235	H	-0.241269	0.194005	-0.046288
H236	H	0.258731	0.694005	0.453712
H237	H	-0.170510	0.266542	0.046192
H238	H	0.329490	0.766542	0.546192
H239	H	-0.170502	0.266539	-0.046281
H240	H	0.329498	0.766539	0.453719
C241	C	0.031993	0.295882	-0.000065
C242	C	0.531993	0.795882	0.499935
C243	C	0.088955	0.311375	-0.000062
C244	C	0.588955	0.811375	0.499938
H245	H	0.007178	0.342390	-0.000069
H246	H	0.507178	0.842390	0.499931
H247	H	0.025085	0.267385	0.046164
H248	H	0.525085	0.767385	0.546164
H249	H	0.025085	0.267374	-0.046301
H250	H	0.525085	0.767374	0.453699
H251	H	0.095864	0.339879	0.046178
H252	H	0.595864	0.839879	0.546178
H253	H	0.095866	0.339885	-0.046295
H254	H	0.595866	0.839885	0.453705
H255	H	0.770003	-0.148295	-0.000034
H256	H	1.270003	0.351705	0.499966
C257	C	0.783672	0.148406	-0.574435
C258	C	1.283672	0.648406	-0.074435
C259	C	0.744987	0.194398	-0.622422
C260	C	1.244987	0.694398	-0.122422
H261	H	0.807062	0.179402	-0.546106
H262	H	1.307062	0.679402	-0.046106
H263	H	0.807057	0.113427	-0.606989
H264	H	1.307057	0.613427	-0.106989
H265	H	0.763130	0.121206	-0.537654
H266	H	1.263130	0.621206	-0.037654
H267	H	0.765529	0.221593	-0.659207
H268	H	1.265529	0.721593	-0.159207
H269	H	0.721599	0.229390	-0.589864
H270	H	1.221599	0.729390	-0.089864
H271	H	0.610067	0.015649	-0.365764
H272	H	1.110067	0.515649	0.134236
H273	H	-0.059218	0.220223	-0.000041
H274	H	0.440782	0.720223	0.499959
H275	H	0.765238	-0.545591	-0.000042
H276	H	1.265238	-0.045591	0.499958
H277	H	0.138076	-0.096531	-0.000063
H278	H	0.638076	0.403469	0.499937
H279	H	0.610075	0.015652	-0.785759
H280	H	1.110075	0.515652	-0.285759
H281	H	0.245826	-0.094816	-0.000065
H282	H	0.745826	0.405184	0.499935
H283	H	0.512217	-0.021463	-0.000038
H284	H	1.012217	0.478537	0.499962
C285	C	0.364205	-0.047746	0.068101
C286	C	0.864205	0.452254	0.568101
C287	C	0.397940	-0.042982	-0.000047
C288	C	0.897940	0.457018	0.499953
H289	H	0.348724	-0.094899	0.068097
H290	H	0.848724	0.405101	0.568097
H291	H	0.333921	-0.007080	0.068094
H292	H	0.833921	0.492920	0.568094
H293	H	0.387097	-0.044504	0.114331
H294	H	0.887097	0.455496	0.614331
H295	H	0.375048	-0.046219	-0.046278
H296	H	0.875048	0.453781	0.453722
H297	H	0.428229	-0.083660	-0.000047
H298	H	0.928229	0.416340	0.499953
C299	C	0.449120	0.308653	-0.000009
C300	C	0.949120	0.808653	0.499991
C301	C	0.493772	0.248710	-0.000012
C302	C	0.993772	0.748710	0.499988
H303	H	0.464607	0.355802	-0.000012
H304	H	0.964607	0.855802	0.499988
H305	H	0.426242	0.305410	0.046221
H306	H	0.926242	0.805410	0.546221
H307	H	0.426235	0.305404	-0.046245
H308	H	0.926235	0.805404	0.453755
H309	H	0.516655	0.251956	0.046227
H310	H	1.016655	0.751956	0.546227
H311	H	0.516660	0.251954	-0.046247
H312	H	1.016660	0.751954	0.453753
C313	C	0.334513	0.250397	0.068130
C314	C	0.834513	0.750397	0.568130
C315	C	0.369086	0.246728	-0.000020
C316	C	0.869086	0.746728	0.499980
H317	H	0.309696	0.296904	0.068134
H318	H	0.809696	0.796904	0.568134
H319	H	0.357973	0.247892	0.114354
H320	H	0.857973	0.747892	0.614354
H321	H	0.312413	0.208888	0.068113
H322	H	0.812413	0.708888	0.568113
H323	H	0.391189	0.288234	-0.000000
H324	H	0.891189	0.788234	0.500000
H325	H	0.345623	0.249240	-0.046256
H326	H	0.845623	0.749240	0.453744
H327	H	0.768285	-0.291508	-0.000043
H328	H	1.268285	0.208492	0.499957
H329	H	0.735159	0.181382	-0.365716
H330	H	1.235159	0.681382	0.134284
H331	H	0.576941	-0.511443	-0.000038
H332	H	1.076941	-0.011443	0.499962
C333	C	0.824335	-0.659665	-0.000043
C334	C	1.324335	-0.159665	0.499957
C335	C	0.778172	-0.702723	-0.000034
C336	C	1.278172	-0.202723	0.499966
H337	H	0.859230	-0.692832	-0.000052
H338	H	1.359230	-0.192832	0.499948
H339	H	0.822549	-0.628484	0.046186
H340	H	1.322549	-0.128484	0.546186
H341	H	0.822536	-0.628486	-0.046279
H342	H	1.322536	-0.128486	0.453721
H343	H	0.779968	-0.733898	0.046205
H344	H	1.279968	-0.233898	0.546205
H345	H	0.779958	-0.733918	-0.046268
H346	H	1.279958	-0.233918	0.453732
C347	C	0.529112	-0.638454	0.068133
C348	C	1.029112	-0.138454	0.568133
C349	C	0.560299	-0.663231	-0.000023
C350	C	1.060299	-0.163231	0.499977
H351	H	0.493577	-0.658860	0.068138
H352	H	0.993577	-0.158860	0.568138
H353	H	0.522316	-0.584454	0.068127
H354	H	1.022316	-0.084454	0.568127
H355	H	0.550289	-0.655257	0.114358
H356	H	1.050289	-0.155257	0.614358
H357	H	0.539124	-0.646423	-0.046248
H358	H	1.039124	-0.146423	0.453752
H359	H	0.567093	-0.717242	-0.000025
H360	H	1.067093	-0.217242	0.499975
