data_functionalizedCrystal
_audit_creation_method	'MofGen! by Chris Wilmer'
_symmetry_space_group_name_H-M	'P1'
_symmetry_Int_Tables_number	1
_symmetry_cell_setting	triclinic
loop_
_symmetry_equiv_pos_as_xyz
  x,y,z
_cell_length_a	14.853558
_cell_length_b	10.654550
_cell_length_c	9.130313
_cell_angle_alpha	90.002847
_cell_angle_beta	89.996803
_cell_angle_gamma	95.941968
loop_
_atom_site_label
_atom_site_type_symbol
_atom_site_fract_x
_atom_site_fract_y
_atom_site_fract_z
O1	O	1.197247	-0.163902	-0.121781
O2	O	0.934891	-0.183446	-0.121788
O3	O	1.072101	0.009128	-0.121775
O4	O	1.060037	-0.356476	-0.121794
O5	O	1.072090	0.009128	0.121824
O6	O	0.934880	-0.183446	0.121811
O7	O	1.197236	-0.163902	0.121818
Cu8	Cu	1.066057	-0.173674	0.144057
Cu9	Cu	1.066070	-0.173674	-0.144027
O10	O	1.060026	-0.356477	0.121805
C11	C	0.901292	-0.182563	0.000011
C12	C	0.801194	-0.179915	0.000008
C13	C	0.754172	-0.178674	-0.132783
C14	C	0.754159	-0.178659	0.132798
C15	C	0.660112	-0.176165	0.132801
C16	C	0.613091	-0.174923	0.000009
C17	C	0.660117	-0.176176	-0.132784
C18	C	0.613081	-0.174900	0.265592
C19	C	0.519028	-0.172404	0.265600
C20	C	0.472004	-0.171171	0.132807
C21	C	0.519036	-0.172425	0.000008
C22	C	0.472015	-0.171184	-0.132783
C23	C	0.519044	-0.172446	-0.265584
C24	C	0.613093	-0.174943	-0.265577
C25	C	0.377954	-0.168675	0.132800
C26	C	0.377959	-0.168685	-0.132785
C27	C	1.071210	0.055917	0.000024
C28	C	1.068559	0.195332	0.000021
C29	C	1.230835	-0.164786	0.000016
C30	C	1.330933	-0.167433	0.000009
C31	C	1.060917	-0.403265	0.000003
C32	C	1.063567	-0.542681	-0.000004
N33	N	1.066055	-0.173674	0.346680
C34	C	1.149347	0.275661	0.000023
C35	C	1.146851	0.406656	0.000005
C36	C	0.982774	0.376980	-0.000010
C37	C	0.985271	0.245988	-0.000003
N38	N	1.066079	-0.173665	-0.346650
C39	C	1.121208	-0.249980	0.423323
C40	C	1.121222	-0.249973	0.576660
C41	C	1.010924	-0.097350	0.576696
C42	C	1.010915	-0.097351	0.423362
H43	H	0.792450	-0.179660	0.240910
H44	H	0.914963	0.418241	-0.000027
O45	O	0.906850	0.167819	0.000191
C46	C	0.814417	0.002753	0.126425
C47	C	0.903265	0.091185	0.126381
H48	H	0.811481	-0.059210	0.228454
H49	H	0.811484	-0.059407	0.024548
H50	H	0.754474	0.061481	0.126345
H51	H	0.963258	0.032556	0.126512
H52	H	0.906119	0.153350	0.228248
O53	O	1.230327	0.226661	-0.000037
C54	C	1.392805	0.269927	0.000040
C55	C	1.301155	0.325581	0.000083
H56	H	1.450093	0.349876	0.000169
H57	H	1.398139	0.209381	-0.101927
H58	H	1.398027	0.209305	0.101964
H59	H	1.295871	0.386260	-0.101772
H60	H	1.295860	0.386055	0.102118
H61	H	1.166107	-0.312127	0.360893
O62	O	0.799706	-0.179957	-0.261911
C63	C	0.789784	-0.179647	-0.525334
C64	C	0.738104	-0.178216	-0.379203
H65	H	0.740004	-0.178213	-0.620202
H66	H	0.826077	-0.268660	-0.532068
H67	H	0.841551	-0.093027	-0.531905
H68	H	0.686294	-0.264776	-0.372533
H69	H	0.701873	-0.089146	-0.372530
H70	H	0.651373	-0.175899	0.373703
H71	H	0.339680	-0.167682	-0.240921
H72	H	0.480745	-0.171374	0.373734
O73	O	1.174820	-0.324217	0.650885
C74	C	1.284257	-0.475546	0.634657
C75	C	1.223582	-0.391546	0.550418
H76	H	1.323711	-0.529984	0.553467
H77	H	1.240394	-0.544873	0.706416
H78	H	1.333635	-0.413890	0.706471
H79	H	1.174195	-0.453102	0.478525
H80	H	1.267501	-0.322212	0.478752
H81	H	0.339667	-0.167658	0.240924
O82	O	1.225267	0.484815	0.000203
C83	C	1.317689	0.649893	0.126438
C84	C	1.228837	0.561470	0.126384
H85	H	1.320613	0.711873	0.228459
H86	H	1.320641	0.712036	0.024553
H87	H	1.377629	0.591157	0.126382
H88	H	1.168848	0.620107	0.126491
H89	H	1.225964	0.499323	0.228259
H90	H	0.480747	-0.171429	-0.373703
H91	H	0.966002	-0.035207	0.360957
H92	H	0.651393	-0.175969	-0.373696
H93	H	0.966029	-0.035212	0.639149
