data_functionalizedCrystal
_audit_creation_method	'MofGen! by Chris Wilmer'
_symmetry_space_group_name_H-M	'P1'
_symmetry_Int_Tables_number	1
_symmetry_cell_setting	triclinic
loop_
_symmetry_equiv_pos_as_xyz
  x,y,z
_cell_length_a	10.489741
_cell_length_b	14.044220
_cell_length_c	8.965430
_cell_angle_alpha	89.999271
_cell_angle_beta	90.003977
_cell_angle_gamma	91.135974
loop_
_atom_site_label
_atom_site_type_symbol
_atom_site_fract_x
_atom_site_fract_y
_atom_site_fract_z
O1	O	-0.307734	1.259807	0.123859
O2	O	-0.296629	0.983762	0.123897
O3	O	-0.117221	1.128066	0.123881
O4	O	-0.487142	1.115503	0.123875
O5	O	-0.117233	1.128054	-0.124198
O6	O	-0.296641	0.983750	-0.124182
O7	O	-0.307746	1.259795	-0.124220
Cu8	Cu	-0.302194	1.121771	-0.146852
Cu9	Cu	-0.302181	1.121786	0.146530
O10	O	-0.487154	1.115491	-0.124204
C11	C	-0.291774	0.948408	-0.000137
C12	C	-0.277274	0.843084	-0.000122
C13	C	-0.250766	0.650241	-0.000151
C14	C	-0.353604	0.593310	-0.000159
C15	C	-0.338854	0.486006	-0.000175
C16	C	-0.265514	0.757555	-0.000135
C17	C	-0.534776	1.116446	-0.000165
C18	C	-0.676694	1.119285	-0.000168
C19	C	-0.754146	1.211101	-0.000169
C20	C	-0.841874	1.167722	-0.122478
C21	C	-0.841838	1.167712	0.122109
C22	C	-0.762552	1.075868	-0.122577
C23	C	-0.762508	1.075871	0.122119
C24	C	-0.850201	1.032425	-0.000220
C25	C	-0.069599	1.127111	-0.000155
C26	C	0.072319	1.124272	-0.000142
C27	C	-0.312601	1.295149	-0.000183
C28	C	-0.327101	1.400473	-0.000188
N29	N	-0.302204	1.121768	-0.353202
C30	C	-0.385142	1.055012	-0.450500
C31	C	-0.419665	1.140902	-0.549926
C32	C	-0.267697	1.035914	-0.549903
C33	C	-0.336789	1.207702	-0.450439
C34	C	-0.184764	1.102657	-0.450407
C35	C	-0.219244	1.188609	-0.549788
N36	N	-0.302162	1.121796	0.352879
H37	H	-0.712155	1.286593	-0.000301
N38	N	-0.477953	0.633252	-0.000172
N39	N	-0.511119	0.686173	-0.104735
H40	H	-0.598939	0.714385	-0.104744
N41	N	-0.473210	0.984245	-0.395819
N42	N	-0.536705	0.934235	-0.485339
H43	H	-0.598903	0.884258	-0.446721
H44	H	-0.151654	0.618396	-0.000158
H45	H	-0.876828	1.206566	-0.225893
N46	N	-0.131238	1.259507	-0.604186
N47	N	-0.039391	1.235820	-0.683898
H48	H	0.022757	1.285892	-0.722325
H49	H	-0.727786	1.037044	-0.226094
H50	H	-0.518964	1.157086	-0.593639
H51	H	-0.891961	0.956866	-0.000276
H52	H	-0.727524	1.037059	0.225539
N53	N	-0.060227	1.082315	-0.395538
N54	N	-0.009667	1.005067	-0.427346
H55	H	0.078290	0.990690	-0.388595
H56	H	-0.876759	1.206584	0.225508
N57	N	-0.373516	1.298820	-0.395850
N58	N	-0.379502	1.313503	-0.258541
H59	H	-0.405443	1.377853	-0.219982
N60	N	-0.231124	0.944814	-0.604720
N61	N	-0.296289	0.872149	-0.572910
H62	H	-0.270472	0.807807	-0.611624
