data_functionalizedCrystal
_audit_creation_method	'MofGen! by Chris Wilmer'
_symmetry_space_group_name_H-M	'P1'
_symmetry_Int_Tables_number	1
_symmetry_cell_setting	triclinic
loop_
_symmetry_equiv_pos_as_xyz
  x,y,z
_cell_length_a	15.298068
_cell_length_b	16.120484
_cell_length_c	15.296720
_cell_angle_alpha	101.986518
_cell_angle_beta	88.354818
_cell_angle_gamma	103.029391
loop_
_atom_site_label
_atom_site_type_symbol
_atom_site_fract_x
_atom_site_fract_y
_atom_site_fract_z
Zn1	Zn	1.237597	-0.252306	-0.738453
Zn2	Zn	1.255735	-0.366214	-0.596990
Zn3	Zn	1.116993	-0.244065	-0.566257
Zn4	Zn	1.080990	-0.413761	-0.720103
O5	O	1.172829	-0.319086	-0.655451
O6	O	1.363608	-0.250967	-0.740228
O7	O	1.259988	-0.326663	-0.469325
O8	O	1.140468	-0.126470	-0.583917
O9	O	1.376933	-0.334654	-0.636296
O10	O	1.229075	-0.132525	-0.710428
O11	O	1.158055	-0.236921	-0.446746
O12	O	0.988612	-0.283025	-0.566124
O13	O	1.079106	-0.415691	-0.846125
O14	O	0.962161	-0.407700	-0.679154
O15	O	1.194165	-0.297071	-0.859606
O16	O	1.225078	-0.491209	-0.618503
O17	O	1.096693	-0.526142	-0.708954
C18	C	0.943337	-0.349629	-0.617313
C19	C	0.845154	-0.362719	-0.601020
C20	C	0.540558	-0.225740	-0.771914
C21	C	0.632804	-0.213445	-0.787227
C22	C	0.685896	-0.250762	-0.740677
C23	C	0.646733	-0.300378	-0.678810
C24	C	0.554477	-0.312680	-0.663500
C25	C	0.699815	-0.337702	-0.632263
C26	C	0.660652	-0.387317	-0.570396
C27	C	0.568404	-0.399617	-0.555089
C28	C	0.515312	-0.362300	-0.601639
C29	C	0.792071	-0.325399	-0.647573
C30	C	0.805990	-0.412339	-0.539159
C31	C	0.713744	-0.424634	-0.523846
C32	C	1.158967	-0.539451	-0.665095
C33	C	1.153113	-0.633718	-0.669264
C34	C	1.142426	-0.806307	-0.676895
C35	C	1.203387	-0.831007	-0.634047
C36	C	1.197441	-0.927041	-0.638293
C37	C	1.148371	-0.710265	-0.672650
C38	C	1.403216	-0.288426	-0.693737
C39	C	1.501394	-0.275360	-0.710053
C40	C	1.130597	-0.362604	-0.885806
C41	C	1.112600	-0.381149	-0.983970
C42	C	1.186764	-0.097862	-0.645791
C43	C	1.192703	-0.003589	-0.641675
C44	C	1.301497	-0.186392	-1.288756
C45	C	1.318411	-0.168970	-1.196527
C46	C	1.266960	-0.222012	-1.143384
C47	C	1.198591	-0.292482	-1.182478
C48	C	1.181680	-0.309911	-1.274717
C49	C	1.147143	-0.345531	-1.129344
C50	C	1.078774	-0.416000	-1.168438
C51	C	1.061865	-0.433425	-1.260668
C52	C	1.113317	-0.380382	-1.313812
C53	C	1.164054	-0.328102	-1.037105
C54	C	1.044237	-0.451620	-1.023065
C55	C	1.027323	-0.469043	-1.115294
C56	C	1.214951	-0.275670	-0.425997
C57	C	1.233134	-0.256864	-0.327851
H58	H	0.664684	-0.173051	-0.837602
F59	F	1.277439	-0.764377	-0.581928
H60	H	1.343386	-0.143217	-1.332034
F61	F	1.068376	-0.872935	-0.729006
H62	H	0.440195	-0.372315	-0.589180
F63	F	0.989113	-0.508436	-1.302275
H64	H	1.219720	-0.270725	-1.005284
H65	H	0.971656	-0.526420	-1.147138
F66	F	0.989479	-0.508080	-0.966511
H67	H	1.374079	-0.111595	-1.164704
H68	H	1.280735	-0.207823	-1.068287
F69	F	1.095322	-0.398925	-1.411975
H70	H	0.823949	-0.285000	-0.697944
H71	H	0.497322	-0.195368	-0.809814
F72	F	0.784074	-0.237673	-0.756975
H73	H	0.536519	-0.440025	-0.504720
H74	H	0.681843	-0.465033	-0.473474
H75	H	0.849217	-0.442730	-0.501258
