data_functionalizedCrystal
_audit_creation_method	'MofGen! by Chris Wilmer'
_symmetry_space_group_name_H-M	'P1'
_symmetry_Int_Tables_number	1
_symmetry_cell_setting	triclinic
loop_
_symmetry_equiv_pos_as_xyz
  x,y,z
_cell_length_a	12.759401
_cell_length_b	12.759400
_cell_length_c	17.077396
_cell_angle_alpha	89.973929
_cell_angle_beta	89.986034
_cell_angle_gamma	90.013326
loop_
_atom_site_label
_atom_site_type_symbol
_atom_site_fract_x
_atom_site_fract_y
_atom_site_fract_z
Zn1	Zn	1.606220	-0.418245	-0.443800
Zn2	Zn	1.606133	-0.593951	-0.312543
Zn3	Zn	1.430535	-0.418287	-0.312555
Zn4	Zn	1.430515	-0.593883	-0.443774
O5	O	1.518351	-0.506091	-0.378168
O6	O	1.753229	-0.441564	-0.426394
O7	O	1.582811	-0.570694	-0.202698
O8	O	1.453885	-0.271260	-0.329981
O9	O	1.753165	-0.570654	-0.329960
O10	O	1.582960	-0.271230	-0.426406
O11	O	1.453801	-0.441635	-0.202706
O12	O	1.283512	-0.441569	-0.329955
O13	O	1.453850	-0.570539	-0.553624
O14	O	1.283497	-0.570579	-0.426361
O15	O	1.582940	-0.441498	-0.553643
O16	O	1.582791	-0.740963	-0.329935
O17	O	1.453766	-0.740913	-0.426350
C18	C	1.245383	-0.506072	-0.378157
C19	C	1.128607	-0.506089	-0.378171
C20	C	1.073764	-0.573372	-0.428287
C21	C	0.964040	-0.573385	-0.428295
C22	C	0.964011	-0.438830	-0.328066
C23	C	1.073733	-0.438812	-0.328062
C24	C	1.128638	-0.640649	-0.478396
C25	C	1.073796	-0.707939	-0.528515
C26	C	0.964072	-0.707952	-0.528523
C27	C	0.909190	-0.640676	-0.478413
C28	C	1.518296	-0.779059	-0.378155
C29	C	1.518368	-0.895835	-0.378176
C30	C	1.585543	-0.950602	-0.428426
C31	C	1.585592	-1.060326	-0.428445
C32	C	1.451288	-1.060507	-0.327958
C33	C	1.451234	-0.950785	-0.327944
C34	C	1.652677	-0.895652	-0.478659
C35	C	1.719859	-0.950418	-0.528912
C36	C	1.719908	-1.060142	-0.528931
C37	C	1.652775	-1.115100	-0.478697
C38	C	1.792384	-0.506112	-0.378179
C39	C	1.909161	-0.506120	-0.378184
C40	C	1.518403	-0.506006	-0.582912
C41	C	1.518425	-0.505970	-0.670162
C42	C	1.518435	-0.232058	-0.378197
C43	C	1.518470	-0.115281	-0.378210
C44	C	1.585696	-0.573049	-1.045975
C45	C	1.585669	-0.573080	-0.963994
C46	C	1.518492	-0.505896	-0.923011
C47	C	1.451330	-0.438685	-0.964013
C48	C	1.451352	-0.438660	-1.045992
C49	C	1.451291	-0.438739	-0.793143
C50	C	1.451270	-0.438762	-0.711158
C51	C	1.585608	-0.573158	-0.711145
C52	C	1.585630	-0.573134	-0.793124
C53	C	1.518469	-0.505921	-0.834120
C54	C	1.518359	-0.506100	-0.174220
C55	C	1.518541	-0.505841	-0.086971
H56	H	1.118488	-0.762705	-0.569318
H57	H	1.652808	-1.204445	-0.478726
C58	C	0.904716	-0.781116	-0.582968
C59	C	0.976261	-0.840044	-0.626834
C60	C	0.921624	-0.907469	-0.676988
H61	H	0.861928	-0.741110	-0.617296
H62	H	0.861919	-0.826903	-0.552900
H63	H	1.019041	-0.794262	-0.656900
H64	H	1.019051	-0.880071	-0.592527
H65	H	0.878827	-0.953256	-0.646919
H66	H	0.878838	-0.867455	-0.711310
H67	H	0.970159	-0.947466	-0.706751
H68	H	1.640337	-0.627836	-0.826490
H69	H	1.640341	-0.627820	-0.930619
C70	C	0.904617	-0.365685	-0.273628
C71	C	0.976132	-0.306737	-0.229750
C72	C	0.921459	-0.239337	-0.179598
H73	H	0.861796	-0.405710	-0.239307
H74	H	0.861851	-0.319909	-0.303698
H75	H	1.018881	-0.352506	-0.199682
H76	H	1.018956	-0.266691	-0.264050
H77	H	0.878693	-0.193562	-0.209668
H78	H	0.878640	-0.279370	-0.145283
H79	H	0.969973	-0.199326	-0.149826
C80	C	0.790060	-0.640843	-0.478538
C81	C	0.753773	-0.714165	-0.533154
C82	C	0.644039	-0.714346	-0.533293
H83	H	0.765158	-0.573122	-0.492236
H84	H	0.765138	-0.658971	-0.427882
H85	H	0.778684	-0.696031	-0.583799
H86	H	0.778646	-0.781896	-0.519468
H87	H	0.619117	-0.732474	-0.482637
H88	H	0.619148	-0.646621	-0.546990
H89	H	0.619405	-0.764100	-0.570344
C90	C	1.658467	-0.646307	-0.666741
C91	C	1.635585	-0.750248	-0.686684
C92	C	1.702693	-0.817653	-0.645801
H93	H	1.648901	-0.636851	-0.612036
H94	H	1.729082	-0.630990	-0.680199
H95	H	1.564987	-0.765559	-0.673221
H96	H	1.645157	-0.759738	-0.741382
H97	H	1.773308	-0.802336	-0.659259
H98	H	1.693122	-0.808186	-0.591097
H99	H	1.687184	-0.888183	-0.659331
C100	C	1.378205	-0.365796	-0.666802
C101	C	1.319361	-0.306960	-0.720248
C102	C	1.252028	-0.239748	-0.679416
H103	H	1.418273	-0.319935	-0.634825
H104	H	1.332360	-0.405984	-0.634833
H105	H	1.365200	-0.266774	-0.752204
H106	H	1.279272	-0.352794	-0.752227
H107	H	1.206183	-0.279936	-0.647447
H108	H	1.292104	-0.193893	-0.647441
H109	H	1.212088	-0.199826	-0.715673
C110	C	1.378247	-0.365937	-0.837697
C111	C	1.310879	-0.425399	-0.884735
C112	C	1.243575	-0.358369	-0.925782
H113	H	1.418343	-0.320138	-0.869749
H114	H	1.338175	-0.325943	-0.801575
H115	H	1.350945	-0.465376	-0.920853
H116	H	1.270759	-0.471196	-0.852703
H117	H	1.203504	-0.318374	-0.889660
H118	H	1.283680	-0.312572	-0.957830
H119	H	1.197852	-0.398704	-0.957697
H120	H	1.396628	-0.383987	-0.930638
H121	H	1.396668	-0.383931	-1.079370
H122	H	1.774511	-0.905666	-0.569816
C123	C	1.133474	-0.365805	-0.273735
C124	C	1.241308	-0.380169	-0.284475
C125	C	1.296374	-0.312919	-0.234452
H126	H	1.115601	-0.381025	-0.220941
H127	H	1.115563	-0.295214	-0.285323
H128	H	1.259211	-0.450744	-0.272881
H129	H	1.259212	-0.364941	-0.337258
H130	H	1.278463	-0.242327	-0.246040
H131	H	1.278492	-0.328144	-0.181661
H132	H	1.369544	-0.322648	-0.241737
C133	C	1.247767	-0.640753	-0.478531
C134	C	1.284088	-0.714051	-0.533153
C135	C	1.393822	-0.714166	-0.533303
H136	H	1.272693	-0.658864	-0.427896
H137	H	1.272641	-0.572993	-0.492233
H138	H	1.259225	-0.781796	-0.519446
H139	H	1.259191	-0.695957	-0.583796
H140	H	1.418696	-0.646407	-0.547005
H141	H	1.418738	-0.732276	-0.482665
H142	H	1.418480	-0.763891	-0.570368
H143	H	1.652647	-0.806309	-0.478647
H144	H	1.396632	-1.105263	-0.287060
C145	C	1.658766	-0.645817	-1.090507
C146	C	1.726160	-0.586323	-1.137566
C147	C	1.793496	-0.653324	-1.178590
H148	H	1.618694	-0.691601	-1.122543
H149	H	1.698817	-0.685830	-1.054371
H150	H	1.686113	-0.546328	-1.173699
H151	H	1.766255	-0.540542	-1.105550
H152	H	1.833546	-0.693336	-1.142453
H153	H	1.753415	-0.699105	-1.210621
H154	H	1.839237	-0.612967	-1.210519
H155	H	1.774602	-1.104730	-0.569856
H156	H	1.396533	-0.906194	-0.287026
