data_functionalizedCrystal
_audit_creation_method	'MofGen! by Chris Wilmer'
_symmetry_space_group_name_H-M	'P1'
_symmetry_Int_Tables_number	1
_symmetry_cell_setting	triclinic
loop_
_symmetry_equiv_pos_as_xyz
  x,y,z
_cell_length_a	8.597366
_cell_length_b	10.967829
_cell_length_c	7.681481
_cell_angle_alpha	72.153773
_cell_angle_beta	103.474720
_cell_angle_gamma	86.633260
loop_
_atom_site_label
_atom_site_type_symbol
_atom_site_fract_x
_atom_site_fract_y
_atom_site_fract_z
O1	O	2.096254	0.176887	0.117936
O2	O	1.631781	0.197271	0.041280
O3	O	1.880479	0.000868	0.138616
O4	O	1.847555	0.373289	0.020600
O5	O	1.911091	-0.023361	0.443471
O6	O	1.662393	0.173042	0.346134
O7	O	2.126866	0.152658	0.422791
Zn8	Zn	1.899489	0.159003	0.432865
Zn9	Zn	1.859157	0.190925	0.031205
O10	O	1.878167	0.349061	0.325455
C11	C	1.587720	0.184317	0.184954
C12	C	1.410828	0.181803	0.158879
C13	C	1.895703	-0.058903	0.305489
C14	C	1.895437	-0.200904	0.348532
C15	C	1.879461	-0.251655	0.209796
C16	C	1.879186	-0.398420	0.254278
C17	C	2.170926	0.165611	0.279112
C18	C	2.347817	0.168127	0.305175
C19	C	1.862944	0.408832	0.158577
C20	C	1.863208	0.550834	0.115522
N21	N	1.927027	0.137216	0.706989
N22	N	1.831633	0.212702	-0.242914
H23	H	1.865979	-0.186450	0.058085
H24	H	1.329446	0.191579	0.013671
H25	H	1.734254	0.289750	0.643733
N26	N	1.455612	0.155164	0.497543
H27	H	1.570939	0.158861	0.489545
H28	H	1.419391	0.228229	0.539622
N29	N	1.897052	-0.484777	0.455252
H30	H	1.907754	-0.430745	0.541728
H31	H	1.798708	-0.530336	0.461013
N32	N	1.845345	-0.362817	-0.085455
H33	H	1.848069	-0.270212	-0.088751
H34	H	1.936969	-0.390673	-0.132856
N35	N	1.913294	-0.287257	0.549498
H36	H	1.814973	-0.332831	0.555431
H37	H	2.012936	-0.353496	0.591619
N38	N	2.056045	0.035162	0.857134
H39	H	2.052929	0.037643	0.986646
H40	H	2.035984	-0.052922	0.848697
