data_functionalizedCrystal
_audit_creation_method	'MofGen! by Chris Wilmer'
_symmetry_space_group_name_H-M	'P1'
_symmetry_Int_Tables_number	1
_symmetry_cell_setting	triclinic
loop_
_symmetry_equiv_pos_as_xyz
  x,y,z
_cell_length_a	14.044191
_cell_length_b	14.044190
_cell_length_c	14.048226
_cell_angle_alpha	89.988942
_cell_angle_beta	89.996146
_cell_angle_gamma	93.191777
loop_
_atom_site_label
_atom_site_type_symbol
_atom_site_fract_x
_atom_site_fract_y
_atom_site_fract_z
O1	O	1.277181	0.230203	-0.079134
O2	O	1.000508	0.221890	-0.079146
O3	O	1.134688	0.087710	-0.079121
O4	O	1.143001	0.364383	-0.079159
O5	O	1.134670	0.087700	0.079200
O6	O	1.000490	0.221880	0.079176
O7	O	1.277163	0.230193	0.079187
Zn8	Zn	1.138823	0.226035	0.104318
Zn9	Zn	1.138848	0.226048	-0.104277
O10	O	1.142983	0.364373	0.079163
C11	C	0.964877	0.218249	0.000014
C12	C	0.858734	0.207401	0.000010
C13	C	1.131043	0.052083	0.000042
C14	C	1.120195	-0.054060	0.000050
C15	C	0.613277	0.264502	0.000012
C16	C	0.664400	0.187585	0.000021
C17	C	0.772537	0.198614	0.000015
C18	C	0.505130	0.253475	0.000018
C19	C	1.177296	-0.299517	0.000015
C20	C	1.100379	-0.248394	0.000018
C21	C	1.111408	-0.140257	0.000036
C22	C	1.166269	-0.407664	-0.000003
C23	C	1.312794	0.233834	0.000025
C24	C	1.418937	0.244682	0.000023
C25	C	1.146628	0.400000	-0.000003
C26	C	1.157476	0.506143	-0.000017
N27	N	1.138814	0.226026	0.246679
N28	N	1.138864	0.226050	-0.246638
C29	C	1.198251	0.166639	0.296508
C30	C	1.198258	0.166639	0.396165
C31	C	1.138831	0.226031	0.445992
C32	C	1.079387	0.285420	0.396157
C33	C	1.079376	0.285415	0.296501
C34	C	1.079415	0.285430	0.603871
C35	C	1.079427	0.285437	0.703534
C36	C	1.198297	0.166654	0.703535
C37	C	1.198286	0.166649	0.603880
C38	C	1.138843	0.226039	0.554051
H39	H	0.626955	0.113453	-0.000036
H40	H	0.650720	0.338629	-0.000001
C41	C	1.000229	-0.298975	0.000016
C42	C	0.930637	-0.282039	-0.082189
C43	C	0.830493	-0.332627	-0.082185
C44	C	0.799940	-0.400152	0.000023
C45	C	0.869534	-0.417092	0.082234
C46	C	0.969678	-0.366503	0.082230
H47	H	0.953253	-0.232050	-0.143050
H48	H	0.778975	-0.320087	-0.143043
H49	H	0.725807	-0.437600	0.000026
H50	H	0.846918	-0.467080	0.143095
H51	H	1.021196	-0.379044	0.143089
H52	H	1.251423	-0.262074	0.000028
C53	C	1.263623	0.101305	0.241703
C54	C	1.328998	0.035977	0.296519
C55	C	1.394370	-0.029361	0.241718
C56	C	1.394366	-0.029372	0.132101
C57	C	1.328988	0.035959	0.077278
C58	C	1.263617	0.101297	0.132079
H59	H	1.329003	0.035983	0.377670
H60	H	1.442767	-0.077723	0.282302
H61	H	1.442758	-0.077739	0.091534
H62	H	1.328983	0.035953	-0.003873
H63	H	1.215220	0.149659	0.091496
C64	C	1.263655	0.101320	0.549065
C65	C	1.252867	-0.007536	0.562785
C66	C	1.318234	-0.072867	0.507968
C67	C	1.394389	-0.029342	0.439432
C68	C	1.405179	0.079519	0.425709
C69	C	1.339812	0.144850	0.480525
H70	H	1.196490	-0.039760	0.613522
H71	H	1.310246	-0.153453	0.518128
H72	H	1.442777	-0.077704	0.398853
H73	H	1.461556	0.111744	0.374971
H74	H	1.347801	0.225437	0.470366
H75	H	1.246655	0.118282	0.436735
C76	C	1.263681	0.101320	0.758345
C77	C	1.220214	0.025127	0.826878
C78	C	1.285599	-0.040199	0.881694
C79	C	1.394450	-0.029332	0.867978
C80	C	1.437922	0.046864	0.799442
C81	C	1.372537	0.112191	0.744626
H82	H	1.139631	0.017080	0.837034
H83	H	1.253417	-0.096605	0.932428
H84	H	1.442852	-0.077691	0.908556
H85	H	1.518505	0.054911	0.789286
H86	H	1.404719	0.168596	0.693892
C87	C	1.014049	0.350763	0.758341
C88	C	0.948657	0.416077	0.703528
C89	C	0.883277	0.481404	0.758333
C90	C	0.883289	0.481417	0.867950
C91	C	0.948683	0.416100	0.922769
C92	C	1.014063	0.350773	0.867964
H93	H	0.948646	0.416070	0.622377
H94	H	0.834868	0.529756	0.717752
H95	H	0.834890	0.529776	0.908520
H96	H	0.948694	0.416107	1.003920
H97	H	1.062472	0.302421	0.908546
H98	H	1.031006	0.333788	0.563304
H99	H	1.030995	0.333775	0.436732
H100	H	1.030975	0.333772	0.255931
