data_functionalizedCrystal
_audit_creation_method	'MofGen! by Chris Wilmer'
_symmetry_space_group_name_H-M	'P1'
_symmetry_Int_Tables_number	1
_symmetry_cell_setting	triclinic
loop_
_symmetry_equiv_pos_as_xyz
  x,y,z
_cell_length_a	19.902436
_cell_length_b	14.446369
_cell_length_c	14.446369
_cell_angle_alpha	119.999169
_cell_angle_beta	60.001138
_cell_angle_gamma	90.001270
loop_
_atom_site_label
_atom_site_type_symbol
_atom_site_fract_x
_atom_site_fract_y
_atom_site_fract_z
Zr1	Zr	0.647227	0.121529	1.013325
O2	O	0.680109	0.269343	1.013339
O3	O	0.539949	0.076203	1.013305
O4	O	0.539940	0.269317	1.206430
O5	O	0.790691	-0.076088	0.667892
O6	O	0.539938	0.269312	1.358761
O7	O	0.680118	0.076229	0.820214
O8	O	0.539954	-0.076134	1.013297
O9	O	0.790675	0.269358	1.013357
O10	O	0.611626	0.056884	1.126999
O11	O	0.694147	-0.056784	0.899640
O12	O	0.694137	0.170582	1.127019
O13	O	0.776657	0.056914	0.899659
Zr14	Zr	0.823574	-0.121407	1.013341
Zr15	Zr	0.647224	0.121520	1.256276
Zr16	Zr	0.823578	-0.121399	0.770389
Zr17	Zr	0.823567	0.121553	1.013354
Zr18	Zr	0.647235	-0.121431	1.013312
O19	O	0.930853	-0.076082	1.013360
O20	O	0.680105	0.269330	1.358784
O21	O	0.930857	-0.076069	0.667915
O22	O	0.790692	-0.269221	1.013327
O23	O	0.539944	0.076191	1.358751
O24	O	0.790697	-0.269209	0.667882
O25	O	0.680111	0.076209	1.358773
O26	O	0.930861	-0.269195	0.820236
O27	O	0.930863	-0.269190	0.667905
O28	O	0.790683	-0.076107	1.206452
O29	O	0.790673	0.269351	1.206470
O30	O	0.680129	-0.269229	0.820195
O31	O	0.680126	-0.269236	1.013309
O32	O	0.539951	-0.076141	1.206411
O33	O	0.930850	0.076263	0.820255
O34	O	0.930848	0.076255	1.013369
O35	O	0.776665	-0.170461	0.899647
O36	O	0.694144	-0.056793	1.127006
O37	O	0.776654	0.056906	1.127026
O38	O	0.859175	-0.056762	0.899667
C39	C	0.514827	0.000031	1.013297
C40	C	0.439966	0.000021	1.013285
C41	C	0.735391	0.303967	1.013350
C42	C	0.735388	0.407110	1.013355
C43	C	0.735410	-0.303845	1.013316
C44	C	0.735414	-0.406988	1.013311
C45	C	0.167917	0.000074	1.013349
C46	C	0.248463	-0.071977	0.869927
C47	C	0.326366	-0.071680	0.869837
C48	C	0.302884	0.000047	1.013317
C49	C	0.248775	0.123577	1.084548
C50	C	0.171213	0.123197	1.083631
C51	C	0.170049	-0.050414	1.086567
C52	C	0.248926	-0.052928	1.083872
C53	C	0.379159	0.000039	1.013306
C54	C	0.091641	0.000091	1.013364
C55	C	0.955975	0.000090	1.013369
C56	C	1.030836	0.000100	1.013381
C57	C	0.735405	0.000072	0.709438
C58	C	0.735406	0.000076	0.606299
C59	C	0.683608	0.625467	1.156736
C60	C	0.683314	0.518235	1.156833
C61	C	0.697430	0.410434	0.942119
C62	C	0.697052	0.518203	0.943030
C63	C	0.825199	0.516850	0.940097
C64	C	0.825056	0.410881	0.942800
C65	C	0.787697	0.071424	0.459284
C66	C	0.787476	0.071825	0.566917
C67	C	0.645744	0.052363	0.655263
C68	C	0.646024	0.052886	0.548017
C69	C	0.772036	-0.123651	0.372838
C70	C	0.773856	-0.123456	0.479002
C71	C	0.735397	0.000050	1.317228
C72	C	0.735395	0.000046	1.420367
C73	C	0.514813	0.303926	1.317209
C74	C	0.439948	0.407055	1.420341
C75	C	0.514823	0.000020	1.317192
C76	C	0.439961	0.000006	1.420319
C77	C	0.735414	-0.303834	0.709421
C78	C	0.735419	-0.406973	0.606277
C79	C	0.955979	0.000101	0.709474
C80	C	1.030841	0.000115	0.606347
C81	C	0.955988	-0.303805	0.709457
C82	C	1.030854	-0.406934	0.606325
C83	C	0.735387	0.303956	1.317244
C84	C	0.735383	0.407095	1.420389
C85	C	0.447860	0.514846	1.468794
C86	C	0.377523	0.611756	1.565712
C87	C	0.299274	0.600873	1.614169
C88	C	0.291364	0.493072	1.565712
C89	C	0.361700	0.396164	1.468802
C90	C	0.361724	0.059348	1.468755
C91	C	0.291376	0.059358	1.565667
C92	C	0.299267	0.000019	1.614135
C93	C	0.377512	-0.059325	1.565695
C94	C	0.447858	-0.059327	1.468791
C95	C	1.109078	-0.059216	0.557921
C96	C	1.179425	-0.059199	0.461036
C97	C	1.171534	0.000143	0.412571
C98	C	1.093289	0.059482	0.461007
C99	C	1.022944	0.059471	0.557897
C100	C	1.109088	-0.396015	0.557892
C101	C	1.179439	-0.492906	0.460974
C102	C	1.171553	-0.600716	0.412497
C103	C	1.093311	-0.611632	0.460934
C104	C	1.022962	-0.514742	0.557843
C105	C	0.683650	-0.481961	0.459234
C106	C	0.683350	-0.374631	0.566875
C107	C	0.697461	-0.481538	0.655240
C108	C	0.697090	-0.588399	0.547986
C109	C	0.825240	-0.589961	0.372820
C110	C	0.825089	-0.481288	0.478992
H111	H	0.365752	-0.162642	0.813954
C112	C	0.386234	0.730325	1.618989
H113	H	0.333142	0.786489	1.683656
H114	H	0.415457	0.738820	1.549413
H115	H	0.415470	0.738818	1.656788
C116	C	0.352991	0.277598	1.415468
H117	H	0.406083	0.221433	1.350806
H118	H	0.323761	0.269142	1.377675
H119	H	0.323762	0.269069	1.485021
C120	C	0.745939	0.304712	0.799610
H121	H	0.789875	0.257491	0.782250
H122	H	0.767501	0.327349	0.741840
H123	H	0.710366	0.264059	0.786829
C124	C	0.881586	0.303968	0.801386
H125	H	0.851105	0.255419	0.783441
H126	H	0.926016	0.265353	0.791188
H127	H	0.902500	0.325178	0.742278
C128	C	0.877634	-0.695613	0.337724
H129	H	0.931815	-0.693339	0.309097
H130	H	0.879696	-0.761897	0.269747
H131	H	0.853713	-0.696771	0.412697
H132	H	0.839912	-0.162517	0.439422
C133	C	0.221911	0.707478	1.720757
H134	H	0.237838	0.773229	1.742657
H135	H	0.190083	0.707493	1.796373
H136	H	0.190094	0.707490	1.688980
H137	H	0.227644	0.484228	1.605182
H138	H	0.616206	0.142523	0.747562
C139	C	0.717817	0.698372	1.232803
H140	H	0.763998	0.709681	1.177781
H141	H	0.734121	0.660769	1.260279
H142	H	0.676437	0.769668	1.307273
H143	H	0.355283	0.107683	1.429317
H144	H	0.959262	-0.523648	0.597274
H145	H	0.229007	0.179585	1.190044
C146	C	0.205318	0.124624	1.618920
H147	H	0.210700	0.159943	1.576152
H148	H	0.176077	0.180790	1.710408
H149	H	0.176090	0.073391	1.603023
C150	C	0.221882	0.000019	1.720716
H151	H	0.174159	0.043852	1.742604
H152	H	0.221863	0.031788	1.796340
H153	H	0.221874	-0.075592	1.688939
C154	C	1.248917	0.000145	0.305988
H155	H	1.233018	0.043989	0.284059
H156	H	1.280739	-0.075459	0.230387
H157	H	1.280730	0.031927	0.337779
C158	C	0.533924	0.526839	1.415524
H159	H	0.528550	0.604920	1.458285
H160	H	0.563165	0.491517	1.324035
H161	H	0.563146	0.491499	1.431422
H162	H	0.856951	-0.594070	0.279120
H163	H	0.866932	-0.506806	0.500505
C164	C	0.593872	-0.301953	0.686806
H165	H	0.557564	-0.337994	0.669863
H166	H	0.581918	-0.229358	0.703669
H167	H	0.586925	-0.293681	0.760873
C168	C	1.265486	-0.124472	0.407770
H169	H	1.306257	-0.115960	0.343137
H170	H	1.271657	-0.202544	0.369958
H171	H	1.271639	-0.095160	0.477364
C172	C	0.753679	0.193955	0.507564
H173	H	0.707739	0.201802	0.504111
H174	H	0.795257	0.210826	0.453209
H175	H	0.737035	0.244832	0.595181
C176	C	0.386186	-0.124615	1.618993
H177	H	0.442855	-0.159962	1.576275
H178	H	0.360528	-0.180760	1.603095
H179	H	0.360533	-0.073398	1.710491
C180	C	0.171490	0.177784	1.015246
H181	H	0.218913	0.199977	0.988280
H182	H	0.123459	0.242490	1.074357
H183	H	0.172290	0.124543	0.940885
C184	C	0.936886	0.124724	0.611145
H185	H	0.896114	0.116230	0.675796
H186	H	0.930735	0.095411	0.541554
H187	H	0.930713	0.202801	0.648958
H188	H	0.511559	-0.107657	1.429357
C189	C	0.868040	0.584413	1.002104
H190	H	0.922131	0.536903	0.956480
H191	H	0.837624	0.610632	1.091305
H192	H	0.870802	0.647387	0.996767
C193	C	1.084620	0.124744	0.407678
H194	H	1.137725	0.116234	0.343028
H195	H	1.055392	0.202816	0.477230
H196	H	1.055406	0.095419	0.369843
H197	H	0.732345	0.491558	0.837800
C198	C	0.727777	-0.201368	0.508042
H199	H	0.752324	-0.275391	0.429449
H200	H	0.671770	-0.172237	0.542593
H201	H	0.730829	-0.204559	0.569997
H202	H	0.708770	0.519852	1.212726
H203	H	0.762052	0.163072	0.655722
C204	C	1.117774	-0.277435	0.611199
H205	H	1.064677	-0.221283	0.675860
H206	H	1.146997	-0.268930	0.541631
H207	H	1.147004	-0.268932	0.649009
H208	H	1.243141	-0.483996	0.421553
H209	H	1.115518	-0.107548	0.597363
C210	C	1.248942	-0.707285	0.305953
H211	H	1.296662	-0.685331	0.284082
H212	H	1.248984	-0.751167	0.230310
H213	H	1.248930	-0.751091	0.337769
H214	H	1.086902	-0.699424	0.421449
C215	C	0.717854	-0.478808	0.339195
H216	H	0.764035	-0.545135	0.264273
H217	H	0.734157	-0.413728	0.354326
H218	H	0.676470	-0.475644	0.324909
H219	H	0.853512	0.037026	0.530358
H220	H	0.734127	-0.177085	0.346839
C221	C	0.607839	-0.588043	0.602916
H222	H	0.572149	-0.522717	0.690437
H223	H	0.603783	-0.654222	0.601441
H224	H	0.592518	-0.586942	0.550766
H225	H	0.708810	-0.320355	0.530188
H226	H	0.249229	-0.037267	0.813925
C227	C	0.745966	-0.518316	0.694149
H228	H	0.789900	-0.488447	0.680852
H229	H	0.767530	-0.598719	0.641812
H230	H	0.710390	-0.490447	0.783805
C231	C	0.609019	0.407550	1.008941
H232	H	0.595106	0.404326	1.080241
H233	H	0.605474	0.342582	0.947568
H234	H	0.571928	0.473985	1.040267
C235	C	0.609047	-0.411845	0.779906
H236	H	0.595133	-0.337324	0.802292
H237	H	0.605497	-0.408248	0.849761
H238	H	0.571960	-0.446961	0.764557
H239	H	0.616692	0.143910	0.588701
C240	C	0.094158	0.199668	1.225776
H241	H	0.110352	0.230836	1.283826
H242	H	0.060780	0.156095	1.244652
H243	H	0.063812	0.259273	1.236547
H244	H	0.250156	-0.163169	0.813629
C245	C	0.863404	-0.411819	0.425524
H246	H	0.824922	-0.337832	0.480537
H247	H	0.877320	-0.448033	0.339423
H248	H	0.911603	-0.406713	0.423657
H249	H	0.617818	-0.480936	0.494944
H250	H	0.732386	-0.666977	0.526015
H251	H	0.365417	-0.036674	0.813593
H252	H	0.853412	0.411401	0.994742
H253	H	0.286240	0.164273	1.035085
H254	H	0.617080	0.520682	1.213069
C255	C	0.166014	-0.171438	1.024548
H256	H	0.162992	-0.192308	0.953412
H257	H	0.118641	-0.173933	1.088227
H258	H	0.213939	-0.222745	0.993706
H259	H	0.230396	-0.005907	1.188550
C260	C	0.299332	-0.175868	1.013725
H261	H	0.266356	-0.207452	1.056859
H262	H	0.346360	-0.176561	1.015590
H263	H	0.316369	-0.219443	0.925444
C264	C	0.093356	0.020133	1.229297
H265	H	0.094995	-0.010778	1.273039
H266	H	0.045245	0.018447	1.230434
H267	H	0.092522	0.096260	1.272477
C268	C	0.590514	-0.012790	0.518327
H269	H	0.590312	-0.012919	0.452639
H270	H	0.536052	0.022650	0.595669
H271	H	0.610941	-0.088627	0.488337
C272	C	0.594669	0.699719	1.232405
H273	H	0.563793	0.718948	1.318958
H274	H	0.570321	0.659040	1.189383
H275	H	0.595025	0.766993	1.235573
C276	C	0.607801	0.586213	1.011401
H277	H	0.606784	0.652542	1.012553
H278	H	0.575140	0.607127	1.098647
H279	H	0.586421	0.540926	0.965162
C280	C	0.877593	0.479778	0.797364
H281	H	0.931775	0.433772	0.753625
H282	H	0.879651	0.544917	0.796220
H283	H	0.853674	0.437753	0.754186
C284	C	0.877128	0.024271	0.339273
H285	H	0.907664	0.068506	0.364841
H286	H	0.877699	0.027321	0.274714
H287	H	0.901205	-0.052116	0.304235
C288	C	0.590812	-0.014475	0.694153
H289	H	0.622146	-0.075004	0.680848
H290	H	0.570439	-0.044182	0.641813
H291	H	0.545965	0.034528	0.783809
C292	C	0.859883	-0.182654	0.246269
H293	H	0.875036	-0.132394	0.221228
H294	H	0.861693	-0.248832	0.178514
H295	H	0.897122	-0.203110	0.260999
