data_functionalizedCrystal
_audit_creation_method	'MofGen! by Chris Wilmer'
_symmetry_space_group_name_H-M	'P1'
_symmetry_Int_Tables_number	1
_symmetry_cell_setting	triclinic
loop_
_symmetry_equiv_pos_as_xyz
  x,y,z
_cell_length_a	9.065218
_cell_length_b	10.540539
_cell_length_c	8.140239
_cell_angle_alpha	89.998610
_cell_angle_beta	89.997198
_cell_angle_gamma	84.770688
loop_
_atom_site_label
_atom_site_type_symbol
_atom_site_fract_x
_atom_site_fract_y
_atom_site_fract_z
O1	O	1.959468	0.186143	-0.136609
O2	O	1.530107	0.201412	-0.136611
O3	O	1.754583	0.009107	-0.136608
O4	O	1.734992	0.378448	-0.136612
O5	O	1.754571	0.009105	0.136619
O6	O	1.530095	0.201409	0.136616
O7	O	1.959456	0.186141	0.136618
Zn8	Zn	1.744773	0.193775	0.179998
Zn9	Zn	1.744790	0.193778	-0.179991
O10	O	1.734980	0.378446	0.136615
C11	C	1.475122	0.199943	0.000003
C12	C	1.311301	0.195556	0.000002
C13	C	1.753108	-0.038202	0.000003
C14	C	1.748712	-0.179167	-0.000006
C15	C	1.580278	-0.363216	-0.000620
C16	C	1.584734	-0.216582	-0.000005
C17	C	1.827619	-0.240534	0.156020
C18	C	1.822022	-0.387099	0.156152
C19	C	1.825372	-0.387602	-0.154558
C20	C	1.826882	-0.240615	-0.156621
C21	C	2.014441	0.187610	0.000001
C22	C	2.178262	0.191997	-0.000009
C23	C	1.736455	0.425755	0.000001
C24	C	1.740851	0.566719	-0.000001
N25	N	1.744773	0.193772	0.425681
N26	N	1.744802	0.193771	-0.425673
H27	H	1.522646	-0.174207	-0.111851
H28	H	1.772796	-0.198138	0.272130
H29	H	1.943812	-0.434390	-0.155607
H30	H	1.515508	-0.392055	-0.112509
H31	H	1.946435	-0.215951	-0.166043
H32	H	1.515761	-0.393663	0.110642
C33	C	1.981333	-0.451317	0.165743
C34	C	2.041699	-0.541338	0.027507
C35	C	2.201006	-0.605547	0.037109
C36	C	2.299949	-0.579734	0.184948
C37	C	2.239584	-0.489709	0.323195
C38	C	2.080277	-0.425501	0.313592
H39	H	1.968454	-0.560450	-0.081942
H40	H	2.245691	-0.672189	-0.065231
H41	H	2.417878	-0.627265	0.192056
H42	H	2.312829	-0.470598	0.432643
H43	H	2.035592	-0.358858	0.415932
C44	C	1.500272	-0.160474	0.151350
C45	C	1.428560	-0.249114	0.272042
C46	C	1.344098	-0.193007	0.423408
C47	C	1.331348	-0.048260	0.454082
C48	C	1.403062	0.040390	0.333387
C49	C	1.487524	-0.015717	0.182022
H50	H	1.437996	-0.356273	0.249338
H51	H	1.291011	-0.258632	0.512754
H52	H	1.268825	-0.006726	0.566132
H53	H	1.393626	0.147548	0.356091
H54	H	1.540611	0.049907	0.092675
H55	H	1.763696	-0.415515	0.272784
C56	C	1.753688	-0.430482	-0.314325
C57	C	1.744604	-0.573283	-0.348271
C58	C	1.672904	-0.616162	-0.508027
C59	C	1.610287	-0.516240	-0.633839
C60	C	1.619368	-0.373430	-0.599896
C61	C	1.691069	-0.330551	-0.440140
H62	H	1.790959	-0.647260	-0.255135
H63	H	1.666181	-0.721881	-0.533153
H64	H	1.557209	-0.547981	-0.752100
H65	H	1.573014	-0.299453	-0.693032
H66	H	1.697792	-0.224832	-0.415014
H67	H	1.948040	-0.217735	0.161822
H68	H	1.769147	-0.199969	-0.272045
