data_functionalizedCrystal
_audit_creation_method	'MofGen! by Chris Wilmer'
_symmetry_space_group_name_H-M	'P1'
_symmetry_Int_Tables_number	1
_symmetry_cell_setting	triclinic
loop_
_symmetry_equiv_pos_as_xyz
  x,y,z
_cell_length_a	19.288864
_cell_length_b	14.044190
_cell_length_c	17.766277
_cell_angle_alpha	90.009221
_cell_angle_beta	90.019566
_cell_angle_gamma	88.164010
loop_
_atom_site_label
_atom_site_type_symbol
_atom_site_fract_x
_atom_site_fract_y
_atom_site_fract_z
O1	O	0.928947	0.118213	0.062846
O2	O	1.262280	0.451546	0.396179
O3	O	1.595614	0.784879	0.729513
O4	O	0.727711	0.134160	0.062796
O5	O	1.061045	0.467493	0.396129
O6	O	1.394378	0.800826	0.729463
O7	O	0.825306	-0.011786	0.062805
O8	O	1.158639	0.321548	0.396139
O9	O	1.491973	0.654881	0.729472
O10	O	0.831352	0.264158	0.062836
O11	O	1.164686	0.597491	0.396170
O12	O	1.498019	0.930825	0.729503
O13	O	0.825294	-0.011789	-0.062383
O14	O	1.158628	0.321544	0.270950
O15	O	1.491961	0.654878	0.604284
O16	O	0.727699	0.134156	-0.062393
O17	O	1.061033	0.467490	0.270941
O18	O	1.394366	0.800823	0.604274
O19	O	0.928935	0.118209	-0.062343
O20	O	1.262268	0.451543	0.270991
O21	O	1.595602	0.784876	0.604324
Cu22	Cu	0.828316	0.126182	-0.073798
Cu23	Cu	1.161650	0.459516	0.259535
Cu24	Cu	1.494983	0.792849	0.592868
Cu25	Cu	0.828330	0.126187	0.074252
Cu26	Cu	1.161664	0.459520	0.407585
Cu27	Cu	1.494997	0.792853	0.740918
O28	O	0.831340	0.264155	-0.062352
O29	O	1.164674	0.597488	0.270981
O30	O	1.498007	0.930821	0.604315
C31	C	0.701796	0.133645	0.000195
C32	C	1.035129	0.466978	0.333528
C33	C	1.368463	0.800311	0.666862
C34	C	0.624593	0.132105	0.000175
C35	C	0.957927	0.465438	0.333508
C36	C	1.291260	0.798771	0.666842
C37	C	0.585401	0.217739	0.000197
C38	C	0.918734	0.551072	0.333530
C39	C	1.252067	0.884405	0.666863
C40	C	0.512861	0.216292	0.000205
C41	C	0.846194	0.549625	0.333538
C42	C	1.179527	0.882958	0.666871
C43	C	0.479516	0.129205	0.000207
C44	C	0.812849	0.462539	0.333540
C45	C	1.146183	0.795872	0.666873
C46	C	0.518718	0.043560	0.000181
C47	C	0.852051	0.376893	0.333514
C48	C	1.185385	0.710227	0.666847
C49	C	0.591256	0.045010	0.000165
C50	C	0.924590	0.378343	0.333498
C51	C	1.257923	0.711676	0.666832
C52	C	0.366858	0.060747	0.044083
C53	C	0.700192	0.394081	0.377417
C54	C	1.033525	0.727414	0.710750
C55	C	0.294321	0.059301	0.044104
C56	C	0.627654	0.392635	0.377437
C57	C	0.960988	0.725968	0.710770
C58	C	0.255783	0.124731	0.000252
C59	C	0.589116	0.458064	0.333585
C60	C	0.922450	0.791398	0.666918
C61	C	0.289791	0.191623	-0.043611
C62	C	0.623124	0.524956	0.289722
C63	C	0.956457	0.858289	0.623056
C64	C	0.362329	0.193072	-0.043627
C65	C	0.695663	0.526406	0.289707
C66	C	1.028996	0.859739	0.623040
C67	C	0.400861	0.127624	0.000223
C68	C	0.734194	0.460957	0.333556
C69	C	1.067527	0.794291	0.666890
C70	C	0.137934	0.208802	0.000281
C71	C	0.471267	0.542135	0.333614
C72	C	0.804601	0.875469	0.666947
C73	C	0.065393	0.207351	0.000284
C74	C	0.398726	0.540685	0.333618
C75	C	0.732059	0.874018	0.666951
C76	C	0.071251	0.034617	0.000268
C77	C	0.404585	0.367951	0.333601
C78	C	0.737918	0.701284	0.666935
C79	C	0.143791	0.036071	0.000257
C80	C	0.477124	0.369404	0.333590
C81	C	0.810458	0.702737	0.666924
C82	C	0.177128	0.123165	0.000267
C83	C	0.510461	0.456499	0.333600
C84	C	0.843795	0.789832	0.666934
C85	C	0.822655	-0.047091	0.000208
C86	C	1.155988	0.286243	0.333542
C87	C	1.489322	0.619576	0.666875
C88	C	0.814765	-0.152283	0.000200
C89	C	1.148099	0.181050	0.333533
C90	C	1.481432	0.514384	0.666866
C91	C	0.856297	-0.402747	0.000240
C92	C	1.189630	-0.069413	0.333573
C93	C	1.522964	0.263920	0.666906
C94	C	0.800352	-0.344879	0.000220
C95	C	1.133686	-0.011545	0.333554
C96	C	1.467019	0.321788	0.666887
C97	C	0.808374	-0.237709	0.000209
C98	C	1.141707	0.095625	0.333542
C99	C	1.475040	0.428958	0.666876
C100	C	0.848277	-0.509927	0.000251
C101	C	1.181610	-0.176593	0.333584
C102	C	1.514944	0.156740	0.666918
C103	C	0.954851	0.118724	0.000260
C104	C	1.288184	0.452057	0.333593
C105	C	1.621517	0.785391	0.666927
C106	C	1.032053	0.120264	0.000285
C107	C	1.365386	0.453598	0.333618
C108	C	1.698720	0.786931	0.666952
C109	C	0.833991	0.299460	0.000247
C110	C	1.167325	0.632793	0.333580
C111	C	1.500658	0.966126	0.666913
C112	C	0.841881	0.404652	0.000260
C113	C	1.175214	0.737985	0.333594
C114	C	1.508548	1.071318	0.666927
N115	N	0.828311	0.126179	-0.177929
N116	N	1.161645	0.459512	0.155405
N117	N	1.494978	0.792846	0.488738
C118	C	0.871557	0.061576	-0.782213
C119	C	1.204891	0.394909	-0.448880
C120	C	1.538224	0.728242	-0.115547
C121	C	0.871559	0.061578	-0.703411
C122	C	1.204892	0.394911	-0.370078
C123	C	1.538225	0.728244	-0.036745
C124	C	0.828330	0.126178	-0.664017
C125	C	1.161663	0.459511	-0.330684
C126	C	1.494997	0.792845	0.002649
C127	C	0.785110	0.190797	-0.703432
C128	C	1.118443	0.524130	-0.370099
C129	C	1.451777	0.857464	-0.036765
C130	C	0.785115	0.190799	-0.782232
C131	C	1.118448	0.524133	-0.448899
C132	C	1.451782	0.857466	-0.115565
C133	C	0.765851	0.138825	-0.539200
C134	C	1.099184	0.472158	-0.205867
C135	C	1.432517	0.805492	0.127466
C136	C	0.765844	0.138816	-0.460402
C137	C	1.099178	0.472149	-0.127068
C138	C	1.432511	0.805483	0.206265
C139	C	0.828315	0.126176	-0.420971
C140	C	1.161648	0.459510	-0.087638
C141	C	1.494981	0.792843	0.245696
C142	C	0.890793	0.113525	-0.460349
C143	C	1.224127	0.446859	-0.127016
C144	C	1.557460	0.780192	0.206317
C145	C	0.890798	0.113528	-0.539150
C146	C	1.224132	0.446861	-0.205816
C147	C	1.557465	0.780194	0.127517
C148	C	0.828320	0.126183	-0.578572
C149	C	1.161653	0.459516	-0.245238
C150	C	1.494987	0.792850	0.088095
C151	C	0.871537	0.061568	-0.296120
C152	C	1.204870	0.394902	0.037213
C153	C	1.538204	0.728235	0.370546
C154	C	0.871539	0.061577	-0.217317
C155	C	1.204873	0.394910	0.116016
C156	C	1.538206	0.728244	0.449350
C157	C	0.785084	0.190792	-0.217339
C158	C	1.118418	0.524125	0.115994
C159	C	1.451751	0.857458	0.449328
C160	C	0.785088	0.190787	-0.296141
C161	C	1.118422	0.524121	0.037193
C162	C	1.451755	0.857454	0.370526
C163	C	0.828313	0.126171	-0.335527
C164	C	1.161647	0.459504	-0.002193
C165	C	1.494980	0.792837	0.331140
N166	N	0.828340	0.126183	0.178382
N167	N	1.161674	0.459516	0.511715
N168	N	1.495007	0.792849	0.845049
H169	H	0.491564	-0.027346	0.000193
H170	H	0.824897	0.305987	0.333526
H171	H	1.158231	0.639321	0.666859
H172	H	0.746433	-0.375824	0.000211
H173	H	1.079766	-0.042491	0.333545
H174	H	1.413099	0.290843	0.666878
H175	H	0.714976	0.149122	-0.571298
H176	H	1.048310	0.482456	-0.237965
H177	H	1.381643	0.815789	0.095369
Cl178	Cl	0.939541	-0.354972	0.000248
Cl179	Cl	1.272874	-0.021639	0.333582
Cl180	Cl	1.606207	0.311694	0.666915
Cl181	Cl	0.730768	0.272013	-0.653910
Cl182	Cl	1.064102	0.605346	-0.320577
Cl183	Cl	1.397435	0.938680	0.012757
H184	H	0.175702	-0.033662	0.000243
H185	H	0.509036	0.299671	0.333577
H186	H	0.842369	0.633004	0.666910
Cl187	Cl	0.029339	-0.074864	0.000261
Cl188	Cl	0.362673	0.258470	0.333595
Cl189	Cl	0.696006	0.591803	0.666928
Cl190	Cl	0.251576	-0.024781	0.099252
Cl191	Cl	0.584909	0.308552	0.432585
Cl192	Cl	0.918242	0.641886	0.765919
H193	H	0.398230	0.007465	0.079797
H194	H	0.731564	0.340798	0.413131
H195	H	1.064897	0.674131	0.746464
Cl196	Cl	0.925900	-0.019650	-0.831726
Cl197	Cl	1.259234	0.313683	-0.498393
Cl198	Cl	1.592567	0.647017	-0.165060
Cl199	Cl	0.925893	-0.019651	-0.653866
Cl200	Cl	1.259227	0.313683	-0.320532
Cl201	Cl	1.592560	0.647016	0.012801
H202	H	0.906736	0.008969	-0.185233
H203	H	1.240069	0.342302	0.148100
H204	H	1.573403	0.675636	0.481434
Cl205	Cl	0.969339	0.097635	-0.588651
Cl206	Cl	1.302673	0.430968	-0.255318
Cl207	Cl	1.636006	0.764301	0.078016
Cl208	Cl	0.640530	-0.062654	0.000139
Cl209	Cl	0.973863	0.270679	0.333472
Cl210	Cl	1.307197	0.604013	0.666805
Cl211	Cl	0.969333	0.097628	-0.410789
Cl212	Cl	1.302666	0.430961	-0.077455
Cl213	Cl	1.636000	0.764295	0.255878
H214	H	0.906736	0.008956	-0.328190
H215	H	1.240069	0.342289	0.005144
H216	H	1.573403	0.675623	0.338477
H217	H	0.749890	0.243394	-0.185265
H218	H	1.083223	0.576727	0.148068
H219	H	1.416557	0.910061	0.481402
H220	H	0.749894	0.243393	-0.328226
H221	H	1.083227	0.576726	0.005107
H222	H	1.416560	0.910059	0.338440
H223	H	0.714970	0.149106	-0.428346
H224	H	1.048303	0.482439	-0.095013
H225	H	1.381637	0.815773	0.238321
H226	H	0.612539	0.288658	0.000206
H227	H	0.945872	0.621991	0.333540
H228	H	1.279206	0.955325	0.666873
Cl229	Cl	0.463580	0.323954	0.000230
Cl230	Cl	0.796913	0.657287	0.333563
Cl231	Cl	1.130247	0.990621	0.666897
H232	H	0.390016	0.247535	-0.079344
H233	H	0.723349	0.580868	0.253990
H234	H	1.056682	0.914202	0.587323
Cl235	Cl	0.241351	0.273884	-0.098743
Cl236	Cl	0.574684	0.607217	0.234590
Cl237	Cl	0.908018	0.940550	0.567924
Cl238	Cl	0.730780	0.272025	-0.831773
Cl239	Cl	1.064113	0.605358	-0.498440
Cl240	Cl	1.397446	0.938692	-0.165106
H241	H	0.165078	0.279720	0.000278
H242	H	0.498412	0.613053	0.333611
H243	H	0.831745	0.946386	0.666945
H244	H	0.033483	0.277088	0.000297
H245	H	0.366816	0.610421	0.333631
H246	H	0.700150	0.943755	0.666964
