data_functionalizedCrystal
_audit_creation_method	'MofGen! by Chris Wilmer'
_symmetry_space_group_name_H-M	'P1'
_symmetry_Int_Tables_number	1
_symmetry_cell_setting	triclinic
loop_
_symmetry_equiv_pos_as_xyz
  x,y,z
_cell_length_a	10.685904
_cell_length_b	10.685594
_cell_length_c	18.215399
_cell_angle_alpha	85.650869
_cell_angle_beta	94.394219
_cell_angle_gamma	99.063657
loop_
_atom_site_label
_atom_site_type_symbol
_atom_site_fract_x
_atom_site_fract_y
_atom_site_fract_z
Zn1	Zn	1.901912	-0.356640	0.517221
Zn2	Zn	2.401912	0.143360	1.017221
Zn3	Zn	1.885526	-0.568918	0.402922
Zn4	Zn	2.385526	-0.068918	0.902922
Zn5	Zn	1.689640	-0.372945	0.385395
Zn6	Zn	2.189640	0.127055	0.885395
Zn7	Zn	1.673362	-0.585103	0.517173
Zn8	Zn	2.173362	-0.085103	1.017173
O9	O	1.787610	-0.470902	0.455678
O10	O	2.287610	0.029098	0.955678
O11	O	2.077366	-0.371202	0.509414
O12	O	2.577366	0.128798	1.009414
O13	O	1.859496	-0.542972	0.297613
O14	O	2.359496	-0.042972	0.797613
O15	O	1.731468	-0.193154	0.395568
O16	O	2.231468	0.306846	0.895568
O17	O	2.065328	-0.527162	0.425439
O18	O	2.565328	-0.027162	0.925439
O19	O	1.887423	-0.181175	0.492419
O20	O	2.387423	0.318825	0.992419
O21	O	1.715580	-0.398991	0.284736
O22	O	2.215580	0.101009	0.784736
O23	O	1.509853	-0.414686	0.395521
O24	O	2.009853	0.085314	0.895521
O25	O	1.703725	-0.554747	0.620163
O26	O	2.203725	-0.054747	1.120163
O27	O	1.497893	-0.570557	0.492337
O28	O	1.997893	-0.070557	0.992337
O29	O	1.871639	-0.386896	0.620199
O30	O	2.371639	0.113104	1.120199
O31	O	1.843712	-0.748693	0.425392
O32	O	2.343712	-0.248693	0.925392
O33	O	1.687836	-0.760584	0.509332
O34	O	2.187836	-0.260584	1.009332
C35	C	1.457816	-0.496148	0.442022
C36	C	1.957816	0.003852	0.942022
C37	C	1.316726	-0.506979	0.436199
C38	C	1.816726	-0.006979	0.936199
C39	C	1.762264	-0.800693	0.469276
C40	C	2.262264	-0.300693	0.969276
C41	C	1.751537	-0.941770	0.475123
C42	C	2.251537	-0.441770	0.975123
C43	C	2.118692	-0.445557	0.469387
C44	C	2.618692	0.054443	0.969387
C45	C	2.259779	-0.434757	0.475229
C46	C	2.759779	0.065243	0.975229
C47	C	1.787694	-0.470808	0.647630
C48	C	2.287694	0.029192	1.147630
C49	C	1.787730	-0.470768	0.729429
C50	C	2.287730	0.029232	1.229429
C51	C	1.813089	-0.139820	0.442044
C52	C	2.313089	0.360180	0.942044
C53	C	1.823947	0.001268	0.436234
C54	C	2.323947	0.501268	0.936234
C55	C	1.787606	-0.470897	0.264471
C56	C	2.287606	0.029103	0.764471
C57	C	1.787844	-0.470561	0.182668
C58	C	2.287844	0.029439	0.682668
C59	C	1.875198	-0.383290	0.917641
C60	C	2.375198	0.116710	1.417641
C61	C	1.875216	-0.383252	0.994499
C62	C	2.375216	0.116748	1.494499
C63	C	1.700366	-0.558043	0.994451
C64	C	2.200366	-0.058043	1.494451
C65	C	1.700344	-0.558075	0.917594
C66	C	2.200344	-0.058075	1.417594
C67	C	1.787766	-0.470699	0.879191
C68	C	2.287766	0.029301	1.379191
C69	C	1.787807	-0.470630	1.032906
C70	C	2.287807	0.029370	1.532906
C71	C	1.787826	-0.470589	1.116239
C72	C	2.287826	0.029411	1.616239
C73	C	1.787746	-0.470738	0.795853
C74	C	2.287746	0.029262	1.295853
H75	H	1.894153	-0.939572	0.398469
H76	H	2.394153	-0.439572	0.898469
Br77	Br	1.634532	-1.040375	0.538083
Br78	Br	2.134532	-0.540375	1.038083
Br79	Br	1.993840	-0.264708	0.865525
Br80	Br	2.493840	0.235292	1.365525
H81	H	1.629192	-0.629184	1.025728
H82	H	2.129192	-0.129184	1.525728
Br83	Br	1.358423	-0.317873	0.538345
Br84	Br	1.858423	0.182127	1.038345
Br85	Br	1.993887	-0.264628	1.046678
Br86	Br	2.493887	0.235372	1.546678
H87	H	1.257543	-0.577091	0.398329
H88	H	1.757543	-0.077091	0.898329
Br89	Br	1.581667	-0.676700	0.865406
Br90	Br	2.081667	-0.176700	1.365406
