data_functionalizedCrystal
_audit_creation_method	'MofGen! by Chris Wilmer'
_symmetry_space_group_name_H-M	'P1'
_symmetry_Int_Tables_number	1
_symmetry_cell_setting	triclinic
loop_
_symmetry_equiv_pos_as_xyz
  x,y,z
_cell_length_a	23.532355
_cell_length_b	12.784905
_cell_length_c	11.892095
_cell_angle_alpha	93.478840
_cell_angle_beta	86.132146
_cell_angle_gamma	77.967409
loop_
_atom_site_label
_atom_site_type_symbol
_atom_site_fract_x
_atom_site_fract_y
_atom_site_fract_z
O1	O	0.753262	0.122006	-0.093847
O2	O	0.586525	0.140740	-0.093883
O3	O	0.682095	-0.023487	-0.093859
O4	O	0.657693	0.286233	-0.093871
O5	O	0.674128	-0.009815	0.094146
O6	O	0.578558	0.154412	0.094123
O7	O	0.745295	0.135678	0.094159
Zn8	Zn	0.660661	0.147216	0.123991
Zn9	Zn	0.671159	0.129202	-0.123715
O10	O	0.649725	0.299905	0.094135
C11	C	0.561347	0.147107	0.000116
C12	C	0.498194	0.145698	0.000102
C13	C	0.679699	-0.056268	0.000142
C14	C	0.684421	-0.174313	0.000139
C15	C	0.588211	-0.369649	0.000129
C16	C	0.592645	-0.480563	0.000126
C17	C	0.697723	-0.507056	0.000136
C18	C	0.693289	-0.396142	0.000140
C19	C	0.638531	-0.327442	0.000135
C20	C	0.634097	-0.216527	0.000130
C21	C	0.739175	-0.243022	0.000149
C22	C	0.743609	-0.353935	0.000145
C23	C	0.102247	0.144307	0.102631
C24	C	0.042910	0.142967	0.102636
O25	O	0.008531	0.148577	0.189792
N26	N	0.017575	0.134851	0.000154
C27	C	0.051582	0.128062	-0.102338
O28	O	0.024585	0.121034	-0.189506
C29	C	0.110919	0.129394	-0.102341
C30	C	0.136249	0.137522	0.000147
C31	C	0.127577	0.152433	0.205111
C32	C	0.186910	0.153774	0.205106
C33	C	0.220913	0.146989	0.102622
C34	C	0.195582	0.138863	0.000142
C35	C	0.144927	0.122597	-0.204833
C36	C	0.204267	0.123929	-0.204827
C37	C	0.229597	0.132057	-0.102339
C38	C	0.288918	0.133419	-0.102347
N39	N	0.314252	0.141536	0.000134
C40	C	0.280250	0.148321	0.102619
C41	C	-0.073030	0.125264	-0.102323
C42	C	-0.132367	0.123939	-0.102321
C43	C	-0.141035	0.138843	0.102653
C44	C	-0.081698	0.140175	0.102650
C45	C	-0.047695	0.133381	0.000158
C46	C	0.404854	0.151138	0.102601
C47	C	0.464192	0.152483	0.102587
C48	C	0.472856	0.137574	-0.102387
C49	C	0.413522	0.136235	-0.102374
C50	C	0.379523	0.143014	0.000129
O51	O	0.323332	0.127810	-0.189459
O52	O	0.307257	0.155334	0.189772
C53	C	0.770473	0.129310	0.000158
C54	C	0.833626	0.130719	0.000164
C55	C	0.652122	0.332686	0.000131
C56	C	0.647400	0.450731	0.000127
N57	N	0.653501	0.159509	0.293043
N58	N	0.678324	0.116901	-0.292767
C59	C	0.728149	0.031300	0.529709
C60	C	0.723148	0.039900	0.648050
C61	C	0.638496	0.185304	0.648067
C62	C	0.643497	0.176704	0.529726
C63	C	0.688326	0.099700	0.470552
C64	C	0.693329	0.091105	0.352209
C65	C	0.608675	0.236504	0.352228
C66	C	0.603674	0.245104	0.470569
H67	H	0.589510	-0.160593	0.000123
Br68	Br	-0.187193	0.148050	0.241741
Br69	Br	0.513900	-0.276410	0.000103
H70	H	0.231950	0.118397	-0.288290
H71	H	0.764654	-0.031393	0.481528
Br72	Br	0.777194	-0.052938	0.728333
Br73	Br	0.524350	-0.537840	0.000126
Br74	Br	0.519014	0.128362	-0.241467
Br75	Br	0.498563	0.163522	0.241687
Br76	Br	0.772030	-0.600304	0.000181
Br77	Br	0.817919	-0.447178	0.000165
Br78	Br	0.807471	-0.185738	0.000142
Br79	Br	0.754169	-0.013393	0.271901
Br80	Br	0.577654	0.289789	0.728386
H81	H	0.567174	0.307797	0.518762
H82	H	0.576249	0.292203	0.304049
Br83	Br	0.358721	0.160335	0.241713
Br84	Br	-0.047328	0.151206	0.241745
Br85	Br	0.221278	0.164801	0.344205
H86	H	0.099898	0.157956	0.288571
Br87	Br	-0.026889	0.116051	-0.241433
Br88	Br	-0.166738	0.112934	-0.241418
H89	H	0.124314	0.115977	-0.288290
H90	H	0.392896	0.129633	-0.185828
