data_functionalizedCrystal
_audit_creation_method	'MofGen! by Chris Wilmer'
_symmetry_space_group_name_H-M	'P1'
_symmetry_Int_Tables_number	1
_symmetry_cell_setting	triclinic
loop_
_symmetry_equiv_pos_as_xyz
  x,y,z
_cell_length_a	29.839134
_cell_length_b	16.959454
_cell_length_c	16.959447
_cell_angle_alpha	89.973264
_cell_angle_beta	90.025176
_cell_angle_gamma	89.985063
loop_
_atom_site_label
_atom_site_type_symbol
_atom_site_fract_x
_atom_site_fract_y
_atom_site_fract_z
Zn1	Zn	0.686800	0.314774	0.447157
Zn2	Zn	1.020134	0.648108	0.780491
Zn3	Zn	1.353467	0.981441	1.113824
Zn4	Zn	0.686756	0.446967	0.314987
Zn5	Zn	1.020090	0.780300	0.648320
Zn6	Zn	1.353423	1.113633	0.981654
Zn7	Zn	0.611679	0.314794	0.314970
Zn8	Zn	0.945012	0.648128	0.648303
Zn9	Zn	1.278346	0.981461	0.981636
Zn10	Zn	0.611659	0.446903	0.447101
Zn11	Zn	0.944992	0.780236	0.780434
Zn12	Zn	1.278326	1.113569	1.113767
O13	O	0.649224	0.380859	0.381054
O14	O	0.982557	0.714193	0.714387
O15	O	1.315890	1.047526	1.047720
O16	O	0.749662	0.332328	0.429656
O17	O	1.082995	0.665662	0.762989
O18	O	1.416328	0.998995	1.096322
O19	O	0.676787	0.429469	0.204374
O20	O	1.010121	0.762802	0.537707
O21	O	1.343454	1.096135	0.871040
O22	O	0.621671	0.204181	0.332521
O23	O	0.955004	0.537514	0.665855
O24	O	1.288338	0.870847	0.999188
O25	O	0.749629	0.429449	0.332551
O26	O	1.082963	0.762783	0.665884
O27	O	1.416296	1.096116	0.999217
O28	O	0.676862	0.204166	0.429639
O29	O	1.010196	0.537499	0.762972
O30	O	1.343529	0.870833	1.096305
O31	O	0.621628	0.332362	0.204361
O32	O	0.954962	0.665696	0.537694
O33	O	1.288295	0.999029	0.871028
O34	O	0.548809	0.332300	0.332466
O35	O	0.882143	0.665634	0.665800
O36	O	1.215476	0.998967	0.999133
O37	O	0.621637	0.429341	0.557719
O38	O	0.954970	0.762674	0.891052
O39	O	1.288303	1.096007	1.224386
O40	O	0.548795	0.429360	0.429542
O41	O	0.882128	0.762693	0.762875
O42	O	1.215461	1.096027	1.096209
O43	O	0.676843	0.332266	0.557761
O44	O	1.010176	0.665600	0.891094
O45	O	1.343509	0.998933	1.224427
O46	O	0.676768	0.557569	0.332496
O47	O	1.010101	0.890902	0.665829
O48	O	1.343434	1.224236	0.999162
O49	O	0.621594	0.557522	0.429559
O50	O	0.954927	0.890855	0.762892
O51	O	1.288261	1.224189	1.096226
C52	C	0.532501	0.380826	0.380997
C53	C	0.865835	0.714159	0.714330
C54	C	1.199168	1.047493	1.047663
C55	C	0.482567	0.380831	0.380991
C56	C	0.815900	0.714164	0.714324
C57	C	1.149233	1.047497	1.047658
C58	C	0.649186	0.586226	0.381040
C59	C	0.982519	0.919559	0.714373
C60	C	1.315853	1.252892	1.047707
C61	C	0.649211	0.674082	0.381061
C62	C	0.982544	1.007416	0.714394
C63	C	1.315878	1.340749	1.047728
C64	C	0.649242	0.380794	0.587222
C65	C	0.982576	0.714127	0.920555
C66	C	1.315909	1.047461	1.253889
C67	C	0.649250	0.380766	0.675079
C68	C	0.982584	0.714099	1.008412
C69	C	1.315917	1.047433	1.341745
C70	C	0.172925	0.431473	0.431539
C71	C	0.506258	0.764806	0.764872
C72	C	0.839592	1.098140	1.098206
C73	C	-0.014748	0.431495	0.431574
C74	C	0.318585	0.764829	0.764908
C75	C	0.651919	1.098162	1.098241
O76	O	-0.039011	0.474516	0.474518
O77	O	0.294322	0.807850	0.807852
O78	O	0.627655	1.141183	1.141185
N79	N	-0.038218	0.380888	0.381113
N80	N	0.295115	0.714222	0.714446
N81	N	0.628448	1.047555	1.047780
C82	C	-0.014768	0.330269	0.330643
C83	C	0.318566	0.663602	0.663977
C84	C	0.651899	0.996935	0.997310
O85	O	-0.039037	0.287219	0.287730
O86	O	0.294296	0.620552	0.621063
O87	O	0.627630	0.953886	0.954396
C88	C	0.172905	0.330243	0.330613
C89	C	0.506238	0.663576	0.663946
C90	C	0.839571	0.996910	0.997279
C91	C	0.196373	0.380859	0.381071
C92	C	0.529706	0.714192	0.714405
C93	C	0.863039	1.047526	1.047738
C94	C	0.196393	0.482084	0.481994
C95	C	0.529727	0.815418	0.815328
C96	C	0.863060	1.148751	1.148661
C97	C	0.243309	0.482081	0.481982
C98	C	0.576642	0.815415	0.815315
C99	C	0.909975	1.148748	1.148649
C100	C	0.266756	0.431467	0.431514
C101	C	0.600089	0.764800	0.764848
C102	C	0.933423	1.098134	1.098181
C103	C	0.243288	0.380856	0.381059
C104	C	0.576621	0.714189	0.714392
C105	C	0.909955	1.047523	1.047726
C106	C	0.196354	0.279620	0.280147
C107	C	0.529688	0.612953	0.613481
C108	C	0.863021	0.946286	0.946814
C109	C	0.243275	0.279616	0.280146
C110	C	0.576609	0.612950	0.613479
C111	C	0.909942	0.946283	0.946812
C112	C	0.266743	0.330232	0.330604
C113	C	0.600077	0.663566	0.663938
C114	C	0.933410	0.996899	0.997271
C115	C	0.313651	0.330239	0.330579
C116	C	0.646984	0.663572	0.663913
C117	C	0.980318	0.996905	0.997246
N118	N	0.337121	0.380846	0.381040
N119	N	0.670455	0.714179	0.714374
N120	N	1.003788	1.047512	1.047707
C121	C	0.313674	0.431460	0.431508
C122	C	0.647007	0.764793	0.764841
C123	C	0.980341	1.098126	1.098175
C124	C	-0.113298	0.330287	0.330662
C125	C	0.220035	0.663620	0.663995
C126	C	0.553368	0.996953	0.997328
C127	C	-0.160216	0.330294	0.330668
C128	C	0.173117	0.663627	0.664002
C129	C	0.506451	0.996961	0.997335
C130	C	-0.160193	0.431520	0.431601
C131	C	0.173140	0.764853	0.764934
C132	C	0.506474	1.098187	1.098267
C133	C	-0.113274	0.431516	0.431589
C134	C	0.220059	0.764849	0.764923
C135	C	0.553392	1.098183	1.098256
C136	C	-0.089828	0.380894	0.381123
C137	C	0.243506	0.714227	0.714456
C138	C	0.576839	1.047560	1.047790
C139	C	0.412200	0.431450	0.431478
C140	C	0.745533	0.764783	0.764811
C141	C	1.078866	1.098117	1.098144
C142	C	0.459119	0.431445	0.431459
C143	C	0.792453	0.764778	0.764792
C144	C	1.125786	1.098112	1.098125
C145	C	0.459092	0.330216	0.330530
C146	C	0.792426	0.663550	0.663863
C147	C	1.125759	0.996883	0.997196
C148	C	0.412177	0.330224	0.330545
C149	C	0.745510	0.663557	0.663879
C150	C	1.078843	0.996891	0.997212
C151	C	0.388732	0.380844	0.381026
C152	C	0.722065	0.714177	0.714359
C153	C	1.055398	1.047510	1.047693
O154	O	0.337943	0.287234	0.287664
O155	O	0.671276	0.620567	0.620997
O156	O	1.004610	0.953901	0.954331
O157	O	0.337951	0.474491	0.474428
O158	O	0.671285	0.807824	0.807761
O159	O	1.004618	1.141157	1.141094
C160	C	0.126010	0.431476	0.431551
C161	C	0.459343	0.764810	0.764885
C162	C	0.792676	1.098143	1.098218
C163	C	0.102542	0.380865	0.381096
C164	C	0.435875	0.714198	0.714430
C165	C	0.769208	1.047532	1.047763
C166	C	0.125989	0.330251	0.330629
C167	C	0.459322	0.663584	0.663962
C168	C	0.792656	0.996917	0.997295
C169	C	0.055624	0.380872	0.381103
C170	C	0.388957	0.714206	0.714436
C171	C	0.722290	1.047539	1.047769
C172	C	0.032176	0.431486	0.431570
C173	C	0.365510	0.764820	0.764904
C174	C	0.698843	1.098153	1.098237
C175	C	0.055647	0.482093	0.482031
C176	C	0.388980	0.815427	0.815365
C177	C	0.722313	1.148760	1.148698
C178	C	0.102562	0.482090	0.482019
C179	C	0.435896	0.815424	0.815352
C180	C	0.769229	1.148757	1.148686
C181	C	0.102519	0.279644	0.280167
C182	C	0.435852	0.612977	0.613501
C183	C	0.769185	0.946310	0.946834
C184	C	0.055603	0.279652	0.280183
C185	C	0.388936	0.612985	0.613517
C186	C	0.722270	0.946318	0.946850
C187	C	0.032156	0.330266	0.330651
C188	C	0.365489	0.663599	0.663984
C189	C	0.698822	0.996932	0.997318
C190	C	0.766402	0.380894	0.381111
C191	C	1.099735	0.714227	0.714445
C192	C	1.433069	1.047560	1.047778
C193	C	0.816336	0.380908	0.381136
C194	C	1.149670	0.714242	0.714469
C195	C	1.483003	1.047575	1.047803
C196	C	0.649274	0.174691	0.381084
C197	C	0.982607	0.508025	0.714418
C198	C	1.315940	0.841358	1.047751
C199	C	0.649295	0.086835	0.381098
C200	C	0.982628	0.420168	0.714431
C201	C	1.315962	0.753501	1.047764
C202	C	0.620536	1.045563	0.431589
C203	C	0.953870	1.378897	0.764922
C204	C	1.287203	1.712230	1.098256
C205	C	0.678036	1.045552	0.330599
C206	C	1.011369	1.378886	0.663932
C207	C	1.344703	1.712219	0.997265
C208	C	0.678020	0.963006	0.330591
C209	C	1.011354	1.296340	0.663925
C210	C	1.344687	1.629673	0.997258
C211	C	0.649262	0.921735	0.381083
C212	C	0.982595	1.255069	0.714416
C213	C	1.315929	1.588402	1.047750
C214	C	0.620519	0.963010	0.431582
C215	C	0.953852	1.296343	0.764915
C216	C	1.287186	1.629677	1.098248
C217	C	0.706760	0.921726	0.280088
C218	C	1.040093	1.255059	0.613421
C219	C	1.373426	1.588392	0.946755
C220	C	0.706745	0.839175	0.280078
C221	C	1.040078	1.172508	0.613411
C222	C	1.373411	1.505841	0.946745
C223	C	0.677988	0.797902	0.330574
C224	C	1.011321	1.131235	0.663907
C225	C	1.344655	1.464569	0.997241
C226	C	0.649244	0.839182	0.381076
C227	C	0.982578	1.172515	0.714409
C228	C	1.315911	1.505848	1.047742
C229	C	0.620486	0.797910	0.431567
C230	C	0.953819	1.131244	0.764900
C231	C	1.287152	1.464577	1.098234
C232	C	0.591744	0.839189	0.482073
C233	C	0.925077	1.172522	0.815406
C234	C	1.258411	1.505855	1.148740
C235	C	0.591762	0.921737	0.482078
C236	C	0.925096	1.255070	0.815411
C237	C	1.258429	1.588404	1.148744
C238	C	0.677970	0.715354	0.330569
C239	C	1.011303	1.048687	0.663903
C240	C	1.344636	1.382020	0.997236
C241	C	0.620468	0.715357	0.431560
C242	C	0.953801	1.048690	0.764893
C243	C	1.287135	1.382024	1.098226
C244	C	0.649231	0.380868	0.175687
C245	C	0.982564	0.714201	0.509021
C246	C	1.315898	1.047534	0.842354
C247	C	0.649310	0.380673	0.087831
C248	C	0.982643	0.714006	0.421165
C249	C	1.315977	1.047339	0.754498
C250	C	0.620561	0.431225	1.046535
C251	C	0.953894	0.764558	1.379869
C252	C	1.287227	1.097892	1.713202
C253	C	0.678047	0.330141	1.046574
C254	C	1.011381	0.663474	1.379907
C255	C	1.344714	0.996807	1.713240
C256	C	0.678035	0.330157	0.964028
C257	C	1.011369	0.663491	1.297361
C258	C	1.344702	0.996824	1.630694
C259	C	0.649286	0.380709	0.922732
C260	C	0.982619	0.714043	1.256065
C261	C	1.315953	1.047376	1.589398
C262	C	0.620549	0.431245	0.963982
C263	C	0.953882	0.764578	1.297315
C264	C	1.287216	1.097911	1.630648
C265	C	0.706775	0.279629	0.922772
C266	C	1.040109	0.612962	1.256105
C267	C	1.373442	0.946295	1.589438
C268	C	0.706765	0.279644	0.840221
C269	C	1.040098	0.612977	1.173554
C270	C	1.373432	0.946311	1.506887
C271	C	0.678013	0.330193	0.798923
C272	C	1.011346	0.663526	1.132256
C273	C	1.344680	0.996859	1.465590
C274	C	0.649274	0.380729	0.840178
C275	C	0.982608	0.714063	1.173511
C276	C	1.315941	1.047396	1.506845
C277	C	0.620525	0.431282	0.798882
C278	C	0.953858	0.764615	1.132215
C279	C	1.287192	1.097948	1.465549
C280	C	0.591784	0.481815	0.840136
C281	C	0.925117	0.815148	1.173469
C282	C	1.258450	1.148482	1.506802
C283	C	0.591797	0.481794	0.922684
C284	C	0.925130	0.815127	1.256017
C285	C	1.258464	1.148460	1.589351
C286	C	0.678000	0.330214	0.716375
C287	C	1.011333	0.663547	1.049708
C288	C	1.344666	0.996881	1.383041
C289	C	0.620513	0.431301	0.716328
C290	C	0.953846	0.764635	1.049662
C291	C	1.287180	1.097968	1.382995
H292	H	0.478225	0.472665	0.472549
H293	H	0.811558	0.805999	0.805882
H294	H	1.144892	1.139332	1.139215
F295	F	0.589861	0.671439	0.485305
F296	F	0.923194	1.004773	0.818638
F297	F	1.256527	1.338106	1.151972
H298	H	0.478192	0.289010	0.289438
H299	H	0.811525	0.622343	0.622771
H300	H	1.144858	0.955677	0.956104
H301	H	0.730184	0.238477	0.956401
H302	H	1.063518	0.571810	1.289734
H303	H	1.396851	0.905144	1.623068
F304	F	0.737353	0.225861	0.796323
F305	F	1.070686	0.559194	1.129656
F306	F	1.404019	0.892528	1.462990
F307	F	0.589972	0.485001	1.090439
F308	F	0.923306	0.818334	1.423773
F309	F	1.256639	1.151668	1.757106
H310	H	0.568326	0.805576	0.523180
H311	H	0.901660	1.138909	0.856513
H312	H	1.234993	1.472243	1.189847
F313	F	-0.088350	0.276403	0.276945
F314	F	0.244983	0.609737	0.610278
F315	F	0.578316	0.943070	0.943612
H316	H	0.597098	0.472461	0.682711
H317	H	0.930431	0.805794	1.016044
H318	H	1.263764	1.139127	1.349378
F319	F	0.737366	0.965653	0.226358
F320	F	1.070699	1.298986	0.559692
F321	F	1.404033	1.632320	0.893025
H322	H	0.177255	0.238405	0.239056
H323	H	0.510588	0.571738	0.572390
H324	H	0.843921	0.905072	0.905723
F325	F	-0.088302	0.485387	0.485295
F326	F	0.245031	0.818720	0.818628
F327	F	0.578364	1.152054	1.151962
H328	H	0.568399	0.522938	0.956280
H329	H	0.901732	0.856271	1.289613
H330	H	1.235065	1.189604	1.622947
F331	F	0.708646	0.276348	1.090526
F332	F	1.041979	0.609682	1.423859
F333	F	1.375312	0.943015	1.757192
H334	H	0.701402	0.289073	0.682790
H335	H	1.034735	0.622406	1.016123
H336	H	1.368068	0.955739	1.349456
H337	H	0.036499	0.238435	0.239086
H338	H	0.369833	0.571768	0.572420
H339	H	0.703166	0.905102	0.905753
H340	H	0.262363	0.238388	0.239054
H341	H	0.595697	0.571721	0.572387
H342	H	0.929030	0.905055	0.905720
F343	F	0.737337	0.795251	0.226331
F344	F	1.070670	1.128584	0.559664
F345	F	1.404003	1.461917	0.892998
H346	H	0.393116	0.472667	0.472586
H347	H	0.726450	0.806001	0.805919
H348	H	1.059783	1.139334	1.139252
F349	F	0.708641	1.089478	0.276865
F350	F	1.041974	1.422811	0.610198
F351	F	1.375308	1.756145	0.943532
F352	F	0.171446	0.535959	0.535715
F353	F	0.504779	0.869292	0.869048
F354	F	0.838112	1.202626	1.202381
F355	F	0.268279	0.535951	0.535691
F356	F	0.601613	0.869284	0.869024
F357	F	0.934946	1.202618	1.202358
H358	H	0.701369	0.681749	0.289444
H359	H	1.034702	1.015082	0.622778
H360	H	1.368035	1.348415	0.956111
H361	H	-0.179292	0.472732	0.472693
H362	H	0.154041	0.806065	0.806027
H363	H	0.487375	1.139399	1.139360
F364	F	0.561190	0.535618	0.796176
F365	F	0.894523	0.868951	1.129509
F366	F	1.227856	1.202285	1.462843
F367	F	0.387200	0.276365	0.276830
F368	F	0.720533	0.609698	0.610164
F369	F	1.053866	0.943032	0.943497
F370	F	-0.185187	0.276431	0.276954
F371	F	0.148146	0.609765	0.610287
F372	F	0.481479	0.943098	0.943620
H373	H	0.121666	0.523307	0.523108
H374	H	0.454999	0.856640	0.856442
H375	H	0.788332	1.189974	1.189775
H376	H	0.036548	0.523308	0.523122
H377	H	0.369881	0.856641	0.856455
H378	H	0.703214	1.189974	1.189788
H379	H	0.121605	0.238427	0.239070
H380	H	0.454938	0.571760	0.572403
H381	H	0.788271	0.905093	0.905736
H382	H	0.597137	1.079176	0.472712
H383	H	0.930470	1.412509	0.806045
H384	H	1.263804	1.745842	1.139379
F385	F	0.561175	0.965673	0.535824
F386	F	0.894509	1.299007	0.869157
F387	F	1.227842	1.632340	1.202491
