data_functionalizedCrystal
_audit_creation_method	'MofGen! by Chris Wilmer'
_symmetry_space_group_name_H-M	'P1'
_symmetry_Int_Tables_number	1
_symmetry_cell_setting	triclinic
loop_
_symmetry_equiv_pos_as_xyz
  x,y,z
_cell_length_a	14.519731
_cell_length_b	14.519731
_cell_length_c	11.295483
_cell_angle_alpha	94.102025
_cell_angle_beta	85.886642
_cell_angle_gamma	83.688853
loop_
_atom_site_label
_atom_site_type_symbol
_atom_site_fract_x
_atom_site_fract_y
_atom_site_fract_z
O1	O	1.230066	0.114783	-0.099030
O2	O	0.961593	0.128999	-0.099032
O3	O	1.102937	-0.012345	-0.099020
O4	O	1.088722	0.256127	-0.099042
O5	O	1.090522	0.000051	0.099029
O6	O	0.949179	0.141395	0.099018
O7	O	1.217652	0.127179	0.099020
Cu8	Cu	1.082282	0.135418	0.117102
Cu9	Cu	1.096963	0.120759	-0.117115
O10	O	1.076308	0.268523	0.099008
C11	C	0.921026	0.134531	-0.000008
C12	C	0.818646	0.132535	-0.000008
C13	C	0.735502	0.130912	-0.000013
C14	C	0.631193	0.128886	-0.000013
C15	C	0.548054	0.127277	-0.000013
C16	C	0.443739	0.125251	-0.000015
C17	C	1.096063	-0.040506	0.000005
C18	C	1.094067	-0.142887	0.000006
C19	C	1.092446	-0.226031	0.000003
C20	C	1.090420	-0.330341	-0.000006
C21	C	1.088812	-0.413480	-0.000014
C22	C	1.086786	-0.517796	-0.000021
C23	C	1.258218	0.121647	-0.000008
C24	C	1.360599	0.123643	-0.000015
C25	C	1.083181	0.296684	-0.000020
C26	C	1.085178	0.399064	-0.000029
N27	N	1.071962	0.145728	0.281838
N28	N	1.107290	0.110442	-0.281850
C29	C	1.181576	0.036175	0.531136
C30	C	1.173784	0.043973	0.655799
C31	C	1.048582	0.169116	0.655829
C32	C	1.056374	0.161319	0.531166
C33	C	1.122874	0.094847	0.468824
C34	C	1.130670	0.087054	0.344159
C35	C	1.005464	0.212192	0.344190
C36	C	0.997672	0.219990	0.468853
H37	H	1.184820	0.032932	0.293401
H38	H	0.943527	0.274108	0.519626
C39	C	1.315830	0.007717	0.390946
C40	C	1.254697	-0.036870	0.462620
H41	H	1.360982	-0.037376	0.348660
H42	H	1.281982	0.041519	0.335984
H43	H	1.345997	0.049236	0.439592
H44	H	1.224525	-0.078384	0.413973
H45	H	1.288549	-0.070687	0.517588
C46	C	0.880925	0.336682	0.356747
C47	C	0.940934	0.276692	0.275695
H48	H	0.841095	0.376505	0.314458
H49	H	0.844646	0.301260	0.405373
H50	H	0.916340	0.372976	0.405364
H51	H	0.905519	0.240393	0.227083
H52	H	0.977216	0.312118	0.227048
C53	C	1.298323	-0.080507	0.643243
C54	C	1.238312	-0.020519	0.724294
H55	H	1.338162	-0.120320	0.685532
H56	H	1.262916	-0.116803	0.594635
H57	H	1.334599	-0.045076	0.594606
H58	H	1.202030	-0.055950	0.772925
H59	H	1.273722	0.015781	0.772922
C60	C	0.886626	0.225288	0.694273
C61	C	0.975480	0.242163	0.724379
H62	H	0.841495	0.270378	0.736603
H63	H	0.882867	0.229060	0.611124
H64	H	0.875251	0.164983	0.714696
H65	H	0.986858	0.302465	0.703947
H66	H	0.979242	0.238399	0.807547
