data_functionalizedCrystal
_audit_creation_method	'MofGen! by Chris Wilmer'
_symmetry_space_group_name_H-M	'P1'
_symmetry_Int_Tables_number	1
_symmetry_cell_setting	triclinic
loop_
_symmetry_equiv_pos_as_xyz
  x,y,z
_cell_length_a	13.635800
_cell_length_b	11.102228
_cell_length_c	19.551833
_cell_angle_alpha	85.476599
_cell_angle_beta	78.336523
_cell_angle_gamma	108.604745
loop_
_atom_site_label
_atom_site_type_symbol
_atom_site_fract_x
_atom_site_fract_y
_atom_site_fract_z
V1	V	-2.016323	-0.177172	0.217859
O2	O	-1.996592	0.007143	0.213711
O3	O	-2.004979	-0.349983	0.216371
O4	O	-1.987512	-0.175048	0.312875
O5	O	-2.014180	-0.169003	0.116539
V6	V	-2.257068	-0.155055	0.205740
O7	O	-2.149180	-0.225688	0.244443
O8	O	-2.349309	-0.106539	0.179157
O9	O	-2.156809	0.017757	0.207229
O10	O	-2.335497	-0.339369	0.209889
O11	O	-2.317909	-0.163223	0.307061
O12	O	-2.174276	-0.157178	0.110725
V13	V	-1.516323	-0.177172	0.217859
O14	O	-1.496592	0.007143	0.213711
O15	O	-1.504979	-0.349983	0.216371
O16	O	-1.487512	-0.175048	0.312875
O17	O	-1.514180	-0.169003	0.116539
V18	V	-1.757068	-0.155055	0.205740
O19	O	-1.649180	-0.225688	0.244443
O20	O	-1.849309	-0.106539	0.179157
O21	O	-1.656809	0.017757	0.207229
O22	O	-1.835497	-0.339369	0.209889
O23	O	-1.817909	-0.163223	0.307061
O24	O	-1.674276	-0.157178	0.110725
C25	C	-1.930756	-0.392092	0.212934
C26	C	-1.962094	-0.533372	0.212350
C27	C	-1.908474	-0.168943	0.336034
C28	C	-1.925645	-0.168351	0.413709
C29	C	-2.203736	-0.811844	0.218218
C30	C	-2.280392	-0.751963	0.221979
C31	C	-2.250952	-0.619221	0.222532
C32	C	-2.144845	-0.546354	0.219321
C33	C	-2.068189	-0.606234	0.215559
C34	C	-2.097640	-0.738981	0.215009
C35	C	-1.885438	-0.593252	0.208589
C36	C	-1.914877	-0.725996	0.208041
C37	C	-1.779331	-0.520385	0.205377
C38	C	-1.702675	-0.580267	0.201620
C39	C	-1.732121	-0.713018	0.201068
C40	C	-1.838222	-0.785876	0.204279
C41	C	-2.062703	0.059859	0.210664
C42	C	-2.020984	0.201137	0.211252
C43	C	-2.084985	-0.163287	0.087562
C44	C	-2.057433	-0.163874	0.009886
C45	C	-1.430756	-0.392092	0.212934
C46	C	-1.462094	-0.533372	0.212350
C47	C	-1.408474	-0.168943	0.336034
C48	C	-1.425645	-0.168351	0.413709
C49	C	-2.025073	-0.174451	0.453757
C50	C	-2.041207	-0.173894	0.526741
C51	C	-1.957914	-0.167262	0.559678
C52	C	-1.858470	-0.161153	0.519620
C53	C	-1.842335	-0.161697	0.446636
C54	C	-1.931653	-0.236365	0.678990
C55	C	-1.947793	-0.235829	0.751973
C56	C	-2.007672	-0.165578	0.784784
C57	C	-2.051430	-0.095880	0.744605
C58	C	-2.035296	-0.096424	0.671620
C59	C	-1.975398	-0.166670	0.638816
C60	C	-2.124600	-0.171073	0.903970
C61	C	-2.140729	-0.170508	0.976955
C62	C	-1.957991	-0.157780	0.969834
C63	C	-1.941862	-0.158332	0.896849
C64	C	-2.025172	-0.164985	0.863922
C65	C	-1.562703	0.059859	0.210664
C66	C	-1.520984	0.201137	0.211252
C67	C	-1.584985	-0.163287	0.087562
C68	C	-1.557433	-0.163874	0.009886
C69	C	-1.525078	-0.174430	0.453748
C70	C	-1.541222	-0.173857	0.526732
C71	C	-1.457934	-0.167212	0.559676
C72	C	-1.358492	-0.161128	0.519631
C73	C	-1.342347	-0.161693	0.446648
C74	C	-1.458488	-0.170504	-0.023040
C75	C	-1.432582	-0.171040	-0.096026
C76	C	-1.505624	-0.164954	-0.136084
C77	C	-1.604575	-0.158320	-0.103153
C78	C	-1.630477	-0.157775	-0.030169
C79	C	-1.425084	-0.496311	0.084370
C80	C	-1.421300	-0.544154	0.020108
C81	C	-1.450748	-0.676899	0.019563
C82	C	-1.483986	-0.761807	0.083287
C83	C	-1.487770	-0.713965	0.147549
C84	C	-1.458316	-0.581214	0.148087
C85	C	-1.524786	-0.751025	0.275528
C86	C	-1.495332	-0.618280	0.276074
C87	C	-1.558024	-0.835933	0.339252
C88	C	-1.561802	-0.788091	0.403515
C89	C	-1.532350	-0.655337	0.404058
C90	C	-1.499116	-0.570437	0.340336
H91	H	-2.227719	-0.919933	0.217776
C92	C	-1.870619	-0.931898	0.203671
N93	N	-1.895025	-1.041882	0.203211
H94	H	-1.399000	-0.175458	0.009566
H95	H	-1.616287	-0.520927	0.199002
C96	C	-1.232966	-0.155028	0.402615
N97	N	-1.150576	-0.150012	0.369453
C98	C	-1.865789	-0.313662	0.642907
N99	N	-1.816184	-0.371884	0.615731
C100	C	-2.112442	-0.400310	0.219846
N101	N	-2.088026	-0.290300	0.220215
H102	H	-1.755365	-0.412298	0.205823
C103	C	-1.832489	-0.151646	0.852797
N104	N	-1.750104	-0.146611	0.819617
H105	H	-1.664038	-0.153362	-0.135780
C106	C	-1.766827	-0.153777	0.555845
N107	N	-1.697790	-0.148188	0.583126
C108	C	-1.323736	-0.178360	-0.132233
N109	N	-1.241757	-0.183880	-0.159502
C110	C	-2.250109	-0.177206	1.021006
N111	N	-2.332497	-0.182249	1.054186
C112	C	-1.590553	-0.981966	0.338656
N113	N	-1.615099	-1.091963	0.338210
C114	C	-2.083416	-0.019743	0.627424
N115	N	-2.119654	0.038022	0.594134
H116	H	-1.535447	-0.616394	0.456388
H117	H	-1.471094	-0.166754	0.619104
H118	H	-2.100191	-0.038678	0.771317
C119	C	-1.866372	-0.150510	1.006061
N120	N	-1.797364	-0.145042	1.033352
H121	H	-2.366785	-0.811306	0.224593
H122	H	-1.290684	-0.155719	0.546465
H123	H	-1.912168	-0.292589	0.784683
H124	H	-1.711051	-0.152383	-0.003366
H125	H	-2.092911	-0.179864	0.426952
H126	H	-1.588871	-0.857232	0.455394
C127	C	-1.477117	-0.165565	-0.216367
N128	N	-1.455642	-0.166031	-0.276836
H129	H	-2.122178	-0.178869	0.559355
H130	H	-1.475118	-0.462346	0.340771
H131	H	-1.401075	-0.388219	0.084806
C132	C	-1.616710	-0.181731	0.417523
N133	N	-1.685732	-0.187220	0.390242
H134	H	-2.192435	-0.176486	0.877159
H135	H	-1.507975	-0.869895	0.082839
C136	C	-1.446585	-0.729527	-0.051127
N137	N	-1.443447	-0.769166	-0.104372
H138	H	-2.313371	-0.570465	0.225589
H139	H	-1.669695	-0.761764	0.198007
C140	C	-1.384732	-0.450746	-0.049985
N141	N	-1.357188	-0.380394	-0.102779
H142	H	-1.761365	-0.156720	0.414028
H143	H	-1.622199	-0.178816	0.559327
