data_functionalizedCrystal
_audit_creation_method	'MofGen! by Chris Wilmer'
_symmetry_space_group_name_H-M	'P1'
_symmetry_Int_Tables_number	1
_symmetry_cell_setting	triclinic
loop_
_symmetry_equiv_pos_as_xyz
  x,y,z
_cell_length_a	14.044220
_cell_length_b	14.044190
_cell_length_c	12.503572
_cell_angle_alpha	93.839403
_cell_angle_beta	86.164750
_cell_angle_gamma	93.190328
loop_
_atom_site_label
_atom_site_type_symbol
_atom_site_fract_x
_atom_site_fract_y
_atom_site_fract_z
O1	O	1.282207	0.225116	-0.089227
O2	O	1.615540	0.558449	0.244106
O3	O	1.948873	0.891783	0.577439
O4	O	1.005537	0.216809	-0.089254
O5	O	1.338870	0.550142	0.244080
O6	O	1.672203	0.883475	0.577413
O7	O	1.139714	0.082627	-0.089220
O8	O	1.473047	0.415961	0.244114
O9	O	1.806381	0.749294	0.577447
O10	O	1.148029	0.359297	-0.089261
O11	O	1.481363	0.692631	0.244072
O12	O	1.814696	1.025964	0.577406
O13	O	1.129625	0.092737	0.089420
O14	O	1.462958	0.426070	0.422753
O15	O	1.796291	0.759404	0.756086
O16	O	0.995447	0.226918	0.089386
O17	O	1.328780	0.560252	0.422719
O18	O	1.662114	0.893585	0.756052
O19	O	1.272117	0.235226	0.089412
O20	O	1.605451	0.568559	0.422746
O21	O	1.938784	0.901892	0.756079
Cu22	Cu	1.132861	0.231995	0.105710
Cu23	Cu	1.466194	0.565328	0.439044
Cu24	Cu	1.799528	0.898662	0.772377
Cu25	Cu	1.144793	0.220039	-0.105552
Cu26	Cu	1.478126	0.553373	0.227782
Cu27	Cu	1.811460	0.886706	0.561115
O28	O	1.137940	0.369407	0.089378
O29	O	1.471273	0.702740	0.422712
O30	O	1.804606	1.036074	0.756045
C31	C	0.964870	0.218228	0.000063
C32	C	1.298203	0.551561	0.333396
C33	C	1.631537	0.884894	0.666730
C34	C	0.858728	0.207383	0.000054
C35	C	1.192061	0.540716	0.333387
C36	C	1.525394	0.874049	0.666721
C37	C	1.131033	0.052060	0.000103
C38	C	1.464366	0.385394	0.333436
C39	C	1.797699	0.718727	0.666770
C40	C	1.120185	-0.054082	0.000111
C41	C	1.453518	0.279251	0.333445
C42	C	1.786852	0.612584	0.666778
C43	C	0.664388	0.187558	0.000078
C44	C	0.997721	0.520891	0.333411
C45	C	1.331055	0.854224	0.666745
C46	C	0.613260	0.264472	0.000071
C47	C	0.946594	0.597805	0.333404
C48	C	1.279927	0.931139	0.666738
C49	C	0.505123	0.253441	0.000085
C50	C	0.838457	0.586774	0.333418
C51	C	1.171790	0.920108	0.666751
C52	C	0.772535	0.198587	0.000065
C53	C	1.105868	0.531920	0.333398
C54	C	1.439202	0.865254	0.666731
C55	C	1.177287	-0.299543	0.000075
C56	C	1.510621	0.033790	0.333408
C57	C	1.843954	0.367124	0.666741
C58	C	1.100371	-0.248417	0.000075
C59	C	1.433705	0.084916	0.333408
C60	C	1.767038	0.418249	0.666741
C61	C	1.111398	-0.140279	0.000095
C62	C	1.444732	0.193054	0.333428
C63	C	1.778065	0.526387	0.666762
C64	C	1.166262	-0.407691	0.000054
C65	C	1.499595	-0.074357	0.333388
C66	C	1.832929	0.258976	0.666721
C67	C	1.312784	0.233806	0.000093
C68	C	1.646117	0.567140	0.333427
C69	C	1.979451	0.900473	0.666760
C70	C	1.418927	0.244651	0.000095
C71	C	1.752260	0.577985	0.333429
C72	C	2.085594	0.911318	0.666762
C73	C	1.146621	0.399974	0.000053
C74	C	1.479955	0.733307	0.333387
C75	C	1.813288	1.066641	0.666720
C76	C	1.157469	0.506116	0.000038
C77	C	1.490803	0.839449	0.333371
C78	C	1.824136	1.172783	0.666705
N79	N	1.124476	0.240404	0.254300
N80	N	1.457809	0.573737	0.587634
N81	N	1.791142	0.907071	0.920967
N82	N	1.153185	0.211623	-0.254142
N83	N	1.486519	0.544957	0.079192
N84	N	1.819852	0.878290	0.412525
C85	C	1.112141	0.252782	0.473412
C86	C	1.445474	0.586115	0.806746
C87	C	1.778808	0.919449	1.140079
C88	C	1.165517	0.199248	0.526753
C89	C	1.498850	0.532582	0.860086
C90	C	1.832184	0.865915	1.193420
C91	C	1.158654	0.206136	0.648675
C92	C	1.491987	0.539469	0.982008
C93	C	1.825320	0.872802	1.315341
C94	C	1.119003	0.245896	0.351480
C95	C	1.452336	0.579229	0.684813
C96	C	1.785670	0.912562	1.018147
H97	H	0.650703	0.338605	0.000055
H98	H	0.984036	0.671938	0.333388
H99	H	1.317369	1.005271	0.666721
C100	C	0.613819	0.087415	0.000088
C101	C	0.947152	0.420748	0.333421
C102	C	1.280486	0.754081	0.666755
H103	H	0.660116	0.040603	0.000094
H104	H	0.993449	0.373936	0.333427
H105	H	1.326782	0.707270	0.666761
H106	H	0.578582	0.076408	-0.062204
H107	H	0.911915	0.409741	0.271130
H108	H	1.245248	0.743074	0.604463
H109	H	0.571563	0.083448	0.062395
H110	H	0.904897	0.416782	0.395728
H111	H	1.238230	0.750115	0.729062
C112	C	1.000225	-0.298994	0.000064
C113	C	1.333558	0.034339	0.333397
C114	C	1.666892	0.367673	0.666731
H115	H	1.005852	-0.366093	0.000063
H116	H	1.339185	-0.032760	0.333396
H117	H	1.672518	0.300573	0.666730
H118	H	0.970034	-0.284563	-0.062227
H119	H	1.303368	0.048770	0.271106
H120	H	1.636701	0.382104	0.604439
H121	H	0.963011	-0.277540	0.062372
H122	H	1.296344	0.055793	0.395705
H123	H	1.629678	0.389127	0.729038
C124	C	1.277425	-0.248965	0.000108
C125	C	1.610759	0.084369	0.333442
C126	C	1.944092	0.417702	0.666775
H127	H	1.271791	-0.181865	0.000131
H128	H	1.605125	0.151468	0.333464
H129	H	1.938458	0.484802	0.666797
H130	H	1.314659	-0.270410	-0.062180
H131	H	1.647993	0.062924	0.271153
H132	H	1.981326	0.396257	0.604486
H133	H	1.307598	-0.263397	0.062418
H134	H	1.640931	0.069937	0.395752
H135	H	1.974264	0.403270	0.729085
C136	C	1.234244	0.130378	0.464754
C137	C	1.567577	0.463711	0.798088
C138	C	1.900910	0.797044	1.131421
H139	H	1.229920	0.134741	0.389755
H140	H	1.563253	0.468074	0.723088
H141	H	1.896586	0.801407	1.056421
H142	H	1.217395	0.066810	0.483111
H143	H	1.550728	0.400143	0.816445
H144	H	1.884061	0.733476	1.149778
H145	H	1.297833	0.147121	0.483133
H146	H	1.631166	0.480454	0.816467
H147	H	1.964500	0.813787	1.149800
H148	H	1.061294	0.303783	0.519307
H149	H	1.394628	0.637117	0.852640
H150	H	1.727961	0.970450	1.185974
