data_functionalizedCrystal
_audit_creation_method	'MofGen! by Chris Wilmer'
_symmetry_space_group_name_H-M	'P1'
_symmetry_Int_Tables_number	1
_symmetry_cell_setting	triclinic
loop_
_symmetry_equiv_pos_as_xyz
  x,y,z
_cell_length_a	19.288864
_cell_length_b	17.766277
_cell_length_c	19.288865
_cell_angle_alpha	89.988397
_cell_angle_beta	96.863755
_cell_angle_gamma	90.023209
loop_
_atom_site_label
_atom_site_type_symbol
_atom_site_fract_x
_atom_site_fract_y
_atom_site_fract_z
O1	O	-0.921353	-0.062844	0.086649
O2	O	-0.719092	-0.062794	0.098337
O3	O	-0.826067	-0.062806	-0.008637
O4	O	-0.814378	-0.062832	0.193623
O5	O	-0.826048	0.062383	-0.008643
O6	O	-0.719074	0.062395	0.098332
O7	O	-0.921334	0.062344	0.086643
Cu8	Cu	-0.820202	0.073800	0.092487
Cu9	Cu	-0.820224	-0.074250	0.092494
O10	O	-0.814360	0.062356	0.193618
C11	C	-0.693207	-0.000193	0.097959
C12	C	-0.616103	-0.000173	0.096830
C13	C	-0.825682	-0.000209	-0.034516
C14	C	-0.824553	-0.000202	-0.111620
C15	C	-0.947220	-0.000258	0.087022
C16	C	-1.024324	-0.000283	0.088151
N17	N	-0.820192	0.177931	0.092482
C18	C	-0.571407	-0.000193	0.159598
C19	C	-0.498960	-0.000201	0.158537
C20	C	-0.471212	-0.000205	0.094705
C21	C	-0.515918	-0.000180	0.031929
C22	C	-0.588364	-0.000164	0.032991
C23	C	-0.362957	-0.044082	0.044527
C24	C	-0.290512	-0.044103	0.043468
C25	C	-0.247767	-0.000250	0.091425
C26	C	-0.277473	0.043614	0.140454
C27	C	-0.349918	0.043630	0.141517
C28	C	-0.392658	-0.000221	0.093546
C29	C	-0.124514	-0.000278	0.153047
C30	C	-0.052066	-0.000281	0.151984
C31	C	-0.069026	-0.000267	0.025374
C32	C	-0.141473	-0.000256	0.026439
C33	C	-0.169212	-0.000265	0.090278
N34	N	-0.820241	-0.178380	0.092493
C35	C	-0.867575	0.217312	0.045137
C36	C	-0.867579	0.296114	0.045134
C37	C	-0.820206	0.335531	0.092488
C38	C	-0.772814	0.296140	0.139837
C39	C	-0.772807	0.217340	0.139834
C40	C	-0.810908	0.460362	0.155775
C41	C	-0.810920	0.539161	0.155779
C42	C	-0.820225	0.578577	0.092496
C43	C	-0.829533	0.539185	0.029207
C44	C	-0.829525	0.460385	0.029204
C45	C	-0.820209	0.420977	0.092496
C46	C	-0.867616	0.703405	0.045143
C47	C	-0.867615	0.782208	0.045139
C48	C	-0.772853	0.782233	0.139848
C49	C	-0.772850	0.703431	0.139846
C50	C	-0.820235	0.664022	0.092495
C51	C	-0.887321	-0.000214	-0.156316
C52	C	-0.886260	-0.000226	-0.228763
C53	C	-0.822428	-0.000210	-0.256511
C54	C	-0.759652	-0.000203	-0.211805
C55	C	-0.760714	-0.000198	-0.139359
C56	C	-0.772242	0.043653	-0.364800
C57	C	-0.771182	0.043654	-0.437245
C58	C	-0.819148	-0.000226	-0.479956
C59	C	-0.868186	-0.044097	-0.450216
C60	C	-0.869249	-0.044093	-0.377771
C61	C	-0.821269	-0.000215	-0.335065
C62	C	-0.880770	-0.000252	-0.603209
C63	C	-0.879707	-0.000268	-0.675657
C64	C	-0.753097	-0.000238	-0.658697
C65	C	-0.754162	-0.000229	-0.586250
C66	C	-0.818001	-0.000232	-0.558511
C67	C	-0.814745	-0.000242	0.219497
C68	C	-0.815874	-0.000254	0.296601
H69	H	-0.593987	-0.000202	0.211580
O70	O	-0.261617	-0.086802	-0.004063
C71	C	-0.214943	-0.139102	0.031077
H72	H	-0.229476	-0.148931	0.085936
H73	H	-0.218163	-0.194564	0.001149
H74	H	-0.159449	-0.116106	0.034560
H75	H	-0.937375	-0.000238	-0.265162
O76	O	-0.726700	0.334393	0.185767
C77	C	-0.657980	0.315167	0.174657
H78	H	-0.657819	0.293520	0.119045
H79	H	-0.623104	0.367008	0.182735
H80	H	-0.637450	0.269429	0.213207
H81	H	-0.803345	0.571228	0.207313
H82	H	-0.731249	0.079371	-0.461453
O83	O	-0.725737	0.086329	-0.323252
C84	C	-0.762098	0.138630	-0.286161
H85	H	-0.817252	0.117091	-0.282664
H86	H	-0.733623	0.146037	-0.231306
H87	H	-0.764822	0.195052	-0.314516
H88	H	-0.906166	0.328185	0.006578
O89	O	-0.699784	-0.000083	-0.095867
C90	C	-0.696592	0.064768	-0.053483
H91	H	-0.751709	0.086374	-0.049999
H92	H	-0.670552	0.050197	0.001054
H93	H	-0.664934	0.110172	-0.077230
O94	O	-0.913746	0.665109	-0.000740
C95	C	-0.956460	0.619519	0.036386
H96	H	-0.957395	0.643253	0.091170
H97	H	-1.011775	0.618650	0.007950
H98	H	-0.934750	0.559790	0.040057
H99	H	-0.462561	-0.000216	0.209652
O100	O	-0.378665	0.086309	0.189161
C101	C	-0.325407	0.124999	0.231277
H102	H	-0.277557	0.130288	0.202176
H103	H	-0.344670	0.183524	0.243822
H104	H	-0.310930	0.092473	0.281889
O105	O	-0.940619	-0.000317	-0.719176
C106	C	-0.925995	-0.000307	-0.789068
H107	H	-0.871451	-0.023999	-0.791669
H108	H	-0.966026	-0.036665	-0.822005
H109	H	-0.928683	0.059748	-0.810047
O110	O	-0.691150	-0.000193	-0.685757
C111	C	-0.703670	-0.000223	-0.759285
H112	H	-0.757923	0.023467	-0.776473
H113	H	-0.662830	0.036126	-0.781412
H114	H	-0.700381	-0.060285	-0.779425
O115	O	-0.726848	0.179115	0.185927
C116	C	-0.737909	0.198364	0.254658
H117	H	-0.793517	0.219999	0.254856
H118	H	-0.729807	0.146539	0.289538
H119	H	-0.699349	0.244119	0.275157
H120	H	-0.837110	0.571277	-0.022324
H121	H	-0.734269	0.671364	0.178402
O122	O	-0.801898	0.422194	0.217317
C123	C	-0.793679	0.473856	0.273175
H124	H	-0.818153	0.530022	0.255229
H125	H	-0.820533	0.451064	0.318364
H126	H	-0.735708	0.482258	0.291101
H127	H	-0.046435	-0.000317	-0.026600
H128	H	-0.177866	-0.000244	-0.024674
H129	H	-0.147101	-0.000274	0.205028
H130	H	-0.909176	-0.079815	-0.353560
O131	O	-0.949392	-0.000256	-0.129487
C132	C	-1.004566	-0.000249	-0.184479
H133	H	-0.985254	-0.023949	-0.233629
H134	H	-1.049155	-0.036601	-0.169471
H135	H	-1.023904	0.059807	-0.194803
O136	O	-0.697689	-0.000287	-0.238838
C137	C	-0.693290	-0.065132	-0.280210
H138	H	-0.748097	-0.086760	-0.298420
H139	H	-0.665750	-0.050546	-0.327569
H140	H	-0.662468	-0.110526	-0.248098
H141	H	-0.907245	-0.079829	-0.484991
O142	O	-0.404543	-0.086731	-0.001965
C143	C	-0.441673	-0.139028	0.034413
H144	H	-0.445145	-0.117503	0.089563
H145	H	-0.496536	-0.146408	0.005946
H146	H	-0.413365	-0.195461	0.037147
O147	O	-0.942840	-0.000302	-0.576373
C148	C	-0.998016	-0.000307	-0.631363
H149	H	-0.978702	-0.024004	-0.680513
H150	H	-1.042598	-0.036668	-0.616352
H151	H	-1.017365	0.059744	-0.641689
O152	O	-0.008675	-0.000433	0.212980
C153	C	-0.021267	-0.065266	0.251754
H154	H	-0.046165	-0.110572	0.215004
H155	H	0.030211	-0.087043	0.279770
H156	H	-0.058025	-0.050610	0.291841
H157	H	-0.242670	0.079324	0.179505
H158	H	-0.703049	-0.000215	-0.549857
O159	O	-0.489050	-0.000286	-0.030121
C160	C	-0.511935	-0.065123	-0.068362
H161	H	-0.562137	-0.086726	-0.049591
H162	H	-0.522161	-0.050533	-0.126237
H163	H	-0.470013	-0.110535	-0.060182
H164	H	-0.906158	0.185228	0.006579
O165	O	-0.631856	-0.000251	-0.027939
C166	C	-0.674288	-0.065091	-0.031116
H167	H	-0.677788	-0.086711	0.024006
H168	H	-0.728813	-0.050499	-0.057160
H169	H	-0.650575	-0.110492	-0.062763
H170	H	-0.837102	0.428315	-0.022328
O171	O	-0.913714	0.820350	-0.000880
C172	C	-0.955522	0.768664	-0.042681
H173	H	-0.956208	0.712485	-0.014205
H174	H	-1.011026	0.791406	-0.053410
H175	H	-0.933142	0.760308	-0.094228
H176	H	-0.734278	0.814325	0.178402
