data_functionalizedCrystal
_audit_creation_method	'MofGen! by Chris Wilmer'
_symmetry_space_group_name_H-M	'P1'
_symmetry_Int_Tables_number	1
_symmetry_cell_setting	triclinic
loop_
_symmetry_equiv_pos_as_xyz
  x,y,z
_cell_length_a	19.077105
_cell_length_b	16.625546
_cell_length_c	19.076919
_cell_angle_alpha	92.269917
_cell_angle_beta	90.076224
_cell_angle_gamma	87.718759
loop_
_atom_site_label
_atom_site_type_symbol
_atom_site_fract_x
_atom_site_fract_y
_atom_site_fract_z
Zn1	Zn	1.058283	-0.390077	-0.440407
Zn2	Zn	1.391616	-0.056743	-0.107073
Zn3	Zn	1.724949	0.276590	0.226260
Zn4	Zn	1.062927	-0.519720	-0.322896
Zn5	Zn	1.396260	-0.186387	0.010437
Zn6	Zn	1.729593	0.146947	0.343770
Zn7	Zn	0.945500	-0.379275	-0.318200
Zn8	Zn	1.278833	-0.045942	0.015133
Zn9	Zn	1.612167	0.287391	0.348466
Zn10	Zn	0.940748	-0.519234	-0.435649
Zn11	Zn	1.274082	-0.185900	-0.102316
Zn12	Zn	1.607415	0.147433	0.231018
O13	O	1.001864	-0.452076	-0.379288
O14	O	1.335198	-0.118743	-0.045955
O15	O	1.668531	0.214590	0.287379
O16	O	1.157231	-0.411998	-0.428775
O17	O	1.490564	-0.078665	-0.095442
O18	O	1.823897	0.254669	0.237892
O19	O	1.051282	-0.496773	-0.223942
O20	O	1.384615	-0.163439	0.109391
O21	O	1.717949	0.169894	0.442724
O22	O	0.960506	-0.267879	-0.334437
O23	O	1.293839	0.065454	-0.001104
O24	O	1.627173	0.398788	0.332229
O25	O	1.160642	-0.507246	-0.342441
O26	O	1.493976	-0.173913	-0.009107
O27	O	1.827309	0.159420	0.324226
O28	O	1.043367	-0.275815	-0.424222
O29	O	1.376700	0.057519	-0.090888
O30	O	1.710034	0.390852	0.242445
O31	O	0.965009	-0.393589	-0.220492
O32	O	1.298342	-0.060255	0.112841
O33	O	1.631676	0.273078	0.446174
O34	O	0.846538	-0.393117	-0.329824
O35	O	1.179871	-0.059784	0.003510
O36	O	1.513204	0.273549	0.336843
O37	O	0.952407	-0.506418	-0.534611
O38	O	1.285741	-0.173084	-0.201278
O39	O	1.619074	0.160249	0.132055
O40	O	0.843047	-0.495944	-0.416113
O41	O	1.176380	-0.162611	-0.082779
O42	O	1.509713	0.170723	0.250554
O43	O	1.038759	-0.411527	-0.538107
O44	O	1.372093	-0.078193	-0.204773
O45	O	1.705426	0.255140	0.128560
O46	O	1.046674	-0.632485	-0.337827
O47	O	1.380008	-0.299151	-0.004494
O48	O	1.713341	0.034182	0.328839
O49	O	0.956910	-0.632127	-0.420666
O50	O	1.290244	-0.298794	-0.087333
O51	O	1.623577	0.034539	0.246001
C52	C	0.819296	-0.443306	-0.371943
C53	C	1.152629	-0.109973	-0.038609
C54	C	1.485963	0.223360	0.294724
C55	C	0.741192	-0.439575	-0.368817
C56	C	1.074525	-0.106241	-0.035484
C57	C	1.407858	0.227092	0.297850
C58	C	0.702702	-0.491432	-0.412204
C59	C	1.036035	-0.158099	-0.078871
C60	C	1.369368	0.175234	0.254463
C61	C	0.629314	-0.487916	-0.409270
C62	C	0.962648	-0.154582	-0.075937
C63	C	1.295981	0.178751	0.257396
C64	C	0.594418	-0.432544	-0.362946
C65	C	0.927752	-0.099211	-0.029613
C66	C	1.261085	0.234122	0.303721
C67	C	0.632913	-0.380681	-0.319557
C68	C	0.966247	-0.047348	0.013776
C69	C	1.299580	0.285986	0.347109
C70	C	0.706299	-0.384194	-0.322495
C71	C	1.039633	-0.050861	0.010838
C72	C	1.372966	0.282472	0.344172
C73	C	0.375130	-0.416284	-0.349354
C74	C	0.708464	-0.082950	-0.016021
C75	C	1.041797	0.250383	0.317313
C76	C	0.301739	-0.412776	-0.346418
C77	C	0.635073	-0.079442	-0.013085
C78	C	0.968406	0.253891	0.320249
C79	C	0.298145	-0.520010	-0.436133
C80	C	0.631478	-0.186676	-0.102799
C81	C	0.964812	0.146657	0.230534
C82	C	0.371533	-0.523522	-0.439063
C83	C	0.704866	-0.190188	-0.105730
C84	C	1.038199	0.143145	0.227604
C85	C	0.410021	-0.471655	-0.395677
C86	C	0.743355	-0.138322	-0.062344
C87	C	1.076688	0.195011	0.270990
N88	N	0.519405	-0.428950	-0.359945
N89	N	0.852738	-0.095617	-0.026611
N90	N	1.186071	0.237717	0.306722
N91	N	0.485034	-0.475247	-0.398682
N92	N	0.818367	-0.141913	-0.065349
N93	N	1.151700	0.191420	0.267984
C94	C	1.001799	-0.661563	-0.379256
C95	C	1.335132	-0.328230	-0.045923
C96	C	1.668466	0.005104	0.287411
C97	C	1.001834	-0.751186	-0.379268
C98	C	1.335168	-0.417853	-0.045935
C99	C	1.668501	-0.084519	0.287398
C100	C	1.001954	-1.079371	-0.379346
C101	C	1.335287	-0.746037	-0.046013
C102	C	1.668621	-0.412704	0.287320
C103	C	1.001918	-0.988060	-0.379327
C104	C	1.335252	-0.654726	-0.045993
C105	C	1.668585	-0.321393	0.287340
C106	C	1.001894	-0.915281	-0.379307
C107	C	1.335227	-0.581948	-0.045974
C108	C	1.668560	-0.248615	0.287360
C109	C	1.001859	-0.823965	-0.379288
C110	C	1.335193	-0.490631	-0.045955
C111	C	1.668526	-0.157298	0.287379
C112	C	1.185146	-0.460881	-0.386662
C113	C	1.518479	-0.127548	-0.053329
C114	C	1.851812	0.205785	0.280004
C115	C	1.263249	-0.464634	-0.389805
C116	C	1.596583	-0.131300	-0.056472
C117	C	1.929916	0.202033	0.276862
C118	C	0.994535	-0.460123	-0.562568
C119	C	1.327869	-0.126789	-0.229235
C120	C	1.661202	0.206544	0.104099
C121	C	0.991412	-0.463552	-0.640671
C122	C	1.324745	-0.130218	-0.307338
C123	C	1.658079	0.203115	0.025996
C124	C	1.001948	-0.241774	-0.379336
C125	C	1.335282	0.091560	-0.046003
C126	C	1.668615	0.424893	0.287330
C127	C	1.001984	-0.152155	-0.379357
C128	C	1.335318	0.181178	-0.046024
C129	C	1.668651	0.514512	0.287310
C130	C	1.034901	-0.415760	-0.679185
C131	C	1.368234	-0.082427	-0.345852
C132	C	1.701568	0.250907	-0.012518
C133	C	1.031958	-0.418978	-0.752571
C134	C	1.365291	-0.085645	-0.419237
C135	C	1.698625	0.247688	-0.085904
C136	C	0.985529	-0.469993	-0.787441
C137	C	1.318862	-0.136660	-0.454108
C138	C	1.652195	0.196674	-0.120775
C139	C	0.942035	-0.517786	-0.748922
C140	C	1.275368	-0.184453	-0.415589
C141	C	1.608701	0.148880	-0.082255
C142	C	0.944975	-0.514563	-0.675537
C143	C	1.278308	-0.181230	-0.342204
C144	C	1.611641	0.152103	-0.008871
C145	C	0.971911	-0.484926	-1.006722
C146	C	1.305244	-0.151593	-0.673389
C147	C	1.638578	0.181741	-0.340055
C148	C	0.968976	-0.488147	-1.080112
C149	C	1.302309	-0.154814	-0.746778
C150	C	1.635642	0.178519	-0.413445
C151	C	1.058898	-0.389338	-1.083755
C152	C	1.392232	-0.056004	-0.750422
C153	C	1.725565	0.277329	-0.417089
C154	C	1.061837	-0.386123	-1.010369
C155	C	1.395171	-0.052790	-0.677036
C156	C	1.728504	0.280544	-0.343703
C157	C	1.018341	-0.433913	-0.971856
C158	C	1.351674	-0.100580	-0.638523
C159	C	1.685008	0.232754	-0.305190
N160	N	0.982521	-0.473286	-0.862453
N161	N	1.315854	-0.139952	-0.529120
N162	N	1.649187	0.193381	-0.195787
N163	N	1.021346	-0.430616	-0.896846
N164	N	1.354679	-0.097282	-0.563512
N165	N	1.688013	0.236051	-0.230179
C166	C	1.009205	-0.444005	-0.196723
C167	C	1.342539	-0.110672	0.136611
C168	C	1.675872	0.222661	0.469944
C169	C	1.012465	-0.440356	-0.118626
C170	C	1.345798	-0.107022	0.214708
C171	C	1.679132	0.226311	0.548041
H172	H	0.399940	-0.568613	-0.476784
H173	H	0.733273	-0.235279	-0.143450
H174	H	1.066607	0.098054	0.189883
H175	H	0.737637	-0.341962	-0.287168
H176	H	1.070970	-0.008629	0.046165
H177	H	1.404304	0.324704	0.379498
O178	O	0.918889	-0.543162	-1.117728
O179	O	1.252222	-0.209829	-0.784394
O180	O	1.585555	0.123505	-0.451061
H181	H	0.931465	-0.606406	-1.104113
H182	H	1.264798	-0.273072	-0.770779
H183	H	1.598132	0.060261	-0.437446
H184	H	0.904228	-0.559320	-0.777319
H185	H	1.237562	-0.225987	-0.443986
H186	H	1.570895	0.107346	-0.110653
H187	H	0.406459	-0.374056	-0.314021
H188	H	0.739793	-0.040723	0.019313
H189	H	1.073126	0.292610	0.352646
H190	H	0.731109	-0.536524	-0.449924
H191	H	1.064442	-0.203191	-0.116591
H192	H	1.397775	0.130142	0.216743
H193	H	0.936503	-0.523853	-0.975374
H194	H	1.269837	-0.190519	-0.642040
H195	H	1.603170	0.142814	-0.308707
O196	O	0.595287	-0.320955	-0.269588
O197	O	0.928621	0.012379	0.063745
O198	O	1.261954	0.345712	0.397079
H199	H	0.611578	-0.332939	-0.214985
H200	H	0.944911	0.000394	0.118348
H201	H	1.278244	0.333728	0.451682
H202	H	0.909554	-0.553472	-0.644180
H203	H	1.242887	-0.220138	-0.310847
H204	H	1.576221	0.113195	0.022487
O205	O	1.105806	-0.337793	-1.125298
O206	O	1.439139	-0.004460	-0.791964
O207	O	1.772472	0.328874	-0.458631
H208	H	1.138587	-0.301783	-1.088721
H209	H	1.471921	0.031551	-0.755388
H210	H	1.805254	0.364884	-0.422054
H211	H	0.266800	-0.562235	-0.471456
H212	H	0.600133	-0.228902	-0.138123
H213	H	0.933466	0.104431	0.195211
H214	H	0.597979	-0.530145	-0.444600
H215	H	0.931312	-0.196811	-0.111267
H216	H	1.264645	0.136522	0.222067
O217	O	1.084985	-0.360742	-0.641578
O218	O	1.418318	-0.027409	-0.308244
O219	O	1.751651	0.305924	0.025089
H220	H	1.054894	-0.316745	-0.606880
H221	H	1.388227	0.016588	-0.273546
H222	H	1.721560	0.349922	0.059787
O223	O	1.111915	-0.331096	-0.972764
O224	O	1.445249	0.002237	-0.639431
O225	O	1.778582	0.335570	-0.306098
H226	H	1.106658	-0.336890	-0.915265
H227	H	1.439992	-0.003557	-0.581932
H228	H	1.773325	0.329776	-0.248598
H229	H	0.273329	-0.367677	-0.308699
H230	H	0.606662	-0.034343	0.024634
H231	H	0.939996	0.298990	0.357967
H232	H	1.067373	-0.380063	-0.783926
H233	H	1.400706	-0.046730	-0.450592
H234	H	1.734040	0.286603	-0.117259
