data_functionalizedCrystal
_audit_creation_method	'MofGen! by Chris Wilmer'
_symmetry_space_group_name_H-M	'P1'
_symmetry_Int_Tables_number	1
_symmetry_cell_setting	triclinic
loop_
_symmetry_equiv_pos_as_xyz
  x,y,z
_cell_length_a	19.077105
_cell_length_b	19.805405
_cell_length_c	19.805399
_cell_angle_alpha	90.029301
_cell_angle_beta	87.684312
_cell_angle_gamma	92.277359
loop_
_atom_site_label
_atom_site_type_symbol
_atom_site_fract_x
_atom_site_fract_y
_atom_site_fract_z
Zn1	Zn	1.075967	0.311118	-0.424213
Zn2	Zn	1.575967	0.811118	0.075787
Zn3	Zn	1.075878	0.424303	-0.311018
Zn4	Zn	1.575878	0.924303	0.188982
Zn5	Zn	0.958271	0.306582	-0.306498
Zn6	Zn	1.458271	0.806582	0.193502
Zn7	Zn	0.958233	0.419714	-0.419627
Zn8	Zn	1.458233	0.919714	0.080373
O9	O	1.017087	0.365429	-0.365339
O10	O	1.517087	0.865429	0.134661
O11	O	1.174446	0.329951	-0.413008
O12	O	1.674446	0.829951	0.086992
O13	O	1.060256	0.408709	-0.215701
O14	O	1.560256	0.908709	0.284299
O15	O	0.973937	0.212469	-0.322141
O16	O	1.473937	0.712469	0.177859
O17	O	1.174381	0.413107	-0.329844
O18	O	1.674381	0.913107	0.170156
O19	O	1.060407	0.215802	-0.408625
O20	O	1.560407	0.715802	0.091375
O21	O	0.973851	0.322220	-0.212380
O22	O	1.473851	0.822220	0.287620
O23	O	0.859775	0.317770	-0.317694
O24	O	1.359775	0.817770	0.182306
O25	O	0.973872	0.405287	-0.514953
O26	O	1.473872	0.905287	-0.014953
O27	O	0.859748	0.400888	-0.400809
O28	O	1.359748	0.900888	0.099191
O29	O	1.060370	0.325501	-0.518322
O30	O	1.560370	0.825501	-0.018322
O31	O	1.060219	0.518409	-0.325397
O32	O	1.560219	1.018409	0.174603
O33	O	0.973786	0.515037	-0.405192
O34	O	1.473786	1.015037	0.094808
C35	C	1.017008	0.541282	-0.365303
C36	C	1.517008	1.041282	0.134697
C37	C	1.017039	0.616515	-0.365313
C38	C	1.517039	1.116515	0.134687
C39	C	0.834224	0.358340	-0.358264
C40	C	1.334224	0.858340	0.141736
C41	C	0.755994	0.355323	-0.355253
C42	C	1.255994	0.855323	0.144747
C43	C	1.017127	0.365388	-0.541883
C44	C	1.517127	0.865388	-0.041883
C45	C	1.017144	0.365371	-0.617116
C46	C	1.517144	0.865371	-0.117116
C47	C	0.719246	0.397246	-0.397044
C48	C	1.219246	0.897246	0.102956
C49	C	0.645740	0.394403	-0.394219
C50	C	1.145740	0.894403	0.105781
C51	C	0.608985	0.349639	-0.349598
C52	C	1.108985	0.849639	0.150402
C53	C	0.645739	0.307712	-0.307805
C54	C	1.145739	0.807712	0.192195
C55	C	0.719243	0.310552	-0.310634
C56	C	1.219243	0.810552	0.189366
C57	C	0.389152	0.336493	-0.336506
C58	C	0.889152	0.836493	0.163494
C59	C	0.315643	0.333657	-0.333678
C60	C	0.815643	0.833657	0.166322
C61	C	0.315650	0.420348	-0.420093
C62	C	0.815650	0.920348	0.079907
C63	C	0.389155	0.423187	-0.422915
C64	C	0.889155	0.923187	0.077085
C65	C	0.425902	0.381257	-0.381125
C66	C	0.925902	0.881257	0.118875
N67	N	0.533851	0.346733	-0.346707
N68	N	1.033851	0.846733	0.153293
N69	N	0.501035	0.384160	-0.384020
N70	N	1.001035	0.884160	0.115980
C71	C	1.200665	0.372547	-0.372442
C72	C	1.700665	0.872547	0.127558
C73	C	1.278894	0.375580	-0.375469
C74	C	1.778894	0.875580	0.124531
C75	C	1.017186	0.188890	-0.365390
C76	C	1.517186	0.688890	0.134610
C77	C	1.017228	0.113660	-0.365412
C78	C	1.517228	0.613660	0.134588
C79	C	1.062088	0.653594	-0.323811
C80	C	1.562088	1.153594	0.176189
C81	C	1.062118	0.724284	-0.323827
C82	C	1.562118	1.224284	0.176173
C83	C	1.017094	0.757893	-0.365342
C84	C	1.517094	1.257893	0.134658
C85	C	0.972043	0.720809	-0.406849
C86	C	1.472043	1.220809	0.093151
C87	C	0.972017	0.650121	-0.406836
C88	C	1.472017	1.150121	0.093164
C89	C	0.972147	1.005887	-0.406903
C90	C	1.472147	1.505887	0.093097
C91	C	0.972174	1.076580	-0.406911
C92	C	1.472174	1.576580	0.093089
C93	C	1.062248	1.080049	-0.323894
C94	C	1.562248	1.580049	0.176106
C95	C	1.062222	1.009361	-0.323881
C96	C	1.562222	1.509361	0.176119
C97	C	1.017173	0.972283	-0.365390
C98	C	1.517173	1.472283	0.134610
C99	C	1.017142	0.895634	-0.365373
C100	C	1.517142	1.395634	0.134627
C101	C	1.017121	0.834541	-0.365356
C102	C	1.517121	1.334541	0.134644
C103	C	1.062184	0.323824	-0.654216
C104	C	1.562184	0.823824	-0.154216
C105	C	1.062191	0.323805	-0.724904
C106	C	1.562191	0.823805	-0.224904
C107	C	1.017161	0.365336	-0.758492
C108	C	1.517161	0.865336	-0.258492
C109	C	0.972115	0.406884	-0.721387
C110	C	1.472115	0.906884	-0.221387
C111	C	0.972105	0.406899	-0.650700
C112	C	1.472105	0.906899	-0.150700
C113	C	0.972155	0.406822	-1.006462
C114	C	1.472155	0.906822	-0.506462
C115	C	0.972170	0.406805	-1.077155
C116	C	1.472170	0.906805	-0.577155
C117	C	1.062241	0.323728	-1.080667
C118	C	1.562241	0.823728	-0.580667
C119	C	1.062231	0.323743	-1.009979
C120	C	1.562231	0.823743	-0.509979
C121	C	1.017183	0.365289	-0.972881
C122	C	1.517183	0.865289	-0.472881
C123	C	1.017175	0.365308	-0.896232
C124	C	1.517175	0.865308	-0.396232
C125	C	1.017172	0.365320	-0.835140
C126	C	1.517172	0.865320	-0.335140
C127	C	1.017088	0.365423	-0.189483
C128	C	1.517088	0.865423	0.310517
C129	C	1.017208	0.365255	-0.114256
C130	C	1.517208	0.865255	0.385744
H131	H	0.615823	0.428541	-0.428249
H132	H	1.115823	0.928541	0.071751
H133	H	0.935421	0.440723	-0.620494
H134	H	1.435421	0.940723	-0.120494
O135	O	0.928328	0.447077	-0.970391
O136	O	1.428328	0.947077	-0.470391
C137	C	0.833317	0.452506	-0.886863
C138	C	1.333317	0.952506	-0.386863
C139	C	0.882898	0.406838	-0.927689
C140	C	1.382898	0.906838	-0.427689
H141	H	0.796585	0.419993	-0.852318
H142	H	1.296585	0.919993	-0.352318
H143	H	0.801082	0.482177	-0.922973
H144	H	1.301082	0.982177	-0.422973
H145	H	0.865621	0.489168	-0.855038
H146	H	1.365621	0.989168	-0.355038
H147	H	0.850649	0.370138	-0.959518
H148	H	1.350649	0.870138	-0.459518
H149	H	0.915136	0.377214	-0.891543
H150	H	1.415136	0.877214	-0.391543
O151	O	0.424807	0.295835	-0.295811
O152	O	0.924807	0.795835	0.204189
C153	C	0.447215	0.263656	-0.181603
C154	C	0.947215	0.763656	0.318397
C155	C	0.406803	0.309757	-0.227612
C156	C	0.906803	0.809757	0.272388
H157	H	0.432662	0.274886	-0.126455
H158	H	0.932662	0.774886	0.373545
H159	H	0.506073	0.273368	-0.191227
H160	H	1.006073	0.773368	0.308773
H161	H	0.432790	0.208544	-0.193072
H162	H	0.932790	0.708544	0.306928
H163	H	0.421169	0.364885	-0.216170
H164	H	0.921169	0.864885	0.283830
H165	H	0.347954	0.299988	-0.217980
H166	H	0.847954	0.799988	0.282020
O167	O	0.928407	0.447322	-0.753940
O168	O	1.428407	0.947322	-0.253940
C169	C	0.894210	0.561127	-0.774241
C170	C	1.394210	1.061127	-0.274241
C171	C	0.943741	0.515405	-0.737324
C172	C	1.443741	1.015405	-0.237324
H173	H	0.906599	0.616182	-0.760831
H174	H	1.406599	1.116182	-0.260831
H175	H	0.837450	0.547099	-0.758134
H176	H	1.337450	1.047099	-0.258134
H177	H	0.901943	0.553946	-0.831132
H178	H	1.401943	1.053946	-0.331132
H179	H	0.936069	0.522562	-0.680426
H180	H	1.436069	1.022562	-0.180426
H181	H	1.000482	0.529445	-0.753486
H182	H	1.500482	1.029445	-0.253486
O183	O	0.610071	0.264131	-0.264534
O184	O	1.110071	0.764131	0.235466
C185	C	0.587651	0.148089	-0.230997
C186	C	1.087651	0.648089	0.269003
C187	C	0.628073	0.197367	-0.280059
C188	C	1.128073	0.697367	0.219941
H189	H	0.602202	0.094102	-0.243523
H190	H	1.102202	0.594102	0.256477
H191	H	0.528794	0.153200	-0.236152
H192	H	1.028794	0.653200	0.263848
H193	H	0.602069	0.160496	-0.176958
H194	H	1.102069	0.660496	0.323042
H195	H	0.613714	0.184993	-0.334119
H196	H	1.113714	0.684993	0.165881
H197	H	0.686920	0.192248	-0.274846
H198	H	1.186920	0.692248	0.225154
O199	O	0.928210	0.753376	-0.447142
O200	O	1.428210	1.253376	0.052858
C201	C	0.808474	0.770469	-0.475251
C202	C	1.308474	1.270469	0.024749
C203	C	0.858039	0.733533	-0.429585
C204	C	1.358039	1.233533	0.070415
H205	H	0.751730	0.754451	-0.461064
H206	H	1.251730	1.254451	0.038936
H207	H	0.820739	0.756985	-0.530321
H208	H	1.320739	1.256985	-0.030321
H209	H	0.816264	0.827359	-0.468145
H210	H	1.316264	1.327359	0.031855
H211	H	0.850277	0.676635	-0.436632
H212	H	1.350277	1.176635	0.063368
H213	H	0.845762	0.747073	-0.374532
H214	H	1.345762	1.247073	0.125468
H215	H	0.285719	0.297198	-0.297346
H216	H	0.785719	0.797198	0.202654
H217	H	1.098870	0.289976	-0.755108
H218	H	1.598870	0.789976	-0.255108
O219	O	0.928390	0.447054	-1.109858
O220	O	1.428390	0.947054	-0.609858
C221	C	0.833355	0.452447	-1.185961
C222	C	1.333355	0.952447	-0.685961
C223	C	0.882896	0.406791	-1.148977
C224	C	1.382896	0.906791	-0.648977
H225	H	0.796551	0.419913	-1.217586
H226	H	1.296551	0.919913	-0.717586
H227	H	0.865618	0.489072	-1.220338
H228	H	1.365618	0.989072	-0.720338
H229	H	0.801187	0.482160	-1.147294
H230	H	1.301187	0.982160	-0.647294
H231	H	0.915075	0.377034	-1.187595
H232	H	1.415075	0.877034	-0.687595
H233	H	0.850593	0.370209	-1.114588
H234	H	1.350593	0.870209	-0.614588
O235	O	1.105899	0.760198	-0.283447
O236	O	1.605899	1.260198	0.216553
C237	C	1.195264	0.756181	-0.201125
C238	C	1.695264	1.256181	0.298875
C239	C	1.145704	0.715425	-0.246812
C240	C	1.645704	1.215425	0.253188
H241	H	1.227469	0.720000	-0.171505
H242	H	1.727469	1.220000	0.328495
H243	H	1.163018	0.788059	-0.164423
H244	H	1.663018	1.288059	0.335577
H245	H	1.232032	0.790664	-0.233666
H246	H	1.732032	1.290664	0.266334
H247	H	1.108925	0.680905	-0.214326
H248	H	1.608925	1.180905	0.285674
H249	H	1.177994	0.683591	-0.283518
H250	H	1.677994	1.183591	0.216482
H251	H	0.749166	0.433700	-0.433377
H252	H	1.249166	0.933700	0.066623
H253	H	1.098902	0.289927	-0.982636
H254	H	1.598902	0.789927	-0.482636
O255	O	0.754913	0.269903	-0.269937
O256	O	1.254913	0.769903	0.230063
C257	C	0.777339	0.237739	-0.155729
C258	C	1.277339	0.737739	0.344271
C259	C	0.736912	0.283828	-0.201739
C260	C	1.236912	0.783828	0.298261
H261	H	0.762788	0.248971	-0.100581
H262	H	1.262788	0.748971	0.399419
H263	H	0.836195	0.247462	-0.165359
H264	H	1.336195	0.747462	0.334641
H265	H	0.762924	0.182624	-0.167193
H266	H	1.262924	0.682624	0.332807
H267	H	0.751267	0.338959	-0.190302
H268	H	1.251267	0.838959	0.309698
H269	H	0.678065	0.274047	-0.192100
H270	H	1.178065	0.774047	0.307900
O271	O	1.106004	1.116172	-0.283650
O272	O	1.606004	1.616172	0.216350
C273	C	1.145967	1.226607	-0.246870
C274	C	1.645967	1.726607	0.253130
C275	C	1.096387	1.185785	-0.292483
C276	C	1.596387	1.685785	0.207517
H277	H	1.138199	1.282897	-0.253985
H278	H	1.638199	1.782897	0.246015
H279	H	1.202717	1.214892	-0.261008
H280	H	1.702717	1.714892	0.238992
H281	H	1.133656	1.212247	-0.191807
H282	H	1.633656	1.712247	0.308193
H283	H	1.108634	1.200122	-0.347560
H284	H	1.608634	1.700122	0.152440
H285	H	1.039652	1.197505	-0.278288
H286	H	1.539652	1.697505	0.221712
O287	O	1.105723	0.620915	-0.283406
O288	O	1.605723	1.120915	0.216594
C289	C	1.115223	0.541500	-0.192411
C290	C	1.615223	1.041500	0.307589
C291	C	1.065723	0.578473	-0.238112
C292	C	1.565723	1.078473	0.261888
H293	H	1.082903	0.507167	-0.155789
H294	H	1.582903	1.007167	0.344211
H295	H	1.147415	0.580115	-0.162702
H296	H	1.647415	1.080115	0.337298
H297	H	1.152006	0.509809	-0.224947
H298	H	1.652006	1.009809	0.275053
H299	H	1.028896	0.610163	-0.205627
H300	H	1.528896	1.110163	0.294373
H301	H	1.033580	0.539823	-0.267825
H302	H	1.533580	1.039823	0.232175
O303	O	0.928417	1.109124	-0.447309
O304	O	1.428417	1.609124	0.052691
C305	C	0.839050	1.098226	-0.529632
C306	C	1.339050	1.598226	-0.029632
C307	C	0.888577	1.061285	-0.483931
C308	C	1.388577	1.561285	0.016069
H309	H	0.806816	1.059565	-0.559242
H310	H	1.306816	1.559565	-0.059242
H311	H	0.871325	1.132503	-0.566342
H312	H	1.371325	1.632503	-0.066342
H313	H	0.802308	1.129965	-0.497102
H314	H	1.302308	1.629965	0.002898
H315	H	0.925329	1.029510	-0.516406
H316	H	1.425329	1.529510	-0.016406
H317	H	0.856258	1.027049	-0.447217
H318	H	1.356258	1.527049	0.052783
H319	H	0.935465	0.975703	-0.440700
H320	H	1.435465	1.475703	0.059300
O321	O	1.106025	0.976821	-0.283535
O322	O	1.606025	1.476821	0.216465
C323	C	1.195346	0.987724	-0.201166
C324	C	1.695346	1.487724	0.298834
C325	C	1.145784	1.024660	-0.246835
C326	C	1.645784	1.524660	0.253165
H327	H	1.227493	1.026384	-0.171471
H328	H	1.727493	1.526384	0.328529
H329	H	1.232162	0.956024	-0.233659
H330	H	1.732162	1.456024	0.266341
H331	H	1.163032	0.953409	-0.164523
H332	H	1.663032	1.453409	0.335477
H333	H	1.178041	1.059009	-0.283485
H334	H	1.678041	1.559009	0.216515
H335	H	1.108965	1.056317	-0.214300
H336	H	1.608965	1.556317	0.285700
H337	H	0.935334	0.619932	-0.440632
H338	H	1.435334	1.119932	0.059368
H339	H	1.098855	0.290007	-0.626874
H340	H	1.598855	0.790007	-0.126874
O341	O	1.106063	0.283345	-1.116604
O342	O	1.606063	0.783345	-0.616604
C343	C	1.195374	0.200914	-1.112623
C344	C	1.695374	0.700914	-0.612623
C345	C	1.145795	0.246622	-1.071845
C346	C	1.645795	0.746622	-0.571845
H347	H	1.227500	0.171201	-1.076453
H348	H	1.727500	0.671201	-0.576453
H349	H	1.232210	0.233376	-1.147119
H350	H	1.732210	0.733376	-0.647119
H351	H	1.163075	0.164288	-1.144491
H352	H	1.663075	0.664288	-0.644491
H353	H	1.178037	0.283255	-1.039938
H354	H	1.678037	0.783255	-0.539938
H355	H	1.108957	0.214118	-1.037392
H356	H	1.608957	0.714118	-0.537392
H357	H	0.285722	0.454484	-0.454117
H358	H	0.785722	0.954484	0.045883
O359	O	0.424748	0.466688	-0.466321
O360	O	0.924748	0.966688	0.033679
C361	C	0.416995	0.552404	-0.551702
C362	C	0.916995	1.052404	-0.051702
C363	C	0.376598	0.503157	-0.502592
C364	C	0.876598	1.003157	-0.002592
H365	H	0.378084	0.581913	-0.581030
H366	H	0.878084	1.081913	-0.081030
H367	H	0.451418	0.522741	-0.588521
H368	H	0.951418	1.022741	-0.088521
H369	H	0.451396	0.589053	-0.521872
H370	H	0.951396	1.089053	-0.021872
H371	H	0.342159	0.466496	-0.532366
H372	H	0.842159	0.966496	-0.032366
H373	H	0.342219	0.532864	-0.465773
H374	H	0.842219	1.032864	0.034227
