data_functionalizedCrystal
_audit_creation_method	'MofGen! by Chris Wilmer'
_symmetry_space_group_name_H-M	'P1'
_symmetry_Int_Tables_number	1
_symmetry_cell_setting	triclinic
loop_
_symmetry_equiv_pos_as_xyz
  x,y,z
_cell_length_a	21.295418
_cell_length_b	14.908520
_cell_length_c	21.295412
_cell_angle_alpha	86.728936
_cell_angle_beta	90.042690
_cell_angle_gamma	93.337612
loop_
_atom_site_label
_atom_site_type_symbol
_atom_site_fract_x
_atom_site_fract_y
_atom_site_fract_z
Zn1	Zn	0.947938	-0.358808	0.370690
Zn2	Zn	1.447938	0.141192	0.870690
Zn3	Zn	0.941783	-0.509675	0.271494
Zn4	Zn	1.441783	-0.009675	0.771494
Zn5	Zn	0.842661	-0.358874	0.265402
Zn6	Zn	1.342661	0.141126	0.765402
Zn7	Zn	0.836571	-0.509669	0.376690
Zn8	Zn	1.336571	-0.009669	0.876690
O9	O	0.892238	-0.434256	0.321069
O10	O	1.392238	0.065744	0.821069
O11	O	1.035212	-0.378795	0.357570
O12	O	1.535212	0.121205	0.857570
O13	O	0.928607	-0.489701	0.182598
O14	O	1.428607	0.010299	0.682598
O15	O	0.861750	-0.232618	0.274309
O16	O	1.361750	0.267382	0.774309
O17	O	1.030690	-0.489637	0.284691
O18	O	1.530690	0.010363	0.784691
O19	O	0.939097	-0.232569	0.351663
O20	O	1.439097	0.267431	0.851663
O21	O	0.855782	-0.378908	0.178122
O22	O	1.355782	0.121092	0.678122
O23	O	0.753762	-0.378902	0.280127
O24	O	1.253762	0.121098	0.780127
O25	O	0.851372	-0.489627	0.463982
O26	O	1.351372	0.010373	0.963982
O27	O	0.749289	-0.489691	0.361889
O28	O	1.249289	0.010309	0.861889
O29	O	0.933193	-0.378790	0.459574
O30	O	1.433193	0.121210	0.959574
O31	O	0.922702	-0.635922	0.290509
O32	O	1.422702	-0.135922	0.790509
O33	O	0.845404	-0.635917	0.367796
O34	O	1.345404	-0.135917	0.867796
C35	C	0.882741	-0.668654	0.330478
C36	C	1.382741	-0.168654	0.830478
C37	C	0.878736	-0.768930	0.334524
C38	C	1.378736	-0.268930	0.834524
C39	C	0.728685	-0.434304	0.320999
C40	C	1.228685	0.065696	0.820999
C41	C	0.658715	-0.434346	0.320984
C42	C	1.158715	0.065654	0.820984
C43	C	0.951784	-0.957303	0.261714
C44	C	1.451784	-0.457303	0.761714
C45	C	0.948022	-1.051522	0.265513
C46	C	1.448022	-0.551522	0.765513
C47	C	0.867456	-1.051587	0.345927
C48	C	1.367456	-0.551587	0.845927
C49	C	0.871217	-0.957369	0.342127
C50	C	1.371217	-0.457369	0.842127
C51	C	0.913382	-0.910230	0.300018
C52	C	1.413382	-0.410230	0.800018
C53	C	0.917139	-0.816010	0.296216
C54	C	1.417139	-0.316010	0.796216
C55	C	0.836577	-0.816077	0.376632
C56	C	1.336577	-0.316077	0.876632
C57	C	0.832816	-0.910296	0.380431
C58	C	1.332816	-0.410296	0.880431
C59	C	0.623532	-0.492110	0.363501
C60	C	1.123532	0.007890	0.863501
C61	C	0.557791	-0.492088	0.363528
C62	C	1.057791	0.007912	0.863528
C63	C	0.527234	-0.434311	0.321028
C64	C	1.027234	0.065689	0.821028
C65	C	0.562425	-0.376536	0.278508
C66	C	1.062425	0.123464	0.778508
C67	C	0.628165	-0.376553	0.278486
C68	C	1.128165	0.123447	0.778486
N69	N	0.424242	-0.427262	0.265686
N70	N	0.924242	0.072738	0.765686
N71	N	0.361791	-0.427251	0.265709
N72	N	0.861791	0.072749	0.765709
C73	C	0.329161	-0.434253	0.321093
C74	C	0.829161	0.065747	0.821093
N75	N	0.361341	-0.441286	0.376454
N76	N	0.861341	0.058714	0.876454
N77	N	0.423798	-0.441302	0.376431
N78	N	0.923798	0.058698	0.876431
C79	C	0.455949	-0.434285	0.321047
C80	C	0.955949	0.065715	0.821047
C81	C	0.222694	-0.491997	0.363642
C82	C	0.722694	0.008003	0.863642
C83	C	0.156952	-0.491968	0.363671
C84	C	0.656952	0.008032	0.863671
C85	C	0.161587	-0.376420	0.278645
C86	C	0.661587	0.123580	0.778645
C87	C	0.227328	-0.376444	0.278622
C88	C	0.727328	0.123556	0.778622
C89	C	0.257878	-0.434237	0.321120
C90	C	0.757878	0.065763	0.821120
C91	C	1.056430	-0.434209	0.321140
C92	C	1.556430	0.065791	0.821140
C93	C	1.126399	-0.434189	0.321171
C94	C	1.626399	0.065811	0.821171
C95	C	0.892290	-0.434200	0.485257
C96	C	1.392290	0.065800	0.985257
C97	C	0.892312	-0.434176	0.555224
C98	C	1.392312	0.065824	1.055224
C99	C	0.901789	-0.198944	0.311637
C100	C	1.401789	0.301056	0.811637
C101	C	0.905860	-0.098667	0.307618
C102	C	1.405860	0.401333	0.807618
C103	C	0.892226	-0.434247	0.157517
C104	C	1.392226	0.065753	0.657517
C105	C	0.892336	-0.434017	0.087540
C106	C	1.392336	0.065983	0.587540
C107	C	0.854403	-0.376480	0.585751
C108	C	1.354403	0.123520	1.085751
C109	C	0.854401	-0.376463	0.651492
C110	C	1.354401	0.123537	1.151492
C111	C	0.892320	-0.434133	0.686705
C112	C	1.392320	0.065867	1.186705
C113	C	0.930231	-0.491841	0.656172
C114	C	1.430231	0.008159	1.156172
C115	C	0.930227	-0.491863	0.590431
C116	C	1.430227	0.008137	1.090431
N117	N	0.947149	-0.441002	0.790239
N118	N	1.447149	0.058998	1.290239
N119	N	0.947151	-0.440976	0.852689
N120	N	1.447151	0.059024	1.352689
C121	C	0.892334	-0.434073	0.884778
C122	C	1.392334	0.065927	1.384778
N123	N	0.837514	-0.427180	0.852056
N124	N	1.337514	0.072820	1.352056
N125	N	0.837513	-0.427201	0.789599
N126	N	1.337513	0.072799	1.289599
C127	C	0.892329	-0.434117	0.757990
C128	C	1.392329	0.065883	1.257990
C129	C	0.854420	-0.376355	0.986589
C130	C	1.354420	0.123645	1.486589
C131	C	0.854417	-0.376345	1.052332
C132	C	1.354417	0.123655	1.552332
C133	C	0.930254	-0.491718	1.057010
C134	C	1.430254	0.008282	1.557010
C135	C	0.930251	-0.491734	0.991268
C136	C	1.430251	0.008266	1.491268
C137	C	0.892335	-0.434047	0.956061
C138	C	1.392335	0.065953	1.456061
H139	H	0.951470	-0.777631	0.261927
H140	H	1.451470	-0.277631	0.761927
H141	H	0.986111	-0.918922	0.227423
H142	H	1.486111	-0.418922	0.727423
H143	H	0.529139	-0.539126	0.398153
H144	H	1.029139	-0.039126	0.898153
Cl145	Cl	0.271560	-0.303824	0.225168
Cl146	Cl	0.771560	0.196176	0.725168
H147	H	0.823547	-0.329385	0.957922
H148	H	1.323547	0.170615	1.457922
Cl149	Cl	0.806734	-0.303965	0.541494
Cl150	Cl	1.306734	0.196035	1.041494
Cl151	Cl	0.261102	-0.564643	0.417071
Cl152	Cl	0.761102	-0.064643	0.917071
Cl153	Cl	0.806755	-0.303905	0.689876
Cl154	Cl	1.306755	0.196095	1.189876
H155	H	0.979294	-1.089845	0.234323
H156	H	1.479294	-0.589845	0.734323
H157	H	0.961105	-0.538797	0.684846
H158	H	1.461105	-0.038797	1.184846
H159	H	0.833132	-1.089984	0.380213
H160	H	1.333132	-0.589984	0.880213
Cl161	Cl	0.788289	-0.756894	0.424780
Cl162	Cl	1.288289	-0.256894	0.924780
H163	H	0.798488	-0.948689	0.414717
H164	H	1.298488	-0.448689	0.914717
Cl165	Cl	0.661934	-0.564760	0.416930
Cl166	Cl	1.161934	-0.064760	0.916930
Cl167	Cl	0.977915	-0.564265	0.952889
Cl168	Cl	1.477915	-0.064265	1.452889
H169	H	0.961100	-0.538845	0.565577
H170	H	1.461100	-0.038845	1.065577
Cl171	Cl	0.524012	-0.303897	0.225082
Cl172	Cl	1.024012	0.196103	0.725082
Cl173	Cl	0.123179	-0.303780	0.225219
Cl174	Cl	0.623179	0.196220	0.725219
H175	H	0.823543	-0.329364	1.077185
H176	H	1.323543	0.170636	1.577185
Cl177	Cl	0.977919	-0.564225	1.101271
Cl178	Cl	1.477919	-0.064225	1.601271
Cl179	Cl	0.672397	-0.303929	0.225032
Cl180	Cl	1.172397	0.196071	0.725032
Cl181	Cl	0.112721	-0.564588	0.417129
Cl182	Cl	0.612721	-0.064588	0.917129
