data_functionalizedCrystal
_audit_creation_method	'MofGen! by Chris Wilmer'
_symmetry_space_group_name_H-M	'P1'
_symmetry_Int_Tables_number	1
_symmetry_cell_setting	triclinic
loop_
_symmetry_equiv_pos_as_xyz
  x,y,z
_cell_length_a	27.732048
_cell_length_b	9.065218
_cell_length_c	8.140239
_cell_angle_alpha	90.001671
_cell_angle_beta	89.995960
_cell_angle_gamma	83.829270
loop_
_atom_site_label
_atom_site_type_symbol
_atom_site_fract_x
_atom_site_fract_y
_atom_site_fract_z
O1	O	0.642123	0.175520	0.136397
O2	O	0.501512	0.202208	0.136446
O3	O	0.574724	-0.025963	0.136416
O4	O	0.568911	0.403691	0.136427
O5	O	0.574722	-0.025965	-0.136811
O6	O	0.501509	0.202207	-0.136781
O7	O	0.642121	0.175518	-0.136830
Zn8	Zn	0.571815	0.188862	-0.180186
Zn9	Zn	0.571818	0.188864	0.179802
O10	O	0.568909	0.403690	-0.136800
C11	C	0.483500	0.201647	-0.000161
C12	C	0.429834	0.199960	-0.000143
C13	C	0.569469	0.458642	-0.000185
C14	C	0.571139	0.622378	-0.000182
C15	C	0.574164	-0.080915	-0.000195
C16	C	0.572494	-0.244652	-0.000188
C17	C	0.091866	0.324175	-0.000210
C18	C	-0.109836	0.317916	-0.000225
O19	O	-0.140316	0.431501	-0.000293
N20	N	-0.129883	0.182619	-0.000226
C21	C	-0.099501	0.048878	-0.000234
O22	O	-0.121181	-0.066343	-0.000252
C23	C	0.102200	0.055139	-0.000231
C24	C	0.122244	0.190444	-0.000213
C25	C	0.111911	0.459469	-0.000195
C26	C	0.162334	0.461032	-0.000182
C27	C	0.192712	0.327301	-0.000185
C28	C	0.172667	0.192007	-0.000201
C29	C	0.132581	-0.078600	-0.000250
C30	C	0.183009	-0.077023	-0.000254
C31	C	0.203053	0.058282	-0.000236
C32	C	0.253467	0.059840	-0.000191
N33	N	0.273514	0.195136	-0.000190
C34	C	0.243137	0.328867	-0.000187
C35	C	-0.205398	0.045601	-0.000232
C36	C	-0.255823	0.044036	-0.000230
C37	C	-0.266154	0.313073	-0.000225
C38	C	-0.215728	0.314637	-0.000215
C39	C	-0.185351	0.180897	-0.000231
C40	C	0.349028	0.332140	-0.000159
C41	C	0.399456	0.333691	-0.000140
C42	C	0.409782	0.064654	-0.000154
C43	C	0.359359	0.063102	-0.000165
C44	C	0.328983	0.196857	-0.000173
O45	O	0.283976	-0.053684	-0.000141
O46	O	0.264826	0.444071	-0.000206
C47	C	0.041444	0.322611	-0.000223
C48	C	0.021399	0.187317	-0.000239
C49	C	0.051777	0.053587	-0.000241
C50	C	-0.029026	0.185752	-0.000236
C51	C	-0.059404	0.319482	-0.000234
C52	C	-0.039357	0.454779	-0.000233
C53	C	0.011066	0.456342	-0.000220
C54	C	0.031730	-0.081710	-0.000242
C55	C	-0.018694	-0.083262	-0.000253
C56	C	-0.049071	0.050469	-0.000250
C57	C	0.660133	0.176079	-0.000219
C58	C	0.713799	0.177766	-0.000227
N59	N	0.571816	0.188860	-0.425869
N60	N	0.571820	0.188855	0.425485
H61	H	0.415773	0.443877	-0.000125
N62	N	-0.276293	-0.094177	-0.000268
N63	N	-0.303272	-0.125069	-0.115453
H64	H	-0.317727	-0.222688	-0.115493
H65	H	0.324301	0.441056	-0.000171
N66	N	0.031529	0.594567	-0.000196
N67	N	0.004392	0.713948	-0.000192
H68	H	0.018840	0.811578	-0.000176
H69	H	0.178649	0.571211	-0.000167
H70	H	0.056459	-0.190612	-0.000249
N71	N	-0.297196	0.449665	-0.000231
N72	N	-0.342217	0.448230	-0.000243
H73	H	-0.364143	0.544691	-0.000262
N74	N	0.112104	-0.216797	-0.000275
N75	N	0.085115	-0.247716	0.114878
H76	H	0.070653	-0.345323	0.114855
H77	H	0.434525	-0.044226	-0.000150
N78	N	0.214031	-0.213654	-0.000288
N79	N	0.196123	-0.334440	-0.000311
H80	H	0.218031	-0.430936	-0.000335
N81	N	0.338875	-0.075094	-0.000149
N82	N	0.311883	-0.105981	0.115009
H83	H	0.297418	-0.203584	0.115010
H84	H	-0.180668	-0.063313	-0.000246
H85	H	0.087182	0.568374	-0.000198
N86	N	-0.195264	0.452860	-0.000196
N87	N	-0.222398	0.572245	-0.000185
H88	H	-0.207948	0.669872	-0.000174
N89	N	-0.070399	0.591369	-0.000221
N90	N	-0.115420	0.589933	-0.000232
H91	H	-0.137346	0.686393	-0.000232
N92	N	-0.039155	-0.221499	-0.000287
N93	N	-0.030051	-0.311375	-0.115474
H94	H	-0.044500	-0.409005	-0.115513
