data_functionalizedCrystal
_audit_creation_method	'MofGen! by Chris Wilmer'
_symmetry_space_group_name_H-M	'P1'
_symmetry_Int_Tables_number	1
_symmetry_cell_setting	triclinic
loop_
_symmetry_equiv_pos_as_xyz
  x,y,z
_cell_length_a	15.995350
_cell_length_b	10.489741
_cell_length_c	14.472310
_cell_angle_alpha	89.999301
_cell_angle_beta	89.990621
_cell_angle_gamma	84.015774
loop_
_atom_site_label
_atom_site_type_symbol
_atom_site_fract_x
_atom_site_fract_y
_atom_site_fract_z
O1	O	1.111988	0.164399	-0.076762
O2	O	0.868335	0.184702	-0.076781
O3	O	0.995706	-0.011125	-0.076766
O4	O	0.984617	0.360226	-0.076777
O5	O	0.995673	-0.011114	0.076916
O6	O	0.868302	0.184713	0.076901
O7	O	1.111955	0.164411	0.076920
Cu8	Cu	0.990125	0.174563	0.090943
Cu9	Cu	0.990164	0.174549	-0.090804
O10	O	0.984584	0.360237	0.076905
C11	C	0.837119	0.183868	0.000058
C12	C	0.744153	0.181352	0.000050
C13	C	0.406351	0.172315	0.000070
C14	C	0.452944	0.032851	0.000417
C15	C	0.549650	0.035368	0.000064
C16	C	0.573939	0.176797	0.000061
C17	C	0.533285	0.245579	-0.087698
C18	C	0.436628	0.242076	-0.087765
C19	C	0.436269	0.244970	0.087001
C20	C	0.533214	0.244937	0.088154
C21	C	0.668651	0.179338	0.000053
C22	C	0.311638	0.169778	0.000072
C23	C	0.994852	-0.058639	0.000075
C24	C	0.992346	-0.200234	0.000073
C25	C	0.911304	-0.267240	0.000060
C26	C	0.949571	-0.359892	0.075836
C27	C	0.949623	-0.359878	-0.075682
C28	C	1.030647	-0.291021	0.075912
C29	C	1.030687	-0.290998	-0.075675
C30	C	1.069013	-0.383624	0.000120
C31	C	1.143171	0.165244	0.000079
C32	C	1.236137	0.167761	0.000080
C33	C	0.985438	0.407752	0.000062
C34	C	0.987944	0.549346	0.000058
N35	N	0.990104	0.174572	0.218774
N36	N	0.990192	0.174531	-0.218635
C37	C	0.990163	0.174544	0.592865
C38	C	0.921777	0.278976	0.553691
C39	C	0.921938	0.279357	0.446603
C40	C	0.990133	0.174558	0.407274
C41	C	1.077673	0.203626	0.446117
C42	C	1.077290	0.204368	0.553238
C43	C	0.971787	0.040735	0.553397
C44	C	0.969789	0.041628	0.446269
C45	C	0.990122	0.174563	0.302386
C46	C	0.990181	0.174542	0.697753
H47	H	0.549200	0.348073	0.093452
N48	N	0.823047	-0.200224	0.000145
H49	H	0.792115	-0.226314	-0.056499
H50	H	0.792602	-0.225112	0.057473
N51	N	1.031401	-0.066142	0.410824
H52	H	1.061769	-0.111341	0.464670
H53	H	1.000098	-0.129035	0.375248
N54	N	0.904143	-0.400321	0.160697
H55	H	0.844572	-0.357550	0.160641
H56	H	0.903324	-0.496462	0.160332
H57	H	0.856524	0.261942	0.579474
H58	H	0.548037	0.349484	-0.090963
H59	H	1.135706	-0.433981	0.000167
N60	N	1.076015	-0.250826	0.160865
H61	H	1.077407	-0.154789	0.160361
H62	H	1.045594	-0.276549	0.217978
H63	H	1.064963	-0.260437	-0.139736
H64	H	0.909296	0.012784	0.580461
N65	N	0.904206	-0.400299	-0.160537
H66	H	0.844636	-0.357524	-0.160469
H67	H	0.934292	-0.374016	-0.217721
H68	H	0.905390	0.019568	0.420883
N69	N	0.395025	0.381176	0.087789
H70	H	0.357142	0.395803	0.032141
H71	H	0.360668	0.396414	0.146049
H72	H	0.856894	0.262038	0.420342
H73	H	0.933437	0.377714	0.580598
N74	N	0.937369	0.410978	0.412633
H75	H	0.944121	0.468964	0.467247
H76	H	0.990183	0.404438	0.373921
N77	N	0.426548	-0.040685	-0.082461
H78	H	0.384542	0.015949	-0.120233
H79	H	0.477485	-0.068516	-0.121592
N80	N	1.098577	0.333626	0.586329
H81	H	1.108119	0.389588	0.531330
H82	H	1.050576	0.375551	0.624655
N83	N	1.146747	0.107409	0.587572
H84	H	1.177484	0.064384	0.533117
H85	H	1.187362	0.152201	0.626257
N86	N	1.037829	-0.062213	0.586948
H87	H	1.079456	-0.022443	0.627514
H88	H	1.010024	-0.128071	0.623575
N89	N	1.146741	0.105555	0.412381
H90	H	1.121890	0.041188	0.371494
H91	H	1.189161	0.149992	0.376047
N92	N	1.099445	0.331413	0.410567
H93	H	1.055065	0.401231	0.431097
H94	H	1.155895	0.349144	0.435954
H95	H	0.577739	-0.018699	0.062974
H96	H	0.418031	0.191907	-0.153364
H97	H	0.434072	-0.022892	0.063353
H98	H	0.577193	-0.019074	-0.062951
N99	N	0.570500	0.182297	-0.174212
H100	H	0.613684	0.109088	-0.156759
H101	H	0.524430	0.148441	-0.211815
N102	N	0.394722	0.377700	-0.093007
H103	H	0.439061	0.439494	-0.095273
H104	H	0.358892	0.387943	-0.150516
H105	H	0.415444	0.199381	0.153519
H106	H	0.560214	0.194727	0.153077
