data_functionalizedCrystal
_audit_creation_method	'MofGen! by Chris Wilmer'
_symmetry_space_group_name_H-M	'P1'
_symmetry_Int_Tables_number	1
_symmetry_cell_setting	triclinic
loop_
_symmetry_equiv_pos_as_xyz
  x,y,z
_cell_length_a	14.853567
_cell_length_b	14.853567
_cell_length_c	18.366186
_cell_angle_alpha	89.997562
_cell_angle_beta	89.993927
_cell_angle_gamma	83.634930
loop_
_atom_site_label
_atom_site_type_symbol
_atom_site_fract_x
_atom_site_fract_y
_atom_site_fract_z
O1	O	1.196371	0.117705	-0.060493
O2	O	1.696371	0.617705	0.439507
O3	O	0.933911	0.131727	-0.060505
O4	O	1.433911	0.631727	0.439495
O5	O	1.072151	-0.006514	-0.060501
O6	O	1.572151	0.493486	0.439499
O7	O	1.058130	0.255946	-0.060497
O8	O	1.558130	0.755946	0.439503
O9	O	1.072128	-0.006520	0.060598
O10	O	1.572128	0.493480	0.560598
O11	O	0.933887	0.131720	0.060594
O12	O	1.433887	0.631720	0.560594
O13	O	1.196347	0.117699	0.060606
O14	O	1.696347	0.617699	0.560606
Zn15	Zn	1.065114	0.124708	0.079827
Zn16	Zn	1.565114	0.624708	0.579827
Zn17	Zn	1.065145	0.124717	-0.079726
Zn18	Zn	1.565145	0.624717	0.420274
O19	O	1.058107	0.255939	0.060602
O20	O	1.558107	0.755939	0.560602
C21	C	0.900311	0.131088	0.000043
C22	C	1.400311	0.631088	0.500043
C23	C	0.800227	0.129184	0.000038
C24	C	1.300227	0.629184	0.500038
C25	C	0.387693	0.039019	0.000053
C26	C	0.887693	0.539019	0.500053
C27	C	0.366412	0.203251	0.000055
C28	C	0.866412	0.703251	0.500055
C29	C	0.460446	0.205041	0.000053
C30	C	0.960446	0.705041	0.500053
C31	C	0.518108	0.123819	0.000050
C32	C	1.018108	0.623819	0.500050
C33	C	0.481736	0.040806	0.000049
C34	C	0.981736	0.540806	0.500049
C35	C	0.496825	0.288053	0.000046
C36	C	0.996825	0.788053	0.500046
C37	C	0.590864	0.289846	0.000043
C38	C	1.090864	0.789846	0.500043
C39	C	0.648528	0.208623	0.000045
C40	C	1.148528	0.708623	0.500045
C41	C	0.612150	0.125607	0.000045
C42	C	1.112150	0.625607	0.500045
C43	C	0.669812	0.044384	0.000042
C44	C	1.169812	0.544384	0.500042
C45	C	0.633437	-0.038633	0.000047
C46	C	1.133437	0.461367	0.500047
C47	C	0.539399	-0.040417	0.000051
C48	C	1.039399	0.459583	0.500051
C49	C	0.742565	0.210407	0.000042
C50	C	1.242565	0.710407	0.500042
C51	C	0.763855	0.046172	0.000038
C52	C	1.263855	0.546172	0.500038
C53	C	1.071504	-0.040106	0.000047
C54	C	1.571504	0.459894	0.500047
C55	C	1.069601	-0.140189	0.000040
C56	C	1.569601	0.359811	0.500040
C57	C	0.979435	-0.552723	0.000050
C58	C	1.479435	-0.052723	0.500050
C59	C	1.143668	-0.574004	0.000057
C60	C	1.643668	-0.074004	0.500057
C61	C	1.145458	-0.479971	0.000053
C62	C	1.645458	0.020029	0.500053
C63	C	1.064235	-0.422309	0.000048
C64	C	1.564235	0.077691	0.500048
C65	C	0.981223	-0.458680	0.000048
C66	C	1.481223	0.041320	0.500048
C67	C	1.228469	-0.443591	0.000061
C68	C	1.728469	0.056409	0.500061
C69	C	1.230262	-0.349552	0.000058
C70	C	1.730262	0.150448	0.500058
C71	C	1.149039	-0.291889	0.000048
C72	C	1.649039	0.208111	0.500048
C73	C	1.066023	-0.328266	0.000046
C74	C	1.566023	0.171734	0.500046
C75	C	0.984800	-0.270604	0.000042
C76	C	1.484800	0.229396	0.500042
C77	C	0.901783	-0.306979	0.000035
C78	C	1.401783	0.193021	0.500035
C79	C	0.899999	-0.401017	0.000038
C80	C	1.399999	0.098983	0.500038
C81	C	1.150823	-0.197851	0.000045
C82	C	1.650823	0.302149	0.500045
C83	C	0.986588	-0.176561	0.000040
C84	C	1.486588	0.323439	0.500040
C85	C	1.229947	0.118337	0.000057
C86	C	1.729947	0.618337	0.500057
C87	C	1.330031	0.120241	0.000057
C88	C	1.830031	0.620241	0.500057
C89	C	1.058754	0.289531	0.000053
C90	C	1.558754	0.789531	0.500053
C91	C	1.060657	0.389615	0.000055
C92	C	1.560657	0.889615	0.500055
N93	N	1.065099	0.124701	0.188719
N94	N	1.565099	0.624701	0.688719
N95	N	1.065166	0.124717	-0.188617
N96	N	1.565166	0.624717	0.311383
C97	C	1.126332	0.063519	0.226821
C98	C	1.626332	0.563519	0.726821
C99	C	1.126338	0.063515	0.303049
C100	C	1.626338	0.563515	0.803049
C101	C	1.065119	0.124709	0.341171
C102	C	1.565119	0.624709	0.841171
C103	C	1.003874	0.185896	0.303060
C104	C	1.503874	0.685896	0.803060
C105	C	1.003864	0.185893	0.226834
C106	C	1.503864	0.685893	0.726834
C107	C	1.053410	0.206801	0.461933
C108	C	1.553410	0.706801	0.961933
C109	C	1.053426	0.206806	0.538157
C110	C	1.553426	0.706806	1.038157
C111	C	1.065145	0.124720	0.576279
C112	C	1.565145	0.624720	1.076279
C113	C	1.076866	0.042626	0.538166
C114	C	1.576866	0.542626	1.038166
C115	C	1.076856	0.042622	0.461940
C116	C	1.576856	0.542622	0.961940
C117	C	1.065123	0.124719	0.423826
C118	C	1.565123	0.624719	0.923826
C119	C	1.126387	0.063528	0.697036
C120	C	1.626387	0.563528	1.197036
C121	C	1.126387	0.063523	0.773265
C122	C	1.626387	0.563523	1.273265
C123	C	1.003928	0.185912	0.773275
C124	C	1.503928	0.685912	1.273275
C125	C	1.003924	0.185910	0.697047
C126	C	1.503924	0.685910	1.197047
C127	C	1.065158	0.124719	0.658932
C128	C	1.565158	0.624719	1.158932
H129	H	0.319459	0.269379	0.000051
H130	H	0.819459	0.769379	0.500051
H131	H	0.449870	0.354180	0.000041
H132	H	0.949870	0.854180	0.500041
Cl133	Cl	0.636585	0.394208	0.000039
Cl134	Cl	1.136585	0.894208	0.500039
Cl135	Cl	0.875076	-0.598450	0.000035
Cl136	Cl	1.375076	-0.098450	0.500035
Cl137	Cl	1.038698	0.310009	0.586063
Cl138	Cl	1.538698	0.810009	1.086063
H139	H	0.772178	0.277998	0.000039
H140	H	1.272178	0.777998	0.500039
Cl141	Cl	1.330570	-0.516083	0.000083
Cl142	Cl	1.830570	-0.016083	0.500083
Cl143	Cl	0.926910	0.262823	0.350984
Cl144	Cl	1.426910	0.762823	0.850984
Cl145	Cl	1.245770	-0.646493	0.000075
Cl146	Cl	1.745770	-0.146493	0.500075
H147	H	1.297860	-0.319944	0.000062
H148	H	1.797860	0.180056	0.500062
Cl149	Cl	1.091579	-0.060576	0.414029
Cl150	Cl	1.591579	0.439424	0.914029
H151	H	0.920445	-0.129618	0.000033
H152	H	1.420445	0.370382	0.500033
Cl153	Cl	0.799679	-0.234480	0.000036
Cl154	Cl	1.299679	0.265520	0.500036
Cl155	Cl	1.255178	-0.152125	0.000067
Cl156	Cl	1.755178	0.347875	0.500067
Cl157	Cl	0.795645	-0.446752	0.000028
Cl158	Cl	1.295645	0.053248	0.500028
Cl159	Cl	1.203306	-0.013410	0.178905
Cl160	Cl	1.703306	0.486590	0.678905
Cl161	Cl	0.926946	0.262834	0.649143
Cl162	Cl	1.426946	0.762834	1.149143
Cl163	Cl	1.203324	-0.013407	0.350957
Cl164	Cl	1.703324	0.486593	0.850957
Cl165	Cl	1.091605	-0.060575	0.586081
Cl166	Cl	1.591605	0.439425	1.086081
H167	H	0.358072	-0.028572	0.000061
H168	H	0.858072	0.471428	0.500061
H169	H	1.043852	0.273650	0.430900
H170	H	1.543852	0.773650	0.930900
H171	H	1.176245	0.013700	0.666001
H172	H	1.676245	0.513700	1.166001
Cl173	Cl	0.926881	0.262815	0.178931
Cl174	Cl	1.426881	0.762815	0.678931
Cl175	Cl	0.926960	0.262836	0.821196
Cl176	Cl	1.426960	0.762836	1.321196
Cl177	Cl	0.836337	-0.055943	0.000039
Cl178	Cl	1.336337	0.444057	0.500039
Cl179	Cl	0.705937	-0.140737	0.000038
Cl180	Cl	1.205937	0.359263	0.500038
Cl181	Cl	1.203366	-0.013404	0.821168
Cl182	Cl	1.703366	0.486596	1.321168
H183	H	0.509774	-0.108005	0.000073
H184	H	1.009774	0.391995	0.500073
