data_functionalizedCrystal
_audit_creation_method	'MofGen! by Chris Wilmer'
_symmetry_space_group_name_H-M	'P1'
_symmetry_Int_Tables_number	1
_symmetry_cell_setting	triclinic
loop_
_symmetry_equiv_pos_as_xyz
  x,y,z
_cell_length_a	19.077115
_cell_length_b	19.076808
_cell_length_c	19.076919
_cell_angle_alpha	89.878360
_cell_angle_beta	90.076897
_cell_angle_gamma	89.927626
loop_
_atom_site_label
_atom_site_type_symbol
_atom_site_fract_x
_atom_site_fract_y
_atom_site_fract_z
Zn1	Zn	1.045198	-0.339419	-0.426227
Zn2	Zn	1.545198	0.160581	0.073773
Zn3	Zn	1.045494	-0.452226	-0.304008
Zn4	Zn	1.545494	0.047774	0.195992
Zn5	Zn	0.932778	-0.330021	-0.304414
Zn6	Zn	1.432778	0.169979	0.195586
Zn7	Zn	0.923332	-0.451803	-0.416779
Zn8	Zn	1.423332	0.048197	0.083221
O9	O	0.986700	-0.393367	-0.362857
O10	O	1.486700	0.106633	0.137143
O11	O	1.143411	-0.358494	-0.413798
O12	O	1.643411	0.141506	0.086202
O13	O	1.034619	-0.432259	-0.205887
O14	O	1.534619	0.067741	0.294113
O15	O	0.951520	-0.233091	-0.324697
O16	O	1.451520	0.266909	0.175303
O17	O	1.143628	-0.441373	-0.324004
O18	O	1.643628	0.058627	0.175996
O19	O	1.034115	-0.239996	-0.414192
O20	O	1.534115	0.260004	0.085808
O21	O	0.951807	-0.342475	-0.206186
O22	O	1.451807	0.157525	0.293814
O23	O	0.833352	-0.342065	-0.315536
O24	O	1.333352	0.157935	0.184464
O25	O	0.935421	-0.440651	-0.516207
O26	O	1.435421	0.059349	-0.016207
O27	O	0.826411	-0.431538	-0.398090
O28	O	1.326411	0.068462	0.101910
O29	O	1.024955	-0.358083	-0.523148
O30	O	1.524955	0.141917	-0.023148
O31	O	1.025459	-0.550347	-0.314843
O32	O	1.525459	-0.050347	0.185157
O33	O	0.935707	-0.550036	-0.397696
O34	O	1.435707	-0.050036	0.102304
C35	C	0.804426	-0.385736	-0.355832
C36	C	1.304426	0.114264	0.144168
C37	C	0.726447	-0.382489	-0.352843
C38	C	1.226447	0.117511	0.147157
C39	C	0.287895	-0.359170	-0.331412
C40	C	0.787895	0.140830	0.168588
C41	C	0.361164	-0.362225	-0.334224
C42	C	0.861164	0.137775	0.165776
C43	C	0.394201	-0.410408	-0.378536
C44	C	0.894201	0.089592	0.121464
C45	C	0.353966	-0.455533	-0.420043
C46	C	0.853966	0.044467	0.079957
C47	C	0.280698	-0.452474	-0.417234
C48	C	0.780698	0.047526	0.082766
C49	C	0.612943	-0.424556	-0.391542
C50	C	1.112943	0.075444	0.108458
C51	C	0.686217	-0.427613	-0.394346
C52	C	1.186217	0.072387	0.105654
C53	C	0.693410	-0.334303	-0.308527
C54	C	1.193410	0.165697	0.191473
C55	C	0.620140	-0.331252	-0.305719
C56	C	1.120140	0.168748	0.194281
C57	C	0.579911	-0.376375	-0.347229
C58	C	1.079911	0.123625	0.152771
N59	N	0.469094	-0.413533	-0.381410
N60	N	0.969094	0.086467	0.118590
N61	N	0.505019	-0.373245	-0.344358
N62	N	1.005019	0.126755	0.155642
C63	C	0.979609	-0.575649	-0.355216
C64	C	1.479609	-0.075649	0.144784
C65	C	0.976638	-0.653633	-0.351974
C66	C	1.476638	-0.153633	0.148026
C67	C	1.018210	-0.693805	-0.397080
C68	C	1.518210	-0.193805	0.102920
C69	C	1.015415	-0.767079	-0.394035
C70	C	1.515415	-0.267079	0.105965
C71	C	0.971053	-0.800181	-0.345878
C72	C	1.471053	-0.300181	0.154122
C73	C	0.929476	-0.760004	-0.300769
C74	C	1.429476	-0.260004	0.199231
C75	C	0.932267	-0.686730	-0.303819
C76	C	1.432267	-0.186730	0.196181
C77	C	0.958095	-1.018945	-0.331760
C78	C	1.458095	-0.518945	0.168240
C79	C	0.955308	-1.092223	-0.328712
C80	C	1.455308	-0.592223	0.171288
C81	C	1.041247	-1.099294	-0.421979
C82	C	1.541247	-0.599294	0.078021
C83	C	1.044037	-1.026019	-0.425021
C84	C	1.544037	-0.526019	0.074979
C85	C	1.002458	-0.985849	-0.379915
C86	C	1.502458	-0.485849	0.120085
N87	N	0.968197	-0.875079	-0.342762
N88	N	1.468197	-0.375079	0.157238
N89	N	1.005310	-0.910952	-0.383035
N90	N	1.505310	-0.410952	0.116965
C91	C	1.169686	-0.401029	-0.369909
C92	C	1.669686	0.098971	0.130091
C93	C	1.247664	-0.404294	-0.372915
C94	C	1.747664	0.095706	0.127085
C95	C	0.979101	-0.400369	-0.545845
C96	C	1.479101	0.099631	-0.045845
C97	C	0.975863	-0.403352	-0.623823
C98	C	1.475863	0.096648	-0.123823
C99	C	0.993838	-0.210375	-0.370543
C100	C	1.493838	0.289625	0.129457
C101	C	0.996880	-0.132395	-0.373819
C102	C	1.496880	0.367605	0.126181
C103	C	1.020955	-0.361767	-0.664072
C104	C	1.520955	0.138233	-0.164072
C105	C	1.017904	-0.364567	-0.737341
C106	C	1.517904	0.135433	-0.237341
C107	C	0.969764	-0.408957	-0.770360
C108	C	1.469764	0.091043	-0.270360
C109	C	0.924667	-0.450544	-0.730105
C110	C	1.424667	0.049456	-0.230105
C111	C	0.927715	-0.447739	-0.656837
C112	C	1.427715	0.052261	-0.156837
C113	C	0.955645	-0.421951	-0.989098
C114	C	1.455645	0.078049	-0.489098
C115	C	0.952602	-0.424754	-1.062371
C116	C	1.452602	0.075246	-0.562371
C117	C	1.045839	-0.338776	-1.069602
C118	C	1.545839	0.161224	-0.569602
C119	C	1.048886	-0.335979	-0.996333
C120	C	1.548886	0.164021	-0.496333
C121	C	1.003786	-0.377563	-0.956085
C122	C	1.503786	0.122437	-0.456085
N123	N	0.966645	-0.411822	-0.845252
N124	N	1.466645	0.088178	-0.345252
N125	N	1.006902	-0.374693	-0.881194
N126	N	1.506902	0.125307	-0.381194
C127	C	0.994312	-0.386344	-0.180585
C128	C	1.494312	0.113656	0.319415
C129	C	0.997694	-0.383169	-0.102620
C130	C	1.497694	0.116831	0.397380
H131	H	0.380871	-0.494761	-0.456126
H132	H	0.880871	0.005239	0.043874
Cl133	Cl	0.230122	-0.509200	-0.469415
Cl134	Cl	0.730122	-0.009200	0.030585
H135	H	0.924241	-0.986243	-0.295031
H136	H	1.424241	-0.486243	0.204969
Cl137	Cl	0.892074	-0.480558	-1.103878
Cl138	Cl	1.392074	0.019442	-0.603878
H139	H	0.918932	-0.455822	-0.956336
H140	H	1.418932	0.044178	-0.456336
Cl141	Cl	1.093511	-1.149798	-0.478683
Cl142	Cl	1.593511	-0.649798	0.021317
H143	H	0.593246	-0.292021	-0.269630
H144	H	1.093246	0.207979	0.230370
H145	H	0.726172	-0.297566	-0.274733
H146	H	1.226172	0.202434	0.225267
Cl147	Cl	0.864144	-0.506346	-0.771614
Cl148	Cl	1.364144	-0.006346	-0.271614
Cl149	Cl	0.411736	-0.305491	-0.282052
Cl150	Cl	0.911736	0.194509	0.217948
H151	H	1.080161	-0.999070	-0.464234
H152	H	1.580161	-0.499070	0.035766
H153	H	1.054338	-0.666859	-0.436292
H154	H	1.554338	-0.166859	0.063708
Cl155	Cl	0.871023	-0.500018	-0.606238
Cl156	Cl	1.371023	-0.000018	-0.106238
Cl157	Cl	0.873698	-0.801617	-0.240236
Cl158	Cl	1.373698	-0.301617	0.259764
H159	H	0.580197	-0.461300	-0.425339
H160	H	1.080197	0.038700	0.074661
Cl161	Cl	1.074624	-0.312319	-0.787937
Cl162	Cl	1.574624	0.187681	-0.287937
Cl163	Cl	1.081481	-0.305964	-0.622571
Cl164	Cl	1.581481	0.194036	-0.122571
H165	H	0.919180	-1.119172	-0.289496
H166	H	1.419180	-0.619172	0.210504
Cl167	Cl	0.246369	-0.298599	-0.275698
Cl168	Cl	0.746369	0.201401	0.224302
Cl169	Cl	1.109408	-0.280173	-0.954830
Cl170	Cl	1.609408	0.219827	-0.454830
Cl171	Cl	0.727749	-0.488190	-0.450056
Cl172	Cl	1.227749	0.011810	0.049944
Cl173	Cl	1.102529	-0.286500	-1.120204
Cl174	Cl	1.602529	0.213500	-0.620204
H175	H	1.049273	-0.799784	-0.430760
H176	H	1.549273	-0.299784	0.069240
Cl177	Cl	0.880002	-0.636228	-0.247111
Cl178	Cl	1.380002	-0.136228	0.252889
