data_functionalizedCrystal
_audit_creation_method	'MofGen! by Chris Wilmer'
_symmetry_space_group_name_H-M	'P1'
_symmetry_Int_Tables_number	1
_symmetry_cell_setting	triclinic
loop_
_symmetry_equiv_pos_as_xyz
  x,y,z
_cell_length_a	19.288864
_cell_length_b	12.837942
_cell_length_c	18.366186
_cell_angle_alpha	89.994829
_cell_angle_beta	89.977106
_cell_angle_gamma	88.982593
loop_
_atom_site_label
_atom_site_type_symbol
_atom_site_fract_x
_atom_site_fract_y
_atom_site_fract_z
O1	O	0.930180	0.129276	-0.060785
O2	O	1.430180	0.629276	0.439215
O3	O	0.729110	0.146715	-0.060736
O4	O	1.229110	0.646715	0.439264
O5	O	0.825187	-0.012886	-0.060755
O6	O	1.325187	0.487114	0.439245
O7	O	0.834104	0.288877	-0.060766
O8	O	1.334104	0.788877	0.439234
O9	O	0.825168	-0.012894	0.060345
O10	O	1.325168	0.487106	0.560345
O11	O	0.729092	0.146707	0.060364
O12	O	1.229092	0.646707	0.560364
O13	O	0.930162	0.129268	0.060314
O14	O	1.430162	0.629268	0.560314
Zn15	Zn	0.829624	0.137986	0.079566
Zn16	Zn	1.329624	0.637986	0.579566
Zn17	Zn	0.829648	0.137997	-0.079987
Zn18	Zn	1.329648	0.637997	0.420013
O19	O	0.834085	0.288870	0.060334
O20	O	1.334085	0.788870	0.560334
C21	C	0.703186	0.146150	-0.000179
C22	C	1.203186	0.646150	0.499821
C23	C	0.625968	0.144466	-0.000160
C24	C	1.125968	0.644466	0.499840
C25	C	0.587666	0.238113	-0.000175
C26	C	1.087666	0.738113	0.499825
C27	C	0.515111	0.236530	-0.000183
C28	C	1.015111	0.736530	0.499817
C29	C	0.480860	0.141295	-0.000191
C30	C	0.980860	0.641295	0.499809
C31	C	0.519171	0.047636	-0.000172
C32	C	1.019171	0.547636	0.499828
C33	C	0.591725	0.049221	-0.000157
C34	C	1.091725	0.549221	0.499843
C35	C	0.367493	0.066433	-0.042639
C36	C	0.867493	0.566433	0.457361
C37	C	0.294940	0.064852	-0.042659
C38	C	0.794940	0.564852	0.457341
C39	C	0.257081	0.136402	-0.000235
C40	C	0.757081	0.636402	0.499765
C41	C	0.291782	0.209552	0.042200
C42	C	0.791782	0.709552	0.542200
C43	C	0.364336	0.211137	0.042215
C44	C	0.864336	0.711137	0.542215
C45	C	0.402188	0.139566	-0.000207
C46	C	0.902188	0.639566	0.499793
C47	C	0.140106	0.228340	-0.000257
C48	C	0.640106	0.728340	0.499743
C49	C	0.067550	0.226753	-0.000261
C50	C	0.567550	0.726753	0.499739
C51	C	0.071611	0.037857	-0.000257
C52	C	0.571611	0.537857	0.499743
C53	C	0.144166	0.039446	-0.000246
C54	C	0.644166	0.539446	0.499754
C55	C	0.178409	0.134690	-0.000250
C56	C	0.678409	0.634690	0.499750
C57	C	0.822165	-0.051497	-0.000205
C58	C	1.322165	0.448503	0.499795
C59	C	0.813181	-0.166532	-0.000204
C60	C	1.313181	0.333468	0.499796
C61	C	0.921187	-0.407995	-0.000245
C62	C	1.421187	0.092005	0.499755
C63	C	0.912748	-0.516081	-0.000245
C64	C	1.412748	-0.016081	0.499755
C65	C	0.787867	-0.490793	-0.000206
C66	C	1.287867	0.009207	0.499794
C67	C	0.796305	-0.382707	-0.000207
C68	C	1.296305	0.117293	0.499793
C69	C	0.862967	-0.341312	-0.000226
C70	C	1.362967	0.158688	0.499774
C71	C	0.871405	-0.233223	-0.000221
C72	C	1.371405	0.266777	0.499779
C73	C	0.746524	-0.207938	-0.000188
C74	C	1.246524	0.292062	0.499812
C75	C	0.738086	-0.316024	-0.000187
C76	C	1.238086	0.183976	0.499813
C77	C	0.956086	0.129833	-0.000243
C78	C	1.456086	0.629833	0.499757
C79	C	1.033304	0.131518	-0.000267
C80	C	1.533304	0.631518	0.499733
C81	C	0.837107	0.327480	-0.000218
C82	C	1.337107	0.827480	0.499782
C83	C	0.846091	0.442515	-0.000224
C84	C	1.346091	0.942515	0.499776
N85	N	0.829612	0.137979	0.188457
N86	N	1.329612	0.637979	0.688457
N87	N	0.829665	0.137996	-0.188879
N88	N	1.329665	0.637996	0.311121
C89	C	0.872172	0.067342	0.226549
C90	C	1.372172	0.567342	0.726549
C91	C	0.872177	0.067337	0.302777
C92	C	1.372177	0.567337	0.802777
C93	C	0.829628	0.137987	0.340910
C94	C	1.329628	0.637987	0.840910
C95	C	0.787059	0.208630	0.302809
C96	C	1.287059	0.708630	0.802809
C97	C	0.787051	0.208625	0.226583
C98	C	1.287051	0.708625	0.726583
C99	C	0.826777	0.232410	0.461668
C100	C	1.326777	0.732410	0.961668
C101	C	0.826790	0.232416	0.537893
C102	C	1.326790	0.732416	1.037893
C103	C	0.829649	0.138000	0.576018
C104	C	1.329649	0.638000	1.076018
C105	C	0.832508	0.043575	0.537908
C106	C	1.332508	0.543575	1.037908
C107	C	0.832500	0.043571	0.461681
C108	C	1.332500	0.543571	0.961681
C109	C	0.829632	0.137999	0.423565
C110	C	1.329632	0.637999	0.923565
C111	C	0.872216	0.067352	0.696764
C112	C	1.372216	0.567352	1.196764
C113	C	0.872215	0.067346	0.772994
C114	C	1.372215	0.567346	1.272994
C115	C	0.787101	0.208648	0.773024
C116	C	1.287101	0.708648	1.273024
C117	C	0.787098	0.208645	0.696796
C118	C	1.287098	0.708645	1.196796
C119	C	0.829659	0.137998	0.658671
C120	C	1.329659	0.637998	1.158671
H121	H	0.260958	0.267814	0.076746
H122	H	0.760958	0.767814	0.576746
N123	N	0.026237	0.327765	-0.000283
N124	N	0.526237	0.827765	0.499717
H125	H	-0.024922	0.312312	-0.000289
H126	H	0.475078	0.812312	0.499711
H127	H	0.038009	0.369291	0.044607
H128	H	0.538009	0.869291	0.544607
N129	N	0.975539	-0.588009	-0.000257
N130	N	1.475539	-0.088009	0.499743
H131	H	0.974828	-0.633413	-0.045148
H132	H	1.474828	-0.133413	0.454852
H133	H	1.019014	-0.545310	-0.000240
H134	H	1.519014	-0.045310	0.499760
N135	N	0.177047	0.331060	-0.000258
N136	N	0.677047	0.831060	0.499742
H137	H	0.141770	0.390148	-0.000262
H138	H	0.641770	0.890148	0.499738
H139	H	0.207039	0.335828	0.044639
H140	H	0.707039	0.835828	0.544639
N141	N	0.683726	-0.136012	-0.000172
N142	N	1.183726	0.363988	0.499828
H143	H	0.640219	-0.178641	-0.000160
H144	H	1.140219	0.321359	0.499840
H145	H	0.684503	-0.090626	0.044723
H146	H	1.184503	0.409374	0.544723
H147	H	0.683812	-0.349743	-0.000175
H148	H	1.183812	0.150257	0.499825
H149	H	0.175352	-0.036812	-0.000238
H150	H	0.675352	0.463188	0.499762
H151	H	0.906826	0.009815	0.195510
H152	H	1.406826	0.509815	0.695510
H153	H	0.975465	-0.374291	-0.000253
H154	H	1.475465	0.125709	0.499747
N155	N	0.918081	-0.008855	0.343875
N156	N	1.418081	0.491145	0.843875
H157	H	0.945040	-0.053610	0.308155
H158	H	1.445040	0.446390	0.808155
H159	H	0.951402	0.030713	0.375479
H160	H	1.451402	0.530713	0.875479
H161	H	0.733594	-0.524517	-0.000199
H162	H	1.233594	-0.024517	0.499801
N163	N	0.741142	0.284812	0.185492
N164	N	1.241142	0.784812	0.685492
H165	H	0.714185	0.329566	0.221213
H166	H	1.214185	0.829566	0.721213
H167	H	0.770752	0.330527	0.153846
H168	H	1.270752	0.830527	0.653846
H169	H	0.834827	-0.033313	0.430655
H170	H	1.334827	0.466687	0.930655
H171	H	0.834836	-0.033307	0.568947
H172	H	1.334836	0.466693	1.068947
H173	H	0.392587	0.270694	0.076769
H174	H	0.892587	0.770694	0.576769
H175	H	0.824438	0.309299	0.430634
H176	H	1.324438	0.809299	0.930634
H177	H	0.906869	0.009824	0.665722
H178	H	1.406869	0.509824	1.165722
N179	N	0.741203	0.284842	0.814145
N180	N	1.241203	0.784842	1.314145
H181	H	0.754058	0.358365	0.800867
H182	H	1.254058	0.858365	1.300867
H183	H	0.691149	0.272991	0.800884
H184	H	1.191149	0.772991	1.300884
N185	N	0.918134	-0.008827	0.814083
N186	N	1.418134	0.491173	1.314083
H187	H	0.945100	-0.053569	0.778361
H188	H	1.445100	0.446431	1.278361
H189	H	0.951450	0.030762	0.845681
H190	H	1.451450	0.530762	1.345681
N191	N	0.741171	0.284835	0.343935
N192	N	1.241171	0.784835	0.843935
H193	H	0.714206	0.329584	0.308234
H194	H	1.214206	0.829584	0.808234
H195	H	0.707854	0.245276	0.375585
H196	H	1.207854	0.745276	0.875585
H197	H	0.752445	0.266168	0.665780
H198	H	1.252445	0.766168	1.165780
H199	H	0.615542	0.315668	-0.000180
H200	H	1.115542	0.815668	0.499820
N201	N	0.823702	0.334253	0.578995
N202	N	1.323702	0.834253	1.078995
H203	H	0.821878	0.394063	0.543278
H204	H	1.321878	0.894063	1.043278
H205	H	0.780871	0.336571	0.610642
H206	H	1.280871	0.836571	1.110642
H207	H	0.483920	0.312791	-0.000193
H208	H	0.983920	0.812791	0.499807
N209	N	0.943301	-0.188574	-0.000237
N210	N	1.443301	0.311426	0.499763
H211	H	0.969135	-0.212901	-0.045137
H212	H	1.469135	0.287099	0.454863
H213	H	0.939755	-0.109990	-0.000204
H214	H	1.439755	0.390010	0.499796
N215	N	0.034681	-0.064864	-0.000257
N216	N	0.534681	0.435136	0.499743
H217	H	-0.017095	-0.051660	-0.000266
H218	H	0.482905	0.448340	0.499734
H219	H	0.048273	-0.105829	-0.045145
H220	H	0.548273	0.394171	0.454855
H221	H	0.266692	0.005293	-0.077214
H222	H	0.766692	0.505293	0.422786
H223	H	0.398312	0.008166	-0.077190
H224	H	0.898312	0.508166	0.422810
H225	H	0.622910	-0.027040	-0.000145
H226	H	1.122910	0.472960	0.499855
N227	N	0.482235	-0.055083	-0.000172
N228	N	0.982235	0.444917	0.499828
H229	H	0.430460	-0.041878	-0.000184
H230	H	0.930460	0.458122	0.499816
H231	H	0.495828	-0.096052	-0.045058
H232	H	0.995828	0.403948	0.454942
