data_functionalizedCrystal
_audit_creation_method	'MofGen! by Chris Wilmer'
_symmetry_space_group_name_H-M	'P1'
_symmetry_Int_Tables_number	1
_symmetry_cell_setting	triclinic
loop_
_symmetry_equiv_pos_as_xyz
  x,y,z
_cell_length_a	16.959455
_cell_length_b	25.639240
_cell_length_c	16.959447
_cell_angle_alpha	89.959742
_cell_angle_beta	89.983277
_cell_angle_gamma	90.031705
loop_
_atom_site_label
_atom_site_type_symbol
_atom_site_fract_x
_atom_site_fract_y
_atom_site_fract_z
Zn1	Zn	1.208314	-0.208155	-0.446905
Zn2	Zn	1.708314	0.291845	0.053095
Zn3	Zn	1.208207	-0.295596	-0.314703
Zn4	Zn	1.708207	0.204404	0.185297
Zn5	Zn	1.076143	-0.208175	-0.314737
Zn6	Zn	1.576143	0.291825	0.185263
Zn7	Zn	1.076078	-0.295560	-0.446836
Zn8	Zn	1.576078	0.204440	0.053164
O9	O	1.142186	-0.251871	-0.380795
O10	O	1.642186	0.248129	0.119205
O11	O	1.318911	-0.219761	-0.429383
O12	O	1.818911	0.280239	0.070617
O13	O	1.190671	-0.284022	-0.204097
O14	O	1.690671	0.215978	0.295903
O15	O	1.093747	-0.135007	-0.332312
O16	O	1.593747	0.364993	0.167688
O17	O	1.318832	-0.284004	-0.332255
O18	O	1.818832	0.215996	0.167745
O19	O	1.190853	-0.134993	-0.429415
O20	O	1.690853	0.365007	0.070585
O21	O	1.093644	-0.219794	-0.204121
O22	O	1.593644	0.280206	0.295879
O23	O	0.965523	-0.219759	-0.332245
O24	O	1.465523	0.280241	0.167755
O25	O	1.093637	-0.283942	-0.557456
O26	O	1.593637	0.216058	-0.057456
O27	O	0.965476	-0.283961	-0.429298
O28	O	1.465476	0.216039	0.070702
O29	O	1.190790	-0.219726	-0.557507
O30	O	1.690790	0.280274	-0.057507
O31	O	1.190608	-0.368756	-0.332188
O32	O	1.690608	0.131244	0.167812
O33	O	1.093534	-0.368730	-0.429266
O34	O	1.593534	0.131270	0.070734
C35	C	0.936819	-0.251859	-0.380769
C36	C	1.436819	0.248141	0.119231
C37	C	0.848963	-0.251866	-0.380776
C38	C	1.348963	0.248134	0.119224
C39	C	0.807690	-0.218392	-0.330326
C40	C	1.307690	0.281608	0.169674
C41	C	0.807682	-0.285344	-0.431238
C42	C	1.307682	0.214656	0.068762
C43	C	0.725136	-0.285350	-0.431249
C44	C	1.225136	0.214650	0.068751
C45	C	0.683863	-0.251876	-0.380799
C46	C	1.183863	0.248124	0.119201
C47	C	0.725136	-0.218395	-0.330338
C48	C	1.225136	0.281605	0.169662
C49	C	0.683857	-0.318827	-0.481716
C50	C	1.183857	0.181173	0.018284
C51	C	0.601306	-0.318834	-0.481730
C52	C	1.101306	0.181166	0.018270
C53	C	0.560031	-0.285361	-0.431275
C54	C	1.060031	0.214639	0.068725
C55	C	0.601310	-0.251880	-0.380811
C56	C	1.101310	0.248120	0.119189
C57	C	0.560037	-0.218405	-0.330361
C58	C	1.060037	0.281595	0.169639
C59	C	0.601314	-0.184926	-0.279892
C60	C	1.101314	0.315074	0.220108
C61	C	0.683862	-0.184923	-0.279883
C62	C	1.183862	0.315077	0.220117
C63	C	0.477483	-0.285364	-0.431284
C64	C	0.977483	0.214636	0.068716
C65	C	0.477483	-0.218409	-0.330373
C66	C	0.977483	0.281591	0.169627
C67	C	1.142074	-0.387714	-0.380733
C68	C	1.642074	0.112286	0.119267
C69	C	1.142098	-0.445828	-0.380733
C70	C	1.642098	0.054172	0.119267
C71	C	1.192774	-0.806145	-0.431448
C72	C	1.692774	-0.306145	0.068552
C73	C	1.192797	-0.860749	-0.431464
C74	C	1.692797	-0.360749	0.068536
O75	O	1.235750	-0.888947	-0.474520
O76	O	1.735750	-0.388947	0.025480
N77	N	1.142295	-0.888110	-0.380872
N78	N	1.642295	-0.388110	0.119128
C79	C	1.091761	-0.860864	-0.330265
C80	C	1.591761	-0.360864	0.169735
O81	O	1.048807	-0.889151	-0.287234
O82	O	1.548807	-0.389151	0.212766
C83	C	1.091734	-0.806261	-0.330254
C84	C	1.591734	-0.306261	0.169746
C85	C	1.142245	-0.778903	-0.380844
C86	C	1.642245	-0.278903	0.119156
C87	C	1.243280	-0.778787	-0.482035
C88	C	1.743280	-0.278787	0.017965
C89	C	1.243257	-0.724186	-0.482018
C90	C	1.743257	-0.224186	0.017982
C91	C	1.192729	-0.696944	-0.431414
C92	C	1.692729	-0.196944	0.068586
C93	C	1.142223	-0.724302	-0.380827
C94	C	1.642223	-0.224302	0.119173
C95	C	1.041197	-0.779016	-0.279652
C96	C	1.541197	-0.279016	0.220348
C97	C	1.041174	-0.724409	-0.279645
C98	C	1.541174	-0.224409	0.220355
C99	C	1.091685	-0.697051	-0.330236
C100	C	1.591685	-0.197051	0.169764
C101	C	1.091672	-0.642459	-0.330205
C102	C	1.591672	-0.142459	0.169795
N103	N	1.142174	-0.615098	-0.380798
N104	N	1.642174	-0.115098	0.119202
C105	C	1.192702	-0.642341	-0.431402
C106	C	1.692702	-0.142341	0.068598
C107	C	1.091820	-0.975535	-0.330294
C108	C	1.591820	-0.475535	0.169706
C109	C	1.091850	-1.030137	-0.330301
C110	C	1.591850	-0.530137	0.169699
C111	C	1.192885	-1.030018	-0.431501
C112	C	1.692885	-0.530018	0.068499
C113	C	1.192858	-0.975415	-0.431490
C114	C	1.692858	-0.475415	0.068510
C115	C	1.142322	-0.948174	-0.380887
C116	C	1.642322	-0.448174	0.119113
C117	C	1.192651	-0.527676	-0.431361
C118	C	1.692651	-0.027676	0.068639
C119	C	1.192627	-0.473070	-0.431337
C120	C	1.692627	0.026930	0.068663
C121	C	1.091589	-0.473194	-0.330141
C122	C	1.591589	0.026806	0.169859
C123	C	1.091616	-0.527794	-0.330161
C124	C	1.591616	-0.027794	0.169839
C125	C	1.142150	-0.555034	-0.380778
C126	C	1.642150	-0.055034	0.119222
O127	O	1.048738	-0.614227	-0.287174
O128	O	1.548738	-0.114227	0.212826
O129	O	1.235642	-0.614047	-0.474433
O130	O	1.735642	-0.114047	0.025567
C131	C	1.348354	-0.251884	-0.380823
C132	C	1.848354	0.248116	0.119177
C133	C	1.436210	-0.251890	-0.380834
C134	C	1.936210	0.248110	0.119166
C135	C	1.142218	-0.251828	-0.586964
C136	C	1.642218	0.248172	-0.086964
C137	C	1.142232	-0.251810	-0.674820
C138	C	1.642232	0.248190	-0.174820
C139	C	1.142319	-0.115498	-0.380875
C140	C	1.642319	0.384502	0.119125
C141	C	1.142376	-0.057384	-0.380909
C142	C	1.642376	0.442616	0.119091
C143	C	1.091744	-0.285189	-1.046272
C144	C	1.591744	0.214811	-0.546272
C145	C	1.192910	-0.218320	-1.046320
C146	C	1.692910	0.281680	-0.546320
C147	C	1.192889	-0.218331	-0.963774
C148	C	1.692889	0.281669	-0.463774
C149	C	1.142295	-0.251772	-0.922473
C150	C	1.642295	0.248228	-0.422473
C151	C	1.091723	-0.285202	-0.963719
C152	C	1.591723	0.214798	-0.463719
C153	C	1.243467	-0.184906	-0.922522
C154	C	1.743467	0.315094	-0.422522
C155	C	1.243448	-0.184916	-0.839971
C156	C	1.743448	0.315084	-0.339971
C157	C	1.192850	-0.218355	-0.798669
C158	C	1.692850	0.281645	-0.298669
C159	C	1.142274	-0.251785	-0.839920
C160	C	1.642274	0.248215	-0.339920
C161	C	1.091681	-0.285226	-0.798619
C162	C	1.591681	0.214774	-0.298619
C163	C	1.041101	-0.318655	-0.839868
C164	C	1.541101	0.181345	-0.339868
C165	C	1.041124	-0.318640	-0.922417
C166	C	1.541124	0.181360	-0.422417
C167	C	1.192826	-0.218369	-0.716121
C168	C	1.692826	0.281631	-0.216121
C169	C	1.091660	-0.285239	-0.716066
C170	C	1.591660	0.214761	-0.216066
C171	C	1.142198	-0.251877	-0.175429
C172	C	1.642198	0.248123	0.324571
C173	C	1.142337	-0.251748	-0.087573
C174	C	1.642337	0.248252	0.412427
H175	H	1.233761	-0.450797	-0.472534
H176	H	1.733761	0.049203	0.027466
N177	N	0.849850	-0.319526	-0.482773
N178	N	1.349850	0.180474	0.017227
N179	N	0.923553	-0.319513	-0.482761
N180	N	1.423553	0.180487	0.017239
H181	H	0.953339	-0.343654	-0.519161
H182	H	1.453339	0.156346	-0.019161
H183	H	0.999911	-0.345884	-0.806231
H184	H	1.499911	0.154116	-0.306231
N185	N	0.435308	-0.319550	-0.482831
N186	N	0.935308	0.180450	0.017169
N187	N	0.389277	-0.301193	-0.533253
N188	N	0.889277	0.198807	-0.033253
H189	H	0.359491	-0.325339	-0.569661
H190	H	0.859491	0.174661	-0.069661
H191	H	0.841301	-0.191135	-0.289233
H192	H	1.341301	0.308865	0.210767
H193	H	0.999947	-0.345858	-0.956009
H194	H	1.499947	0.154142	-0.456009
H195	H	1.050493	-0.550070	-0.288960
H196	H	1.550493	-0.050070	0.211040
N197	N	1.244286	-0.555495	-0.483048
N198	N	1.744286	-0.055495	0.016952
N199	N	1.294691	-0.585948	-0.455292
N200	N	1.794691	-0.085948	0.044708
H201	H	1.331162	-0.605595	-0.491791
H202	H	1.831162	-0.105595	0.008209
N203	N	1.294882	-0.696249	-0.533672
N204	N	1.794882	-0.196249	-0.033672
N205	N	1.345268	-0.665784	-0.505883
N206	N	1.845268	-0.165784	-0.005883
H207	H	1.381742	-0.646061	-0.542360
H208	H	1.881742	-0.146061	-0.042360
H209	H	1.234106	-0.191097	-1.079952
H210	H	1.734106	0.308903	-0.579952
H211	H	1.284426	-0.800962	-0.523247
H212	H	1.784426	-0.300962	-0.023247
N213	N	1.244460	-0.947480	-0.483169
N214	N	1.744460	-0.447480	0.016831
N215	N	1.289572	-0.971817	-0.528341
N216	N	1.789572	-0.471817	-0.028341
H217	H	1.326019	-0.952090	-0.564843
H218	H	1.826019	-0.452090	-0.064843
H219	H	1.284662	-0.157684	-0.956155
H220	H	1.784662	0.342316	-0.456155
N221	N	1.040212	-0.947709	-0.278586
N222	N	1.540212	-0.447709	0.221414
N223	N	1.068037	-0.917253	-0.228233
N224	N	1.568037	-0.417253	0.271767
H225	H	1.031588	-0.897603	-0.191715
H226	H	1.531588	-0.397603	0.308285
H227	H	1.050452	-0.312467	-0.682445
H228	H	1.550452	0.187533	-0.182445
H229	H	1.284633	-0.157696	-0.806393
H230	H	1.784633	0.342304	-0.306393
H231	H	1.234010	-0.191153	-0.682539
H232	H	1.734010	0.308847	-0.182539
N233	N	1.039992	-0.445352	-0.278448
N234	N	1.539992	0.054648	0.221552
N235	N	1.039986	-0.396600	-0.278446
N236	N	1.539986	0.103400	0.221554
H237	H	1.003544	-0.376935	-0.241939
H238	H	1.503544	0.123065	0.258061
H239	H	0.567699	-0.157669	-0.238819
H240	H	1.067699	0.342331	0.261181
H241	H	1.234027	-1.052209	-0.472707
H242	H	1.734027	-0.552209	0.027293
H243	H	1.000019	-0.702231	-0.238439
H244	H	1.500019	-0.202231	0.261561
N245	N	0.559159	-0.353032	-0.533286
N246	N	1.059159	0.146968	-0.033286
N247	N	0.596020	-0.382915	-0.578328
N248	N	1.096020	0.117085	-0.078328
H249	H	0.566254	-0.407070	-0.614739
H250	H	1.066254	0.092930	-0.114739
H251	H	0.443885	-0.191151	-0.289288
H252	H	0.943885	0.308849	0.210712
H253	H	0.717477	-0.157666	-0.238794
H254	H	1.217477	0.342334	0.261206
N255	N	0.726026	-0.353005	-0.533254
N256	N	1.226026	0.146995	-0.033254
N257	N	0.799730	-0.352994	-0.533236
N258	N	1.299730	0.147006	-0.033236
H259	H	0.829517	-0.377132	-0.569639
H260	H	1.329517	0.122868	-0.069639
H261	H	1.050728	-1.052408	-0.289097
H262	H	1.550728	-0.552408	0.210903
H263	H	1.050560	-0.312404	-1.079861
H264	H	1.550560	0.187596	-0.579861
N265	N	0.989586	-0.806944	-0.227979
N266	N	1.489586	-0.306944	0.272021
N267	N	0.944468	-0.782604	-0.182817
N268	N	1.444468	-0.282604	0.317183
H269	H	0.908009	-0.802327	-0.146325
H270	H	1.408009	-0.302327	0.353675
