data_functionalizedCrystal
_audit_creation_method	'MofGen! by Chris Wilmer'
_symmetry_space_group_name_H-M	'P1'
_symmetry_Int_Tables_number	1
_symmetry_cell_setting	triclinic
loop_
_symmetry_equiv_pos_as_xyz
  x,y,z
_cell_length_a	21.395364
_cell_length_b	10.685676
_cell_length_c	21.395355
_cell_angle_alpha	94.363429
_cell_angle_beta	90.024552
_cell_angle_gamma	85.597474
loop_
_atom_site_label
_atom_site_type_symbol
_atom_site_fract_x
_atom_site_fract_y
_atom_site_fract_z
Zn1	Zn	0.938819	0.502022	0.373410
Zn2	Zn	0.930720	0.713012	0.276680
Zn3	Zn	0.834032	0.502077	0.268649
Zn4	Zn	0.826001	0.713035	0.381421
O5	O	0.882393	0.607536	0.325040
O6	O	1.025424	0.529977	0.360587
O7	O	0.917865	0.685045	0.187938
O8	O	0.854683	0.325483	0.275832
O9	O	1.019473	0.684991	0.289520
O10	O	0.931670	0.325442	0.352799
O11	O	0.846830	0.530072	0.182037
O12	O	0.745288	0.530093	0.283600
O13	O	0.840995	0.685029	0.468036
O14	O	0.739387	0.685083	0.366453
O15	O	0.923882	0.529999	0.462150
O16	O	0.910078	0.889602	0.297288
O17	O	0.833141	0.889618	0.374241
C18	C	0.719603	0.607598	0.325025
C19	C	0.649960	0.607654	0.325034
C20	C	0.620362	0.527071	0.362106
C21	C	0.554928	0.527037	0.362107
C22	C	0.519093	0.607610	0.325044
C23	C	0.548698	0.688199	0.287965
C24	C	0.614131	0.688221	0.287960
C25	C	0.411059	0.721251	0.324341
C26	C	0.345626	0.721231	0.324350
C27	C	0.317275	0.607540	0.325055
C28	C	0.354364	0.493866	0.325764
C29	C	0.419797	0.493888	0.325759
C30	C	0.448141	0.607594	0.325045
C31	C	0.216727	0.526914	0.362130
C32	C	0.151292	0.526878	0.362127
C33	C	0.145062	0.688051	0.287988
C34	C	0.210496	0.688075	0.287988
C35	C	0.246325	0.607508	0.325062
C36	C	0.869876	0.935397	0.337519
C37	C	0.864578	1.075657	0.342879
C38	C	1.045819	0.607476	0.325056
C39	C	1.115461	0.607450	0.325063
C40	C	0.882446	0.607511	0.488462
C41	C	0.882469	0.607500	0.558103
C42	C	0.894971	1.278395	0.312533
C43	C	0.900316	1.138135	0.307222
C44	C	0.882380	0.607471	0.162250
C45	C	0.882492	0.607126	0.092596
C46	C	0.925626	0.526772	0.587753
C47	C	0.925628	0.526718	0.653186
C48	C	0.882477	0.607414	0.688968
C49	C	0.839311	0.688147	0.659312
C50	C	0.839307	0.688190	0.593879
C51	C	0.873191	0.721039	0.796968
C52	C	0.873200	0.720998	0.862399
C53	C	0.882486	0.607280	0.890784
C54	C	0.891776	0.493600	0.853729
C55	C	0.891772	0.493643	0.788297
C56	C	0.882476	0.607376	0.759919
C57	C	0.925647	0.526487	0.991384
C58	C	0.925644	0.526431	1.056818
C59	C	0.839330	0.687871	1.062943
C60	C	0.839330	0.687916	0.997509
C61	C	0.882492	0.607226	0.961733
H62	H	0.245900	0.461303	0.392314
F63	F	0.241997	0.773840	0.248529
H64	H	0.115886	0.753654	0.257811
H65	H	0.934972	1.084317	0.272594
F66	F	0.971561	0.440889	0.549681
F67	F	0.901662	0.372564	0.883933
H68	H	0.804190	0.753661	0.973369
F69	F	0.306160	0.842213	0.323605
H70	H	0.530826	0.461410	0.392294
H71	H	0.434136	0.813839	0.323767
F72	F	0.510559	0.773945	0.248518
F73	F	0.324196	0.372858	0.326514
F74	F	0.971555	0.440772	0.684747
H75	H	0.960789	0.460777	0.962253
F76	F	0.459267	0.372912	0.326511
H77	H	0.899336	0.401081	0.758129
H78	H	0.960788	0.460685	1.080957
H79	H	0.804190	0.753563	1.092076
F80	F	0.819289	1.145992	0.388144
H81	H	0.865638	0.813564	0.892565
H82	H	0.865463	0.813618	0.773862
F83	F	0.793385	0.774026	0.697394
F84	F	0.119793	0.441100	0.401583
F85	F	0.658490	0.441322	0.401563
H86	H	0.638228	0.753844	0.257771
F87	F	0.793370	0.774115	0.562323
