data_functionalizedCrystal
_audit_creation_method	'MofGen! by Chris Wilmer'
_symmetry_space_group_name_H-M	'P1'
_symmetry_Int_Tables_number	1
_symmetry_cell_setting	triclinic
loop_
_symmetry_equiv_pos_as_xyz
  x,y,z
_cell_length_a	14.519731
_cell_length_b	14.519731
_cell_length_c	10.868271
_cell_angle_alpha	89.993880
_cell_angle_beta	89.995592
_cell_angle_gamma	83.688853
loop_
_atom_site_label
_atom_site_type_symbol
_atom_site_fract_x
_atom_site_fract_y
_atom_site_fract_z
O1	O	1.223864	0.120984	-0.102328
O2	O	1.723864	0.620984	0.397672
O3	O	0.955391	0.135200	-0.102330
O4	O	1.455391	0.635200	0.397670
O5	O	1.096736	-0.006145	-0.102318
O6	O	1.596736	0.493855	0.397682
O7	O	1.082520	0.262329	-0.102340
O8	O	1.582520	0.762329	0.397660
O9	O	1.096724	-0.006150	0.102327
O10	O	1.596724	0.493850	0.602327
O11	O	0.955380	0.135195	0.102315
O12	O	1.455380	0.635195	0.602315
O13	O	1.223853	0.120979	0.102317
O14	O	1.723853	0.620979	0.602317
Zn15	Zn	1.089614	0.128086	0.134808
Zn16	Zn	1.589614	0.628086	0.634808
Zn17	Zn	1.089630	0.128093	-0.134821
Zn18	Zn	1.589630	0.628093	0.365179
O19	O	1.082508	0.262323	0.102305
O20	O	1.582508	0.762323	0.602305
C21	C	0.921026	0.134531	-0.000008
C22	C	1.421026	0.634531	0.499992
C23	C	0.818645	0.132535	-0.000008
C24	C	1.318645	0.632535	0.499992
C25	C	0.735501	0.130913	-0.000013
C26	C	1.235501	0.630913	0.499987
C27	C	0.631192	0.128887	-0.000013
C28	C	1.131192	0.628887	0.499987
C29	C	0.548053	0.127278	-0.000013
C30	C	1.048053	0.627278	0.499987
C31	C	0.443738	0.125252	-0.000016
C32	C	0.943738	0.625252	0.499984
C33	C	1.096064	-0.040507	0.000005
C34	C	1.596064	0.459493	0.500005
C35	C	1.094068	-0.142887	0.000006
C36	C	1.594068	0.357113	0.500006
C37	C	1.092446	-0.226031	0.000003
C38	C	1.592446	0.273969	0.500003
C39	C	1.090419	-0.330340	-0.000007
C40	C	1.590419	0.169660	0.499993
C41	C	1.088811	-0.413479	-0.000014
C42	C	1.588811	0.086521	0.499986
C43	C	1.086785	-0.517795	-0.000022
C44	C	1.586785	-0.017795	0.499978
C45	C	1.258218	0.121648	-0.000008
C46	C	1.758218	0.621648	0.499992
C47	C	1.360598	0.123644	-0.000015
C48	C	1.860598	0.623644	0.499985
C49	C	1.083180	0.296685	-0.000021
C50	C	1.583180	0.796685	0.499979
C51	C	1.085176	0.399066	-0.000030
C52	C	1.585176	0.899066	0.499970
N53	N	1.089611	0.128080	0.318822
N54	N	1.589611	0.628080	0.818822
N55	N	1.089641	0.128091	-0.318835
N56	N	1.589641	0.628091	0.181165
C57	C	1.089625	0.128091	0.569828
C58	C	1.589625	0.628091	1.069828
C59	C	1.089614	0.128088	0.430150
C60	C	1.589614	0.628088	0.930150
