data_functionalizedCrystal
_audit_creation_method	'MofGen! by Chris Wilmer'
_symmetry_space_group_name_H-M	'P1'
_symmetry_Int_Tables_number	1
_symmetry_cell_setting	triclinic
loop_
_symmetry_equiv_pos_as_xyz
  x,y,z
_cell_length_a	19.121063
_cell_length_b	17.077404
_cell_length_c	17.077396
_cell_angle_alpha	90.021457
_cell_angle_beta	92.408800
_cell_angle_gamma	87.531824
loop_
_atom_site_label
_atom_site_type_symbol
_atom_site_fract_x
_atom_site_fract_y
_atom_site_fract_z
Zn1	Zn	-0.279630	-1.186696	-0.457193
Zn2	Zn	-0.397087	-1.180992	-0.331518
Zn3	Zn	-0.279653	-1.055427	-0.325938
Zn4	Zn	-0.397043	-1.049787	-0.462735
O5	O	-0.338354	-1.118226	-0.394346
O6	O	-0.295220	-1.295786	-0.440538
O7	O	-0.381537	-1.164309	-0.220932
O8	O	-0.181365	-1.077588	-0.338695
O9	O	-0.381516	-1.291595	-0.348205
O10	O	-0.181349	-1.174031	-0.435127
O11	O	-0.295259	-1.072057	-0.216832
O12	O	-0.295216	-0.944832	-0.344068
O13	O	-0.381441	-1.067975	-0.571845
O14	O	-0.381462	-0.940689	-0.444572
O15	O	-0.295178	-1.168562	-0.567774
O16	O	-0.495366	-1.158840	-0.353578
O17	O	-0.495334	-1.062444	-0.449983
C18	C	-0.338337	-0.914279	-0.394316
C19	C	-0.338347	-0.827028	-0.394323
C20	C	-0.383323	-0.783898	-0.446577
C21	C	-0.383323	-0.701918	-0.446587
C22	C	-0.338350	-0.663069	-0.394338
C23	C	-0.293370	-0.706205	-0.342082
C24	C	-0.293367	-0.788184	-0.342077
C25	C	-0.293381	-0.535335	-0.342096
C26	C	-0.293385	-0.453350	-0.342100
C27	C	-0.383337	-0.449068	-0.446606
C28	C	-0.383334	-0.531047	-0.446600
C29	C	-0.338354	-0.574178	-0.394343
C30	C	-0.520834	-1.109433	-0.403004
C31	C	-0.598900	-1.105743	-0.406735
C32	C	-0.635569	-1.154236	-0.358336
C33	C	-0.708920	-1.150771	-0.361850
C34	C	-0.745601	-1.098807	-0.413758
C35	C	-0.708927	-1.050311	-0.462162
C36	C	-0.635577	-1.053781	-0.458652
C37	C	-0.967071	-1.085820	-0.426868
C38	C	-1.040426	-1.082352	-0.430372
C39	C	-1.040414	-1.182813	-0.330061
C40	C	-0.967063	-1.186275	-0.326552
C41	C	-0.930395	-1.137782	-0.374959
C42	C	-0.820578	-1.095261	-0.417348
C43	C	-0.855419	-1.141332	-0.371372
C44	C	-0.155161	-1.127075	-0.385670
C45	C	-0.077095	-1.130845	-0.381973
C46	C	-0.338302	-1.118276	-0.599088
C47	C	-0.338280	-1.118297	-0.686336
C48	C	-0.338366	-0.322969	-0.394367
C49	C	-0.338360	-0.410219	-0.394354
C50	C	-0.293359	-1.170674	-0.725208
C51	C	-0.293336	-1.170685	-0.807187
C52	C	-0.338237	-1.118321	-0.850294
C53	C	-0.383160	-1.065938	-0.811417
C54	C	-0.383179	-1.065924	-0.729439
C55	C	-0.383118	-1.065972	-0.982285
C56	C	-0.383099	-1.065986	-1.064269
C57	C	-0.293274	-1.170732	-1.060033
C58	C	-0.293293	-1.170719	-0.978055
C59	C	-0.338217	-1.118336	-0.939184
C60	C	-0.338354	-1.118224	-0.190398
C61	C	-0.338179	-1.118364	-0.103140
H62	H	-0.256756	-0.421722	-0.299563
O63	O	-0.431835	-0.572951	-0.502957
H64	H	-0.486945	-0.554557	-0.492018
H65	H	-0.738798	-1.008004	-0.504430
O66	O	-0.431954	-0.402611	-0.502912
H67	H	-0.420063	-0.418939	-0.563999
H68	H	-0.605708	-1.196547	-0.316064
O69	O	-0.244864	-0.834703	-0.285706
H70	H	-0.189757	-0.821623	-0.296648
O71	O	-0.244875	-0.581859	-0.285727
H72	H	-0.213610	-0.541073	-0.249387
O73	O	-0.431571	-1.009474	-0.940358
H74	H	-0.400138	-0.971046	-0.901518
O75	O	-0.431585	-1.009452	-0.857907
H76	H	-0.467319	-1.042861	-0.896952
H77	H	-0.256797	-1.213317	-0.690116
O78	O	-0.860150	-1.039210	-0.473323
H79	H	-0.846034	-1.053301	-0.534272
O80	O	-0.244887	-1.227180	-0.849115
H81	H	-0.256952	-1.288201	-0.833970
O82	O	-0.244881	-0.664296	-0.285716
H83	H	-0.209194	-0.628664	-0.319211
H84	H	-0.738773	-1.190259	-0.322438
H85	H	-0.937198	-1.228588	-0.284284
O86	O	-0.431898	-0.655477	-0.502943
H87	H	-0.400585	-0.619642	-0.541519
O88	O	-1.079960	-1.235137	-0.277875
H89	H	-1.137128	-1.224007	-0.289044
H90	H	-1.070289	-1.040046	-0.472656
O91	O	-0.927525	-1.033496	-0.479051
H92	H	-0.965357	-0.996767	-0.515720
O93	O	-0.431622	-1.009420	-0.687513
H94	H	-0.486746	-1.020214	-0.705850
O95	O	-0.431826	-0.825799	-0.502934
H96	H	-0.463094	-0.782031	-0.539277
O97	O	-0.244865	-1.227198	-0.931561
H98	H	-0.276318	-1.265611	-0.895715
O99	O	-0.596021	-1.001469	-0.510843
H100	H	-0.633849	-0.964745	-0.547521
O101	O	-0.815857	-1.197388	-0.315398
H102	H	-0.782487	-1.163858	-0.273831
H103	H	-0.256694	-1.213383	-1.091686
H104	H	-0.419661	-1.023346	-1.099364
