data_functionalizedCrystal
_audit_creation_method	'MofGen! by Chris Wilmer'
_symmetry_space_group_name_H-M	'P1'
_symmetry_Int_Tables_number	1
_symmetry_cell_setting	triclinic
loop_
_symmetry_equiv_pos_as_xyz
  x,y,z
_cell_length_a	16.992695
_cell_length_b	16.992697
_cell_length_c	13.448316
_cell_angle_alpha	90.000126
_cell_angle_beta	89.993283
_cell_angle_gamma	89.331663
loop_
_atom_site_label
_atom_site_type_symbol
_atom_site_fract_x
_atom_site_fract_y
_atom_site_fract_z
O1	O	0.166921	-1.050853	-0.082549
O2	O	0.666921	-0.550853	0.417451
O3	O	0.165089	-0.822453	-0.082582
O4	O	0.665089	-0.322453	0.417418
O5	O	0.051805	-0.935737	-0.082558
O6	O	0.551805	-0.435737	0.417442
O7	O	0.280205	-0.937569	-0.082573
O8	O	0.780205	-0.437569	0.417427
O9	O	0.051796	-0.935722	0.082826
O10	O	0.551796	-0.435722	0.582826
O11	O	0.165081	-0.822437	0.082802
O12	O	0.665081	-0.322437	0.582802
O13	O	0.166912	-1.050837	0.082835
O14	O	0.666912	-0.550837	0.582835
Cu15	Cu	0.165996	-0.936636	0.097919
Cu16	Cu	0.665996	-0.436636	0.597919
Cu17	Cu	0.166006	-0.936654	-0.097666
Cu18	Cu	0.666006	-0.436654	0.402334
O19	O	0.280196	-0.937553	0.082811
O20	O	0.780196	-0.437553	0.582811
C21	C	0.162729	-0.793085	0.000106
C22	C	0.662729	-0.293085	0.500106
C23	C	0.155700	-0.705600	0.000093
C24	C	0.655700	-0.205600	0.500093
C25	C	0.022440	-0.933374	0.000134
C26	C	0.522440	-0.433374	0.500134
C27	C	-0.065044	-0.926345	0.000132
C28	C	0.434956	-0.426345	0.500132
C29	C	0.223518	-0.659609	0.000088
C30	C	0.723518	-0.159609	0.500088
C31	C	0.216909	-0.577409	0.000101
C32	C	0.716909	-0.077409	0.500101
C33	C	0.142481	-0.541200	0.000111
C34	C	0.642481	-0.041200	0.500111
C35	C	0.074658	-0.587197	0.000119
C36	C	0.574658	-0.087197	0.500119
C37	C	0.081268	-0.669397	0.000113
C38	C	0.581268	-0.169397	0.500113
C39	C	0.115086	-0.295886	0.000135
C40	C	0.615086	0.204114	0.500135
C41	C	0.108481	-0.213681	0.000138
C42	C	0.608481	0.286319	0.500138
C43	C	0.250733	-0.203898	0.000121
C44	C	0.750733	0.296102	0.500121
C45	C	0.257336	-0.286099	0.000110
C46	C	0.757336	0.213901	0.500110
C47	C	0.189513	-0.332089	0.000123
C48	C	0.689513	0.167911	0.500123
N49	N	0.135724	-0.457178	0.000121
N50	N	0.635724	0.042822	0.500121
N51	N	0.196271	-0.416109	0.000120
N52	N	0.696271	0.083891	0.500120
C53	C	-0.111035	-0.994163	0.000143
C54	C	0.388965	-0.494163	0.500143
C55	C	-0.193236	-0.987554	0.000133
C56	C	0.306764	-0.487554	0.500133
C57	C	-0.229444	-0.913126	0.000119
C58	C	0.270556	-0.413126	0.500119
C59	C	-0.183447	-0.845303	0.000105
C60	C	0.316553	-0.345303	0.500105
C61	C	-0.101248	-0.851913	0.000108
C62	C	0.398752	-0.351913	0.500108
C63	C	-0.474758	-0.885732	0.000101
C64	C	0.025242	-0.385732	0.500101
C65	C	-0.556964	-0.879127	0.000101
C66	C	-0.056964	-0.379127	0.500101
C67	C	-0.566747	-1.021379	0.000127
C68	C	-0.066747	-0.521379	0.500127
C69	C	-0.484545	-1.027982	0.000136
C70	C	0.015455	-0.527982	0.500136
C71	C	-0.438556	-0.960159	0.000117
C72	C	0.061444	-0.460159	0.500117
N73	N	-0.313466	-0.906369	0.000111
N74	N	0.186534	-0.406369	0.500111
N75	N	-0.354535	-0.966917	0.000118
N76	N	0.145465	-0.466917	0.500118
C77	C	0.309561	-0.939916	0.000117
C78	C	0.809561	-0.439916	0.500117
C79	C	0.397045	-0.946945	0.000112
C80	C	0.897045	-0.446945	0.500112
C81	C	0.169272	-0.080205	0.000141
C82	C	0.669272	0.419795	0.500141
C83	C	0.176299	-0.167690	0.000133
C84	C	0.676299	0.332310	0.500133
N85	N	0.165989	-0.936629	0.235484
N86	N	0.665989	-0.436629	0.735484
N87	N	0.166007	-0.936667	-0.235231
N88	N	0.666007	-0.436667	0.264769
C89	C	0.115849	-0.986809	0.287535
C90	C	0.615849	-0.486809	0.787535
C91	C	0.115849	-0.986814	0.391638
C92	C	0.615849	-0.486814	0.891638
C93	C	0.165992	-0.936642	0.443688
C94	C	0.665992	-0.436642	0.943688
C95	C	0.216134	-0.886456	0.391630
C96	C	0.716134	-0.386456	0.891630
C97	C	0.216130	-0.886448	0.287528
C98	C	0.716130	-0.386448	0.787528
C99	C	0.216141	-0.886478	0.608610
C100	C	0.716141	-0.386478	1.108610
C101	C	0.216146	-0.886487	0.712718
C102	C	0.716146	-0.386487	1.212718
C103	C	0.115860	-0.986844	0.712719
C104	C	0.615860	-0.486844	1.212719
C105	C	0.115856	-0.986836	0.608618
C106	C	0.615856	-0.486836	1.108618
C107	C	0.165998	-0.936651	0.556567
C108	C	0.665998	-0.436651	1.056567
H109	H	0.284125	-0.689084	0.000079
H110	H	0.784125	-0.189084	0.500079
N111	N	-0.222493	-0.765025	0.000097
N112	N	0.277507	-0.265025	0.500097
H113	H	-0.206044	-0.735086	-0.061216
H114	H	0.293956	-0.235086	0.438784
H115	H	-0.281536	-0.771191	0.000139
H116	H	0.218464	-0.271191	0.500139
H117	H	-0.455071	-1.088589	0.000148
H118	H	0.044929	-0.588589	0.500148
N119	N	0.270207	-0.832320	0.231389
N120	N	0.770207	-0.332320	0.731389
H121	H	0.326653	-0.844882	0.249489
H122	H	0.826653	-0.344882	0.749489
H123	H	0.262528	-0.839947	0.157562
H124	H	0.762528	-0.339947	0.657562
H125	H	0.075021	-1.027674	0.434018
H126	H	0.575021	-0.527674	0.934018
H127	H	0.305950	-0.166444	0.000113
H128	H	0.805950	0.333556	0.500113
H129	H	0.047870	-0.184203	0.000145
H130	H	0.547870	0.315797	0.500145
N131	N	0.041942	-0.345490	0.000131
N132	N	0.541942	0.154510	0.500131
H133	H	0.041509	-0.379814	0.061437
H134	H	0.541509	0.120186	0.561437
H135	H	-0.006171	-0.310030	0.000094
H136	H	0.493829	0.189970	0.500094
N137	N	-0.596017	-0.798847	0.000075
N138	N	-0.096017	-0.298847	0.500075
H139	H	-0.655068	-0.804954	0.000082
H140	H	-0.155068	-0.304954	0.500082
H141	H	-0.579518	-0.768933	0.061377
H142	H	-0.079518	-0.268933	0.561377
H143	H	-0.437323	-0.830505	0.000086
H144	H	0.062677	-0.330505	0.500086
N145	N	-0.005619	-0.548149	0.000146
N146	N	0.494381	-0.048149	0.500146
H147	H	0.000483	-0.489097	0.000148
H148	H	0.500483	0.010903	0.500148
H149	H	-0.035525	-0.564651	-0.061159
H150	H	0.464475	-0.064651	0.438841
H151	H	0.026043	-0.706842	0.000116
H152	H	0.526043	-0.206842	0.500116
N153	N	0.061778	-1.040949	0.552470
N154	N	0.561778	-0.540949	1.052470
H155	H	0.074378	-1.097387	0.570574
H156	H	0.574378	-0.597387	1.070574
H157	H	0.005355	-1.028322	0.570617
H158	H	0.505355	-0.528322	1.070617
H159	H	0.256959	-0.845601	0.434015
H160	H	0.756959	-0.345601	0.934015
H161	H	-0.063803	-0.796688	0.000099
H162	H	0.436197	-0.296688	0.500099
N163	N	0.061793	-1.040988	0.768856
N164	N	0.561793	-0.540988	1.268856
H165	H	0.030037	-1.072781	0.720087
H166	H	0.530037	-0.572781	1.220087
H167	H	0.094156	-1.077667	0.812024
H168	H	0.594156	-0.577667	1.312024
H169	H	0.272134	-0.539966	0.000096
H170	H	0.772134	-0.039966	0.500096
N171	N	0.337612	-0.325151	0.000080
N172	N	0.837612	0.174849	0.500080
H173	H	0.379573	-0.283542	0.000075
H174	H	0.879573	0.216458	0.500075
H175	H	0.343459	-0.359050	0.061381
H176	H	0.843459	0.140950	0.561381
N177	N	-0.616348	-1.094527	0.000149
N178	N	-0.116348	-0.594527	0.500149
H179	H	-0.673916	-1.079050	0.000146
H180	H	-0.173916	-0.579050	0.500146
H181	H	-0.604110	-1.126748	-0.061154
H182	H	-0.104110	-0.626748	0.438846
H183	H	0.075020	-1.027668	0.245162
H184	H	0.575020	-0.527668	0.745162
H185	H	0.256977	-0.845631	0.755092
H186	H	0.756977	-0.345631	1.255092
H187	H	0.256969	-0.845609	0.566233
H188	H	0.756969	-0.345609	1.066233
H189	H	-0.081560	-1.054770	0.000161
H190	H	0.418440	-0.554770	0.500161
H191	H	-0.230678	-1.042779	0.000144
H192	H	0.269322	-0.542779	0.500144
