data_functionalizedCrystal
_audit_creation_method	'MofGen! by Chris Wilmer'
_symmetry_space_group_name_H-M	'P1'
_symmetry_Int_Tables_number	1
_symmetry_cell_setting	triclinic
loop_
_symmetry_equiv_pos_as_xyz
  x,y,z
_cell_length_a	19.077068
_cell_length_b	19.077105
_cell_length_c	19.076919
_cell_angle_alpha	89.923776
_cell_angle_beta	85.529249
_cell_angle_gamma	90.115316
loop_
_atom_site_label
_atom_site_type_symbol
_atom_site_fract_x
_atom_site_fract_y
_atom_site_fract_z
Zn1	Zn	-0.340450	1.044048	0.453500
Zn2	Zn	0.159550	1.544048	0.953500
Zn3	Zn	-0.453600	1.043962	0.340340
Zn4	Zn	0.046400	1.543962	0.840340
Zn5	Zn	-0.331023	0.931660	0.330931
Zn6	Zn	0.168977	1.431660	0.830931
Zn7	Zn	-0.453176	0.921801	0.453077
Zn8	Zn	0.046824	1.421801	0.953077
O9	O	-0.394562	0.985368	0.394462
O10	O	0.105438	1.485368	0.894462
O11	O	-0.359583	1.142196	0.442604
O12	O	0.140417	1.642196	0.942604
O13	O	-0.433572	1.033154	0.240616
O14	O	0.066428	1.533154	0.740616
O15	O	-0.233799	0.950731	0.343429
O16	O	0.266201	1.450731	0.843429
O17	O	-0.442714	1.142133	0.359466
O18	O	0.057286	1.642133	0.859466
O19	O	-0.240725	1.033302	0.433479
O20	O	0.259275	1.533302	0.933479
O21	O	-0.343516	0.950647	0.233703
O22	O	0.156484	1.450647	0.733703
O23	O	-0.343104	0.832193	0.343019
O24	O	0.156896	1.332193	0.843019
O25	O	-0.441990	0.933928	0.551609
O26	O	0.058010	1.433928	1.051609
O27	O	-0.432849	0.824949	0.432759
O28	O	0.067151	1.324949	0.932759
O29	O	-0.359171	1.023742	0.551919
O30	O	0.140829	1.523742	1.051919
O31	O	-0.552019	1.023594	0.359056
O32	O	-0.052019	1.523594	0.859056
O33	O	-0.551707	0.933844	0.441883
O34	O	-0.051707	1.433844	0.941883
C35	C	-0.386908	0.803119	0.386822
C36	C	0.113092	1.303119	0.886822
C37	C	-0.383651	0.725151	0.383571
C38	C	0.116349	1.225151	0.883571
C39	C	-0.428912	0.684769	0.428699
C40	C	0.071088	1.184769	0.928699
C41	C	-0.425842	0.611510	0.425647
C42	C	0.074158	1.111510	0.925647
C43	C	-0.377515	0.578634	0.377464
C44	C	0.122485	1.078634	0.877464
C45	C	-0.332250	0.619022	0.332335
C46	C	0.167750	1.119022	0.832335
C47	C	-0.335317	0.692280	0.335390
C48	C	0.164683	1.192280	0.835390
C49	C	-0.363323	0.359940	0.363326
C50	C	0.136677	0.859940	0.863326
C51	C	-0.360262	0.286677	0.360273
C52	C	0.139738	0.786677	0.860273
C53	C	-0.453853	0.279170	0.453586
C54	C	0.046147	0.779170	0.953586
C55	C	-0.456918	0.352429	0.456635
C56	C	0.043082	0.852429	0.956635
C57	C	-0.411651	0.392810	0.411508
C58	C	0.088349	0.892810	0.911508
N59	N	-0.374378	0.503752	0.374342
N60	N	0.125622	1.003752	0.874342
N61	N	-0.414785	0.467691	0.414634
N62	N	0.085215	0.967691	0.914634
C63	C	-0.577398	0.977658	0.401461
C64	C	-0.077398	1.477658	0.901461
C65	C	-0.655619	0.974423	0.404482
C66	C	-0.155619	1.474423	0.904482
C67	C	-0.692509	1.019665	0.362816
C68	C	-0.192509	1.519665	0.862816
C69	C	-0.766007	1.016626	0.365661
C70	C	-0.266007	1.516626	0.865661
C71	C	-0.802612	0.968342	0.410169
C72	C	-0.302612	1.468342	0.910169
C73	C	-0.765717	0.923098	0.451839
C74	C	-0.265717	1.423098	0.951839
C75	C	-0.692221	0.926141	0.448997
C76	C	-0.192221	1.426141	0.948997
C77	C	-1.022406	0.954231	0.423292
C78	C	-0.522406	1.454231	0.923292
C79	C	-1.095907	0.951190	0.426130
C80	C	-0.595907	1.451190	0.926130
C81	C	-1.096192	1.044720	0.339952
C82	C	-0.596192	1.544720	0.839952
C83	C	-1.022695	1.047755	0.337111
C84	C	-0.522695	1.547755	0.837111
C85	C	-0.985806	1.002514	0.378784
C86	C	-0.485806	1.502514	0.878784
N87	N	-0.877738	0.965233	0.413077
N88	N	-0.377738	1.465233	0.913077
N89	N	-0.910681	1.005627	0.375880
N90	N	-0.410681	1.505627	0.875880
C91	C	-0.211015	0.993126	0.387451
C92	C	0.288985	1.493126	0.887451
C93	C	-0.132798	0.996432	0.384464
C94	C	0.367202	1.496432	0.884464
C95	C	-0.401585	0.977745	0.578012
C96	C	0.098415	1.477745	1.078012
C97	C	-0.404578	0.974497	0.656230
C98	C	0.095422	1.474497	1.156230
C99	C	-0.402247	1.168328	0.402132
C100	C	0.097753	1.668328	0.902132
C101	C	-0.405522	1.246295	0.405400
C102	C	0.094478	1.746295	0.905400
C103	C	-0.387518	0.993003	0.211626
C104	C	0.112482	1.493003	0.711626
C105	C	-0.384333	0.996396	0.133406
C106	C	0.115667	1.496396	0.633406
C107	C	-0.362866	1.019730	0.693140
C108	C	0.137134	1.519730	1.193140
C109	C	-0.365675	1.016669	0.766634
C110	C	0.134325	1.516669	1.266634
C111	C	-0.410200	0.968378	0.803216
C112	C	0.089800	1.468378	1.303216
C113	C	-0.451913	0.923140	0.766301
C114	C	0.048087	1.423140	1.266301
C115	C	-0.449100	0.926198	0.692809
C116	C	0.050900	1.426198	1.192809
C117	C	-0.423233	0.954216	1.022998
C118	C	0.076767	1.454216	1.522998
C119	C	-0.426044	0.951163	1.096496
C120	C	0.073956	1.451163	1.596496
C121	C	-0.339805	1.044691	1.096823
C122	C	0.160195	1.544691	1.596823
C123	C	-0.337000	1.047748	1.023329
C124	C	0.163000	1.547748	1.523329
C125	C	-0.378710	1.002507	0.986421
C126	C	0.121290	1.502507	1.486421
N127	N	-0.413073	0.965250	0.878339
N128	N	0.086927	1.465250	1.378339
N129	N	-0.375832	1.005632	0.911299
N130	N	0.124168	1.505632	1.411299
H131	H	-0.490707	0.246283	0.490327
H132	H	0.009293	0.746283	0.990327
C133	C	-0.510085	0.388586	0.509637
C134	C	-0.010085	0.888586	1.009637
N135	N	-0.550134	0.415820	0.549556
N136	N	-0.050134	0.915820	1.049556
H137	H	-0.468267	0.711530	0.467932
H138	H	0.031733	1.211530	0.967932
C139	C	-0.307095	0.250516	0.307266
C140	C	0.192905	0.750516	0.807266
N141	N	-0.267053	0.223279	0.267343
N142	N	0.232947	0.723279	0.767343
H143	H	-0.326612	1.059056	0.663360
H144	H	0.173388	1.559056	1.163360
H145	H	-0.305846	1.081523	1.126882
H146	H	0.194154	1.581523	1.626882
C147	C	-0.285528	0.736700	0.285745
C148	C	0.214472	1.236700	0.785745
N149	N	-0.248024	0.770157	0.248351
N150	N	0.251976	1.270157	0.748351
H151	H	-0.488163	0.883818	0.796093
H152	H	0.011837	1.383818	1.296093
C153	C	-0.313531	0.404350	0.313681
C154	C	0.186469	0.904350	0.813681
N155	N	-0.276027	0.437802	0.276284
N156	N	0.223973	0.937802	0.776284
C157	C	-0.319790	1.066431	0.807231
C158	C	0.180210	1.566431	1.307231
N159	N	-0.285227	1.103913	0.837809
N160	N	0.214773	1.603913	1.337809
C161	C	-0.475645	0.567092	0.475278
C162	C	0.024355	1.067092	0.975278
N163	N	-0.513164	0.533637	0.512659
N164	N	-0.013164	1.033637	1.012659
C165	C	-0.279088	0.582857	0.279334
C166	C	0.220912	1.082857	0.779334
N167	N	-0.239047	0.555617	0.239412
N168	N	0.260953	1.055617	0.739412
H169	H	-0.483058	0.889357	0.662757
H170	H	0.016942	1.389357	1.162757
H171	H	-0.662710	1.058980	0.326570
H172	H	-0.162710	1.558980	0.826570
H173	H	-1.125710	0.911879	0.462386
H174	H	-0.625710	1.411879	0.962386
C175	C	-0.651642	0.876371	0.494833
C176	C	-0.151642	1.376371	0.994833
N177	N	-0.621079	0.838885	0.529360
N178	N	-0.121079	1.338885	1.029360
H179	H	-0.796040	1.053467	0.331732
H180	H	-0.296040	1.553467	0.831732
H181	H	-0.992892	1.087072	0.300869
H182	H	-0.492892	1.587072	0.800869
H183	H	-0.992377	0.917392	0.457223
H184	H	-0.492377	1.417392	0.957223
C185	C	-0.805985	0.869982	0.500796
C186	C	-0.305985	1.369982	1.000796
N187	N	-0.836315	0.829971	0.537668
N188	N	-0.336315	1.329971	1.037668
H189	H	-1.126235	1.081554	0.306026
H190	H	-0.626235	1.581554	0.806026
C191	C	-0.288012	1.100865	0.983093
C192	C	0.211988	1.600865	1.483093
N193	N	-0.251113	1.140872	0.952787
N194	N	0.248887	1.640872	1.452787
C195	C	-0.475024	0.898035	1.136736
C196	C	0.024976	1.398035	1.636736
N197	N	-0.511915	0.858021	1.167044
N198	N	-0.011915	1.358021	1.667044
C199	C	-0.469114	0.904447	0.982408
C200	C	0.030886	1.404447	1.482408
N201	N	-0.503672	0.866958	0.951832
N202	N	-0.003672	1.366958	1.451832
