data_functionalizedCrystal
_audit_creation_method	'MofGen! by Chris Wilmer'
_symmetry_space_group_name_H-M	'P1'
_symmetry_Int_Tables_number	1
_symmetry_cell_setting	triclinic
loop_
_symmetry_equiv_pos_as_xyz
  x,y,z
_cell_length_a	27.731994
_cell_length_b	27.732048
_cell_length_c	26.210047
_cell_angle_alpha	90.000479
_cell_angle_beta	89.997128
_cell_angle_gamma	97.368405
loop_
_atom_site_label
_atom_site_type_symbol
_atom_site_fract_x
_atom_site_fract_y
_atom_site_fract_z
O1	O	0.640948	-0.057385	-0.042362
O2	O	1.140948	0.442615	0.457638
O3	O	0.500151	-0.066158	-0.042379
O4	O	1.000151	0.433842	0.457621
O5	O	0.574923	0.008626	-0.042360
O6	O	1.074923	0.508626	0.457640
O7	O	0.566177	-0.132169	-0.042381
O8	O	1.066177	0.367831	0.457619
O9	O	0.574908	0.008614	0.042498
O10	O	1.074908	0.508614	0.542498
O11	O	0.500137	-0.066170	0.042479
O12	O	1.000137	0.433830	0.542479
O13	O	0.640934	-0.057397	0.042496
O14	O	1.140934	0.442603	0.542496
Cu15	Cu	0.570534	-0.061784	0.050236
Cu16	Cu	1.070534	0.438216	0.550236
Cu17	Cu	0.570551	-0.061771	-0.050119
Cu18	Cu	1.070551	0.438229	0.449881
O19	O	0.566162	-0.132181	0.042477
O20	O	1.066162	0.367819	0.542477
C21	C	0.482137	-0.065984	0.000047
C22	C	0.982137	0.434016	0.500047
C23	C	0.428480	-0.065442	0.000041
C24	C	0.928480	0.434558	0.500041
C25	C	0.095754	-0.062032	0.046317
C26	C	0.595754	0.437968	0.546317
C27	C	-0.105904	-0.059971	0.046324
C28	C	0.394096	0.440029	0.546324
O29	O	-0.131984	-0.059689	0.085663
O30	O	0.368016	0.440311	0.585663
N31	N	-0.131111	-0.059708	0.000067
N32	N	0.368889	0.440292	0.500067
C33	C	-0.105900	-0.059958	-0.046193
C34	C	0.394100	0.440042	0.453807
O35	O	-0.131967	-0.059683	-0.085537
O36	O	0.368033	0.440317	0.414463
C37	C	0.095758	-0.062016	-0.046199
C38	C	0.595758	0.437984	0.453801
C39	C	0.120961	-0.062283	0.000060
C40	C	0.620961	0.437717	0.500060
C41	C	0.120958	-0.062299	0.092573
C42	C	0.620958	0.437701	0.592573
C43	C	0.171369	-0.062817	0.092571
C44	C	0.671369	0.437183	0.592571
C45	C	0.196576	-0.063068	0.046313
C46	C	0.696576	0.436932	0.546313
C47	C	0.171372	-0.062802	0.000058
C48	C	0.671372	0.437198	0.500058
C49	C	0.120968	-0.062263	-0.092459
C50	C	0.620968	0.437737	0.407541
C51	C	0.171386	-0.062776	-0.092457
C52	C	0.671386	0.437224	0.407543
C53	C	0.196590	-0.063043	-0.046197
C54	C	0.696590	0.436957	0.453803
C55	C	0.246991	-0.063571	-0.046201
C56	C	0.746991	0.436429	0.453799
N57	N	0.272198	-0.063833	0.000055
N58	N	0.772198	0.436167	0.500055
C59	C	0.246991	-0.063582	0.046312
C60	C	0.746991	0.436418	0.546312
C61	C	-0.211773	-0.058878	-0.046187
C62	C	0.288227	0.441122	0.453813
C63	C	-0.262188	-0.058365	-0.046186
C64	C	0.237812	0.441635	0.453814
C65	C	-0.262188	-0.058376	0.046331
C66	C	0.237812	0.441624	0.546331
C67	C	-0.211774	-0.058894	0.046329
C68	C	0.288226	0.441106	0.546329
C69	C	-0.186566	-0.059141	0.000069
C70	C	0.313434	0.440859	0.500069
C71	C	0.352858	-0.064670	0.046305
C72	C	0.852858	0.435330	0.546305
C73	C	0.403273	-0.065190	0.046298
C74	C	0.903273	0.434810	0.546298
C75	C	0.403269	-0.065176	-0.046218
C76	C	0.903269	0.434824	0.453782
C77	C	0.352858	-0.064659	-0.046213
C78	C	0.852858	0.435341	0.453787
C79	C	0.327654	-0.064404	0.000053
C80	C	0.827654	0.435596	0.500053
O81	O	0.273102	-0.063848	-0.085520
O82	O	0.773102	0.436152	0.414480
O83	O	0.273067	-0.063847	0.085650
O84	O	0.773067	0.436153	0.585650
C85	C	0.045343	-0.061514	0.046319
C86	C	0.545343	0.438486	0.546319
C87	C	0.020139	-0.061247	0.000064
C88	C	0.520139	0.438753	0.500064
C89	C	0.045346	-0.061499	-0.046193
C90	C	0.545346	0.438501	0.453807
C91	C	-0.030275	-0.060734	0.000065
C92	C	0.469725	0.439266	0.500065
C93	C	-0.055483	-0.060482	0.046323
C94	C	0.444517	0.439518	0.546323
C95	C	-0.030276	-0.060745	0.092579
C96	C	0.469724	0.439255	0.592579
C97	C	0.020135	-0.061263	0.092577
C98	C	0.520135	0.438737	0.592577
C99	C	0.020139	-0.061236	-0.092449
C100	C	0.520139	0.438764	0.407551
C101	C	-0.030272	-0.060719	-0.092443
C102	C	0.469728	0.439281	0.407557
C103	C	-0.055479	-0.060468	-0.046186
C104	C	0.444521	0.439532	0.453814
C105	C	0.574732	0.026627	0.000070
C106	C	1.074732	0.526627	0.500070
C107	C	0.574179	0.080282	0.000074
C108	C	1.074179	0.580282	0.500074
C109	C	0.658949	-0.057571	0.000068
C110	C	1.158949	0.442429	0.500068
C111	C	0.712605	-0.058114	0.000071
C112	C	1.212605	0.441886	0.500071
C113	C	0.566353	-0.150182	0.000046
C114	C	1.066353	0.349818	0.500046
C115	C	0.566906	-0.203837	0.000038
C116	C	1.066906	0.296163	0.500038
N117	N	0.570526	-0.061794	0.120820
N118	N	1.070526	0.438206	0.620820
C119	C	0.614884	0.419105	0.000053
C120	C	1.114884	0.919105	0.500053
C121	C	0.612833	0.620764	0.000046
C122	C	1.112833	1.120764	0.500046
O123	O	0.650055	0.652027	0.000028
O124	O	1.150055	1.152027	0.500028
N125	N	0.568496	0.639879	0.000041
N126	N	1.068496	1.139879	0.500041
C127	C	0.524670	0.608576	0.000034
C128	C	1.024670	1.108576	0.500034
O129	O	0.486912	0.629462	0.000024
O130	O	0.986912	1.129462	0.500024
C131	C	0.526721	0.406918	0.000038
C132	C	1.026721	0.906918	0.500038
C133	C	0.571061	0.387805	0.000048
C134	C	1.071061	0.887805	0.500048
C135	C	0.659220	0.399992	0.000063
C136	C	1.159220	0.899992	0.500063
C137	C	0.659732	0.349580	0.000068
C138	C	1.159732	0.849580	0.500068
C139	C	0.615908	0.318281	0.000062
C140	C	1.115908	0.818281	0.500062
C141	C	0.571573	0.337394	0.000053
C142	C	1.071573	0.837394	0.500053
C143	C	0.482895	0.375615	0.000028
C144	C	0.982895	0.875615	0.500028
C145	C	0.483412	0.325198	0.000027
C146	C	0.983412	0.825198	0.500027
C147	C	0.527751	0.306086	0.000037
C148	C	1.027751	0.806086	0.500037
C149	C	0.528262	0.255683	0.000052
C150	C	1.028262	0.755683	0.500052
N151	N	0.572598	0.236567	0.000057
N152	N	1.072598	0.736567	0.500057
C153	C	0.616421	0.267867	0.000062
C154	C	1.116421	0.767867	0.500062
C155	C	0.523596	0.714450	0.000033
C156	C	1.023596	1.214450	0.500033
C157	C	0.523083	0.764864	0.000033
C158	C	1.023083	1.264864	0.500033
C159	C	0.611246	0.777049	0.000044
C160	C	1.111246	1.277049	0.500044
C161	C	0.611759	0.726633	0.000048
C162	C	1.111759	1.226633	0.500048
C163	C	0.567932	0.695335	0.000038
C164	C	1.067932	1.195335	0.500038
C165	C	0.617494	0.161998	0.000073
C166	C	1.117494	0.661998	0.500073
C167	C	0.618002	0.111581	0.000079
C168	C	1.118002	0.611581	0.500079
C169	C	0.529839	0.099401	0.000066
C170	C	1.029839	0.599401	0.500066
C171	C	0.529331	0.149813	0.000062
C172	C	1.029331	0.649813	0.500062
C173	C	0.573162	0.181111	0.000063
C174	C	1.073162	0.681111	0.500063
O175	O	0.491060	0.224391	0.000064
O176	O	0.991060	0.724391	0.500064
O177	O	0.654174	0.246971	0.000061
O178	O	1.154174	0.746971	0.500061
C179	C	0.614372	0.469517	0.000049
C180	C	1.114372	0.969517	0.500049
C181	C	0.570036	0.488629	0.000039
C182	C	1.070036	0.988629	0.500039
C183	C	0.526213	0.457330	0.000034
C184	C	1.026213	0.957330	0.500034
C185	C	0.569523	0.539043	0.000039
C186	C	1.069523	1.039043	0.500039
C187	C	0.613346	0.570343	0.000044
C188	C	1.113346	1.070343	0.500044
C189	C	0.657683	0.551228	0.000049
C190	C	1.157683	1.051228	0.500049
C191	C	0.658195	0.500816	0.000054
C192	C	1.158195	1.000816	0.500054
C193	C	0.481876	0.476445	0.000029
C194	C	0.981876	0.976445	0.500029
C195	C	0.481367	0.526857	0.000025
C196	C	0.981367	1.026857	0.500025
C197	C	0.525191	0.558157	0.000030
C198	C	1.025191	1.058157	0.500030
N199	N	0.570563	-0.061757	-0.120703
N200	N	1.070563	0.438243	0.379297
C201	C	0.603656	-0.028664	0.473342
C202	C	1.103656	0.471336	0.973342
C203	C	0.603667	-0.028657	0.687001
C204	C	1.103667	0.471343	1.187001
O205	O	0.631818	-0.000491	0.714630
O206	O	1.131818	0.499509	1.214630
N207	N	0.570554	-0.061760	0.713714
N208	N	1.070554	0.438240	1.213714
C209	C	0.537433	-0.094865	0.687008
C210	C	1.037433	0.405135	1.187008
O211	O	0.509265	-0.123018	0.714632
O212	O	1.009265	0.376982	1.214632
C213	C	0.537421	-0.094869	0.473351
C214	C	1.037421	0.405131	0.973351
C215	C	0.570539	-0.061767	0.446641
C216	C	1.070539	0.438233	0.946641
C217	C	0.636772	0.004436	0.446632
C218	C	1.136772	0.504436	0.946632
C219	C	0.636771	0.004432	0.393221
C220	C	1.136771	0.504432	0.893221
C221	C	0.603654	-0.028671	0.366519
C222	C	1.103654	0.471329	0.866519
C223	C	0.570538	-0.061771	0.393229
C224	C	1.070538	0.438229	0.893229
C225	C	0.504298	-0.127971	0.446647
C226	C	1.004298	0.372029	0.946647
C227	C	0.504297	-0.127969	0.393229
C228	C	1.004297	0.372031	0.893229
C229	C	0.537416	-0.094867	0.366519
C230	C	1.037416	0.405133	0.866519
C231	C	0.537420	-0.094878	0.313117
C232	C	1.037420	0.405122	0.813117
N233	N	0.570533	-0.061775	0.286404
N234	N	1.070533	0.438225	0.786404
C235	C	0.603650	-0.028672	0.313105
C236	C	1.103650	0.471328	0.813105
C237	C	0.537443	-0.094861	0.799182
C238	C	1.037443	0.405139	1.299182
C239	C	0.537446	-0.094861	0.852596
C240	C	1.037446	0.405139	1.352596
C241	C	0.603680	-0.028652	0.852585
C242	C	1.103680	0.471348	1.352585
C243	C	0.603678	-0.028655	0.799169
C244	C	1.103678	0.471345	1.299169
C245	C	0.570556	-0.061758	0.772469
C246	C	1.070556	0.438242	1.272469
C247	C	0.603645	-0.028682	0.200937
C248	C	1.103645	0.471318	0.700937
C249	C	0.603643	-0.028690	0.147521
C250	C	1.103643	0.471310	0.647521
C251	C	0.537408	-0.094897	0.147537
C252	C	1.037408	0.405103	0.647537
C253	C	0.537412	-0.094891	0.200949
C254	C	1.037412	0.405109	0.700949
C255	C	0.570533	-0.061780	0.227647
C256	C	1.070533	0.438220	0.727647
O257	O	0.509281	-0.123026	0.285454
O258	O	1.009281	0.376974	0.785454
O259	O	0.631807	-0.000516	0.285473
O260	O	1.131807	0.499484	0.785473
C261	C	0.603658	-0.028660	0.526754
C262	C	1.103658	0.471340	1.026754
C263	C	0.570542	-0.061760	0.553464
C264	C	1.070542	0.438240	1.053464
C265	C	0.537425	-0.094863	0.526762
C266	C	1.037425	0.405137	1.026762
C267	C	0.570546	-0.061759	0.606878
C268	C	1.070546	0.438241	1.106878
C269	C	0.603663	-0.028656	0.633579
C270	C	1.103663	0.471344	1.133579
C271	C	0.636776	0.004447	0.606866
C272	C	1.136776	0.504447	1.106866
C273	C	0.636775	0.004443	0.553455
C274	C	1.136775	0.504443	1.053455
C275	C	0.504311	-0.127966	0.553475
C276	C	1.004311	0.372034	1.053475
C277	C	0.504316	-0.127960	0.606887
C278	C	1.004316	0.372040	1.106887
C279	C	0.537433	-0.094857	0.633588
C280	C	1.037433	0.405143	1.133588
H281	H	-0.191254	-0.059079	-0.083860
H282	H	0.308746	0.440921	0.416140
C283	C	-0.289920	-0.058097	0.097214
C284	C	0.210080	0.441903	0.597214
H285	H	-0.267692	-0.058329	0.124766
H286	H	0.232308	0.441671	0.624766
H287	H	-0.305688	-0.029698	0.099136
H288	H	0.194312	0.470302	0.599136
H289	H	-0.313486	-0.086100	0.099134
H290	H	0.186514	0.413900	0.599134
H291	H	-0.050809	-0.060543	0.130243
H292	H	0.449191	0.439457	0.630243
C293	C	0.708505	0.328563	0.000069
C294	C	1.208505	0.828563	0.500069
H295	H	0.734528	0.354430	0.000066
H296	H	1.234528	0.854430	0.500066
H297	H	0.710541	0.309149	0.029660
H298	H	1.210541	0.809149	0.529660
H299	H	0.710542	0.309153	-0.029528
H300	H	1.210542	0.809153	0.470472
C301	C	0.666776	0.090558	0.000091
C302	C	1.166776	0.590558	0.500091
H303	H	0.660808	0.056050	0.000098
H304	H	1.160808	0.556050	0.500098
H305	H	0.684811	0.101323	-0.029498
H306	H	1.184811	0.601323	0.470502
H307	H	0.684796	0.101328	0.029689
H308	H	1.184796	0.601328	0.529689
C309	C	0.093257	-0.061958	-0.143345
C310	C	0.593257	0.438042	0.356655
H311	H	0.115498	-0.062173	-0.170890
H312	H	0.615498	0.437827	0.329110
H313	H	0.069687	-0.089952	-0.145286
H314	H	0.569687	0.410048	0.354714
H315	H	0.077496	-0.033550	-0.145258
H316	H	0.577496	0.466450	0.354742
H317	H	0.040658	-0.061439	-0.130118
H318	H	0.540658	0.438561	0.369882
C319	C	0.325139	-0.064395	0.097195
C320	C	0.825139	0.435605	0.597195
H321	H	0.347375	-0.064633	0.124739
H322	H	0.847375	0.435367	0.624739
H323	H	0.309371	-0.035996	0.099131
H324	H	0.809371	0.464004	0.599131
H325	H	0.301574	-0.092398	0.099114
H326	H	0.801574	0.407602	0.599114
H327	H	-0.282705	-0.058155	-0.083855
H328	H	0.217295	0.441845	0.416145
C329	C	0.435203	0.290770	0.000017
C330	C	0.935203	0.790770	0.500017
H331	H	0.441855	0.258007	0.000017
H332	H	0.941855	0.758007	0.500017
H333	H	0.416999	0.296531	0.029604
H334	H	0.916999	0.796531	0.529604
H335	H	0.417016	0.296529	-0.029583
H336	H	0.917016	0.796529	0.470417
H337	H	0.493226	0.165375	0.000068
H338	H	0.993226	0.665375	0.500068
C339	C	0.199110	-0.063052	-0.143344
C340	C	0.699110	0.436948	0.356656
H341	H	0.176876	-0.062823	-0.170891
H342	H	0.676876	0.437177	0.329109
H343	H	0.222679	-0.035055	-0.145266
H344	H	0.722679	0.464945	0.354734
H345	H	0.214873	-0.091457	-0.145274
H346	H	0.714873	0.408543	0.354726
C347	C	0.199087	-0.063109	0.143456
C348	C	0.699087	0.436891	0.643456
H349	H	0.176849	-0.062881	0.171002
H350	H	0.676849	0.437119	0.671002
H351	H	0.214854	-0.091509	0.145378
H352	H	0.714854	0.408491	0.645378
H353	H	0.222653	-0.035107	0.145386
H354	H	0.722653	0.464893	0.645386
H355	H	0.477343	-0.154922	0.531739
H356	H	0.977343	0.345078	1.031739
C357	C	0.481638	0.064966	0.000057
C358	C	0.981638	0.564966	0.500057
H359	H	0.488297	0.032205	0.000055
H360	H	0.988297	0.532205	0.500055
H361	H	0.463431	0.070720	0.029644
H362	H	0.963431	0.570720	0.529644
H363	H	0.463450	0.070722	-0.029544
H364	H	0.963450	0.570722	0.470456
C365	C	0.707430	0.434414	0.000073
C366	C	1.207430	0.934414	0.500073
H367	H	0.733903	0.415804	0.000082
H368	H	1.233903	0.915804	0.500082
H369	H	0.709076	0.454338	-0.029517
H370	H	1.209076	0.954338	0.470483
H371	H	0.709057	0.454330	0.029671
H372	H	1.209057	0.954330	0.529671
H373	H	0.693365	0.576720	0.000055
H374	H	1.193365	1.076720	0.500055
C375	C	0.325131	-0.064380	-0.097096
C376	C	0.825131	0.435620	0.402904
H377	H	0.347365	-0.064606	-0.124645
H378	H	0.847365	0.435394	0.375355
H379	H	0.301564	-0.092379	-0.099016
H380	H	0.801564	0.407621	0.400984
H381	H	0.309365	-0.035977	-0.099021
H382	H	0.809365	0.464023	0.400979
C383	C	0.431004	-0.065448	-0.097097
C384	C	0.931004	0.434552	0.402903
H385	H	0.464639	-0.065788	-0.090469
H386	H	0.964639	0.434212	0.409531
H387	H	0.418848	-0.093557	-0.116115
H388	H	0.918848	0.406443	0.383885
H389	H	0.426645	-0.037155	-0.116094
H390	H	0.926645	0.462845	0.383906
H391	H	0.100439	-0.062093	0.130243
H392	H	0.600439	0.437907	0.630243
C393	C	0.660531	0.705614	0.000054
C394	C	1.160531	1.205614	0.500054
H395	H	0.686555	0.731480	0.000055
H396	H	1.186555	1.231480	0.500055
H397	H	0.662562	0.686199	0.029645
H398	H	1.162562	1.186199	0.529645
H399	H	0.662570	0.686204	-0.029543
H400	H	1.162570	1.186204	0.470457
C401	C	0.500978	-0.131305	0.118159
C402	C	1.000978	0.368695	0.618159
H403	H	0.505719	-0.126559	0.082523
H404	H	1.005719	0.373441	0.582523
H405	H	0.505978	-0.163532	0.126908
H406	H	1.005978	0.336468	0.626908
H407	H	0.468758	-0.126274	0.126915
H408	H	0.968758	0.373726	0.626915
C409	C	0.673211	0.040833	0.363844
C410	C	1.173211	0.540833	0.863844
H411	H	0.668478	0.036090	0.328207
H412	H	1.168478	0.536090	0.828207
H413	H	0.668218	0.073063	0.372593
H414	H	1.168218	0.573063	0.872593
H415	H	0.705428	0.035795	0.372605
H416	H	1.205428	0.535795	0.872605
C417	C	0.665707	0.196418	0.000079
C418	C	1.165707	0.696418	0.500079
H419	H	0.692182	0.177809	0.000090
H420	H	1.192182	0.677809	0.500090
H421	H	0.667352	0.216339	-0.029513
H422	H	1.167352	0.716339	0.470487
H423	H	0.667335	0.216337	0.029674
H424	H	1.167335	0.716337	0.529674
C425	C	0.047854	-0.061550	0.143462
C426	C	0.547854	0.438450	0.643462
H427	H	0.025616	-0.061321	0.171008
H428	H	0.525616	0.438679	0.671008
H429	H	0.063623	-0.089949	0.145387
H430	H	0.563623	0.410051	0.645387
H431	H	0.071418	-0.033547	0.145389
H432	H	0.571418	0.466453	0.645389
C433	C	-0.184052	-0.059175	0.097214
C434	C	0.315948	0.440825	0.597214
H435	H	-0.206289	-0.058947	0.124760
H436	H	0.293711	0.441053	0.624760
H437	H	-0.168279	-0.087571	0.099140
H438	H	0.331721	0.412429	0.599140
H439	H	-0.160491	-0.031169	0.099137
H440	H	0.339509	0.468831	0.599137
H441	H	0.663740	0.031395	0.468368
H442	H	1.163740	0.531395	0.968368
C443	C	0.640105	0.007760	0.769793
C444	C	1.140105	0.507760	1.269793
H445	H	0.659825	0.027475	0.793350
H446	H	1.159825	0.527475	1.293350
H447	H	0.660095	-0.009483	0.748951
H448	H	1.160095	0.490517	1.248951
H449	H	0.622864	0.027764	0.748962
H450	H	1.122864	0.527764	1.248962
H451	H	0.477324	-0.154925	0.371492
H452	H	0.977324	0.345075	0.871492
C453	C	0.659451	0.811484	0.000042
C454	C	1.159451	1.311484	0.500042
H455	H	0.652791	0.844244	0.000035
H456	H	1.152791	1.344244	0.500035
H457	H	0.677651	0.805732	0.029632
H458	H	1.177651	1.305732	0.529632
H459	H	0.677645	0.805725	-0.029556
H460	H	1.177645	1.305725	0.470444
H461	H	0.487905	0.688970	0.000026
H462	H	0.987905	1.188970	0.500026
C463	C	-0.057990	-0.060424	-0.143332
C464	C	0.442010	0.439576	0.356668
H465	H	-0.035752	-0.060643	-0.170879
H466	H	0.464248	0.439357	0.329121
H467	H	-0.081560	-0.088419	-0.145266
H468	H	0.418440	0.411581	0.354734
H469	H	-0.073752	-0.032017	-0.145248
H470	H	0.426248	0.467983	0.354752
C471	C	0.474310	0.785882	0.000026
C472	C	0.974310	1.285882	0.500026
H473	H	0.448286	0.760017	0.000018
H474	H	0.948286	1.260017	0.500018
H475	H	0.472267	0.805296	0.029616
H476	H	0.972267	1.305296	0.529616
H477	H	0.472282	0.805293	-0.029572
H478	H	0.972282	1.305293	0.470428
H479	H	0.446789	0.391167	0.000016
H480	H	0.946789	0.891167	0.500016
C481	C	0.432591	0.547875	0.000012
C482	C	0.932591	1.047875	0.500012
H483	H	0.406567	0.522010	0.000004
H484	H	0.906567	1.022010	0.500004
H485	H	0.430546	0.567292	0.029599
H486	H	0.930546	1.067292	0.529599
H487	H	0.430566	0.567283	-0.029588
H488	H	0.930566	1.067283	0.470412
C489	C	0.433668	0.442022	0.000028
C490	C	0.933668	0.942022	0.500028
H491	H	0.407193	0.460631	0.000029
H492	H	0.907193	0.960631	0.500029
H493	H	0.432033	0.422097	-0.029560
H494	H	0.932033	0.922097	0.470440
H495	H	0.432031	0.422107	0.029627
H496	H	0.932031	0.922107	0.529627
C497	C	0.500964	-0.131284	0.230331
C498	C	1.000964	0.368716	0.730331
H499	H	0.481234	-0.150992	0.206776
H500	H	0.981234	0.349008	0.706776
H501	H	0.518177	-0.151291	0.251183
H502	H	1.018177	0.348709	0.751183
H503	H	0.480980	-0.114010	0.251152
H504	H	0.980980	0.385990	0.751152
C505	C	0.640073	0.007725	0.118143
C506	C	1.140073	0.507725	0.618143
H507	H	0.659792	0.027444	0.141698
H508	H	1.159792	0.527444	0.641698
H509	H	0.660064	-0.009520	0.097305
H510	H	1.160064	0.490480	0.597305
H511	H	0.622832	0.027726	0.097308
H512	H	1.122832	0.527726	0.597308
H513	H	0.694301	0.485260	0.000062
H514	H	1.194301	0.985260	0.500062
H515	H	0.630615	-0.001719	0.222669
H516	H	1.130615	0.498281	0.722669
C517	C	0.640104	0.007765	0.881962
C518	C	1.140104	0.507765	1.381962
H519	H	0.635357	0.003024	0.917599
H520	H	1.135357	0.503024	1.417599
H521	H	0.672328	0.002752	0.873210
H522	H	1.172328	0.502752	1.373210
H523	H	0.635088	0.039990	0.873210
H524	H	1.135088	0.539990	1.373210
H525	H	0.663743	0.031400	0.628615
H526	H	1.163743	0.531400	1.128615
H527	H	0.510483	-0.121820	0.874340
H528	H	1.010483	0.378180	1.374340
C529	C	0.501010	-0.131281	0.769818
C530	C	1.001010	0.368719	1.269818
H531	H	0.481296	-0.150996	0.793381
H532	H	0.981296	0.349004	1.293381
H533	H	0.481014	-0.114040	0.748982
H534	H	0.981014	0.385960	1.248982
H535	H	0.518249	-0.151284	0.748981
H536	H	1.018249	0.348716	1.248981
H537	H	0.477329	-0.154926	0.468387
H538	H	0.977329	0.345074	0.968387
H539	H	0.663743	0.031398	0.531712
H540	H	1.163743	0.531398	1.031712
C541	C	0.467880	-0.164373	0.636262
C542	C	0.967880	0.335627	1.136262
H543	H	0.448155	-0.184083	0.612705
H544	H	0.948155	0.315917	1.112705
H545	H	0.485109	-0.184375	0.657102
H546	H	0.985109	0.315625	1.157102
H547	H	0.447889	-0.147118	0.657095
H548	H	0.947889	0.352882	1.157095
H549	H	0.423791	-0.065410	0.083970
H550	H	0.923791	0.434590	0.583970
