data_functionalizedCrystal
_audit_creation_method	'MofGen! by Chris Wilmer'
_symmetry_space_group_name_H-M	'P1'
_symmetry_Int_Tables_number	1
_symmetry_cell_setting	triclinic
loop_
_symmetry_equiv_pos_as_xyz
  x,y,z
_cell_length_a	6.817900
_cell_length_b	17.982783
_cell_length_c	10.773894
_cell_angle_alpha	96.506471
_cell_angle_beta	96.645922
_cell_angle_gamma	102.448572
loop_
_atom_site_label
_atom_site_type_symbol
_atom_site_fract_x
_atom_site_fract_y
_atom_site_fract_z
V1	V	-3.943862	-0.102609	-0.389448
O2	O	-3.938326	0.007812	-0.381502
O3	O	-3.890779	-0.206226	-0.387297
O4	O	-3.861663	-0.099766	-0.559066
O5	O	-3.967643	-0.099385	-0.208544
V6	V	-4.432476	-0.089550	-0.367748
O7	O	-4.193952	-0.131253	-0.437049
O8	O	-4.632583	-0.060906	-0.320148
O9	O	-4.262353	0.014067	-0.369899
O10	O	-4.555409	-0.199971	-0.375695
O11	O	-4.526092	-0.092774	-0.548653
O12	O	-4.291468	-0.092393	-0.198130
C13	C	-3.735734	-0.231526	-0.381286
C14	C	-3.773394	-0.316226	-0.380657
C15	C	-3.774193	-0.345961	-0.266076
C16	C	-3.809597	-0.425547	-0.265490
C17	C	-3.844188	-0.475397	-0.379487
C18	C	-3.843394	-0.445657	-0.494077
C19	C	-3.808004	-0.366073	-0.494662
C20	C	-3.986119	-0.766612	-0.491720
C21	C	-4.021504	-0.846201	-0.491126
C22	C	-3.987712	-0.826086	-0.262548
C23	C	-3.952322	-0.746502	-0.263133
C24	C	-3.951542	-0.716770	-0.377723
C25	C	-3.913156	-0.630473	-0.378357
C26	C	-3.882559	-0.561691	-0.378853
C27	C	-3.698594	-0.095724	-0.600393
C28	C	-3.712640	-0.094086	-0.739060
C29	C	-3.890586	-0.096925	-0.806936
C30	C	-3.905108	-0.095232	-0.950255
C31	C	-4.080740	0.039362	-0.375907
C32	C	-4.022317	0.124062	-0.376544
C33	C	-4.117881	-0.096437	-0.156797
C34	C	-4.083074	-0.098072	-0.018129
H35	H	-3.924148	-0.705917	-0.170305
H36	H	-4.224686	-0.101760	-0.970145
H37	H	-3.810250	-0.449753	-0.172186
H38	H	-3.571042	-0.090396	-0.787051
O39	O	-3.876942	-0.494185	-0.604698
C40	C	-3.908393	-0.570806	-0.579616
H41	H	-3.835957	-0.571702	-0.479144
H42	H	-3.836397	-0.605431	-0.649061
H43	H	-4.078252	-0.597243	-0.590363
O44	O	-4.059515	-0.101187	-0.749718
C45	C	-4.141207	-0.036944	-0.768120
H46	H	-4.017174	0.011925	-0.788237
H47	H	-4.203712	-0.017448	-0.679464
H48	H	-4.268789	-0.053358	-0.851537
H49	H	-3.988358	-0.850304	-0.169243
H50	H	-4.049671	-0.886788	-0.583962
O51	O	-3.736038	-0.090699	-1.007399
C52	C	-3.591298	-0.022631	-0.954496
H53	H	-3.671254	0.020994	-0.910257
H54	H	-3.507630	0.002294	-1.031570
H55	H	-3.477970	-0.036138	-0.878884
O56	O	-3.740964	-0.297577	-0.155319
C57	C	-3.910988	-0.314565	-0.091573
H58	H	-4.050575	-0.344874	-0.162437
H59	H	-3.937686	-0.258889	-0.042111
H60	H	-3.882191	-0.353666	-0.018625
O61	O	-3.985664	-0.737838	-0.603121
C62	C	-4.176269	-0.767038	-0.678423
H63	H	-4.254385	-0.823172	-0.647460
H64	H	-4.154327	-0.778152	-0.781623
H65	H	-4.274222	-0.723405	-0.667077
O66	O	-3.807205	-0.337312	-0.606076
C67	C	-3.845373	-0.398375	-0.706570
H68	H	-3.802888	-0.450826	-0.670481
H69	H	-3.750740	-0.380370	-0.783351
H70	H	-4.013349	-0.413306	-0.747140
