data_functionalizedCrystal
_audit_creation_method	'MofGen! by Chris Wilmer'
_symmetry_space_group_name_H-M	'P1'
_symmetry_Int_Tables_number	1
_symmetry_cell_setting	triclinic
loop_
_symmetry_equiv_pos_as_xyz
  x,y,z
_cell_length_a	10.654541
_cell_length_b	14.971486
_cell_length_c	13.448316
_cell_angle_alpha	90.006811
_cell_angle_beta	90.005395
_cell_angle_gamma	84.049029
loop_
_atom_site_label
_atom_site_type_symbol
_atom_site_fract_x
_atom_site_fract_y
_atom_site_fract_z
O1	O	-1.666500	-0.125623	-0.082662
O2	O	-1.300893	-0.137595	-0.082671
O3	O	-1.493496	-0.001462	-0.082659
O4	O	-1.473897	-0.261756	-0.082674
O5	O	-1.493471	-0.001453	0.082725
O6	O	-1.300868	-0.137586	0.082713
O7	O	-1.666476	-0.125614	0.082722
Cu8	Cu	-1.483670	-0.131599	0.097818
Cu9	Cu	-1.483699	-0.131610	-0.097767
O10	O	-1.473873	-0.261747	0.082710
C11	C	-1.254092	-0.136712	0.000020
C12	C	-1.114677	-0.134083	0.000017
C13	C	-1.492607	0.031872	0.000033
C14	C	-1.489980	0.131183	0.000032
C15	C	-1.713277	-0.126497	0.000029
C16	C	-1.852692	-0.129126	0.000025
C17	C	-1.084959	-0.296867	-0.000005
C18	C	-1.004605	-0.377020	-0.000019
C19	C	-0.873614	-0.374544	-0.000020
C20	C	-0.822975	-0.291907	-0.000003
C21	C	-0.903329	-0.211754	0.000012
C22	C	-1.034322	-0.214238	0.000009
C23	C	-0.933046	-0.048973	0.000040
C24	C	-1.064038	-0.051446	0.000034
C25	C	-0.882407	0.033665	0.000057
C26	C	-0.962762	0.113820	0.000065
C27	C	-1.093761	0.111341	0.000064
C28	C	-1.144392	0.028707	0.000049
C29	C	-1.474761	-0.295081	0.000016
C30	C	-1.477388	-0.394392	0.000011
N31	N	-1.483659	-0.131592	0.235383
C32	C	-1.603129	0.187793	0.000035
C33	C	-1.600654	0.281106	0.000025
C34	C	-1.485028	0.317807	0.000019
C35	C	-1.371871	0.261190	0.000012
C36	C	-1.374347	0.167879	0.000015
C37	C	-1.366716	0.455680	0.000008
C38	C	-1.364239	0.548998	0.000007
C39	C	-1.593023	0.568908	0.000018
C40	C	-1.595500	0.475597	0.000021
C41	C	-1.482341	0.418986	0.000017
N42	N	-1.483719	-0.131610	-0.235331
C43	C	-1.568970	-0.071337	0.287428
C44	C	-1.568978	-0.071337	0.391531
C45	C	-1.483680	-0.131595	0.443587
C46	C	-1.398359	-0.191853	0.391534
C47	C	-1.398347	-0.191848	0.287433
C48	C	-1.398394	-0.191859	0.608514
C49	C	-1.398408	-0.191865	0.712623
C50	C	-1.569026	-0.071347	0.712613
C51	C	-1.569013	-0.071343	0.608511
C52	C	-1.483694	-0.131601	0.556466
H53	H	-1.191618	-0.298890	-0.000026
H54	H	-0.716314	-0.289899	0.000008
C55	C	-1.662832	-0.005065	0.448777
H56	H	-1.713643	0.030813	0.402865
H57	H	-1.617624	0.032473	0.489404
H58	H	-1.715154	-0.037603	0.489369
C59	C	-1.662806	-0.005060	0.230171
H60	H	-1.650593	-0.013693	0.160717
H61	H	-1.649096	0.054729	0.247242
H62	H	-1.746632	-0.015342	0.247222
H63	H	-1.328948	-0.240932	0.755002
H64	H	-1.270086	0.578876	0.000018
C65	C	-1.730316	0.147426	0.000045
H66	H	-1.715590	0.083746	0.000056
H67	H	-1.776922	0.166803	-0.057626
H68	H	-1.776897	0.166819	0.057728
H69	H	-1.251050	0.026681	0.000037
H70	H	-1.638475	-0.022280	0.566128
C71	C	-1.662877	-0.005062	0.769854
H72	H	-1.713687	0.030817	0.723941
H73	H	-1.617665	0.032475	0.810478
H74	H	-1.715201	-0.037596	0.810448
H75	H	-0.921520	0.181096	0.000078
H76	H	-1.692792	0.327195	0.000030
C77	C	-1.304551	-0.258146	0.551266
H78	H	-1.253761	-0.294042	0.597176
H79	H	-1.252224	-0.225627	0.510667
H80	H	-1.349787	-0.295679	0.510646
H81	H	-1.045850	-0.444302	-0.000030
H82	H	-1.689652	0.445719	0.000034
H83	H	-1.328902	-0.240913	0.433924
C84	C	-1.304510	-0.258128	0.230178
H85	H	-1.316710	-0.249490	0.160724
H86	H	-1.318230	-0.317917	0.247223
H87	H	-1.220685	-0.247852	0.247255
C88	C	-0.785222	-0.462710	-0.000042
H89	H	-0.834136	-0.512280	-0.000059
H90	H	-0.733490	-0.465129	0.057626
H91	H	-0.733521	-0.465117	-0.057727
H92	H	-0.775746	0.035674	0.000062
C93	C	-1.242245	0.393410	0.000005
H94	H	-1.173027	0.428630	0.000011
H95	H	-1.238461	0.356586	-0.057665
H96	H	-1.238451	0.356605	0.057688
C97	C	-1.182141	0.199511	0.000075
H98	H	-1.133217	0.249076	0.000077
H99	H	-1.233859	0.201930	0.057744
H100	H	-1.233857	0.201930	-0.057609
H101	H	-1.685161	0.615006	0.000019
H102	H	-1.277726	0.291079	0.000001
H103	H	-1.282210	0.121787	0.000012
