data_functionalizedCrystal
_audit_creation_method	'MofGen! by Chris Wilmer'
_symmetry_space_group_name_H-M	'P1'
_symmetry_Int_Tables_number	1
_symmetry_cell_setting	triclinic
loop_
_symmetry_equiv_pos_as_xyz
  x,y,z
_cell_length_a	10.686285
_cell_length_b	11.169417
_cell_length_c	10.686551
_cell_angle_alpha	85.606327
_cell_angle_beta	80.915481
_cell_angle_gamma	85.632710
loop_
_atom_site_label
_atom_site_type_symbol
_atom_site_fract_x
_atom_site_fract_y
_atom_site_fract_z
Zn1	Zn	-0.450141	1.917381	-0.678937
Zn2	Zn	0.049859	2.417381	-0.178937
Zn3	Zn	-0.678721	1.917284	-0.450435
Zn4	Zn	-0.178721	2.417284	0.049565
Zn5	Zn	-0.466497	1.702372	-0.466707
Zn6	Zn	0.033503	2.202372	0.033293
Zn7	Zn	-0.662340	1.730979	-0.662645
Zn8	Zn	-0.162340	2.230979	-0.162645
O9	O	-0.564425	1.817004	-0.564681
O10	O	-0.064425	2.317004	-0.064681
O11	O	-0.480473	2.085319	-0.648634
O12	O	0.019527	2.585319	-0.148634
O13	O	-0.664270	1.876762	-0.274963
O14	O	-0.164270	2.376762	0.225037
O15	O	-0.286705	1.718961	-0.508488
O16	O	0.213295	2.218961	-0.008488
O17	O	-0.648410	2.085247	-0.480754
O18	O	-0.148410	2.585247	0.019246
O19	O	-0.274688	1.876928	-0.664413
O20	O	0.225312	2.376928	-0.164413
O21	O	-0.508350	1.718867	-0.286918
O22	O	-0.008350	2.218867	0.213082
O23	O	-0.492466	1.538216	-0.492690
O24	O	0.007534	2.038216	0.007310
O25	O	-0.620491	1.767719	-0.842436
O26	O	-0.120491	2.267719	-0.342436
O27	O	-0.636351	1.559233	-0.636645
O28	O	-0.136351	2.059233	-0.136645
O29	O	-0.464589	1.904667	-0.854406
O30	O	0.035411	2.404667	-0.354406
O31	O	-0.854171	1.904502	-0.464957
O32	O	-0.354171	2.404502	0.035043
O33	O	-0.842136	1.767624	-0.620867
O34	O	-0.342136	2.267624	-0.120867
C35	C	-0.564407	1.505177	-0.564666
C36	C	-0.064407	2.005177	-0.064666
C37	C	-0.564428	1.371780	-0.564688
C38	C	-0.064428	1.871780	-0.064688
C39	C	-0.894207	1.839191	-0.539406
C40	C	-0.394207	2.339191	-0.039406
C41	C	-1.035285	1.848796	-0.528635
C42	C	-0.535285	2.348796	-0.028635
C43	C	-0.233354	1.794764	-0.590083
C44	C	0.266646	2.294764	-0.090083
C45	C	-0.092271	1.785287	-0.600907
C46	C	0.407729	2.285287	-0.100907
C47	C	-0.564444	2.130049	-0.564697
C48	C	-0.064444	2.630049	-0.064697
C49	C	-0.564452	2.263450	-0.564703
C50	C	-0.064452	2.763450	-0.064703
C51	C	-0.538889	1.839395	-0.895766
C52	C	-0.038889	2.339395	-0.395766
C53	C	-0.528006	1.848936	-1.036855
C54	C	-0.028006	2.348936	-0.536855
C55	C	-0.589771	1.794763	-0.234891
C56	C	-0.089771	2.294763	0.265109
C57	C	-0.600295	1.785430	-0.093830
C58	C	-0.100295	2.285430	0.406170
H59	H	-1.033130	1.723568	-0.671024
H60	H	-0.533130	2.223568	-0.171024
H61	H	-1.094435	1.910510	-0.458506
H62	H	-0.594435	2.410510	0.041494
C63	C	-0.695148	1.702113	-1.013920
C64	C	-0.195148	2.202113	-0.513920
H65	H	-0.690257	1.706406	-0.926396
H66	H	-0.190257	2.206406	-0.426396
H67	H	-0.778781	1.726849	-1.029041
H68	H	-0.278781	2.226849	-0.529041
H69	H	-0.674903	1.621669	-1.037007
H70	H	-0.174903	2.121669	-0.537007
H71	H	-0.457793	1.910616	-1.096020
H72	H	0.042207	2.410616	-0.596020
