data_functionalizedCrystal
_audit_creation_method	'MofGen! by Chris Wilmer'
_symmetry_space_group_name_H-M	'P1'
_symmetry_Int_Tables_number	1
_symmetry_cell_setting	triclinic
loop_
_symmetry_equiv_pos_as_xyz
  x,y,z
_cell_length_a	10.489716
_cell_length_b	14.519709
_cell_length_c	13.596369
_cell_angle_alpha	90.006934
_cell_angle_beta	89.995062
_cell_angle_gamma	95.895360
loop_
_atom_site_label
_atom_site_type_symbol
_atom_site_fract_x
_atom_site_fract_y
_atom_site_fract_z
O1	O	1.692718	-0.130008	-0.081786
O2	O	1.321391	-0.142245	-0.081790
O3	O	1.516900	-0.001941	-0.081779
O4	O	1.497209	-0.270312	-0.081797
O5	O	1.516880	-0.001934	0.081804
O6	O	1.321371	-0.142238	0.081793
O7	O	1.692699	-0.130001	0.081797
Zn8	Zn	1.507032	-0.136118	0.107767
Zn9	Zn	1.507057	-0.136128	-0.107760
O10	O	1.497190	-0.270305	0.081786
C11	C	1.273858	-0.141322	0.000001
C12	C	1.132256	-0.138571	0.000000
C13	C	1.033685	-0.224610	-0.000008
C14	C	0.956804	-0.179142	0.080654
C15	C	0.956830	-0.179129	-0.080626
C16	C	1.057240	-0.093139	0.080729
C17	C	1.057271	-0.093139	-0.080623
C18	C	0.980439	-0.047607	0.000059
C19	C	1.515972	0.032427	0.000013
C20	C	1.513222	0.134823	0.000013
C21	C	1.740231	-0.130924	0.000004
C22	C	1.881833	-0.133675	-0.000001
C23	C	1.498117	-0.304673	-0.000008
C24	C	1.500867	-0.407069	-0.000015
N25	N	1.507024	-0.136111	0.254859
C26	C	1.503099	0.509774	-0.000012
C27	C	1.505910	0.405450	-0.000005
C28	C	1.508160	0.322302	0.000001
C29	C	1.510972	0.217972	0.000007
N30	N	1.507076	-0.136128	-0.254852
C31	C	1.507056	-0.136129	0.656150
C32	C	1.507043	-0.136127	0.544499
C33	C	1.507040	-0.136120	0.455508
C34	C	1.507026	-0.136117	0.343850
H35	H	0.912975	-0.215470	-0.148809
C36	C	0.897525	-0.228199	0.172768
C37	C	0.823196	-0.174190	0.247167
C38	C	0.763920	-0.223254	0.339276
C39	C	0.778972	-0.326328	0.356986
C40	C	0.853304	-0.380344	0.282586
C41	C	0.912580	-0.331280	0.190477
H42	H	0.812051	-0.097882	0.234058
H43	H	0.708895	-0.183267	0.394352
H44	H	0.735092	-0.362649	0.425171
H45	H	0.864449	-0.456651	0.295695
H46	H	0.967605	-0.371266	0.135401
H47	H	1.100926	-0.056836	0.148990
H48	H	0.956789	0.027288	0.000110
C49	C	1.116580	-0.044120	-0.172742
C50	C	1.076632	-0.080289	-0.275849
C51	C	1.135943	-0.031279	-0.367977
C52	C	1.235201	0.053898	-0.356997
C53	C	1.275155	0.090071	-0.253885
C54	C	1.215844	0.041062	-0.161758
H55	H	1.003150	-0.143346	-0.283981
H56	H	1.106366	-0.058057	-0.444307
H57	H	1.279107	0.090178	-0.425196
H58	H	1.348636	0.153129	-0.245754
H59	H	1.245420	0.067840	-0.085427
C60	C	1.065983	-0.325708	0.000086
C61	C	1.145458	-0.361267	0.084622
C62	C	1.177758	-0.462362	0.084722
C63	C	1.130583	-0.527898	0.000286
C64	C	1.051103	-0.492339	-0.084256
C65	C	1.018803	-0.391245	-0.084356
H66	H	1.180384	-0.312753	0.147132
H67	H	1.236595	-0.488684	0.147306
H68	H	1.154493	-0.602734	0.000360
H69	H	1.016176	-0.540854	-0.146766
H70	H	0.959966	-0.364922	-0.146940
