data_functionalizedCrystal
_audit_creation_method	'MofGen! by Chris Wilmer'
_symmetry_space_group_name_H-M	'P1'
_symmetry_Int_Tables_number	1
_symmetry_cell_setting	triclinic
loop_
_symmetry_equiv_pos_as_xyz
  x,y,z
_cell_length_a	10.540554
_cell_length_b	9.616153
_cell_length_c	14.519709
_cell_angle_alpha	90.003203
_cell_angle_beta	95.894283
_cell_angle_gamma	89.995272
loop_
_atom_site_label
_atom_site_type_symbol
_atom_site_fract_x
_atom_site_fract_y
_atom_site_fract_z
O1	O	-1.684554	0.115580	0.130026
O2	O	-1.184554	0.615580	0.630026
O3	O	-1.315019	0.115598	0.142258
O4	O	-0.815019	0.615598	0.642258
O5	O	-1.509584	0.115576	0.001957
O6	O	-1.009584	0.615576	0.501957
O7	O	-1.489989	0.115602	0.270327
O8	O	-0.989989	0.615602	0.770327
O9	O	-1.509558	-0.115715	0.001960
O10	O	-1.009558	0.384285	0.501960
O11	O	-1.314992	-0.115693	0.142261
O12	O	-0.814992	0.384307	0.642261
O13	O	-1.684528	-0.115711	0.130029
O14	O	-1.184528	0.384289	0.630029
Zn15	Zn	-1.499756	-0.152425	0.136145
Zn16	Zn	-0.999756	0.347575	0.636145
Zn17	Zn	-1.499791	0.152312	0.136142
Zn18	Zn	-0.999791	0.652312	0.636142
O19	O	-1.489962	-0.115689	0.270330
O20	O	-0.989962	0.384311	0.770330
C21	C	-1.267712	-0.000045	0.141339
C22	C	-0.767712	0.499955	0.641339
C23	C	-1.126793	-0.000039	0.138587
C24	C	-0.626793	0.499961	0.638587
C25	C	-1.091169	-0.000054	0.036141
C26	C	-0.591169	0.499946	0.536141
C27	C	-0.944599	-0.000594	0.033244
C28	C	-0.444599	0.499406	0.533244
C29	C	-0.916966	-0.131873	0.185342
C30	C	-0.416966	0.368127	0.685342
C31	C	-1.063708	-0.131969	0.187529
C32	C	-0.563708	0.368031	0.687529
C33	C	-1.063607	0.131062	0.189016
C34	C	-0.563607	0.631062	0.689016
C35	C	-0.917311	0.132779	0.184271
C36	C	-0.417311	0.632779	0.684271
N37	N	-1.499741	-0.360399	0.136148
N38	N	-0.999741	0.139601	0.636148
C39	C	-1.395348	-0.580757	0.210947
C40	C	-0.895348	-0.080757	0.710947
C41	C	-1.395574	-0.419590	0.211228
C42	C	-0.895574	0.080410	0.711228
C43	C	-1.632240	-0.418853	0.158044
C44	C	-1.132240	0.081147	0.658044
C45	C	-1.631670	-0.580070	0.158573
C46	C	-1.131670	-0.080070	0.658573
C47	C	-1.472959	-0.580318	0.039206
C48	C	-0.972959	-0.080318	0.539206
C49	C	-1.469906	-0.419091	0.039834
C50	C	-0.969906	0.080909	0.539834
C51	C	-0.731837	-0.000066	0.130935
C52	C	-0.231837	0.499934	0.630935
C53	C	-0.872762	-0.000066	0.133652
C54	C	-0.372762	0.499934	0.633652
C55	C	-1.508658	-0.000070	-0.032406
C56	C	-1.008658	0.499930	0.467594
C57	C	-1.505921	-0.000070	-0.134803
C58	C	-1.005921	0.499930	0.365197
N59	N	-1.499816	0.360286	0.136132
N60	N	-0.999816	0.860286	0.636132
C61	C	-1.495846	-0.000034	-0.509753
C62	C	-0.995846	0.499966	-0.009753
C63	C	-1.498644	-0.000044	-0.405430
C64	C	-0.998644	0.499956	0.094570
C65	C	-1.500883	-0.000053	-0.322281
C66	C	-1.000883	0.499947	0.177719
C67	C	-1.503682	-0.000061	-0.217951
C68	C	-1.003682	0.499939	0.282049
C69	C	-1.490889	-0.000040	0.304694
C70	C	-0.990889	0.499960	0.804694
C71	C	-1.493625	-0.000030	0.407090
C72	C	-0.993625	0.499970	0.907090
H73	H	-1.085972	-0.137594	0.262629
H74	H	-0.585972	0.362406	0.762629
N75	N	-1.264482	-0.632161	0.193771
N76	N	-0.764482	-0.132161	0.693771
H77	H	-1.226256	-0.686561	0.249333
H78	H	-0.726256	-0.186561	0.749333
H79	H	-1.207971	-0.550127	0.183120
H80	H	-0.707971	-0.050127	0.683120
N81	N	-0.906285	0.124522	-0.020310
N82	N	-0.406285	0.624522	0.479690
H83	H	-0.932450	0.212251	0.011001
H84	H	-0.432450	0.712251	0.511001
H85	H	-0.949969	0.120610	-0.085506
H86	H	-0.449969	0.620610	0.414494
H87	H	-1.711835	-0.380509	0.105040
H88	H	-1.211835	0.119491	0.605040
N89	N	-1.147323	0.125113	-0.015982
N90	N	-0.647323	0.625113	0.484018
H91	H	-1.196402	0.183047	0.026303
H92	H	-0.696402	0.683047	0.526303
H93	H	-1.206672	0.093168	-0.070943
H94	H	-0.706672	0.593168	0.429057
N95	N	-0.876526	-0.262324	0.138367
N96	N	-0.376526	0.237676	0.638367
H97	H	-0.780582	-0.263831	0.139384
H98	H	-0.280582	0.236169	0.639384
H99	H	-0.916577	-0.263888	0.072130
H100	H	-0.416577	0.236112	0.572130
H101	H	-1.412739	-0.381004	0.283138
H102	H	-0.912739	0.118996	0.783138
N103	N	-1.737737	-0.631775	0.089211
N104	N	-1.237737	-0.131775	0.589211
H105	H	-1.700560	-0.690169	0.040770
H106	H	-1.200560	-0.190169	0.540770
H107	H	-1.784642	-0.549771	0.058482
H108	H	-1.284642	-0.049771	0.558482
H109	H	-1.656424	-0.378457	0.227959
H110	H	-1.156424	0.121543	0.727959
N111	N	-0.853228	-0.137875	0.283264
N112	N	-0.353228	0.362125	0.783264
H113	H	-0.801704	-0.226296	0.292149
H114	H	-0.301704	0.273704	0.792149
H115	H	-0.920396	-0.136280	0.328104
H116	H	-0.420396	0.363720	0.828104
N117	N	-1.120254	0.263460	0.146670
N118	N	-0.620254	0.763460	0.646670
H119	H	-1.160337	0.318595	0.195334
H120	H	-0.660337	0.818595	0.695334
H121	H	-1.187418	0.239689	0.094354
H122	H	-0.687418	0.739689	0.594354
H123	H	-1.412285	-0.621250	0.282451
H124	H	-0.912285	-0.121250	0.782451
N125	N	-0.879953	0.261955	0.134451
N126	N	-0.379953	0.761955	0.634451
H127	H	-0.834359	0.234552	0.079323
H128	H	-0.334359	0.734552	0.579323
H129	H	-0.821527	0.320788	0.178050
H130	H	-0.321527	0.820788	0.678050
H131	H	-0.867516	0.141155	0.257551
H132	H	-0.367516	0.641155	0.757551
H133	H	-1.378435	-0.621053	0.018367
H134	H	-0.878435	-0.121053	0.518367
N135	N	-1.662974	-0.629867	0.252239
N136	N	-1.162974	-0.129867	0.752239
H137	H	-1.677011	-0.547092	0.292797
H138	H	-1.177011	-0.047092	0.792797
H139	H	-1.589895	-0.687550	0.282066
H140	H	-1.089895	-0.187550	0.782066
H141	H	-1.372437	-0.380888	0.023237
H142	H	-0.872437	0.119112	0.523237
H143	H	-1.541028	-0.378805	-0.018515
H144	H	-1.041028	0.121195	0.481485
N145	N	-1.573847	-0.630814	-0.034569
N146	N	-1.073847	-0.130814	0.465431
H147	H	-1.660473	-0.598185	-0.019602
H148	H	-1.160473	-0.098185	0.480398
H149	H	-1.572459	-0.735771	-0.036812
H150	H	-1.072459	-0.235771	0.463188
N151	N	-1.091970	0.132774	0.288857
N152	N	-0.591970	0.632774	0.788857
H153	H	-1.145479	0.049087	0.301401
H154	H	-0.645479	0.549087	0.801401
H155	H	-1.140057	0.220519	0.301271
H156	H	-0.640057	0.720519	0.801271
N157	N	-1.265113	-0.367250	0.193798
N158	N	-0.765113	0.132750	0.693798
H159	H	-1.228650	-0.309090	0.248108
H160	H	-0.728650	0.190910	0.748108
H161	H	-1.272422	-0.308756	0.135725
H162	H	-0.772422	0.191244	0.635725
N163	N	-1.149236	-0.125077	-0.015101
N164	N	-0.649236	0.374923	0.484899
H165	H	-1.198517	-0.181705	0.027758
H166	H	-0.698517	0.318295	0.527758
H167	H	-1.079252	-0.184069	-0.037423
H168	H	-0.579252	0.315931	0.462577
N169	N	-1.117388	-0.262989	0.141303
N170	N	-0.617388	0.237011	0.641303
H171	H	-1.045694	-0.320137	0.119698
H172	H	-0.545694	0.179863	0.619698
H173	H	-1.179770	-0.237572	0.086395
H174	H	-0.679770	0.262428	0.586395
N175	N	-0.907418	-0.126499	-0.020029
N176	N	-0.407418	0.373501	0.479971
H177	H	-0.951205	-0.122777	-0.085203
H178	H	-0.451205	0.377223	0.414797
H179	H	-0.934198	-0.213646	0.011632
H180	H	-0.434198	0.286354	0.511632
