data_functionalizedCrystal
_audit_creation_method	'MofGen! by Chris Wilmer'
_symmetry_space_group_name_H-M	'P1'
_symmetry_Int_Tables_number	1
_symmetry_cell_setting	triclinic
loop_
_symmetry_equiv_pos_as_xyz
  x,y,z
_cell_length_a	21.395364
_cell_length_b	19.120786
_cell_length_c	21.395355
_cell_angle_alpha	92.459295
_cell_angle_beta	90.024552
_cell_angle_gamma	92.480057
loop_
_atom_site_label
_atom_site_type_symbol
_atom_site_fract_x
_atom_site_fract_y
_atom_site_fract_z
Zn1	Zn	0.947247	-0.279432	0.343622
Zn2	Zn	1.197247	-0.029432	0.593622
Zn3	Zn	1.447247	0.220568	0.843622
Zn4	Zn	1.697247	0.470568	1.093622
Zn5	Zn	0.942690	-0.396873	0.234373
Zn6	Zn	1.192690	-0.146873	0.484373
Zn7	Zn	1.442690	0.103127	0.734373
Zn8	Zn	1.692690	0.353127	0.984373
Zn9	Zn	0.842461	-0.279463	0.238857
Zn10	Zn	1.092461	-0.029463	0.488857
Zn11	Zn	1.342461	0.220537	0.738857
Zn12	Zn	1.592461	0.470537	0.988857
Zn13	Zn	0.837971	-0.396885	0.339112
Zn14	Zn	1.087971	-0.146885	0.589112
Zn15	Zn	1.337971	0.103115	0.839112
Zn16	Zn	1.587971	0.353115	1.089112
O17	O	0.892592	-0.338163	0.288991
O18	O	1.142592	-0.088163	0.538991
O19	O	1.392592	0.161837	0.788991
O20	O	1.642592	0.411837	1.038991
O21	O	1.034321	-0.294993	0.329140
O22	O	1.284321	-0.044993	0.579140
O23	O	1.534321	0.205007	0.829140
O24	O	1.784321	0.455007	1.079140
O25	O	0.929366	-0.381306	0.147289
O26	O	1.179366	-0.131306	0.397289
O27	O	1.429366	0.118694	0.647289
O28	O	1.679366	0.368694	0.897289
O29	O	0.860148	-0.181168	0.256519
O30	O	1.110148	0.068832	0.506519
O31	O	1.360148	0.318832	0.756519
O32	O	1.610148	0.568832	1.006519
O33	O	1.030973	-0.381276	0.248875
O34	O	1.280973	-0.131276	0.498875
O35	O	1.530973	0.118724	0.748875
O36	O	1.780973	0.368724	0.998875
O37	O	0.937134	-0.181146	0.333489
O38	O	1.187134	0.068854	0.583489
O39	O	1.437134	0.318854	0.833489
O40	O	1.687134	0.568854	1.083489
O41	O	0.855728	-0.295045	0.150584
O42	O	1.105728	-0.045045	0.400584
O43	O	1.355728	0.204955	0.650584
O44	O	1.605728	0.454955	0.900584
O45	O	0.754187	-0.295057	0.252146
O46	O	1.004187	-0.045057	0.502146
O47	O	1.254187	0.204943	0.752146
O48	O	1.504187	0.454943	1.002146
O49	O	0.852495	-0.381297	0.427389
O50	O	1.102495	-0.131297	0.677389
O51	O	1.352495	0.118703	0.927389
O52	O	1.602495	0.368703	1.177389
O53	O	0.750888	-0.381327	0.325803
O54	O	1.000888	-0.131327	0.575803
O55	O	1.250888	0.118673	0.825803
O56	O	1.500888	0.368673	1.075803
O57	O	0.932780	-0.295005	0.430702
O58	O	1.182780	-0.045005	0.680702
O59	O	1.432780	0.204995	0.930702
O60	O	1.682780	0.454995	1.180702
O61	O	0.925012	-0.495165	0.244503
O62	O	1.175012	-0.245165	0.494503
O63	O	1.425012	0.004835	0.744503
O64	O	1.675012	0.254835	0.994503
O65	O	0.848076	-0.495174	0.321454
O66	O	1.098076	-0.245174	0.571454
O67	O	1.348076	0.004826	0.821454
O68	O	1.598076	0.254826	1.071454
C69	C	0.729803	-0.338197	0.288972
C70	C	0.979803	-0.088197	0.538972
C71	C	1.229803	0.161803	0.788972
C72	C	1.479803	0.411803	1.038972
C73	C	0.660161	-0.338229	0.288978
C74	C	0.910161	-0.088229	0.538978
C75	C	1.160161	0.161771	0.788978
C76	C	1.410161	0.411771	1.038978
C77	C	0.629211	-0.293375	0.330831
C78	C	0.879211	-0.043375	0.580831
C79	C	1.129211	0.206625	0.830831
C80	C	1.379211	0.456625	1.080831
C81	C	0.563776	-0.293356	0.330835
C82	C	0.813776	-0.043356	0.580835
C83	C	1.063776	0.206644	0.830835
C84	C	1.313776	0.456644	1.080835
C85	C	0.529294	-0.338204	0.288991
C86	C	0.779294	-0.088204	0.538991
C87	C	1.029294	0.161796	0.788991
C88	C	1.279294	0.411796	1.038991
C89	C	0.560251	-0.383061	0.247130
C90	C	0.810251	-0.133061	0.497130
C91	C	1.060251	0.116939	0.747130
C92	C	1.310251	0.366939	0.997130
C93	C	0.625685	-0.383074	0.247124
C94	C	0.875685	-0.133074	0.497124
C95	C	1.125685	0.116926	0.747124
C96	C	1.375685	0.366926	0.997124
C97	C	0.423167	-0.401459	0.281545
C98	C	0.673167	-0.151459	0.531545
C99	C	0.923167	0.098541	0.781545
C100	C	1.173167	0.348541	1.031545
C101	C	0.357734	-0.401447	0.281555
C102	C	0.607734	-0.151447	0.531555
C103	C	0.857734	0.098553	0.781555
C104	C	1.107734	0.348553	1.031555
C105	C	0.327474	-0.338165	0.289006
C106	C	0.577474	-0.088165	0.539006
C107	C	0.827474	0.161835	0.789006
C108	C	1.077474	0.411835	1.039006
C109	C	0.362655	-0.274893	0.296460
C110	C	0.612655	-0.024893	0.546460
C111	C	0.862655	0.225107	0.796460
C112	C	1.112655	0.475107	1.046460
C113	C	0.428088	-0.274905	0.296454
C114	C	0.678088	-0.024905	0.546454
C115	C	0.928088	0.225095	0.796454
C116	C	1.178088	0.475095	1.046454
C117	C	0.458341	-0.338195	0.288992
C118	C	0.708341	-0.088195	0.538992
C119	C	0.958341	0.161805	0.788992
C120	C	1.208341	0.411805	1.038992
C121	C	0.225573	-0.293287	0.330865
C122	C	0.475573	-0.043287	0.580865
C123	C	0.725573	0.206713	0.830865
C124	C	0.975573	0.456713	1.080865
C125	C	0.160137	-0.293268	0.330864
C126	C	0.410137	-0.043268	0.580864
C127	C	0.660137	0.206732	0.830864
C128	C	0.910137	0.456732	1.080864
C129	C	0.156613	-0.382979	0.247162
C130	C	0.406613	-0.132979	0.497162
C131	C	0.656613	0.117021	0.747162
C132	C	0.906613	0.367021	0.997162
C133	C	0.222048	-0.382992	0.247160
C134	C	0.472048	-0.132992	0.497160
C135	C	0.722048	0.117008	0.747160
C136	C	0.972048	0.367008	0.997160
C137	C	0.256524	-0.338148	0.289015
C138	C	0.506524	-0.088148	0.539015
C139	C	0.756524	0.161852	0.789015
C140	C	1.006524	0.411852	1.039015
C141	C	0.885579	-0.520655	0.282016
C142	C	1.135579	-0.270655	0.532016
C143	C	1.385579	-0.020655	0.782016
C144	C	1.635579	0.229345	1.032016
C145	C	0.882636	-0.598726	0.279053
C146	C	1.132636	-0.348726	0.529053
C147	C	1.382636	-0.098726	0.779053
C148	C	1.632636	0.151274	1.029053
C149	C	0.921306	-0.635331	0.317768
C150	C	1.171306	-0.385331	0.567768
C151	C	1.421306	-0.135331	0.817768
C152	C	1.671306	0.114669	1.067768
C153	C	0.918538	-0.708687	0.314985
C154	C	1.168538	-0.458687	0.564985
C155	C	1.418538	-0.208687	0.814985
C156	C	1.668538	0.041313	1.064985
C157	C	0.877103	-0.745436	0.273484
C158	C	1.127103	-0.495436	0.523484
C159	C	1.377103	-0.245436	0.773484
C160	C	1.627103	0.004564	1.023484
C161	C	0.838429	-0.708825	0.234768
C162	C	1.088429	-0.458825	0.484768
C163	C	1.338429	-0.208825	0.734768
C164	C	1.588429	0.041175	0.984768
C165	C	0.841194	-0.635471	0.237554
C166	C	1.091194	-0.385471	0.487554
C167	C	1.341194	-0.135471	0.737554
C168	C	1.591194	0.114529	0.987554
C169	C	0.866748	-0.966923	0.263067
C170	C	1.116748	-0.716923	0.513067
C171	C	1.366748	-0.466923	0.763067
C172	C	1.616748	-0.216923	1.013067
C173	C	0.863987	-1.040282	0.260282
C174	C	1.113987	-0.790282	0.510282
C175	C	1.363987	-0.540282	0.760282
C176	C	1.613987	-0.290282	1.010282
C177	C	0.944096	-1.040139	0.340501
C178	C	1.194096	-0.790139	0.590501
C179	C	1.444096	-0.540139	0.840501
C180	C	1.694096	-0.290139	1.090501
C181	C	0.946860	-0.966783	0.343281
C182	C	1.196860	-0.716783	0.593281
C183	C	1.446860	-0.466783	0.843281
C184	C	1.696860	-0.216783	1.093281
C185	C	0.908184	-0.930179	0.304567
C186	C	1.158184	-0.680179	0.554567
C187	C	1.408184	-0.430179	0.804567
C188	C	1.658184	-0.180179	1.054567
C189	C	0.874275	-0.820417	0.270637
C190	C	1.124275	-0.570417	0.520637
C191	C	1.374275	-0.320417	0.770637
C192	C	1.624275	-0.070417	1.020637
C193	C	0.911010	-0.855199	0.307417
C194	C	1.161010	-0.605199	0.557417
C195	C	1.411010	-0.355199	0.807417
C196	C	1.661010	-0.105199	1.057417
C197	C	1.056017	-0.338129	0.289010
C198	C	1.306017	-0.088129	0.539010
C199	C	1.556017	0.161871	0.789010
C200	C	1.806017	0.411871	1.039010
C201	C	1.125659	-0.338115	0.289019
C202	C	1.375659	-0.088115	0.539019
C203	C	1.625659	0.161885	0.789019
C204	C	1.875659	0.411885	1.039019
C205	C	0.892645	-0.338149	0.452415
C206	C	1.142645	-0.088149	0.702415
C207	C	1.392645	0.161851	0.952415
C208	C	1.642645	0.411851	1.202415
C209	C	0.892667	-0.338143	0.522057
C210	C	1.142667	-0.088143	0.772057
C211	C	1.392667	0.161857	1.022057
C212	C	1.642667	0.411857	1.272057
C213	C	0.899650	-0.154959	0.296007
C214	C	1.149650	0.095041	0.546007
C215	C	1.399650	0.345041	0.796007
C216	C	1.649650	0.595041	1.046007
C217	C	0.902657	-0.076888	0.298997
C218	C	1.152657	0.173112	0.548997
C219	C	1.402657	0.423112	0.798997
C220	C	1.652657	0.673112	1.048997
C221	C	0.892578	-0.338127	0.126205
C222	C	1.142578	-0.088127	0.376205
C223	C	1.392578	0.161873	0.626205
C224	C	1.642578	0.411873	0.876205
C225	C	0.892684	-0.337935	0.056571
C226	C	1.142684	-0.087935	0.306571
C227	C	1.392684	0.162065	0.556571
C228	C	1.642684	0.412065	0.806571
C229	C	0.934470	-0.293209	0.556496
C230	C	1.184470	-0.043209	0.806496
C231	C	1.434470	0.206791	1.056496
C232	C	1.684470	0.456791	1.306496
C233	C	0.934470	-0.293179	0.621932
C234	C	1.184470	-0.043179	0.871932
C235	C	1.434470	0.206821	1.121932
C236	C	1.684470	0.456821	1.371932
C237	C	0.892674	-0.338095	0.652927
C238	C	1.142674	-0.088095	0.902927
C239	C	1.392674	0.161905	1.152927
C240	C	1.642674	0.411905	1.402927
C241	C	0.850863	-0.383032	0.618479
C242	C	1.100863	-0.133032	0.868479
C243	C	1.350863	0.116968	1.118479
C244	C	1.600863	0.366968	1.368479
C245	C	0.850860	-0.383056	0.553044
C246	C	1.100860	-0.133056	0.803044
C247	C	1.350860	0.116944	1.053044
C248	C	1.600860	0.366944	1.303044
C249	C	0.885296	-0.401340	0.754184
C250	C	1.135296	-0.151340	1.004184
C251	C	1.385296	0.098660	1.254184
C252	C	1.635296	0.348660	1.504184
C253	C	0.885304	-0.401318	0.819618
C254	C	1.135304	-0.151318	1.069618
C255	C	1.385304	0.098682	1.319618
C256	C	1.635304	0.348682	1.569618
C257	C	0.892681	-0.338021	0.854750
C258	C	1.142681	-0.088021	1.104750
C259	C	1.392681	0.161979	1.354750
C260	C	1.642681	0.411979	1.604750
C261	C	0.900063	-0.274745	0.824441
C262	C	1.150063	-0.024745	1.074441
C263	C	1.400063	0.225255	1.324441
C264	C	1.650063	0.475255	1.574441
C265	C	0.900060	-0.274769	0.759006
C266	C	1.150060	-0.024769	1.009006
C267	C	1.400060	0.225231	1.259006
C268	C	1.650060	0.475231	1.509006
C269	C	0.892673	-0.338074	0.723880
C270	C	1.142673	-0.088074	0.973880
C271	C	1.392673	0.161926	1.223880
C272	C	1.642673	0.411926	1.473880
C273	C	0.934486	-0.293050	0.960144
C274	C	1.184486	-0.043050	1.210144
C275	C	1.434486	0.206950	1.460144
C276	C	1.684486	0.456950	1.710144
C277	C	0.934482	-0.293019	1.025582
C278	C	1.184482	-0.043019	1.275582
C279	C	1.434482	0.206981	1.525582
C280	C	1.684482	0.456981	1.775582
C281	C	0.850878	-0.382879	1.022127
C282	C	1.100878	-0.132879	1.272127
C283	C	1.350878	0.117121	1.522127
C284	C	1.600878	0.367121	1.772127
C285	C	0.850879	-0.382904	0.956691
C286	C	1.100879	-0.132904	1.206691
C287	C	1.350879	0.117096	1.456691
C288	C	1.600879	0.367096	1.706691
C289	C	0.892686	-0.337991	0.925703
C290	C	1.142686	-0.087991	1.175703
C291	C	1.392686	0.162009	1.425703
C292	C	1.642686	0.412009	1.675703
H293	H	0.134939	-0.256738	0.364945
H294	H	0.384939	-0.006738	0.614945
H295	H	0.634939	0.243262	0.864945
H296	H	0.884939	0.493262	1.114945
O297	O	0.908018	-0.206528	0.726312
O298	O	1.158018	0.043472	0.976312
O299	O	1.408018	0.293472	1.226312
O300	O	1.658018	0.543472	1.476312
H301	H	0.913146	-0.162506	0.761729
H302	H	1.163146	0.087494	1.011729
H303	H	1.413146	0.337494	1.261729
H304	H	1.663146	0.587494	1.511729
H305	H	0.980600	-0.936864	0.377074
H306	H	1.230600	-0.686864	0.627074
H307	H	1.480600	-0.436864	0.877074
H308	H	1.730600	-0.186864	1.127074
H309	H	0.816841	-0.419444	1.047362
H310	H	1.066841	-0.169444	1.297362
H311	H	1.316841	0.080556	1.547362
H312	H	1.566841	0.330556	1.797362
O313	O	0.965999	-0.595698	0.362530
O314	O	1.215999	-0.345698	0.612530
O315	O	1.465999	-0.095698	0.862530
O316	O	1.715999	0.154302	1.112530
H317	H	0.999154	-0.562258	0.335783
H318	H	1.249154	-0.312258	0.585783
H319	H	1.499154	-0.062258	0.835783
H320	H	1.749154	0.187742	1.085783
H321	H	0.247247	-0.419520	0.213081
H322	H	0.497247	-0.169520	0.463081
H323	H	0.747247	0.080480	0.713081
H324	H	0.997247	0.330480	0.963081
H325	H	0.816831	-0.419601	0.643719
H326	H	1.066831	-0.169601	0.893719
H327	H	1.316831	0.080399	1.143719
H328	H	1.566831	0.330399	1.393719
H329	H	0.835257	-0.937125	0.231543
H330	H	1.085257	-0.687125	0.481543
H331	H	1.335257	-0.437125	0.731543
H332	H	1.585257	-0.187125	0.981543
O333	O	0.979556	-0.244762	0.523075
O334	O	1.229556	0.005238	0.773075
O335	O	1.479556	0.255238	1.023075
O336	O	1.729556	0.505238	1.273075
H337	H	1.010223	-0.276205	0.492082
H338	H	1.260223	-0.026205	0.742082
H339	H	1.510223	0.223795	0.992082
H340	H	1.760223	0.473795	1.242082
H341	H	0.950032	-0.738488	0.346506
H342	H	1.200032	-0.488488	0.596506
H343	H	1.450032	-0.238488	0.846506
H344	H	1.700032	0.011512	1.096506
O345	O	0.262765	-0.244913	0.375996
O346	O	0.512765	0.005087	0.625996
O347	O	0.762765	0.255087	0.875996
O348	O	1.012765	0.505087	1.125996
H349	H	0.230248	-0.213709	0.405093
H350	H	0.480248	0.036291	0.655093
H351	H	0.730248	0.286291	0.905093
H352	H	0.980248	0.536291	1.155093
H353	H	0.816842	-0.419498	0.928650
H354	H	1.066842	-0.169498	1.178650
H355	H	1.316842	0.080502	1.428650
H356	H	1.566842	0.330502	1.678650
H357	H	0.128538	-0.419495	0.213092
H358	H	0.378538	-0.169495	0.463092
H359	H	0.628538	0.080505	0.713092
H360	H	0.878538	0.330505	0.963092
H361	H	0.975584	-1.069950	0.372020
H362	H	1.225584	-0.819950	0.622020
H363	H	1.475584	-0.569950	0.872020
H364	H	1.725584	-0.319950	1.122020
H365	H	0.906071	-0.223202	0.853045
H366	H	1.156071	0.026798	1.103045
H367	H	1.406071	0.276798	1.353045
H368	H	1.656071	0.526798	1.603045
H369	H	0.830243	-1.070201	0.226486
H370	H	1.080243	-0.820201	0.476486
H371	H	1.330243	-0.570201	0.726486
H372	H	1.580243	-0.320201	0.976486
O373	O	0.455798	-0.469719	0.273495
O374	O	0.705798	-0.219719	0.523495
O375	O	0.955798	0.030281	0.773495
O376	O	1.205798	0.280281	1.023495
H377	H	0.507208	-0.459098	0.274732
H378	H	0.757208	-0.209098	0.524732
H379	H	1.007208	0.040902	0.774732
H380	H	1.257208	0.290902	1.024732
O381	O	0.877335	-0.469560	0.852308
O382	O	1.127335	-0.219560	1.102308
O383	O	1.377335	0.030440	1.352308
O384	O	1.627335	0.280440	1.602308
H385	H	0.872190	-0.513577	0.816887
H386	H	1.122190	-0.263577	1.066887
H387	H	1.372190	-0.013577	1.316887
H388	H	1.622190	0.236423	1.566887
O389	O	0.319791	-0.469685	0.273505
O390	O	0.569791	-0.219685	0.523505
O391	O	0.819791	0.030315	0.773505
O392	O	1.069791	0.280315	1.023505
H393	H	0.351824	-0.513689	0.268305
H394	H	0.601824	-0.263689	0.518305
H395	H	0.851824	-0.013689	0.768305
H396	H	1.101824	0.236311	1.018305
O397	O	0.799491	-0.595987	0.195791
O398	O	1.049491	-0.345987	0.445791
O399	O	1.299491	-0.095987	0.695791
O400	O	1.549491	0.154013	0.945791
H401	H	0.749778	-0.610127	0.205949
H402	H	0.999778	-0.360127	0.455949
H403	H	1.249778	-0.110127	0.705949
H404	H	1.499778	0.139873	0.955949
O405	O	0.523065	-0.431434	0.201996
O406	O	0.773065	-0.181434	0.451996
O407	O	1.023065	0.068566	0.701996
O408	O	1.273065	0.318566	0.951996
H409	H	0.472364	-0.423896	0.209036
H410	H	0.722364	-0.173896	0.459036
H411	H	0.972364	0.076104	0.709036
H412	H	1.222364	0.326104	0.959036
H413	H	0.650884	-0.419600	0.213041
H414	H	0.900884	-0.169600	0.463041
H415	H	1.150884	0.080400	0.713041
H416	H	1.400884	0.330400	0.963041
O417	O	0.955707	-0.815566	0.352171
O418	O	1.205707	-0.565566	0.602171
O419	O	1.455707	-0.315566	0.852171
O420	O	1.705707	-0.065566	1.102171
H421	H	0.944414	-0.829625	0.400805
H422	H	1.194414	-0.579625	0.650805
H423	H	1.444414	-0.329625	0.900805
H424	H	1.694414	-0.079625	1.150805
O425	O	0.979564	-0.244719	0.659090
O426	O	1.229564	0.005281	0.909090
O427	O	1.479564	0.255281	1.159090
O428	O	1.729564	0.505281	1.409090
H429	H	1.008637	-0.213496	0.626549
H430	H	1.258637	0.036504	0.876549
H431	H	1.508637	0.286504	1.126549
H432	H	1.758637	0.536504	1.376549
O433	O	0.793745	-0.748456	0.189996
O434	O	1.043745	-0.498456	0.439996
O435	O	1.293745	-0.248456	0.689996
O436	O	1.543745	0.001544	0.939996
H437	H	0.798326	-0.805614	0.194553
H438	H	1.048326	-0.555614	0.444553
H439	H	1.298326	-0.305614	0.694553
H440	H	1.548326	-0.055614	0.944553
O441	O	0.979568	-0.244603	0.926714
O442	O	1.229568	0.005397	1.176714
O443	O	1.479568	0.255397	1.426714
O444	O	1.729568	0.505397	1.676714
H445	H	1.008629	-0.213343	0.961658
H446	H	1.258629	0.036657	1.211658
H447	H	1.508629	0.286657	1.461658
H448	H	1.758629	0.536657	1.711658
H449	H	0.840540	-0.850347	0.236845
H450	H	1.090540	-0.600347	0.486845
H451	H	1.340540	-0.350347	0.736845
H452	H	1.590540	-0.100347	0.986845
O453	O	0.979572	-0.244553	1.062732
O454	O	1.229572	0.005447	1.312732
O455	O	1.479572	0.255447	1.562732
O456	O	1.729572	0.505447	1.812732
H457	H	1.008645	-0.213334	1.030188
H458	H	1.258645	0.036666	1.280188
H459	H	1.508645	0.286666	1.530188
H460	H	1.758645	0.536666	1.780188
O461	O	0.877331	-0.469614	0.716292
O462	O	1.127331	-0.219614	0.966292
O463	O	1.377331	0.030386	1.216292
O464	O	1.627331	0.280386	1.466292
H465	H	0.872206	-0.513608	0.748359
H466	H	1.122206	-0.263608	0.998359
H467	H	1.372206	-0.013608	1.248359
H468	H	1.622206	0.236392	1.498359
H469	H	0.538572	-0.256827	0.364915
H470	H	0.788572	-0.006827	0.614915
H471	H	1.038572	0.243173	0.864915
H472	H	1.288572	0.493173	1.114915
O473	O	0.805758	-0.431507	0.515893
O474	O	1.055758	-0.181507	0.765893
O475	O	1.305758	0.068493	1.015893
O476	O	1.555758	0.318493	1.265893
H477	H	0.776689	-0.462732	0.548436
H478	H	1.026689	-0.212732	0.798436
H479	H	1.276689	0.037268	1.048436
H480	H	1.526689	0.287268	1.298436
H481	H	0.456730	-0.223387	0.302521
H482	H	0.706730	0.026613	0.552521
H483	H	0.956730	0.276613	0.802521
H484	H	1.206730	0.526613	1.052521
O485	O	0.666398	-0.244996	0.375961
O486	O	0.916398	0.005004	0.625961
O487	O	1.166398	0.255004	0.875961
O488	O	1.416398	0.505004	1.125961
H489	H	0.633879	-0.213796	0.405059
H490	H	0.883879	0.036204	0.655059
H491	H	1.133879	0.286204	0.905059
H492	H	1.383879	0.536204	1.155059
H493	H	0.338019	-0.223363	0.302527
H494	H	0.588019	0.026637	0.552527
H495	H	0.838019	0.276637	0.802527
H496	H	1.088019	0.526637	1.052527
