data_functionalizedCrystal
_audit_creation_method	'MofGen! by Chris Wilmer'
_symmetry_space_group_name_H-M	'P1'
_symmetry_Int_Tables_number	1
_symmetry_cell_setting	triclinic
loop_
_symmetry_equiv_pos_as_xyz
  x,y,z
_cell_length_a	18.050591
_cell_length_b	21.395361
_cell_length_c	21.395355
_cell_angle_alpha	90.021511
_cell_angle_beta	89.969444
_cell_angle_gamma	89.973287
loop_
_atom_site_label
_atom_site_type_symbol
_atom_site_fract_x
_atom_site_fract_y
_atom_site_fract_z
Zn1	Zn	1.135350	0.249578	-0.354349
Zn2	Zn	1.135235	0.354338	-0.249566
Zn3	Zn	1.011149	0.249571	-0.249574
Zn4	Zn	1.011112	0.354314	-0.354295
O5	O	1.073211	0.301950	-0.301946
O6	O	1.239260	0.263487	-0.340468
O7	O	1.118741	0.340447	-0.161889
O8	O	1.027688	0.161894	-0.263499
O9	O	1.239175	0.340454	-0.263484
O10	O	1.118938	0.161899	-0.340476
O11	O	1.027576	0.263475	-0.161895
O12	O	0.907219	0.263452	-0.263447
O13	O	1.027626	0.340414	-0.441980
O14	O	0.907192	0.340407	-0.340385
O15	O	1.118903	0.263465	-0.442019
O16	O	1.118706	0.442012	-0.263432
O17	O	1.027514	0.441995	-0.340376
C18	C	1.073113	0.464738	-0.301911
C19	C	1.073139	0.534379	-0.301917
C20	C	0.880259	0.301927	-0.301911
C21	C	0.797713	0.301932	-0.301911
C22	C	1.073273	0.301937	-0.465369
C23	C	1.073299	0.301932	-0.535011
C24	C	0.598256	0.260035	-0.260169
C25	C	0.548830	0.317181	-0.244746
C26	C	0.646583	0.301951	-0.301940
C27	C	0.548927	0.244826	-0.317361
C28	C	0.500598	0.301964	-0.301966
C29	C	0.598245	0.359126	-0.286487
C30	C	0.598346	0.286732	-0.359129
C31	C	0.548943	0.343917	-0.343727
C32	C	0.730681	0.301942	-0.301923
C33	C	0.416502	0.301979	-0.301983
C34	C	1.266917	0.301974	-0.301981
C35	C	1.349463	0.301984	-0.301996
C36	C	1.073330	0.138527	-0.301995
C37	C	1.073381	0.068886	-0.302015
C38	C	1.120665	0.567080	-0.261893
C39	C	1.120700	0.632516	-0.261907
C40	C	1.073195	0.665247	-0.301939
C41	C	1.025666	0.632538	-0.341970
C42	C	1.025638	0.567104	-0.341959
C43	C	1.006327	0.768959	-0.306843
C44	C	1.006354	0.834391	-0.306849
C45	C	1.073282	0.867068	-0.301975
C46	C	1.140185	0.834304	-0.297082
C47	C	1.140157	0.768869	-0.297072
C48	C	1.073221	0.736200	-0.301955
C49	C	1.120849	0.970722	-0.261965
C50	C	1.120885	1.036158	-0.261983
C51	C	1.025844	1.036180	-0.342043
C52	C	1.025815	0.970744	-0.342027
C53	C	1.073317	0.938019	-0.301985
C54	C	1.120825	0.261863	-0.567745
C55	C	1.120824	0.261836	-0.633181
C56	C	1.073305	0.301889	-0.665879
C57	C	1.025770	0.341961	-0.633136
C58	C	1.025767	0.341983	-0.567702
C59	C	1.067407	0.358304	-0.769541
C60	C	1.067415	0.358284	-0.834974
C61	C	1.073310	0.301823	-0.867700
C62	C	1.079212	0.245381	-0.834985
C63	C	1.079209	0.245402	-0.769550
C64	C	1.073303	0.301870	-0.736831
C65	C	1.120837	0.261721	-0.971387
C66	C	1.120831	0.261693	-1.036824
C67	C	1.025780	0.341824	-1.036778
C68	C	1.025783	0.341847	-0.971343
C69	C	1.073315	0.301796	-0.938651
C70	C	1.073193	0.301918	-0.139158
C71	C	1.073310	0.301746	-0.069518
H72	H	0.527082	0.330063	-0.196393
O73	O	1.172154	1.071427	-0.218812
H74	H	1.209944	1.101188	-0.246892
O75	O	0.626810	0.423144	-0.269139
H76	H	0.688298	0.422629	-0.269238
H77	H	0.987062	0.374611	-0.541050
O78	O	0.626953	0.213138	-0.213330
H79	H	0.579499	0.190111	-0.189710
O80	O	0.520422	0.390927	-0.390529
H81	H	0.540276	0.438285	-0.377589
O82	O	1.212309	0.733526	-0.291799
H83	H	1.248753	0.746031	-0.331676
O84	O	0.627189	0.269650	-0.423156
H85	H	0.607476	0.222181	-0.435842
H86	H	0.987082	0.374430	-1.063400
O87	O	1.061047	0.419208	-0.734250
H88	H	1.062028	0.409741	-0.683254
H89	H	1.062614	0.404243	-0.861606
O90	O	0.520232	0.180828	-0.334634
H91	H	0.539991	0.146120	-0.299882
O92	O	1.171906	0.531782	-0.218716
H93	H	1.204966	0.565519	-0.190892
O94	O	1.171955	0.667799	-0.218732
H95	H	1.204976	0.634050	-0.190884
H96	H	0.951876	0.861063	-0.310827
O97	O	1.212381	0.869535	-0.291831
H98	H	1.201166	0.920540	-0.292669
H99	H	1.159530	0.944076	-0.229362
O100	O	0.974609	1.071477	-0.385221
H101	H	0.941556	1.037741	-0.413052
H102	H	0.987112	0.944117	-0.374616
H103	H	0.951822	0.742360	-0.310814
H104	H	0.987077	0.374571	-0.659764
O105	O	0.974500	0.385056	-0.936041
H106	H	0.987186	0.434233	-0.948596
O107	O	0.974419	0.667836	-0.385141
H108	H	0.982414	0.718831	-0.378418
H109	H	0.986936	0.540478	-0.374552
O110	O	1.172087	0.218665	-0.532483
H111	H	1.205132	0.190795	-0.566244
H112	H	1.159524	0.229203	-0.659839
O113	O	1.085570	0.184531	-0.734262
H114	H	1.089667	0.145264	-0.768006
H115	H	1.084013	0.199405	-0.861628
H116	H	1.159537	0.229106	-0.944768
H117	H	1.159531	0.229060	-1.063475
