data_functionalizedCrystal
_audit_creation_method	'MofGen! by Chris Wilmer'
_symmetry_space_group_name_H-M	'P1'
_symmetry_Int_Tables_number	1
_symmetry_cell_setting	triclinic
loop_
_symmetry_equiv_pos_as_xyz
  x,y,z
_cell_length_a	29.839131
_cell_length_b	19.121246
_cell_length_c	19.120904
_cell_angle_alpha	89.874251
_cell_angle_beta	87.586696
_cell_angle_gamma	87.524876
loop_
_atom_site_label
_atom_site_type_symbol
_atom_site_fract_x
_atom_site_fract_y
_atom_site_fract_z
Zn1	Zn	-0.162218	-1.054794	0.442219
Zn2	Zn	0.337782	-0.554794	0.942219
Zn3	Zn	-0.234014	-1.059681	0.324983
Zn4	Zn	0.265986	-0.559681	0.824983
Zn5	Zn	-0.161950	-0.942561	0.319986
Zn6	Zn	0.338050	-0.442561	0.819986
Zn7	Zn	-0.240377	-0.937487	0.437167
Zn8	Zn	0.259623	-0.437487	0.937167
O9	O	-0.199640	-0.998631	0.381088
O10	O	0.300360	-0.498631	0.881088
O11	O	-0.169191	-1.153551	0.430873
O12	O	0.330809	-0.653551	0.930873
O13	O	-0.221679	-1.048313	0.226215
O14	O	0.278321	-0.548313	0.726215
O15	O	-0.099117	-0.957527	0.336224
O16	O	0.400883	-0.457527	0.836224
O17	O	-0.221939	-1.157141	0.344740
O18	O	0.278061	-0.657141	0.844740
O19	O	-0.099314	-1.039984	0.426027
O20	O	0.400686	-0.539984	0.926027
O21	O	-0.168735	-0.962265	0.222544
O22	O	0.331265	-0.462265	0.722544
O23	O	-0.174905	-0.843779	0.331325
O24	O	0.325095	-0.343779	0.831325
O25	O	-0.232784	-0.948879	0.535941
O26	O	0.267216	-0.448879	1.035941
O27	O	-0.232525	-0.840051	0.417417
O28	O	0.267475	-0.340051	0.917417
O29	O	-0.175361	-1.035064	0.539653
O30	O	0.324639	-0.535064	1.039653
O31	O	-0.297727	-1.043394	0.339841
O32	O	0.202273	-0.543394	0.839841
O33	O	-0.302402	-0.953618	0.422262
O34	O	0.197598	-0.453618	0.922262
C35	C	-0.204377	-0.816477	0.373281
C36	C	0.295623	-0.316477	0.873281
C37	C	-0.206414	-0.738550	0.369957
C38	C	0.293586	-0.238550	0.869957
C39	C	-0.179956	-0.700068	0.413309
C40	C	0.320044	-0.200068	0.913309
C41	C	-0.181868	-0.626847	0.410180
C42	C	0.318132	-0.126847	0.910180
C43	C	-0.210241	-0.592110	0.363703
C44	C	0.289759	-0.092110	0.863703
C45	C	-0.236701	-0.630597	0.320346
C46	C	0.263299	-0.130597	0.820346
C47	C	-0.234786	-0.703817	0.323472
C48	C	0.265214	-0.203817	0.823472
C49	C	-0.217393	-0.371129	0.352015
C50	C	0.282607	0.128871	0.852015
C51	C	-0.219307	-0.297905	0.348893
C52	C	0.280693	0.202095	0.848893
C53	C	-0.164473	-0.294160	0.438727
C54	C	0.335527	0.205840	0.938727
C55	C	-0.162563	-0.367380	0.441852
C56	C	0.337437	0.132620	0.941852
C57	C	-0.189020	-0.405861	0.398493
C58	C	0.310980	0.094139	0.898493
C59	C	-0.212198	-0.517267	0.360505
C60	C	0.287802	-0.017267	0.860505
C61	C	-0.187061	-0.480703	0.401687
C62	C	0.312939	0.019297	0.901687
C63	C	-0.316365	-0.998504	0.381062
C64	C	0.183635	-0.498504	0.881062
C65	C	-0.366300	-0.998513	0.381076
C66	C	0.133700	-0.498513	0.881076
C67	C	-0.725333	-0.951913	0.424003
C68	C	-0.225333	-0.451913	0.924003
C69	C	-0.537662	-0.951822	0.423977
C70	C	-0.037662	-0.451822	0.923977
O71	O	-0.515481	-0.912049	0.460456
O72	O	-0.015481	-0.412049	0.960456
N73	N	-0.511744	-0.998586	0.381100
N74	N	-0.011744	-0.498586	0.881100
C75	C	-0.532746	-1.045380	0.338230
C76	C	-0.032746	-0.545380	0.838230
O77	O	-0.506394	-1.085159	0.301765
O78	O	-0.006394	-0.585159	0.801765
C79	C	-0.720416	-1.045474	0.338260
C80	C	-0.220416	-0.545474	0.838260
C81	C	-0.746332	-0.998702	0.381135
C82	C	-0.246332	-0.498702	0.881135
C83	C	-0.751249	-0.905146	0.466875
C84	C	-0.251249	-0.405146	0.966875
C85	C	-0.798164	-0.905166	0.466878
C86	C	-0.298164	-0.405166	0.966878
C87	C	-0.819163	-0.951955	0.424010
C88	C	-0.319163	-0.451955	0.924010
C89	C	-0.793247	-0.998723	0.381138
C90	C	-0.293247	-0.498723	0.881138
C91	C	-0.741417	-1.092271	0.295394
C92	C	-0.241417	-0.592271	0.795394
C93	C	-0.788338	-1.092292	0.295406
C94	C	-0.288338	-0.592292	0.795406
C95	C	-0.814254	-1.045520	0.338281
C96	C	-0.314254	-0.545520	0.838281
C97	C	-0.861161	-1.045533	0.338273
C98	C	-0.361161	-0.545533	0.838273
N99	N	-0.887080	-0.998768	0.381150
N100	N	-0.387080	-0.498768	0.881150
C101	C	-0.866081	-0.951979	0.424018
C102	C	-0.366081	-0.451979	0.924018
C103	C	-0.434216	-1.045326	0.338216
C104	C	0.065784	-0.545326	0.838216
C105	C	-0.387299	-1.045302	0.338208
C106	C	0.112701	-0.545302	0.838208
C107	C	-0.392218	-0.951744	0.423956
C108	C	0.107782	-0.451744	0.923956
C109	C	-0.439137	-0.951766	0.423961
C110	C	0.060863	-0.451766	0.923961
C111	C	-0.460135	-0.998562	0.381093
C112	C	0.039865	-0.498562	0.881093
C113	C	-0.964605	-0.952026	0.424022
C114	C	-0.464605	-0.452026	0.924022
C115	C	-1.011524	-0.952049	0.424019
C116	C	-0.511524	-0.452049	0.924019
C117	C	-1.006601	-1.045609	0.338273
C118	C	-0.506601	-0.545609	0.838273
C119	C	-0.959686	-1.045584	0.338273
C120	C	-0.459686	-0.545584	0.838273
C121	C	-0.938689	-0.998790	0.381153
C122	C	-0.438689	-0.498790	0.881153
O123	O	-0.883372	-1.085290	0.301819
O124	O	-0.383372	-0.585290	0.801819
O125	O	-0.892440	-0.912217	0.460489
O126	O	-0.392440	-0.412217	0.960489
C127	C	-0.678418	-0.951893	0.424000
C128	C	-0.178418	-0.451893	0.924000
C129	C	-0.652502	-0.998661	0.381128
C130	C	-0.152502	-0.498661	0.881128
C131	C	-0.673501	-1.045449	0.338260
C132	C	-0.173501	-0.545449	0.838260
C133	C	-0.605585	-0.998636	0.381120
C134	C	-0.105585	-0.498636	0.881120
C135	C	-0.584586	-0.951847	0.423988
C136	C	-0.084586	-0.451847	0.923988
C137	C	-0.610504	-0.905083	0.466866
C138	C	-0.110504	-0.405083	0.966866
C139	C	-0.657419	-0.905104	0.466869
C140	C	-0.157419	-0.405104	0.966869
C141	C	-0.647583	-1.092214	0.295382
C142	C	-0.147583	-0.592214	0.795382
C143	C	-0.600668	-1.092189	0.295382
C144	C	-0.100668	-0.592189	0.795382
C145	C	-0.579669	-1.045400	0.338251
C146	C	-0.079669	-0.545400	0.838251
C147	C	-0.082459	-0.998776	0.381132
C148	C	0.417541	-0.498776	0.881132
C149	C	-0.032523	-0.998838	0.381150
C150	C	0.467477	-0.498838	0.881150
C151	C	-0.204813	-0.990861	0.563946
C152	C	0.295187	-0.490861	1.063946
C153	C	-0.207017	-0.987550	0.641868
C154	C	0.292983	-0.487550	1.141868
C155	C	-0.194882	-0.181496	0.388921
C156	C	0.305118	0.318504	0.888921
C157	C	-0.192848	-0.259423	0.392245
C158	C	0.307152	0.240577	0.892245
C159	C	-0.194454	-1.006411	0.198944
C160	C	0.305546	-0.506411	0.698944
C161	C	-0.192120	-1.009857	0.121028
C162	C	0.307880	-0.509857	0.621028
C163	C	-0.178157	-1.030864	0.680410
C164	C	0.321843	-0.530864	1.180410
C165	C	-0.180226	-1.027744	0.753627
C166	C	0.319774	-0.527744	1.253627
C167	C	-0.211159	-0.981313	0.788300
C168	C	0.288841	-0.481313	1.288300
C169	C	-0.240020	-0.937995	0.749753
C170	C	0.259980	-0.437995	1.249753
C171	C	-0.237948	-0.941111	0.676538
C172	C	0.262052	-0.441111	1.176538
C173	C	-0.218909	-0.969655	1.009266
C174	C	0.281091	-0.469655	1.509266
C175	C	-0.220980	-0.966543	1.082486
C176	C	0.279020	-0.466543	1.582486
C177	C	-0.161185	-1.056292	1.086355
C178	C	0.338815	-0.556292	1.586355
C179	C	-0.159118	-1.059408	1.013138
C180	C	0.340882	-0.559408	1.513138
C181	C	-0.187977	-1.016086	0.974597
C182	C	0.312023	-0.516086	1.474597
C183	C	-0.213276	-0.978125	0.863139
C184	C	0.286724	-0.478125	1.363139
C185	C	-0.185858	-1.019272	0.899760
C186	C	0.314142	-0.519272	1.399760
H187	H	-0.235299	-0.488976	0.322663
H188	H	0.264701	0.011024	0.822663
O189	O	-0.159463	-0.514334	0.446855
O190	O	0.340537	-0.014334	0.946855
C191	C	-0.105305	-0.502900	0.535669
C192	C	0.394695	-0.002900	1.035669
C193	C	-0.136529	-0.464717	0.484534
C194	C	0.363471	0.035283	0.984534
H195	H	-0.086762	-0.462801	0.566156
H196	H	0.413238	0.037199	1.066156
H197	H	-0.079947	-0.538540	0.505047
H198	H	0.420053	-0.038540	1.005047
H199	H	-0.126118	-0.535632	0.573696
H200	H	0.373882	-0.035632	1.073696
H201	H	-0.115754	-0.431948	0.446495
H202	H	0.384246	0.068052	0.946495
H203	H	-0.161889	-0.429119	0.515201
H204	H	0.338111	0.070881	1.015201
O205	O	-0.371836	-0.906199	0.465524
O206	O	0.128164	-0.406199	0.965524
C207	C	-0.361632	-0.785473	0.494385
C208	C	0.138368	-0.285473	0.994385
C209	C	-0.384738	-0.836966	0.447250
C210	C	0.115262	-0.336966	0.947250
H211	H	-0.372061	-0.729488	0.479638
H212	H	0.127939	-0.229488	0.979638
H213	H	-0.323644	-0.793435	0.487005
H214	H	0.176356	-0.293435	0.987005
H215	H	-0.372109	-0.795383	0.551449
H216	H	0.127891	-0.295383	1.051449
H217	H	-0.374296	-0.827087	0.390169
H218	H	0.125704	-0.327087	0.890169
H219	H	-0.422721	-0.828993	0.454691
H220	H	0.077279	-0.328993	0.954691
O221	O	-0.251086	-0.921474	1.116097
O222	O	0.248914	-0.421474	1.616097
C223	C	-0.329023	-0.886410	1.137057
C224	C	0.170977	-0.386410	1.637057
C225	C	-0.294979	-0.937480	1.098936
C226	C	0.205021	-0.437480	1.598936
H227	H	-0.364519	-0.899342	1.123208
H228	H	0.135481	-0.399342	1.623208
H229	H	-0.322231	-0.830488	1.120231
H230	H	0.177769	-0.330488	1.620231
H231	H	-0.325521	-0.891620	1.196001
H232	H	0.174479	-0.391620	1.696001
H233	H	-0.298462	-0.932333	1.039985
H234	H	0.201538	-0.432333	1.539985
H235	H	-0.301782	-0.993381	1.115820
H236	H	0.198218	-0.493381	1.615820
O237	O	-0.464290	-0.906406	0.465717
O238	O	0.035710	-0.406406	0.965717
C239	C	-0.482878	-0.867186	0.583479
C240	C	0.017122	-0.367186	1.083479
C241	C	-0.454375	-0.918607	0.536269
C242	C	0.045625	-0.418607	1.036269
H243	H	-0.474865	-0.877023	0.640528
H244	H	0.025135	-0.377023	1.140528
H245	H	-0.520026	-0.875237	0.576189
H246	H	-0.020026	-0.375237	1.076189
H247	H	-0.474820	-0.811192	0.568658
H248	H	0.025180	-0.311192	1.068658
H249	H	-0.462394	-0.974622	0.551059
H250	H	0.037606	-0.474622	1.051059
H251	H	-0.417235	-0.910496	0.543564
H252	H	0.082765	-0.410496	1.043564
O253	O	-0.667978	-1.137789	0.253872
O254	O	-0.167978	-0.637789	0.753872
C255	C	-0.718109	-1.232945	0.248669
C256	C	-0.218109	-0.732945	0.748669
C257	C	-0.695050	-1.181346	0.295748
C258	C	-0.195050	-0.681346	0.795748
H259	H	-0.740010	-1.268164	0.282505
H260	H	-0.240010	-0.768164	0.782505
H261	H	-0.691519	-1.266407	0.218082
H262	H	-0.191519	-0.766407	0.718082
H263	H	-0.739896	-1.202423	0.210554
H264	H	-0.239896	-0.702423	0.710554
H265	H	-0.673265	-1.211812	0.333903
H266	H	-0.173265	-0.711812	0.833903
H267	H	-0.721663	-1.147884	0.326286
H268	H	-0.221663	-0.647884	0.826286
O269	O	-0.823382	-0.859834	0.508575
O270	O	-0.323382	-0.359834	1.008575
C271	C	-0.879235	-0.846330	0.602865
C272	C	-0.379235	-0.346330	1.102865
C273	C	-0.850715	-0.897746	0.555674
C274	C	-0.350715	-0.397746	1.055674
H275	H	-0.901333	-0.876962	0.640966
H276	H	-0.401333	-0.376962	1.140966
H277	H	-0.901307	-0.811079	0.569132
H278	H	-0.401307	-0.311079	1.069132
H279	H	-0.856150	-0.812880	0.633468
H280	H	-0.356150	-0.312880	1.133468
H281	H	-0.873766	-0.931242	0.525062
H282	H	-0.373766	-0.431242	1.025062
H283	H	-0.828638	-0.932949	0.589446
H284	H	-0.328638	-0.432949	1.089446
H285	H	-0.242414	-0.269624	0.311045
H286	H	0.257586	0.230376	0.811045
H287	H	-0.734156	-0.867045	0.501787
H288	H	-0.234156	-0.367045	1.001787
O289	O	-0.944286	-0.906505	0.465694
O290	O	-0.444286	-0.406505	0.965694
C291	C	-0.954129	-0.813739	0.550774
C292	C	-0.454129	-0.313739	1.050774
C293	C	-0.977198	-0.865245	0.503606
C294	C	-0.477198	-0.365245	1.003606
H295	H	-0.980729	-0.780377	0.581448
H296	H	-0.480729	-0.280377	1.081448
H297	H	-0.932250	-0.778414	0.517020
H298	H	-0.432250	-0.278414	1.017020
H299	H	-0.932325	-0.844335	0.588810
H300	H	-0.432325	-0.344335	1.088810
H301	H	-0.999026	-0.834705	0.465562
H302	H	-0.499026	-0.334705	0.965562
H303	H	-0.999050	-0.900570	0.537403
H304	H	-0.499050	-0.400570	1.037403
O305	O	-1.026959	-1.091147	0.296672
O306	O	-0.526959	-0.591147	0.796672
C307	C	-1.037222	-1.211875	0.267892
C308	C	-0.537222	-0.711875	0.767892
C309	C	-1.014125	-1.160382	0.315036
C310	C	-0.514125	-0.660382	0.815036
H311	H	-1.026862	-1.267863	0.282732
H312	H	-0.526862	-0.767863	0.782732
H313	H	-1.026731	-1.202073	0.210813
H314	H	-0.526731	-0.702073	0.710813
H315	H	-1.075204	-1.203806	0.275260
H316	H	-0.575204	-0.703806	0.775260
H317	H	-0.976140	-1.168421	0.307729
H318	H	-0.476140	-0.668421	0.807729
H319	H	-1.024652	-1.170197	0.372098
H320	H	-0.524652	-0.670197	0.872098
H321	H	-0.242415	-0.934390	0.977895
H322	H	0.257585	-0.434390	1.477895
H323	H	-0.805432	-1.130402	0.260500
H324	H	-0.305432	-0.630402	0.760500
H325	H	-0.139460	-0.395658	0.479701
H326	H	0.360540	0.104342	0.979701
H327	H	-0.156853	-0.728345	0.451158
H328	H	0.343147	-0.228345	0.951158
H329	H	-0.366201	-1.083380	0.303287
H330	H	0.133799	-0.583380	0.803287
H331	H	-0.160324	-0.595518	0.445483
H332	H	0.339676	-0.095518	0.945483
H333	H	-0.265204	-0.900187	0.777989
H334	H	0.234796	-0.400187	1.277989
H335	H	-0.579570	-1.130275	0.260462
H336	H	-0.079570	-0.630275	0.760462
H337	H	-1.032623	-0.913960	0.458934
H338	H	-0.532623	-0.413960	0.958934
O339	O	-0.265938	-0.899065	0.638988
O340	O	0.234062	-0.399065	1.138988
C341	C	-0.289263	-0.864119	0.524481
C342	C	0.210737	-0.364119	1.024481
C343	C	-0.257532	-0.911768	0.566918
C344	C	0.242468	-0.411768	1.066918
H345	H	-0.282485	-0.874383	0.466204
H346	H	0.217515	-0.374383	0.966204
H347	H	-0.283248	-0.806971	0.536400
H348	H	0.216752	-0.306971	1.036400
H349	H	-0.325573	-0.875762	0.539431
H350	H	0.174427	-0.375762	1.039431
H351	H	-0.221211	-0.900187	0.551992
H352	H	0.278789	-0.400187	1.051992
H353	H	-0.263586	-0.968901	0.554995
H354	H	0.236414	-0.468901	1.054995
H355	H	-0.451308	-1.083434	0.303306
H356	H	0.048692	-0.583434	0.803306
O357	O	-0.716299	-1.137682	0.253650
O358	O	-0.216299	-0.637682	0.753650
C359	C	-0.697674	-1.176875	0.135891
C360	C	-0.197674	-0.676875	0.635891
C361	C	-0.726154	-1.125412	0.183086
C362	C	-0.226154	-0.625412	0.683086
H363	H	-0.705625	-1.166963	0.078829
H364	H	-0.205625	-0.666963	0.578829
H365	H	-0.705751	-1.232884	0.150630
H366	H	-0.205751	-0.732884	0.650630
H367	H	-0.660534	-1.168845	0.143277
H368	H	-0.160534	-0.668845	0.643277
H369	H	-0.763302	-1.133378	0.175725
H370	H	-0.263302	-0.633378	0.675725
H371	H	-0.718039	-1.069422	0.168336
H372	H	-0.218039	-0.569422	0.668336
H373	H	-0.137689	-1.091561	1.117743
H374	H	0.362311	-0.591561	1.617743
H375	H	-0.938584	-1.083663	0.303353
H376	H	-0.438584	-0.583663	0.803353
H377	H	-0.160671	-1.057072	0.871525
H378	H	0.339329	-0.557072	1.371525
H379	H	-0.678516	-0.867018	0.501783
H380	H	-0.178516	-0.367018	1.001783
O381	O	-0.243370	-0.933125	0.896860
O382	O	0.256630	-0.433125	1.396860
C383	C	-0.306584	-0.920102	0.979142
C384	C	0.193416	-0.420102	1.479142
C385	C	-0.272540	-0.971145	0.940984
C386	C	0.227460	-0.471145	1.440984
H387	H	-0.330171	-0.950819	1.014836
H388	H	0.169829	-0.450819	1.514836
H389	H	-0.326894	-0.889687	0.939056
H390	H	0.173106	-0.389687	1.439056
H391	H	-0.287867	-0.882000	1.011819
H392	H	0.212133	-0.382000	1.511819
H393	H	-0.291221	-1.009289	0.908307
H394	H	0.208779	-0.509289	1.408307
H395	H	-0.252231	-1.001509	0.981105
H396	H	0.247769	-0.501509	1.481105
H397	H	-0.238937	-0.402452	0.316709
H398	H	0.261063	0.097548	0.816709
H399	H	-0.152969	-1.068675	0.652185
H400	H	0.347031	-0.568675	1.152185
H401	H	-0.593399	-0.866983	0.501768
H402	H	-0.093399	-0.366983	1.001768
H403	H	-0.133930	-1.097218	0.984912
H404	H	0.366070	-0.597218	1.484912
O405	O	-0.138787	-0.256674	0.480769
O406	O	0.361213	0.243326	0.980769
C407	C	-0.117452	-0.142215	0.515797
C408	C	0.382548	0.357785	1.015797
C409	C	-0.146561	-0.184581	0.468135
C410	C	0.353439	0.315419	0.968135
H411	H	-0.123733	-0.083920	0.505610
H412	H	0.376267	0.416080	1.005610
H413	H	-0.080483	-0.157110	0.504196
H414	H	0.419517	0.342890	1.004196
H415	H	-0.126612	-0.154256	0.572914
H416	H	0.373388	0.345744	1.072914
H417	H	-0.137440	-0.172563	0.411002
H418	H	0.362560	0.327437	0.911002
H419	H	-0.183521	-0.169681	0.479796
H420	H	0.316479	0.330319	0.979796
O421	O	-0.264252	-0.596745	0.275258
O422	O	0.235748	-0.096745	0.775258
C423	C	-0.291486	-0.485610	0.230601
C424	C	0.208514	0.014390	0.730601
C425	C	-0.260270	-0.523856	0.281706
C426	C	0.239730	-0.023856	0.781706
H427	H	-0.288270	-0.426674	0.235786
H428	H	0.211730	0.073326	0.735786
H429	H	-0.327704	-0.499406	0.243424
H430	H	0.172296	0.000594	0.743424
H431	H	-0.281569	-0.502445	0.174717
H432	H	0.218431	-0.002445	0.674717
H433	H	-0.270147	-0.507042	0.337607
H434	H	0.229853	-0.007042	0.837607
H435	H	-0.224060	-0.510060	0.268822
H436	H	0.275940	-0.010060	0.768822
H437	H	-0.256330	-0.735148	0.288170
H438	H	0.243670	-0.235148	0.788170
O439	O	-0.152143	-1.069716	0.791088
O440	O	0.347857	-0.569716	1.291088
C441	C	-0.093589	-1.075699	0.874191
C442	C	0.406411	-0.575699	1.374191
C443	C	-0.125366	-1.028085	0.831798
C444	C	0.374634	-0.528085	1.331798
H445	H	-0.071938	-1.042060	0.907127
H446	H	0.428062	-0.542060	1.407127
H447	H	-0.071096	-1.109403	0.836857
H448	H	0.428904	-0.609403	1.336857
H449	H	-0.114234	-1.110891	0.910010
H450	H	0.385766	-0.610891	1.410010
H451	H	-0.104757	-0.992851	0.795976
H452	H	0.395243	-0.492851	1.295976
H453	H	-0.147860	-0.994429	0.869172
H454	H	0.352140	-0.494429	1.369172
