data_functionalizedCrystal
_audit_creation_method	'MofGen! by Chris Wilmer'
_symmetry_space_group_name_H-M	'P1'
_symmetry_Int_Tables_number	1
_symmetry_cell_setting	triclinic
loop_
_symmetry_equiv_pos_as_xyz
  x,y,z
_cell_length_a	11.792241
_cell_length_b	12.996460
_cell_length_c	11.792241
_cell_angle_alpha	89.999579
_cell_angle_beta	95.806584
_cell_angle_gamma	90.002031
loop_
_atom_site_label
_atom_site_type_symbol
_atom_site_fract_x
_atom_site_fract_y
_atom_site_fract_z
O1	O	1.506912	0.085467	-0.155560
O2	O	1.840246	0.418801	0.177773
O3	O	2.173579	0.752134	0.511107
O4	O	1.176571	0.085491	-0.171593
O5	O	1.509905	0.418825	0.161740
O6	O	1.843238	0.752158	0.495074
O7	O	1.349758	0.085472	0.001594
O8	O	1.683092	0.418805	0.334927
O9	O	2.016425	0.752138	0.668261
O10	O	1.333725	0.085487	-0.328747
O11	O	1.667059	0.418820	0.004586
O12	O	2.000392	0.752154	0.337920
O13	O	1.349736	-0.085662	0.001584
O14	O	1.683069	0.247671	0.334917
O15	O	2.016403	0.581004	0.668251
O16	O	1.176549	-0.085642	-0.171603
O17	O	1.509882	0.247691	0.161730
O18	O	1.843216	0.581024	0.495064
O19	O	1.506890	-0.085666	-0.155570
O20	O	1.840223	0.247667	0.177763
O21	O	2.173557	0.581000	0.511097
Cu22	Cu	1.341717	-0.101280	-0.163587
Cu23	Cu	1.675051	0.232053	0.169746
Cu24	Cu	2.008384	0.565386	0.503079
Cu25	Cu	1.341744	0.101105	-0.163576
Cu26	Cu	1.675077	0.434439	0.169758
Cu27	Cu	2.008411	0.767772	0.503091
O28	O	1.333703	-0.085647	-0.328757
O29	O	1.667036	0.247687	0.004576
O30	O	2.000370	0.581020	0.337910
C31	C	1.134269	-0.000073	-0.170591
C32	C	1.467603	0.333261	0.162742
C33	C	1.800936	0.666594	0.496076
C34	C	1.008255	-0.000064	-0.167576
C35	C	1.341589	0.333270	0.165757
C36	C	1.674922	0.666603	0.499090
N37	N	1.341707	-0.243627	-0.163595
N38	N	1.675040	0.089706	0.169738
N39	N	2.008374	0.423039	0.503072
C40	C	0.777543	-0.000093	-0.162034
C41	C	1.110877	0.333240	0.171300
C42	C	1.444210	0.666573	0.504633
C43	C	0.905928	-0.000077	-0.165113
C44	C	1.239262	0.333256	0.168220
C45	C	1.572595	0.666590	0.501553
C46	C	1.341712	-0.336733	-0.163598
C47	C	1.675046	-0.003400	0.169735
C48	C	2.008379	0.329933	0.503069
C49	C	1.341723	-0.453539	-0.163590
C50	C	1.675056	-0.120205	0.169743
C51	C	2.008389	0.213128	0.503076
C52	C	1.341737	-0.546637	-0.163578
C53	C	1.675070	-0.213303	0.169755
C54	C	2.008404	0.120030	0.503089
C55	C	1.341749	-0.663449	-0.163572
C56	C	1.675082	-0.330116	0.169762
C57	C	2.008416	0.003217	0.503095
C58	C	1.549192	-0.000100	-0.156572
C59	C	1.882525	0.333233	0.176761
C60	C	2.215859	0.666566	0.510094
C61	C	1.675206	-0.000103	-0.159587
C62	C	2.008539	0.333231	0.173747
C63	C	2.341873	0.666564	0.507080
C64	C	1.348740	-0.000095	0.043880
C65	C	1.682073	0.333238	0.377213
C66	C	2.015407	0.666572	0.710547
C67	C	1.345726	-0.000094	0.169894
C68	C	1.679059	0.333240	0.503227
C69	C	2.012392	0.666573	0.836560
N70	N	1.341763	0.243452	-0.163559
N71	N	1.675096	0.576786	0.169774
N72	N	2.008430	0.910119	0.503108
C73	C	1.334721	-0.000078	-0.371043
C74	C	1.668055	0.333255	-0.037710
C75	C	2.001388	0.666589	0.295624
C76	C	1.337736	-0.000072	-0.497057
C77	C	1.671069	0.333261	-0.163723
C78	C	2.004402	0.666594	0.169610
C79	C	1.340183	-0.000076	0.400606
C80	C	1.673516	0.333257	0.733939
C81	C	2.006849	0.666591	1.067272
C82	C	1.343262	-0.000086	0.272221
C83	C	1.676596	0.333248	0.605554
C84	C	2.009929	0.666581	0.938887
