data_functionalizedCrystal
_audit_creation_method	'MofGen! by Chris Wilmer'
_symmetry_space_group_name_H-M	'P1'
_symmetry_Int_Tables_number	1
_symmetry_cell_setting	triclinic
loop_
_symmetry_equiv_pos_as_xyz
  x,y,z
_cell_length_a	29.839134
_cell_length_b	29.839131
_cell_length_c	29.839135
_cell_angle_alpha	90.015469
_cell_angle_beta	90.013757
_cell_angle_gamma	90.021992
loop_
_atom_site_label
_atom_site_type_symbol
_atom_site_fract_x
_atom_site_fract_y
_atom_site_fract_z
Zn1	Zn	0.686726	-0.179159	0.254008
Zn2	Zn	0.936726	0.070841	0.504008
Zn3	Zn	1.186726	0.320841	0.754008
Zn4	Zn	1.436726	0.570841	1.004008
Zn5	Zn	0.686657	-0.254268	0.178877
Zn6	Zn	0.936657	-0.004268	0.428877
Zn7	Zn	1.186657	0.245732	0.678877
Zn8	Zn	1.436657	0.495732	0.928877
Zn9	Zn	0.611607	-0.179128	0.178890
Zn10	Zn	0.861607	0.070872	0.428890
Zn11	Zn	1.111607	0.320872	0.678890
Zn12	Zn	1.361607	0.570872	0.928890
Zn13	Zn	0.611557	-0.254237	0.253979
Zn14	Zn	0.861557	-0.004237	0.503979
Zn15	Zn	1.111557	0.245763	0.753979
Zn16	Zn	1.361557	0.495763	1.003979
O17	O	0.649137	-0.216698	0.216438
O18	O	0.899137	0.033302	0.466438
O19	O	1.149137	0.283302	0.716438
O20	O	1.399137	0.533302	0.966438
O21	O	0.749584	-0.189149	0.244048
O22	O	0.999584	0.060851	0.494048
O23	O	1.249584	0.310851	0.744048
O24	O	1.499584	0.560851	0.994048
O25	O	0.676693	-0.244300	0.116012
O26	O	0.926693	0.005700	0.366012
O27	O	1.176693	0.255700	0.616012
O28	O	1.426693	0.505700	0.866012
O29	O	0.621622	-0.116265	0.188872
O30	O	0.871622	0.133735	0.438872
O31	O	1.121622	0.383735	0.688872
O32	O	1.371622	0.633735	0.938872
O33	O	0.749533	-0.244331	0.188851
O34	O	0.999533	0.005669	0.438851
O35	O	1.249533	0.255669	0.688851
O36	O	1.499533	0.505669	0.938851
O37	O	0.676812	-0.116288	0.244060
O38	O	0.926812	0.133712	0.494060
O39	O	1.176812	0.383712	0.744060
O40	O	1.426812	0.633712	0.994060
O41	O	0.621554	-0.189095	0.116021
O42	O	0.871554	0.060905	0.366021
O43	O	1.121554	0.310905	0.616021
O44	O	1.371554	0.560905	0.866021
O45	O	0.548733	-0.189065	0.188844
O46	O	0.798733	0.060935	0.438844
O47	O	1.048733	0.310935	0.688844
O48	O	1.298733	0.560935	0.938844
O49	O	0.621537	-0.244278	0.316850
O50	O	0.871537	0.005722	0.566850
O51	O	1.121537	0.255722	0.816850
O52	O	1.371537	0.505722	1.066850
O53	O	0.548697	-0.244248	0.244011
O54	O	0.798697	0.005752	0.494011
O55	O	1.048697	0.255752	0.744011
O56	O	1.298697	0.505752	0.994011
O57	O	0.676763	-0.189119	0.316871
O58	O	0.926763	0.060881	0.566871
O59	O	1.176763	0.310881	0.816871
O60	O	1.426763	0.560881	1.066871
O61	O	0.676644	-0.317131	0.188823
O62	O	0.926644	-0.067131	0.438823
O63	O	1.176644	0.182869	0.688823
O64	O	1.426644	0.432869	0.938823
O65	O	0.621469	-0.317109	0.243999
O66	O	0.871469	-0.067109	0.493999
O67	O	1.121469	0.182891	0.743999
O68	O	1.371469	0.432891	0.993999
C69	C	0.532414	-0.216650	0.216426
C70	C	0.782414	0.033350	0.466426
C71	C	1.032414	0.283350	0.716426
C72	C	1.282414	0.533350	0.966426
C73	C	0.482480	-0.216640	0.216431
C74	C	0.732480	0.033360	0.466431
C75	C	0.982480	0.283360	0.716431
C76	C	1.232480	0.533360	0.966431
C77	C	0.125915	-0.188025	0.245236
C78	C	0.375915	0.061975	0.495236
C79	C	0.625915	0.311975	0.745236
C80	C	0.875915	0.561975	0.995236
C81	C	0.313588	-0.187988	0.245226
C82	C	0.563588	0.062012	0.495226
C83	C	0.813588	0.312012	0.745226
C84	C	1.063588	0.562012	0.995226
O85	O	0.337872	-0.163601	0.269715
O86	O	0.587872	0.086399	0.519715
O87	O	0.837872	0.336399	0.769715
O88	O	1.087872	0.586399	1.019715
N89	N	0.337035	-0.216670	0.216442
N90	N	0.587035	0.033330	0.466442
N91	N	0.837035	0.283330	0.716442
N92	N	1.087035	0.533330	0.966442
C93	C	0.313560	-0.245364	0.187660
C94	C	0.563560	0.004636	0.437660
C95	C	0.813560	0.254636	0.687660
C96	C	1.063560	0.504636	0.937660
O97	O	0.337809	-0.269761	0.163181
O98	O	0.587809	-0.019761	0.413181
O99	O	0.837809	0.230239	0.663181
O100	O	1.087809	0.480239	0.913181
C101	C	0.125888	-0.245402	0.187673
C102	C	0.375888	0.004598	0.437673
C103	C	0.625888	0.254598	0.687673
C104	C	0.875888	0.504598	0.937673
C105	C	0.102444	-0.216716	0.216456
C106	C	0.352444	0.033284	0.466456
C107	C	0.602444	0.283284	0.716456
C108	C	0.852444	0.533284	0.966456
C109	C	0.102471	-0.159341	0.274017
C110	C	0.352471	0.090659	0.524017
C111	C	0.602471	0.340659	0.774017
C112	C	0.852471	0.590659	1.024017
C113	C	0.055556	-0.159349	0.274018
C114	C	0.305556	0.090651	0.524018
C115	C	0.555556	0.340651	0.774018
C116	C	0.805556	0.590651	1.024018
C117	C	0.032084	-0.188040	0.245238
C118	C	0.282084	0.061960	0.495238
C119	C	0.532084	0.311960	0.745238
C120	C	0.782084	0.561960	0.995238
C121	C	0.055528	-0.216723	0.216457
C122	C	0.305528	0.033277	0.466457
C123	C	0.555528	0.283277	0.716457
C124	C	0.805528	0.533277	0.966457
C125	C	0.102414	-0.274098	0.158894
C126	C	0.352414	-0.024098	0.408894
C127	C	0.602414	0.225902	0.658894
C128	C	0.852414	0.475902	0.908894
C129	C	0.055493	-0.274106	0.158901
C130	C	0.305493	-0.024106	0.408901
C131	C	0.555493	0.225894	0.658901
C132	C	0.805493	0.475894	0.908901
C133	C	0.032049	-0.245420	0.187684
C134	C	0.282049	0.004580	0.437684
C135	C	0.532049	0.254580	0.687684
C136	C	0.782049	0.504580	0.937684
C137	C	-0.014859	-0.245422	0.187677
C138	C	0.235141	0.004578	0.437677
C139	C	0.485141	0.254578	0.687677
C140	C	0.735141	0.504578	0.937677
N141	N	-0.038305	-0.216741	0.216461
N142	N	0.211695	0.033259	0.466461
N143	N	0.461695	0.283259	0.716461
N144	N	0.711695	0.533259	0.966461
C145	C	-0.014834	-0.188050	0.245241
C146	C	0.235166	0.061950	0.495241
C147	C	0.485166	0.311950	0.745241
C148	C	0.735166	0.561950	0.995241
C149	C	0.412090	-0.245341	0.187655
C150	C	0.662090	0.004659	0.437655
C151	C	0.912090	0.254659	0.687655
C152	C	1.162090	0.504659	0.937655
C153	C	0.459008	-0.245331	0.187651
C154	C	0.709008	0.004669	0.437651
C155	C	0.959008	0.254669	0.687651
C156	C	1.209008	0.504669	0.937651
C157	C	0.459034	-0.187956	0.245218
C158	C	0.709034	0.062044	0.495218
C159	C	0.959034	0.312044	0.745218
C160	C	1.209034	0.562044	0.995218
C161	C	0.412115	-0.187964	0.245219
C162	C	0.662115	0.062036	0.495219
C163	C	0.912115	0.312036	0.745219
C164	C	1.162115	0.562036	0.995219
C165	C	0.388644	-0.216660	0.216439
C166	C	0.638644	0.033340	0.466439
C167	C	0.888644	0.283340	0.716439
C168	C	1.138644	0.533340	0.966439
C169	C	-0.113359	-0.188068	0.245240
C170	C	0.136641	0.061932	0.495240
C171	C	0.386641	0.311932	0.745240
C172	C	0.636641	0.561932	0.995240
C173	C	-0.160279	-0.188076	0.245237
C174	C	0.089721	0.061924	0.495237
C175	C	0.339721	0.311924	0.745237
C176	C	0.589721	0.561924	0.995237
C177	C	-0.160300	-0.245453	0.187672
C178	C	0.089700	0.004547	0.437672
C179	C	0.339700	0.254547	0.687672
C180	C	0.589700	0.504547	0.937672
C181	C	-0.113385	-0.245443	0.187674
C182	C	0.136615	0.004557	0.437674
C183	C	0.386615	0.254557	0.687674
C184	C	0.636615	0.504557	0.937674
C185	C	-0.089915	-0.216748	0.216461
C186	C	0.160085	0.033252	0.466461
C187	C	0.410085	0.283252	0.716461
C188	C	0.660085	0.533252	0.966461
O189	O	-0.039171	-0.269800	0.163204
O190	O	0.210829	-0.019800	0.413204
O191	O	0.460829	0.230200	0.663204
O192	O	0.710829	0.480200	0.913204
O193	O	-0.039090	-0.163663	0.269725
O194	O	0.210910	0.086337	0.519725
O195	O	0.460910	0.336337	0.769725
O196	O	0.710910	0.586337	1.019725
C197	C	0.172831	-0.188017	0.245236
C198	C	0.422831	0.061983	0.495236
C199	C	0.672831	0.311983	0.745236
C200	C	0.922831	0.561983	0.995236
C201	C	0.196275	-0.216700	0.216455
C202	C	0.446275	0.033300	0.466455
C203	C	0.696275	0.283300	0.716455
C204	C	0.946275	0.533300	0.966455
C205	C	0.172803	-0.245392	0.187675
C206	C	0.422803	0.004608	0.437675
C207	C	0.672803	0.254608	0.687675
C208	C	0.922803	0.504608	0.937675
C209	C	0.243192	-0.216690	0.216451
C210	C	0.493192	0.033310	0.466451
C211	C	0.743192	0.283310	0.716451
C212	C	0.993192	0.533310	0.966451
C213	C	0.266664	-0.187999	0.245231
C214	C	0.516664	0.062001	0.495231
C215	C	0.766664	0.312001	0.745231
C216	C	1.016664	0.562001	0.995231
C217	C	0.243218	-0.159318	0.274016
C218	C	0.493218	0.090682	0.524016
C219	C	0.743218	0.340682	0.774016
C220	C	0.993218	0.590682	1.024016
C221	C	0.196302	-0.159326	0.274016
C222	C	0.446302	0.090674	0.524016
C223	C	0.696302	0.340674	0.774016
C224	C	0.946302	0.590674	1.024016
C225	C	0.196249	-0.274073	0.158890
C226	C	0.446249	-0.024073	0.408890
C227	C	0.696249	0.225927	0.658890
C228	C	0.946249	0.475927	0.908890
C229	C	0.243165	-0.274062	0.158892
C230	C	0.493165	-0.024062	0.408892
C231	C	0.743165	0.225938	0.658892
C232	C	0.993165	0.475938	0.908892
C233	C	0.266637	-0.245371	0.187672
C234	C	0.516637	0.004629	0.437672
C235	C	0.766637	0.254629	0.687672
C236	C	1.016637	0.504629	0.937672
C237	C	0.649056	-0.333421	0.216416
C238	C	0.899056	-0.083421	0.466416
C239	C	1.149056	0.166579	0.716416
C240	C	1.399056	0.416579	0.966416
C241	C	0.649062	-0.383355	0.216422
C242	C	0.899062	-0.133355	0.466422
C243	C	1.149062	0.116645	0.716422
C244	C	1.399062	0.366645	0.966422
C245	C	0.677919	-0.692998	0.187750
C246	C	0.927919	-0.442998	0.437750
C247	C	1.177919	-0.192998	0.687750
C248	C	1.427919	0.057002	0.937750
C249	C	0.677974	-0.880671	0.187767
C250	C	0.927974	-0.630671	0.437767
C251	C	1.177974	-0.380671	0.687767
C252	C	1.427974	-0.130671	0.937767
O253	O	0.702445	-0.904935	0.163373
O254	O	0.952445	-0.654935	0.413373
O255	O	1.202445	-0.404935	0.663373
O256	O	1.452445	-0.154935	0.913373
N257	N	0.649230	-0.904140	0.216472
N258	N	0.899230	-0.654140	0.466472
N259	N	1.149230	-0.404140	0.716472
N260	N	1.399230	-0.154140	0.966472
C261	C	0.620472	-0.880688	0.245177
C262	C	0.870472	-0.630688	0.495177
C263	C	1.120472	-0.380688	0.745177
C264	C	1.370472	-0.130688	0.995177
O265	O	0.596028	-0.904957	0.269596
O266	O	0.846028	-0.654957	0.519596
O267	O	1.096028	-0.404957	0.769596
O268	O	1.346028	-0.154957	1.019596
C269	C	0.620419	-0.693016	0.245161
C270	C	0.870419	-0.443016	0.495161
C271	C	1.120419	-0.193016	0.745161
C272	C	1.370419	0.056984	0.995161
C273	C	0.649162	-0.669549	0.216451
C274	C	0.899162	-0.419549	0.466451
C275	C	1.149162	-0.169549	0.716451
C276	C	1.399162	0.080451	0.966451
C277	C	0.706660	-0.669531	0.159043
C278	C	0.956660	-0.419531	0.409043
C279	C	1.206660	-0.169531	0.659043
C280	C	1.456660	0.080469	0.909043
C281	C	0.706644	-0.622615	0.159037
C282	C	0.956644	-0.372615	0.409037
C283	C	1.206644	-0.122615	0.659037
C284	C	1.456644	0.127385	0.909037
C285	C	0.677887	-0.599167	0.187738
C286	C	0.927887	-0.349167	0.437738
C287	C	1.177887	-0.099167	0.687738
C288	C	1.427887	0.150833	0.937738
C289	C	0.649146	-0.622634	0.216446
C290	C	0.899146	-0.372634	0.466446
C291	C	1.149146	-0.122634	0.716446
C292	C	1.399146	0.127366	0.966446
C293	C	0.591663	-0.669565	0.273868
C294	C	0.841663	-0.419565	0.523868
C295	C	1.091663	-0.169565	0.773868
C296	C	1.341663	0.080435	1.023868
C297	C	0.591654	-0.622644	0.273862
C298	C	0.841654	-0.372644	0.523862
C299	C	1.091654	-0.122644	0.773862
C300	C	1.341654	0.127356	1.023862
C301	C	0.620397	-0.599177	0.245152
C302	C	0.870397	-0.349177	0.495152
C303	C	1.120397	-0.099177	0.745152
C304	C	1.370397	0.150823	0.995152
C305	C	0.620373	-0.552270	0.245141
C306	C	0.870373	-0.302270	0.495141
C307	C	1.120373	-0.052270	0.745141
C308	C	1.370373	0.197730	0.995141
N309	N	0.649118	-0.528800	0.216436
N310	N	0.899118	-0.278800	0.466436
N311	N	1.149118	-0.028800	0.716436
N312	N	1.399118	0.221200	0.966436
C313	C	0.677874	-0.552249	0.187735
C314	C	0.927874	-0.302249	0.437735
C315	C	1.177874	-0.052249	0.687735
C316	C	1.427874	0.197751	0.937735
C317	C	0.620501	-0.979219	0.245182
C318	C	0.870501	-0.729219	0.495182
C319	C	1.120501	-0.479219	0.745182
C320	C	1.370501	-0.229219	0.995182
C321	C	0.620514	-1.026137	0.245186
C322	C	0.870514	-0.776137	0.495186
C323	C	1.120514	-0.526137	0.745186
C324	C	1.370514	-0.276137	0.995186
C325	C	0.678017	-1.026116	0.187777
C326	C	0.928017	-0.776116	0.437777
C327	C	1.178017	-0.526116	0.687777
C328	C	1.428017	-0.276116	0.937777
C329	C	0.678002	-0.979197	0.187771
C330	C	0.928002	-0.729197	0.437771
C331	C	1.178002	-0.479197	0.687771
C332	C	1.428002	-0.229197	0.937771
C333	C	0.649245	-0.955750	0.216478
C334	C	0.899245	-0.705750	0.466478
C335	C	1.149245	-0.455750	0.716478
C336	C	1.399245	-0.205750	0.966478
C337	C	0.677839	-0.453723	0.187725
C338	C	0.927839	-0.203723	0.437725
C339	C	1.177839	0.046277	0.687725
C340	C	1.427839	0.296277	0.937725
C341	C	0.677819	-0.406803	0.187720
C342	C	0.927819	-0.156803	0.437720
C343	C	1.177819	0.093197	0.687720
C344	C	1.427819	0.343197	0.937720
C345	C	0.620318	-0.406829	0.245131
C346	C	0.870318	-0.156829	0.495131
C347	C	1.120318	0.093171	0.745131
C348	C	1.370318	0.343171	0.995131
C349	C	0.620335	-0.453744	0.245134
C350	C	0.870335	-0.203744	0.495134
C351	C	1.120335	0.046256	0.745134
C352	C	1.370335	0.296256	0.995134
C353	C	0.649100	-0.477190	0.216429
C354	C	0.899100	-0.227190	0.466429
C355	C	1.149100	0.022810	0.716429
C356	C	1.399100	0.272810	0.966429
O357	O	0.595919	-0.527977	0.269527
O358	O	0.845919	-0.277977	0.519527
O359	O	1.095919	-0.027977	0.769527
O360	O	1.345919	0.222023	1.019527
O361	O	0.702322	-0.527972	0.163327
O362	O	0.952322	-0.277972	0.413327
O363	O	1.202322	-0.027972	0.663327
O364	O	1.452322	0.222028	0.913327
C365	C	0.677935	-0.739913	0.187756
C366	C	0.927935	-0.489913	0.437756
C367	C	1.177935	-0.239913	0.687756
C368	C	1.427935	0.010087	0.937756
C369	C	0.649194	-0.763380	0.216463
C370	C	0.899194	-0.513380	0.466463
C371	C	1.149194	-0.263380	0.716463
C372	C	1.399194	-0.013380	0.966463
C373	C	0.620437	-0.739932	0.245165
C374	C	0.870437	-0.489932	0.495165
C375	C	1.120437	-0.239932	0.745165
C376	C	1.370437	0.010068	0.995165
C377	C	0.649206	-0.810298	0.216466
C378	C	0.899206	-0.560298	0.466466
C379	C	1.149206	-0.310298	0.716466
C380	C	1.399206	-0.060298	0.966466
C381	C	0.677963	-0.833746	0.187765
C382	C	0.927963	-0.583746	0.437765
C383	C	1.177963	-0.333746	0.687765
C384	C	1.427963	-0.083746	0.937765
C385	C	0.706707	-0.810277	0.159060
C386	C	0.956707	-0.560277	0.409060
C387	C	1.206707	-0.310277	0.659060
C388	C	1.456707	-0.060277	0.909060
C389	C	0.706692	-0.763361	0.159054
C390	C	0.956692	-0.513361	0.409054
C391	C	1.206692	-0.263361	0.659054
C392	C	1.456692	-0.013361	0.909054
C393	C	0.591692	-0.763401	0.273869
C394	C	0.841692	-0.513401	0.523869
C395	C	1.091692	-0.263401	0.773869
C396	C	1.341692	-0.013401	1.023869
C397	C	0.591710	-0.810317	0.273873
C398	C	0.841710	-0.560317	0.523873
C399	C	1.091710	-0.310317	0.773873
C400	C	1.341710	-0.060317	1.023873
C401	C	0.620467	-0.833765	0.245171
C402	C	0.870467	-0.583765	0.495171
C403	C	1.120467	-0.333765	0.745171
C404	C	1.370467	-0.083765	0.995171
C405	C	0.766315	-0.216747	0.216451
C406	C	1.016315	0.033253	0.466451
C407	C	1.266315	0.283253	0.716451
C408	C	1.516315	0.533253	0.966451
C409	C	0.816250	-0.216767	0.216457
C410	C	1.066250	0.033233	0.466457
C411	C	1.316250	0.283233	0.716457
C412	C	1.566250	0.533233	0.966457
C413	C	0.649152	-0.216699	0.333617
C414	C	0.899152	0.033301	0.583617
C415	C	1.149152	0.283301	0.833617
C416	C	1.399152	0.533301	1.083617
C417	C	0.649159	-0.216699	0.383551
C418	C	0.899159	0.033301	0.633551
C419	C	1.149159	0.283301	0.883551
C420	C	1.399159	0.533301	1.133551
C421	C	0.649230	-0.099520	0.216471
C422	C	0.899230	0.150480	0.466471
C423	C	1.149230	0.400480	0.716471
C424	C	1.399230	0.650480	0.966471
C425	C	0.649270	-0.049585	0.216484
C426	C	0.899270	0.200415	0.466484
C427	C	1.149270	0.450415	0.716484
C428	C	1.399270	0.700415	0.966484
C429	C	0.620424	-0.187955	0.693202
C430	C	0.870424	0.062045	0.943202
C431	C	1.120424	0.312045	1.193202
C432	C	1.370424	0.562045	1.443202
C433	C	0.620417	-0.187953	0.880875
C434	C	0.870417	0.062047	1.130875
C435	C	1.120417	0.312047	1.380875
C436	C	1.370417	0.562047	1.630875
O437	O	0.595989	-0.163522	0.905147
O438	O	0.845989	0.086478	1.155147
O439	O	1.095989	0.336478	1.405147
O440	O	1.345989	0.586478	1.655147
N441	N	0.649125	-0.216694	0.904336
N442	N	0.899125	0.033306	1.154336
N443	N	1.149125	0.283306	1.404336
N444	N	1.399125	0.533306	1.654336
C445	C	0.677834	-0.245439	0.880876
C446	C	0.927834	0.004561	1.130876
C447	C	1.177834	0.254561	1.380876
C448	C	1.427834	0.504561	1.630876
O449	O	0.702248	-0.269888	0.905137
O450	O	0.952248	-0.019888	1.155137
O451	O	1.202248	0.230112	1.405137
O452	O	1.452248	0.480112	1.655137
C453	C	0.677839	-0.245444	0.693204
C454	C	0.927839	0.004556	0.943204
C455	C	1.177839	0.254556	1.193204
C456	C	1.427839	0.504556	1.443204
C457	C	0.649132	-0.216698	0.669745
C458	C	0.899132	0.033302	0.919745
C459	C	1.149132	0.283302	1.169745
C460	C	1.399132	0.533302	1.419745
C461	C	0.591720	-0.159212	0.669744
C462	C	0.841720	0.090788	0.919744
C463	C	1.091720	0.340788	1.169744
C464	C	1.341720	0.590788	1.419744
C465	C	0.591724	-0.159211	0.622828
C466	C	0.841724	0.090789	0.872828
C467	C	1.091724	0.340789	1.122828
C468	C	1.341724	0.590789	1.372828
C469	C	0.620432	-0.187954	0.599371
C470	C	0.870432	0.062046	0.849371
C471	C	1.120432	0.312046	1.099371
C472	C	1.370432	0.562046	1.349371
C473	C	0.649136	-0.216697	0.622830
C474	C	0.899136	0.033303	0.872830
C475	C	1.149136	0.283303	1.122830
C476	C	1.399136	0.533303	1.372830
C477	C	0.706546	-0.274192	0.669745
C478	C	0.956546	-0.024192	0.919745
C479	C	1.206546	0.225808	1.169745
C480	C	1.456546	0.475808	1.419745
C481	C	0.706543	-0.274191	0.622824
C482	C	0.956543	-0.024191	0.872824
C483	C	1.206543	0.225809	1.122824
C484	C	1.456543	0.475809	1.372824
C485	C	0.677837	-0.245445	0.599365
C486	C	0.927837	0.004555	0.849365
C487	C	1.177837	0.254555	1.099365
C488	C	1.427837	0.504555	1.349365
C489	C	0.677848	-0.245439	0.552458
C490	C	0.927848	0.004561	0.802458
C491	C	1.177848	0.254561	1.052458
C492	C	1.427848	0.504561	1.302458
N493	N	0.649141	-0.216698	0.528997
N494	N	0.899141	0.033302	0.778997
N495	N	1.149141	0.283302	1.028997
N496	N	1.399141	0.533302	1.278997
C497	C	0.620432	-0.187955	0.552453
C498	C	0.870432	0.062045	0.802453
C499	C	1.120432	0.312045	1.052453
C500	C	1.370432	0.562045	1.302453
C501	C	0.677830	-0.245434	0.979407
C502	C	0.927830	0.004566	1.229407
C503	C	1.177830	0.254566	1.479407
C504	C	1.427830	0.504566	1.729407
C505	C	0.677830	-0.245432	1.026325
C506	C	0.927830	0.004568	1.276325
C507	C	1.177830	0.254568	1.526325
C508	C	1.427830	0.504568	1.776325
C509	C	0.620412	-0.187946	1.026321
C510	C	0.870412	0.062054	1.276321
C511	C	1.120412	0.312054	1.526321
C512	C	1.370412	0.562054	1.776321
C513	C	0.620415	-0.187946	0.979402
C514	C	0.870415	0.062054	1.229402
C515	C	1.120415	0.312054	1.479402
C516	C	1.370415	0.562054	1.729402
C517	C	0.649123	-0.216693	0.955946
C518	C	0.899123	0.033307	1.205946
C519	C	1.149123	0.283307	1.455946
C520	C	1.399123	0.533307	1.705946
C521	C	0.620443	-0.187956	0.453928
C522	C	0.870443	0.062044	0.703928
C523	C	1.120443	0.312044	0.953928
C524	C	1.370443	0.562044	1.203928
C525	C	0.620450	-0.187956	0.407008
C526	C	0.870450	0.062044	0.657008
C527	C	1.120450	0.312044	0.907008
C528	C	1.370450	0.562044	1.157008
C529	C	0.677866	-0.245444	0.407016
C530	C	0.927866	0.004556	0.657016
C531	C	1.177866	0.254556	0.907016
C532	C	1.427866	0.504556	1.157016
C533	C	0.677861	-0.245442	0.453932
C534	C	0.927861	0.004558	0.703932
C535	C	1.177861	0.254558	0.953932
C536	C	1.427861	0.504558	1.203932
C537	C	0.649145	-0.216696	0.477386
C538	C	0.899145	0.033304	0.727386
C539	C	1.149145	0.283304	0.977386
C540	C	1.399145	0.533304	1.227386
O541	O	0.702260	-0.269860	0.528157
O542	O	0.952260	-0.019860	0.778157
O543	O	1.202260	0.230140	1.028157
O544	O	1.452260	0.480140	1.278157
O545	O	0.596015	-0.163517	0.528184
O546	O	0.846015	0.086483	0.778184
O547	O	1.096015	0.336483	1.028184
O548	O	1.346015	0.586483	1.278184
C549	C	0.620420	-0.187956	0.740118
C550	C	0.870420	0.062044	0.990118
C551	C	1.120420	0.312044	1.240118
C552	C	1.370420	0.562044	1.490118
C553	C	0.649125	-0.216699	0.763576
C554	C	0.899125	0.033301	1.013576
C555	C	1.149125	0.283301	1.263576
C556	C	1.399125	0.533301	1.513576
C557	C	0.677833	-0.245442	0.740119
C558	C	0.927833	0.004558	0.990119
C559	C	1.177833	0.254558	1.240119
C560	C	1.427833	0.504558	1.490119
C561	C	0.649124	-0.216698	0.810494
C562	C	0.899124	0.033302	1.060494
C563	C	1.149124	0.283302	1.310494
C564	C	1.399124	0.533302	1.560494
C565	C	0.620416	-0.187955	0.833951
C566	C	0.870416	0.062045	1.083951
C567	C	1.120416	0.312045	1.333951
C568	C	1.370416	0.562045	1.583951
C569	C	0.591708	-0.159214	0.810490
C570	C	0.841708	0.090786	1.060490
C571	C	1.091708	0.340786	1.310490
C572	C	1.341708	0.590786	1.560490
C573	C	0.591712	-0.159214	0.763575
C574	C	0.841712	0.090786	1.013575
C575	C	1.091712	0.340786	1.263575
C576	C	1.341712	0.590786	1.513575
C577	C	0.706541	-0.274183	0.763580
C578	C	0.956541	-0.024183	1.013580
C579	C	1.206541	0.225817	1.263580
C580	C	1.456541	0.475817	1.513580
C581	C	0.706535	-0.274181	0.810496
C582	C	0.956535	-0.024181	1.060496
C583	C	1.206535	0.225819	1.310496
C584	C	1.456535	0.475819	1.560496
C585	C	0.677827	-0.245438	0.833953
C586	C	0.927827	0.004562	1.083953
C587	C	1.177827	0.254562	1.333953
C588	C	1.427827	0.504562	1.583953
C589	C	0.649121	-0.216703	1.099716
C590	C	0.899121	0.033297	1.349716
C591	C	1.149121	0.283297	1.599716
C592	C	1.399121	0.533297	1.849716
C593	C	0.649122	-0.216690	1.049781
C594	C	0.899122	0.033310	1.299781
C595	C	1.149122	0.283310	1.549781
C596	C	1.399122	0.533310	1.799781
H597	H	0.478092	-0.268686	0.164208
H598	H	0.728092	-0.018686	0.414208
H599	H	0.978092	0.231314	0.664208
H600	H	1.228092	0.481314	0.914208
H601	H	0.701208	-0.268846	0.960313
H602	H	0.951208	-0.018846	1.210313
H603	H	1.201208	0.231154	1.460313
H604	H	1.451208	0.481154	1.710313
C605	C	0.386278	-0.276904	0.155991
C606	C	0.636278	-0.026904	0.405991
C607	C	0.886278	0.223096	0.655991
C608	C	1.136278	0.473096	0.905991
H609	H	0.406966	-0.293978	0.138847
H610	H	0.656966	-0.043978	0.388847
H611	H	0.906966	0.206022	0.638847
H612	H	1.156966	0.456022	0.888847
H613	H	0.367977	-0.296512	0.173137
H614	H	0.617977	-0.046512	0.423137
H615	H	0.867977	0.203488	0.673137
H616	H	1.117977	0.453488	0.923137
H617	H	0.367975	-0.259690	0.136446
H618	H	0.617975	-0.009690	0.386446
H619	H	0.867975	0.240310	0.636446
H620	H	1.117975	0.490310	0.886446
H621	H	0.177218	-0.135966	0.297454
H622	H	0.427218	0.114034	0.547454
H623	H	0.677218	0.364034	0.797454
H624	H	0.927218	0.614034	1.047454
H625	H	0.730121	-0.829377	0.135689
H626	H	0.980121	-0.579377	0.385689
H627	H	1.230121	-0.329377	0.635689
H628	H	1.480121	-0.079377	0.885689
C629	C	0.709441	-0.277060	0.381208
C630	C	0.959441	-0.027060	0.631208
C631	C	1.209441	0.222940	0.881208
C632	C	1.459441	0.472940	1.131208
H633	H	0.705325	-0.272944	0.349906
H634	H	0.955325	-0.022944	0.599906
H635	H	1.205325	0.227056	0.849906
H636	H	1.455325	0.477056	1.099906
H637	H	0.739633	-0.270504	0.388904
H638	H	0.989633	-0.020504	0.638904
H639	H	1.239633	0.229496	0.888904
H640	H	1.489633	0.479496	1.138904
H641	H	0.702835	-0.307244	0.388886
H642	H	0.952835	-0.057244	0.638886
H643	H	1.202835	0.192756	0.888886
H644	H	1.452835	0.442756	1.138886
H645	H	0.730050	-0.603511	0.135660
H646	H	0.980050	-0.353511	0.385660
H647	H	1.230050	-0.103511	0.635660
H648	H	1.480050	0.146489	0.885660
H649	H	0.729917	-0.297591	0.744487
H650	H	0.979917	-0.047591	0.994487
H651	H	1.229917	0.202409	1.244487
H652	H	1.479917	0.452409	1.494487
C653	C	0.560049	-0.695369	0.305453
C654	C	0.810049	-0.445369	0.555453
C655	C	1.060049	-0.195369	0.805453
C656	C	1.310049	0.054631	1.055453
H657	H	0.542928	-0.674678	0.322547
H658	H	0.792928	-0.424678	0.572547
H659	H	1.042928	-0.174678	0.822547
H660	H	1.292928	0.075322	1.072547
H661	H	0.540487	-0.713693	0.288259
H662	H	0.790487	-0.463693	0.538259
H663	H	1.040487	-0.213693	0.788259
H664	H	1.290487	0.036307	1.038259
H665	H	0.577231	-0.713650	0.325047
H666	H	0.827231	-0.463650	0.575047
H667	H	1.077231	-0.213650	0.825047
H668	H	1.327231	0.036350	1.075047
C669	C	0.560021	-0.596855	0.305440
C670	C	0.810021	-0.346855	0.555440
C671	C	1.060021	-0.096855	0.805440
C672	C	1.310021	0.153145	1.055440
H673	H	0.542905	-0.617553	0.322535
H674	H	0.792905	-0.367553	0.572535
H675	H	1.042905	-0.117553	0.822535
H676	H	1.292905	0.132447	1.072535
H677	H	0.577188	-0.578533	0.325028
H678	H	0.827188	-0.328533	0.575028
H679	H	1.077188	-0.078533	0.825028
H680	H	1.327188	0.171467	1.075028
H681	H	0.540448	-0.578573	0.288235
H682	H	0.790448	-0.328573	0.538235
H683	H	1.040448	-0.078573	0.788235
H684	H	1.290448	0.171427	1.038235
C685	C	0.269040	-0.127759	0.305675
C686	C	0.519040	0.122241	0.555675
C687	C	0.769040	0.372241	0.805675
C688	C	1.019040	0.622241	1.055675
H689	H	0.248361	-0.110673	0.322818
H690	H	0.498361	0.139327	0.572818
H691	H	0.748361	0.389327	0.822818
H692	H	0.998361	0.639327	1.072818
H693	H	0.287345	-0.144974	0.325215
H694	H	0.537345	0.105026	0.575215
H695	H	0.787345	0.355026	0.825215
H696	H	1.037345	0.605026	1.075215
H697	H	0.287342	-0.108155	0.288520
H698	H	0.537342	0.141845	0.538520
H699	H	0.787342	0.391845	0.788520
H700	H	1.037342	0.641845	1.038520
C701	C	-0.186125	-0.277012	0.156018
C702	C	0.063875	-0.027012	0.406018
C703	C	0.313875	0.222988	0.656018
C704	C	0.563875	0.472988	0.906018
H705	H	-0.217424	-0.272910	0.160147
H706	H	0.032576	-0.022910	0.410147
H707	H	0.282576	0.227090	0.660147
H708	H	0.532576	0.477090	0.910147
H709	H	-0.178446	-0.270396	0.125843
H710	H	0.071554	-0.020396	0.375843
H711	H	0.321554	0.229604	0.625843
H712	H	0.571554	0.479604	0.875843
H713	H	-0.178441	-0.307207	0.162545
H714	H	0.071559	-0.057207	0.412545
H715	H	0.321559	0.192793	0.662545
H716	H	0.571559	0.442793	0.912545
C717	C	0.560131	-0.127597	0.737776
C718	C	0.810131	0.122403	0.987776
C719	C	1.060131	0.372403	1.237776
C720	C	1.310131	0.622403	1.487776
H721	H	0.543032	-0.110484	0.758471
H722	H	0.793032	0.139516	1.008471
H723	H	1.043032	0.389516	1.258471
H724	H	1.293032	0.639516	1.508471
H725	H	0.577328	-0.108027	0.719482
H726	H	0.827328	0.141973	0.969482
H727	H	1.077328	0.391973	1.219482
H728	H	1.327328	0.641973	1.469482
H729	H	0.540540	-0.144777	0.719466
H730	H	0.790540	0.105223	0.969466
H731	H	1.040540	0.355223	1.219466
H732	H	1.290540	0.605223	1.469466
H733	H	0.262249	-0.297422	0.135449
H734	H	0.512249	-0.047422	0.385449
H735	H	0.762249	0.202578	0.635449
H736	H	1.012249	0.452578	0.885449
H737	H	0.701432	-1.045216	0.164407
H738	H	0.951432	-0.795216	0.414407
H739	H	1.201432	-0.545216	0.664407
H740	H	1.451432	-0.295216	0.914407
H741	H	0.701225	-0.387698	0.164339
H742	H	0.951225	-0.137698	0.414339
H743	H	1.201225	0.112302	0.664339
H744	H	1.451225	0.362302	0.914339
C745	C	0.709475	-0.479507	0.156147
C746	C	0.959475	-0.229507	0.406147
C747	C	1.209475	0.020493	0.656147
C748	C	1.459475	0.270493	0.906147
H749	H	0.726584	-0.458806	0.139049
H750	H	0.976584	-0.208806	0.389049
H751	H	1.226584	0.041194	0.639049
H752	H	1.476584	0.291194	0.889049
H753	H	0.729047	-0.497791	0.173347
H754	H	0.979047	-0.247791	0.423347
H755	H	1.229047	0.002209	0.673347
H756	H	1.479047	0.252209	0.923347
H757	H	0.692305	-0.497827	0.136556
H758	H	0.942305	-0.247827	0.386556
H759	H	1.192305	0.002173	0.636556
H760	H	1.442305	0.252173	0.886556
H761	H	0.036472	-0.135991	0.297458
H762	H	0.286472	0.114009	0.547458
H763	H	0.536472	0.364009	0.797458
H764	H	0.786472	0.614009	1.047458
C765	C	0.738293	-0.695317	0.127466
C766	C	0.988293	-0.445317	0.377466
C767	C	1.238293	-0.195317	0.627466
C768	C	1.488293	0.054683	0.877466
H769	H	0.755402	-0.674615	0.110369
H770	H	1.005402	-0.424615	0.360369
H771	H	1.255402	-0.174615	0.610369
H772	H	1.505402	0.075385	0.860369
H773	H	0.757864	-0.713603	0.144663
H774	H	1.007864	-0.463603	0.394663
H775	H	1.257864	-0.213603	0.644663
H776	H	1.507864	0.036397	0.894663
H777	H	0.721122	-0.713634	0.107873
H778	H	0.971122	-0.463634	0.357873
H779	H	1.221122	-0.213634	0.607873
H780	H	1.471122	0.036366	0.857873
C781	C	-0.087550	-0.156502	0.276903
C782	C	0.162450	0.093498	0.526903
C783	C	0.412450	0.343498	0.776903
C784	C	0.662450	0.593498	1.026903
H785	H	-0.108237	-0.139420	0.294039
H786	H	0.141763	0.110580	0.544039
H787	H	0.391763	0.360580	0.794039
H788	H	0.641763	0.610580	1.044039
H789	H	-0.069245	-0.173709	0.296450
H790	H	0.180755	0.076291	0.546450
H791	H	0.430755	0.326291	0.796450
H792	H	0.680755	0.576291	1.046450
H793	H	-0.069250	-0.136896	0.259750
H794	H	0.180750	0.113104	0.509750
H795	H	0.430750	0.363104	0.759750
H796	H	0.680750	0.613104	1.009750
H797	H	0.701407	-0.960093	0.164394
H798	H	0.951407	-0.710093	0.414394
H799	H	1.201407	-0.460093	0.664394
H800	H	1.451407	-0.210093	0.914394
C801	C	0.128283	-0.127775	0.305676
C802	C	0.378283	0.122225	0.555676
C803	C	0.628283	0.372225	0.805676
C804	C	0.878283	0.622225	1.055676
H805	H	0.107594	-0.110694	0.322812
H806	H	0.357594	0.139306	0.572812
H807	H	0.607594	0.389306	0.822812
H808	H	0.857594	0.639306	1.072812
H809	H	0.146591	-0.144979	0.325222
H810	H	0.396591	0.105021	0.575222
H811	H	0.646591	0.355021	0.825222
H812	H	0.896591	0.605021	1.075222
H813	H	0.146580	-0.108167	0.288521
H814	H	0.396580	0.141833	0.538521
H815	H	0.646580	0.391833	0.788521
H816	H	0.896580	0.641833	1.038521
C817	C	0.738123	-0.305813	0.597025
C818	C	0.988123	-0.055813	0.847025
C819	C	1.238123	0.194187	1.097025
C820	C	1.488123	0.444187	1.347025
H821	H	0.755219	-0.322929	0.617718
H822	H	1.005219	-0.072929	0.867718
H823	H	1.255219	0.177071	1.117718
H824	H	1.505219	0.427071	1.367718
H825	H	0.720923	-0.325380	0.578711
H826	H	0.970923	-0.075380	0.828711
H827	H	1.220923	0.174620	1.078711
H828	H	1.470923	0.424620	1.328711
H829	H	0.757716	-0.288636	0.578734
H830	H	1.007716	-0.038636	0.828734
H831	H	1.257716	0.211364	1.078734
H832	H	1.507716	0.461364	1.328734
C833	C	0.484856	-0.156398	0.276878
C834	C	0.734856	0.093602	0.526878
C835	C	0.984856	0.343602	0.776878
C836	C	1.234856	0.593602	1.026878
H837	H	0.464177	-0.139314	0.294023
H838	H	0.714177	0.110686	0.544023
H839	H	0.964177	0.360686	0.794023
H840	H	1.214177	0.610686	1.044023
H841	H	0.503162	-0.173613	0.296416
H842	H	0.753162	0.076387	0.546416
H843	H	1.003162	0.326387	0.796416
H844	H	1.253162	0.576387	1.046416
H845	H	0.503156	-0.136791	0.259724
H846	H	0.753156	0.113209	0.509724
H847	H	1.003156	0.363209	0.759724
H848	H	1.253156	0.613209	1.009724
H849	H	-0.094296	-0.268797	0.164232
H850	H	0.155704	-0.018797	0.414232
H851	H	0.405704	0.231203	0.664232
H852	H	0.655704	0.481203	0.914232
C853	C	0.588894	-1.051946	0.276764
C854	C	0.838894	-0.801946	0.526764
C855	C	1.088894	-0.551946	0.776764
C856	C	1.338894	-0.301946	1.026764
H857	H	0.571770	-1.031257	0.293859
H858	H	0.821770	-0.781257	0.543859
H859	H	1.071770	-0.531257	0.793859
H860	H	1.321770	-0.281257	1.043859
H861	H	0.569334	-1.070268	0.259566
H862	H	0.819334	-0.820268	0.509566
H863	H	1.069334	-0.570268	0.759566
H864	H	1.319334	-0.320268	1.009566
H865	H	0.606074	-1.070228	0.296359
H866	H	0.856074	-0.820228	0.546359
H867	H	1.106074	-0.570228	0.796359
H868	H	1.356074	-0.320228	1.046359
C869	C	0.386331	-0.156414	0.276884
C870	C	0.636331	0.093586	0.526884
C871	C	0.886331	0.343586	0.776884
C872	C	1.136331	0.593586	1.026884
H873	H	0.407033	-0.139329	0.294025
H874	H	0.657033	0.110671	0.544025
H875	H	0.907033	0.360671	0.794025
H876	H	1.157033	0.610671	1.044025
H877	H	0.368023	-0.136817	0.259740
H878	H	0.618023	0.113183	0.509740
H879	H	0.868023	0.363183	0.759740
H880	H	1.118023	0.613183	1.009740
H881	H	0.368035	-0.173637	0.296433
H882	H	0.618035	0.076363	0.546433
H883	H	0.868035	0.326363	0.796433
H884	H	1.118035	0.576363	1.046433
C885	C	0.588824	-0.156340	1.052129
C886	C	0.838824	0.093660	1.302129
C887	C	1.088824	0.343660	1.552129
C888	C	1.338824	0.593660	1.802129
H889	H	0.592933	-0.160463	1.083430
H890	H	0.842933	0.089537	1.333430
H891	H	1.092933	0.339537	1.583430
H892	H	1.342933	0.589537	1.833430
H893	H	0.595410	-0.126153	1.044456
H894	H	0.845410	0.123847	1.294456
H895	H	1.095410	0.373847	1.544456
H896	H	1.345410	0.623847	1.794456
H897	H	0.558635	-0.162916	1.044428
H898	H	0.808635	0.087084	1.294428
H899	H	1.058635	0.337084	1.544428
H900	H	1.308635	0.587084	1.794428
C901	C	0.128192	-0.305656	0.127235
C902	C	0.378192	-0.055656	0.377235
C903	C	0.628192	0.194344	0.627235
C904	C	0.878192	0.444344	0.877235
H905	H	0.107487	-0.322746	0.110102
H906	H	0.357487	-0.072746	0.360102
H907	H	0.607487	0.177254	0.610102
H908	H	0.857487	0.427254	0.860102
H909	H	0.146493	-0.288444	0.107686
H910	H	0.396493	-0.038444	0.357686
H911	H	0.646493	0.211556	0.607686
H912	H	0.896493	0.461556	0.857686
H913	H	0.146493	-0.325256	0.144387
H914	H	0.396493	-0.075256	0.394387
H915	H	0.646493	0.174744	0.644387
H916	H	0.896493	0.424744	0.894387
C917	C	0.709444	-0.277054	0.479737
C918	C	0.959444	-0.027054	0.729737
C919	C	1.209444	0.222946	0.979737
C920	C	1.459444	0.472946	1.229737
H921	H	0.726542	-0.294172	0.459046
H922	H	0.976542	-0.044172	0.709046
H923	H	1.226542	0.205828	0.959046
H924	H	1.476542	0.455828	1.209046
H925	H	0.729028	-0.259876	0.498052
H926	H	0.979028	-0.009876	0.748052
H927	H	1.229028	0.240124	0.998052
H928	H	1.479028	0.490124	1.248052
H929	H	0.692241	-0.296627	0.498028
H930	H	0.942241	-0.046627	0.748028
H931	H	1.192241	0.203373	0.998028
H932	H	1.442241	0.453373	1.248028
C933	C	0.588872	-0.156336	0.381204
C934	C	0.838872	0.093664	0.631204
C935	C	1.088872	0.343664	0.881204
C936	C	1.338872	0.593664	1.131204
H937	H	0.592987	-0.160448	0.349901
H938	H	0.842987	0.089552	0.599901
H939	H	1.092987	0.339552	0.849901
H940	H	1.342987	0.589552	1.099901
H941	H	0.558682	-0.162898	0.388883
H942	H	0.808682	0.087102	0.638883
H943	H	1.058682	0.337102	0.888883
H944	H	1.308682	0.587102	1.138883
H945	H	0.595474	-0.126153	0.388905
H946	H	0.845474	0.123847	0.638905
H947	H	1.095474	0.373847	0.888905
H948	H	1.345474	0.623847	1.138905
H949	H	0.036385	-0.297475	0.135466
H950	H	0.286385	-0.047475	0.385466
H951	H	0.536385	0.202525	0.635466
H952	H	0.786385	0.452525	0.885466
H953	H	0.177144	-0.297438	0.135454
H954	H	0.427144	-0.047438	0.385454
H955	H	0.677144	0.202562	0.635454
H956	H	0.927144	0.452562	0.885454
H957	H	0.597083	-0.960131	0.268559
H958	H	0.847083	-0.710131	0.518559
H959	H	1.097083	-0.460131	0.768559
H960	H	1.347083	-0.210131	1.018559
H961	H	0.568300	-0.829420	0.297251
H962	H	0.818300	-0.579420	0.547251
H963	H	1.068300	-0.329420	0.797251
H964	H	1.318300	-0.079420	1.047251
C965	C	0.588719	-0.479559	0.276713
C966	C	0.838719	-0.229559	0.526713
C967	C	1.088719	0.020441	0.776713
C968	C	1.338719	0.270441	1.026713
H969	H	0.571592	-0.458872	0.293807
H970	H	0.821592	-0.208872	0.543807
H971	H	1.071592	0.041128	0.793807
H972	H	1.321592	0.291128	1.043807
H973	H	0.569162	-0.497886	0.259516
H974	H	0.819162	-0.247886	0.509516
H975	H	1.069162	0.002114	0.759516
H976	H	1.319162	0.252114	1.009516
H977	H	0.605903	-0.497837	0.296308
H978	H	0.855903	-0.247837	0.546308
H979	H	1.105903	0.002163	0.796308
H980	H	1.355903	0.252163	1.046308
C981	C	0.588690	-0.381029	0.276702
C982	C	0.838690	-0.131029	0.526702
C983	C	1.088690	0.118971	0.776702
C984	C	1.338690	0.368971	1.026702
H985	H	0.592803	-0.349726	0.272588
H986	H	0.842803	-0.099726	0.522588
H987	H	1.092803	0.150274	0.772588
H988	H	1.342803	0.400274	1.022588
H989	H	0.558510	-0.388738	0.270106
H990	H	0.808510	-0.138738	0.520106
H991	H	1.058510	0.111262	0.770106
H992	H	1.308510	0.361262	1.020106
H993	H	0.595253	-0.388702	0.306895
H994	H	0.845253	-0.138702	0.556895
H995	H	1.095253	0.111298	0.806895
H996	H	1.345253	0.361298	1.056895
H997	H	0.730097	-0.744258	0.135676
H998	H	0.980097	-0.494258	0.385676
H999	H	1.230097	-0.244258	0.635676
H1000	H	1.480097	0.005742	0.885676
H1001	H	0.568276	-0.744313	0.297242
H1002	H	0.818276	-0.494313	0.547242
H1003	H	1.068276	-0.244313	0.797242
H1004	H	1.318276	0.005687	1.047242
C1005	C	0.588860	-0.156334	0.479721
C1006	C	0.838860	0.093666	0.729721
C1007	C	1.088860	0.343666	0.979721
C1008	C	1.338860	0.593666	1.229721
H1009	H	0.571770	-0.139214	0.459025
H1010	H	0.821770	0.110786	0.709025
H1011	H	1.071770	0.360786	0.959025
H1012	H	1.321770	0.610786	1.209025
H1013	H	0.569267	-0.173505	0.498014
H1014	H	0.819267	0.076495	0.748014
H1015	H	1.069267	0.326495	0.998014
H1016	H	1.319267	0.576495	1.248014
H1017	H	0.606063	-0.136763	0.498032
H1018	H	0.856063	0.113237	0.748032
H1019	H	1.106063	0.363237	0.998032
H1020	H	1.356063	0.613237	1.248032
C1021	C	0.560129	-0.127598	0.836296
C1022	C	0.810129	0.122402	1.086296
C1023	C	1.060129	0.372402	1.336296
C1024	C	1.310129	0.622402	1.586296
H1025	H	0.543033	-0.110475	0.815609
H1026	H	0.793033	0.139525	1.065609
H1027	H	1.043033	0.389525	1.315609
H1028	H	1.293033	0.639525	1.565609
H1029	H	0.540543	-0.144778	0.854589
H1030	H	0.790543	0.105222	1.104589
H1031	H	1.040543	0.355222	1.354589
H1032	H	1.290543	0.605222	1.604589
H1033	H	0.577333	-0.108030	0.854609
H1034	H	0.827333	0.141970	1.104609
H1035	H	1.077333	0.391970	1.354609
H1036	H	1.327333	0.641970	1.604609
C1037	C	0.560143	-0.127594	0.597030
C1038	C	0.810143	0.122406	0.847030
C1039	C	1.060143	0.372406	1.097030
C1040	C	1.310143	0.622406	1.347030
H1041	H	0.543045	-0.110481	0.617725
H1042	H	0.793045	0.139519	0.867725
H1043	H	1.043045	0.389519	1.117725
H1044	H	1.293045	0.639519	1.367725
H1045	H	0.577341	-0.108024	0.578736
H1046	H	0.827341	0.141976	0.828736
H1047	H	1.077341	0.391976	1.078736
H1048	H	1.327341	0.641976	1.328736
H1049	H	0.540552	-0.144773	0.578719
H1050	H	0.790552	0.105227	0.828719
H1051	H	1.040552	0.355227	1.078719
H1052	H	1.290552	0.605227	1.328719
C1053	C	0.588832	-0.156332	0.953602
C1054	C	0.838832	0.093668	1.203602
C1055	C	1.088832	0.343668	1.453602
C1056	C	1.338832	0.593668	1.703602
H1057	H	0.571734	-0.139218	0.974295
H1058	H	0.821734	0.110782	1.224295
H1059	H	1.071734	0.360782	1.474295
H1060	H	1.321734	0.610782	1.724295
H1061	H	0.606027	-0.136764	0.935305
H1062	H	0.856027	0.113236	1.185305
H1063	H	1.106027	0.363236	1.435305
H1064	H	1.356027	0.613236	1.685305
H1065	H	0.569241	-0.173515	0.935294
H1066	H	0.819241	0.076485	1.185294
H1067	H	1.069241	0.326485	1.435294
H1068	H	1.319241	0.576485	1.685294
H1069	H	0.568340	-0.135806	0.688837
H1070	H	0.818340	0.114194	0.938837
H1071	H	1.068340	0.364194	1.188837
H1072	H	1.318340	0.614194	1.438837
H1073	H	0.701210	-0.268835	1.045421
H1074	H	0.951210	-0.018835	1.295421
H1075	H	1.201210	0.231165	1.545421
H1076	H	1.451210	0.481165	1.795421
C1077	C	0.738113	-0.305804	0.836295
C1078	C	0.988113	-0.055804	1.086295
C1079	C	1.238113	0.194196	1.336295
C1080	C	1.488113	0.444196	1.586295
H1081	H	0.755207	-0.322924	0.815601
H1082	H	1.005207	-0.072924	1.065601
H1083	H	1.255207	0.177076	1.315601
H1084	H	1.505207	0.427076	1.565601
H1085	H	0.757703	-0.288633	0.854611
H1086	H	1.007703	-0.038633	1.104611
H1087	H	1.257703	0.211367	1.354611
H1088	H	1.507703	0.461367	1.604611
H1089	H	0.720906	-0.325374	0.854584
H1090	H	0.970906	-0.075374	1.104584
H1091	H	1.220906	0.174626	1.354584
H1092	H	1.470906	0.424626	1.604584
C1093	C	-0.186065	-0.156523	0.276902
C1094	C	0.063935	0.093477	0.526902
C1095	C	0.313935	0.343477	0.776902
C1096	C	0.563935	0.593477	1.026902
H1097	H	-0.165364	-0.139439	0.294045
H1098	H	0.084636	0.110561	0.544045
H1099	H	0.334636	0.360561	0.794045
H1100	H	0.584636	0.610561	1.044045
H1101	H	-0.204369	-0.136924	0.259755
H1102	H	0.045631	0.113076	0.509755
H1103	H	0.295631	0.363076	0.759755
H1104	H	0.545631	0.613076	1.009755
H1105	H	-0.204365	-0.173744	0.296448
H1106	H	0.045635	0.076256	0.546448
H1107	H	0.295635	0.326256	0.796448
H1108	H	0.545635	0.576256	1.046448
C1109	C	0.738117	-0.305818	0.695539
C1110	C	0.988117	-0.055818	0.945539
C1111	C	1.238117	0.194182	1.195539
C1112	C	1.488117	0.444182	1.445539
H1113	H	0.755207	-0.322939	0.674843
H1114	H	1.005207	-0.072939	0.924843
H1115	H	1.255207	0.177061	1.174843
H1116	H	1.505207	0.427061	1.424843
H1117	H	0.757710	-0.288651	0.713855
H1118	H	1.007710	-0.038651	0.963855
H1119	H	1.257710	0.211349	1.213855
H1120	H	1.507710	0.461349	1.463855
H1121	H	0.720909	-0.325387	0.713827
H1122	H	0.970909	-0.075387	0.963827
H1123	H	1.220909	0.174613	1.213827
H1124	H	1.470909	0.424613	1.463827
