data_functionalizedCrystal
_audit_creation_method	'MofGen! by Chris Wilmer'
_symmetry_space_group_name_H-M	'P1'
_symmetry_Int_Tables_number	1
_symmetry_cell_setting	triclinic
loop_
_symmetry_equiv_pos_as_xyz
  x,y,z
_cell_length_a	29.839134
_cell_length_b	12.759400
_cell_length_c	12.759393
_cell_angle_alpha	89.974659
_cell_angle_beta	89.966250
_cell_angle_gamma	89.995794
loop_
_atom_site_label
_atom_site_type_symbol
_atom_site_fract_x
_atom_site_fract_y
_atom_site_fract_z
Zn1	Zn	0.686881	-0.418407	-0.594454
Zn2	Zn	0.686851	-0.594126	-0.418794
Zn3	Zn	0.611752	-0.418440	-0.418747
Zn4	Zn	0.611762	-0.594023	-0.594388
O5	O	0.649312	-0.506249	-0.506596
O6	O	0.749744	-0.441747	-0.571200
O7	O	0.676872	-0.570878	-0.271766
O8	O	0.621726	-0.271414	-0.442063
O9	O	0.749723	-0.570847	-0.442142
O10	O	0.676923	-0.271391	-0.571155
O11	O	0.621697	-0.441802	-0.271732
O12	O	0.548886	-0.441701	-0.441999
O13	O	0.621744	-0.570670	-0.741418
O14	O	0.548894	-0.570701	-0.571042
O15	O	0.676933	-0.441646	-0.741467
O16	O	0.676883	-0.741134	-0.442078
O17	O	0.621715	-0.741057	-0.571087
C18	C	0.532589	-0.506194	-0.506509
C19	C	0.482655	-0.506196	-0.506497
C20	C	0.126051	-0.438979	-0.439540
C21	C	0.313724	-0.438950	-0.439477
O22	O	0.337975	-0.381710	-0.382450
N23	N	0.337210	-0.506213	-0.506549
C24	C	0.313774	-0.573484	-0.573648
O25	O	0.338056	-0.630688	-0.630704
C26	C	0.126102	-0.573508	-0.573716
C27	C	0.102619	-0.506247	-0.506631
C28	C	0.102568	-0.371724	-0.372462
C29	C	0.055652	-0.371736	-0.372474
C30	C	0.032220	-0.439004	-0.439565
C31	C	0.055703	-0.506259	-0.506644
C32	C	0.102667	-0.640773	-0.640819
C33	C	0.055746	-0.640771	-0.640832
C34	C	0.032263	-0.573510	-0.573748
C35	C	-0.014645	-0.573540	-0.573748
N36	N	-0.038130	-0.506276	-0.506675
C37	C	-0.014698	-0.439008	-0.439584
C38	C	0.412304	-0.573469	-0.573606
C39	C	0.459222	-0.573464	-0.573588
C40	C	0.459169	-0.438928	-0.439417
C41	C	0.412251	-0.438938	-0.439431
C42	C	0.388819	-0.506205	-0.506533
C43	C	-0.113224	-0.439039	-0.439615
C44	C	-0.160143	-0.439060	-0.439630
C45	C	-0.160086	-0.573592	-0.573804
C46	C	-0.113171	-0.573575	-0.573785
C47	C	-0.089740	-0.506290	-0.506687
O48	O	-0.038924	-0.630741	-0.630753
O49	O	-0.038988	-0.381797	-0.382553
C50	C	0.172966	-0.438967	-0.439528
C51	C	0.196450	-0.506223	-0.506606
C52	C	0.173017	-0.573491	-0.573697
C53	C	0.243367	-0.506219	-0.506588
C54	C	0.266800	-0.438951	-0.439497
C55	C	0.243314	-0.371687	-0.372424
C56	C	0.196399	-0.371699	-0.372437
C57	C	0.196503	-0.640755	-0.640770
C58	C	0.243418	-0.640738	-0.640752
C59	C	0.266850	-0.573470	-0.573660
C60	C	0.649309	-0.779216	-0.506604
C61	C	0.649349	-0.895993	-0.506642
C62	C	0.649343	-0.506143	-0.780629
C63	C	0.649357	-0.506098	-0.897406
C64	C	0.766490	-0.506305	-0.506684
C65	C	0.816424	-0.506328	-0.506721
C66	C	0.649327	-0.232216	-0.506611
C67	C	0.649333	-0.115439	-0.506617
C68	C	0.620601	-0.060588	-0.439410
C69	C	0.620607	0.049136	-0.439425
C70	C	0.678083	0.049148	-0.573857
C71	C	0.678074	-0.060574	-0.573847
C72	C	0.587419	-0.060594	-0.361793
C73	C	0.587425	0.049130	-0.361808
C74	C	0.678098	-0.438909	-0.952295
C75	C	0.678108	-0.438871	-1.062019
C76	C	0.620635	-0.573220	-1.061956
C77	C	0.620623	-0.573252	-0.952233
C78	C	0.711281	-0.361346	-0.952333
C79	C	0.711292	-0.361308	-1.062057
C80	C	0.649306	-0.506279	-0.233628
C81	C	0.649380	-0.506028	-0.116852
H82	H	0.478256	-0.384157	-0.384788
Cl83	Cl	-0.083776	-0.354454	-0.355259
Cl84	Cl	0.584515	-0.657638	-1.130889
Cl85	Cl	0.714186	-0.129527	-0.658363
H86	H	0.701482	0.093831	-0.628594
H87	H	0.698836	-0.283996	-1.096088
Cl88	Cl	0.584482	-0.657705	-0.883233
H89	H	0.701965	-0.279979	-0.922562
Cl90	Cl	0.272934	-0.725308	-0.725091
Cl91	Cl	0.762298	-0.406390	-0.899812
Cl92	Cl	0.765014	-0.394955	-1.108078
H93	H	-0.179261	-0.384287	-0.384998
H94	H	0.554377	0.083190	-0.390928
H95	H	0.036537	-0.316965	-0.317847
Cl96	Cl	0.533701	-0.106529	-0.395389
H97	H	0.121642	-0.316940	-0.317828
Cl98	Cl	0.382734	-0.354378	-0.355095
Cl99	Cl	0.606646	-0.113200	-0.242474
H100	H	0.596740	0.078876	-0.280449
H101	H	0.478338	-0.628246	-0.628204
Cl102	Cl	0.382854	-0.658046	-0.657967
H103	H	0.036670	-0.695545	-0.695480
Cl104	Cl	0.132177	-0.725333	-0.725162
H105	H	-0.179173	-0.628364	-0.628424
Cl106	Cl	-0.083648	-0.658143	-0.658110
H107	H	0.262401	-0.316919	-0.317792
Cl108	Cl	0.166884	-0.287135	-0.288100
H109	H	0.177429	-0.695533	-0.695406
