data_functionalizedCrystal
_audit_creation_method	'MofGen! by Chris Wilmer'
_symmetry_space_group_name_H-M	'P1'
_symmetry_Int_Tables_number	1
_symmetry_cell_setting	triclinic
loop_
_symmetry_equiv_pos_as_xyz
  x,y,z
_cell_length_a	19.805407
_cell_length_b	18.215405
_cell_length_c	18.215407
_cell_angle_alpha	89.985182
_cell_angle_beta	90.011037
_cell_angle_gamma	89.975115
loop_
_atom_site_label
_atom_site_type_symbol
_atom_site_fract_x
_atom_site_fract_y
_atom_site_fract_z
Zn1	Zn	1.034686	0.293106	0.416118
Zn2	Zn	1.034621	0.416144	0.293046
Zn3	Zn	0.921517	0.293095	0.293064
Zn4	Zn	0.921467	0.416135	0.416069
O5	O	0.978073	0.354620	0.354574
O6	O	1.129394	0.309435	0.399805
O7	O	1.019611	0.399820	0.190064
O8	O	0.936578	0.190113	0.309415
O9	O	1.129346	0.399830	0.309385
O10	O	1.019722	0.190120	0.399822
O11	O	0.936514	0.309417	0.190077
O12	O	0.826794	0.309409	0.309368
O13	O	0.936492	0.399816	0.519060
O14	O	0.826757	0.399806	0.399739
O15	O	1.019673	0.309427	0.519096
O16	O	1.019562	0.519127	0.309338
O17	O	0.936429	0.519121	0.399722
C18	C	0.978001	0.545826	0.354539
C19	C	0.978033	0.627625	0.354548
C20	C	0.802217	0.354606	0.354551
C21	C	0.726985	0.354618	0.354558
C22	C	0.978084	0.354622	0.546527
C23	C	0.978089	0.354623	0.628326
C24	C	0.691639	0.401758	0.401538
C25	C	0.620951	0.401760	0.401549
C26	C	0.585609	0.354624	0.354574
C27	C	0.620960	0.307478	0.307592
C28	C	0.691647	0.307473	0.307586
C29	C	0.335886	0.307494	0.307616
C30	C	0.265194	0.307504	0.307624
C31	C	0.265190	0.401780	0.401579
C32	C	0.335877	0.401776	0.401573
C33	C	0.371222	0.354628	0.354594
C34	C	0.447870	0.354626	0.354584
C35	C	0.508962	0.354628	0.354580
C36	C	1.154615	0.354635	0.354599
C37	C	1.229847	0.354641	0.354609
C38	C	0.978163	0.162667	0.354626
C39	C	0.978201	0.080868	0.354648
C40	C	1.021422	0.815798	0.307572
C41	C	1.021452	0.892657	0.307590
C42	C	0.934810	0.892690	0.401630
C43	C	0.934784	0.815833	0.401615
C44	C	0.978089	0.777389	0.354582
C45	C	0.978145	0.931105	0.354614
C46	C	0.978178	1.014438	0.354634
C47	C	0.978057	0.694050	0.354563
C48	C	1.021388	0.307565	0.816540
C49	C	1.021385	0.307565	0.893399
C50	C	0.934768	0.401692	0.893350
C51	C	0.934769	0.401688	0.816493
C52	C	0.978083	0.354625	0.778090
C53	C	0.978078	0.354629	0.931806
C54	C	0.978074	0.354629	1.015139
C55	C	0.978087	0.354624	0.694751
C56	C	0.978061	0.354634	1.163368
C57	C	0.978072	0.354632	1.081569
H58	H	0.592175	0.440147	0.439804
C59	C	1.068290	0.256376	0.935181
C60	C	1.029983	0.209191	0.979291
C61	C	1.073169	0.162015	1.017782
H62	H	1.097782	0.284441	0.965225
H63	H	1.094070	0.228306	0.901321
H64	H	1.004215	0.237258	1.013147
H65	H	1.000493	0.181110	0.949265
H66	H	1.098949	0.133945	0.983921
H67	H	1.102659	0.190085	1.047821
H68	H	1.047184	0.129990	1.047709
H69	H	0.364649	0.440161	0.439822
H70	H	0.899497	0.784558	0.439900
C71	C	0.374337	0.256429	0.256562
C72	C	0.414907	0.298017	0.209322
C73	C	0.450345	0.250998	0.162284
H74	H	0.343238	0.228346	0.228517
H75	H	0.401968	0.224413	0.284746
H76	H	0.387278	0.330020	0.181141
H77	H	0.446018	0.326098	0.237346
H78	H	0.477976	0.218982	0.190468
H79	H	0.419241	0.222918	0.134244
H80	H	0.477880	0.279208	0.130231
C81	C	0.887900	0.934527	0.452729
C82	C	0.926203	0.978613	0.499934
C83	C	0.883010	1.017168	0.547009
H84	H	0.862073	0.900728	0.480796
H85	H	0.858451	0.964588	0.424569
H86	H	0.955641	0.948554	0.528091
H87	H	0.952029	1.012425	0.471887
H88	H	0.853561	1.047230	0.518849
H89	H	0.857185	0.983364	0.575071
H90	H	0.908992	1.047090	0.579038
H91	H	0.236404	0.440168	0.439835
C92	C	0.887821	0.452762	0.935179
C93	C	0.897101	0.442709	1.010718
C94	C	0.853872	0.489751	1.049272
H95	H	0.842321	0.442036	0.922666
H96	H	0.897712	0.502224	0.922612
H97	H	0.887206	0.393258	1.023280
H98	H	0.942593	0.453440	1.023253
H99	H	0.863763	0.539213	1.036705
H100	H	0.808375	0.479021	1.036753
H101	H	0.860167	0.482941	1.100529
H102	H	0.592179	0.269096	0.269348
C103	C	0.887834	0.452909	0.774779
C104	C	0.902551	0.525727	0.793437
C105	C	0.859335	0.572928	0.755017
H106	H	0.842336	0.442236	0.787335
H107	H	0.894043	0.446213	0.723499
H108	H	0.896336	0.532420	0.844706
H109	H	0.948041	0.536423	0.780879
H110	H	0.865545	0.566232	0.703737
H111	H	0.813840	0.562248	0.767576
H112	H	0.869319	0.622340	0.767666
H113	H	0.720409	0.440144	0.439788
C114	C	1.068524	0.934225	0.256467
C115	C	1.106428	0.884104	0.215264
C116	C	1.149794	0.922369	0.168154
H117	H	1.098067	0.964170	0.284572
H118	H	1.042680	0.964230	0.224341
H119	H	1.132270	0.854112	0.247386
H120	H	1.076903	0.854158	0.187144
H121	H	1.123950	0.952374	0.136029
H122	H	1.179333	0.952313	0.196266
H123	H	1.175513	0.888368	0.140188
C124	C	1.068434	0.256384	0.774977
C125	C	1.106344	0.215157	0.825105
C126	C	1.149682	0.167992	0.786846
H127	H	1.097975	0.284451	0.744990
H128	H	1.042570	0.224277	0.745015
H129	H	1.132206	0.247260	0.855054
H130	H	1.076821	0.187075	0.855093
H131	H	1.123818	0.135885	0.756885
H132	H	1.179219	0.196064	0.756861
H133	H	1.175405	0.140008	0.820852
H134	H	0.720424	0.269083	0.269333
H135	H	0.236421	0.269115	0.269372
H136	H	1.056684	0.784498	0.269276
