data_functionalizedCrystal
_audit_creation_method	'MofGen! by Chris Wilmer'
_symmetry_space_group_name_H-M	'P1'
_symmetry_Int_Tables_number	1
_symmetry_cell_setting	triclinic
loop_
_symmetry_equiv_pos_as_xyz
  x,y,z
_cell_length_a	16.120530
_cell_length_b	19.121063
_cell_length_c	16.120297
_cell_angle_alpha	95.179432
_cell_angle_beta	90.128140
_cell_angle_gamma	89.687057
loop_
_atom_site_label
_atom_site_type_symbol
_atom_site_fract_x
_atom_site_fract_y
_atom_site_fract_z
Zn1	Zn	1.228532	-0.355748	-0.551587
Zn2	Zn	1.728532	0.144252	-0.051587
Zn3	Zn	1.229542	-0.467532	-0.417878
Zn4	Zn	1.729542	0.032468	0.082122
Zn5	Zn	1.097153	-0.343883	-0.404937
Zn6	Zn	1.597153	0.156117	0.095063
Zn7	Zn	1.083532	-0.466885	-0.549816
Zn8	Zn	1.583532	0.033115	-0.049816
O9	O	1.159690	-0.408512	-0.481054
O10	O	1.659690	0.091488	0.018946
O11	O	1.344754	-0.375813	-0.540007
O12	O	1.844754	0.124187	-0.040007
O13	O	1.218103	-0.446434	-0.299571
O14	O	1.718103	0.053566	0.200429
O15	O	1.119859	-0.247198	-0.419716
O16	O	1.619859	0.252802	0.080284
O17	O	1.345496	-0.457940	-0.441771
O18	O	1.845496	0.042060	0.058229
O19	O	1.216382	-0.255916	-0.527458
O20	O	1.716382	0.244084	-0.027458
O21	O	1.120838	-0.355590	-0.290063
O22	O	1.620838	0.144410	0.209937
O23	O	0.979258	-0.354963	-0.417999
O24	O	1.479258	0.145037	0.082001
O25	O	1.096644	-0.456838	-0.666641
O26	O	1.596644	0.043162	-0.166641
O27	O	0.969251	-0.445332	-0.524441
O28	O	1.469251	0.054668	-0.024441
O29	O	1.203175	-0.375186	-0.667942
O30	O	1.703175	0.124814	-0.167942
O31	O	1.204895	-0.565705	-0.440054
O32	O	1.704895	-0.065705	0.059946
O33	O	1.097623	-0.565230	-0.536989
O34	O	1.597623	-0.065230	-0.036989
C35	C	0.944155	-0.398790	-0.469624
C36	C	1.444155	0.101210	0.030376
C37	C	0.851946	-0.394649	-0.464754
C38	C	1.351946	0.105351	0.035246
C39	C	0.683119	-0.387072	-0.455870
C40	C	1.183119	0.112928	0.044130
C41	C	0.637096	-0.430006	-0.506302
C42	C	1.137096	0.069994	-0.006302
C43	C	0.543155	-0.425790	-0.501358
C44	C	1.043155	0.074210	-0.001358
C45	C	0.777068	-0.391287	-0.460812
C46	C	1.277068	0.108713	0.039188
C47	C	1.149912	-0.590946	-0.489753
C48	C	1.649912	-0.090946	0.010247
C49	C	1.145804	-0.668997	-0.493506
C50	C	1.645804	-0.168997	0.006494
C51	C	1.199763	-0.705893	-0.444847
C52	C	1.699763	-0.205893	0.055153
C53	C	1.195904	-0.779230	-0.448382
C54	C	1.695904	-0.279230	0.051618
C55	C	1.138080	-0.815670	-0.500573
C56	C	1.638080	-0.315670	-0.000573
C57	C	1.084118	-0.778769	-0.549237
C58	C	1.584118	-0.278769	-0.049237
C59	C	1.087982	-0.705433	-0.545706
C60	C	1.587982	-0.205433	-0.045706
C61	C	1.123621	-1.037085	-0.513761
C62	C	1.623621	-0.537085	-0.013761
C63	C	1.119760	-1.110426	-0.517287
C64	C	1.619760	-0.610426	-0.017287
C65	C	1.231547	-1.110882	-0.416433
C66	C	1.731547	-0.610882	0.083567
C67	C	1.235403	-1.037545	-0.412903
C68	C	1.735403	-0.537545	0.087097
C69	C	1.181443	-1.000650	-0.461570
C70	C	1.681443	-0.500650	0.038430
C71	C	1.134132	-0.890632	-0.504185
C72	C	1.634132	-0.390632	-0.004185
C73	C	1.185396	-0.925690	-0.457962
C74	C	1.685396	-0.425690	0.042038
C75	C	1.376067	-0.418272	-0.492530
C76	C	1.876067	0.081728	0.007470
C77	C	1.468274	-0.422431	-0.497420
C78	C	1.968274	0.077569	0.002580
C79	C	1.148278	-0.417263	-0.698367
C80	C	1.648278	0.082737	-0.198367
C81	C	1.143414	-0.420993	-0.790973
C82	C	1.643414	0.079007	-0.290973
C83	C	1.169527	-0.225367	-0.472341
C84	C	1.669527	0.274633	0.027659
C85	C	1.173720	-0.147322	-0.468628
C86	C	1.673720	0.352678	0.031372
C87	C	1.134506	-0.427785	-0.960523
C88	C	1.634506	0.072215	-0.460523
C89	C	1.185049	-0.389036	-1.002436
C90	C	1.685049	0.110964	-0.502436
C91	C	1.180092	-0.392815	-1.096780
C92	C	1.680092	0.107185	-0.596780
C93	C	1.139461	-0.424006	-0.866171
C94	C	1.639461	0.075994	-0.366171
C95	C	1.171108	-0.399746	-0.264587
C96	C	1.671108	0.100254	0.235413
C97	C	1.176143	-0.395826	-0.171981
C98	C	1.676143	0.104174	0.328019
H99	H	1.246846	-0.676228	-0.402345
H100	H	1.746846	-0.176228	0.097655
N101	N	1.075558	-0.472966	-1.004378
N102	N	1.575558	0.027034	-0.504378
N103	N	1.078071	-0.537629	-0.998128
N104	N	1.578071	-0.037629	-0.498128
H105	H	1.036437	-0.569538	-1.029106
H106	H	1.536437	-0.069538	-0.529106
N107	N	0.676179	-0.480091	-0.565115
N108	N	1.176179	0.019909	-0.065115
N109	N	0.753543	-0.483491	-0.569094
N110	N	1.253543	0.016509	-0.069094
H111	H	0.781151	-0.518865	-0.610626
H112	H	1.281151	-0.018865	-0.110626
N113	N	0.644035	-0.336993	-0.397058
N114	N	1.144035	0.163007	0.102942
N115	N	0.566671	-0.333601	-0.393080
N116	N	1.066671	0.166399	0.106920
H117	H	0.539058	-0.298235	-0.351543
H118	H	1.039058	0.201765	0.148457
H119	H	1.239843	-0.809268	-0.408758
H120	H	1.739843	-0.309268	0.091242
H121	H	1.282487	-1.007877	-0.370405
H122	H	1.782487	-0.507877	0.129595
H123	H	1.275479	-1.140930	-0.376812
H124	H	1.775479	-0.640930	0.123188
N125	N	1.068511	-0.999411	-0.563485
N126	N	1.568511	-0.499411	-0.063485
N127	N	1.069489	-1.010923	-0.641049
N128	N	1.569489	-0.510923	-0.141049
H129	H	1.030565	-0.984315	-0.676171
H130	H	1.530565	-0.484315	-0.176171
N131	N	1.060680	-1.147638	-0.570599
N132	N	1.560680	-0.647638	-0.070599
N133	N	1.012504	-1.114689	-0.614043
N134	N	1.512504	-0.614689	-0.114043
H135	H	0.970777	-1.140969	-0.651690
H136	H	1.470777	-0.640969	-0.151690
N137	N	1.244010	-0.343854	-0.958588
N138	N	1.744010	0.156146	-0.458588
N139	N	1.241501	-0.279193	-0.964843
N140	N	1.741501	0.220807	-0.464843
H141	H	1.283143	-0.247285	-0.933874
H142	H	1.783143	0.252715	-0.433874
H143	H	1.037040	-0.808444	-0.591735
H144	H	1.537040	-0.308444	-0.091735
H145	H	1.044044	-0.675393	-0.585330
H146	H	1.544044	-0.175393	-0.085330
H147	H	1.232479	-0.896019	-0.415471
H148	H	1.732479	-0.396019	0.084529
N149	N	1.075064	-0.927868	-0.557479
N150	N	1.575064	-0.427868	-0.057479
N151	N	1.021619	-0.965280	-0.527283
N152	N	1.521619	-0.465280	-0.027283
H153	H	0.979903	-0.991582	-0.564922
H154	H	1.479903	-0.491582	-0.064922
