data_functionalizedCrystal
_audit_creation_method	'MofGen! by Chris Wilmer'
_symmetry_space_group_name_H-M	'P1'
_symmetry_Int_Tables_number	1
_symmetry_cell_setting	triclinic
loop_
_symmetry_equiv_pos_as_xyz
  x,y,z
_cell_length_a	13.897449
_cell_length_b	12.594516
_cell_length_c	12.594517
_cell_angle_alpha	90.011943
_cell_angle_beta	90.010642
_cell_angle_gamma	90.016879
loop_
_atom_site_label
_atom_site_type_symbol
_atom_site_fract_x
_atom_site_fract_y
_atom_site_fract_z
Zn1	Zn	1.474592	-0.423836	0.601908
Zn2	Zn	1.474527	-0.601802	0.423936
Zn3	Zn	1.313317	-0.423841	0.423934
Zn4	Zn	1.313268	-0.601776	0.601863
O5	O	1.393926	-0.512814	0.512910
O6	O	1.609565	-0.447453	0.578320
O7	O	1.453135	-0.578208	0.274990
O8	O	1.334759	-0.274894	0.447561
O9	O	1.609517	-0.578204	0.447565
O10	O	1.453247	-0.274891	0.578318
O11	O	1.334695	-0.447461	0.274988
O12	O	1.178329	-0.447435	0.447516
O13	O	1.334674	-0.578159	0.750814
O14	O	1.178293	-0.578163	0.578240
O15	O	1.453199	-0.447427	0.750848
O16	O	1.453087	-0.750745	0.447521
O17	O	1.334611	-0.750725	0.578242
C18	C	1.143312	-0.512797	0.512873
C19	C	1.036098	-0.512816	0.512883
C20	C	1.393863	-0.789355	0.512900
C21	C	1.393924	-0.907660	0.512931
C22	C	0.949028	-0.512820	0.512900
C23	C	0.839795	-0.512827	0.512933
C24	C	1.329478	-0.976941	0.583981
C25	C	1.305995	-1.047783	0.486857
C26	C	1.417496	-1.047618	0.610071
C27	C	1.370394	-0.976944	0.415756
C28	C	1.481936	-0.976772	0.539036
C29	C	1.458485	-1.047581	0.441845
C30	C	1.645519	-0.512831	0.512948
C31	C	1.752733	-0.512838	0.512964
C32	C	1.393938	-0.512790	0.790531
C33	C	1.393944	-0.512779	0.908837
C34	C	1.394016	-0.235193	0.512944
C35	C	1.394054	-0.116887	0.512958
C36	C	1.458402	-0.441702	1.048872
C37	C	1.481969	-0.538798	0.978055
C38	C	1.370421	-0.415694	0.978082
C39	C	1.417551	-0.609967	1.048805
C40	C	1.305962	-0.486798	1.048838
C41	C	1.329495	-0.583961	0.978054
C42	C	1.393916	-0.512849	1.236369
C43	C	1.393940	-0.512820	1.118064
H44	H	1.274882	-0.945923	0.643977
Cl45	Cl	1.448403	-0.736793	1.096562
H46	H	1.274983	-0.644155	0.947156
H47	H	1.556288	-0.945560	0.561140
Cl48	Cl	1.448195	-1.095552	0.736885
H49	H	1.231582	-0.464770	1.079955
H50	H	1.350423	-0.946028	0.333594
H51	H	1.513040	-1.078404	0.381703
H52	H	1.350528	-0.333574	0.947012
Cl53	Cl	1.596838	-0.572766	0.930049
Cl54	Cl	1.191169	-1.095938	0.452773
H55	H	1.512956	-0.381652	1.079965
