data_functionalizedCrystal
_audit_creation_method	'MofGen! by Chris Wilmer'
_symmetry_space_group_name_H-M	'P1'
_symmetry_Int_Tables_number	1
_symmetry_cell_setting	triclinic
loop_
_symmetry_equiv_pos_as_xyz
  x,y,z
_cell_length_a	12.759394
_cell_length_b	17.077404
_cell_length_c	17.077396
_cell_angle_alpha	89.980301
_cell_angle_beta	90.026316
_cell_angle_gamma	89.988094
loop_
_atom_site_label
_atom_site_type_symbol
_atom_site_fract_x
_atom_site_fract_y
_atom_site_fract_z
Zn1	Zn	-0.418349	-1.200099	0.443859
Zn2	Zn	-0.594049	-1.200024	0.312598
Zn3	Zn	-0.418376	-1.068830	0.312606
Zn4	Zn	-0.593977	-1.068817	0.443821
O5	O	-0.506188	-1.134442	0.378221
O6	O	-0.441674	-1.309936	0.426459
O7	O	-0.570787	-1.182595	0.202752
O8	O	-0.271351	-1.086280	0.330037
O9	O	-0.570761	-1.309881	0.330022
O10	O	-0.271331	-1.182722	0.426467
O11	O	-0.441721	-1.086208	0.202758
O12	O	-0.441651	-0.958982	0.330000
O13	O	-0.570638	-1.086257	0.553673
O14	O	-0.570665	-0.958972	0.426403
O15	O	-0.441605	-1.182709	0.553701
O16	O	-0.741061	-1.182582	0.329985
O17	O	-0.741008	-1.086185	0.426394
C18	C	-0.506154	-0.930495	0.378198
C19	C	-0.506164	-0.843245	0.378207
C20	C	-0.439068	-0.802284	0.428498
C21	C	-0.439073	-0.720303	0.428500
C22	C	-0.506181	-0.679285	0.378214
C23	C	-0.573280	-0.720252	0.327918
C24	C	-0.573269	-0.802231	0.327913
C25	C	-0.573300	-0.549382	0.327934
C26	C	-0.573313	-0.467397	0.327940
C27	C	-0.439104	-0.467454	0.428520
C28	C	-0.439093	-0.549433	0.428515
C29	C	-0.506194	-0.590394	0.378220
C30	C	-0.779155	-1.134395	0.378202
C31	C	-0.895932	-1.134447	0.378220
C32	C	-0.895934	-1.234901	0.277904
C33	C	-0.950795	-1.285148	0.227756
C34	C	-1.060517	-1.285194	0.227777
C35	C	-1.115379	-1.234989	0.277954
C36	C	-1.060518	-1.184742	0.328103
C37	C	-0.950794	-1.184700	0.328074
C38	C	-1.060516	-1.084293	0.428421
C39	C	-0.950794	-1.084242	0.428397
C40	C	-1.115378	-1.034088	0.478598
C41	C	-1.060517	-0.983835	0.528744
C42	C	-0.950788	-0.983791	0.528720
C43	C	-0.895933	-1.033994	0.478545
C44	C	-0.232154	-1.134511	0.378257
C45	C	-0.115378	-1.134540	0.378272
C46	C	-0.506110	-1.134490	0.582965
C47	C	-0.506077	-1.134510	0.670215
C48	C	-0.506217	-0.339187	0.378238
C49	C	-0.506217	-0.426436	0.378230
C50	C	-0.506189	-1.134440	0.174273
C51	C	-0.505926	-1.134572	0.087024
C52	C	-0.438884	-1.184735	0.711221
C53	C	-0.438849	-1.184744	0.793201
C54	C	-0.506014	-1.134532	0.834175
C55	C	-0.573210	-1.084302	0.793163
C56	C	-0.573239	-1.084290	0.711184
C57	C	-0.573147	-1.084334	0.964033
C58	C	-0.573119	-1.084348	1.046018
C59	C	-0.438757	-1.184788	1.046051
C60	C	-0.438786	-1.184776	0.964072
C61	C	-0.505984	-1.134546	0.923066
H62	H	-0.627915	-0.686849	0.286971
H63	H	-0.384194	-1.225625	0.677867
H64	H	-0.627905	-0.835580	0.286961
O65	O	-0.638368	-1.035420	0.671318
C66	C	-0.578569	-0.984736	0.623882
H67	H	-0.495810	-0.979912	0.648594
H68	H	-0.616560	-0.924318	0.622941
H69	H	-0.574981	-1.008994	0.561755
H70	H	-0.806593	-1.234858	0.277872
O71	O	-0.374030	-0.842161	0.477430
C72	C	-0.433923	-0.889611	0.528037
H73	H	-0.516681	-0.864901	0.532781
H74	H	-0.396025	-0.890568	0.588496
H75	H	-0.437492	-0.951732	0.503759
O76	O	-0.638583	-1.035638	0.924227
C77	C	-0.743283	-1.052774	0.944265
H78	H	-0.748569	-1.115482	0.966825
H79	H	-0.795208	-1.046013	0.890342
H80	H	-0.770737	-1.010685	0.991829
O81	O	-1.221961	-1.034204	0.478748
C82	C	-1.258521	-1.054325	0.554010
H83	H	-1.195222	-1.088505	0.586474
H84	H	-1.331893	-1.091999	0.548437
H85	H	-1.278013	-0.998744	0.587977
H86	H	-1.105185	-1.326114	0.186946
H87	H	-0.384136	-1.225644	0.826585
H88	H	-1.105194	-0.942966	0.569597
H89	H	-0.906117	-1.326027	0.186904
H90	H	-0.384101	-1.225667	0.930713
H91	H	-1.204720	-1.235038	0.277974
H92	H	-0.906126	-0.942876	0.569560
O93	O	-0.373587	-1.233688	1.085848
C94	C	-0.396553	-1.311915	1.065820
H95	H	-0.480494	-1.315855	1.043274
H96	H	-0.387491	-1.350702	1.119746
H97	H	-0.340247	-1.332446	1.018249
O98	O	-0.638456	-1.035676	1.085861
C99	C	-0.706292	-1.080346	1.133299
H100	H	-0.712833	-1.142161	1.108600
H101	H	-0.787129	-1.051918	1.134227
H102	H	-0.673772	-1.083081	1.195430
H103	H	-0.806592	-1.033958	0.478516
O104	O	-0.638489	-1.035453	0.832840
C105	C	-0.697820	-0.991134	0.779065
H106	H	-0.654805	-0.988415	0.720634
H107	H	-0.709011	-0.929289	0.802739
H108	H	-0.777620	-1.019859	0.770337
H109	H	-0.627959	-0.434003	0.286994
O110	O	-0.373862	-0.680636	0.477426
C111	C	-0.314615	-0.734418	0.521797
H112	H	-0.357650	-0.792851	0.524456
H113	H	-0.303516	-0.710757	0.583660
H114	H	-0.234772	-0.743136	0.493156
H115	H	-0.384454	-0.582828	0.469466
H116	H	-0.384466	-0.434100	0.469471
H117	H	-0.627939	-0.582730	0.286976
