data_functionalizedCrystal
_audit_creation_method	'MofGen! by Chris Wilmer'
_symmetry_space_group_name_H-M	'P1'
_symmetry_Int_Tables_number	1
_symmetry_cell_setting	triclinic
loop_
_symmetry_equiv_pos_as_xyz
  x,y,z
_cell_length_a	11.169417
_cell_length_b	18.101395
_cell_length_c	11.169409
_cell_angle_alpha	89.964326
_cell_angle_beta	89.980176
_cell_angle_gamma	90.031983
loop_
_atom_site_label
_atom_site_type_symbol
_atom_site_fract_x
_atom_site_fract_y
_atom_site_fract_z
Zn1	Zn	1.834789	-0.294752	-0.678515
Zn2	Zn	2.334789	0.205248	-0.178515
Zn3	Zn	1.834606	-0.418619	-0.477820
Zn4	Zn	2.334606	0.081381	0.022180
Zn5	Zn	1.634075	-0.294797	-0.477849
Zn6	Zn	2.134075	0.205203	0.022151
Zn7	Zn	1.634010	-0.418558	-0.678465
Zn8	Zn	2.134010	0.081442	-0.178465
O9	O	1.734370	-0.356682	-0.578162
O10	O	2.234370	0.143318	-0.078162
O11	O	2.002715	-0.311190	-0.651901
O12	O	2.502715	0.188810	-0.151901
O13	O	1.807956	-0.402238	-0.309874
O14	O	2.307956	0.097762	0.190126
O15	O	1.660804	-0.191159	-0.504501
O16	O	2.160804	0.308841	-0.004501
O17	O	2.002580	-0.402194	-0.504451
O18	O	2.502580	0.097806	-0.004451
O19	O	1.808268	-0.191125	-0.651929
O20	O	2.308268	0.308875	-0.151929
O21	O	1.660626	-0.311267	-0.309896
O22	O	2.160626	0.188733	0.190104
O23	O	1.466117	-0.311208	-0.504453
O24	O	1.966117	0.188792	-0.004453
O25	O	1.660693	-0.402091	-0.846421
O26	O	2.160693	0.097909	-0.346421
O27	O	1.466069	-0.402135	-0.651844
O28	O	1.966069	0.097865	-0.151844
O29	O	1.808205	-0.311131	-0.846458
O30	O	2.308205	0.188869	-0.346458
O31	O	1.807892	-0.522244	-0.504403
O32	O	2.307892	-0.022244	-0.004403
O33	O	1.660515	-0.522199	-0.651816
O34	O	2.160515	-0.022199	-0.151816
C35	C	1.422545	-0.356670	-0.578147
C36	C	1.922545	0.143330	-0.078147
C37	C	1.289145	-0.356684	-0.578169
C38	C	1.789145	0.143316	-0.078169
C39	C	1.734209	-0.549092	-0.578127
C40	C	2.234209	-0.049092	-0.078127
C41	C	1.734250	-0.631406	-0.578152
C42	C	2.234250	-0.131406	-0.078152
C43	C	1.734514	-0.930497	-0.578217
C44	C	2.234514	-0.430497	-0.078217
C45	C	1.642003	-0.899175	-0.671195
C46	C	2.142003	-0.399175	-0.171195
C47	C	1.641564	-0.813557	-0.670904
C48	C	2.141564	-0.313557	-0.170904
C49	C	1.734383	-0.782115	-0.578186
C50	C	2.234383	-0.282115	-0.078186
C51	C	1.700132	-0.813278	-0.451699
C52	C	2.200132	-0.313278	0.048301
C53	C	1.699535	-0.898923	-0.452255
C54	C	2.199535	-0.398923	0.047745
C55	C	1.861478	-0.898837	-0.610612
C56	C	2.361478	-0.398837	-0.110612
C57	C	1.860732	-0.813186	-0.613386
C58	C	2.360732	-0.313186	-0.113386
C59	C	1.734311	-0.698255	-0.578160
C60	C	2.234311	-0.198255	-0.078160
C61	C	1.734583	-1.014357	-0.578234
C62	C	2.234583	-0.514357	-0.078234
C63	C	2.047412	-0.356694	-0.578178
C64	C	2.547412	0.143306	-0.078178
C65	C	2.180812	-0.356699	-0.578185
C66	C	2.680812	0.143301	-0.078185
C67	C	1.734462	-0.356599	-0.891205
C68	C	2.234462	0.143401	-0.391205
C69	C	1.734501	-0.356564	-1.024605
C70	C	2.234501	0.143436	-0.524605
C71	C	1.734564	-0.163520	-0.578224
C72	C	2.234564	0.336480	-0.078224
C73	C	1.734647	-0.081206	-0.578250
C74	C	2.234647	0.418794	-0.078250
C75	C	1.734347	-0.356710	-0.266338
C76	C	2.234347	0.143290	0.233662
C77	C	1.734541	-0.356537	-0.132938
C78	C	2.234541	0.143463	0.367062
H79	H	1.662994	-0.792484	-0.764693
H80	H	2.162994	-0.292484	-0.264693
C81	C	1.515641	-0.928338	-0.642589
C82	C	2.015641	-0.428338	-0.142589
H83	H	1.460302	-0.909154	-0.699191
H84	H	1.960302	-0.409154	-0.199191
H85	H	1.493131	-0.913098	-0.564393
H86	H	1.993131	-0.413098	-0.064393
H87	H	1.515532	-0.980761	-0.646558
H88	H	2.015532	-0.480761	-0.146558
C89	C	1.788277	-0.785768	-0.355550
C90	C	2.288277	-0.285768	0.144450
H91	H	1.765915	-0.805267	-0.279781
H92	H	2.265915	-0.305267	0.220219
H93	H	1.786382	-0.733337	-0.352566
H94	H	2.286382	-0.233337	0.147434
H95	H	1.866920	-0.801742	-0.374981
H96	H	2.366920	-0.301742	0.125019
H97	H	1.886561	-0.792814	-0.706473
H98	H	2.386561	-0.292814	-0.206473
H99	H	1.606724	-0.918969	-0.424813
H100	H	2.106724	-0.418969	0.075187
C101	C	1.514438	-0.785965	-0.641901
C102	C	2.014438	-0.285965	-0.141901
H103	H	1.462864	-0.827100	-0.630239
H104	H	1.962864	-0.327100	-0.130239
H105	H	1.485610	-0.756811	-0.706482
H106	H	1.985610	-0.256811	-0.206482
H107	H	1.516408	-0.756971	-0.571061
H108	H	2.016408	-0.256971	-0.071061
C109	C	1.786586	-0.926923	-0.355465
C110	C	2.286586	-0.426923	0.144535
H111	H	1.822151	-0.885953	-0.315973
H112	H	2.322151	-0.385953	0.184027
H113	H	1.847284	-0.956030	-0.391795
H114	H	2.347284	-0.456030	0.108205
H115	H	1.744009	-0.956049	-0.298892
H116	H	2.244009	-0.456049	0.201108
H117	H	1.608304	-0.791896	-0.423764
H118	H	2.108304	-0.291896	0.076236
H119	H	1.663221	-0.919714	-0.765288
H120	H	2.163221	-0.419714	-0.265288
H121	H	1.892704	-0.920376	-0.701273
H122	H	2.392704	-0.420376	-0.201273
H123	H	1.933304	-0.791778	-0.550600
H124	H	2.433304	-0.291778	-0.050600
C125	C	1.954564	-0.926126	-0.519051
C126	C	2.454564	-0.426126	-0.019051
H127	H	1.916308	-0.956675	-0.461368
H128	H	2.416308	-0.456675	0.038632
H129	H	1.989939	-0.884897	-0.480118
H130	H	2.489939	-0.384897	0.019882
H131	H	2.014851	-0.953636	-0.559155
H132	H	2.514851	-0.453636	-0.059155
