data_functionalizedCrystal
_audit_creation_method	'MofGen! by Chris Wilmer'
_symmetry_space_group_name_H-M	'P1'
_symmetry_Int_Tables_number	1
_symmetry_cell_setting	triclinic
loop_
_symmetry_equiv_pos_as_xyz
  x,y,z
_cell_length_a	30.700809
_cell_length_b	30.711276
_cell_length_c	30.700862
_cell_angle_alpha	59.998386
_cell_angle_beta	89.999414
_cell_angle_gamma	60.000191
loop_
_atom_site_label
_atom_site_type_symbol
_atom_site_fract_x
_atom_site_fract_y
_atom_site_fract_z
O1	O	-0.371254	-0.311651	0.012944
O2	O	-0.307913	-0.222487	-0.012907
O3	O	-0.307911	-0.311650	0.076286
O4	O	-0.371257	-0.222488	-0.076249
O5	O	-0.235466	-0.384070	0.076286
O6	O	-0.235468	-0.294907	-0.012907
O7	O	-0.298809	-0.384071	0.012944
Zn8	Zn	-0.255636	-0.350987	0.000018
Zn9	Zn	-0.351086	-0.255571	0.000019
O10	O	-0.298812	-0.294908	-0.076249
C11	C	-0.234796	-0.137097	-0.018777
C12	C	-0.261674	-0.083360	-0.015076
C13	C	-0.182374	-0.163176	-0.019143
C14	C	-0.234798	-0.215942	-0.018783
C15	C	-0.261678	-0.246507	-0.015089
C16	C	-0.182376	-0.241901	-0.019150
C17	C	-0.155920	-0.215947	-0.018777
C18	C	-0.098463	-0.246515	-0.015075
C19	C	-0.261132	-0.163172	-0.019150
C20	C	-0.574961	-0.535511	0.039265
C21	C	-0.548506	-0.588283	0.039634
C22	C	-0.496086	-0.535509	0.039262
C23	C	-0.469751	-0.588281	0.039632
C24	C	-0.496085	-0.614360	0.039265
C25	C	-0.548507	-0.509552	0.039632
C26	C	-0.765169	-0.393516	0.024987
C27	C	-0.819034	-0.364488	0.020950
C28	C	-0.846055	-0.389406	0.018925
C29	C	-0.904462	-0.357927	0.014538
C30	C	-0.819206	-0.443357	0.020941
C31	C	-0.765344	-0.472385	0.024984
C32	C	-0.738325	-0.447463	0.027007
C33	C	-0.447920	-0.790230	0.024988
C34	C	-0.423094	-0.840041	0.020951
C35	C	-0.371150	-0.865027	0.018921
C36	C	-0.344230	-0.919028	0.014536
C37	C	-0.344030	-0.840201	0.020935
C38	C	-0.368852	-0.790399	0.024981
C39	C	-0.420803	-0.765414	0.027004
C40	C	-0.447922	-0.393510	0.024977
C41	C	-0.423099	-0.364475	0.020931
C42	C	-0.371152	-0.389391	0.018903
C43	C	-0.344235	-0.357911	0.014513
C44	C	-0.344034	-0.443338	0.020916
C45	C	-0.368860	-0.472368	0.024960
C46	C	-0.420804	-0.447452	0.026995
C47	C	-0.679920	-0.478941	0.031387
C48	C	-0.633366	-0.504032	0.034880
C49	C	-0.469171	-0.504029	0.034875
C50	C	-0.447717	-0.478936	0.031380
C51	C	-0.469170	-0.668361	0.034880
C52	C	-0.447716	-0.711408	0.031386
C53	C	-0.496432	-0.071057	-0.503890
C54	C	-0.548853	-0.018285	-0.530226
C55	C	-0.496432	-0.071056	-0.425015
C56	C	-0.548854	-0.018284	-0.451470
C57	C	-0.575308	0.007793	-0.503892
C58	C	-0.470097	-0.097014	-0.451469
C59	C	-0.368666	-0.213054	-0.552051
C60	C	-0.343664	-0.242084	-0.576877
C61	C	-0.370616	-0.217167	-0.628824
C62	C	-0.343513	-0.248647	-0.655741
C63	C	-0.422570	-0.163216	-0.655945
C64	C	-0.447565	-0.134187	-0.631122
C65	C	-0.420611	-0.159108	-0.579173
C66	C	-0.765518	0.183662	-0.631659
C67	C	-0.819384	0.233473	-0.656662
C68	C	-0.846408	0.258459	-0.629712
C69	C	-0.904813	0.312461	-0.656813
C70	C	-0.819559	0.233635	-0.577758
C71	C	-0.765694	0.183833	-0.552761
C72	C	-0.738677	0.158847	-0.579717
C73	C	-0.368668	-0.213052	-0.234803
C74	C	-0.343669	-0.242086	-0.180935
C75	C	-0.370621	-0.217169	-0.153914
C76	C	-0.343519	-0.248648	-0.095506
C77	C	-0.422573	-0.163222	-0.180762
C78	C	-0.447570	-0.134193	-0.234627
C79	C	-0.420610	-0.159111	-0.261646
C80	C	-0.447720	-0.127629	-0.552258
C81	C	-0.469327	-0.102536	-0.530805
C82	C	-0.469328	-0.102535	-0.366609
C83	C	-0.447721	-0.127627	-0.320054
C84	C	-0.633714	0.061794	-0.530997
C85	C	-0.680269	0.104841	-0.552605
O86	O	0.076277	-0.384081	0.012960
O87	O	-0.076257	-0.294916	-0.012894
O88	O	0.012931	-0.384083	0.076300
O89	O	-0.012910	-0.294914	-0.076234
O90	O	0.012933	-0.311666	0.076306
O91	O	-0.076254	-0.222499	-0.012888
O92	O	0.076280	-0.311664	0.012966
Zn93	Zn	0.000013	-0.255584	0.000040
Zn94	Zn	0.000010	-0.350996	0.000032
O95	O	-0.012908	-0.222497	-0.076228
O96	O	-0.298805	0.063292	0.012964
O97	O	-0.235462	-0.063346	-0.012888
O98	O	-0.235465	-0.063353	0.076305
O99	O	-0.298803	0.063300	-0.076229
O100	O	-0.307912	-0.063350	0.076299
O101	O	-0.307909	-0.063342	-0.012895
O102	O	-0.371252	0.063295	0.012958
Zn103	Zn	-0.351083	-0.000023	0.000031
Zn104	Zn	-0.255631	-0.000027	0.000039
O105	O	-0.371250	0.063303	-0.076236
O106	O	-1.076607	0.456783	-0.692421
O107	O	-0.924074	0.330140	-0.629074
O108	O	-1.013262	0.330138	-0.629073
O109	O	-0.987418	0.456785	-0.692422
O110	O	-1.013261	0.330136	-0.701518
O111	O	-0.924072	0.330138	-0.701518
O112	O	-1.076605	0.456781	-0.764865
Zn113	Zn	-1.000338	0.393459	-0.744694
Zn114	Zn	-1.000340	0.393461	-0.649245
O115	O	-0.987417	0.456783	-0.764866
O116	O	-0.307911	-0.311650	-0.764507
O117	O	-0.371254	-0.222491	-0.701165
O118	O	-0.371252	-0.311652	-0.701162
O119	O	-0.307912	-0.222489	-0.764510
O120	O	-0.298806	-0.384074	-0.628716
O121	O	-0.298807	-0.294912	-0.628719
O122	O	-0.235464	-0.384072	-0.692061
Zn123	Zn	-0.255634	-0.350991	-0.648887
Zn124	Zn	-0.351085	-0.255572	-0.744338
O125	O	-0.235466	-0.294910	-0.692064
C126	C	-0.155920	-0.469469	0.234827
C127	C	-0.098464	-0.523208	0.261706
C128	C	-0.182375	-0.443392	0.261162
C129	C	-0.234797	-0.390619	0.155950
C130	C	-0.261676	-0.360052	0.098494
C131	C	-0.261132	-0.364662	0.182405
C132	C	-0.234797	-0.390620	0.234826
C133	C	-0.261675	-0.360052	0.261704
C134	C	-0.182375	-0.443391	0.182406
C135	C	0.018810	-0.390643	0.234846
C136	C	0.015111	-0.360079	0.261727
C137	C	0.019176	-0.443414	0.261179
C138	C	0.018812	-0.390637	0.155967
C139	C	0.015115	-0.360067	0.098511
C140	C	0.019178	-0.443408	0.182420
C141	C	0.018807	-0.469488	0.234841
C142	C	0.015106	-0.523226	0.261717
C143	C	0.019180	-0.364683	0.182425
C144	C	-0.234799	-0.215977	0.234834
C145	C	-0.261678	-0.246545	0.261708
C146	C	-0.182376	-0.241940	0.261172
C147	C	-0.234798	-0.137119	0.155964
C148	C	-0.261676	-0.083372	0.098509
C149	C	-0.182375	-0.163202	0.182421
C150	C	-0.155921	-0.215981	0.234841
C151	C	-0.098464	-0.246554	0.261721
C152	C	-0.261134	-0.163198	0.182415
C153	C	-0.039199	0.007461	-0.503869
C154	C	-0.039568	-0.018614	-0.530207
C155	C	-0.039203	-0.071390	-0.424995
C156	C	-0.039572	-0.097344	-0.451452
C157	C	-0.039201	-0.071385	-0.503874
C158	C	-0.039570	-0.018618	-0.451448
C159	C	-0.024912	0.183325	-0.552025
C160	C	-0.020873	0.233135	-0.576849
C161	C	-0.018844	0.258123	-0.628796
C162	C	-0.014454	0.312124	-0.655711
C163	C	-0.020859	0.233301	-0.655918
C164	C	-0.024906	0.183500	-0.631097
C165	C	-0.026932	0.158512	-0.579148
C166	C	-0.024920	-0.133799	-0.631644
C167	C	-0.020882	-0.162650	-0.656647
C168	C	-0.018855	-0.216605	-0.629699
C169	C	-0.014470	-0.247897	-0.656801
C170	C	-0.020872	-0.241704	-0.577746
C171	C	-0.024919	-0.212847	-0.552747
C172	C	-0.026939	-0.158893	-0.579702
C173	C	-0.024929	-0.133823	-0.234783
C174	C	-0.020887	-0.162684	-0.180915
C175	C	-0.018862	-0.216639	-0.153896
C176	C	-0.014477	-0.247936	-0.095488
C177	C	-0.020875	-0.241733	-0.180745
C178	C	-0.024915	-0.212872	-0.234610
C179	C	-0.026947	-0.158912	-0.261627
C180	C	-0.031316	0.104507	-0.552235
C181	C	-0.034811	0.061462	-0.530782
C182	C	-0.034820	-0.102682	-0.366590
C183	C	-0.031328	-0.127624	-0.320035
C184	C	-0.034816	-0.102672	-0.530980
C185	C	-0.031322	-0.127610	-0.552588
O186	O	-0.012940	-0.294936	0.371303
O187	O	0.012923	-0.384099	0.307961
O188	O	-0.076273	-0.294935	0.307950
O189	O	0.076257	-0.384100	0.371315
O190	O	-0.076265	-0.222515	0.235508
O191	O	0.012932	-0.311679	0.235520
O192	O	-0.012931	-0.222517	0.298862
Zn193	Zn	0.000002	-0.255600	0.255689
Zn194	Zn	-0.000010	-0.351016	0.351134
O195	O	0.076266	-0.311681	0.298873
C196	C	-0.574962	0.464558	-0.503864
C197	C	-0.548506	0.490518	-0.530195
C198	C	-0.496085	0.385697	-0.424987
C199	C	-0.469749	0.411776	-0.451438
C200	C	-0.496084	0.464555	-0.503857
C201	C	-0.548507	0.411779	-0.451444
C202	C	-0.765173	0.526994	-0.552039
C203	C	-0.819039	0.555852	-0.576867
C204	C	-0.846061	0.609814	-0.628812
C205	C	-0.904469	0.641114	-0.655732
C206	C	-0.819211	0.634913	-0.655928
C207	C	-0.765348	0.606050	-0.631102
C208	C	-0.738329	0.552088	-0.579155
C209	C	-0.447916	0.606561	-0.631604
C210	C	-0.423088	0.635592	-0.656601
C211	C	-0.371143	0.610674	-0.629648
C212	C	-0.344222	0.642150	-0.656742
C213	C	-0.344023	0.556716	-0.577696
C214	C	-0.368845	0.527681	-0.552704
C215	C	-0.420798	0.552613	-0.579664
C216	C	-0.447920	0.209802	-0.234786
C217	C	-0.423096	0.159988	-0.180919
C218	C	-0.371148	0.134996	-0.153895
C219	C	-0.344230	0.080987	-0.095489
C220	C	-0.344029	0.159823	-0.180737
C221	C	-0.368856	0.209637	-0.234602
C222	C	-0.420801	0.234620	-0.261624
C223	C	-0.679923	0.520797	-0.552238
C224	C	-0.633367	0.495853	-0.530781
C225	C	-0.469169	0.331687	-0.366583
C226	C	-0.447714	0.288634	-0.320030
C227	C	-0.469167	0.496035	-0.530956
C228	C	-0.447712	0.521128	-0.552558
H229	H	-0.426680	-0.610102	0.040221
H230	H	-0.161137	-0.141349	-0.019737
H231	H	-0.301733	-0.860548	0.019286
O232	O	-0.312548	-0.137051	-0.019959
C233	C	-0.344965	-0.076094	-0.066142
H234	H	-0.324787	-0.071025	-0.097833
H235	H	-0.385301	-0.064987	-0.082064
H236	H	-0.351021	-0.042979	-0.055876
O237	O	-0.738841	-0.369422	0.027037
C238	C	-0.695545	-0.412838	0.075215
H239	H	-0.683514	-0.461078	0.091090
H240	H	-0.660355	-0.410056	0.067756
H241	H	-0.707753	-0.402487	0.105758
O242	O	-0.845718	0.257849	-0.551510
C243	C	-0.810477	0.225252	-0.500294
H244	H	-0.767616	0.202037	-0.500199
H245	H	-0.819296	0.258580	-0.489370
H246	H	-0.816021	0.188781	-0.469899
H247	H	-0.301736	-0.463624	0.019263
H248	H	-0.569747	-0.610106	0.040228
H249	H	-0.490220	-0.373215	0.026628
O250	O	-0.026870	0.158968	-0.501560
C251	C	-0.030884	0.109696	-0.485469
H252	H	-0.014673	0.090651	-0.509894
H253	H	-0.006736	0.071835	-0.441343
H254	H	-0.074487	0.126758	-0.492159
H255	H	-0.569749	-0.467085	0.040220
O256	O	0.019784	-0.469396	0.157066
C257	C	-0.025916	-0.469678	0.154432
H258	H	-0.058445	-0.432337	0.157873
H259	H	-0.040861	-0.460403	0.114727
H260	H	-0.015396	-0.516520	0.188562
O261	O	-0.449509	-0.312091	0.019001
C262	C	-0.500683	-0.296317	0.021648
H263	H	-0.500632	-0.339164	0.041284
H264	H	-0.511714	-0.276596	0.046177
H265	H	-0.531085	-0.260438	-0.020375
O266	O	-0.156964	-0.469400	0.157073
C267	C	-0.111016	-0.469616	0.154400
H268	H	-0.097779	-0.467138	0.187309
H269	H	-0.077654	-0.513750	0.159834
H270	H	-0.120458	-0.428137	0.113895
O271	O	0.019962	-0.314073	0.157058
C272	C	0.066165	-0.327847	0.142301
H273	H	0.081067	-0.368297	0.139475
H274	H	0.056324	-0.285946	0.101930
H275	H	0.098465	-0.340433	0.173565
H276	H	-0.445183	0.139782	-0.159066
O277	O	-0.498392	0.234019	-0.260948
C278	C	-0.517003	0.201421	-0.225710
H279	H	-0.493873	0.178197	-0.182847
H280	H	-0.561266	0.234750	-0.234528
H281	H	-0.510919	0.164957	-0.231262
H282	H	-0.161141	-0.284407	0.304244
H283	H	0.019760	-0.465234	0.304248
H284	H	-0.304205	-0.141373	0.161175
O285	O	-0.157088	-0.137082	0.157103
C286	C	-0.185641	-0.076129	0.142317
H287	H	-0.210886	-0.071066	0.168942
H288	H	-0.156412	-0.065029	0.147131
H289	H	-0.212715	-0.043005	0.098924
O290	O	-0.845189	-0.312033	0.018910
C291	C	-0.888474	-0.263906	-0.029269
H292	H	-0.900664	-0.284139	-0.045153
H293	H	-0.923586	-0.233317	-0.021806
H294	H	-0.876173	-0.235347	-0.059805
H295	H	-0.040166	-0.139808	-0.430213
H296	H	-0.040160	0.003216	-0.573279
O297	O	-0.342539	0.233750	-0.260752
C298	C	-0.337681	0.228872	-0.304043
H299	H	-0.370109	0.225181	-0.316240
H300	H	-0.342195	0.271439	-0.339150
H301	H	-0.296811	0.186054	-0.291747
O302	O	-0.018976	-0.294068	-0.551649
C303	C	-0.062478	-0.284136	-0.580594
H304	H	-0.077154	-0.244478	-0.624206
H305	H	-0.049327	-0.327671	-0.577691
H306	H	-0.096128	-0.272228	-0.563290
H307	H	-0.019230	0.253339	-0.554762
H308	H	-0.346776	-0.516292	0.026600
H309	H	-0.040120	0.003178	-0.430195
H310	H	-0.841210	-0.463642	0.019294
H311	H	-0.026547	0.163294	-0.653183
H312	H	-0.161139	-0.284365	-0.019743
H313	H	-0.743487	-0.516312	0.026628
H314	H	-0.026556	-0.233307	-0.256467
H315	H	-0.490218	-0.769893	0.026639
H316	H	-0.304201	-0.322192	0.161160
O317	O	-0.449521	-0.864063	0.018977
C318	C	-0.500687	-0.831341	0.021646
H319	H	-0.512954	-0.783549	0.007770
H320	H	-0.530605	-0.826797	-0.005209
H321	H	-0.499878	-0.857218	0.064534
O322	O	-0.342443	-0.766342	0.026907
C323	C	-0.291267	-0.799081	0.024264
H324	H	-0.291314	-0.822253	0.004633
H325	H	-0.280237	-0.765865	-0.000267
H326	H	-0.260867	-0.835599	0.066288
H327	H	-0.019235	-0.142256	-0.159055
O328	O	-0.573773	0.385675	-0.426023
C329	C	-0.539152	0.333390	-0.373994
H330	H	-0.507457	0.337565	-0.360956
H331	H	-0.562940	0.330056	-0.345395
H332	H	-0.519063	0.290271	-0.373558
O333	O	-0.026870	-0.081429	-0.260941
C334	C	-0.024235	-0.065462	-0.225698
H335	H	-0.004597	-0.108215	-0.182837
H336	H	0.000285	-0.045725	-0.234516
H337	H	-0.066262	-0.029536	-0.231242
H338	H	-0.570092	0.003538	-0.430229
O339	O	-0.018790	0.257522	-0.706340
C340	C	0.029377	0.252665	-0.706217
H341	H	0.060186	0.214069	-0.664526
H342	H	0.044815	0.241995	-0.735806
H343	H	0.022080	0.298004	-0.718220
H344	H	-0.026568	-0.089866	-0.653596
H345	H	-0.019237	-0.142213	-0.698946
H346	H	-0.026564	-0.233284	-0.510448
H347	H	-0.019226	-0.285667	-0.158742
O348	O	-0.156993	-0.469383	0.312517
C349	C	-0.111013	-0.469664	0.315452
H350	H	-0.115829	-0.432321	0.274662
H351	H	-0.105358	-0.460393	0.345885
H352	H	-0.074671	-0.516505	0.328184
O353	O	-0.574109	0.007689	-0.581616
C354	C	-0.539491	-0.026643	-0.599301
H355	H	-0.507823	-0.075552	-0.563435
H356	H	-0.563289	-0.028068	-0.626463
H357	H	-0.519368	-0.004070	-0.622306
H358	H	-0.426677	0.389946	-0.430194
H359	H	-0.569746	0.532985	-0.573266
O360	O	-0.739002	0.474562	-0.501588
C361	C	-0.774250	0.458606	-0.482976
H362	H	-0.808235	0.480179	-0.518423
H363	H	-0.751819	0.406380	-0.457605
H364	H	-0.791197	0.476355	-0.457851
H365	H	-0.346761	0.483749	-0.510407
O366	O	-0.845195	0.531581	-0.550554
C367	C	-0.888477	0.574881	-0.545690
H368	H	-0.900666	0.623181	-0.578115
H369	H	-0.923591	0.571935	-0.550207
H370	H	-0.876175	0.564540	-0.504817
H371	H	-0.346713	-0.233351	-0.509753
H372	H	-0.841216	0.678847	-0.698222
O373	O	-0.418705	-0.147657	-0.426214
C374	C	-0.401036	-0.165098	-0.460813
H375	H	-0.426125	-0.123650	-0.503912
H376	H	-0.357380	-0.182502	-0.454507
H377	H	-0.405313	-0.203243	-0.451998
H378	H	-0.743490	0.626486	-0.653184
O379	O	-0.293194	-0.294469	-0.154943
C380	C	-0.274768	-0.310242	-0.190338
H381	H	-0.297996	-0.267397	-0.233149
H382	H	-0.230512	-0.329959	-0.181642
H383	H	-0.280896	-0.346125	-0.184845
O384	O	-0.498369	0.630839	-0.657878
C385	C	-0.516985	0.684690	-0.709084
H386	H	-0.481540	0.683232	-0.721492
H387	H	-0.542362	0.687641	-0.738900
H388	H	-0.542104	0.726741	-0.708265
H389	H	-0.445174	0.679524	-0.698898
H390	H	-0.301723	0.536422	-0.555753
O391	O	-0.293594	0.135550	-0.154415
C392	C	-0.293710	0.140417	-0.111112
H393	H	-0.329928	0.144249	-0.099068
H394	H	-0.255731	0.097781	-0.075931
H395	H	-0.295566	0.183154	-0.123321
H396	H	-0.301364	-0.286010	-0.554791
O397	O	-0.342473	-0.237169	-0.261101
C398	C	-0.337742	-0.193748	-0.304413
H399	H	-0.340817	-0.159874	-0.296610
H400	H	-0.297483	-0.218562	-0.309184
H401	H	-0.371099	-0.167698	-0.342467
O402	O	-0.448830	-0.139001	-0.706379
C403	C	-0.495776	-0.136910	-0.707513
H404	H	-0.508324	-0.136705	-0.672631
H405	H	-0.528934	-0.093327	-0.746617
H406	H	-0.488035	-0.179006	-0.704208
O407	O	-0.498002	-0.081740	-0.657545
C408	C	-0.499046	-0.035861	-0.704498
H409	H	-0.464066	-0.058488	-0.716902
H410	H	-0.538072	-0.007294	-0.737723
H411	H	-0.495846	-0.004703	-0.696838
H412	H	-0.743523	0.163324	-0.653612
H413	H	-0.743837	0.163627	-0.510462
O414	O	-0.845467	0.257489	-0.707087
C415	C	-0.844380	0.211580	-0.708125
H416	H	-0.838103	0.174396	-0.666392
H417	H	-0.883841	0.232986	-0.736797
H418	H	-0.810318	0.190234	-0.722027
O419	O	-0.497997	-0.081729	-0.260707
C420	C	-0.499041	-0.035866	-0.259621
H421	H	-0.457311	-0.046669	-0.253351
H422	H	-0.527719	0.010839	-0.299081
H423	H	-0.512937	-0.034681	-0.225555
O424	O	-0.448704	-0.138976	-0.154521
C425	C	-0.419758	-0.124440	-0.135490
H426	H	-0.393127	-0.117816	-0.160256
H427	H	-0.448716	-0.080164	-0.138884
H428	H	-0.394026	-0.163582	-0.091943
