data_functionalizedCrystal
_audit_creation_method	'MofGen! by Chris Wilmer'
_symmetry_space_group_name_H-M	'P1'
_symmetry_Int_Tables_number	1
_symmetry_cell_setting	triclinic
loop_
_symmetry_equiv_pos_as_xyz
  x,y,z
_cell_length_a	11.792240
_cell_length_b	7.540329
_cell_length_c	9.065218
_cell_angle_alpha	90.000511
_cell_angle_beta	95.395349
_cell_angle_gamma	89.985087
loop_
_atom_site_label
_atom_site_type_symbol
_atom_site_fract_x
_atom_site_fract_y
_atom_site_fract_z
O1	O	-0.166434	0.147530	1.958833
O2	O	0.166900	0.480863	2.292166
O3	O	0.500233	0.814196	2.625500
O4	O	-0.180085	0.147536	1.529420
O5	O	0.153248	0.480869	1.862753
O6	O	0.486582	0.814202	2.196087
O7	O	-0.008147	0.147479	1.754547
O8	O	0.325187	0.480812	2.087880
O9	O	0.658520	0.814146	2.421214
O10	O	-0.338372	0.147587	1.733706
O11	O	-0.005039	0.480920	2.067039
O12	O	0.328295	0.814253	2.400372
O13	O	-0.008137	-0.147486	1.754545
O14	O	0.325196	0.185847	2.087879
O15	O	0.658530	0.519180	2.421212
O16	O	-0.180075	-0.147429	1.529418
O17	O	0.153258	0.185904	1.862752
O18	O	0.486591	0.519237	2.196085
O19	O	-0.166424	-0.147435	1.958831
O20	O	0.166909	0.185898	2.292164
O21	O	0.500243	0.519231	2.625498
Cu22	Cu	-0.173249	-0.174365	1.744125
Cu23	Cu	0.160085	0.158968	2.077458
Cu24	Cu	0.493418	0.492302	2.410791
Cu25	Cu	-0.173260	0.174465	1.744127
Cu26	Cu	0.160073	0.507799	2.077460
Cu27	Cu	0.493407	0.841132	2.410793
O28	O	-0.338362	-0.147378	1.733704
O29	O	-0.005029	0.185955	2.067037
O30	O	0.328304	0.519288	2.400371
C31	C	0.034156	-0.000014	1.753237
C32	C	0.367490	0.333320	2.086570
C33	C	0.700823	0.666653	2.419904
C34	C	0.160192	-0.000044	1.749319
C35	C	0.493525	0.333290	2.082652
C36	C	0.826859	0.666623	2.415985
C37	C	-0.178768	0.000053	1.474445
C38	C	0.154565	0.333387	1.807778
C39	C	0.487898	0.666720	2.141112
C40	C	-0.174845	0.000053	1.310639
C41	C	0.158488	0.333386	1.643972
C42	C	0.491821	0.666720	1.977305
C43	C	0.390944	-0.000072	1.742113
C44	C	0.724277	0.333261	2.075447
C45	C	1.057611	0.666595	2.408780
C46	C	0.262537	-0.000056	1.746117
C47	C	0.595870	0.333278	2.079450
C48	C	0.929203	0.666611	2.412783
C49	C	0.619335	0.000055	1.735014
C50	C	0.952668	0.333388	2.068347
C51	C	1.286001	0.666722	2.401681
C52	C	0.493299	-0.000091	1.738933
C53	C	0.826633	0.333242	2.072266
C54	C	1.159966	0.666575	2.405599
N55	N	-0.173260	0.419814	1.744129
N56	N	0.160074	0.753147	2.077462
N57	N	0.493407	1.086481	2.410796
N58	N	-0.173240	-0.419713	1.744134
N59	N	0.160093	-0.086380	2.077467
N60	N	0.493426	0.246953	2.410801
C61	C	-0.167741	0.000051	2.013806
C62	C	0.165593	0.333385	2.347140
C63	C	0.498926	0.666718	2.680473
C64	C	-0.171664	0.000063	2.177612
C65	C	0.161670	0.333397	2.510946
C66	C	0.495003	0.666730	2.844279
