data_functionalizedCrystal
_audit_creation_method	'MofGen! by Chris Wilmer'
_symmetry_space_group_name_H-M	'P1'
_symmetry_Int_Tables_number	1
_symmetry_cell_setting	triclinic
loop_
_symmetry_equiv_pos_as_xyz
  x,y,z
_cell_length_a	19.805407
_cell_length_b	19.805405
_cell_length_c	19.805398
_cell_angle_alpha	90.030326
_cell_angle_beta	90.013121
_cell_angle_gamma	90.026410
loop_
_atom_site_label
_atom_site_type_symbol
_atom_site_fract_x
_atom_site_fract_y
_atom_site_fract_z
Zn1	Zn	1.034693	-0.269472	0.382712
Zn2	Zn	1.034620	-0.382662	0.269520
Zn3	Zn	0.921520	-0.269493	0.269536
Zn4	Zn	0.921471	-0.382624	0.382667
O5	O	0.978076	-0.326063	0.326109
O6	O	1.129400	-0.284494	0.367708
O7	O	1.019607	-0.367675	0.174805
O8	O	0.936583	-0.174773	0.284575
O9	O	1.129346	-0.367655	0.284547
O10	O	1.019731	-0.174758	0.367724
O11	O	0.936513	-0.284529	0.174817
O12	O	0.826797	-0.284493	0.284531
O13	O	0.936500	-0.367590	0.477389
O14	O	0.826761	-0.367610	0.367648
O15	O	1.019683	-0.284457	0.477422
O16	O	1.019560	-0.477374	0.284503
O17	O	0.936429	-0.477346	0.367632
C18	C	0.802220	-0.326050	0.326087
C19	C	0.726988	-0.326061	0.326093
C20	C	0.978000	-0.501919	0.326076
C21	C	0.978029	-0.577151	0.326084
C22	C	0.691643	-0.369405	0.369302
C23	C	0.620954	-0.369406	0.369312
C24	C	0.585612	-0.326066	0.326109
C25	C	0.620962	-0.282717	0.282898
C26	C	0.691650	-0.282713	0.282892
C27	C	0.335889	-0.282732	0.282920
C28	C	0.265197	-0.282741	0.282928
C29	C	0.265194	-0.369425	0.369340
C30	C	0.335881	-0.369421	0.369334
C31	C	0.371225	-0.326070	0.326126
C32	C	0.447873	-0.326068	0.326117
C33	C	0.508965	-0.326071	0.326114
C34	C	1.021357	-0.612487	0.282845
C35	C	1.021386	-0.683176	0.282860
C36	C	0.978083	-0.718526	0.326111
C37	C	0.934753	-0.683185	0.369356
C38	C	0.934728	-0.612498	0.369344
C39	C	0.934853	-0.968259	0.369406
C40	C	0.934879	-1.038951	0.369413
C41	C	1.021510	-1.038936	0.282922
C42	C	1.021486	-0.968249	0.282910
C43	C	0.978159	-0.932914	0.326157
C44	C	0.978129	-0.856265	0.326141
C45	C	0.978108	-0.795174	0.326124
C46	C	1.154619	-0.326076	0.326131
C47	C	1.229851	-0.326082	0.326140
C48	C	0.978094	-0.326017	0.502651
C49	C	0.978102	-0.325998	0.577883
C50	C	0.978171	-0.149520	0.326156
C51	C	0.978211	-0.074288	0.326177
C52	C	0.978097	-0.326060	0.150253
C53	C	0.978220	-0.325889	0.075021
C54	C	1.021476	-0.369184	1.039666
C55	C	1.021457	-0.369202	0.968978
C56	C	0.978186	-0.325921	0.933645
C57	C	0.934926	-0.282624	0.969005
C58	C	0.934941	-0.282610	1.039692
C59	C	0.934860	-0.282682	0.683932
C60	C	0.934849	-0.282698	0.613240
C61	C	1.021376	-0.369275	0.613217
C62	C	1.021391	-0.369260	0.683904
C63	C	0.978129	-0.325966	0.719258
C64	C	0.978149	-0.325947	0.795906
C65	C	0.978169	-0.325936	0.856998
H66	H	0.720413	-0.404700	0.404481
H67	H	0.899632	-0.247430	0.712708
H68	H	0.899690	-0.247387	0.940232
Br69	Br	0.739619	-0.223882	0.224253
Br70	Br	1.080123	-0.564518	0.224136
Br71	Br	0.876238	-0.223847	1.087675
H72	H	1.056667	-0.711943	0.247649
Br73	Br	0.876052	-0.920313	0.428098
Br74	Br	0.572999	-0.223891	0.224271
Br75	Br	0.572988	-0.428232	0.427956
Br76	Br	1.080210	-0.427920	1.087610
Br77	Br	0.383841	-0.428246	0.427965
H78	H	0.236408	-0.404722	0.404524
H79	H	1.056600	-0.404529	0.584423
Br80	Br	0.217233	-0.223918	0.224291
H81	H	0.899610	-0.247452	0.584474
Br82	Br	1.080255	-0.920276	0.224208
Br83	Br	1.080315	-1.086894	0.224231
H84	H	0.899617	-1.067731	0.404639
H85	H	0.899497	-0.711974	0.404575
Br86	Br	0.383847	-0.223894	0.224285
Br87	Br	0.875928	-0.564541	0.428033
H88	H	1.056671	-0.404466	0.940195
Br89	Br	1.080121	-0.427998	0.731852
