data_functionalizedCrystal
_audit_creation_method	'MofGen! by Chris Wilmer'
_symmetry_space_group_name_H-M	'P1'
_symmetry_Int_Tables_number	1
_symmetry_cell_setting	triclinic
loop_
_symmetry_equiv_pos_as_xyz
  x,y,z
_cell_length_a	19.188930
_cell_length_b	19.188930
_cell_length_c	18.266242
_cell_angle_alpha	90.011475
_cell_angle_beta	90.022918
_cell_angle_gamma	83.144779
loop_
_atom_site_label
_atom_site_type_symbol
_atom_site_fract_x
_atom_site_fract_y
_atom_site_fract_z
O1	O	0.926149	0.087169	0.061124
O2	O	1.259483	0.420502	0.394458
O3	O	1.592816	0.753835	0.727791
O4	O	0.722838	0.098903	0.061075
O5	O	1.056171	0.432236	0.394409
O6	O	1.389505	0.765570	0.727742
O7	O	0.830361	-0.008620	0.061087
O8	O	1.163694	0.324714	0.394420
O9	O	1.497027	0.658047	0.727754
O10	O	0.818627	0.194691	0.061113
O11	O	1.151960	0.528025	0.394446
O12	O	1.485293	0.861358	0.727779
O13	O	0.830343	-0.008625	-0.060675
O14	O	1.163676	0.324708	0.272658
O15	O	1.497009	0.658041	0.605992
O16	O	0.722820	0.098897	-0.060687
O17	O	1.056153	0.432231	0.272647
O18	O	1.389486	0.765564	0.605980
O19	O	0.926131	0.087163	-0.060638
O20	O	1.259464	0.420497	0.272696
O21	O	1.592798	0.753830	0.606029
Zn22	Zn	0.824473	0.093029	-0.079994
Zn23	Zn	1.157806	0.426363	0.253339
Zn24	Zn	1.491139	0.759696	0.586672
Zn25	Zn	0.824497	0.093037	0.080432
Zn26	Zn	1.157830	0.426370	0.413766
Zn27	Zn	1.491163	0.759703	0.747099
O28	O	0.818608	0.194686	-0.060649
O29	O	1.151942	0.528019	0.272684
O30	O	1.485275	0.861353	0.606017
C31	C	0.696818	0.098520	0.000188
C32	C	1.030151	0.431854	0.333521
C33	C	1.363485	0.765187	0.666855
C34	C	0.619313	0.097380	0.000169
C35	C	0.952647	0.430713	0.333502
C36	C	1.285980	0.764046	0.666835
C37	C	0.574389	0.160470	0.000188
C38	C	0.907723	0.493804	0.333521
C39	C	1.241056	0.827137	0.666855
C40	C	0.501566	0.159399	0.000196
C41	C	0.834899	0.492732	0.333529
C42	C	1.168232	0.826065	0.666863
C43	C	0.473669	0.095233	0.000199
C44	C	0.807002	0.428566	0.333532
C45	C	1.140336	0.761899	0.666866
C46	C	0.518603	0.032133	0.000175
C47	C	0.851936	0.365467	0.333509
C48	C	1.185270	0.698800	0.666842
C49	C	0.591425	0.033207	0.000160
C50	C	0.924758	0.366540	0.333494
C51	C	1.258092	0.699874	0.666827
N52	N	0.365695	0.046188	0.041663
N53	N	0.699028	0.379521	0.374997
N54	N	1.032362	0.712854	0.708330
N55	N	0.296516	0.045172	0.041679
N56	N	0.629850	0.378505	0.375013
N57	N	0.963183	0.711839	0.708346
C58	C	0.254260	0.091994	0.000243
C59	C	0.587594	0.425328	0.333577
C60	C	0.920927	0.758661	0.666910
N61	N	0.283795	0.139881	-0.041200
N62	N	0.617128	0.473215	0.292133
N63	N	0.950462	0.806548	0.625467
N64	N	0.352980	0.140899	-0.041213
N65	N	0.686313	0.474232	0.292121
N66	N	1.019646	0.807566	0.625454
C67	C	0.394707	0.094062	0.000215
C68	C	0.728040	0.427395	0.333548
C69	C	1.061373	0.760728	0.666882
C70	C	0.130372	0.153928	0.000270
C71	C	0.463705	0.487261	0.333604
C72	C	0.797039	0.820594	0.666937
C73	C	0.057547	0.152853	0.000274
C74	C	0.390881	0.486187	0.333607
C75	C	0.724214	0.819520	0.666940
C76	C	0.074586	0.025586	0.000261
C77	C	0.407919	0.358920	0.333594
C78	C	0.741253	0.692253	0.666927
C79	C	0.147409	0.026662	0.000250
C80	C	0.480743	0.359996	0.333583
C81	C	0.814076	0.693329	0.666917
C82	C	0.175298	0.090835	0.000258
C83	C	0.508631	0.424168	0.333592
C84	C	0.841964	0.757502	0.666925
C85	C	0.829972	-0.034634	0.000204
C86	C	1.163305	0.298700	0.333537
C87	C	1.496638	0.632033	0.666870
C88	C	0.828831	-0.112138	0.000197
C89	C	1.162164	0.221195	0.333531
C90	C	1.495498	0.554529	0.666864
C91	C	0.891922	-0.157062	0.000209
C92	C	1.225255	0.176271	0.333542
C93	C	1.558589	0.509605	0.666876
C94	C	0.890850	-0.229886	0.000220
C95	C	1.224184	0.103448	0.333554
C96	C	1.557517	0.436781	0.666887
C97	C	0.826684	-0.257782	0.000206
C98	C	1.160017	0.075551	0.333539
C99	C	1.493351	0.408884	0.666872
C100	C	0.763585	-0.212849	0.000198
C101	C	1.096918	0.120485	0.333531
C102	C	1.430252	0.453818	0.666865
C103	C	0.764658	-0.140026	0.000194
C104	C	1.097992	0.193307	0.333527
C105	C	1.431325	0.526640	0.666860
N106	N	0.777631	-0.365789	-0.041244
N107	N	1.110964	-0.032456	0.292089
N108	N	1.444297	0.300877	0.625422
N109	N	0.776615	-0.434968	-0.041242
N110	N	1.109948	-0.101635	0.292091
N111	N	1.443282	0.231699	0.625425
C112	C	0.823446	-0.477191	0.000220
C113	C	1.156779	-0.143858	0.333553
C114	C	1.490113	0.189476	0.666886
N115	N	0.871341	-0.447624	0.041669
N116	N	1.204675	-0.114290	0.375003
N117	N	1.538008	0.219043	0.708336
N118	N	0.872359	-0.378439	0.041664
N119	N	1.205692	-0.045106	0.374997
N120	N	1.539025	0.288228	0.708330
C121	C	0.825513	-0.336745	0.000210
C122	C	1.158846	-0.003412	0.333544
C123	C	1.492180	0.329922	0.666877
C124	C	0.885379	-0.601079	0.000245
C125	C	1.218712	-0.267746	0.333578
C126	C	1.552046	0.065587	0.666911
C127	C	0.884305	-0.673904	0.000261
C128	C	1.217638	-0.340571	0.333594
C129	C	1.550971	-0.007238	0.666927
C130	C	0.757038	-0.656865	0.000231
C131	C	1.090371	-0.323532	0.333564
C132	C	1.423704	0.009801	0.666897
C133	C	0.758114	-0.584042	0.000222
C134	C	1.091447	-0.250709	0.333556
C135	C	1.424781	0.082624	0.666889
C136	C	0.822287	-0.556154	0.000226
C137	C	1.155620	-0.222821	0.333559
C138	C	1.488953	0.110513	0.666892
C139	C	0.952151	0.087546	0.000252
C140	C	1.285485	0.420879	0.333585
C141	C	1.618818	0.754213	0.666918
C142	C	1.029656	0.088687	0.000276
C143	C	1.362989	0.422020	0.333609
C144	C	1.696322	0.755353	0.666942
C145	C	0.818997	0.220700	0.000236
C146	C	1.152331	0.554033	0.333569
C147	C	1.485664	0.887366	0.666902
C148	C	0.820138	0.298204	0.000247
C149	C	1.153471	0.631538	0.333580
C150	C	1.486805	0.964871	0.666914
N151	N	0.824461	0.093024	-0.189481
N152	N	1.157795	0.426357	0.143852
N153	N	1.491128	0.759691	0.477185
C154	C	0.872088	0.045436	-0.227785
C155	C	1.205421	0.378770	0.105548
C156	C	1.538755	0.712103	0.438882
C157	C	0.872092	0.045433	-0.304430
C158	C	1.205426	0.378766	0.028903
C159	C	1.538759	0.712100	0.362237
C160	C	0.824477	0.093030	-0.342768
C161	C	1.157810	0.426363	-0.009435
C162	C	1.491144	0.759696	0.323898
C163	C	0.776841	0.140621	-0.304455
C164	C	1.110175	0.473954	0.028878
C165	C	1.443508	0.807288	0.362211
C166	C	0.776834	0.140618	-0.227812
C167	C	1.110167	0.473952	0.105521
C168	C	1.443500	0.807285	0.438855
N169	N	0.815401	0.154837	-0.463094
N170	N	1.148735	0.488170	-0.129761
N171	N	1.482068	0.821504	0.203573
N172	N	0.815413	0.154838	-0.535902
N173	N	1.148746	0.488171	-0.202569
N174	N	1.482080	0.821504	0.130764
C175	C	0.824496	0.093040	-0.573691
C176	C	1.157830	0.426373	-0.240357
C177	C	1.491163	0.759706	0.092976
N178	N	0.833582	0.031239	-0.535920
N179	N	1.166915	0.364573	-0.202587
N180	N	1.500248	0.697906	0.130746
N181	N	0.833574	0.031240	-0.463106
N182	N	1.166907	0.364573	-0.129772
N183	N	1.500240	0.697906	0.203561
C184	C	0.824480	0.093038	-0.425875
C185	C	1.157813	0.426371	-0.092542
C186	C	1.491146	0.759704	0.240791
C187	C	0.872131	0.045444	-0.695101
C188	C	1.205464	0.378778	-0.361768
C189	C	1.538797	0.712111	-0.028435
C190	C	0.872130	0.045440	-0.771748
C191	C	1.205463	0.378774	-0.438414
C192	C	1.538797	0.712107	-0.105081
C193	C	0.776882	0.140634	-0.771772
C194	C	1.110216	0.473968	-0.438438
C195	C	1.443549	0.807301	-0.105105
C196	C	0.776879	0.140632	-0.695127
C197	C	1.110213	0.473966	-0.361794
C198	C	1.443546	0.807299	-0.028460
C199	C	0.824507	0.093038	-0.656796
C200	C	1.157841	0.426372	-0.323463
C201	C	1.491174	0.759705	0.009870
N202	N	0.824513	0.093037	0.189919
N203	N	1.157847	0.426370	0.523253
N204	N	1.491180	0.759703	0.856586
H205	H	0.153080	0.206181	0.000267
H206	H	0.486413	0.539514	0.333600
H207	H	0.819746	0.872847	0.666933
F208	F	0.604066	0.228769	0.000195
F209	F	0.937399	0.562102	0.333528
F210	F	1.270733	0.895436	0.666861
H211	H	0.628003	-0.018171	0.000145
H212	H	0.961336	0.315162	0.333478
H213	H	1.294670	0.648496	0.666811
F214	F	0.009735	0.220007	0.000291
F215	F	0.343068	0.553340	0.333624
F216	F	0.676402	0.886674	0.666957
H217	H	0.464982	0.210776	0.000210
H218	H	0.798315	0.544110	0.333543
H219	H	1.131648	0.877443	0.666876
F220	F	0.044901	-0.042705	0.000257
F221	F	0.378235	0.290629	0.333590
F222	F	0.711568	0.623962	0.666924
F223	F	0.922817	-0.005212	-0.654307
F224	F	1.256151	0.328121	-0.320973
F225	F	1.589484	0.661454	0.012360
F226	F	0.697505	-0.092213	0.000182
F227	F	1.030839	0.241120	0.333515
F228	F	1.364172	0.574454	0.666848
H229	H	0.944176	-0.134360	0.000214
H230	H	1.277509	0.198973	0.333548
H231	H	1.610843	0.532306	0.666881
F232	F	0.695295	-0.242539	0.000187
F233	F	1.028628	0.090794	0.333520
F234	F	1.361962	0.424128	0.666853
F235	F	0.958003	-0.277706	0.000234
F236	F	1.291336	0.055627	0.333567
F237	F	1.624669	0.388961	0.666901
F238	F	0.726202	0.191286	-0.812570
F239	F	1.059535	0.524619	-0.479237
F240	F	1.392869	0.857953	-0.145904
H241	H	0.183988	-0.024713	0.000238
H242	H	0.517321	0.308620	0.333571
H243	H	0.850654	0.641954	0.666905
F244	F	0.922819	-0.005215	-0.812515
F245	F	1.256153	0.328118	-0.479182
F246	F	1.589486	0.661451	-0.145848
F247	F	0.726192	0.191285	-0.654358
F248	F	1.059525	0.524618	-0.321025
F249	F	1.392858	0.857952	0.012309
H250	H	0.910877	0.006680	-0.335623
H251	H	1.244210	0.340013	-0.002289
H252	H	1.577544	0.673346	0.331044
H253	H	0.937632	-0.578372	0.000251
H254	H	1.270966	-0.245038	0.333584
H255	H	1.604299	0.088295	0.666918
F256	F	0.488912	-0.036157	0.000175
F257	F	0.822246	0.297177	0.333509
F258	F	1.155579	0.630510	0.666842
F259	F	0.690963	-0.536229	0.000207
F260	F	1.024296	-0.202895	0.333540
F261	F	1.357630	0.130438	0.666873
F262	F	0.951459	-0.721716	0.000278
F263	F	1.284792	-0.388383	0.333611
F264	F	1.618125	-0.055050	0.666945
H265	H	0.910868	0.006681	-0.196579
H266	H	1.244201	0.340014	0.136755
H267	H	1.577534	0.673347	0.470088
F268	F	0.688747	-0.686550	0.000219
F269	F	1.022080	-0.353217	0.333552
F270	F	1.355413	-0.019883	0.666885
H271	H	0.738049	0.179371	-0.196624
H272	H	1.071383	0.512704	0.136709
H273	H	1.404716	0.846037	0.470042
F274	F	0.726163	0.191275	-0.345258
F275	F	1.059496	0.524608	-0.011925
F276	F	1.392830	0.857941	0.321409
