data_functionalizedCrystal
_audit_creation_method	'MofGen! by Chris Wilmer'
_symmetry_space_group_name_H-M	'P1'
_symmetry_Int_Tables_number	1
_symmetry_cell_setting	triclinic
loop_
_symmetry_equiv_pos_as_xyz
  x,y,z
_cell_length_a	27.732048
_cell_length_b	27.732048
_cell_length_c	26.210047
_cell_angle_alpha	89.999521
_cell_angle_beta	89.996535
_cell_angle_gamma	82.642655
loop_
_atom_site_label
_atom_site_type_symbol
_atom_site_fract_x
_atom_site_fract_y
_atom_site_fract_z
O1	O	0.640931	0.057510	-0.042369
O2	O	1.140931	0.557510	0.457631
O3	O	0.500138	0.066256	-0.042385
O4	O	1.000138	0.566256	0.457615
O5	O	0.574907	-0.008514	-0.042367
O6	O	1.074907	0.491486	0.457633
O7	O	0.566162	0.132279	-0.042387
O8	O	1.066162	0.632279	0.457613
O9	O	0.574893	-0.008502	0.042491
O10	O	1.074893	0.491498	0.542491
O11	O	0.500123	0.066267	0.042473
O12	O	1.000123	0.566267	0.542473
O13	O	0.640917	0.057522	0.042489
O14	O	1.140917	0.557522	0.542489
Cu15	Cu	0.570519	0.061896	0.050229
Cu16	Cu	1.070519	0.561896	0.550229
Cu17	Cu	0.570536	0.061882	-0.050125
Cu18	Cu	1.070536	0.561882	0.449875
O19	O	0.566147	0.132291	0.042471
O20	O	1.066147	0.632291	0.542471
C21	C	0.574716	-0.026515	0.000064
C22	C	1.074716	0.473485	0.500064
C23	C	0.574164	-0.080170	0.000068
C24	C	1.074164	0.419830	0.500068
C25	C	0.482124	0.066078	0.000042
C26	C	0.982124	0.566078	0.500042
C27	C	0.428469	0.065525	0.000036
C28	C	0.928469	0.565525	0.500036
C29	C	0.089654	0.106229	0.000053
C30	C	0.589654	0.606229	0.500053
C31	C	-0.112006	0.104178	0.000057
C32	C	0.387994	0.604178	0.500057
O33	O	-0.143262	0.141398	0.000074
O34	O	0.356738	0.641398	0.500074
N35	N	-0.131130	0.059843	0.000063
N36	N	0.368870	0.559843	0.500063
C37	C	-0.099835	0.016017	0.000071
C38	C	0.400165	0.516017	0.500071
O39	O	-0.120728	-0.021740	0.000081
O40	O	0.379272	0.478260	0.500081
C41	C	0.101824	0.018068	0.000069
C42	C	0.601824	0.518068	0.500069
C43	C	0.120944	0.062407	0.000059
C44	C	0.620944	0.562407	0.500059
C45	C	0.108775	0.150563	0.000043
C46	C	0.608775	0.650563	0.500043
C47	C	0.159187	0.151076	0.000039
C48	C	0.659187	0.651076	0.500039
C49	C	0.190477	0.107253	0.000045
C50	C	0.690477	0.607253	0.500045
C51	C	0.171356	0.062919	0.000055
C52	C	0.671356	0.562919	0.500055
C53	C	0.133117	-0.025757	0.000081
C54	C	0.633117	0.474243	0.500081
C55	C	0.183535	-0.025240	0.000082
C56	C	0.683535	0.474760	0.500082
C57	C	0.202655	0.019098	0.000071
C58	C	0.702655	0.519098	0.500071
C59	C	0.253059	0.019609	0.000057
C60	C	0.753059	0.519609	0.500057
N61	N	0.272183	0.063944	0.000051
N62	N	0.772183	0.563944	0.500051
C63	C	0.240892	0.107766	0.000045
C64	C	0.740892	0.607766	0.500045
C65	C	-0.205709	0.014943	0.000070
C66	C	0.294291	0.514943	0.500070
C67	C	-0.256124	0.014430	0.000070
C68	C	0.243876	0.514430	0.500070
C69	C	-0.268291	0.102591	0.000057
C70	C	0.231709	0.602591	0.500057
C71	C	-0.217876	0.103104	0.000054
C72	C	0.282124	0.603104	0.500054
C73	C	-0.186585	0.059278	0.000065
C74	C	0.313415	0.559278	0.500065
C75	C	0.346761	0.108839	0.000036
C76	C	0.846761	0.608839	0.500036
C77	C	0.397178	0.109347	0.000030
C78	C	0.897178	0.609347	0.500030
C79	C	0.409341	0.021186	0.000045
C80	C	0.909341	0.521186	0.500045
C81	C	0.358929	0.020678	0.000049
C82	C	0.858929	0.520678	0.500049
C83	C	0.327639	0.064508	0.000046
C84	C	0.827639	0.564508	0.500046
O85	O	0.284343	-0.017592	0.000046
O86	O	0.784343	0.482408	0.500046
O87	O	0.261794	0.145518	0.000047
O88	O	0.761794	0.645518	0.500047
C89	C	0.039242	0.105716	0.000057
C90	C	0.539242	0.605716	0.500057
C91	C	0.020120	0.061382	0.000067
C92	C	0.520120	0.561382	0.500067
C93	C	0.051411	0.017560	0.000073
C94	C	0.551411	0.517560	0.500073
C95	C	-0.030294	0.060869	0.000066
C96	C	0.469706	0.560869	0.500066
C97	C	-0.061585	0.104691	0.000060
C98	C	0.438415	0.604691	0.500060
C99	C	-0.042461	0.149026	0.000054
C100	C	0.457539	0.649026	0.500054
C101	C	0.007951	0.149539	0.000050
C102	C	0.507951	0.649539	0.500050
C103	C	0.032287	-0.026775	0.000078
C104	C	0.532287	0.473225	0.500078
C105	C	-0.018125	-0.027284	0.000082
C106	C	0.481875	0.472716	0.500082
C107	C	-0.049416	0.016538	0.000076
C108	C	0.450584	0.516538	0.500076
C109	C	0.614867	-0.418985	0.000046
C110	C	1.114867	0.081015	0.500046
C111	C	0.612816	-0.620645	0.000039
C112	C	1.112816	-0.120645	0.500039
O113	O	0.650037	-0.651900	0.000021
O114	O	1.150037	-0.151900	0.500021
N115	N	0.568481	-0.639768	0.000034
N116	N	1.068481	-0.139768	0.500034
C117	C	0.524656	-0.608474	0.000028
C118	C	1.024656	-0.108474	0.500028
O119	O	0.486899	-0.629367	0.000019
O120	O	0.986899	-0.129367	0.500019
C121	C	0.526707	-0.406815	0.000032
C122	C	1.026707	0.093185	0.500032
C123	C	0.571045	-0.387694	0.000042
C124	C	1.071045	0.112306	0.500042
C125	C	0.659202	-0.399864	0.000056
C126	C	1.159202	0.100136	0.500056
C127	C	0.659714	-0.349452	0.000060
C128	C	1.159714	0.150548	0.500060
C129	C	0.615892	-0.318161	0.000056
C130	C	1.115892	0.181839	0.500056
C131	C	0.571557	-0.337282	0.000046
C132	C	1.071557	0.162718	0.500046
C133	C	0.482882	-0.375521	0.000022
C134	C	0.982882	0.124479	0.500022
C135	C	0.483399	-0.325104	0.000022
C136	C	0.983399	0.174896	0.500022
C137	C	0.527737	-0.305983	0.000032
C138	C	1.027737	0.194017	0.500032
C139	C	0.528247	-0.255580	0.000046
C140	C	1.028247	0.244420	0.500046
N141	N	0.572583	-0.236456	0.000051
N142	N	1.072583	0.263544	0.500051
C143	C	0.616405	-0.267747	0.000056
C144	C	1.116405	0.232253	0.500056
C145	C	0.523582	-0.714348	0.000027
C146	C	1.023582	-0.214348	0.500027
C147	C	0.523069	-0.764762	0.000027
C148	C	1.023069	-0.264762	0.500027
C149	C	0.611230	-0.776930	0.000037
C150	C	1.111230	-0.276930	0.500037
C151	C	0.611742	-0.726514	0.000041
C152	C	1.111742	-0.226514	0.500041
C153	C	0.567917	-0.695224	0.000032
C154	C	1.067917	-0.195224	0.500032
C155	C	0.617477	-0.161878	0.000066
C156	C	1.117477	0.338122	0.500066
C157	C	0.617986	-0.111461	0.000073
C158	C	1.117986	0.388539	0.500073
C159	C	0.529825	-0.099298	0.000060
C160	C	1.029825	0.400702	0.500060
C161	C	0.529316	-0.149710	0.000056
C162	C	1.029316	0.350290	0.500056
C163	C	0.573147	-0.180999	0.000057
C164	C	1.073147	0.319001	0.500057
O165	O	0.491047	-0.224296	0.000059
O166	O	0.991047	0.275704	0.500059
O167	O	0.654156	-0.246844	0.000054
O168	O	1.154156	0.253156	0.500054
C169	C	0.614355	-0.469397	0.000042
C170	C	1.114355	0.030603	0.500042
C171	C	0.570021	-0.488518	0.000033
C172	C	1.070021	0.011482	0.500033
C173	C	0.526198	-0.457228	0.000028
C174	C	1.026198	0.042772	0.500028
C175	C	0.569508	-0.538933	0.000033
C176	C	1.069508	-0.038933	0.500033
C177	C	0.613330	-0.570223	0.000037
C178	C	1.113330	-0.070223	0.500037
C179	C	0.657665	-0.551100	0.000042
C180	C	1.157665	-0.051100	0.500042
C181	C	0.658177	-0.500688	0.000046
C182	C	1.158177	-0.000688	0.500046
C183	C	0.481863	-0.476351	0.000023
C184	C	0.981863	0.023649	0.500023
C185	C	0.481355	-0.526764	0.000019
C186	C	0.981355	-0.026764	0.500019
C187	C	0.525177	-0.558054	0.000024
C188	C	1.025177	-0.058054	0.500024
C189	C	0.658931	0.057699	0.000061
C190	C	1.158931	0.557699	0.500061
C191	C	0.712586	0.058252	0.000064
C192	C	1.212586	0.558252	0.500064
C193	C	0.566338	0.150292	0.000040
C194	C	1.066338	0.650292	0.500040
C195	C	0.566891	0.203947	0.000032
C196	C	1.066891	0.703947	0.500032
N197	N	0.570510	0.061905	0.120813
N198	N	1.070510	0.561905	0.620813
N199	N	0.570548	0.061868	-0.120709
N200	N	1.070548	0.561868	0.379291
C201	C	0.603640	0.028781	0.473336
C202	C	1.103640	0.528781	0.973336
C203	C	0.603651	0.028774	0.686994
C204	C	1.103651	0.528774	1.186994
O205	O	0.631801	0.000614	0.714623
O206	O	1.131801	0.500614	1.214623
N207	N	0.570538	0.061871	0.713707
N208	N	1.070538	0.561871	1.213707
C209	C	0.537419	0.094970	0.687003
C210	C	1.037419	0.594970	1.187003
O211	O	0.509251	0.123117	0.714626
O212	O	1.009251	0.623117	1.214626
C213	C	0.537406	0.094974	0.473345
C214	C	1.037406	0.594974	0.973345
C215	C	0.570524	0.061878	0.446635
C216	C	1.070524	0.561878	0.946635
C217	C	0.636755	-0.004312	0.446625
C218	C	1.136755	0.495688	0.946625
C219	C	0.636754	-0.004308	0.393214
C220	C	1.136754	0.495692	0.893214
C221	C	0.603638	0.028789	0.366513
C222	C	1.103638	0.528789	0.866513
C223	C	0.570523	0.061882	0.393223
C224	C	1.070523	0.561882	0.893223
C225	C	0.504284	0.128070	0.446641
C226	C	1.004284	0.628070	0.946641
C227	C	0.504283	0.128067	0.393223
C228	C	1.004283	0.628067	0.893223
C229	C	0.537401	0.094971	0.366513
C230	C	1.037401	0.594971	0.866513
C231	C	0.537405	0.094983	0.313111
C232	C	1.037405	0.594983	0.813111
N233	N	0.570518	0.061886	0.286397
N234	N	1.070518	0.561886	0.786397
C235	C	0.603634	0.028789	0.313098
C236	C	1.103634	0.528789	0.813098
C237	C	0.537428	0.094966	0.799176
C238	C	1.037428	0.594966	1.299176
C239	C	0.537432	0.094965	0.852590
C240	C	1.037432	0.594965	1.352590
C241	C	0.603664	0.028769	0.852578
C242	C	1.103664	0.528769	1.352578
C243	C	0.603662	0.028773	0.799163
C244	C	1.103662	0.528773	1.299163
C245	C	0.570541	0.061869	0.772463
C246	C	1.070541	0.561869	1.272463
C247	C	0.603629	0.028800	0.200931
C248	C	1.103629	0.528800	0.700931
C249	C	0.603626	0.028808	0.147514
C250	C	1.103626	0.528808	0.647514
C251	C	0.537393	0.095002	0.147531
C252	C	1.037393	0.595002	0.647531
C253	C	0.537397	0.094996	0.200943
C254	C	1.037397	0.594996	0.700943
C255	C	0.570517	0.061891	0.227641
C256	C	1.070517	0.561891	0.727641
O257	O	0.509267	0.123125	0.285449
O258	O	1.009267	0.623125	0.785449
O259	O	0.631790	0.000639	0.285466
O260	O	1.131790	0.500639	0.785466
C261	C	0.603641	0.028777	0.526747
C262	C	1.103641	0.528777	1.026747
C263	C	0.570527	0.061871	0.553457
C264	C	1.070527	0.561871	1.053457
C265	C	0.537410	0.094968	0.526756
C266	C	1.037410	0.594968	1.026756
C267	C	0.570530	0.061870	0.606872
C268	C	1.070530	0.561870	1.106872
C269	C	0.603646	0.028773	0.633573
C270	C	1.103646	0.528773	1.133573
C271	C	0.636759	-0.004323	0.606859
C272	C	1.136759	0.495677	1.106859
C273	C	0.636758	-0.004320	0.553448
C274	C	1.136758	0.495680	1.053448
C275	C	0.504298	0.128064	0.553470
C276	C	1.004298	0.628064	1.053470
C277	C	0.504302	0.128058	0.606881
C278	C	1.004302	0.628058	1.106881
C279	C	0.537418	0.094961	0.633582
C280	C	1.037418	0.594961	1.133582
H281	H	0.412743	0.145454	0.000021
H282	H	0.912743	0.645454	0.500021
H283	H	0.663725	-0.031271	0.628608
H284	H	1.163725	0.468729	1.128608
C285	C	0.708490	-0.328426	0.000066
C286	C	1.208490	0.171574	0.500066
N287	N	0.745230	-0.312593	0.000068
N288	N	1.245230	0.187407	0.500068
H289	H	0.663722	-0.031266	0.468360
H290	H	1.163722	0.468734	0.968360
H291	H	0.647846	-0.710950	0.000048
H292	H	1.147846	-0.210950	0.500048
H293	H	0.494146	-0.073812	0.000058
H294	H	0.994146	0.426188	0.500058
C295	C	0.074362	0.198776	0.000038
C296	C	0.574362	0.698776	0.500038
N297	N	0.048445	0.235092	0.000031
N298	N	0.548445	0.735092	0.500031
C299	C	0.217951	-0.073452	0.000091
C300	C	0.717951	0.426548	0.500091
N301	N	0.243873	-0.109766	0.000096
N302	N	0.743873	0.390234	0.500096
H303	H	0.646911	-0.802415	0.000041
H304	H	1.146911	-0.302415	0.500041
C305	C	0.337895	-0.028096	0.000054
C306	C	0.837895	0.471904	0.500054
N307	N	0.322056	-0.064833	0.000062
N308	N	0.822056	0.435167	0.500062
H309	H	0.486964	-0.780325	0.000028
H310	H	0.986964	-0.280325	0.500028
C311	C	0.112096	-0.074533	0.000103
C312	C	0.612096	0.425467	0.500103
N313	N	0.096264	-0.111274	0.000123
N314	N	0.596264	0.388726	0.500123
H315	H	0.510434	0.121950	0.222691
H316	H	1.010434	0.621950	0.722691
H317	H	-0.067947	0.184708	0.000047
H318	H	0.432053	0.684708	0.500047
C319	C	0.467867	0.164468	0.636256
C320	C	0.967867	0.664468	1.136256
N321	N	0.440421	0.191888	0.658380
N322	N	0.940421	0.691888	1.158380
H323	H	0.477311	0.155018	0.371487
H324	H	0.977311	0.655018	0.871487
C325	C	-0.039151	-0.076063	0.000097
C326	C	0.460849	0.423937	0.500097
N327	N	-0.054987	-0.112802	0.000114
N328	N	0.445013	0.387198	0.500114
H329	H	-0.202311	0.139207	0.000049
H330	H	0.297689	0.639207	0.500049
H331	H	0.663725	-0.031269	0.531704
H332	H	1.163725	0.468731	1.031704
C333	C	0.467899	0.164510	0.524106
C334	C	0.967899	0.664510	1.024106
N335	N	0.440495	0.191976	0.501991
N336	N	0.940495	0.691976	1.001991
H337	H	-0.180236	-0.020747	0.000079
H338	H	0.319764	0.479253	0.500079
H339	H	0.630629	0.001821	0.874327
H340	H	1.130629	0.501821	1.374327
H341	H	0.434827	-0.014492	0.000048
H342	H	0.934827	0.485508	0.500048
C343	C	0.475367	-0.679934	0.000018
C344	C	0.975367	-0.179934	0.500018
N345	N	0.439051	-0.654016	0.000013
N346	N	0.939051	-0.154016	0.500013
C347	C	0.312350	0.157054	0.000031
C348	C	0.812350	0.657054	0.500031
N349	N	0.286432	0.193370	0.000023
N350	N	0.786432	0.693370	0.500023
C351	C	0.501003	0.131376	0.881965
C352	C	1.001003	0.631376	1.381965
N353	N	0.473561	0.158800	0.904089
N354	N	0.973561	0.658800	1.404089
C355	C	-0.277150	-0.034345	0.000078
C356	C	0.222850	0.465655	0.500078
N357	N	-0.292986	-0.071085	0.000089
N358	N	0.207014	0.428915	0.500089
H359	H	0.057760	-0.062462	0.000085
H360	H	0.557760	0.437538	0.500085
H361	H	0.446177	-0.450879	0.000018
H362	H	0.946177	0.049121	0.500018
C363	C	0.500966	0.131405	0.118150
C364	C	1.000966	0.631405	0.618150
N365	N	0.473525	0.158822	0.096018
N366	N	0.973525	0.658822	0.596018
C367	C	0.640059	-0.007603	0.118136
C368	C	1.140059	0.492397	0.618136
N369	N	0.667497	-0.035028	0.096010
N370	N	1.167497	0.464972	0.596010
H371	H	0.446777	-0.391080	0.000011
H372	H	0.946777	0.108920	0.500011
C373	C	0.665693	-0.196289	0.000072
C374	C	1.165693	0.303711	0.500072
N375	N	0.702009	-0.222207	0.000081
N376	N	1.202009	0.277793	0.500081
H377	H	0.174750	0.187180	0.000030
H378	H	0.674750	0.687180	0.500030
H379	H	-0.293777	0.138273	0.000053
H380	H	0.206223	0.638273	0.500053
C381	C	0.707414	-0.434277	0.000066
C382	C	1.207414	0.065723	0.500066
N383	N	0.743731	-0.460194	0.000080
N384	N	1.243731	0.039806	0.500080
C385	C	0.435186	-0.290687	0.000014
C386	C	0.935186	0.209313	0.500014
N387	N	0.398872	-0.264766	0.000010
N388	N	0.898872	0.235234	0.500010
H389	H	0.023514	0.185643	0.000042
H390	H	0.523514	0.685643	0.500042
H391	H	0.654093	-0.095896	0.000082
H392	H	1.154093	0.404104	0.500082
C393	C	0.480543	-0.170743	0.000049
C394	C	0.980543	0.329257	0.500049
N395	N	0.443805	-0.186582	0.000037
N396	N	0.943805	0.313418	0.500037
C397	C	0.640091	-0.007638	0.769786
C398	C	1.140091	0.492362	1.269786
N399	N	0.667529	-0.035065	0.747663
N400	N	1.167529	0.464935	1.247663
H401	H	0.477317	0.155019	0.468381
H402	H	0.977317	0.655019	0.968381
H403	H	0.694282	-0.485125	0.000054
H404	H	1.194282	0.014875	0.500054
C405	C	0.705870	-0.585529	0.000046
C406	C	1.205870	-0.085529	0.500046
N407	N	0.742175	-0.611464	0.000046
N408	N	1.242175	-0.111464	0.500046
C409	C	0.501026	0.131413	0.769813
C410	C	1.001026	0.631413	1.269813
N411	N	0.473622	0.158880	0.747698
N412	N	0.973622	0.658880	1.247698
H413	H	0.445246	-0.542327	0.000016
H414	H	0.945246	-0.042327	0.500016
C415	C	0.640064	-0.007616	0.230291
C416	C	1.140064	0.492384	0.730291
N417	N	0.667509	-0.035043	0.252405
N418	N	1.167509	0.464957	0.752405
H419	H	0.663720	-0.031259	0.371469
H420	H	1.163720	0.468741	0.871469
