data_functionalizedCrystal
_audit_creation_method	'MofGen! by Chris Wilmer'
_symmetry_space_group_name_H-M	'P1'
_symmetry_Int_Tables_number	1
_symmetry_cell_setting	triclinic
loop_
_symmetry_equiv_pos_as_xyz
  x,y,z
_cell_length_a	16.109301
_cell_length_b	16.109301
_cell_length_c	13.448316
_cell_angle_alpha	89.991973
_cell_angle_beta	89.995959
_cell_angle_gamma	83.461481
loop_
_atom_site_label
_atom_site_type_symbol
_atom_site_fract_x
_atom_site_fract_y
_atom_site_fract_z
O1	O	1.103134	0.106869	-0.082632
O2	O	1.603134	0.606869	0.417368
O3	O	0.861072	0.120168	-0.082648
O4	O	1.361072	0.620168	0.417352
O5	O	0.988753	-0.007512	-0.082630
O6	O	1.488753	0.492488	0.417370
O7	O	0.975454	0.234550	-0.082651
O8	O	1.475454	0.734550	0.417349
O9	O	0.988737	-0.007520	0.082754
O10	O	1.488737	0.492480	0.582754
O11	O	0.861056	0.120161	0.082735
O12	O	1.361056	0.620161	0.582735
O13	O	1.103118	0.106861	0.082752
O14	O	1.603118	0.606861	0.582752
Cu15	Cu	0.982086	0.113510	0.097844
Cu16	Cu	1.482086	0.613510	0.597844
Cu17	Cu	0.982105	0.113519	-0.097741
Cu18	Cu	1.482105	0.613519	0.402259
O19	O	0.975438	0.234542	0.082733
O20	O	1.475438	0.734542	0.582733
C21	C	0.830090	0.119626	0.000042
C22	C	1.330090	0.619626	0.500042
C23	C	0.737794	0.118011	0.000036
C24	C	1.237794	0.618011	0.500036
C25	C	0.515522	0.190018	0.000041
C26	C	1.015522	0.690018	0.500041
C27	C	0.428801	0.188494	0.000048
C28	C	0.928801	0.688494	0.500048
C29	C	0.448676	0.037006	0.000057
C30	C	0.948676	0.537006	0.500057
C31	C	0.535394	0.038530	0.000057
C32	C	1.035394	0.538530	0.500057
C33	C	0.568815	0.115039	0.000044
C34	C	1.068815	0.615039	0.500044
C35	C	0.395376	0.111990	0.000050
C36	C	0.895376	0.611990	0.500050
C37	C	0.301350	0.110337	0.000057
C38	C	0.801350	0.610337	0.500057
C39	C	0.662847	0.116693	0.000039
C40	C	1.162847	0.616693	0.500039
C41	C	0.988206	-0.038491	0.000063
C42	C	1.488206	0.461509	0.500063
C43	C	0.986591	-0.130786	0.000064
C44	C	1.486591	0.369214	0.500064
C45	C	1.058599	-0.353059	0.000053
C46	C	1.558599	0.146941	0.500053
C47	C	1.057075	-0.439779	0.000045
C48	C	1.557075	0.060221	0.500045
C49	C	0.905586	-0.419905	0.000039
C50	C	1.405586	0.080095	0.500039
C51	C	0.907111	-0.333186	0.000040
C52	C	1.407111	0.166814	0.500040
C53	C	0.983620	-0.299766	0.000052
C54	C	1.483620	0.200234	0.500052
C55	C	0.980571	-0.473205	0.000043
C56	C	1.480571	0.026795	0.500043
C57	C	0.978918	-0.567231	0.000034
C58	C	1.478918	-0.067231	0.500034
C59	C	0.985273	-0.205734	0.000059
C60	C	1.485273	0.294266	0.500059
C61	C	1.134101	0.107404	0.000060
C62	C	1.634101	0.607404	0.500060
C63	C	1.226397	0.109019	0.000059
C64	C	1.726397	0.609019	0.500059
C65	C	0.975984	0.265521	0.000038
C66	C	1.475984	0.765521	0.500038
C67	C	0.977600	0.357816	0.000031
C68	C	1.477600	0.857816	0.500031
N69	N	0.982079	0.113503	0.235409
N70	N	1.482079	0.613503	0.735409
N71	N	0.982119	0.113520	-0.235305
N72	N	1.482119	0.613520	0.264695
C73	C	1.038633	0.056989	0.287457
C74	C	1.538633	0.556989	0.787457
C75	C	1.038638	0.056989	0.391561
C76	C	1.538638	0.556989	0.891561
C77	C	0.982092	0.113506	0.443613
C78	C	1.482092	0.613506	0.943613
C79	C	0.925532	0.170023	0.391557
C80	C	1.425532	0.670023	0.891557
C81	C	0.925523	0.170019	0.287456
C82	C	1.425523	0.670019	0.787456
C83	C	0.925555	0.170028	0.608537
C84	C	1.425555	0.670028	1.108537
C85	C	0.925564	0.170034	0.712646
C86	C	1.425564	0.670034	1.212646
C87	C	1.038670	0.056998	0.712642
C88	C	1.538670	0.556998	1.212642
C89	C	1.038661	0.056994	0.608541
C90	C	1.538661	0.556994	1.108541
C91	C	0.982102	0.113512	0.556492
C92	C	1.482102	0.613512	1.056492
H93	H	0.542730	0.252317	0.000038
H94	H	1.042730	0.752317	0.500038
H95	H	0.846050	-0.289792	0.000036
H96	H	1.346050	0.210208	0.500036
C97	C	0.370179	0.270969	0.000039
C98	C	0.870179	0.770969	0.500039
H99	H	0.313745	0.259107	0.000050
H100	H	0.813745	0.759107	0.500050
H101	H	0.380310	0.302343	-0.057637
H102	H	0.880310	0.802343	0.442363
H103	H	0.380307	0.302336	0.057716
H104	H	0.880307	0.802336	0.557716
H105	H	1.084683	0.010970	0.245083
H106	H	1.584683	0.510970	0.745083
H107	H	1.084689	0.010970	0.433938
H108	H	1.584689	0.510970	0.933938
H109	H	0.879487	0.216038	0.433945
H110	H	1.379487	0.716038	0.933945
C111	C	1.100860	-0.005174	0.551284
C112	C	1.600860	0.494826	1.051284
H113	H	1.134540	-0.038839	0.597190
H114	H	1.634540	0.461161	1.097190
H115	H	1.135451	0.024744	0.510657
H116	H	1.635451	0.524744	1.010657
H117	H	1.070953	-0.039796	0.510691
H118	H	1.570953	0.460204	1.010691
H119	H	0.421454	-0.025285	0.000073
H120	H	0.921454	0.474715	0.500073
C121	C	0.863317	0.232187	0.230202
C122	C	1.363317	0.732187	0.730202
H123	H	0.829646	0.265854	0.276111
H124	H	1.329646	0.765854	0.776111
H125	H	0.828716	0.202267	0.189606
H126	H	1.328716	0.702267	0.689606
H127	H	0.893214	0.266808	0.189580
H128	H	1.393214	0.766808	0.689580
C129	C	1.100878	-0.005177	0.769891
C130	C	1.600878	0.494823	1.269891
H131	H	1.092779	0.002911	0.839345
H132	H	1.592779	0.502911	1.339345
H133	H	1.156359	0.003869	0.752821
H134	H	1.656359	0.503869	1.252821
H135	H	1.091860	-0.060670	0.752839
H136	H	1.591860	0.439330	1.252839
C137	C	0.821433	-0.456671	0.000039
C138	C	1.321433	0.043329	0.500039
H139	H	0.831262	-0.515950	0.000049
H140	H	1.331262	-0.015950	0.500049
H141	H	0.790562	-0.438371	-0.057633
H142	H	1.290562	0.061629	0.442367
H143	H	0.790563	-0.438381	0.057721
H144	H	1.290563	0.061619	0.557721
H145	H	1.118130	-0.483168	0.000044
H146	H	1.618130	0.016832	0.500044
C147	C	0.863313	0.232149	0.769903
C148	C	1.363313	0.732149	1.269903
H149	H	0.829604	0.265785	0.723997
H150	H	1.329604	0.765785	1.223997
H151	H	0.893158	0.266792	0.810530
H152	H	1.393158	0.766792	1.310530
H153	H	0.828743	0.202169	0.810495
H154	H	1.328743	0.702169	1.310495
H155	H	0.578788	-0.022530	0.000063
H156	H	1.078788	0.477470	0.500063
C157	C	1.142754	-0.316298	0.000055
C158	C	1.642754	0.183702	0.500055
H159	H	1.187190	-0.360461	0.000046
H160	H	1.687190	0.139539	0.500046
H161	H	1.146498	-0.282889	0.057728
H162	H	1.646498	0.217111	0.557728
H163	H	1.146500	-0.282877	-0.057625
H164	H	1.646500	0.217123	0.442375
C165	C	0.863344	0.232200	0.551286
C166	C	1.363344	0.732200	1.051286
H167	H	0.829675	0.265868	0.597194
H168	H	1.329675	0.765868	1.097194
H169	H	0.828742	0.202284	0.510686
H170	H	1.328742	0.702284	1.010686
H171	H	0.893245	0.266819	0.510666
H172	H	1.393245	0.766819	1.010666
