data_functionalizedCrystal
_audit_creation_method	'MofGen! by Chris Wilmer'
_symmetry_space_group_name_H-M	'P1'
_symmetry_Int_Tables_number	1
_symmetry_cell_setting	triclinic
loop_
_symmetry_equiv_pos_as_xyz
  x,y,z
_cell_length_a	10.654556
_cell_length_b	16.109301
_cell_length_c	9.730223
_cell_angle_alpha	89.994178
_cell_angle_beta	89.998368
_cell_angle_gamma	83.974509
loop_
_atom_site_label
_atom_site_type_symbol
_atom_site_fract_x
_atom_site_fract_y
_atom_site_fract_z
O1	O	1.666250	0.116799	-0.114243
O2	O	1.300622	0.127919	-0.114257
O3	O	1.493480	0.001388	-0.114236
O4	O	1.473392	0.243330	-0.114265
O5	O	1.493467	0.001384	0.114344
O6	O	1.300609	0.127915	0.114322
O7	O	1.666238	0.116796	0.114337
Zn8	Zn	1.483421	0.122355	0.150622
Zn9	Zn	1.483438	0.122360	-0.150542
O10	O	1.473379	0.243327	0.114315
C11	C	1.253829	0.127100	0.000031
C12	C	1.114419	0.124653	0.000026
C13	C	0.917927	0.121211	-0.124562
C14	C	1.048918	0.123505	-0.124571
C15	C	1.048923	0.123501	0.124639
C16	C	0.917936	0.121201	0.124647
C17	C	1.492660	-0.029594	0.000055
C18	C	1.490220	-0.121903	0.000057
C19	C	1.598986	-0.343527	0.000039
C20	C	1.596684	-0.430262	0.000028
C21	C	1.367864	-0.411751	0.000024
C22	C	1.370168	-0.325019	0.000026
C23	C	1.485732	-0.290909	0.000040
C24	C	1.481127	-0.464376	0.000027
C25	C	1.478630	-0.558417	0.000015
C26	C	1.488230	-0.196863	0.000050
C27	C	1.713030	0.117615	0.000046
C28	C	1.852440	0.120061	0.000042
C29	C	1.474199	0.274308	0.000022
C30	C	1.476639	0.366618	0.000011
N31	N	1.483419	0.122351	0.356158
N32	N	1.483450	0.122357	-0.356079
C33	C	1.568846	0.066347	0.428094
C34	C	1.568858	0.066348	0.571977
C35	C	1.398014	0.178363	0.571976
C36	C	1.397996	0.178358	0.428096
H37	H	1.102232	0.124440	-0.226036
O38	O	1.661001	0.005941	0.649558
H39	H	1.646657	0.015344	0.761694
O40	O	1.723628	-0.306739	0.000025
H41	H	1.778058	-0.327836	0.093178
O42	O	0.847287	0.119966	0.259047
H43	H	0.914831	0.121159	0.345691
O44	O	1.243222	-0.448539	0.000038
H45	H	1.260644	-0.517690	0.000057
O46	O	1.305842	0.238767	0.350510
H47	H	1.244816	0.203381	0.284998
O48	O	1.119560	0.124745	0.259032
H49	H	1.221645	0.126548	0.238096
H50	H	1.328466	0.223964	0.630562
O51	O	1.660949	0.005931	0.350487
H52	H	1.758847	0.017114	0.378075
O53	O	0.847284	0.119955	-0.258949
H54	H	0.914836	0.121125	-0.345595
O55	O	1.718835	-0.487017	0.000044
H56	H	1.799575	-0.448724	0.000068
H57	H	1.277937	-0.282175	0.000022
