data_functionalizedCrystal
_audit_creation_method	'MofGen! by Chris Wilmer'
_symmetry_space_group_name_H-M	'P1'
_symmetry_Int_Tables_number	1
_symmetry_cell_setting	triclinic
loop_
_symmetry_equiv_pos_as_xyz
  x,y,z
_cell_length_a	11.026607
_cell_length_b	8.559649
_cell_length_c	7.088929
_cell_angle_alpha	95.325015
_cell_angle_beta	82.408099
_cell_angle_gamma	89.182341
loop_
_atom_site_label
_atom_site_type_symbol
_atom_site_fract_x
_atom_site_fract_y
_atom_site_fract_z
O1	O	-0.026458	2.096118	-0.158957
O2	O	0.473542	2.596118	0.341043
O3	O	0.034577	1.648469	-0.158966
O4	O	0.534577	2.148469	0.341034
O5	O	-0.169136	1.835194	-0.158955
O6	O	0.330864	2.335194	0.341045
O7	O	0.177256	1.909394	-0.158968
O8	O	0.677256	2.409394	0.341032
O9	O	-0.196415	1.860132	0.159021
O10	O	0.303585	2.360132	0.659021
O11	O	0.007298	1.673407	0.159011
O12	O	0.507298	2.173407	0.659011
O13	O	-0.053737	2.121056	0.159019
O14	O	0.446263	2.621056	0.659019
Cu15	Cu	-0.025710	1.899509	0.188049
Cu16	Cu	0.474290	2.399509	0.688049
Cu17	Cu	0.006551	1.870017	-0.187995
Cu18	Cu	0.506551	2.370017	0.312005
O19	O	0.149977	1.934332	0.159009
O20	O	0.649977	2.434332	0.659009
C21	C	0.025563	1.602739	0.000021
C22	C	0.525563	2.102739	0.500021
C23	C	0.039332	1.429319	0.000018
C24	C	0.539332	1.929319	0.500018
C25	C	-0.226711	1.833974	0.000030
C26	C	0.273289	2.333974	0.500030
C27	C	-0.357621	1.793166	0.000023
C28	C	0.142379	2.293166	0.500023
C29	C	-0.441927	1.905841	0.000022
C30	C	0.058073	2.405841	0.500022
C31	C	-0.577231	1.863667	0.000014
C32	C	-0.077231	2.363667	0.500014
C33	C	0.207551	1.935551	0.000019
C34	C	0.707551	2.435551	0.500019
C35	C	0.338463	1.976358	0.000014
C36	C	0.838463	2.476358	0.500014
C37	C	-0.044723	2.166786	0.000028
C38	C	0.455277	2.666786	0.500028
C39	C	-0.058490	2.340205	0.000019
C40	C	0.441510	2.840205	0.500019
N41	N	-0.048402	1.920263	0.452538
N42	N	0.451598	2.420263	0.952538
N43	N	0.029232	1.849272	-0.452485
N44	N	0.529232	2.349272	0.047515
H45	H	0.133621	1.372932	0.000004
H46	H	0.633621	1.872932	0.500004
H47	H	-0.633542	2.104043	-0.000127
H48	H	-0.133542	2.604043	0.499873
H49	H	-0.152772	1.396583	0.000013
H50	H	0.347228	1.896583	0.500013
C51	C	-0.404127	2.078338	0.000032
C52	C	0.095873	2.578338	0.500032
H53	H	-0.318148	2.084055	0.000050
H54	H	0.181852	2.584055	0.500050
H55	H	-0.425936	2.119999	-0.110849
H56	H	0.074064	2.619999	0.389151
H57	H	-0.444968	2.137379	0.110936
H58	H	0.055032	2.637379	0.610936
H59	H	-0.605215	1.735971	-0.000001
H60	H	-0.105215	2.235971	0.499999
H61	H	-0.128853	1.993858	0.534198
H62	H	0.371147	2.493858	1.034198
C63	C	-0.395422	1.620669	0.000017
C64	C	0.104578	2.120669	0.500017
H65	H	-0.481404	1.614954	0.000026
H66	H	0.018596	2.114954	0.500026
H67	H	-0.354580	1.561619	-0.110865
H68	H	0.145420	2.061619	0.389135
H69	H	-0.373618	1.579020	0.110920
H70	H	0.126382	2.079020	0.610920
H71	H	0.109685	1.775696	0.465865
H72	H	0.609685	2.275696	0.965865
