data_functionalizedCrystal
_audit_creation_method	'MofGen! by Chris Wilmer'
_symmetry_space_group_name_H-M	'P1'
_symmetry_Int_Tables_number	1
_symmetry_cell_setting	triclinic
loop_
_symmetry_equiv_pos_as_xyz
  x,y,z
_cell_length_a	16.109302
_cell_length_b	26.210047
_cell_length_c	16.109304
_cell_angle_alpha	89.992689
_cell_angle_beta	83.462209
_cell_angle_gamma	90.010977
loop_
_atom_site_label
_atom_site_type_symbol
_atom_site_fract_x
_atom_site_fract_y
_atom_site_fract_z
O1	O	1.103139	0.042449	0.106858
O2	O	0.861078	0.042444	0.120157
O3	O	0.988757	0.042447	-0.007524
O4	O	0.975460	0.042446	0.234538
O5	O	0.988732	-0.042411	-0.007504
O6	O	0.861053	-0.042414	0.120177
O7	O	1.103115	-0.042409	0.106878
Cu8	Cu	0.982082	-0.050160	0.113529
Cu9	Cu	0.982111	0.050195	0.113505
O10	O	0.975435	-0.042412	0.234558
C11	C	0.830090	0.000015	0.119628
C12	C	0.737795	0.000013	0.118012
C13	C	0.525441	-0.046238	0.114288
C14	C	0.438721	-0.046236	0.112761
C15	C	0.438758	0.046281	0.112744
C16	C	0.525477	0.046279	0.114265
C17	C	0.568816	0.000018	0.115041
C18	C	0.395377	0.000022	0.111994
C19	C	0.301351	0.000024	0.110338
C20	C	0.662848	0.000015	0.116695
N21	N	0.982067	-0.120744	0.113545
C22	C	1.038641	-0.473257	0.056981
C23	C	1.038660	-0.686915	0.056970
O24	O	1.086729	-0.714536	0.008881
N25	N	0.982115	-0.713638	0.113487
C26	C	0.925558	-0.686942	0.170008
O27	O	0.877459	-0.714574	0.218073
C28	C	0.925537	-0.473285	0.170015
C29	C	0.982091	-0.446565	0.113499
C30	C	1.095190	-0.446537	0.000470
C31	C	1.095188	-0.393125	0.000477
C32	C	1.038637	-0.366434	0.056994
C33	C	0.982089	-0.393153	0.113506
C34	C	0.868977	-0.446590	0.226531
C35	C	0.868975	-0.393172	0.226526
C36	C	0.925529	-0.366453	0.170011
C37	C	0.925536	-0.313050	0.170030
N38	N	0.982080	-0.286328	0.113513
C39	C	1.038631	-0.313020	0.056995
C40	C	0.925575	-0.799115	0.170001
C41	C	0.925581	-0.852530	0.170001
C42	C	1.038682	-0.852499	0.056962
C43	C	1.038679	-0.799084	0.056967
C44	C	0.982119	-0.772393	0.113484
C45	C	1.038623	-0.200852	0.057013
C46	C	1.038618	-0.147435	0.057027
C47	C	0.925515	-0.147471	0.170063
C48	C	0.925522	-0.200882	0.170052
C49	C	0.982079	-0.227571	0.113521
O50	O	0.877485	-0.285396	0.218087
O51	O	1.086711	-0.285379	0.008924
C52	C	1.038644	-0.526668	0.056975
C53	C	0.982095	-0.553388	0.113486
C54	C	0.925544	-0.526696	0.170004
C55	C	0.982101	-0.606802	0.113486
C56	C	1.038652	-0.633494	0.056968
C57	C	1.095196	-0.606771	0.000451
C58	C	1.095194	-0.553360	0.000457
C59	C	0.869000	-0.553418	0.226521
C60	C	0.869007	-0.606830	0.226511
C61	C	0.925558	-0.633522	0.169993
C62	C	1.134102	0.000021	0.107407
C63	C	1.226397	0.000026	0.109022
N64	N	0.982132	0.120779	0.113483
C65	C	0.988206	0.000019	-0.038488
C66	C	0.986590	0.000022	-0.130784
C67	C	0.982869	0.046277	-0.343132
C68	C	0.981343	0.046276	-0.429852
C69	C	0.981321	-0.046241	-0.429827
C70	C	0.982841	-0.046240	-0.343108
C71	C	0.983619	0.000020	-0.299763
C72	C	0.980573	0.000019	-0.473202
C73	C	0.978918	0.000018	-0.567228
C74	C	0.985273	0.000022	-0.205731
C75	C	0.975987	0.000017	0.265523
C76	C	0.977603	0.000017	0.357818
H77	H	0.560795	0.083948	0.114876
H78	H	0.983501	0.083945	-0.307843
C79	C	0.980467	-0.097124	-0.477515
N80	N	0.979826	-0.135451	-0.513433
C81	C	0.980551	0.097162	-0.477558
N82	N	0.979965	0.135491	-0.513491
H83	H	0.822948	-0.531690	0.272544
H84	H	0.822956	-0.628581	0.272540
H85	H	0.983447	-0.083909	-0.307795
H86	H	0.403461	0.083945	0.112113
H87	H	0.879474	-0.125730	0.216082
C88	C	0.573111	-0.097126	0.115132
N89	N	0.609015	-0.135457	0.115764
C90	C	1.157401	-0.636142	-0.061721
N91	N	1.204246	-0.658268	-0.108550
H92	H	0.403408	-0.083902	0.112149
H93	H	0.879539	-0.874281	0.216029
C94	C	1.100841	-0.230202	-0.005172
N95	N	1.147707	-0.252308	-0.052007
C96	C	1.100831	-0.118047	-0.005150
N97	N	1.147687	-0.095913	-0.051982
H98	H	1.141246	-0.531608	-0.045563
H99	H	1.141237	-0.371373	-0.045545
H100	H	1.084729	-0.777332	0.010947
C101	C	1.100883	-0.881870	-0.005213
N102	N	1.147726	-0.903994	-0.052045
C103	C	1.157400	-0.475889	-0.061716
N104	N	1.204262	-0.497994	-0.108557
H105	H	0.822925	-0.468338	0.272550
C106	C	0.863414	-0.769762	0.232242
N107	N	0.816618	-0.747656	0.279146
H108	H	0.879479	-0.222638	0.216080
H109	H	0.822915	-0.371443	0.272548
