data_functionalizedCrystal
_audit_creation_method	'MofGen! by Chris Wilmer'
_symmetry_space_group_name_H-M	'P1'
_symmetry_Int_Tables_number	1
_symmetry_cell_setting	triclinic
loop_
_symmetry_equiv_pos_as_xyz
  x,y,z
_cell_length_a	21.395364
_cell_length_b	18.101395
_cell_length_c	21.395355
_cell_angle_alpha	90.017487
_cell_angle_beta	89.975448
_cell_angle_gamma	89.947636
loop_
_atom_site_label
_atom_site_type_symbol
_atom_site_fract_x
_atom_site_fract_y
_atom_site_fract_z
Zn1	Zn	0.957830	0.294620	-0.354266
Zn2	Zn	1.207830	0.544620	-0.104266
Zn3	Zn	1.457830	0.794620	0.145734
Zn4	Zn	1.707830	1.044620	0.395734
Zn5	Zn	0.957720	0.418443	-0.249490
Zn6	Zn	1.207720	0.668443	0.000510
Zn7	Zn	1.457720	0.918443	0.250510
Zn8	Zn	1.707720	1.168443	0.500510
Zn9	Zn	0.853045	0.294652	-0.249503
Zn10	Zn	1.103045	0.544652	0.000497
Zn11	Zn	1.353045	0.794652	0.250497
Zn12	Zn	1.603045	1.044652	0.500497
Zn13	Zn	0.853002	0.418457	-0.354231
Zn14	Zn	1.103002	0.668457	-0.104231
Zn15	Zn	1.353002	0.918457	0.145769
Zn16	Zn	1.603002	1.168457	0.395769
O17	O	0.905399	0.356543	-0.301872
O18	O	1.155399	0.606543	-0.051872
O19	O	1.405399	0.856543	0.198128
O20	O	1.655399	1.106543	0.448128
O21	O	1.045493	0.311026	-0.340377
O22	O	1.295493	0.561026	-0.090377
O23	O	1.545493	0.811026	0.159623
O24	O	1.795493	1.061026	0.409623
O25	O	0.943807	0.402030	-0.161814
O26	O	1.193807	0.652030	0.088186
O27	O	1.443807	0.902030	0.338186
O28	O	1.693807	1.152030	0.588186
O29	O	0.867009	0.191015	-0.263420
O30	O	1.117009	0.441015	-0.013420
O31	O	1.367009	0.691015	0.236580
O32	O	1.617009	0.941015	0.486580
O33	O	1.045413	0.401999	-0.263399
O34	O	1.295413	0.651999	-0.013399
O35	O	1.545413	0.901999	0.236601
O36	O	1.795413	1.151999	0.486601
O37	O	0.943994	0.190991	-0.340389
O38	O	1.193994	0.440991	-0.090389
O39	O	1.443994	0.690991	0.159611
O40	O	1.693994	0.940991	0.409611
O41	O	0.866903	0.311082	-0.161823
O42	O	1.116903	0.561082	0.088177
O43	O	1.366903	0.811082	0.338177
O44	O	1.616903	1.061082	0.588177
O45	O	0.765361	0.311094	-0.263385
O46	O	1.015361	0.561094	-0.013385
O47	O	1.265361	0.811094	0.236615
O48	O	1.515361	1.061094	0.486615
O49	O	0.866936	0.402021	-0.441913
O50	O	1.116936	0.652021	-0.191913
O51	O	1.366936	0.902021	0.058087
O52	O	1.616936	1.152021	0.308087
O53	O	0.765330	0.402053	-0.340328
O54	O	1.015330	0.652053	-0.090328
O55	O	1.265330	0.902053	0.159672
O56	O	1.515330	1.152053	0.409672
O57	O	0.943952	0.311039	-0.441939
O58	O	1.193952	0.561039	-0.191939
O59	O	1.443952	0.811039	0.058061
O60	O	1.693952	1.061039	0.308061
O61	O	0.943765	0.522078	-0.263364
O62	O	1.193765	0.772078	-0.013364
O63	O	1.443765	1.022078	0.236636
O64	O	1.693765	1.272078	0.486636
O65	O	0.866829	0.522088	-0.340317
O66	O	1.116829	0.772088	-0.090317
O67	O	1.366829	1.022088	0.159683
O68	O	1.616829	1.272088	0.409683
C69	C	0.905298	0.548954	-0.301849
C70	C	1.155298	0.798954	-0.051849
C71	C	1.405298	1.048954	0.198151
C72	C	1.655298	1.298954	0.448151
C73	C	0.905311	0.631268	-0.301860
C74	C	1.155311	0.881268	-0.051860
C75	C	1.405311	1.131268	0.198140
C76	C	1.655311	1.381268	0.448140
C77	C	0.742612	0.356579	-0.301855
C78	C	0.992612	0.606579	-0.051855
C79	C	1.242612	0.856579	0.198145
C80	C	1.492612	1.106579	0.448145
C81	C	0.672970	0.356612	-0.301862
C82	C	0.922970	0.606612	-0.051862
C83	C	1.172970	0.856612	0.198138
C84	C	1.422970	1.106612	0.448138
C85	C	0.905371	0.781976	-0.301887
C86	C	1.155371	1.031976	-0.051887
C87	C	1.405371	1.281976	0.198113
C88	C	1.655371	1.531976	0.448113
C89	C	0.856938	0.813367	-0.350267
C90	C	1.106938	1.063367	-0.100267
C91	C	1.356938	1.313367	0.149733
C92	C	1.606938	1.563367	0.399733
C93	C	0.857114	0.898985	-0.350472
C94	C	1.107114	1.148985	-0.100472
C95	C	1.357114	1.398985	0.149528
C96	C	1.607114	1.648985	0.399528
C97	C	0.905429	0.930359	-0.301914
C98	C	1.155429	1.180359	-0.051914
C99	C	1.405429	1.430359	0.198086
C100	C	1.655429	1.680359	0.448086
C101	C	0.971488	0.899159	-0.319677
C102	C	1.221488	1.149159	-0.069677
C103	C	1.471488	1.399159	0.180323
C104	C	1.721488	1.649159	0.430323
C105	C	0.971174	0.813515	-0.320013
C106	C	1.221174	1.063515	-0.070013
C107	C	1.471174	1.313515	0.179987
C108	C	1.721174	1.563515	0.429987
C109	C	0.888336	0.813604	-0.235629
C110	C	1.138336	1.063604	0.014371
C111	C	1.388336	1.313604	0.264371
C112	C	1.638336	1.563604	0.514371
C113	C	0.886912	0.899256	-0.235998
C114	C	1.136912	1.149256	0.014002
C115	C	1.386912	1.399256	0.264002
C116	C	1.636912	1.649256	0.514002
C117	C	0.905466	1.014218	-0.301928
C118	C	1.155466	1.264218	-0.051928
C119	C	1.405466	1.514218	0.198072
C120	C	1.655466	1.764218	0.448072
C121	C	0.905339	0.698117	-0.301875
C122	C	1.155339	0.948117	-0.051875
C123	C	1.405339	1.198117	0.198125
C124	C	1.655339	1.448117	0.448125
C125	C	0.640322	0.309321	-0.342007
C126	C	0.890322	0.559321	-0.092007
C127	C	1.140322	0.809321	0.157993
C128	C	1.390322	1.059321	0.407993
C129	C	0.574886	0.309301	-0.342009
C130	C	0.824886	0.559301	-0.092009
C131	C	1.074886	0.809301	0.157991
C132	C	1.324886	1.059301	0.407991
C133	C	0.542102	0.356586	-0.301874
C134	C	0.792102	0.606586	-0.051874
C135	C	1.042102	0.856586	0.198126
C136	C	1.292102	1.106586	0.448126
C137	C	0.574759	0.403881	-0.261721
C138	C	0.824759	0.653881	-0.011721
C139	C	1.074759	0.903881	0.238279
C140	C	1.324759	1.153881	0.488279
C141	C	0.640193	0.403894	-0.261716
C142	C	0.890193	0.653894	-0.011716
C143	C	1.140193	0.903894	0.238284
C144	C	1.390193	1.153894	0.488284
C145	C	0.438371	0.423279	-0.296837
C146	C	0.688371	0.673279	-0.046837
C147	C	0.938371	0.923279	0.203163
C148	C	1.188371	1.173279	0.453163
C149	C	0.372938	0.423267	-0.296847
C150	C	0.622938	0.673267	-0.046847
C151	C	0.872938	0.923267	0.203153
C152	C	1.122938	1.173267	0.453153
C153	C	0.340281	0.356545	-0.301887
C154	C	0.590281	0.606545	-0.051887
C155	C	0.840281	0.856545	0.198113
C156	C	1.090281	1.106545	0.448113
C157	C	0.373066	0.289834	-0.306931
C158	C	0.623066	0.539834	-0.056931
C159	C	0.873066	0.789834	0.193069
C160	C	1.123066	1.039834	0.443069
C161	C	0.438500	0.289847	-0.306925
C162	C	0.688500	0.539847	-0.056925
C163	C	0.938500	0.789847	0.193075
C164	C	1.188500	1.039847	0.443075
C165	C	0.471150	0.356577	-0.301875
C166	C	0.721150	0.606577	-0.051875
C167	C	0.971150	0.856577	0.198125
C168	C	1.221150	1.106577	0.448125
C169	C	0.236680	0.309228	-0.342037
C170	C	0.486680	0.559228	-0.092037
C171	C	0.736680	0.809228	0.157963
C172	C	0.986680	1.059228	0.407963
C173	C	0.171243	0.309207	-0.342035
C174	C	0.421243	0.559207	-0.092035
C175	C	0.671243	0.809207	0.157965
C176	C	0.921243	1.059207	0.407965
C177	C	0.171117	0.403794	-0.261750
C178	C	0.421117	0.653794	-0.011750
C179	C	0.671117	0.903794	0.238250
C180	C	0.921117	1.153794	0.488250
C181	C	0.236553	0.403809	-0.261749
C182	C	0.486553	0.653809	-0.011749
C183	C	0.736553	0.903809	0.238251
C184	C	0.986553	1.153809	0.488251
C185	C	0.269330	0.356527	-0.301895
C186	C	0.519330	0.606527	-0.051895
C187	C	0.769330	0.856527	0.198105
C188	C	1.019330	1.106527	0.448105
C189	C	1.068823	0.356507	-0.301890
C190	C	1.318823	0.606507	-0.051890
C191	C	1.568823	0.856507	0.198110
C192	C	1.818823	1.106507	0.448110
C193	C	1.138464	0.356492	-0.301898
C194	C	1.388464	0.606492	-0.051898
C195	C	1.638464	0.856492	0.198102
C196	C	1.888464	1.106492	0.448102
C197	C	0.905451	0.356528	-0.465296
C198	C	1.155451	0.606528	-0.215296
C199	C	1.405451	0.856528	0.034704
C200	C	1.655451	1.106528	0.284704
C201	C	0.905474	0.356522	-0.534937
C202	C	1.155474	0.606522	-0.284937
C203	C	1.405474	0.856522	-0.034937
C204	C	1.655474	1.106522	0.215063
C205	C	0.905498	1.163381	-0.301914
C206	C	1.155498	1.413381	-0.051914
C207	C	1.405498	1.663381	0.198086
C208	C	1.655498	1.913381	0.448086
C209	C	0.905489	1.081067	-0.301941
C210	C	1.155489	1.331067	-0.051941
C211	C	1.405489	1.581067	0.198059
C212	C	1.655489	1.831067	0.448059
C213	C	0.945574	0.309145	-0.567665
C214	C	1.195574	0.559145	-0.317665
C215	C	1.445574	0.809145	-0.067665
C216	C	1.695574	1.059145	0.182335
C217	C	0.945574	0.309113	-0.633100
C218	C	1.195574	0.559113	-0.383100
C219	C	1.445574	0.809113	-0.133100
C220	C	1.695574	1.059113	0.116900
C221	C	0.905478	0.356471	-0.665805
C222	C	1.155478	0.606471	-0.415805
C223	C	1.405478	0.856471	-0.165805
C224	C	1.655478	1.106471	0.084195
C225	C	0.865370	0.403851	-0.633070
C226	C	1.115370	0.653851	-0.383070
C227	C	1.365370	0.903851	-0.133070
C228	C	1.615370	1.153851	0.116930
C229	C	0.865367	0.403876	-0.567636
C230	C	1.115367	0.653876	-0.317636
C231	C	1.365367	0.903876	-0.067636
C232	C	1.615367	1.153876	0.182364
C233	C	0.900496	0.423154	-0.769472
C234	C	1.150496	0.673154	-0.519472
C235	C	1.400496	0.923154	-0.269472
C236	C	1.650496	1.173154	-0.019472
C237	C	0.900503	0.423130	-0.834905
C238	C	1.150503	0.673130	-0.584905
C239	C	1.400503	0.923130	-0.334905
C240	C	1.650503	1.173130	-0.084905
C241	C	0.905482	0.356393	-0.867626
C242	C	1.155482	0.606393	-0.617626
C243	C	1.405482	0.856393	-0.367626
C244	C	1.655482	1.106393	-0.117626
C245	C	0.910468	0.289678	-0.834907
C246	C	1.160468	0.539678	-0.584907
C247	C	1.410468	0.789678	-0.334907
C248	C	1.660468	1.039678	-0.084907
C249	C	0.910466	0.289703	-0.769472
C250	C	1.160466	0.539703	-0.519472
C251	C	1.410466	0.789703	-0.269472
C252	C	1.660466	1.039703	-0.019472
C253	C	0.905476	0.356449	-0.736758
C254	C	1.155476	0.606449	-0.486758
C255	C	1.405476	0.856449	-0.236758
C256	C	1.655476	1.106449	0.013242
C257	C	0.945584	0.308978	-0.971307
C258	C	1.195584	0.558978	-0.721307
C259	C	1.445584	0.808978	-0.471307
C260	C	1.695584	1.058978	-0.221307
C261	C	0.945579	0.308945	-1.036743
C262	C	1.195579	0.558945	-0.786743
C263	C	1.445579	0.808945	-0.536743
C264	C	1.695579	1.058945	-0.286743
C265	C	0.865379	0.403689	-1.036712
C266	C	1.115379	0.653689	-0.786712
C267	C	1.365379	0.903689	-0.536712
C268	C	1.615379	1.153689	-0.286712
C269	C	0.865381	0.403716	-0.971276
C270	C	1.115381	0.653716	-0.721276
C271	C	1.365381	0.903716	-0.471276
C272	C	1.615381	1.153716	-0.221276
C273	C	0.905487	0.356361	-0.938578
C274	C	1.155487	0.606361	-0.688578
C275	C	1.405487	0.856361	-0.438578
C276	C	1.655487	1.106361	-0.188578
C277	C	0.905384	0.356505	-0.139085
C278	C	1.155384	0.606505	0.110915
C279	C	1.405384	0.856505	0.360915
C280	C	1.655384	1.106505	0.610915
C281	C	0.905483	0.356302	-0.069444
C282	C	1.155483	0.606302	0.180556
C283	C	1.405483	0.856302	0.430556
C284	C	1.655483	1.106302	0.680556
H285	H	0.808136	0.920086	-0.339369
H286	H	1.058136	1.170086	-0.089369
H287	H	1.308136	1.420086	0.160631
H288	H	1.558136	1.670086	0.410631
H289	H	0.144425	0.442295	-0.229071
H290	H	0.394425	0.692295	0.020929
H291	H	0.644425	0.942295	0.270929
H292	H	0.894425	1.192295	0.520929
Br293	Br	0.809385	0.777743	-0.208619
Br294	Br	1.059385	1.027743	0.041381
Br295	Br	1.309385	1.277743	0.291381
Br296	Br	1.559385	1.527743	0.541381
H297	H	0.978227	0.270530	-0.659752
H298	H	1.228227	0.520530	-0.409752
H299	H	1.478227	0.770530	-0.159752
H300	H	1.728227	1.020530	0.090248
Br301	Br	0.328754	0.199277	-0.313773
Br302	Br	0.578754	0.449277	-0.063773
Br303	Br	0.828754	0.699277	0.186227
Br304	Br	1.078754	0.949277	0.436227
Br305	Br	0.875925	0.933070	-0.432320
Br306	Br	1.125925	1.183070	-0.182320
Br307	Br	1.375925	1.433070	0.067680
Br308	Br	1.625925	1.683070	0.317680
Br309	Br	0.328452	0.513803	-0.290016
Br310	Br	0.578452	0.763803	-0.040016
Br311	Br	0.828452	1.013803	0.209984
Br312	Br	1.078452	1.263803	0.459984
H313	H	0.838297	0.919660	-0.222599
H314	H	1.088297	1.169660	0.027401
H315	H	1.338297	1.419660	0.277401
H316	H	1.588297	1.669660	0.527401
H317	H	0.465190	0.235528	-0.311030
H318	H	0.715190	0.485528	-0.061030
H319	H	0.965190	0.735528	0.188970
H320	H	1.215190	0.985528	0.438970
Br321	Br	0.280865	0.467988	-0.207259
Br322	Br	0.530865	0.717988	0.042741
Br323	Br	0.780865	0.967988	0.292741
Br324	Br	1.030865	1.217988	0.542741
H325	H	0.914524	0.235334	-0.861547
H326	H	1.164524	0.485334	-0.611547
H327	H	1.414524	0.735334	-0.361547
H328	H	1.664524	0.985334	-0.111547
Br329	Br	0.875527	0.777436	-0.431632
Br330	Br	1.125527	1.027436	-0.181632
Br331	Br	1.375527	1.277436	0.068368
Br332	Br	1.625527	1.527436	0.318368
H333	H	0.832709	0.442455	-0.540989
H334	H	1.082709	0.692455	-0.290989
H335	H	1.332709	0.942455	-0.040989
H336	H	1.582709	1.192455	0.209011
H337	H	0.832726	0.442241	-1.063340
H338	H	1.082726	0.692241	-0.813340
H339	H	1.332726	0.942241	-0.563340
H340	H	1.582726	1.192241	-0.313340
Br341	Br	1.033306	0.932997	-0.262757
Br342	Br	1.283306	1.182997	-0.012757
Br343	Br	1.533306	1.432997	0.237243
Br344	Br	1.783306	1.682997	0.487243
Br345	Br	0.893756	0.513736	-0.725071
Br346	Br	1.143756	0.763736	-0.475071
Br347	Br	1.393756	1.013736	-0.225071
Br348	Br	1.643756	1.263736	0.024929
Br349	Br	0.126933	0.245014	-0.396517
Br350	Br	0.376933	0.495014	-0.146517
Br351	Br	0.626933	0.745014	0.103483
Br352	Br	0.876933	0.995014	0.353483
Br353	Br	0.810950	0.468118	-0.677454
Br354	Br	1.060950	0.718118	-0.427454
Br355	Br	1.310950	0.968118	-0.177454
Br356	Br	1.560950	1.218118	0.072546
H357	H	0.914524	0.235381	-0.742835
H358	H	1.164524	0.485381	-0.492835
H359	H	1.414524	0.735381	-0.242835
H360	H	1.664524	0.985381	0.007165
H361	H	0.978231	0.270585	-0.541045
H362	H	1.228231	0.520585	-0.291045
H363	H	1.478231	0.770585	-0.041045
H364	H	1.728231	1.020585	0.208955
Br365	Br	0.684505	0.468078	-0.207226
Br366	Br	0.934505	0.718078	0.042774
Br367	Br	1.184505	0.968078	0.292774
Br368	Br	1.434505	1.218078	0.542774
Br369	Br	0.775017	0.779173	-0.331981
Br370	Br	1.025017	1.029173	-0.081981
Br371	Br	1.275017	1.279173	0.168019
Br372	Br	1.525017	1.529173	0.418019
Br373	Br	1.000011	0.244711	-0.926926
Br374	Br	1.250011	0.494711	-0.676926
Br375	Br	1.500011	0.744711	-0.426926
Br376	Br	1.750011	0.994711	-0.176926
H377	H	0.464955	0.477615	-0.292732
H378	H	0.714955	0.727615	-0.042732
H379	H	0.964955	0.977615	0.207268
H380	H	1.214955	1.227615	0.457268
H381	H	0.985593	0.793491	-0.368442
H382	H	1.235593	1.043491	-0.118442
H383	H	1.485593	1.293491	0.131558
H384	H	1.735593	1.543491	0.381558
Br385	Br	0.684803	0.245152	-0.396491
Br386	Br	0.934803	0.495152	-0.146491
Br387	Br	1.184803	0.745152	0.103509
Br388	Br	1.434803	0.995152	0.353509
Br389	Br	1.033380	0.778886	-0.263816
Br390	Br	1.283380	1.028886	-0.013816
Br391	Br	1.533380	1.278886	0.236184
Br392	Br	1.783380	1.528886	0.486184
Br393	Br	0.530268	0.468049	-0.207246
Br394	Br	0.780268	0.718049	0.042754
Br395	Br	1.030268	0.968049	0.292754
Br396	Br	1.280268	1.218049	0.542754
H397	H	0.986172	0.920561	-0.367582
H398	H	1.236172	1.170561	-0.117582
H399	H	1.486172	1.420561	0.132418
H400	H	1.736172	1.670561	0.382418
Br401	Br	1.000016	0.244654	-1.081161
Br402	Br	1.250016	0.494654	-0.831161
Br403	Br	1.500016	0.744654	-0.581161
Br404	Br	1.750016	0.994654	-0.331161
H405	H	0.919614	0.920622	-0.198042
H406	H	1.169614	1.170622	0.051958
H407	H	1.419614	1.420622	0.301958
H408	H	1.669614	1.670622	0.551958
H409	H	0.923607	0.793292	-0.199584
H410	H	1.173607	1.043292	0.050416
H411	H	1.423607	1.293292	0.300416
H412	H	1.673607	1.543292	0.550416
Br413	Br	0.530567	0.245112	-0.396492
Br414	Br	0.780567	0.495112	-0.146492
Br415	Br	1.030567	0.745112	0.103508
Br416	Br	1.280567	0.995112	0.353508
H417	H	0.263369	0.270724	-0.374722
H418	H	0.513369	0.520724	-0.124722
H419	H	0.763369	0.770724	0.125278
H420	H	1.013369	1.020724	0.375278
H421	H	0.832730	0.442299	-0.944629
H422	H	1.082730	0.692299	-0.694629
H423	H	1.332730	0.942299	-0.444629
H424	H	1.582730	1.192299	-0.194629
Br425	Br	0.893745	0.513671	-0.879304
Br426	Br	1.143745	0.763671	-0.629304
Br427	Br	1.393745	1.013671	-0.379304
Br428	Br	1.643745	1.263671	-0.129304
