data_functionalizedCrystal
_audit_creation_method	'MofGen! by Chris Wilmer'
_symmetry_space_group_name_H-M	'P1'
_symmetry_Int_Tables_number	1
_symmetry_cell_setting	triclinic
loop_
_symmetry_equiv_pos_as_xyz
  x,y,z
_cell_length_a	6.817900
_cell_length_b	9.582860
_cell_length_c	10.773894
_cell_angle_alpha	94.946203
_cell_angle_beta	96.645922
_cell_angle_gamma	111.206767
loop_
_atom_site_label
_atom_site_type_symbol
_atom_site_fract_x
_atom_site_fract_y
_atom_site_fract_z
V1	V	-3.987869	-0.201559	-0.388722
O2	O	-3.934976	0.015345	-0.381557
O3	O	-3.979226	-0.405101	-0.385837
O4	O	-3.904451	-0.195976	-0.558360
O5	O	-4.010268	-0.195228	-0.207840
V6	V	-4.470883	-0.175909	-0.367114
O7	O	-4.250244	-0.257827	-0.436119
O8	O	-4.658705	-0.119641	-0.319717
O9	O	-4.256320	0.027633	-0.369999
O10	O	-4.641173	-0.392813	-0.374279
O11	O	-4.565881	-0.182240	-0.547996
O12	O	-4.331094	-0.181492	-0.197476
C13	C	-3.835031	-0.454798	-0.379646
C14	C	-3.909018	-0.621180	-0.378418
C15	C	-3.739648	-0.188036	-0.599715
C16	C	-3.752992	-0.184818	-0.738393
C17	C	-3.932156	-0.190395	-0.806249
C18	C	-3.945951	-0.187069	-0.949581
C19	C	-4.063858	0.077322	-0.376186
C20	C	-3.969109	0.243702	-0.377422
C21	C	-4.159242	-0.189437	-0.156114
C22	C	-4.125136	-0.192648	-0.017435
H23	H	-3.802757	-0.179821	-0.997593
C24	C	-4.316158	-0.202615	-0.953406
C25	C	-4.378999	-0.333910	-0.895660
C26	C	-4.554975	-0.343155	-0.836681
H27	H	-4.278644	-0.116697	-0.891446
H28	H	-4.430441	-0.205771	-1.014543
H29	H	-4.264740	-0.330742	-0.834529
H30	H	-4.416554	-0.419852	-0.957593
H31	H	-4.669258	-0.346311	-0.897818
H32	H	-4.517443	-0.257231	-0.774727
H33	H	-4.597647	-0.432245	-0.797503
C34	C	-4.123154	-0.200355	-0.742207
C35	C	-4.185991	-0.331647	-0.684456
C36	C	-4.361952	-0.340883	-0.625465
H37	H	-4.085625	-0.114434	-0.680247
H38	H	-4.237444	-0.203509	-0.803337
H39	H	-4.071725	-0.328481	-0.623331
H40	H	-4.223560	-0.417591	-0.746388
H41	H	-4.476242	-0.344037	-0.686596
H42	H	-4.324406	-0.254955	-0.563512
H43	H	-4.404621	-0.429970	-0.586285
H44	H	-3.609811	-0.177570	-0.786410
