data_functionalizedCrystal
_audit_creation_method	'MofGen! by Chris Wilmer'
_symmetry_space_group_name_H-M	'P1'
_symmetry_Int_Tables_number	1
_symmetry_cell_setting	triclinic
loop_
_symmetry_equiv_pos_as_xyz
  x,y,z
_cell_length_a	12.759401
_cell_length_b	12.759400
_cell_length_c	12.759393
_cell_angle_alpha	89.970195
_cell_angle_beta	89.979062
_cell_angle_gamma	90.016169
loop_
_atom_site_label
_atom_site_type_symbol
_atom_site_fract_x
_atom_site_fract_y
_atom_site_fract_z
Zn1	Zn	1.606267	-0.418173	-0.594025
Zn2	Zn	2.106267	0.081827	-0.094025
Zn3	Zn	1.606158	-0.593888	-0.418347
Zn4	Zn	2.106158	-0.093888	0.081653
Zn5	Zn	1.430565	-0.418229	-0.418360
Zn6	Zn	1.930565	0.081771	0.081640
Zn7	Zn	1.430558	-0.593815	-0.593985
Zn8	Zn	1.930558	-0.093815	-0.093985
O9	O	1.518387	-0.506026	-0.506179
O10	O	2.018387	-0.006026	-0.006179
O11	O	1.753273	-0.441489	-0.570733
O12	O	2.253273	0.058511	-0.070733
O13	O	1.582823	-0.570641	-0.271328
O14	O	2.082823	-0.070641	0.228672
O15	O	1.453921	-0.271200	-0.441685
O16	O	1.953921	0.228800	0.058315
O17	O	1.753193	-0.570587	-0.441663
O18	O	2.253193	-0.070587	0.058337
O19	O	1.583008	-0.271159	-0.570745
O20	O	2.083008	0.228841	-0.070745
O21	O	1.453816	-0.441584	-0.271337
O22	O	1.953816	0.058416	0.228663
O23	O	1.283543	-0.441513	-0.441646
O24	O	1.783543	0.058487	0.058354
O25	O	1.453908	-0.570461	-0.741011
O26	O	1.953908	-0.070461	-0.241011
O27	O	1.283538	-0.570516	-0.570676
O28	O	1.783538	-0.070516	-0.070676
O29	O	1.583001	-0.441418	-0.741041
O30	O	2.083001	0.058582	-0.241041
O31	O	1.582815	-0.740900	-0.441624
O32	O	2.082815	-0.240900	0.058376
O33	O	1.453803	-0.740846	-0.570664
O34	O	1.953803	-0.240846	-0.070664
C35	C	1.245420	-0.506013	-0.506159
C36	C	1.745420	-0.006013	-0.006159
C37	C	1.128643	-0.506033	-0.506175
C38	C	1.628643	-0.006033	-0.006175
C39	C	1.073805	-0.573307	-0.573255
C40	C	1.573805	-0.073307	-0.073255
C41	C	0.964081	-0.573311	-0.573276
C42	C	1.464081	-0.073311	-0.073276
C43	C	0.964042	-0.438764	-0.439127
C44	C	1.464042	0.061236	0.060873
C45	C	1.073764	-0.438756	-0.439112
C46	C	1.573764	0.061244	0.060888
C47	C	1.518325	-0.778994	-0.506161
C48	C	2.018325	-0.278994	-0.006161
C49	C	1.518394	-0.895770	-0.506188
C50	C	2.018394	-0.395770	-0.006188
C51	C	1.585581	-0.950521	-0.573447
C52	C	2.085581	-0.450521	-0.073447
C53	C	1.585640	-1.060245	-0.573475
C54	C	2.085640	-0.560245	-0.073475
C55	C	1.451323	-1.060458	-0.438977
C56	C	1.951323	-0.560458	0.061023
C57	C	1.451260	-0.950736	-0.438955
C58	C	1.951260	-0.450736	0.061045
C59	C	1.792420	-0.506040	-0.506201
C60	C	2.292420	-0.006040	-0.006201
C61	C	1.909197	-0.506046	-0.506210
C62	C	2.409197	-0.006046	-0.006210
C63	C	1.518466	-0.505925	-0.780213
C64	C	2.018466	-0.005925	-0.280213
C65	C	1.518499	-0.505882	-0.896990
C66	C	2.018499	-0.005882	-0.396990
C67	C	1.518478	-0.231993	-0.506221
C68	C	2.018478	0.268007	-0.006221
C69	C	1.518517	-0.115216	-0.506239
C70	C	2.018517	0.384784	-0.006239
C71	C	1.585723	-0.438679	-0.951869
C72	C	2.085723	0.061321	-0.451869
C73	C	1.585740	-0.438633	-1.061593
C74	C	2.085740	0.061367	-0.561593
C75	C	1.451308	-0.573004	-1.061549
C76	C	1.951308	-0.073004	-0.561549
C77	C	1.451286	-0.573044	-0.951827
C78	C	1.951286	-0.073044	-0.451827
C79	C	1.518369	-0.506051	-0.233212
C80	C	2.018369	-0.006051	0.266788
C81	C	1.518539	-0.505798	-0.116436
C82	C	2.018539	-0.005798	0.383564
H83	H	1.118485	-0.628086	-0.627864
H84	H	1.618485	-0.128086	-0.127864
N85	N	1.378801	-0.645424	-1.120695
N86	N	1.878801	-0.145424	-0.620695
H87	H	1.389011	-0.635200	-1.198532
H88	H	1.889011	-0.135200	-0.698532
H89	H	1.395104	-0.720473	-1.101515
H90	H	1.895104	-0.220473	-0.601515
H91	H	0.919438	-0.628090	-0.627901
H92	H	1.419438	-0.128090	-0.127901
N93	N	1.657969	-0.891229	-0.645972
N94	N	2.157969	-0.391229	-0.145972
H95	H	1.706655	-0.845693	-0.603313
H96	H	2.206655	-0.345693	-0.103313
H97	H	1.700468	-0.942629	-0.688575
H98	H	2.200468	-0.442629	-0.188575
N99	N	1.378756	-0.645510	-0.892626
N100	N	1.878756	-0.145510	-0.392626
H101	H	1.336179	-0.688050	-0.944013
H102	H	1.836179	-0.188050	-0.444013
H103	H	1.421478	-0.694154	-0.847089
H104	H	1.921478	-0.194154	-0.347089
N105	N	1.658100	-1.119315	-0.646009
N106	N	2.158100	-0.619315	-0.146009
H107	H	1.615395	-1.164835	-0.694665
H108	H	2.115395	-0.664835	-0.194665
H109	H	1.700609	-1.067790	-0.688534
H110	H	2.200609	-0.567790	-0.188534
N111	N	0.904843	-0.366233	-0.366775
N112	N	1.404843	0.133767	0.133225
H113	H	0.859336	-0.317600	-0.409545
H114	H	1.359336	0.182400	0.090455
H115	H	0.859360	-0.408975	-0.318045
H116	H	1.359360	0.091025	0.181955
N117	N	1.132920	-0.366179	-0.366771
N118	N	1.632920	0.133821	0.133229
H119	H	1.081507	-0.323563	-0.324287
H120	H	1.581507	0.176437	0.175713
H121	H	1.178419	-0.408874	-0.318070
H122	H	1.678419	0.091126	0.181930
N123	N	1.378789	-0.891674	-0.366410
N124	N	1.878789	-0.391674	0.133590
H125	H	1.336275	-0.943141	-0.323815
H126	H	1.836275	-0.443141	0.176185
H127	H	1.421555	-0.846147	-0.317820
H128	H	1.921555	-0.346147	0.182180
N129	N	1.378927	-1.119742	-0.366454
N130	N	1.878927	-0.619742	0.133546
H131	H	1.389165	-1.197559	-0.376667
H132	H	1.889165	-0.697559	0.123333
H133	H	1.395314	-1.100597	-0.291433
H134	H	1.895314	-0.600597	0.208567
N135	N	1.658234	-0.366138	-1.120785
N136	N	2.158234	0.133862	-0.620785
H137	H	1.700803	-0.323597	-1.069393
H138	H	2.200803	0.176403	-0.569393
H139	H	1.706849	-0.408881	-1.166319
H140	H	2.206849	0.091119	-0.666319
N141	N	1.658212	-0.366243	-0.892720
N142	N	2.158212	0.133757	-0.392720
H143	H	1.700799	-0.323662	-0.944140
H144	H	2.200799	0.176338	-0.444140
H145	H	1.615455	-0.317636	-0.847195
H146	H	2.115455	0.182364	-0.347195
