data_functionalizedCrystal
_audit_creation_method	'MofGen! by Chris Wilmer'
_symmetry_space_group_name_H-M	'P1'
_symmetry_Int_Tables_number	1
_symmetry_cell_setting	triclinic
loop_
_symmetry_equiv_pos_as_xyz
  x,y,z
_cell_length_a	17.699083
_cell_length_b	14.519731
_cell_length_c	16.776229
_cell_angle_alpha	89.992369
_cell_angle_beta	89.998886
_cell_angle_gamma	83.485934
loop_
_atom_site_label
_atom_site_type_symbol
_atom_site_fract_x
_atom_site_fract_y
_atom_site_fract_z
O1	O	1.004420	0.116623	-0.066178
O2	O	0.784086	0.131796	-0.066205
O3	O	0.900086	-0.010052	-0.066183
O4	O	0.888419	0.258471	-0.066199
O5	O	0.900071	-0.010061	0.066393
O6	O	0.784070	0.131787	0.066372
O7	O	1.004404	0.116614	0.066398
Zn8	Zn	0.894235	0.124200	0.087435
Zn9	Zn	0.894255	0.124211	-0.087241
O10	O	0.888404	0.258463	0.066377
C11	C	0.755879	0.131248	0.000080
C12	C	0.671857	0.129617	0.000071
C13	C	0.623479	0.212879	0.000066
C14	C	0.544531	0.211341	0.000076
C15	C	0.513962	0.126540	0.000086
C16	C	0.562346	0.043272	0.000093
C17	C	0.641292	0.044811	0.000088
C18	C	0.243965	0.037063	0.000113
C19	C	0.165012	0.035531	0.000115
C20	C	0.147204	0.203594	0.000101
C21	C	0.226150	0.205133	0.000096
C22	C	0.274527	0.121865	0.000108
C23	C	0.360131	0.123533	0.000098
C24	C	0.428360	0.124870	0.000090
C25	C	0.899532	-0.044414	0.000105
C26	C	0.897894	-0.146787	0.000105
C27	C	0.896563	-0.229926	0.000103
C28	C	0.894899	-0.334227	0.000097
C29	C	0.893579	-0.417361	0.000092
C30	C	0.891916	-0.521669	0.000087
C31	C	1.032611	0.117162	0.000112
C32	C	1.116633	0.118793	0.000116
C33	C	0.888958	0.292824	0.000087
C34	C	0.890596	0.395198	0.000082
N35	N	0.894226	0.124191	0.206646
N36	N	0.894269	0.124212	-0.206452
C37	C	0.945607	0.061406	0.248372
C38	C	0.945611	0.061406	0.331824
C39	C	0.894238	0.124195	0.373549
C40	C	0.842852	0.186982	0.331816
C41	C	0.842844	0.186978	0.248366
C42	C	0.842879	0.187001	0.668364
C43	C	0.842892	0.187002	0.751820
C44	C	0.945646	0.061428	0.751822
C45	C	0.945639	0.061424	0.668372
C46	C	0.894250	0.124208	0.626647
C47	C	0.894245	0.124207	0.536158
C48	C	0.894246	0.124201	0.464035
H49	H	0.140127	-0.033529	0.000124
H50	H	0.987474	0.010298	0.634402
H51	H	0.283344	-0.030739	0.000123
C52	C	1.002170	-0.007645	0.797721
C53	C	1.000761	-0.112662	0.786257
C54	C	1.057286	-0.181731	0.832152
C55	C	1.115218	-0.145783	0.889512
C56	C	1.116629	-0.040761	0.900979
C57	C	1.060105	0.028308	0.855083
H58	H	0.957874	-0.139278	0.743793
H59	H	1.056241	-0.259476	0.823663
H60	H	1.157061	-0.196912	0.923487
H61	H	1.159516	-0.014145	0.943443
H62	H	1.061150	0.106053	0.863572
C63	C	0.694511	-0.046779	0.000091
C64	C	0.691006	-0.116320	0.068941
C65	C	0.744224	-0.207912	0.068949
C66	C	0.800949	-0.229962	0.000107
C67	C	0.804457	-0.160419	-0.068748
C68	C	0.751238	-0.068827	-0.068755
H69	H	0.649013	-0.099998	0.119906
H70	H	0.741627	-0.259392	0.119920
H71	H	0.840345	-0.297764	0.000113
H72	H	0.846450	-0.176741	-0.119713
H73	H	0.753835	-0.017347	-0.119727
H74	H	0.801054	0.238134	0.785791
H75	H	0.987444	0.010280	0.214406
C76	C	0.657100	0.306164	0.000054
C77	C	0.708918	0.330342	-0.068796
C78	C	0.742535	0.423630	-0.068805
C79	C	0.724335	0.492740	0.000035
C80	C	0.672515	0.468563	0.068890
C81	C	0.638897	0.375275	0.068900
H82	H	0.722393	0.279181	-0.119760
H83	H	0.780896	0.441527	-0.119777
H84	H	0.749221	0.561797	0.000028
H85	H	0.659040	0.519724	0.119855
H86	H	0.600537	0.357379	0.119871
H87	H	0.987449	0.010281	0.365798
H88	H	0.537451	-0.025775	0.000112
H89	H	0.801038	0.238123	0.634398
C90	C	0.786339	0.256053	0.377709
C91	C	0.786379	0.256110	0.469501
C92	C	0.729866	0.325185	0.515391
C93	C	0.673313	0.394204	0.469488
C94	C	0.673271	0.394150	0.377690
C95	C	0.729784	0.325075	0.331801
H96	H	0.828244	0.205016	0.503486
H97	H	0.729897	0.325225	0.583345
H98	H	0.631479	0.445338	0.503458
H99	H	0.631406	0.445244	0.343705
H100	H	0.729753	0.325035	0.263846
H101	H	0.801004	0.238103	0.214393
H102	H	0.251035	0.274186	0.000085
C103	C	0.491319	0.302934	0.000072
C104	C	0.494823	0.372473	-0.068780
C105	C	0.441612	0.464071	-0.068782
C106	C	0.384899	0.486130	0.000068
C107	C	0.381393	0.416589	0.068925
C108	C	0.434603	0.324991	0.068927
H109	H	0.536808	0.356145	-0.119751
H110	H	0.444208	0.515550	-0.119754
H111	H	0.345509	0.553937	0.000067
H112	H	0.339408	0.432917	0.119896
H113	H	0.432008	0.273512	0.119899
C114	C	0.093987	0.295192	0.000098
C115	C	0.037258	0.317249	-0.068741
C116	C	-0.015956	0.408844	-0.068747
C117	C	-0.012441	0.478383	0.000087
C118	C	0.044290	0.456328	0.068932
C119	C	0.097504	0.364732	0.068937
H120	H	0.034654	0.265771	-0.119701
H121	H	-0.057952	0.425171	-0.119711
H122	H	-0.051833	0.546187	0.000083
H123	H	0.046894	0.507806	0.119891
H124	H	0.139500	0.348406	0.119901
