data_functionalizedCrystal
_audit_creation_method	'MofGen! by Chris Wilmer'
_symmetry_space_group_name_H-M	'P1'
_symmetry_Int_Tables_number	1
_symmetry_cell_setting	triclinic
loop_
_symmetry_equiv_pos_as_xyz
  x,y,z
_cell_length_a	16.959455
_cell_length_b	16.959454
_cell_length_c	12.759393
_cell_angle_alpha	89.970360
_cell_angle_beta	89.978003
_cell_angle_gamma	90.019503
loop_
_atom_site_label
_atom_site_type_symbol
_atom_site_fract_x
_atom_site_fract_y
_atom_site_fract_z
Zn1	Zn	1.208441	-0.314655	-0.594056
Zn2	Zn	1.208346	-0.446854	-0.418379
Zn3	Zn	1.076252	-0.314693	-0.418388
Zn4	Zn	1.076234	-0.446794	-0.594013
O5	O	1.142318	-0.380749	-0.506209
O6	O	1.319039	-0.332201	-0.570766
O7	O	1.190792	-0.429364	-0.271359
O8	O	1.093835	-0.204077	-0.441713
O9	O	1.318970	-0.429328	-0.441697
O10	O	1.190953	-0.204049	-0.570775
O11	O	1.093743	-0.332265	-0.271366
O12	O	0.965639	-0.332207	-0.441671
O13	O	1.093803	-0.429225	-0.741040
O14	O	0.965625	-0.429261	-0.570701
O15	O	1.190935	-0.332143	-0.741071
O16	O	1.190774	-0.557457	-0.441655
O17	O	1.093712	-0.557413	-0.570693
C18	C	0.936952	-0.380732	-0.506183
C19	C	0.849095	-0.380744	-0.506197
C20	C	0.807784	-0.431241	-0.438901
C21	C	0.807854	-0.330253	-0.573501
C22	C	0.725308	-0.330259	-0.573514
C23	C	0.683996	-0.380756	-0.506218
C24	C	0.725230	-0.431247	-0.438909
C25	C	0.684068	-0.279763	-0.640814
C26	C	0.601517	-0.279767	-0.640828
C27	C	0.560203	-0.330269	-0.573536
C28	C	0.601442	-0.380762	-0.506226
C29	C	0.560131	-0.431259	-0.438930
C30	C	0.601368	-0.481757	-0.371624
C31	C	0.683917	-0.481749	-0.371617
C32	C	0.477655	-0.330278	-0.573543
C33	C	0.477577	-0.431265	-0.438938
C34	C	1.142252	-0.586115	-0.506191
C35	C	1.142296	-0.673972	-0.506218
C36	C	1.091851	-1.045455	-0.573391
C37	C	1.193006	-1.045441	-0.439133
C38	C	1.192978	-0.962895	-0.439124
C39	C	1.142385	-0.921625	-0.506248
C40	C	1.091820	-0.962901	-0.573382
C41	C	1.243536	-0.921612	-0.371983
C42	C	1.243510	-0.839062	-0.371970
C43	C	1.192921	-0.797790	-0.439101
C44	C	1.142355	-0.839071	-0.506238
C45	C	1.091762	-0.797802	-0.573362
C46	C	1.041199	-0.839081	-0.640506
C47	C	1.041231	-0.921630	-0.640512
C48	C	1.192889	-0.715242	-0.439094
C49	C	1.091731	-0.715248	-0.573352
C50	C	1.348486	-0.380767	-0.506235
C51	C	1.436343	-0.380775	-0.506247
C52	C	1.142377	-0.380673	-0.780242
C53	C	1.142403	-0.380641	-0.897019
C54	C	1.142406	-0.174581	-0.506250
C55	C	1.142444	-0.086724	-0.506267
C56	C	1.192983	-0.330082	-0.951899
C57	C	1.192996	-0.330048	-1.061623
C58	C	1.091847	-0.431138	-1.061577
C59	C	1.091830	-0.431168	-0.951855
C60	C	1.142305	-0.380768	-0.233241
C61	C	1.142433	-0.380577	-0.116465
H62	H	0.567721	-0.522869	-0.316827
H63	H	1.000065	-0.955247	-0.695175
H64	H	0.567948	-0.238650	-0.695634
H65	H	1.050686	-1.079068	-0.628061
O66	O	0.728396	-0.536198	-0.299015
H67	H	0.766022	-0.576444	-0.345940
H68	H	1.234160	-0.288938	-0.907255
O69	O	1.247584	-1.089962	-0.366768
H70	H	1.212252	-1.127634	-0.313280
H71	H	1.050674	-0.472277	-1.106239
O72	O	1.247555	-0.275522	-1.120820
H73	H	1.282720	-0.240400	-1.064251
O74	O	1.298095	-0.966127	-0.299586
H75	H	1.333242	-0.923557	-0.252888
H76	H	1.050636	-0.472338	-0.907171
H77	H	0.444083	-0.289157	-0.628335
H78	H	1.050535	-0.681651	-0.628017
H79	H	0.443947	-0.472390	-0.384141
H80	H	0.717710	-0.238648	-0.695598
O81	O	0.852256	-0.485697	-0.366300
H82	H	0.889875	-0.525948	-0.413228
O83	O	0.852405	-0.275787	-0.646080
H84	H	0.916735	-0.284266	-0.634768
O85	O	0.986632	-0.794568	-0.712905
H86	H	0.995110	-0.730233	-0.701615
H87	H	1.284682	-0.805457	-0.317300
H88	H	1.234053	-0.681636	-0.384422
