data_functionalizedCrystal
_audit_creation_method	'MofGen! by Chris Wilmer'
_symmetry_space_group_name_H-M	'P1'
_symmetry_Int_Tables_number	1
_symmetry_cell_setting	triclinic
loop_
_symmetry_equiv_pos_as_xyz
  x,y,z
_cell_length_a	21.295420
_cell_length_b	21.295417
_cell_length_c	12.827885
_cell_angle_alpha	89.965426
_cell_angle_beta	90.021308
_cell_angle_gamma	89.976359
loop_
_atom_site_label
_atom_site_type_symbol
_atom_site_fract_x
_atom_site_fract_y
_atom_site_fract_z
Zn1	Zn	0.962347	0.250650	0.590871
Zn2	Zn	1.462347	0.750650	1.090871
Zn3	Zn	0.962260	0.355932	0.416116
Zn4	Zn	1.462260	0.855932	0.916116
Zn5	Zn	0.857076	0.250672	0.416138
Zn6	Zn	1.357076	0.750672	0.916138
Zn7	Zn	0.857044	0.355877	0.590810
Zn8	Zn	1.357044	0.855877	1.090810
O9	O	0.909682	0.303283	0.503484
O10	O	1.409682	0.803283	1.003484
O11	O	1.050424	0.264629	0.567705
O12	O	1.550424	0.764629	1.067705
O13	O	0.948284	0.342001	0.269883
O14	O	1.448284	0.842001	0.769883
O15	O	0.871090	0.162580	0.439351
O16	O	1.371090	0.662580	0.939351
O17	O	1.050361	0.341979	0.439314
O18	O	1.550361	0.841979	0.939314
O19	O	0.948432	0.162563	0.567726
O20	O	1.448432	0.662563	1.067726
O21	O	0.871006	0.264668	0.269899
O22	O	1.371006	0.764668	0.769899
O23	O	0.768982	0.264615	0.439292
O24	O	1.268982	0.764615	0.939292
O25	O	0.871036	0.341886	0.737054
O26	O	1.371036	0.841886	1.237054
O27	O	0.768959	0.341908	0.567623
O28	O	1.268959	0.841908	1.067623
O29	O	0.948401	0.264576	0.737099
O30	O	1.448401	0.764576	1.237099
O31	O	0.948253	0.444014	0.439255
O32	O	1.448253	0.944014	0.939255
O33	O	0.870952	0.443974	0.567602
O34	O	1.370952	0.943974	1.067602
C35	C	0.909607	0.466834	0.503443
C36	C	1.409607	0.966834	1.003443
C37	C	0.909632	0.536802	0.503460
C38	C	1.409632	1.036802	1.003460
C39	C	0.746130	0.303259	0.503454
C40	C	1.246130	0.803259	1.003454
C41	C	0.676162	0.303263	0.503466
C42	C	1.176162	0.803263	1.003466
C43	C	0.950078	1.036260	0.436861
C44	C	1.450078	1.536260	0.936861
C45	C	0.950054	0.970518	0.436833
C46	C	1.450054	1.470518	0.936833
C47	C	0.909765	0.937642	0.503591
C48	C	1.409765	1.437642	1.003591
C49	C	0.869485	0.970514	0.570363
C50	C	1.369485	1.470514	1.070363
C51	C	0.869505	1.036255	0.570382
C52	C	1.369505	1.536255	1.070382
N53	N	0.904874	0.834383	0.595028
N54	N	1.404874	1.334383	1.095028
N55	N	0.904858	0.771931	0.595007
N56	N	1.404858	1.271931	1.095007
C57	C	0.909701	0.739567	0.503536
C58	C	1.409701	1.239567	1.003536
N59	N	0.914572	0.772014	0.412085
N60	N	1.414572	1.272014	0.912085
N61	N	0.914591	0.834471	0.412108
N62	N	1.414591	1.334471	0.912108
C63	C	0.909739	0.866356	0.503577
C64	C	1.409739	1.366356	1.003577
C65	C	0.949950	0.635418	0.436733
C66	C	1.449950	1.135418	0.936733
C67	C	0.949922	0.569674	0.436703
C68	C	1.449922	1.069674	0.936703
C69	C	0.869356	0.569671	0.570242
C70	C	1.369356	1.069671	1.070242
C71	C	0.869381	0.635414	0.570262
C72	C	1.369381	1.135414	1.070262
C73	C	0.909681	0.668283	0.503509
C74	C	1.409681	1.168283	1.003509
C75	C	0.176736	0.263101	0.570461
C76	C	0.676736	0.763101	1.070461
C77	C	0.242479	0.263097	0.570461
C78	C	0.742479	0.763097	1.070461
C79	C	0.275322	0.303302	0.503508
C80	C	0.775322	0.803302	1.003508
C81	C	0.242418	0.343526	0.436569
C82	C	0.742418	0.843526	0.936569
C83	C	0.176677	0.343534	0.436578
C84	C	0.676677	0.843534	0.936578
N85	N	0.378516	0.308053	0.412005
N86	N	0.878516	0.808053	0.912005
N87	N	0.440967	0.308042	0.411999
N88	N	0.940967	0.808042	0.911999
C89	C	0.473397	0.303281	0.503477
C90	C	0.973397	0.803281	1.003477
N91	N	0.441016	0.298520	0.594964
N92	N	0.941016	0.798520	1.094964
N93	N	0.378559	0.298528	0.594969
N94	N	0.878559	0.798528	1.094969
C95	C	0.346608	0.303298	0.503491
C96	C	0.846608	0.803298	1.003491
C97	C	0.577579	0.263057	0.570417
C98	C	1.077579	0.763057	1.070417
C99	C	0.643323	0.263057	0.570419
C100	C	1.143323	0.763057	1.070419
C101	C	0.643261	0.343483	0.436517
C102	C	1.143261	0.843483	0.936517
C103	C	0.577518	0.343487	0.436525
C104	C	1.077518	0.843487	0.936525
C105	C	0.544681	0.303271	0.503474
C106	C	1.044681	0.803271	1.003474
C107	C	1.073872	0.303307	0.503514
C108	C	1.573872	0.803307	1.003514
C109	C	1.143840	0.303318	0.503527
C110	C	1.643840	0.803318	1.003527
C111	C	0.909724	0.303222	0.776054
C112	C	1.409724	0.803222	1.276054
C113	C	0.909743	0.303196	0.892207
C114	C	1.409743	0.803196	1.392207
C115	C	0.909772	1.139092	0.503561
C116	C	1.409772	1.639092	1.003561
C117	C	0.909805	1.069124	0.503629
C118	C	1.409805	1.569124	1.003629
C119	C	0.909675	0.303297	0.231974
C120	C	1.409675	0.803297	0.731974
C121	C	0.909779	0.303146	0.115821
C122	C	1.409779	0.803146	0.615821
C123	C	0.948030	0.264933	0.944014
C124	C	1.448030	0.764933	1.444014
C125	C	0.948049	0.264906	1.064064
C126	C	1.448049	0.764906	1.564064
H127	H	0.982891	1.063018	0.382502
H128	H	1.482891	1.563018	0.882502
O129	O	0.993363	0.534222	0.364690
O130	O	1.493363	1.034222	0.864690
H131	H	1.021393	0.568126	0.318288
H132	H	1.521393	1.068126	0.818288
H133	H	0.836711	1.063013	0.624755
H134	H	1.336711	1.563013	1.124755
H135	H	0.982850	0.943755	0.382461
H136	H	1.482850	1.443755	0.882461
O137	O	0.141318	0.219731	0.642672
O138	O	0.641318	0.719731	1.142672
H139	H	0.175242	0.191768	0.689221
H140	H	0.675242	0.691768	1.189221
O141	O	0.825900	0.534223	0.642250
O142	O	1.325900	1.034223	1.142250
H143	H	0.832654	0.482987	0.631026
H144	H	1.332654	0.982987	1.131026
H145	H	0.836588	0.662172	0.624635
H146	H	1.336588	1.162172	1.124635
H147	H	0.876974	0.335930	0.936730
H148	H	1.376974	0.835930	1.436730
O149	O	0.866342	0.346528	1.056818
O150	O	1.366342	0.846528	1.556818
H151	H	0.838308	0.374532	1.113000
H152	H	1.338308	0.874532	1.613000
H153	H	0.982764	0.662181	0.382377
H154	H	1.482764	1.162181	0.882377
O155	O	0.826031	0.935061	0.642373
O156	O	1.326031	1.435061	1.142373
H157	H	0.832787	0.883825	0.631152
H158	H	1.332787	1.383825	1.131152
H159	H	0.980830	0.232150	1.108617
H160	H	1.480830	0.732150	1.608617
H161	H	0.269268	0.230345	0.624966
H162	H	0.769268	0.730345	1.124966
H163	H	0.670001	0.376224	0.382011
H164	H	1.170001	0.876224	0.882011
O165	O	0.277836	0.386888	0.364345
O166	O	0.777836	0.886888	0.864345
H167	H	0.329077	0.380120	0.375573
H168	H	0.829077	0.880120	0.875573
H169	H	0.149893	0.376285	0.382071
H170	H	0.649893	0.876285	0.882071
O171	O	0.542155	0.219692	0.642633
O172	O	1.042155	0.719692	1.142633
H173	H	0.576078	0.191733	0.689192
H174	H	1.076078	0.691733	1.189192
O175	O	0.678809	0.219674	0.642608
O176	O	1.178809	0.719674	1.142608
H177	H	0.644928	0.191707	0.689149
H178	H	1.144928	0.691707	1.189149
O179	O	0.542030	0.386853	0.364314
O180	O	1.042030	0.886853	0.864314
H181	H	0.575911	0.414805	0.317747
H182	H	1.075911	0.914805	0.817747
H183	H	0.980792	0.232193	0.899491
H184	H	1.480792	0.732193	1.399491
