data_functionalizedCrystal
_audit_creation_method	'MofGen! by Chris Wilmer'
_symmetry_space_group_name_H-M	'P1'
_symmetry_Int_Tables_number	1
_symmetry_cell_setting	triclinic
loop_
_symmetry_equiv_pos_as_xyz
  x,y,z
_cell_length_a	21.395362
_cell_length_b	19.805405
_cell_length_c	19.805399
_cell_angle_alpha	89.970699
_cell_angle_beta	89.961981
_cell_angle_gamma	90.042288
loop_
_atom_site_label
_atom_site_type_symbol
_atom_site_fract_x
_atom_site_fract_y
_atom_site_fract_z
Zn1	Zn	0.957842	-0.269192	-0.383045
Zn2	Zn	1.457842	0.230808	0.116955
Zn3	Zn	0.957763	-0.382380	-0.269853
Zn4	Zn	1.457763	0.117620	0.230147
Zn5	Zn	0.853067	-0.269242	-0.269833
Zn6	Zn	1.353067	0.230758	0.230167
Zn7	Zn	0.853034	-0.382376	-0.382963
Zn8	Zn	1.353034	0.117624	0.117037
O9	O	0.905426	-0.325798	-0.326424
O10	O	1.405426	0.174202	0.173576
O11	O	1.045509	-0.284188	-0.368072
O12	O	1.545509	0.215812	0.131928
O13	O	0.943856	-0.367395	-0.175134
O14	O	1.443856	0.132605	0.324866
O15	O	0.867013	-0.174519	-0.284876
O16	O	1.367013	0.325481	0.215124
O17	O	1.045451	-0.367347	-0.284911
O18	O	1.545451	0.132653	0.215089
O19	O	0.943990	-0.174482	-0.368053
O20	O	1.443990	0.325518	0.131947
O21	O	0.866937	-0.284273	-0.175119
O22	O	1.366937	0.215727	0.324881
O23	O	0.765385	-0.284268	-0.284797
O24	O	1.265385	0.215732	0.215203
O25	O	0.866955	-0.367339	-0.477691
O26	O	1.366955	0.132661	0.022309
O27	O	0.765360	-0.367387	-0.367914
O28	O	1.265360	0.132613	0.132086
O29	O	0.943957	-0.284183	-0.477751
O30	O	1.443957	0.215817	0.022249
O31	O	0.943823	-0.477096	-0.284832
O32	O	1.443823	0.022904	0.215168
O33	O	0.866879	-0.477093	-0.367934
O34	O	1.366879	0.022907	0.132066
C35	C	0.742639	-0.325833	-0.326345
C36	C	1.242639	0.174167	0.173655
C37	C	0.672997	-0.325865	-0.326328
C38	C	1.172997	0.174135	0.173672
C39	C	0.905356	-0.501654	-0.326391
C40	C	1.405356	-0.001654	0.173609
C41	C	0.905383	-0.576886	-0.326399
C42	C	1.405383	-0.076886	0.173601
C43	C	0.640288	-0.369202	-0.369541
C44	C	1.140288	0.130798	0.130459
C45	C	0.574852	-0.369186	-0.369572
C46	C	1.074852	0.130814	0.130428
C47	C	0.542129	-0.325839	-0.326376
C48	C	1.042129	0.174161	0.173624
C49	C	0.574847	-0.282493	-0.283159
C50	C	1.074847	0.217507	0.216841
C51	C	0.640281	-0.282506	-0.283135
C52	C	1.140281	0.217494	0.216865
C53	C	0.438410	-0.320396	-0.265443
C54	C	0.938410	0.179604	0.234557
C55	C	0.372977	-0.320388	-0.265465
C56	C	0.872977	0.179612	0.234535
C57	C	0.340308	-0.325795	-0.326450
C58	C	0.840308	0.174205	0.173550
C59	C	0.373081	-0.331224	-0.387414
C60	C	0.873081	0.168776	0.112586
C61	C	0.438515	-0.331237	-0.387390
C62	C	0.938515	0.168763	0.112610
C63	C	0.471177	-0.325820	-0.326397
C64	C	0.971177	0.174180	0.173603
C65	C	0.236646	-0.369116	-0.369701
C66	C	0.736646	0.130884	0.130299
C67	C	0.171210	-0.369095	-0.369732
C68	C	0.671210	0.130905	0.130268
C69	C	0.171205	-0.282406	-0.283313
C70	C	0.671205	0.217594	0.216687
C71	C	0.236641	-0.282424	-0.283288
C72	C	0.736641	0.217576	0.216712
C73	C	0.269357	-0.325783	-0.326481
C74	C	0.769357	0.174217	0.173519
C75	C	0.945487	-0.612209	-0.283174
C76	C	1.445487	-0.112209	0.216826
C77	C	0.945513	-0.682897	-0.283189
C78	C	1.445513	-0.182897	0.216811
C79	C	0.905433	-0.718261	-0.326426
C80	C	1.405433	-0.218261	0.173574
C81	C	0.865327	-0.682933	-0.369657
C82	C	1.365327	-0.182933	0.130343
C83	C	0.865304	-0.612246	-0.369645
C84	C	1.365304	-0.112246	0.130355
C85	C	0.865420	-0.968006	-0.369707
C86	C	1.365420	-0.468006	0.130293
C87	C	0.865444	-1.038698	-0.369714
C88	C	1.365444	-0.538698	0.130286
C89	C	0.945629	-1.038658	-0.283251
C90	C	1.445629	-0.538658	0.216749
C91	C	0.945606	-0.967971	-0.283239
C92	C	1.445606	-0.467971	0.216761
C93	C	0.905503	-0.932648	-0.326472
C94	C	1.405503	-0.432648	0.173528
C95	C	0.905475	-0.856000	-0.326456
C96	C	1.405475	-0.356000	0.173544
C97	C	0.905456	-0.794908	-0.326439
C98	C	1.405456	-0.294908	0.173561
C99	C	1.068850	-0.325762	-0.326503
C100	C	1.568850	0.174238	0.173497
C101	C	1.138491	-0.325747	-0.326537
C102	C	1.638491	0.174253	0.173463
C103	C	0.905461	-0.325755	-0.502966
C104	C	1.405461	0.174245	-0.002966
C105	C	0.905476	-0.325737	-0.578198
C106	C	1.405476	0.174263	-0.078198
C107	C	0.905514	-0.149255	-0.326471
C108	C	1.405514	0.350745	0.173529
C109	C	0.905552	-0.074023	-0.326492
C110	C	1.405552	0.425977	0.173508
C111	C	0.945572	-0.282435	-0.613575
C112	C	1.445572	0.217565	-0.113575
C113	C	0.945579	-0.282416	-0.684263
C114	C	1.445579	0.217584	-0.184263
C115	C	0.905492	-0.325701	-0.719574
C116	C	1.405492	0.174299	-0.219574
C117	C	0.865392	-0.369005	-0.684193
C118	C	1.365392	0.130995	-0.184193
C119	C	0.865383	-0.369020	-0.613506
C120	C	1.365383	0.130980	-0.113506
C121	C	0.865427	-0.368941	-0.969266
C122	C	1.365427	0.131059	-0.469266
C123	C	0.865441	-0.368924	-1.039958
C124	C	1.365441	0.131076	-0.539958
C125	C	0.945623	-0.282337	-1.040024
C126	C	1.445623	0.217663	-0.540024
C127	C	0.945614	-0.282353	-0.969337
C128	C	1.445614	0.217647	-0.469337
C129	C	0.905512	-0.325653	-0.933962
C130	C	1.405512	0.174347	-0.433962
C131	C	0.905504	-0.325673	-0.857313
C132	C	1.405504	0.174327	-0.357313
C133	C	0.905502	-0.325685	-0.796221
C134	C	1.405502	0.174315	-0.296221
C135	C	0.905427	-0.325791	-0.150568
C136	C	1.405427	0.174209	0.349432
C137	C	0.905534	-0.325619	-0.075336
C138	C	1.405534	0.174381	0.424664
H139	H	0.666922	-0.404508	-0.404713
H140	H	1.166922	0.095492	0.095287
H141	H	0.346484	-0.335626	-0.437074
H142	H	0.846484	0.164374	0.062926
H143	H	0.263286	-0.404418	-0.404874
H144	H	0.763286	0.095582	0.095126
O145	O	0.822209	-1.076839	-0.416352
O146	O	1.322209	-0.576839	0.083648
H147	H	0.828958	-1.131926	-0.409088
H148	H	1.328958	-0.631926	0.090912
H149	H	0.978259	-0.247107	-0.940590
H150	H	1.478259	0.252893	-0.440590
O151	O	0.539553	-0.235740	-0.236571
O152	O	1.039553	0.264260	0.263429
H153	H	0.573294	-0.205601	-0.206520
H154	H	1.073294	0.294399	0.293480
O155	O	0.988861	-0.235612	-1.078177
O156	O	1.488861	0.264388	-0.578177
H157	H	0.982126	-0.242859	-1.133263
H158	H	1.482126	0.257141	-0.633263
H159	H	0.978285	-1.067426	-0.248051
H160	H	1.478285	-0.567426	0.251949
O161	O	0.988719	-0.574067	-0.236541
O162	O	1.488719	-0.074067	0.263459
H163	H	1.016615	-0.610509	-0.206492
H164	H	1.516615	-0.110509	0.293508
H165	H	0.978169	-0.711655	-0.247990
H166	H	1.478169	-0.211655	0.252010
O167	O	0.822088	-0.721070	-0.416286
O168	O	1.322088	-0.221070	0.083714
H169	H	0.828833	-0.776158	-0.409026
H170	H	1.328833	-0.276158	0.090974
O171	O	0.822154	-0.929925	-0.416331
O172	O	1.322154	-0.429925	0.083669
H173	H	0.850158	-0.897669	-0.450813
H174	H	1.350158	-0.397669	0.049187
H175	H	0.978230	-0.247157	-0.713064
H176	H	1.478230	0.252843	-0.213064
O177	O	0.473641	-0.314561	-0.199661
O178	O	0.973641	0.185439	0.300339
H179	H	0.503412	-0.359896	-0.192663
H180	H	1.003412	0.140104	0.307337
H181	H	0.832648	-0.583486	-0.404844
H182	H	1.332648	-0.083486	0.095156
H183	H	0.978241	-0.939180	-0.248028
H184	H	1.478241	-0.439180	0.251972
H185	H	0.978218	-0.247189	-0.584830
H186	H	1.478218	0.252811	-0.084830
H187	H	0.263273	-0.247137	-0.248095
H188	H	0.763273	0.252863	0.251905
O189	O	0.822196	-0.415605	-1.078048
O190	O	1.322196	0.084395	-0.578048
H191	H	0.794302	-0.445711	-1.041575
H192	H	1.294302	0.054289	-0.541575
O193	O	0.822144	-0.415607	-0.931115
O194	O	1.322144	0.084393	-0.431115
H195	H	0.794265	-0.445693	-0.967546
H196	H	1.294265	0.054307	-0.467546
O197	O	0.822149	-0.415689	-0.722273
O198	O	1.322149	0.084311	-0.222273
H199	H	0.828894	-0.408408	-0.777370
H200	H	1.328894	0.091592	-0.277370
O201	O	0.822126	-0.415716	-0.575350
O202	O	1.322126	0.084284	-0.075350
H203	H	0.832841	-0.468837	-0.588899
H204	H	1.332841	0.031163	-0.088899
O205	O	0.539560	-0.415956	-0.416156
O206	O	1.039560	0.084044	0.083844
H207	H	0.573303	-0.446118	-0.446175
H208	H	1.073303	0.053882	0.053825
H209	H	0.465196	-0.335656	-0.437029
H210	H	0.965196	0.164344	0.062971
H211	H	0.144563	-0.247109	-0.248145
H212	H	0.644563	0.252891	0.251855
O213	O	0.135925	-0.415929	-0.416254
O214	O	0.635925	0.084071	0.083746
H215	H	0.169670	-0.446116	-0.446244
H216	H	0.669670	0.053884	0.053756
H217	H	0.346298	-0.315971	-0.215825
H218	H	0.846298	0.184029	0.284175
H219	H	0.666913	-0.247214	-0.247945
H220	H	1.166913	0.252786	0.252055
