data_functionalizedCrystal
_audit_creation_method	'MofGen! by Chris Wilmer'
_symmetry_space_group_name_H-M	'P1'
_symmetry_Int_Tables_number	1
_symmetry_cell_setting	triclinic
loop_
_symmetry_equiv_pos_as_xyz
  x,y,z
_cell_length_a	16.120530
_cell_length_b	12.645330
_cell_length_c	16.120297
_cell_angle_alpha	87.125115
_cell_angle_beta	89.871860
_cell_angle_gamma	87.108294
loop_
_atom_site_label
_atom_site_type_symbol
_atom_site_fract_x
_atom_site_fract_y
_atom_site_fract_z
Zn1	Zn	1.247519	-0.537082	0.534581
Zn2	Zn	1.747519	-0.037082	1.034581
Zn3	Zn	1.254495	-0.705845	0.395529
Zn4	Zn	1.754495	-0.205845	0.895529
Zn5	Zn	1.115507	-0.519169	0.388499
Zn6	Zn	1.615507	-0.019169	0.888499
Zn7	Zn	1.108451	-0.704868	0.527498
Zn8	Zn	1.608451	-0.204868	1.027498
O9	O	1.181493	-0.616741	0.461527
O10	O	1.681493	-0.116741	0.961527
O11	O	1.364812	-0.567375	0.522042
O12	O	1.864812	-0.067375	1.022042
O13	O	1.241930	-0.673993	0.278231
O14	O	1.741930	-0.173993	0.778231
O15	O	1.133052	-0.373201	0.407899
O16	O	1.633052	0.126799	0.907899
O17	O	1.369937	-0.691364	0.419881
O18	O	1.869937	-0.191364	0.919881
O19	O	1.230041	-0.386362	0.515225
O20	O	1.730041	0.113638	1.015225
O21	O	1.139816	-0.536843	0.273066
O22	O	1.639816	-0.036843	0.773066
O23	O	0.998204	-0.535896	0.401031
O24	O	1.498204	-0.035896	0.901031
O25	O	1.121027	-0.689700	0.644804
O26	O	1.621027	-0.189700	1.144804
O27	O	0.993020	-0.672329	0.503153
O28	O	1.493020	-0.172329	1.003153
O29	O	1.223200	-0.566428	0.650008
O30	O	1.723200	-0.066428	1.150008
O31	O	1.235089	-0.854059	0.413013
O32	O	1.735089	-0.354059	0.913013
O33	O	1.127791	-0.853342	0.509970
O34	O	1.627791	-0.353342	1.009970
C35	C	0.965439	-0.602064	0.450561
C36	C	1.465439	-0.102064	0.950561
C37	C	0.873009	-0.595812	0.445890
C38	C	1.373009	-0.095812	0.945890
C39	C	1.181453	-0.892167	0.461505
C40	C	1.681453	-0.392167	0.961505
C41	C	1.181510	-1.010002	0.461528
C42	C	1.681510	-0.510002	0.961528
C43	C	0.703778	-0.584372	0.437368
C44	C	1.203778	-0.084372	0.937368
C45	C	0.660046	-0.649192	0.485747
C46	C	1.160046	-0.149192	0.985747
C47	C	0.565880	-0.642827	0.481005
C48	C	1.065880	-0.142827	0.981005
C49	C	0.797952	-0.590736	0.442108
C50	C	1.297952	-0.090736	0.942108
C51	C	1.248914	-1.177958	0.400396
C52	C	1.748914	-0.677958	0.900396
C53	C	1.249115	-1.055422	0.400564
C54	C	1.749115	-0.555422	0.900564
C55	C	1.200830	-1.061367	0.550384
C56	C	1.700830	-0.561367	1.050384
C57	C	1.201356	-1.183979	0.550068
C58	C	1.701356	-0.683979	1.050068
C59	C	1.094716	-1.169992	0.434665
C60	C	1.594716	-0.669992	0.934665
C61	C	1.095237	-1.047295	0.432721
C62	C	1.595237	-0.547295	0.932721
C63	C	1.398391	-0.631476	0.472536
C64	C	1.898391	-0.131476	0.972536
C65	C	1.490820	-0.637756	0.477228
C66	C	1.990820	-0.137756	0.977228
C67	C	1.170548	-0.629953	0.678422
C68	C	1.670548	-0.129953	1.178422
C69	C	1.165884	-0.635584	0.770849
C70	C	1.665884	-0.135584	1.270849
C71	C	1.181556	-0.340242	0.461568
C72	C	1.681556	0.159758	0.961568
C73	C	1.181582	-0.222415	0.461586
C74	C	1.681582	0.277585	0.961586
C75	C	1.192444	-0.603507	0.245479
C76	C	1.692444	-0.103507	0.745479
C77	C	1.197269	-0.597589	0.153060
C78	C	1.697269	-0.097589	0.653060
C79	C	1.157338	-0.645837	0.940074
C80	C	1.657338	-0.145837	1.440074
C81	C	1.205813	-0.587338	0.983840
C82	C	1.705813	-0.087338	1.483840
C83	C	1.201058	-0.593044	1.078003
C84	C	1.701058	-0.093044	1.578003
C85	C	1.162092	-0.640133	0.845903
C86	C	1.662092	-0.140133	1.345903
H87	H	0.693327	-0.709464	0.530727
H88	H	1.193327	-0.209464	1.030727
O89	O	1.097637	-0.717854	0.984106
O90	O	1.597637	-0.217854	1.484106
H91	H	1.103232	-0.711091	1.052226
H92	H	1.603232	-0.211091	1.552226
O93	O	0.659705	-0.504565	0.377763
O94	O	1.159705	-0.004565	0.877763
H95	H	0.591589	-0.512053	0.383332
H96	H	1.091589	-0.012053	0.883332
O97	O	1.028263	-1.207920	0.493546
O98	O	1.528263	-0.707920	0.993546
H99	H	0.981261	-1.248737	0.458414
H100	H	1.481261	-0.748737	0.958414
O101	O	1.233804	-1.009055	0.313476
O102	O	1.733804	-0.509055	0.813476
H103	H	1.226190	-1.074154	0.270859
H104	H	1.726190	-0.574154	0.770859
H105	H	1.250884	-0.532970	0.950591
H106	H	1.750884	-0.032970	1.450591
O107	O	1.234341	-1.211376	0.313219
O108	O	1.734341	-0.711376	0.813219
H109	H	1.178889	-1.259912	0.312546
H110	H	1.678889	-0.759912	0.812546
O111	O	1.333813	-1.225657	0.424207
O112	O	1.833813	-0.725657	0.924207
H113	H	1.328262	-1.280889	0.479434
H114	H	1.828262	-0.780889	0.979434
H115	H	1.313544	-1.031346	0.418724
H116	H	1.813544	-0.531346	0.918724
O117	O	1.285288	-1.229085	0.579577
O118	O	1.785288	-0.729085	1.079577
H119	H	1.325120	-1.163290	0.593935
H120	H	1.825120	-0.663290	1.093935
O121	O	1.138909	-1.223312	0.612841
O122	O	1.638909	-0.723312	1.112841
H123	H	1.108473	-1.154755	0.643294
H124	H	1.608473	-0.654755	1.143294
H125	H	1.153089	-1.032173	0.597388
H126	H	1.653089	-0.532173	1.097388
H127	H	1.076289	-1.195686	0.370767
H128	H	1.576289	-0.695686	0.870767
O129	O	1.283816	-1.028176	0.580414
O130	O	1.783816	-0.528176	1.080414
H131	H	1.282475	-0.940571	0.583108
H132	H	1.782475	-0.440571	1.083108
O133	O	1.075819	-1.002036	0.346078
O134	O	1.575819	-0.502036	0.846078
H135	H	1.127390	-0.953177	0.323619
H136	H	1.627390	-0.453177	0.823619
H137	H	1.042724	-1.015933	0.473662
H138	H	1.542724	-0.515933	0.973662
