data_functionalizedCrystal
_audit_creation_method	'MofGen! by Chris Wilmer'
_symmetry_space_group_name_H-M	'P1'
_symmetry_Int_Tables_number	1
_symmetry_cell_setting	triclinic
loop_
_symmetry_equiv_pos_as_xyz
  x,y,z
_cell_length_a	17.077404
_cell_length_b	19.077068
_cell_length_c	17.077396
_cell_angle_alpha	92.266197
_cell_angle_beta	89.982756
_cell_angle_gamma	92.327269
loop_
_atom_site_label
_atom_site_type_symbol
_atom_site_fract_x
_atom_site_fract_y
_atom_site_fract_z
Zn1	Zn	1.187457	-0.280191	-0.456376
Zn2	Zn	1.687457	0.219809	0.043624
Zn3	Zn	1.182084	-0.397897	-0.330374
Zn4	Zn	1.682084	0.102103	0.169626
Zn5	Zn	1.056193	-0.280218	-0.325125
Zn6	Zn	1.556193	0.219782	0.174875
Zn7	Zn	1.050874	-0.397853	-0.461596
Zn8	Zn	1.550874	0.102147	0.038404
O9	O	1.119152	-0.339040	-0.393368
O10	O	1.619152	0.160960	0.106632
O11	O	1.296591	-0.295812	-0.439673
O12	O	1.796591	0.204188	0.060327
O13	O	1.165362	-0.382315	-0.219832
O14	O	1.665362	0.117685	0.280168
O15	O	1.078080	-0.181723	-0.338154
O16	O	1.578080	0.318277	0.161846
O17	O	1.292644	-0.382290	-0.347101
O18	O	1.792644	0.117710	0.152899
O19	O	1.174519	-0.181704	-0.434583
O20	O	1.674519	0.318296	0.065417
O21	O	1.072870	-0.295857	-0.215975
O22	O	1.572870	0.204143	0.284025
O23	O	0.945641	-0.295815	-0.343216
O24	O	1.445641	0.204185	0.156784
O25	O	1.069014	-0.382216	-0.570749
O26	O	1.569014	0.117784	-0.070749
O27	O	0.941733	-0.382241	-0.443481
O28	O	1.441733	0.117759	0.056519
O29	O	1.169361	-0.295770	-0.566914
O30	O	1.669361	0.204230	-0.066914
O31	O	1.160205	-0.496382	-0.352163
O32	O	1.660205	0.003618	0.147837
O33	O	1.063805	-0.496350	-0.448571
O34	O	1.563805	0.003650	0.051429
C35	C	0.915205	-0.339027	-0.393345
C36	C	1.415205	0.160973	0.106655
C37	C	0.827954	-0.339038	-0.393355
C38	C	1.327954	0.160962	0.106645
C39	C	0.784947	-0.384108	-0.445486
C40	C	1.284947	0.115892	0.054514
C41	C	0.702966	-0.384110	-0.445498
C42	C	1.202966	0.115890	0.054502
C43	C	0.663995	-0.339044	-0.393376
C44	C	1.163995	0.160956	0.106624
C45	C	0.707008	-0.293969	-0.341243
C46	C	1.207008	0.206031	0.158757
C47	C	0.788987	-0.293965	-0.341235
C48	C	1.288987	0.206035	0.158765
C49	C	0.536137	-0.293983	-0.341263
C50	C	1.036137	0.206017	0.158737
C51	C	0.454153	-0.293988	-0.341270
C52	C	0.954153	0.206012	0.158730
C53	C	0.450117	-0.384128	-0.445526
C54	C	0.950117	0.115872	0.054474
C55	C	0.532096	-0.384124	-0.445518
C56	C	1.032096	0.115876	0.054482
C57	C	0.575103	-0.339049	-0.393384
C58	C	1.075103	0.160951	0.106616
C59	C	1.110866	-0.521903	-0.401520
C60	C	1.610866	-0.021903	0.098480
C61	C	1.107393	-0.600133	-0.405034
C62	C	1.607393	-0.100133	0.094966
C63	C	1.155990	-0.636879	-0.356533
C64	C	1.655990	-0.136879	0.143467
C65	C	1.152728	-0.710384	-0.359842
C66	C	1.652728	-0.210384	0.140158
C67	C	1.100864	-0.747143	-0.411651
C68	C	1.600864	-0.247143	0.088349
C69	C	1.052265	-0.710392	-0.460158
C70	C	1.552265	-0.210392	0.039842
C71	C	1.055531	-0.636888	-0.456851
C72	C	1.555531	-0.136888	0.043149
C73	C	1.085713	-0.966977	-0.426921
C74	C	1.585713	-0.466977	0.073079
C75	C	1.082448	-1.040486	-0.430222
C76	C	1.582448	-0.540486	0.069778
C77	C	1.182913	-1.040474	-0.329907
C78	C	1.682913	-0.540474	0.170093
C79	C	1.186172	-0.966968	-0.326602
C80	C	1.686172	-0.466968	0.173398
C81	C	1.137575	-0.930224	-0.375112
C82	C	1.637575	-0.430224	0.124888
N83	N	1.097527	-0.822277	-0.415033
N84	N	1.597527	-0.322277	0.084967
N85	N	1.140917	-0.855091	-0.371733
N86	N	1.640917	-0.355091	0.128267
C87	C	1.323896	-0.339053	-0.393391
C88	C	1.823896	0.160947	0.106609
C89	C	1.411145	-0.339059	-0.393400
C90	C	1.911145	0.160941	0.106600
C91	C	1.119194	-0.338985	-0.598110
C92	C	1.619194	0.161015	-0.098110
C93	C	1.119212	-0.338962	-0.685358
C94	C	1.619212	0.161038	-0.185358
C95	C	1.127492	-0.155462	-0.385200
C96	C	1.627492	0.344538	0.114800
C97	C	1.131046	-0.077232	-0.381720
C98	C	1.631046	0.422768	0.118280
C99	C	1.071067	-0.293938	-0.724339
C100	C	1.571067	0.206062	-0.224339
C101	C	1.071080	-0.293922	-0.806319
C102	C	1.571080	0.206078	-0.306319
C103	C	1.119243	-0.338927	-0.849316
C104	C	1.619243	0.161073	-0.349316
C105	C	1.167390	-0.383956	-0.810330
C106	C	1.667390	0.116044	-0.310330
C107	C	1.167372	-0.383975	-0.728352
C108	C	1.667372	0.116025	-0.228352
C109	C	1.167426	-0.383912	-0.981198
C110	C	1.667426	0.116088	-0.481198
C111	C	1.167446	-0.383892	-1.063182
C112	C	1.667446	0.116108	-0.563182
C113	C	1.071134	-0.293859	-1.059166
C114	C	1.571134	0.206141	-0.559166
C115	C	1.071116	-0.293878	-0.977187
C116	C	1.571116	0.206122	-0.477187
C117	C	1.119264	-0.338906	-0.938207
C118	C	1.619264	0.161094	-0.438207
C119	C	1.119158	-0.339043	-0.189420
C120	C	1.619158	0.160957	0.310580
C121	C	1.119301	-0.338868	-0.102163
C122	C	1.619301	0.161132	0.397837
H123	H	1.198220	-0.606956	-0.314341
H124	H	1.698220	-0.106956	0.185659
O125	O	0.835370	-0.245355	-0.285001
O126	O	1.335370	0.254645	0.214999
H127	H	0.874348	-0.209577	-0.318599
H128	H	1.374348	0.290423	0.181401
O129	O	1.019157	-0.245352	-0.848358
O130	O	1.519157	0.254648	-0.348358
H131	H	0.956998	-0.257414	-0.833144
H132	H	1.456998	0.242586	-0.333144
O133	O	1.219363	-0.432471	-0.939149
O134	O	1.719363	0.067529	-0.439149
H135	H	1.252866	-0.463756	-0.982818
H136	H	1.752866	0.036244	-0.482818
O137	O	1.219334	-0.432505	-0.856701
O138	O	1.719334	0.067495	-0.356701
H139	H	1.281486	-0.420449	-0.840430
H140	H	1.781486	0.079551	-0.340430
H141	H	1.031851	-0.257285	-0.689337
H142	H	1.531851	0.242715	-0.189337
H143	H	1.046142	-0.937065	-0.466418
H144	H	1.546142	-0.437065	0.033582
O145	O	0.826980	-0.432712	-0.501707
O146	O	1.326980	0.067288	-0.001707
H147	H	0.783298	-0.464046	-0.537964
H148	H	1.283298	0.035954	-0.037964
O149	O	0.656571	-0.432855	-0.501579
O150	O	1.156571	0.067145	-0.001579
H151	H	0.697440	-0.464246	-0.537762
H152	H	1.197440	0.035754	-0.037762
O153	O	1.019182	-0.245329	-0.930806
O154	O	1.519182	0.254671	-0.430806
H155	H	0.985702	-0.214016	-0.971683
H156	H	1.485702	0.285984	-0.471683
O157	O	1.242105	-0.927327	-0.270713
O158	O	1.742105	-0.427327	0.229287
H159	H	1.236203	-0.870042	-0.276554
H160	H	1.736203	-0.370042	0.223446
O161	O	0.403793	-0.432848	-0.501700
O162	O	0.903793	0.067152	-0.001700
H163	H	0.420086	-0.420931	-0.562819
H164	H	0.920086	0.079069	-0.062819
O165	O	0.574135	-0.432726	-0.501736
O166	O	1.074135	0.067274	-0.001736
H167	H	0.530458	-0.464064	-0.537996
H168	H	1.030458	0.035936	-0.037996
O169	O	1.026513	-1.080137	-0.486109
O170	O	1.526513	-0.580137	0.013891
H171	H	0.993275	-1.042238	-0.519292
H172	H	1.493275	-0.542238	-0.019292
O173	O	0.412114	-0.245376	-0.285062
O174	O	0.912114	0.254624	0.214938
H175	H	0.455791	-0.214024	-0.248818
H176	H	0.955791	0.285976	0.251182
H177	H	1.206583	-0.420633	-0.696614
H178	H	1.706583	0.079367	-0.196614
O179	O	1.235342	-1.080114	-0.277612
O180	O	1.735342	-0.580114	0.222388
H181	H	1.198754	-1.113666	-0.239154
H182	H	1.698754	-0.613666	0.260846
O183	O	0.582529	-0.245375	-0.285027
O184	O	1.082529	0.254625	0.214973
H185	H	0.541658	-0.214046	-0.248776
H186	H	1.041658	0.285954	0.251224
H187	H	1.031931	-0.257194	-1.090908
H188	H	1.531931	0.242806	-0.590908
O189	O	0.664963	-0.245372	-0.285025
O190	O	1.164963	0.254628	0.214975
H191	H	0.683187	-0.190143	-0.296123
H192	H	1.183187	0.309857	0.203877
O193	O	1.205139	-0.750020	-0.307526
O194	O	1.705139	-0.250020	0.192474
H195	H	1.241743	-0.712111	-0.270937
H196	H	1.741743	-0.212111	0.229063
O197	O	0.996318	-0.750039	-0.516028
O198	O	1.496318	-0.250039	-0.016028
H199	H	1.029934	-0.783485	-0.557497
H200	H	1.529934	-0.283485	-0.057497
O201	O	1.003107	-0.597249	-0.509154
O202	O	1.503107	-0.097249	-0.009154
H203	H	0.966486	-0.635156	-0.545728
H204	H	1.466486	-0.135156	-0.045728
O205	O	1.219386	-0.432436	-1.109563
O206	O	1.719386	0.067564	-0.609563
H207	H	1.252854	-0.463759	-1.068687
H208	H	1.752854	0.036241	-0.568687
