data_functionalizedCrystal
_audit_creation_method	'MofGen! by Chris Wilmer'
_symmetry_space_group_name_H-M	'P1'
_symmetry_Int_Tables_number	1
_symmetry_cell_setting	triclinic
loop_
_symmetry_equiv_pos_as_xyz
  x,y,z
_cell_length_a	10.654562
_cell_length_b	10.654550
_cell_length_c	9.130313
_cell_angle_alpha	89.999890
_cell_angle_beta	89.996930
_cell_angle_gamma	84.487503
loop_
_atom_site_label
_atom_site_type_symbol
_atom_site_fract_x
_atom_site_fract_y
_atom_site_fract_z
O1	O	1.667825	0.176469	-0.121892
O2	O	1.302348	0.193259	-0.121873
O3	O	1.493490	0.002125	-0.121877
O4	O	1.476683	0.367603	-0.121887
O5	O	1.493487	0.002130	0.121721
O6	O	1.302346	0.193264	0.121726
O7	O	1.667822	0.176474	0.121707
Cu8	Cu	1.485084	0.184869	0.143959
Cu9	Cu	1.485087	0.184863	-0.144125
O10	O	1.476681	0.367608	0.121711
C11	C	1.492254	-0.044671	-0.000080
C12	C	1.488563	-0.184114	-0.000085
C13	C	1.255549	0.192025	-0.000071
C14	C	1.116107	0.188327	-0.000064
C15	C	1.601103	-0.263595	-0.000086
C16	C	1.597627	-0.394615	-0.000096
C17	C	1.369059	-0.366662	-0.000097
C18	C	1.372537	-0.235644	-0.000098
C19	C	1.717129	-0.212064	-0.000073
C20	C	1.829680	-0.291546	-0.000072
C21	C	1.826203	-0.422567	-0.000083
C22	C	1.710176	-0.474106	-0.000093
C23	C	1.050575	0.186605	0.132710
C24	C	0.919553	0.183140	0.132686
C25	C	0.919605	0.183125	-0.132899
C26	C	1.050626	0.186580	-0.132873
C27	C	1.116056	0.188351	0.265519
C28	C	1.050523	0.186630	0.398304
C29	C	0.919501	0.183165	0.398280
C30	C	0.854011	0.181421	0.265470
C31	C	1.714621	0.177708	-0.000098
C32	C	1.854064	0.181406	-0.000115
C33	C	1.477916	0.414403	-0.000090
C34	C	1.481608	0.553847	-0.000094
N35	N	1.485091	0.184873	0.346582
N36	N	1.485089	0.184850	-0.346748
C37	C	1.569750	0.100268	0.423232
C38	C	1.569747	0.100253	0.576568
C39	C	1.400421	0.269459	0.576592
C40	C	1.400419	0.269467	0.423258
C41	C	1.654422	0.015674	0.346556
C42	C	1.739089	-0.068937	0.423206
C43	C	1.739086	-0.068952	0.576543
C44	C	1.654415	0.015644	0.653229
H45	H	1.719973	-0.105382	-0.000060
H46	H	1.808018	-0.137819	0.360760
H47	H	0.747324	0.178597	0.265461
H48	H	0.866149	0.181754	0.506400
H49	H	0.866273	0.181708	-0.241026
C50	C	1.122725	0.188481	-0.278921
C51	C	1.118036	0.079140	-0.388474
C52	C	1.190139	0.081035	-0.534523
C53	C	1.266931	0.192272	-0.571019
C54	C	1.271623	0.301622	-0.461463
C55	C	1.199521	0.299727	-0.315414
H56	H	1.061187	-0.003212	-0.361460
H57	H	1.186665	0.000087	-0.615623
H58	H	1.320306	0.193675	-0.679134
H59	H	1.328472	0.383974	-0.488478
H60	H	1.202995	0.380675	-0.234314
C61	C	1.307297	0.362518	0.660941
C62	C	1.307465	0.362681	0.829603
C63	C	1.214343	0.455747	0.913950
C64	C	1.121053	0.548649	0.829635
C65	C	1.120883	0.548489	0.660965
C66	C	1.214005	0.455424	0.576618
H67	H	1.376526	0.293906	0.892025
H68	H	1.214470	0.455864	1.038811
H69	H	1.052119	0.617541	0.892074
H70	H	1.051821	0.617264	0.598542
H71	H	1.213878	0.455307	0.451756
H72	H	1.924144	-0.249574	-0.000101
H73	H	1.808016	-0.137853	0.638950
H74	H	1.917847	-0.487279	-0.000097
C75	C	1.248745	-0.148202	-0.000096
C76	C	1.153991	-0.154683	-0.126591
C77	C	1.030197	-0.067239	-0.126599
C78	C	1.001158	0.026686	-0.000111
C79	C	1.095914	0.033171	0.126393
C80	C	1.219708	-0.054274	0.126401
H81	H	1.175485	-0.224215	-0.220233
H82	H	0.960052	-0.072039	-0.220247
H83	H	0.909518	0.091418	-0.000117
H84	H	1.074420	0.102703	0.220035
H85	H	1.289852	-0.049473	0.220049
H86	H	1.707355	-0.580794	-0.000117
H87	H	1.274595	-0.408637	-0.000104
H88	H	1.222740	0.191176	0.265554
H89	H	1.103855	0.188041	0.506432
H90	H	1.654411	0.015616	0.778087
H91	H	1.654435	0.015681	0.221701
H92	H	1.331481	0.338359	0.360849
