data_functionalizedCrystal
_audit_creation_method	'MofGen! by Chris Wilmer'
_symmetry_space_group_name_H-M	'P1'
_symmetry_Int_Tables_number	1
_symmetry_cell_setting	triclinic
loop_
_symmetry_equiv_pos_as_xyz
  x,y,z
_cell_length_a	19.188930
_cell_length_b	19.188924
_cell_length_c	12.503572
_cell_angle_alpha	93.509187
_cell_angle_beta	86.479840
_cell_angle_gamma	83.143372
loop_
_atom_site_label
_atom_site_type_symbol
_atom_site_fract_x
_atom_site_fract_y
_atom_site_fract_z
O1	O	0.930197	0.083100	-0.089672
O2	O	1.430197	0.583100	0.410328
O3	O	0.726882	0.094838	-0.089599
O4	O	1.226882	0.594838	0.410401
O5	O	0.834409	-0.012686	-0.089625
O6	O	1.334409	0.487314	0.410375
O7	O	0.822671	0.190625	-0.089646
O8	O	1.322671	0.690625	0.410354
O9	O	0.826322	-0.004586	0.089019
O10	O	1.326322	0.495414	0.589019
O11	O	0.718796	0.102938	0.089045
O12	O	1.218796	0.602938	0.589045
O13	O	0.922111	0.091200	0.088972
O14	O	1.422111	0.591200	0.588972
Cu15	Cu	0.819715	0.097809	0.105320
Cu16	Cu	1.319715	0.597809	0.605320
Cu17	Cu	0.829278	0.088230	-0.105947
Cu18	Cu	1.329278	0.588230	0.394053
O19	O	0.814584	0.198725	0.088998
O20	O	1.314584	0.698725	0.588998
C21	C	0.696828	0.098508	-0.000268
C22	C	1.196828	0.598508	0.499732
C23	C	0.619322	0.097369	-0.000239
C24	C	1.119322	0.597369	0.499761
C25	C	0.574397	0.160459	-0.000263
C26	C	1.074397	0.660459	0.499737
C27	C	0.501574	0.159387	-0.000274
C28	C	1.001574	0.659387	0.499726
C29	C	0.473680	0.095220	-0.000284
C30	C	0.973680	0.595220	0.499716
C31	C	0.518614	0.032122	-0.000255
C32	C	1.018614	0.532122	0.499745
C33	C	0.591435	0.033197	-0.000232
C34	C	1.091435	0.533197	0.499768
N35	N	0.368455	0.043414	-0.061123
N36	N	0.868455	0.543414	0.438877
N37	N	0.299277	0.042398	-0.061146
N38	N	0.799277	0.542398	0.438854
C39	C	0.254274	0.091979	-0.000350
C40	C	0.754274	0.591979	0.499650
N41	N	0.281061	0.142625	0.060458
N42	N	0.781061	0.642625	0.560458
N43	N	0.350245	0.143643	0.060477
N44	N	0.850245	0.643643	0.560477
C45	C	0.394718	0.094048	-0.000308
C46	C	0.894718	0.594048	0.499692
C47	C	0.130386	0.153911	-0.000384
C48	C	0.630386	0.653911	0.499616
C49	C	0.057561	0.152836	-0.000389
C50	C	0.557561	0.652836	0.499611
C51	C	0.074603	0.025569	-0.000380
C52	C	0.574603	0.525569	0.499620
C53	C	0.147425	0.026646	-0.000365
C54	C	0.647425	0.526646	0.499635
C55	C	0.175312	0.090818	-0.000372
C56	C	0.675312	0.590818	0.499628
C57	C	0.829986	-0.034647	-0.000302
C58	C	1.329986	0.465353	0.499698
C59	C	0.828847	-0.112152	-0.000299
C60	C	1.328847	0.387848	0.499701
C61	C	0.832724	-0.152966	-0.097677
C62	C	1.332724	0.347034	0.402323
C63	C	0.831644	-0.225789	-0.097685
C64	C	1.331644	0.274211	0.402315
C65	C	0.826702	-0.257797	-0.000309
C66	C	1.326702	0.242203	0.499691
C67	C	0.822821	-0.216973	0.097083
C68	C	1.322821	0.283027	0.597083
C69	C	0.823894	-0.144150	0.097088
C70	C	1.323894	0.355850	0.597088
N71	N	0.861470	-0.374175	0.072153
N72	N	1.361470	0.125825	0.572153
N73	N	0.860452	-0.443354	0.072141
N74	N	1.360452	0.056646	0.572141
C75	C	0.823468	-0.477207	-0.000318
C76	C	1.323468	0.022793	0.499682
N77	N	0.787549	-0.439269	-0.072782
N78	N	1.287549	0.060731	0.427218
N79	N	0.788570	-0.370085	-0.072773
N80	N	1.288570	0.129915	0.427227
C81	C	0.825538	-0.336760	-0.000303
C82	C	1.325538	0.163240	0.499697
C83	C	0.826174	-0.596984	-0.097712
C84	C	1.326174	-0.096984	0.402288
C85	C	0.825089	-0.669808	-0.097716
C86	C	1.325089	-0.169808	0.402284
C87	C	0.816273	-0.660991	0.097056
C88	C	1.316273	-0.160991	0.597056
C89	C	0.817350	-0.588168	0.097057
C90	C	1.317350	-0.088168	0.597057
C91	C	0.822304	-0.556169	-0.000330
C92	C	1.322304	-0.056169	0.499670
C93	C	0.952165	0.087530	-0.000362
C94	C	1.452165	0.587530	0.499638
C95	C	1.029672	0.088669	-0.000397
C96	C	1.529672	0.588669	0.499603
C97	C	0.819007	0.220686	-0.000328
C98	C	1.319007	0.720686	0.499672
C99	C	0.820146	0.298190	-0.000338
C100	C	1.320146	0.798190	0.499662
N101	N	0.812993	0.104546	0.253914
N102	N	1.312993	0.604546	0.753914
N103	N	0.836005	0.081487	-0.254541
N104	N	1.336005	0.581487	0.245459
C105	C	0.803106	0.114462	0.473032
C106	C	1.303106	0.614462	0.973032
C107	C	0.845890	0.071573	0.526348
C108	C	1.345890	0.571573	1.026348
C109	C	0.840389	0.077091	0.648273
C110	C	1.340389	0.577091	1.148273
C111	C	0.808607	0.108945	0.351096
C112	C	1.308607	0.608945	0.851096
H113	H	0.153092	0.206165	-0.000374
H114	H	0.653092	0.706165	0.499626
H115	H	0.812244	-0.687050	0.176342
H116	H	1.312244	-0.187050	0.676342
C117	C	0.888534	-0.051018	0.491749
C118	C	1.388534	0.448982	0.991749
C119	C	0.900913	0.016344	0.464496
C120	C	1.400913	0.516344	0.964496
H121	H	0.922499	-0.085132	0.453594
H122	H	1.422499	0.414868	0.953594
H123	H	0.891952	-0.054414	0.566757
H124	H	1.391952	0.445586	1.066757
H125	H	0.842757	-0.059196	0.473359
H126	H	1.342757	0.440804	0.973359
H127	H	0.946688	0.024524	0.482893
H128	H	1.446688	0.524524	0.982893
H129	H	0.897501	0.019742	0.389472
H130	H	1.397501	0.519742	0.889472
C131	C	0.702429	0.135661	0.599720
C132	C	1.202429	0.635661	1.099720
C133	C	0.748089	0.169624	0.535021
C134	C	1.248089	0.669624	1.035021
H135	H	0.668469	0.169718	0.638003
H136	H	1.168469	0.669718	1.138003
H137	H	0.679293	0.104767	0.555864
H138	H	1.179293	0.604767	1.055864
H139	H	0.728560	0.109473	0.649183
H140	H	1.228560	0.609473	1.149183
H141	H	0.721959	0.195808	0.485553
H142	H	1.221959	0.695808	0.985553
H143	H	0.771226	0.200530	0.578881
H144	H	1.271226	0.700530	1.078881
H145	H	0.836755	-0.126917	-0.176977
H146	H	1.336755	0.373083	0.323023
H147	H	0.051895	-0.026680	-0.000455
H148	H	0.551895	0.473320	0.499545
C149	C	0.550232	0.286148	-0.000270
C150	C	1.050232	0.786148	0.499730
C151	C	0.605049	0.230997	-0.000253
C152	C	1.105049	0.730997	0.499747
H153	H	0.569158	0.329695	-0.000255
H154	H	1.069158	0.829695	0.499745
H155	H	0.525026	0.280258	-0.062574
H156	H	1.025026	0.780258	0.437426
H157	H	0.519343	0.285899	0.062020
H158	H	1.019343	0.785899	0.562020
H159	H	0.635935	0.231243	-0.062547
H160	H	1.135935	0.731243	0.437453
H161	H	0.630267	0.236889	0.062058
H162	H	1.130267	0.736889	0.562058
H163	H	0.628013	-0.018181	-0.000214
H164	H	1.128013	0.481819	0.499786
C165	C	0.808543	-0.586772	0.289572
C166	C	1.308543	-0.086772	0.789572
C167	C	0.813104	-0.543302	0.204100
C168	C	1.313104	-0.043302	0.704100
H169	H	0.805925	-0.559073	0.355658
H170	H	1.305925	-0.059073	0.855658
H171	H	0.767601	-0.609904	0.285540
H172	H	1.267601	-0.109904	0.785540
H173	H	0.849016	-0.620814	0.285491
H174	H	1.349016	-0.120814	0.785491
H175	H	0.772628	-0.509263	0.208176
H176	H	1.272628	-0.009263	0.708176
H177	H	0.854050	-0.520159	0.208134
H178	H	1.354050	-0.020159	0.708134
H179	H	0.495898	-0.020124	-0.000278
H180	H	0.995898	0.479876	0.499722
C181	C	0.382374	0.214242	-0.000323
C182	C	0.882374	0.714242	0.499677
C183	C	0.452180	0.228739	-0.000304
C184	C	0.952180	0.728739	0.499696
H185	H	0.351884	0.257058	-0.000335
H186	H	0.851884	0.757058	0.499665
H187	H	0.376785	0.185097	-0.062614
H188	H	0.876785	0.685097	0.437386
H189	H	0.371110	0.190749	0.061981
H190	H	0.871110	0.690749	0.561981
H191	H	0.463446	0.252228	-0.062612
H192	H	0.963446	0.752228	0.437388
H193	H	0.457773	0.257896	0.061994
H194	H	0.957773	0.757896	0.561994
C195	C	0.048037	0.278739	-0.000422
C196	C	0.548037	0.778739	0.499578
C197	C	0.008176	0.222191	-0.000416
C198	C	0.508176	0.722191	0.499584
H199	H	0.017547	0.321555	-0.000446
H200	H	0.517547	0.821555	0.499554
H201	H	0.073956	0.279340	0.061878
H202	H	0.573956	0.779340	0.561878
H203	H	0.079633	0.273677	-0.062717
H204	H	0.579633	0.773677	0.437283
H205	H	-0.023416	0.227250	0.061883
H206	H	0.476584	0.727250	0.561883
H207	H	-0.017755	0.221590	-0.062722
H208	H	0.482245	0.721590	0.437278
H209	H	0.834797	-0.259026	-0.176985
H210	H	1.334797	0.240974	0.323015
H211	H	0.184004	-0.024729	-0.000351
H212	H	0.684004	0.475271	0.499649
H213	H	0.818795	-0.243038	0.176368
H214	H	1.318795	0.256962	0.676368
C215	C	0.756700	-0.106179	0.263120
C216	C	1.256700	0.393821	0.763120
C217	C	0.819636	-0.099284	0.204135
C218	C	1.319636	0.400716	0.704135
H219	H	0.754075	-0.078482	0.329208
H220	H	1.254075	0.421518	0.829208
H221	H	0.717989	-0.090602	0.223120
H222	H	1.217989	0.409398	0.723120
H223	H	0.755358	-0.154132	0.277047
H224	H	1.255358	0.345868	0.777047
H225	H	0.820975	-0.051332	0.190200
H226	H	1.320975	0.448668	0.690200
H227	H	0.858356	-0.114858	0.244143
H228	H	1.358356	0.385142	0.744143
C229	C	0.834771	-0.613009	-0.290233
C230	C	1.334771	-0.113009	0.209767
C231	C	0.831607	-0.561804	-0.204756
C232	C	1.331607	-0.061804	0.295244
H233	H	0.838120	-0.591290	-0.356316
H234	H	1.338120	-0.091290	0.143684
H235	H	0.874873	-0.646679	-0.286203
H236	H	1.374873	-0.146679	0.213797
H237	H	0.793458	-0.635778	-0.286158
H238	H	1.293458	-0.135778	0.213842
H239	H	0.872923	-0.539039	-0.208826
H240	H	1.372923	-0.039039	0.291174
H241	H	0.791501	-0.528121	-0.208788
H242	H	1.291501	-0.028121	0.291212
H243	H	0.828243	-0.703037	-0.177016
H244	H	1.328243	-0.203037	0.322984
