data_functionalizedCrystal
_audit_creation_method	'MofGen! by Chris Wilmer'
_symmetry_space_group_name_H-M	'P1'
_symmetry_Int_Tables_number	1
_symmetry_cell_setting	triclinic
loop_
_symmetry_equiv_pos_as_xyz
  x,y,z
_cell_length_a	6.817900
_cell_length_b	16.417825
_cell_length_c	11.102228
_cell_angle_alpha	93.887652
_cell_angle_beta	108.604565
_cell_angle_gamma	103.385495
loop_
_atom_site_label
_atom_site_type_symbol
_atom_site_fract_x
_atom_site_fract_y
_atom_site_fract_z
V1	V	-4.084993	-0.115887	-0.396702
O2	O	-4.071824	0.005567	-0.388692
O3	O	-4.035703	-0.229783	-0.394429
O4	O	-4.062176	-0.114105	-0.569516
O5	O	-4.045167	-0.110911	-0.212393
V6	V	-4.565422	-0.101360	-0.374603
O7	O	-4.353040	-0.147754	-0.445176
O8	O	-4.747572	-0.069493	-0.326129
O9	O	-4.391506	0.012536	-0.376876
O10	O	-4.695988	-0.222814	-0.382613
O11	O	-4.722645	-0.106335	-0.558912
O12	O	-4.365032	-0.103142	-0.201789
C13	C	-3.879659	-0.257548	-0.388285
C14	C	-3.920815	-0.350660	-0.387579
C15	C	-3.958127	-0.552923	-0.269549
C16	C	-3.996822	-0.640413	-0.268895
C17	C	-4.111669	-0.664324	-0.501771
C18	C	-4.072989	-0.576836	-0.502423
C19	C	-3.996207	-0.521138	-0.386308
C20	C	-4.073582	-0.696115	-0.385002
C21	C	-4.115537	-0.790975	-0.384294
C22	C	-3.954253	-0.426272	-0.387015
C23	C	-3.913427	-0.109989	-0.611624
C24	C	-3.976049	-0.109286	-0.752903
C25	C	-4.048079	-0.185658	-0.837721
C26	C	-4.106931	-0.184996	-0.970468
C27	C	-4.021708	-0.031582	-0.933566
C28	C	-3.962871	-0.032245	-0.800822
C29	C	-4.356191	-0.278930	-1.178218
C30	C	-4.428190	-0.355305	-1.263040
C31	C	-4.329040	-0.420556	-1.232077
C32	C	-4.157845	-0.409433	-1.116292
C33	C	-4.085830	-0.333056	-1.031476
C34	C	-4.185028	-0.267809	-1.062440
C35	C	-3.713596	0.061684	-0.593070
C36	C	-3.641566	0.138062	-0.508251
C37	C	-3.740698	0.203321	-0.539209
C38	C	-3.911860	0.192207	-0.654995
C39	C	-3.983891	0.115829	-0.739814
C40	C	-3.884758	0.050570	-0.708847
C41	C	-4.210891	0.040297	-0.383017
C42	C	-4.148974	0.133408	-0.383731
C43	C	-4.177122	-0.107261	-0.159675
C44	C	-4.093738	-0.107960	-0.018394
H45	H	-3.946439	-0.323999	-0.937210
O46	O	-4.061832	-0.472898	-1.086176
C47	C	-4.214701	-0.545477	-1.080431
H48	H	-4.353075	-0.525815	-1.061243
H49	H	-4.278630	-0.590035	-1.175832
C50	C	-3.938454	-0.615278	-0.994774
C51	C	-4.108399	-0.591127	-0.971195
H52	H	-3.872883	-0.643440	-0.927397
H53	H	-3.835463	-0.566382	-0.998649
H54	H	-3.991753	-0.652406	-1.074278
H55	H	-4.055095	-0.553992	-0.891702
H56	H	-4.211379	-0.640019	-0.967305
O57	O	-4.594409	-0.366240	-1.375582
C58	C	-4.636724	-0.447649	-1.443791
H59	H	-4.486772	-0.471544	-1.410766
H60	H	-4.774048	-0.492849	-1.424600
C61	C	-4.884177	-0.413894	-1.629396
C62	C	-4.699998	-0.443239	-1.588842
H63	H	-4.923217	-0.411175	-1.718871
H64	H	-4.855676	-0.359048	-1.583442
H65	H	-4.998592	-0.451564	-1.613393
H66	H	-4.585580	-0.405563	-1.604830
H67	H	-4.728481	-0.498079	-1.634803
H68	H	-4.174185	-0.709684	-0.596307
H69	H	-3.895608	-0.507575	-0.175000
O70	O	-3.960054	-0.671432	-0.155593
C71	C	-4.010626	-0.760594	-0.179907
H72	H	-4.128813	-0.784297	-0.282099
H73	H	-3.857793	-0.781110	-0.168587
C74	C	-3.967510	-0.769145	0.041802
C75	C	-4.112684	-0.798257	-0.083709
H76	H	-4.030455	-0.792378	0.101144
H77	H	-3.933430	-0.709075	0.058185
H78	H	-3.840160	-0.786244	0.051216
H79	H	-4.240018	-0.781149	-0.093126
H80	H	-4.146787	-0.858326	-0.100091
H81	H	-4.104012	-0.550958	-0.597509
O82	O	-4.452709	-0.215579	-1.208132
C83	C	-4.538402	-0.196548	-1.113003
H84	H	-4.566767	-0.253638	-1.061669
H85	H	-4.420555	-0.139879	-1.040412
C86	C	-4.718044	-0.105069	-1.239538
C87	C	-4.752900	-0.175191	-1.176497
H88	H	-4.850351	-0.091892	-1.278701
H89	H	-4.660305	-0.117888	-1.303627
H90	H	-4.619832	-0.057854	-1.179035
H91	H	-4.851088	-0.222407	-1.237002
H92	H	-4.810660	-0.162379	-1.112419
O93	O	-4.008353	0.255523	-0.685301
C94	C	-4.174904	0.229327	-0.805668
H95	H	-4.143016	0.176733	-0.863060
H96	H	-4.334633	0.204732	-0.790525
C97	C	-4.223307	0.369579	-0.809589
C98	C	-4.184132	0.304987	-0.880083
H99	H	-4.229008	0.416249	-0.855491
H100	H	-4.111104	0.387228	-0.728493
H101	H	-4.356411	0.349072	-0.796975
H102	H	-4.051018	0.325491	-0.892682
H103	H	-4.296313	0.287343	-0.961184
H104	H	-4.058814	-0.248389	-0.798711
H105	H	-4.387668	-0.482742	-1.301150
H106	H	-4.010982	0.031142	-0.972598
O107	O	-4.150335	0.104885	-0.852247
C108	C	-4.319399	0.035570	-0.855237
H109	H	-4.252611	-0.008295	-0.787415
H110	H	-4.441877	0.059620	-0.823437
C111	C	-4.510877	0.040499	-1.076374
C112	C	-4.428844	-0.013381	-0.993082
H113	H	-4.578396	0.010305	-1.161403
H114	H	-4.396980	0.087200	-1.074359
H115	H	-4.612930	0.060536	-1.049858
H116	H	-4.326775	-0.033409	-1.019588
H117	H	-4.542727	-0.060087	-0.995104
O118	O	-3.670521	0.277449	-0.456644
C119	C	-3.498140	0.273283	-0.347828
H120	H	-3.506706	0.204156	-0.336715
H121	H	-3.339706	0.304595	-0.360426
C122	C	-3.501768	0.404716	-0.240606
C123	C	-3.512300	0.319813	-0.226950
H124	H	-3.510494	0.433422	-0.166043
H125	H	-3.617899	0.407526	-0.313919
H126	H	-3.369738	0.430799	-0.251108
H127	H	-3.644339	0.293730	-0.216465
H128	H	-3.396191	0.317001	-0.153632
O129	O	-3.617277	-0.001730	-0.563211
C130	C	-3.531517	-0.020747	-0.658314
H131	H	-3.619891	0.000235	-0.751543
H132	H	-3.353527	0.014075	-0.624746
C133	C	-3.450354	-0.142676	-0.567100
C134	C	-3.558909	-0.116911	-0.681609
H135	H	-3.467240	-0.201994	-0.581467
H136	H	-3.508124	-0.129863	-0.503024
H137	H	-3.302038	-0.113650	-0.539139
H138	H	-3.707226	-0.145929	-0.709559
H139	H	-3.501165	-0.129732	-0.745690
H140	H	-3.502170	0.147112	-0.413980
