data_functionalizedCrystal
_audit_creation_method	'MofGen! by Chris Wilmer'
_symmetry_space_group_name_H-M	'P1'
_symmetry_Int_Tables_number	1
_symmetry_cell_setting	triclinic
loop_
_symmetry_equiv_pos_as_xyz
  x,y,z
_cell_length_a	16.109301
_cell_length_b	10.489741
_cell_length_c	15.186229
_cell_angle_alpha	89.996534
_cell_angle_beta	89.999362
_cell_angle_gamma	84.000327
loop_
_atom_site_label
_atom_site_type_symbol
_atom_site_fract_x
_atom_site_fract_y
_atom_site_fract_z
O1	O	1.104141	0.163947	-0.073172
O2	O	0.862205	0.184350	-0.073186
O3	O	0.988678	-0.011529	-0.073174
O4	O	0.977668	0.359826	-0.073185
O5	O	0.988670	-0.011532	0.073284
O6	O	0.862196	0.184347	0.073271
O7	O	1.104133	0.163944	0.073285
Zn8	Zn	0.983163	0.174145	0.096531
Zn9	Zn	0.983174	0.174149	-0.096433
O10	O	0.977659	0.359823	0.073272
C11	C	0.831221	0.183522	0.000041
C12	C	0.738910	0.181044	0.000035
C13	C	0.517319	0.291514	0.000042
C14	C	0.430584	0.289175	0.000048
C15	C	0.449026	0.056771	0.000051
C16	C	0.535759	0.059111	0.000052
C17	C	0.569903	0.176486	0.000043
C18	C	0.396435	0.171808	0.000048
C19	C	0.302393	0.169272	0.000054
C20	C	0.663950	0.179022	0.000038
C21	C	0.987842	-0.059050	0.000054
C22	C	0.985354	-0.200644	0.000053
C23	C	0.904883	-0.267616	0.000042
C24	C	0.942893	-0.360292	0.072255
C25	C	0.942920	-0.360264	-0.072141
C26	C	1.023397	-0.291454	0.072325
C27	C	1.023413	-0.291417	-0.072135
C28	C	1.061482	-0.384066	0.000096
C29	C	1.135117	0.164772	0.000056
C30	C	1.227427	0.167250	0.000056
C31	C	0.978495	0.407344	0.000042
C32	C	0.980983	0.548938	0.000038
N33	N	0.983162	0.174142	0.228224
N34	N	0.983183	0.174142	-0.228125
C35	C	1.039183	0.087436	0.453952
C36	C	1.039186	0.087433	0.546142
C37	C	0.927155	0.260852	0.546140
C38	C	0.927149	0.260848	0.453952
C39	C	0.983168	0.174141	0.407860
C40	C	0.983176	0.174142	0.592238
C41	C	0.983179	0.174140	0.692194
C42	C	0.983165	0.174142	0.307898
H43	H	0.545116	0.387088	0.000042
O44	O	1.093461	0.003101	0.409101
C45	C	1.110046	-0.171233	0.305136
C46	C	1.048497	-0.075737	0.355842
H47	H	1.073717	-0.235016	0.262078
H48	H	1.151922	-0.116297	0.261889
H49	H	1.150072	-0.233143	0.353958
H50	H	1.008416	-0.013802	0.307083
H51	H	1.006679	-0.130751	0.399102
H52	H	0.421215	-0.038791	0.000064
H53	H	0.881530	0.331455	0.416421
O54	O	0.902286	-0.396845	-0.144910
C55	C	0.855154	-0.572318	-0.226881
C56	C	0.901182	-0.531071	-0.144429
H57	H	0.854262	-0.680844	-0.226529
H58	H	0.788370	-0.524077	-0.226788
H59	H	0.888810	-0.542562	-0.288404
H60	H	0.867595	-0.560819	-0.082862
H61	H	0.967967	-0.579300	-0.144599
O62	O	0.902406	-0.396802	0.145146
C63	C	0.910962	-0.523086	0.278012
C64	C	0.956924	-0.481825	0.195516
H65	H	0.955014	-0.591854	0.318749
H66	H	0.889245	-0.434980	0.319170
H67	H	0.854572	-0.573037	0.257151
H68	H	1.013346	-0.431900	0.216298
H69	H	0.978579	-0.569976	0.154378
O70	O	1.093681	0.003161	0.590779
C71	C	1.204768	-0.168895	0.581046
C72	C	1.143109	-0.073501	0.530386
H73	H	1.244735	-0.230919	0.532240
H74	H	1.246688	-0.113874	0.624177
H75	H	1.168482	-0.232576	0.624234
H76	H	1.179328	-0.009796	0.487150
H77	H	1.101190	-0.128602	0.487310
O78	O	0.872629	0.344951	0.590878
C79	C	0.728520	0.419674	0.619057
C80	C	0.790177	0.324339	0.568355
H81	H	0.661844	0.403061	0.600852
H82	H	0.738075	0.404785	0.692874
H83	H	0.740003	0.521829	0.600935
H84	H	0.778731	0.222146	0.586403
H85	H	0.780607	0.339340	0.494550
H86	H	1.057413	-0.261117	0.133445
H87	H	0.387773	0.382843	0.000049
O88	O	0.825899	-0.207434	0.000159
C89	C	0.678737	-0.231253	0.001033
C90	C	0.768138	-0.299571	0.000915
H91	H	0.632013	-0.305715	0.001625
H92	H	0.669207	-0.168082	0.062036
H93	H	0.668811	-0.169370	-0.060545
H94	H	0.778126	-0.361521	0.062451
H95	H	0.777626	-0.362664	-0.060128
O96	O	1.140496	-0.444129	0.000300
C97	C	1.272146	-0.477117	0.076595
C98	C	1.182682	-0.409035	0.076478
H99	H	1.306286	-0.448748	0.138169
H100	H	1.269724	-0.585344	0.076066
H101	H	1.306681	-0.447591	0.015591
H102	H	1.148096	-0.438456	0.137472
H103	H	1.185164	-0.300822	0.076961
O104	O	1.063883	-0.254991	-0.145055
C105	C	1.067254	-0.248399	-0.303613
C106	C	1.021339	-0.289698	-0.221097
H107	H	1.032886	-0.276467	-0.365115
H108	H	1.069264	-0.140093	-0.302619
H109	H	1.133647	-0.298145	-0.304189
H110	H	0.954926	-0.240043	-0.220468
H111	H	1.019396	-0.398016	-0.222124
H112	H	0.578575	-0.034565	0.000055
