data_functionalizedCrystal
_audit_creation_method	'MofGen! by Chris Wilmer'
_symmetry_space_group_name_H-M	'P1'
_symmetry_Int_Tables_number	1
_symmetry_cell_setting	triclinic
loop_
_symmetry_equiv_pos_as_xyz
  x,y,z
_cell_length_a	18.215407
_cell_length_b	12.759400
_cell_length_c	18.215399
_cell_angle_alpha	90.023429
_cell_angle_beta	90.019833
_cell_angle_gamma	90.013614
loop_
_atom_site_label
_atom_site_type_symbol
_atom_site_fract_x
_atom_site_fract_y
_atom_site_fract_z
Zn1	Zn	1.125132	-0.418264	0.416139
Zn2	Zn	1.458465	-0.084931	0.749472
Zn3	Zn	1.791799	0.248402	1.082806
Zn4	Zn	1.125065	-0.593962	0.293082
Zn5	Zn	1.458399	-0.260628	0.626416
Zn6	Zn	1.791732	0.072705	0.959749
Zn7	Zn	1.002064	-0.418299	0.293086
Zn8	Zn	1.335398	-0.084966	0.626420
Zn9	Zn	1.668731	0.248368	0.959753
Zn10	Zn	1.002056	-0.593903	0.416107
Zn11	Zn	1.335389	-0.260570	0.749441
Zn12	Zn	1.668722	0.072763	1.082774
O13	O	1.063579	-0.506107	0.354604
O14	O	1.396913	-0.172774	0.687937
O15	O	1.730246	0.160560	1.021270
O16	O	1.228107	-0.441581	0.399827
O17	O	1.561441	-0.108248	0.733160
O18	O	1.894774	0.225085	1.066494
O19	O	1.108725	-0.570699	0.190099
O20	O	1.442058	-0.237365	0.523432
O21	O	1.775392	0.095968	0.856765
O22	O	1.018421	-0.271273	0.309424
O23	O	1.351754	0.062060	0.642758
O24	O	1.685088	0.395393	0.976091
O25	O	1.228059	-0.570665	0.309418
O26	O	1.561392	-0.237332	0.642751
O27	O	1.894725	0.096001	0.976084
O28	O	1.108838	-0.271248	0.399831
O29	O	1.442172	0.062085	0.733164
O30	O	1.775505	0.395419	1.066497
O31	O	1.018357	-0.441640	0.190102
O32	O	1.351690	-0.108306	0.523435
O33	O	1.685023	0.225027	0.856768
O34	O	0.899079	-0.441583	0.309394
O35	O	1.232412	-0.108250	0.642727
O36	O	1.565746	0.225084	0.976060
O37	O	1.018406	-0.570566	0.519096
O38	O	1.351739	-0.237232	0.852429
O39	O	1.685073	0.096101	1.185763
O40	O	0.899072	-0.570599	0.399777
O41	O	1.232406	-0.237266	0.733110
O42	O	1.565739	0.096068	1.066443
O43	O	1.108830	-0.441525	0.519119
O44	O	1.442163	-0.108191	0.852452
O45	O	1.775496	0.225142	1.185786
O46	O	1.108716	-0.740975	0.309387
O47	O	1.442050	-0.407642	0.642720
O48	O	1.775383	-0.074308	0.976054
O49	O	1.018341	-0.740932	0.399773
O50	O	1.351675	-0.407599	0.733106
O51	O	1.685008	-0.074265	1.066440
C52	C	0.872373	-0.506089	0.354583
C53	C	1.205706	-0.172756	0.687916
C54	C	1.539040	0.160578	1.021249
C55	C	0.790574	-0.506107	0.354591
C56	C	1.123908	-0.172773	0.687924
C57	C	1.457241	0.160560	1.021258
C58	C	0.602396	-0.573391	0.401594
C59	C	0.935729	-0.240058	0.734928
C60	C	1.269063	0.093276	1.068261
C61	C	0.525537	-0.573394	0.401604
C62	C	0.858871	-0.240061	0.734937
C63	C	1.192204	0.093272	1.068270
C64	C	0.525515	-0.438842	0.307629
C65	C	0.858848	-0.105509	0.640963
C66	C	1.192181	0.227824	0.974296
C67	C	0.602372	-0.438835	0.307624
C68	C	0.935705	-0.105501	0.640958
C69	C	1.269039	0.227832	0.974291
C70	C	0.640811	-0.506115	0.354606
C71	C	0.974144	-0.172781	0.687939
C72	C	1.307477	0.160552	1.021272
C73	C	0.487095	-0.506126	0.354620
C74	C	0.820428	-0.172793	0.687953
C75	C	1.153761	0.160541	1.021287
C76	C	0.403761	-0.506129	0.354630
C77	C	0.737094	-0.172796	0.687963
C78	C	1.070428	0.160538	1.021296
C79	C	0.724150	-0.506111	0.354597
C80	C	1.057483	-0.172777	0.687931
C81	C	1.390816	0.160556	1.021264
C82	C	1.063541	-0.779075	0.354592
C83	C	1.396874	-0.445741	0.687926
C84	C	1.730207	-0.112408	1.021259
C85	C	1.063592	-0.895851	0.354612
C86	C	1.396925	-0.562518	0.687945
C87	C	1.730258	-0.229184	1.021278
C88	C	1.110648	-0.950620	0.401725
C89	C	1.443982	-0.617287	0.735058
C90	C	1.777315	-0.283954	1.068392
C91	C	1.110682	-1.060344	0.401743
C92	C	1.444016	-0.727011	0.735076
C93	C	1.777349	-0.393678	1.068409
C94	C	1.016601	-1.060520	0.307528
C95	C	1.349935	-0.727187	0.640862
C96	C	1.683268	-0.393854	0.974195
C97	C	1.016564	-0.950798	0.307515
C98	C	1.349897	-0.617465	0.640848
C99	C	1.683231	-0.284132	0.974181
C100	C	1.157676	-0.895673	0.448822
C101	C	1.491009	-0.562340	0.782155
C102	C	1.824342	-0.229006	1.115489
C103	C	1.204737	-0.950442	0.495938
C104	C	1.538070	-0.617109	0.829272
C105	C	1.871404	-0.283776	1.162605
C106	C	1.204771	-1.060166	0.495956
C107	C	1.538104	-0.726833	0.829290
C108	C	1.871438	-0.393500	1.162623
C109	C	1.157744	-1.115121	0.448858
C110	C	1.491078	-0.781788	0.782191
C111	C	1.824411	-0.448454	1.115525
C112	C	1.255532	-0.506126	0.354625
C113	C	1.588866	-0.172793	0.687959
C114	C	1.922199	0.160541	1.021292
C115	C	1.337331	-0.506134	0.354635
C116	C	1.670664	-0.172801	0.687968
C117	C	2.003998	0.160533	1.021301
C118	C	1.063624	-0.506035	0.546557
C119	C	1.396957	-0.172701	0.879890
C120	C	1.730291	0.160632	1.213223
C121	C	1.063643	-0.506004	0.628356
C122	C	1.396977	-0.172671	0.961689
C123	C	1.730310	0.160663	1.295022
C124	C	1.063638	-0.232074	0.354632
C125	C	1.396971	0.101259	0.687965
C126	C	1.730305	0.434593	1.021298
C127	C	1.063663	-0.115297	0.354643
C128	C	1.396997	0.218036	0.687977
C129	C	1.730330	0.551369	1.021310
C130	C	1.063577	-0.506103	0.163398
C131	C	1.396910	-0.172770	0.496731
C132	C	1.730244	0.160563	0.830064
C133	C	1.063700	-0.505838	0.081599
C134	C	1.397034	-0.172505	0.414932
C135	C	1.730367	0.160828	0.748266
C136	C	1.110744	-0.438749	0.816563
C137	C	1.444077	-0.105416	1.149896
C138	C	1.777410	0.227917	1.483230
C139	C	1.110753	-0.438719	0.893422
C140	C	1.444086	-0.105385	1.226755
C141	C	1.777419	0.227948	1.560089
C142	C	1.016595	-0.573096	0.893386
C143	C	1.349928	-0.239763	1.226720
C144	C	1.683261	0.093571	1.560053
C145	C	1.016583	-0.573120	0.816529
C146	C	1.349916	-0.239787	1.149862
C147	C	1.683249	0.093546	1.483196
C148	C	1.063662	-0.505949	0.778119
C149	C	1.396995	-0.172615	1.111453
C150	C	1.730328	0.160718	1.444786
C151	C	1.063682	-0.505894	0.931835
C152	C	1.397016	-0.172560	1.265169
C153	C	1.730349	0.160773	1.598502
C154	C	1.063691	-0.505861	1.015169
C155	C	1.397025	-0.172528	1.348503
C156	C	1.730358	0.160806	1.681836
C157	C	1.063652	-0.505980	0.694780
C158	C	1.396985	-0.172646	1.028114
C159	C	1.730318	0.160687	1.361447
H160	H	1.157655	-0.806330	0.448811
H161	H	1.490988	-0.472997	0.782145
H162	H	1.824321	-0.139664	1.115478
H163	H	0.978245	-0.906205	0.269151
H164	H	1.311579	-0.572872	0.602485
H165	H	1.644912	-0.239538	0.935818
F166	F	1.157870	-1.231900	0.448793
F167	F	1.491203	-0.898567	0.782126
F168	F	1.824536	-0.565234	1.115460
F169	F	0.643258	-0.367221	0.257614
F170	F	0.976591	-0.033887	0.590947
F171	F	1.309925	0.299446	0.924280
H172	H	1.243085	-1.104757	0.534326
H173	H	1.576418	-0.771423	0.867660
H174	H	1.909751	-0.438090	1.200993
H175	H	0.978315	-1.105273	0.269183
H176	H	1.311648	-0.771940	0.602516
H177	H	1.644981	-0.438607	0.935849
F178	F	1.160847	-0.367257	0.775687
F179	F	1.494180	-0.033923	1.109020
F180	F	1.827514	0.299410	1.442354
H181	H	1.243020	-0.905693	0.534289
H182	H	1.576354	-0.572359	0.867622
H183	H	1.909687	-0.239026	1.200955
F184	F	0.484657	-0.644997	0.451617
F185	F	0.817990	-0.311664	0.784950
F186	F	1.151324	0.021670	1.118284
F187	F	1.160869	-0.367203	0.934333
F188	F	1.494202	-0.033869	1.267667
F189	F	1.827536	0.299464	1.601000
H190	H	0.978267	-0.627787	0.924669
H191	H	1.311600	-0.294454	1.258002
H192	H	1.644933	0.038880	1.591336
F193	F	0.966465	-0.644642	0.775612
F194	F	1.299799	-0.311309	1.108945
F195	F	1.633132	0.022024	1.442279
H196	H	0.494208	-0.384067	0.269377
H197	H	0.827542	-0.050733	0.602711
H198	H	1.160875	0.282600	0.936044
F199	F	0.643303	-0.644994	0.451598
F200	F	0.976636	-0.311660	0.784932
F201	F	1.309970	0.021673	1.118265
