data_functionalizedCrystal
_audit_creation_method	'MofGen! by Chris Wilmer'
_symmetry_space_group_name_H-M	'P1'
_symmetry_Int_Tables_number	1
_symmetry_cell_setting	triclinic
loop_
_symmetry_equiv_pos_as_xyz
  x,y,z
_cell_length_a	18.215407
_cell_length_b	21.395361
_cell_length_c	21.395355
_cell_angle_alpha	90.021511
_cell_angle_beta	90.024690
_cell_angle_gamma	90.031156
loop_
_atom_site_label
_atom_site_type_symbol
_atom_site_fract_x
_atom_site_fract_y
_atom_site_fract_z
Zn1	Zn	1.125077	-0.249504	0.354251
Zn2	Zn	1.458411	0.083830	0.687584
Zn3	Zn	1.791744	0.417163	1.020917
Zn4	Zn	1.124963	-0.354263	0.249468
Zn5	Zn	1.458296	-0.020930	0.582801
Zn6	Zn	1.791630	0.312403	0.916134
Zn7	Zn	1.002000	-0.249505	0.249487
Zn8	Zn	1.335333	0.083829	0.582820
Zn9	Zn	1.668666	0.417162	0.916154
Zn10	Zn	1.001963	-0.354248	0.354208
Zn11	Zn	1.335297	-0.020915	0.687541
Zn12	Zn	1.668630	0.312419	1.020874
O13	O	1.063501	-0.301880	0.301853
O14	O	1.396834	0.031453	0.635187
O15	O	1.730167	0.364787	0.968520
O16	O	1.228046	-0.263406	0.340361
O17	O	1.561380	0.069927	0.673694
O18	O	1.894713	0.403260	1.007028
O19	O	1.108619	-0.340374	0.161792
O20	O	1.441952	-0.007040	0.495126
O21	O	1.775285	0.326293	0.828459
O22	O	1.018389	-0.161827	0.263410
O23	O	1.351723	0.171507	0.596744
O24	O	1.685056	0.504840	0.930077
O25	O	1.227962	-0.340373	0.263377
O26	O	1.561296	-0.007040	0.596711
O27	O	1.894629	0.326294	0.930044
O28	O	1.108814	-0.161826	0.340380
O29	O	1.442147	0.171507	0.673713
O30	O	1.775481	0.504841	1.007046
O31	O	1.018278	-0.263408	0.161807
O32	O	1.351611	0.069925	0.495140
O33	O	1.684945	0.403259	0.828473
O34	O	0.899010	-0.263393	0.263369
O35	O	1.232344	0.069940	0.596702
O36	O	1.565677	0.403274	0.930035
O37	O	1.018327	-0.340347	0.441891
O38	O	1.351661	-0.007013	0.775225
O39	O	1.684994	0.326320	1.108558
O40	O	0.898984	-0.340348	0.340306
O41	O	1.232317	-0.007014	0.673640
O42	O	1.565651	0.326319	1.006973
O43	O	1.108779	-0.263391	0.441923
O44	O	1.442112	0.069942	0.775256
O45	O	1.775446	0.403275	1.108590
O46	O	1.108584	-0.441939	0.263336
O47	O	1.441917	-0.108606	0.596669
O48	O	1.775250	0.224727	0.930002
O49	O	1.018216	-0.441928	0.340288
O50	O	1.351550	-0.108595	0.673621
O51	O	1.684883	0.224739	1.006954
C52	C	1.063404	-0.464668	0.301818
C53	C	1.396737	-0.131334	0.635152
C54	C	1.730070	0.201999	0.968485
C55	C	1.063429	-0.534309	0.301824
C56	C	1.396763	-0.200975	0.635158
C57	C	1.730096	0.132358	0.968491
C58	C	0.872295	-0.301869	0.301835
C59	C	1.205628	0.031464	0.635169
C60	C	1.538961	0.364797	0.968502
C61	C	0.790496	-0.301880	0.301842
C62	C	1.123829	0.031454	0.635176
C63	C	1.457162	0.364787	0.968509
C64	C	1.110525	-0.567007	0.261797
C65	C	1.443859	-0.233674	0.595130
C66	C	1.777192	0.099660	0.928463
C67	C	1.110560	-0.632442	0.261811
C68	C	1.443893	-0.299109	0.595144
C69	C	1.777226	0.034224	0.928477
C70	C	1.063485	-0.665177	0.301846
C71	C	1.396818	-0.331844	0.635179
C72	C	1.730151	0.001490	0.968513
C73	C	1.016386	-0.632471	0.341882
C74	C	1.349719	-0.299138	0.675215
C75	C	1.683052	0.034196	1.008548
C76	C	1.016358	-0.567037	0.341871
C77	C	1.349691	-0.233704	0.675204
C78	C	1.683025	0.099630	1.008538
C79	C	0.997221	-0.768893	0.306756
C80	C	1.330555	-0.435559	0.640089
C81	C	1.663888	-0.102226	0.973422
C82	C	0.997248	-0.834326	0.306762
C83	C	1.330581	-0.500992	0.640095
C84	C	1.663915	-0.167659	0.973429
C85	C	1.063570	-0.866998	0.301883
C86	C	1.396904	-0.533665	0.635216
C87	C	1.730237	-0.200331	0.968549
C88	C	1.129869	-0.834229	0.296984
C89	C	1.463202	-0.500896	0.630317
C90	C	1.796535	-0.167562	0.963650
C91	C	1.129841	-0.768795	0.296973
C92	C	1.463174	-0.435462	0.630306
C93	C	1.796508	-0.102128	0.963640
C94	C	1.063510	-0.736129	0.301862
C95	C	1.396843	-0.402796	0.635196
C96	C	1.730176	-0.069463	0.968529
C97	C	1.110707	-0.970649	0.261868
C98	C	1.444041	-0.637315	0.595201
C99	C	1.777374	-0.303982	0.928535
C100	C	1.110743	-1.036085	0.261886
C101	C	1.444076	-0.702752	0.595220
C102	C	1.777410	-0.369418	0.928553
C103	C	1.016562	-1.036113	0.341954
C104	C	1.349896	-0.702779	0.675287
C105	C	1.683229	-0.369446	1.008621
C106	C	1.016533	-0.970677	0.341939
C107	C	1.349867	-0.637344	0.675272
C108	C	1.683200	-0.304011	1.008606
C109	C	1.063605	-0.937949	0.301892
C110	C	1.396938	-0.604616	0.635226
C111	C	1.730272	-0.271282	0.968559
C112	C	0.602307	-0.342013	0.341854
C113	C	0.935640	-0.008680	0.675187
C114	C	1.268974	0.324654	1.008520
C115	C	0.525448	-0.342015	0.341861
C116	C	0.858782	-0.008682	0.675195
C117	C	1.192115	0.324652	1.008528
C118	C	0.525446	-0.261758	0.261867
C119	C	0.858780	0.071575	0.595200
C120	C	1.192113	0.404908	0.928533
C121	C	0.602304	-0.261754	0.261862
C122	C	0.935637	0.071580	0.595196
C123	C	1.268971	0.404913	0.928529
C124	C	0.640732	-0.301885	0.301855
C125	C	0.974065	0.031449	0.635188
C126	C	1.307399	0.364782	0.968522
C127	C	0.487016	-0.301891	0.301867
C128	C	0.820349	0.031442	0.635200
C129	C	1.153683	0.364776	0.968534
C130	C	0.403682	-0.301893	0.301875
C131	C	0.737016	0.031440	0.635209
C132	C	1.070349	0.364774	0.968542
C133	C	0.724071	-0.301882	0.301848
C134	C	1.057404	0.031451	0.635181
C135	C	1.390738	0.364785	0.968515
C136	C	1.255454	-0.301891	0.301872
C137	C	1.588787	0.031442	0.635205
C138	C	1.922120	0.364776	0.968538
C139	C	1.337253	-0.301896	0.301880
C140	C	1.670586	0.031437	0.635213
C141	C	2.003919	0.364771	0.968546
C142	C	1.063562	-0.301867	0.465277
C143	C	1.396895	0.031466	0.798610
C144	C	1.730229	0.364799	1.131943
C145	C	1.063588	-0.301862	0.534918
C146	C	1.396921	0.031471	0.868251
C147	C	1.730255	0.364805	1.201585
C148	C	1.063618	-0.138457	0.301902
C149	C	1.396952	0.194877	0.635235
C150	C	1.730285	0.528210	0.968569
C151	C	1.063668	-0.068815	0.301923
C152	C	1.397002	0.264518	0.635256
C153	C	1.730335	0.597851	0.968589
C154	C	1.063482	-0.301847	0.139066
C155	C	1.396816	0.031486	0.472399
C156	C	1.730149	0.364819	0.805732
C157	C	1.063599	-0.301676	0.069425
C158	C	1.396932	0.031657	0.402758
C159	C	1.730266	0.364990	0.736092
C160	C	1.110684	-0.261790	0.567649
C161	C	1.444017	0.071544	0.900982
C162	C	1.777351	0.404877	1.234315
C163	C	1.110683	-0.261763	0.633084
C164	C	1.444016	0.071571	0.966417
C165	C	1.777350	0.404904	1.299751
C166	C	1.063594	-0.301819	0.665786
C167	C	1.396927	0.031514	0.999120
C168	C	1.730260	0.364848	1.332453
C169	C	1.016489	-0.341894	0.633048
C170	C	1.349822	-0.008561	0.966381
C171	C	1.683155	0.324772	1.299714
C172	C	1.016486	-0.341916	0.567614
C173	C	1.349819	-0.008582	0.900947
C174	C	1.683152	0.324751	1.234280
C175	C	1.057749	-0.358235	0.769449
C176	C	1.391082	-0.024901	1.102782
C177	C	1.724416	0.308432	1.436116
C178	C	1.057757	-0.358214	0.834882
C179	C	1.391090	-0.024881	1.168215
C180	C	1.724424	0.308452	1.501549
C181	C	1.063598	-0.301753	0.867607
C182	C	1.396932	0.031580	1.200941
C183	C	1.730265	0.364914	1.534274
C184	C	1.069447	-0.245310	0.834891
C185	C	1.402780	0.088023	1.168225
C186	C	1.736113	0.421356	1.501558
C187	C	1.069444	-0.245332	0.769457
C188	C	1.402777	0.088002	1.102791
C189	C	1.736111	0.421335	1.436124
C190	C	1.063591	-0.301800	0.736739
C191	C	1.396925	0.031533	1.070072
C192	C	1.730258	0.364866	1.403405
C193	C	1.110696	-0.261648	0.971290
C194	C	1.444029	0.071685	1.304624
C195	C	1.777362	0.405019	1.637957
C196	C	1.110690	-0.261620	1.036727
C197	C	1.444023	0.071713	1.370060
C198	C	1.777356	0.405047	1.703394
C199	C	1.016499	-0.341757	1.036690
C200	C	1.349832	-0.008424	1.370023
C201	C	1.683166	0.324909	1.703356
C202	C	1.016501	-0.341780	0.971254
C203	C	1.349835	-0.008446	1.304588
C204	C	1.683168	0.324887	1.637921
C205	C	1.063604	-0.301726	0.938559
C206	C	1.396937	0.031607	1.271892
C207	C	1.730270	0.364941	1.605225
H208	H	1.148855	-0.540362	0.229190
H209	H	1.482189	-0.207028	0.562523
H210	H	1.815522	0.126305	0.895857
H211	H	1.074204	-0.199334	0.861535
H212	H	1.407538	0.133999	1.194868
H213	H	1.740871	0.467333	1.528202
C214	C	0.964604	-0.668473	0.385921
C215	C	1.297938	-0.335140	0.719255
C216	C	1.631271	-0.001807	1.052588
H217	H	0.936555	-0.639625	0.409764
H218	H	1.269888	-0.306292	0.743097
H219	H	1.603221	0.027042	1.076430
H220	H	0.932562	-0.694037	0.361935
H221	H	1.265895	-0.360704	0.695268
H222	H	1.599229	-0.027371	1.028601
H223	H	0.992758	-0.693962	0.413248
H224	H	1.326091	-0.360629	0.746581
H225	H	1.659424	-0.027295	1.079915
H226	H	1.149045	-0.229030	0.944668
H227	H	1.482378	0.104303	1.278001
H228	H	1.815712	0.437636	1.611335
H229	H	0.633590	-0.229072	0.229291
H230	H	0.966924	0.104261	0.562624
H231	H	1.300257	0.437594	0.895957
C232	C	1.051163	-0.420334	0.733457
C233	C	1.384496	-0.087000	1.066791
C234	C	1.717830	0.246333	1.400124
H235	H	1.047643	-0.453941	0.762311
H236	H	1.380976	-0.120608	1.095645
H237	H	1.714309	0.212725	1.428978
H238	H	1.008465	-0.419436	0.707968
H239	H	1.341798	-0.086103	1.041301
H240	H	1.675132	0.247231	1.374634
H241	H	1.093282	-0.425935	0.707895
H242	H	1.426616	-0.092601	1.041229
H243	H	1.759949	0.240732	1.374562
H244	H	0.943264	-0.861001	0.310745
H245	H	1.276597	-0.527668	0.644078
H246	H	1.609930	-0.194334	0.977412
H247	H	0.978006	-0.540413	0.374467
H248	H	1.311339	-0.207080	0.707800
H249	H	1.644673	0.126253	1.041134
C250	C	1.162488	-0.217727	0.531687
C251	C	1.495822	0.115606	0.865020
C252	C	1.829155	0.448939	1.198353
H253	H	1.190533	-0.193854	0.560556
H254	H	1.523866	0.139479	0.893889
H255	H	1.857200	0.472813	1.227222
H256	H	1.194534	-0.241703	0.506169
H257	H	1.527868	0.091630	0.839502
H258	H	1.861201	0.424963	1.172835
H259	H	1.134351	-0.190430	0.506155
H260	H	1.467684	0.142903	0.839489
H261	H	1.801018	0.476237	1.172822
H262	H	1.148913	-0.659070	0.229215
H263	H	1.482247	-0.325737	0.562549
H264	H	1.815580	0.007596	0.895882
C265	C	1.162551	-1.072053	0.217853
C266	C	1.495884	-0.738720	0.551186
C267	C	1.829217	-0.405387	0.884520
H268	H	1.190573	-1.043188	0.193999
H269	H	1.523907	-0.709854	0.527332
H270	H	1.857240	-0.376521	0.860666
H271	H	1.194617	-1.097541	0.241846
H272	H	1.527950	-0.764207	0.575180
H273	H	1.861284	-0.430874	0.908513
H274	H	1.134418	-1.097616	0.190536
H275	H	1.467751	-0.764283	0.523870
H276	H	1.801084	-0.430949	0.857203
H277	H	0.633593	-0.374689	0.374420
H278	H	0.966926	-0.041355	0.707753
H279	H	1.300260	0.291978	1.041086
H280	H	1.183822	-0.742116	0.292986
H281	H	1.517156	-0.408783	0.626319
H282	H	1.850489	-0.075449	0.959653
H283	H	0.978146	-0.374507	0.659678
H284	H	1.311479	-0.041173	0.993012
H285	H	1.644812	0.292160	1.326345
C286	C	0.483184	-0.386155	0.385861
C287	C	0.816517	-0.052822	0.719195
C288	C	1.149850	0.280512	1.052528
H289	H	0.517080	-0.410055	0.409675
H290	H	0.850414	-0.076721	0.743008
H291	H	1.183747	0.256612	1.076342
H292	H	0.453234	-0.362227	0.413207
H293	H	0.786567	-0.028894	0.746540
H294	H	1.119901	0.304440	1.079873
H295	H	0.453170	-0.413424	0.361845
H296	H	0.786504	-0.080091	0.695178
H297	H	1.119837	0.253242	1.028512
C298	C	0.483173	-0.217625	0.217872
C299	C	0.816506	0.115708	0.551205
C300	C	1.149840	0.449042	0.884538
H301	H	0.431896	-0.223379	0.223597
H302	H	0.765229	0.109954	0.556930
H303	H	1.098563	0.443287	0.890264
H304	H	0.495795	-0.175539	0.227113
H305	H	0.829128	0.157795	0.560446
H306	H	1.162462	0.491128	0.893780
H307	H	0.495742	-0.226741	0.175756
H308	H	0.829076	0.106593	0.509089
H309	H	1.162409	0.439926	0.842422
H310	H	1.149033	-0.229127	0.659738
H311	H	1.482366	0.104206	0.993072
H312	H	1.815699	0.437539	1.326405
H313	H	0.978131	-0.374547	0.540965
H314	H	1.311464	-0.041213	0.874298
H315	H	1.644798	0.292120	1.207631
H316	H	1.074204	-0.199374	0.742823
H317	H	1.407537	0.133959	1.076156
H318	H	1.740871	0.467293	1.409489
H319	H	1.183875	-0.860829	0.293011
H320	H	1.517208	-0.527496	0.626344
H321	H	1.850542	-0.194163	0.959677
C322	C	1.162498	-0.217539	1.072731
C323	C	1.495832	0.115795	1.406064
C324	C	1.829165	0.449128	1.739398
H325	H	1.190553	-0.193693	1.043884
H326	H	1.523886	0.139640	1.377218
H327	H	1.857220	0.472973	1.710551
H328	H	1.134372	-0.190225	1.098248
H329	H	1.467705	0.143108	1.431581
H330	H	1.801038	0.476441	1.764915
H331	H	1.194546	-0.241507	1.098267
H332	H	1.527880	0.091827	1.431600
H333	H	1.861213	0.425160	1.764933
H334	H	0.978150	-0.374366	1.063315
H335	H	1.311484	-0.041033	1.396649
H336	H	1.644817	0.292301	1.729982
H337	H	0.978155	-0.374415	0.944605
H338	H	1.311488	-0.041081	1.277938
H339	H	1.644822	0.292252	1.611271
C340	C	0.924264	-0.732957	0.312122
C341	C	1.257597	-0.399623	0.645456
C342	C	1.590930	-0.066290	0.978789
H343	H	0.933742	-0.689294	0.311420
H344	H	1.267075	-0.355960	0.644753
H345	H	1.600409	-0.022627	0.978087
H346	H	0.893333	-0.743723	0.278016
H347	H	1.226666	-0.410389	0.611349
H348	H	1.559999	-0.077056	0.944683
H349	H	0.900714	-0.743677	0.350252
H350	H	1.234047	-0.410344	0.683586
H351	H	1.567381	-0.077011	1.016919
H352	H	1.052999	-0.404173	0.861514
H353	H	1.386333	-0.070840	1.194847
H354	H	1.719666	0.262493	1.528181
H355	H	1.149038	-0.944000	0.229262
H356	H	1.482372	-0.610667	0.562595
H357	H	1.815705	-0.277334	0.895928
C358	C	0.964718	-0.934707	0.385962
C359	C	1.298051	-0.601374	0.719295
C360	C	1.631385	-0.268041	1.052629
H361	H	0.936681	-0.963573	0.409804
H362	H	1.270015	-0.630240	0.743138
H363	H	1.603348	-0.296906	1.076471
H364	H	0.992839	-0.909143	0.413280
H365	H	1.326173	-0.575809	0.746613
H366	H	1.659506	-0.242476	1.079947
H367	H	0.932654	-0.909222	0.361958
H368	H	1.265987	-0.575889	0.695291
H369	H	1.599320	-0.242555	1.028625
H370	H	0.978236	-1.062764	0.374554
H371	H	1.311570	-0.729431	0.707888
H372	H	1.644903	-0.396098	1.041221
