data_functionalizedCrystal
_audit_creation_method	'MofGen! by Chris Wilmer'
_symmetry_space_group_name_H-M	'P1'
_symmetry_Int_Tables_number	1
_symmetry_cell_setting	triclinic
loop_
_symmetry_equiv_pos_as_xyz
  x,y,z
_cell_length_a	14.519731
_cell_length_b	10.489716
_cell_length_c	13.596369
_cell_angle_alpha	89.998063
_cell_angle_beta	89.994584
_cell_angle_gamma	84.108994
loop_
_atom_site_label
_atom_site_type_symbol
_atom_site_fract_x
_atom_site_fract_y
_atom_site_fract_z
O1	O	1.224757	0.167335	-0.081784
O2	O	1.724757	0.667335	0.418216
O3	O	0.956389	0.186997	-0.081785
O4	O	1.456389	0.686997	0.418215
O5	O	1.096692	-0.008497	-0.081788
O6	O	1.596692	0.491503	0.418212
O7	O	1.084455	0.362829	-0.081781
O8	O	1.584455	0.862829	0.418219
O9	O	1.096678	-0.008507	0.081795
O10	O	1.596678	0.491493	0.581795
O11	O	0.956375	0.186987	0.081798
O12	O	1.456375	0.686987	0.581798
O13	O	1.224743	0.167324	0.081798
O14	O	1.724743	0.667324	0.581798
Zn15	Zn	1.090557	0.177154	0.107771
Zn16	Zn	1.590557	0.677154	0.607771
Zn17	Zn	1.090576	0.177168	-0.107757
Zn18	Zn	1.590576	0.677168	0.392243
O19	O	1.084441	0.362818	0.081802
O20	O	1.584441	0.862818	0.581802
C21	C	0.922018	0.186070	0.000006
C22	C	1.422018	0.686070	0.500006
C23	C	0.819623	0.183310	0.000006
C24	C	1.319623	0.683310	0.500006
C25	C	0.736466	0.181066	0.000002
C26	C	1.236466	0.681066	0.500002
C27	C	0.632142	0.178264	0.000001
C28	C	1.132142	0.678264	0.500001
C29	C	0.548991	0.176039	0.000001
C30	C	1.048991	0.676039	0.500001
C31	C	0.444661	0.173236	-0.000001
C32	C	0.944661	0.673236	0.499999
C33	C	1.095765	-0.056025	0.000000
C34	C	1.595765	0.443975	0.500000
C35	C	1.093014	-0.197628	-0.000009
C36	C	1.593014	0.302372	0.499991
C37	C	1.179052	-0.296189	0.000000
C38	C	1.679052	0.203811	0.500000
C39	C	1.133595	-0.373076	-0.080652
C40	C	1.633595	0.126924	0.419348
C41	C	1.133561	-0.373050	0.080628
C42	C	1.633561	0.126950	0.580628
C43	C	1.047593	-0.272649	-0.080728
C44	C	1.547593	0.227351	0.419272
C45	C	1.047572	-0.272618	0.080625
C46	C	1.547572	0.227382	0.580625
C47	C	1.002051	-0.349454	-0.000048
C48	C	1.502051	0.150546	0.499952
C49	C	1.259115	0.168251	0.000005
C50	C	1.759115	0.668251	0.500005
C51	C	1.361510	0.171012	-0.000001
C52	C	1.861510	0.671012	0.499999
C53	C	1.085367	0.410346	0.000011
C54	C	1.585367	0.910346	0.500011
C55	C	1.088118	0.551949	0.000014
C56	C	1.588118	1.051949	0.500014
N57	N	1.090551	0.177144	0.254862
N58	N	1.590551	0.677144	0.754862
N59	N	1.090589	0.177168	-0.254849
N60	N	1.590589	0.677168	0.245151
C61	C	1.090574	0.177169	0.656153
C62	C	1.590574	0.677169	1.156153
C63	C	1.090565	0.177166	0.544502
C64	C	1.590565	0.677166	1.044502
C65	C	1.090563	0.177157	0.455511
C66	C	1.590563	0.677157	0.955511
C67	C	1.090553	0.177153	0.343853
C68	C	1.590553	0.677153	0.843853
H69	H	1.169921	-0.416941	-0.148839
H70	H	1.669921	0.083059	0.351161
H71	H	1.011299	-0.228966	-0.148989
H72	H	1.511299	0.271034	0.351011
H73	H	1.253891	-0.272285	-0.000081
H74	H	1.753891	0.227715	0.499919
H75	H	1.011278	-0.228730	0.148814
H76	H	1.511278	0.271270	0.648814
C77	C	0.902174	-0.380938	-0.000303
C78	C	1.402174	0.119062	0.499697
C79	C	0.857567	-0.329669	-0.084901
C80	C	1.357567	0.170331	0.415099
C81	C	0.765565	-0.358663	-0.085180
C82	C	1.265565	0.141337	0.414820
H83	H	0.871289	-0.345024	0.056382
H84	H	1.371289	0.154976	0.556382
H85	H	0.900910	-0.471310	0.000192
H86	H	1.400910	0.028690	0.500192
H87	H	0.858825	-0.239315	-0.085386
H88	H	1.358825	0.260685	0.414614
H89	H	0.888424	-0.365575	-0.141599
H90	H	1.388424	0.134425	0.358401
H91	H	0.764301	-0.449035	-0.084686
H92	H	1.264301	0.050965	0.415314
H93	H	0.734689	-0.322747	-0.028492
H94	H	1.234689	0.177253	0.471508
H95	H	0.735290	-0.323892	-0.142583
H96	H	1.235290	0.176108	0.357417
C97	C	1.182150	-0.431365	0.171515
C98	C	1.682150	0.068635	0.671515
C99	C	1.274714	-0.404864	0.171131
C100	C	1.774714	0.095136	0.671131
C101	C	1.319505	-0.458547	0.254842
C102	C	1.819505	0.041453	0.754842
H103	H	1.179640	-0.521497	0.171265
H104	H	1.679640	-0.021497	0.671265
H105	H	1.152259	-0.395603	0.228817
H106	H	1.652259	0.104397	0.728817
H107	H	1.304597	-0.440632	0.113845
H108	H	1.804597	0.059368	0.613845
H109	H	1.277250	-0.314744	0.171397
H110	H	1.777250	0.185256	0.671397
H111	H	1.289614	-0.422785	0.312143
H112	H	1.789614	0.077215	0.812143
H113	H	1.316989	-0.548676	0.254584
H114	H	1.816989	-0.048676	0.754584
H115	H	1.382312	-0.440564	0.254597
H116	H	1.882312	0.059436	0.754597
