data_functionalizedCrystal
_audit_creation_method	'MofGen! by Chris Wilmer'
_symmetry_space_group_name_H-M	'P1'
_symmetry_Int_Tables_number	1
_symmetry_cell_setting	triclinic
loop_
_symmetry_equiv_pos_as_xyz
  x,y,z
_cell_length_a	16.956984
_cell_length_b	16.956984
_cell_length_c	16.053802
_cell_angle_alpha	92.372341
_cell_angle_beta	87.610701
_cell_angle_gamma	76.053419
loop_
_atom_site_label
_atom_site_type_symbol
_atom_site_fract_x
_atom_site_fract_y
_atom_site_fract_z
O1	O	1.059453	0.029588	-0.069433
O2	O	1.559453	0.529588	0.430567
O3	O	0.825442	0.057706	-0.069434
O4	O	1.325442	0.557706	0.430566
O5	O	0.956506	-0.073359	-0.069428
O6	O	1.456506	0.426641	0.430572
O7	O	0.928389	0.160652	-0.069440
O8	O	1.428389	0.660652	0.430560
O9	O	0.949294	-0.066172	0.069431
O10	O	1.449294	0.433828	0.569431
O11	O	0.818230	0.064892	0.069424
O12	O	1.318230	0.564892	0.569424
O13	O	1.052241	0.036774	0.069425
O14	O	1.552241	0.536774	0.569425
Zn15	Zn	0.934090	0.051974	0.091472
Zn16	Zn	1.434090	0.551974	0.591472
Zn17	Zn	0.943593	0.042506	-0.091480
Zn18	Zn	1.443593	0.542506	0.408520
O19	O	0.921177	0.167838	0.069419
O20	O	1.421177	0.667838	0.569419
C21	C	0.792033	0.062739	-0.000005
C22	C	1.292033	0.562739	0.499995
C23	C	0.703230	0.067019	-0.000005
C24	C	1.203230	0.567019	0.499995
C25	C	0.675864	-0.004554	-0.000000
C26	C	1.175864	0.495446	0.500000
C27	C	0.592423	-0.000527	-0.000006
C28	C	1.092423	0.499473	0.499994
C29	C	0.536350	0.075074	-0.000012
C30	C	1.036350	0.575074	0.499988
C31	C	0.563722	0.146652	-0.000019
C32	C	1.063722	0.646652	0.499981
C33	C	0.647161	0.142624	-0.000019
C34	C	1.147161	0.642624	0.499981
C35	C	0.285264	0.095010	-0.000018
C36	C	0.785264	0.595010	0.499982
C37	C	0.201820	0.099033	-0.000016
C38	C	0.701820	0.599033	0.499984
C39	C	0.230527	-0.048147	-0.000005
C40	C	0.730527	0.451853	0.499995
C41	C	0.313966	-0.052168	0.000001
C42	C	0.813966	0.447832	0.500001
C43	C	0.341331	0.019410	-0.000011
C44	C	0.841331	0.519410	0.499989
N45	N	0.451061	0.079192	-0.000015
N46	N	0.951061	0.579192	0.499985
N47	N	0.426620	0.015291	-0.000014
N48	N	0.926620	0.515291	0.499986
C49	C	0.954340	-0.099568	0.000001
C50	C	1.454340	0.400432	0.500001
C51	C	0.958621	-0.188371	0.000000
C52	C	1.458621	0.311629	0.500000
C53	C	0.887048	-0.215738	-0.000003
C54	C	1.387048	0.284262	0.499997
C55	C	0.891075	-0.299178	-0.000001
C56	C	1.391075	0.200822	0.499999
C57	C	0.966676	-0.355251	-0.000001
C58	C	1.466676	0.144749	0.499999
C59	C	1.038254	-0.327880	0.000006
C60	C	1.538254	0.172120	0.500006
C61	C	1.034226	-0.244441	0.000009
C62	C	1.534226	0.255559	0.500009
C63	C	0.986613	-0.606339	-0.000006
C64	C	1.486613	-0.106339	0.499994
C65	C	0.990636	-0.689783	-0.000013
C66	C	1.490636	-0.189783	0.499987
C67	C	0.843456	-0.661075	-0.000018
C68	C	1.343456	-0.161075	0.499982
C69	C	0.839435	-0.577636	-0.000019
C70	C	1.339435	-0.077636	0.499981
C71	C	0.911013	-0.550271	-0.000008
C72	C	1.411013	-0.050271	0.499992
N73	N	0.970794	-0.440542	-0.000001
N74	N	1.470794	0.059458	0.499999
N75	N	0.906893	-0.464982	-0.000002
N76	N	1.406893	0.035018	0.499998
C77	C	1.085650	0.031741	-0.000006
C78	C	1.585650	0.531741	0.499994
C79	C	1.174453	0.027460	-0.000011
C80	C	1.674453	0.527460	0.499989
C81	C	0.923343	0.194048	-0.000012
C82	C	1.423343	0.694048	0.499988
C83	C	0.919063	0.282851	-0.000017
C84	C	1.419063	0.782851	0.499983
N85	N	0.927611	0.058435	0.216332
N86	N	1.427611	0.558435	0.716332
N87	N	0.950079	0.036038	-0.216340
N88	N	1.450079	0.536038	0.283660
C89	C	0.983397	0.002684	0.260028
C90	C	1.483397	0.502684	0.760028
C91	C	0.978871	0.007211	0.347435
C92	C	1.478871	0.507211	0.847435
C93	C	0.918563	0.067492	0.391143
C94	C	1.418563	0.567492	0.891143
C95	C	0.862771	0.123246	0.347440
C96	C	1.362771	0.623246	0.847440
C97	C	0.867294	0.118715	0.260035
C98	C	1.367294	0.618715	0.760035
C99	C	0.898810	0.087261	0.652552
C100	C	1.398810	0.587261	1.152552
C101	C	0.894293	0.091789	0.739963
C102	C	1.394293	0.591789	1.239963
C103	C	1.010393	-0.024248	0.739951
C104	C	1.510393	0.475752	1.239951
C105	C	1.014913	-0.028770	0.652545
C106	C	1.514913	0.471230	1.152545
C107	C	0.959118	0.026981	0.608850
C108	C	1.459118	0.526981	1.108850
N109	N	0.913937	0.072122	0.480487
N110	N	1.413937	0.572122	0.980487
N111	N	0.963741	0.022346	0.519508
N112	N	1.463741	0.522346	1.019508
H113	H	0.570147	-0.058809	-0.000003
H114	H	1.070147	0.441191	0.499997
H115	H	1.099810	-0.373541	0.000011
H116	H	1.599810	0.126459	0.500011
O117	O	1.111425	-0.214923	0.000002
O118	O	1.611425	0.285077	0.500002
H119	H	1.144551	-0.234901	0.056593
H120	H	1.644551	0.265099	0.556593
O121	O	1.079960	-0.093797	0.605413
O122	O	1.579960	0.406203	1.105413
H123	H	1.140844	-0.086802	0.622183
H124	H	1.640844	0.413198	1.122183
H125	H	0.821866	0.164112	0.224458
H126	H	1.321866	0.664112	0.724458
O127	O	0.676677	0.219824	-0.000023
O128	O	1.176677	0.719824	0.499977
H129	H	0.744118	0.204323	-0.000030
H130	H	1.244118	0.704323	0.499970
H131	H	1.052203	-0.735438	-0.000018
H132	H	1.552203	-0.235438	0.499982
O133	O	1.048431	-0.062352	0.212893
O134	O	1.548431	0.437648	0.712893
H135	H	1.042206	-0.056140	0.144773
H136	H	1.542206	0.443860	0.644773
O137	O	0.736342	-0.086095	0.000006
O138	O	1.236342	0.413905	0.500006
H139	H	0.703290	-0.135187	0.000001
H140	H	1.203290	0.364813	0.500001
H141	H	0.518061	0.208208	-0.000029
H142	H	1.018061	0.708208	0.499971
O143	O	0.314764	0.172215	-0.000008
O144	O	0.814764	0.672215	0.499992
H145	H	0.294797	0.205356	-0.056598
H146	H	0.794797	0.705356	0.443402
O147	O	0.766258	-0.690592	-0.000011
O148	O	1.266258	-0.190592	0.499989
H149	H	0.767508	-0.730852	-0.056603
H150	H	1.267508	-0.230852	0.443397
H151	H	0.208238	-0.106422	-0.000004
H152	H	0.708238	0.393578	0.499996
O153	O	1.039053	-0.052906	0.394568
O154	O	1.539053	0.447094	0.894568
H155	H	1.081760	-0.095573	0.349491
H156	H	1.581760	0.404427	0.849491
O157	O	0.374439	-0.133712	0.000010
O158	O	0.874439	0.366288	0.500010
H159	H	0.416087	-0.141999	-0.056581
H160	H	0.916087	0.358001	0.443419
O161	O	0.757887	-0.517167	-0.000013
O162	O	1.257887	-0.017167	0.499987
H163	H	0.755465	-0.481394	-0.056612
H164	H	1.255465	0.018606	0.443388
H165	H	0.825485	-0.170088	-0.000008
H166	H	1.325485	0.329912	0.499992
H167	H	1.055817	-0.069638	0.775536
H168	H	1.555817	0.430362	1.275536
O169	O	0.141336	0.180577	-0.000031
O170	O	0.641336	0.680577	0.499969
H171	H	0.174382	0.229673	-0.000049
H172	H	0.674382	0.729673	0.499951
H173	H	0.845180	0.140881	0.775546
H174	H	1.345180	0.640881	1.275546
O175	O	0.813879	-0.328698	-0.000004
O176	O	1.313879	0.171302	0.499996
H177	H	0.760633	-0.275690	-0.000013
H178	H	1.260633	0.224310	0.499987
H179	H	0.853381	0.132657	0.616982
H180	H	1.353381	0.632657	1.116982
O181	O	1.063812	-0.576828	-0.000019
O182	O	1.563812	-0.076828	0.499981
H183	H	1.117057	-0.629840	-0.000035
H184	H	1.617057	-0.129840	0.499965
H185	H	0.813663	0.172326	0.383033
H186	H	1.313663	0.672326	0.883033
