data_functionalizedCrystal
_audit_creation_method	'MofGen! by Chris Wilmer'
_symmetry_space_group_name_H-M	'P1'
_symmetry_Int_Tables_number	1
_symmetry_cell_setting	triclinic
loop_
_symmetry_equiv_pos_as_xyz
  x,y,z
_cell_length_a	12.827893
_cell_length_b	12.645330
_cell_length_c	12.827885
_cell_angle_alpha	89.971022
_cell_angle_beta	89.980728
_cell_angle_gamma	90.017662
loop_
_atom_site_label
_atom_site_type_symbol
_atom_site_fract_x
_atom_site_fract_y
_atom_site_fract_z
Zn1	Zn	1.597653	-0.421989	-0.590855
Zn2	Zn	2.097653	0.078011	-0.090855
Zn3	Zn	1.597540	-0.599290	-0.416117
Zn4	Zn	2.097540	-0.099290	0.083883
Zn5	Zn	1.422894	-0.422040	-0.416128
Zn6	Zn	1.922894	0.077960	0.083872
Zn7	Zn	1.422873	-0.599211	-0.590817
Zn8	Zn	1.922873	-0.099211	-0.090817
O9	O	1.510240	-0.510632	-0.503479
O10	O	2.010240	-0.010632	-0.003479
O11	O	1.743874	-0.445520	-0.567686
O12	O	2.243874	0.054480	-0.067686
O13	O	1.574335	-0.575832	-0.269883
O14	O	2.074335	-0.075832	0.230117
O15	O	1.446133	-0.273686	-0.439326
O16	O	1.946133	0.226314	0.060674
O17	O	1.743791	-0.575782	-0.439308
O18	O	2.243791	-0.075782	0.060692
O19	O	1.574527	-0.273648	-0.567697
O20	O	2.074527	0.226352	-0.067697
O21	O	1.446023	-0.445608	-0.269891
O22	O	1.946023	0.054392	0.230109
O23	O	1.276655	-0.445531	-0.439290
O24	O	1.776655	0.054469	0.060710
O25	O	1.446096	-0.575647	-0.737058
O26	O	1.946096	-0.075647	-0.237058
O27	O	1.276639	-0.575697	-0.567633
O28	O	1.776639	-0.075697	-0.067633
O29	O	1.574506	-0.445443	-0.737086
O30	O	2.074506	0.054557	-0.237086
O31	O	1.574314	-0.747626	-0.439271
O32	O	2.074314	-0.247626	0.060729
O33	O	1.445986	-0.747568	-0.567623
O34	O	1.945986	-0.247568	-0.067623
C35	C	1.238730	-0.510612	-0.503459
C36	C	1.738730	-0.010612	-0.003459
C37	C	1.122577	-0.510629	-0.503476
C38	C	1.622577	-0.010629	-0.003476
C39	C	1.070812	-0.575140	-0.566886
C40	C	1.570812	-0.075140	-0.066886
C41	C	0.950762	-0.575159	-0.566904
C42	C	1.450762	-0.075159	-0.066904
C43	C	1.510164	-0.786062	-0.503465
C44	C	2.010164	-0.286062	-0.003465
C45	C	1.510227	-0.903892	-0.503493
C46	C	2.010227	-0.403892	-0.003493
C47	C	1.429829	-1.071464	-0.584488
C48	C	1.929829	-0.571464	-0.084488
C49	C	1.429418	-0.948904	-0.584228
C50	C	1.929418	-0.448904	-0.084228
C51	C	1.480414	-0.948494	-0.393362
C52	C	1.980414	-0.448494	0.106638
C53	C	1.479923	-1.071093	-0.393854
C54	C	1.979923	-0.571093	0.106146
C55	C	1.620929	-1.070979	-0.531736
C56	C	2.120929	-0.570979	-0.031736
C57	C	1.620251	-0.948372	-0.534144
C58	C	2.120251	-0.448372	-0.034144
C59	C	1.782810	-0.510654	-0.503500
C60	C	2.282810	-0.010654	-0.003500
C61	C	1.898963	-0.510663	-0.503509
C62	C	2.398963	-0.010663	-0.003509
C63	C	1.510311	-0.510531	-0.776050
C64	C	2.010311	-0.010531	-0.276050
C65	C	1.510341	-0.510487	-0.892203
C66	C	2.010341	-0.010487	-0.392203
C67	C	1.510345	-0.234127	-0.503517
C68	C	2.010345	0.265873	-0.003517
C69	C	1.510390	-0.116297	-0.503533
C70	C	2.010390	0.383703	-0.003533
C71	C	1.573890	-0.446045	-0.944001
C72	C	2.073890	0.053955	-0.444001
C73	C	1.573923	-0.445999	-1.064052
C74	C	2.073923	0.054001	-0.564052
C75	C	1.510229	-0.510657	-0.231969
C76	C	2.010229	-0.010657	0.268031
C77	C	1.510401	-0.510402	-0.115817
C78	C	2.010401	-0.010402	0.384183
H79	H	1.448070	-0.918744	-0.665889
H80	H	1.948070	-0.418744	-0.165889
O81	O	1.650048	-0.909754	-0.641502
O82	O	2.150048	-0.409754	-0.141502
H83	H	1.723273	-0.863249	-0.636528
H84	H	2.223273	-0.363249	-0.136528
H85	H	0.943473	-0.455433	-0.449214
H86	H	1.443473	0.044567	0.050786
O87	O	1.438301	-0.583471	-1.056836
O88	O	1.938301	-0.083471	-0.556836
H89	H	1.456164	-0.666691	-1.077705
H90	H	1.956164	-0.166691	-0.577705
O91	O	1.645996	-0.372919	-1.123052
O92	O	2.145996	0.127081	-0.623052
H93	H	1.692527	-0.325756	-1.066864
H94	H	2.192527	0.174244	-0.566864
H95	H	1.078018	-0.455408	-0.449206
H96	H	1.578018	0.044592	0.050794
H97	H	1.448310	-1.100870	-0.666417
H98	H	1.948310	-0.600870	-0.166417
O99	O	1.438293	-0.583522	-0.951174
O100	O	1.938293	-0.083522	-0.451174
H101	H	1.485099	-0.637402	-1.000895
H102	H	1.985099	-0.137402	-0.500895
H103	H	1.628268	-0.390905	-0.899471
H104	H	2.128268	0.109095	-0.399471
H105	H	1.348392	-1.102366	-0.566042
H106	H	1.848392	-0.602366	-0.066042
O107	O	1.129819	-0.648261	-0.638811
O108	O	1.629819	-0.148261	-0.138811
H109	H	1.214852	-0.636762	-0.627519
H110	H	1.714852	-0.136762	-0.127519
H111	H	0.906245	-0.630392	-0.621189
H112	H	1.406245	-0.130392	-0.121189
H113	H	1.347469	-0.919671	-0.565543
H114	H	1.847469	-0.419671	-0.065543
O115	O	1.372894	-1.109112	-0.362202
O116	O	1.872894	-0.609112	0.137798
H117	H	1.338977	-1.157256	-0.426081
H118	H	1.838977	-0.657256	0.073919
H119	H	1.536054	-1.100754	-0.331479
H120	H	2.036054	-0.600754	0.168521
O121	O	1.703946	-0.907828	-0.461702
O122	O	2.203946	-0.407828	0.038298
H123	H	1.668272	-0.855106	-0.402455
H124	H	2.168272	-0.355106	0.097545
H125	H	1.537231	-0.919340	-0.331396
H126	H	2.037231	-0.419340	0.168604
O127	O	1.374494	-0.907959	-0.361131
O128	O	1.874494	-0.407959	0.138869
H129	H	1.315327	-0.933845	-0.418855
H130	H	1.815327	-0.433845	0.081145
H131	H	1.648124	-1.101818	-0.610678
H132	H	2.148124	-0.601818	-0.110678
O133	O	1.700434	-1.109383	-0.453636
O134	O	2.200434	-0.609383	0.046364
H135	H	1.778257	-1.077047	-0.474069
H136	H	2.278257	-0.577047	0.025931
