data_functionalizedCrystal
_audit_creation_method	'MofGen! by Chris Wilmer'
_symmetry_space_group_name_H-M	'P1'
_symmetry_Int_Tables_number	1
_symmetry_cell_setting	triclinic
loop_
_symmetry_equiv_pos_as_xyz
  x,y,z
_cell_length_a	20.453700
_cell_length_b	27.923496
_cell_length_c	11.102315
_cell_angle_alpha	84.491829
_cell_angle_beta	108.606275
_cell_angle_gamma	81.036054
loop_
_atom_site_label
_atom_site_type_symbol
_atom_site_fract_x
_atom_site_fract_y
_atom_site_fract_z
V1	V	1.354478	-0.067128	0.397061
O2	O	1.357627	0.003223	0.388676
O3	O	1.330978	-0.133101	0.395141
O4	O	1.346986	-0.066097	0.569871
O5	O	1.341508	-0.064245	0.212737
V6	V	1.515522	-0.058713	0.374918
O7	O	1.441850	-0.085587	0.445634
O8	O	1.578216	-0.040254	0.326345
O9	O	1.464620	0.007260	0.376839
O10	O	1.551505	-0.129064	0.383303
O11	O	1.567624	-0.061596	0.559243
O12	O	1.448612	-0.059744	0.202109
V13	V	1.687811	-0.067128	0.397061
O14	O	1.690961	0.003223	0.388676
O15	O	1.664311	-0.133101	0.395141
O16	O	1.680319	-0.066097	0.569871
O17	O	1.674842	-0.064245	0.212737
V18	V	1.848856	-0.058713	0.374918
O19	O	1.775183	-0.085587	0.445634
O20	O	1.911550	-0.040254	0.326345
O21	O	1.797954	0.007260	0.376839
O22	O	1.884839	-0.129064	0.383303
O23	O	1.900958	-0.061596	0.559243
O24	O	1.781945	-0.059744	0.202109
V25	V	2.021145	-0.067128	0.397061
O26	O	2.024294	0.003223	0.388676
O27	O	1.997645	-0.133101	0.395141
O28	O	2.013653	-0.066097	0.569871
O29	O	2.008175	-0.064245	0.212737
V30	V	2.182189	-0.058713	0.374918
O31	O	2.108516	-0.085587	0.445634
O32	O	2.244883	-0.040254	0.326345
O33	O	2.131287	0.007260	0.376839
O34	O	2.218172	-0.129064	0.383303
O35	O	2.234291	-0.061596	0.559243
O36	O	2.115279	-0.059744	0.202109
C37	C	1.277240	-0.149184	0.389082
C38	C	1.285179	-0.203117	0.388664
C39	C	1.395251	-0.540045	0.392579
C40	C	1.425135	-0.742754	0.391067
O41	O	1.480670	-0.771070	0.396345
N42	N	1.368122	-0.765629	0.384501
C43	C	1.303635	-0.737824	0.378321
O44	O	1.255830	-0.761932	0.372715
C45	C	1.273754	-0.535116	0.379843
C46	C	1.330769	-0.512244	0.386396
C47	C	1.452261	-0.517172	0.399133
C48	C	1.444789	-0.466498	0.399504
C49	C	1.380307	-0.438696	0.393321
C50	C	1.323297	-0.461569	0.386767
C51	C	1.209269	-0.507313	0.373673
C52	C	1.201804	-0.456633	0.374057
C53	C	1.258819	-0.433760	0.380610
C54	C	1.251342	-0.383093	0.380955
N55	N	1.308355	-0.360218	0.387521
C56	C	1.372837	-0.388020	0.393704
C57	C	1.319327	-0.844248	0.377520
C58	C	1.326797	-0.894925	0.377137
C59	C	1.448297	-0.899852	0.389885
C60	C	1.440825	-0.849174	0.390259
C61	C	1.376340	-0.821374	0.384086
C62	C	1.357140	-0.281599	0.394482
C63	C	1.349661	-0.230919	0.394847
C64	C	1.228164	-0.225997	0.382106
C65	C	1.235641	-0.276672	0.381734
C66	C	1.300135	-0.304472	0.387927
O67	O	1.195832	-0.354747	0.375694
O68	O	1.420637	-0.363904	0.399338
C69	C	1.402723	-0.590720	0.392208
C70	C	1.345713	-0.613593	0.385654
C71	C	1.281231	-0.585791	0.379471
C72	C	1.353183	-0.664269	0.385271
C73	C	1.417665	-0.692071	0.391454
C74	C	1.474678	-0.669196	0.398020
C75	C	1.467206	-0.618522	0.398391
C76	C	1.224218	-0.608666	0.372905
C77	C	1.231695	-0.659341	0.372533
C78	C	1.296178	-0.687143	0.378716
C79	C	1.297660	-0.063712	0.611966
C80	C	1.318580	-0.063306	0.753244
C81	C	1.406139	0.023340	0.382894
C82	C	1.391279	0.077273	0.383320
C83	C	1.385719	-0.062130	0.160007
C84	C	1.357878	-0.062535	0.018728
C85	C	1.610573	-0.149184	0.389082
C86	C	1.618512	-0.203117	0.388664
C87	C	1.440106	-0.068154	0.766271
C88	C	1.510695	-0.070389	0.839157
C89	C	1.530348	-0.070006	0.971899
C90	C	1.479404	-0.067387	1.031757
C91	C	1.408815	-0.065152	0.958871
C92	C	1.389170	-0.065537	0.826128
C93	C	1.287289	-0.060300	0.945842
C94	C	1.267636	-0.060686	0.813102
C95	C	1.236346	-0.057681	1.005700
C96	C	1.165756	-0.055450	0.932816
C97	C	1.146106	-0.055833	0.800067
C98	C	1.197047	-0.058452	0.740216
C99	C	1.630993	-0.063712	0.611966
C100	C	1.651913	-0.063306	0.753244
C101	C	1.739472	0.023340	0.382894
C102	C	1.724613	0.077273	0.383320
C103	C	1.719052	-0.062130	0.160007
C104	C	1.691212	-0.062535	0.018728
C105	C	1.943906	-0.149184	0.389082
C106	C	1.951846	-0.203117	0.388664
C107	C	1.964326	-0.063712	0.611966
C108	C	1.985246	-0.063306	0.753244
C109	C	2.072805	0.023340	0.382894
C110	C	2.057946	0.077273	0.383320
C111	C	2.052386	-0.062130	0.160007
C112	C	2.024545	-0.062535	0.018728
C113	C	1.682995	-0.230919	0.394847
C114	C	1.690467	-0.281597	0.394473
C115	C	1.633454	-0.304472	0.387908
C116	C	1.568967	-0.276667	0.381728
C117	C	1.561497	-0.225990	0.382111
C118	C	1.775126	0.105075	0.377141
C119	C	1.761169	0.155753	0.377520
C120	C	1.696700	0.178627	0.384089
C121	C	1.646182	0.150822	0.390265
C122	C	1.660137	0.100146	0.389876
C123	C	2.016328	-0.230919	0.394847
C124	C	2.023800	-0.281597	0.394473
C125	C	1.966787	-0.304472	0.387908
C126	C	1.902300	-0.276667	0.381728
C127	C	1.894831	-0.225990	0.382111
C128	C	2.108460	0.105075	0.377141
C129	C	2.094502	0.155753	0.377520
C130	C	2.030033	0.178627	0.384089
C131	C	1.979515	0.150822	0.390265
C132	C	1.993471	0.100146	0.389876
C133	C	1.670797	-0.152167	0.790634
C134	C	1.690065	-0.196405	0.875700
C135	C	1.709721	-0.196020	1.008441
C136	C	1.710112	-0.151392	1.056118
C137	C	1.690844	-0.107155	0.971053
C138	C	1.671186	-0.107544	0.838310
C139	C	1.671965	-0.018294	0.933663
C140	C	1.652304	-0.018678	0.800921
C141	C	1.672356	0.026333	0.981340
C142	C	1.653083	0.070572	0.896274
C143	C	1.633425	0.070185	0.763525
C144	C	1.633036	0.025559	0.715855
C145	C	2.004130	-0.152167	0.790634
C146	C	2.023398	-0.196405	0.875700
C147	C	2.043055	-0.196020	1.008441
C148	C	2.043445	-0.151392	1.056118
C149	C	2.024177	-0.107155	0.971053
C150	C	2.004519	-0.107544	0.838310
C151	C	2.005299	-0.018294	0.933663
C152	C	1.985637	-0.018678	0.800921
C153	C	2.005689	0.026333	0.981340
C154	C	1.986416	0.070572	0.896274
C155	C	1.966758	0.070185	0.763525
C156	C	1.966369	0.025559	0.715855
H157	H	1.409657	-0.304228	0.399526
N158	N	1.681654	0.233285	0.384515
H159	H	1.723442	0.247422	0.379609
H160	H	1.672631	0.239770	0.466328
N161	N	1.249771	-0.814263	0.370842
H162	H	1.256471	-0.797836	0.449921
H163	H	1.214825	-0.836474	0.366575
N164	N	1.521801	-0.547159	0.405752
H165	H	1.540140	-0.573011	0.485070
H166	H	1.556733	-0.524944	0.409897
H167	H	1.952335	0.077513	0.394920
N168	N	1.945974	0.117896	0.671764
H169	H	1.986588	0.135739	0.691106
H170	H	1.903933	0.139000	0.682314
H171	H	1.855884	-0.295299	0.376382
N172	N	1.576650	0.175497	0.397356
H173	H	1.575484	0.211818	0.396672
H174	H	1.570915	0.160851	0.479285
N175	N	1.649589	-0.152592	0.647468
H176	H	1.682465	-0.136894	0.612556
H177	H	1.599817	-0.133601	0.603840
H178	H	2.018678	0.219891	0.384404
N179	N	1.825279	-0.196006	0.375441
H180	H	1.790300	-0.218191	0.371222
H181	H	1.807015	-0.170164	0.296112
N182	N	1.730500	-0.243732	1.100194
H183	H	1.743010	-0.236713	1.191517
H184	H	1.772509	-0.264852	1.089582
N185	N	1.689649	-0.244537	0.824279
H186	H	1.674272	-0.238071	0.727281
H187	H	1.655886	-0.262222	0.851225
N188	N	1.491939	-0.196011	0.375421
H189	H	1.473616	-0.170167	0.296086
H190	H	1.498685	-0.179616	0.454554
N191	N	1.502324	-0.824510	0.397345
H192	H	1.514449	-0.808306	0.476998
H193	H	1.489381	-0.798907	0.318529
N194	N	1.641509	-0.359130	0.387485
H195	H	1.679675	-0.377016	0.469097
H196	H	1.654618	-0.367547	0.310632
H197	H	1.950359	0.025240	0.607772
H198	H	1.726127	-0.151083	1.164206
H199	H	1.396092	-0.212299	0.400179
H200	H	1.729423	-0.212301	0.400186
N201	N	1.693558	0.026751	1.124509
H202	H	1.705703	-0.008044	1.171166
H203	H	1.653244	0.045962	1.144605
N204	N	2.178127	0.080469	0.370478
H205	H	2.203344	0.054903	0.449393
H206	H	2.207876	0.105869	0.366726
N207	N	1.909984	0.175497	0.397356
H208	H	1.908817	0.211818	0.396672
H209	H	1.904248	0.160851	0.479285
N210	N	1.565633	-0.073209	0.774583
H211	H	1.566608	-0.103691	0.732504
H212	H	1.613303	-0.074545	0.840960
H213	H	1.424112	-0.068472	0.658189
H214	H	1.587826	-0.071825	1.031242
H215	H	1.495410	-0.067069	1.139840
H216	H	1.522551	-0.295299	0.376382
N217	N	1.175855	-0.058859	0.597044
H218	H	1.123408	-0.057044	0.559949
H219	H	1.201442	-0.090120	0.580431
H220	H	1.742979	-0.304229	0.399502
N221	N	2.148998	0.185735	0.370884
H222	H	2.159650	0.182702	0.288836
H223	H	2.193442	0.173260	0.447309
H224	H	1.653408	0.106903	0.935105
H225	H	1.827625	0.086457	0.371793
N226	N	1.612649	0.117899	0.671779
H227	H	1.615882	0.146225	0.722130
H228	H	1.562760	0.121327	0.611469
H229	H	1.617026	0.025240	0.607772
H230	H	2.021701	0.026643	1.089427
H231	H	1.175661	-0.203351	0.377065
N232	N	1.815665	0.185735	0.370880
H233	H	1.858625	0.163550	0.366680
H234	H	1.829298	0.202154	0.449978
N235	N	1.982900	-0.152581	0.647461
H236	H	1.985568	-0.187562	0.630164
H237	H	2.015779	-0.136857	0.612624
H238	H	2.023080	-0.232739	0.836866
N239	N	2.064646	-0.150977	1.199289
H240	H	2.061968	-0.115996	1.216584
H241	H	2.114400	-0.170000	1.242928
H242	H	2.058745	-0.232042	1.077703
H243	H	1.619002	0.077513	0.394920
H244	H	2.062757	-0.212301	0.400186
N245	N	1.986844	0.118700	0.947695
H246	H	2.002225	0.112231	1.044694
H247	H	1.937964	0.139685	0.911919
N248	N	1.506289	-0.441833	0.406603
H249	H	1.518407	-0.425629	0.486255
H250	H	1.493350	-0.416230	0.327788
N251	N	2.093354	-0.311581	0.401136
H252	H	2.128332	-0.289396	0.405339
H253	H	2.086584	-0.328005	0.322047
N254	N	1.170192	-0.684004	0.365463
H255	H	1.183098	-0.709626	0.444233
H256	H	1.158089	-0.700184	0.285772
N257	N	1.517838	-0.929839	0.396494
H258	H	1.513910	-0.965411	0.395238
H259	H	1.555592	-0.926778	0.478541
H260	H	1.280366	-0.913542	0.371784
N261	N	1.257554	-0.057247	1.148864
H262	H	1.292568	-0.088317	1.196125
H263	H	1.214544	-0.055224	1.175636
N264	N	1.110815	-0.052620	0.997371
H265	H	1.133975	-0.052713	1.092520
H266	H	1.087266	-0.081844	0.984044
H267	H	1.088623	-0.054002	0.740726
H268	H	1.972879	-0.345736	0.387597
H269	H	1.162838	-0.525926	0.368326
N270	N	1.528704	-0.593857	0.405482
H271	H	1.544054	-0.599048	0.329003
H272	H	1.569026	-0.608481	0.487460
H273	H	1.149294	-0.434001	0.369037
N274	N	1.174144	-0.301345	0.374626
H275	H	1.187043	-0.326971	0.453386
H276	H	1.162062	-0.317522	0.294929
H277	H	1.171709	-0.586035	0.367871
N278	N	1.544203	-0.699178	0.404528
H279	H	1.540270	-0.734748	0.403245
H280	H	1.581993	-0.696130	0.486541
