data_functionalizedCrystal
_audit_creation_method	'MofGen! by Chris Wilmer'
_symmetry_space_group_name_H-M	'P1'
_symmetry_Int_Tables_number	1
_symmetry_cell_setting	triclinic
loop_
_symmetry_equiv_pos_as_xyz
  x,y,z
_cell_length_a	17.640112
_cell_length_b	13.032721
_cell_length_c	13.032268
_cell_angle_alpha	76.710373
_cell_angle_beta	106.658984
_cell_angle_gamma	73.266420
loop_
_atom_site_label
_atom_site_type_symbol
_atom_site_fract_x
_atom_site_fract_y
_atom_site_fract_z
Zn1	Zn	1.166105	0.141814	-0.297687
Zn2	Zn	1.166013	0.296927	-0.142663
Zn3	Zn	1.046101	0.156075	-0.156796
Zn4	Zn	1.005226	0.368662	-0.369363
O5	O	1.095861	0.240870	-0.241627
O6	O	1.283604	0.126400	-0.241212
O7	O	1.167175	0.254189	0.009301
O8	O	1.079165	0.000300	-0.151403
O9	O	1.283537	0.240361	-0.127316
O10	O	1.167331	-0.010177	-0.254916
O11	O	1.079076	0.150706	-0.001083
O12	O	0.923167	0.220265	-0.220904
O13	O	1.009498	0.362623	-0.513693
O14	O	0.893136	0.376452	-0.377076
O15	O	1.127695	0.195959	-0.461033
O16	O	1.127539	0.460326	-0.196817
O17	O	1.009409	0.513029	-0.363372
C18	C	0.877682	0.307691	-0.308302
C19	C	0.784338	0.336308	-0.336856
C20	C	1.064049	0.526575	-0.286356
C21	C	1.050512	0.648783	-0.305504
C22	C	1.064048	0.285702	-0.528367
C23	C	1.050490	0.304807	-0.650558
C24	C	0.555400	0.023451	-0.024711
C25	C	0.467685	0.050365	-0.051560
C26	C	0.436473	0.213158	-0.213970
C27	C	0.524187	0.186254	-0.187137
C28	C	0.583644	0.091399	-0.092506
C29	C	0.552432	0.254202	-0.254932
C30	C	0.640138	0.227303	-0.228098
C31	C	0.699600	0.132456	-0.133469
C32	C	0.671351	0.064500	-0.065671
C33	C	0.492973	0.349061	-0.349559
C34	C	0.521217	0.417010	-0.417354
C35	C	0.608925	0.390106	-0.390525
C36	C	0.668387	0.295259	-0.295895
C37	C	0.637175	0.458062	-0.458322
C38	C	0.724881	0.431163	-0.431488
C39	C	0.756094	0.268359	-0.269061
C40	C	1.314892	0.173788	-0.174692
C41	C	1.408230	0.145202	-0.146169
C42	C	1.127818	-0.045954	-0.196741
C43	C	1.141436	-0.168182	-0.177613
C44	C	1.102965	0.677150	-0.231669
C45	C	1.088976	0.803457	-0.251458
C46	C	1.102928	0.230863	-0.678980
C47	C	1.088917	0.250607	-0.805271
C48	C	1.127608	0.196117	0.044024
C49	C	1.141362	0.176652	0.166313
H50	H	0.804508	0.191106	-0.192017
H51	H	0.747877	0.486492	-0.486695
H52	H	1.196628	0.098718	-0.764527
H53	H	1.033643	0.328531	-0.874433
H54	H	0.472796	0.494243	-0.494400
H55	H	1.158191	0.152936	-0.609817
H56	H	1.196706	0.762598	-0.099747
H57	H	0.588752	0.535298	-0.535364
H58	H	1.033711	0.872678	-0.329330
H59	H	0.603814	-0.053803	0.052334
H60	H	0.995252	0.718006	-0.383371
H61	H	0.995220	0.382726	-0.719722
H62	H	0.719765	-0.012753	0.011373
H63	H	0.771015	0.110558	-0.111620
H64	H	0.444694	-0.004980	0.003648
H65	H	0.388052	0.290391	-0.291016
H66	H	1.158232	0.607928	-0.153808
H67	H	0.421558	0.370959	-0.371404
