data_functionalizedCrystal
_audit_creation_method	'MofGen! by Chris Wilmer'
_symmetry_space_group_name_H-M	'P1'
_symmetry_Int_Tables_number	1
_symmetry_cell_setting	triclinic
loop_
_symmetry_equiv_pos_as_xyz
  x,y,z
_cell_length_a	21.295418
_cell_length_b	21.295417
_cell_length_c	21.295411
_cell_angle_alpha	90.021644
_cell_angle_beta	90.043738
_cell_angle_gamma	90.046319
loop_
_atom_site_label
_atom_site_type_symbol
_atom_site_fract_x
_atom_site_fract_y
_atom_site_fract_z
Zn1	Zn	0.962356	-0.250415	0.356234
Zn2	Zn	1.462356	0.249585	0.856234
Zn3	Zn	0.962258	-0.355667	0.250959
Zn4	Zn	1.462258	0.144333	0.750959
Zn5	Zn	0.857079	-0.250445	0.250943
Zn6	Zn	1.357079	0.249555	0.750943
Zn7	Zn	0.857048	-0.355680	0.356155
Zn8	Zn	1.357048	0.144320	0.856155
O9	O	0.909685	-0.303052	0.303573
O10	O	1.409685	0.196948	0.803573
O11	O	1.050432	-0.264360	0.342308
O12	O	1.550432	0.235640	0.842308
O13	O	0.948278	-0.341716	0.162867
O14	O	1.448278	0.158284	0.662867
O15	O	0.871098	-0.162351	0.264937
O16	O	1.371098	0.337649	0.764937
O17	O	1.050361	-0.341688	0.264963
O18	O	1.550361	0.158312	0.764963
O19	O	0.948444	-0.162330	0.342293
O20	O	1.448444	0.337670	0.842293
O21	O	0.871003	-0.264410	0.162856
O22	O	1.371003	0.235590	0.662856
O23	O	0.768985	-0.264422	0.264861
O24	O	1.268985	0.235578	0.764861
O25	O	0.871046	-0.341709	0.444255
O26	O	1.371046	0.158291	0.944255
O27	O	0.768963	-0.341738	0.342160
O28	O	1.268963	0.158262	0.842160
O29	O	0.948415	-0.264372	0.444313
O30	O	1.448415	0.235628	0.944313
O31	O	0.948248	-0.443758	0.264887
O32	O	1.448248	0.056242	0.764887
O33	O	0.870951	-0.443767	0.342175
O34	O	1.370951	0.056233	0.842175
C35	C	0.746134	-0.303085	0.303500
C36	C	1.246134	0.196915	0.803500
C37	C	0.676166	-0.303114	0.303484
C38	C	1.176166	0.196886	0.803484
C39	C	0.643304	-0.343426	0.343674
C40	C	1.143304	0.156574	0.843674
C41	C	0.577561	-0.343410	0.343702
C42	C	1.077561	0.156590	0.843702
C43	C	0.544683	-0.303090	0.303530
C44	C	1.044683	0.196910	0.803530
C45	C	0.577553	-0.262770	0.263337
C46	C	1.077553	0.237230	0.763337
C47	C	0.643294	-0.262783	0.263315
C48	C	1.143294	0.237217	0.763315
N49	N	0.441407	-0.298163	0.248472
N50	N	0.941407	0.201837	0.748472
N51	N	0.378956	-0.298155	0.248495
N52	N	0.878956	0.201845	0.748495
C53	C	0.346608	-0.303050	0.303596
C54	C	0.846608	0.196950	0.803596
N55	N	0.379072	-0.307965	0.358675
N56	N	0.879072	0.192035	0.858675
N57	N	0.441529	-0.307976	0.358650
N58	N	0.941529	0.192024	0.858650
C59	C	0.473398	-0.303072	0.303550
C60	C	0.973398	0.196928	0.803550
C61	C	0.242461	-0.343346	0.343820
C62	C	0.742461	0.156654	0.843820
C63	C	0.176717	-0.343326	0.343849
C64	C	0.676717	0.156674	0.843849
C65	C	0.176710	-0.262690	0.263479
C66	C	0.676710	0.237310	0.763479
C67	C	0.242453	-0.262707	0.263455
C68	C	0.742453	0.237293	0.763455
C69	C	0.275324	-0.303038	0.303625
C70	C	0.775324	0.196962	0.803625
C71	C	0.909603	-0.466603	0.303538
C72	C	1.409603	0.033397	0.803538
C73	C	0.909625	-0.536571	0.303544
C74	C	1.409625	-0.036571	0.803544
C75	C	0.949910	-0.569412	0.263342
C76	C	1.449910	-0.069412	0.763342
C77	C	0.949939	-0.635155	0.263356
C78	C	1.449939	-0.135155	0.763356
C79	C	0.909673	-0.668054	0.303566
C80	C	1.409673	-0.168054	0.803566
C81	C	0.869386	-0.635205	0.343776
C82	C	1.369386	-0.135205	0.843776
C83	C	0.869362	-0.569464	0.343765
C84	C	1.369362	-0.069464	0.843765
N85	N	0.854606	-0.771336	0.308340
N86	N	1.354606	-0.271336	0.808340
N87	N	0.854630	-0.833787	0.308347
N88	N	1.354630	-0.333787	0.808347
C89	C	0.909743	-0.866129	0.303602
C90	C	1.409743	-0.366129	0.803602
N91	N	0.964832	-0.833659	0.298838
N92	N	1.464832	-0.333659	0.798838
N93	N	0.964807	-0.771202	0.298828
N94	N	1.464807	-0.271202	0.798828
C95	C	0.909695	-0.739339	0.303582
C96	C	1.409695	-0.239339	0.803582
C97	C	0.950063	-0.970255	0.263413
C98	C	1.450063	-0.470255	0.763413
C99	C	0.950094	-1.035999	0.263431
C100	C	1.450094	-0.535999	0.763431
C101	C	0.869535	-1.036048	0.343848
C102	C	1.369535	-0.536048	0.843848
C103	C	0.869510	-0.970305	0.343833
C104	C	1.369510	-0.470305	0.843833
C105	C	0.909773	-0.937413	0.303612
C106	C	1.409773	-0.437413	0.803612
C107	C	1.073876	-0.303019	0.303646
C108	C	1.573876	0.196981	0.803646
C109	C	1.143844	-0.303005	0.303677
C110	C	1.643844	0.196995	0.803677
C111	C	0.909738	-0.303038	0.467763
C112	C	1.409738	0.196962	0.967763
C113	C	0.909760	-0.303033	0.537731
C114	C	1.409760	0.196967	1.037731
C115	C	0.909785	-0.138861	0.303622
C116	C	1.409785	0.361139	0.803622
C117	C	0.909828	-0.068893	0.303642
C118	C	1.409828	0.431107	0.803642
C119	C	0.909670	-0.303019	0.140021
C120	C	1.409670	0.196981	0.640021
C121	C	0.909769	-0.302848	0.070054
C122	C	1.409769	0.197152	0.570054
C123	C	0.950044	-0.262761	0.570629
C124	C	1.450044	0.237239	1.070629
C125	C	0.950043	-0.262734	0.636371
C126	C	1.450043	0.237266	1.136371
C127	C	0.909765	-0.302989	0.669214
C128	C	1.409765	0.197011	1.169214
C129	C	0.869473	-0.343263	0.636308
C130	C	1.369473	0.156737	1.136308
C131	C	0.869470	-0.343285	0.570567
C132	C	1.369470	0.156715	1.070567
N133	N	0.904908	-0.358058	0.772428
N134	N	1.404908	0.141942	1.272428
N135	N	0.904914	-0.358036	0.834879
N136	N	1.404914	0.141964	1.334879
C137	C	0.909769	-0.302926	0.867289
C138	C	1.409769	0.197074	1.367289
N139	N	0.914629	-0.247837	0.834888
N140	N	1.414629	0.252163	1.334888
N141	N	0.914627	-0.247860	0.772430
N142	N	1.414627	0.252140	1.272430
C143	C	0.909763	-0.302970	0.740499
C144	C	1.409763	0.197030	1.240499
C145	C	0.950054	-0.262621	0.971472
C146	C	1.450054	0.237379	1.471472
C147	C	0.950049	-0.262593	1.037216
C148	C	1.450049	0.237407	1.537216
C149	C	0.869482	-0.343128	1.037151
C150	C	1.369482	0.156872	1.537151
C151	C	0.869484	-0.343151	0.971409
C152	C	1.369484	0.156849	1.471409
C153	C	0.909773	-0.302898	0.938573
C154	C	1.409773	0.197102	1.438573
H155	H	0.149942	-0.229857	0.230773
H156	H	0.649942	0.270143	0.730773
H157	H	0.836663	-0.376078	0.543782
H158	H	1.336663	0.123922	1.043782
H159	H	0.982857	-0.229842	0.944736
H160	H	1.482857	0.270158	1.444736
H161	H	0.982746	-0.661899	0.230619
H162	H	1.482746	-0.161899	0.730619
H163	H	0.149962	-0.376152	0.376580
H164	H	0.649962	0.123848	0.876580
C165	C	0.825242	-1.072233	0.388081
C166	C	1.325242	-0.572233	0.888081
N167	N	0.791881	-1.099491	0.421399
N168	N	1.291881	-0.599491	0.921399
C169	C	0.825052	-0.533338	0.388001
C170	C	1.325052	-0.033338	0.888001
N171	N	0.791679	-0.506126	0.421322
N172	N	1.291679	-0.006126	0.921322
H173	H	0.982846	-0.229937	0.663162
H174	H	1.482846	0.270063	1.163162
C175	C	0.825206	-0.934179	0.388072
C176	C	1.325206	-0.434179	0.888072
N177	N	0.791841	-0.906968	0.421402
N178	N	1.291841	-0.406968	0.921402
H179	H	0.982850	-0.943473	0.230664
H180	H	1.482850	-0.443473	0.730664
C181	C	0.825170	-0.387456	0.935220
C182	C	1.325170	0.112544	1.435220
N183	N	0.791789	-0.420827	0.907963
N184	N	1.291789	0.079173	1.407963
H185	H	0.982850	-0.229984	0.543898
H186	H	1.482850	0.270016	1.043898
C187	C	0.825163	-0.387542	0.672436
C188	C	1.325163	0.112458	1.172436
N189	N	0.791786	-0.420891	0.699648
N190	N	1.291786	0.079109	1.199648
C191	C	0.278602	-0.218366	0.219237
C192	C	0.778602	0.281634	0.719237
N193	N	0.305830	-0.184966	0.185931
N194	N	0.805830	0.315034	0.685931
H195	H	0.670063	-0.376266	0.376384
H196	H	1.170063	0.123734	0.876384
C197	C	0.994194	-0.533235	0.219091
C198	C	1.494194	-0.033235	0.719091
N199	N	1.027547	-0.505985	0.185758
N200	N	1.527547	-0.005985	0.685758
H201	H	0.836602	-0.661996	0.376516
H202	H	1.336602	-0.161996	0.876516
H203	H	0.982852	-0.229795	1.064000
H204	H	1.482852	0.270205	1.564000
H205	H	0.550800	-0.376236	0.376431
H206	H	1.050800	0.123764	0.876431
C207	C	0.994412	-1.072124	0.219203
C208	C	1.494412	-0.572124	0.719203
N209	N	1.027792	-1.099333	0.185888
N210	N	1.527792	-0.599333	0.685888
H211	H	0.836680	-0.375898	1.063891
H212	H	1.336680	0.124102	1.563891
H213	H	0.550779	-0.229940	0.230630
H214	H	1.050779	0.270060	0.730630
C215	C	0.278622	-0.387704	0.388014
C216	C	0.778622	0.112296	0.888014
N217	N	0.305856	-0.421114	0.421303
N218	N	0.805856	0.078886	0.921303
C219	C	0.679443	-0.218438	0.219098
C220	C	1.179443	0.281562	0.719098
N221	N	0.706672	-0.185039	0.185792
N222	N	1.206672	0.314961	0.685792
