data_functionalizedCrystal
_audit_creation_method	'MofGen! by Chris Wilmer'
_symmetry_space_group_name_H-M	'P1'
_symmetry_Int_Tables_number	1
_symmetry_cell_setting	triclinic
loop_
_symmetry_equiv_pos_as_xyz
  x,y,z
_cell_length_a	23.532355
_cell_length_b	17.038272
_cell_length_c	15.500361
_cell_angle_alpha	86.957697
_cell_angle_beta	87.184305
_cell_angle_gamma	93.030473
loop_
_atom_site_label
_atom_site_type_symbol
_atom_site_fract_x
_atom_site_fract_y
_atom_site_fract_z
O1	O	0.757794	-0.098322	0.071826
O2	O	1.091127	0.235011	0.405159
O3	O	1.424461	0.568344	0.738493
O4	O	0.592649	-0.112093	0.071854
O5	O	0.925983	0.221240	0.405187
O6	O	1.259316	0.554573	0.738520
O7	O	0.674240	0.008600	0.071833
O8	O	1.007574	0.341934	0.405167
O9	O	1.340907	0.675267	0.738500
O10	O	0.676203	-0.219016	0.071847
O11	O	1.009536	0.114317	0.405180
O12	O	1.342870	0.447651	0.738513
O13	O	0.679165	0.015900	-0.072054
O14	O	1.012499	0.349233	0.261280
O15	O	1.345832	0.682567	0.594613
O16	O	0.597574	-0.104794	-0.072033
O17	O	0.930908	0.228540	0.261300
O18	O	1.264241	0.561873	0.594633
O19	O	0.762719	-0.091022	-0.072061
O20	O	1.096052	0.242311	0.261273
O21	O	1.429386	0.575644	0.594606
Cu22	Cu	0.680596	-0.097242	-0.085185
Cu23	Cu	1.013930	0.236092	0.248148
Cu24	Cu	1.347263	0.569425	0.581482
Cu25	Cu	0.674772	-0.105874	0.084978
Cu26	Cu	1.008105	0.227459	0.418311
Cu27	Cu	1.341439	0.560792	0.751645
O28	O	0.681128	-0.211716	-0.072040
O29	O	1.014461	0.121617	0.261293
O30	O	1.347795	0.454950	0.594626
C31	C	0.573877	-0.108100	-0.000086
C32	C	0.907210	0.225234	0.333247
C33	C	1.240544	0.558567	0.666580
C34	C	0.510604	-0.107065	-0.000076
C35	C	0.843937	0.226268	0.333257
C36	C	1.177270	0.559601	0.666591
C37	C	0.120934	-0.096582	-0.078545
C38	C	0.454267	0.236751	0.254788
C39	C	0.787601	0.570085	0.588121
C40	C	0.061483	-0.095597	-0.078549
C41	C	0.394816	0.237736	0.254785
C42	C	0.728150	0.571069	0.588118
O43	O	0.033019	-0.091678	-0.145252
O44	O	0.366353	0.241656	0.188081
O45	O	0.699686	0.574989	0.521415
N46	N	0.029064	-0.099088	-0.000116
N47	N	0.362397	0.234245	0.333217
N48	N	0.695731	0.567578	0.666550
C49	C	0.056100	-0.103556	0.078325
C50	C	0.389433	0.229777	0.411658
C51	C	0.722766	0.563110	0.744991
O52	O	0.023066	-0.106434	0.145037
O53	O	0.356399	0.226899	0.478371
O54	O	0.689733	0.560232	0.811704
C55	C	0.115550	-0.104535	0.078327
C56	C	0.448883	0.228798	0.411661
C57	C	0.782217	0.562131	0.744994
C58	C	0.147965	-0.101052	-0.000110
C59	C	0.481299	0.232281	0.333223
C60	C	0.814632	0.565615	0.666556
C61	C	0.153349	-0.093098	-0.156976
C62	C	0.486683	0.240235	0.176357
C63	C	0.820016	0.573568	0.509690
C64	C	0.212796	-0.094084	-0.156973
C65	C	0.546130	0.239249	0.176361
C66	C	0.879463	0.572582	0.509694
C67	C	0.239828	-0.098554	-0.078538
C68	C	0.573161	0.234779	0.254796
C69	C	0.906494	0.568112	0.588129
C70	C	0.207412	-0.102038	-0.000107
C71	C	0.540746	0.231295	0.333227
C72	C	0.874079	0.564628	0.666560
C73	C	0.142585	-0.108998	0.156767
C74	C	0.475918	0.224336	0.490101
C75	C	0.809251	0.557669	0.823434
C76	C	0.202039	-0.109976	0.156763
C77	C	0.535373	0.223358	0.490096
C78	C	0.868706	0.556691	0.823430
C79	C	0.234455	-0.106493	0.078325
C80	C	0.567788	0.226841	0.411659
C81	C	0.901121	0.560174	0.744992
C82	C	0.293891	-0.107494	0.078332
C83	C	0.627224	0.225839	0.411665
C84	C	0.960557	0.559172	0.744999
N85	N	0.326309	-0.104003	-0.000100
N86	N	0.659643	0.229330	0.333233
N87	N	0.992976	0.562663	0.666566
C88	C	0.299278	-0.099533	-0.078535
C89	C	0.632611	0.233800	0.254798
C90	C	0.965945	0.567133	0.588131
C91	C	-0.068750	-0.101499	0.078313
C92	C	0.264584	0.231835	0.411647
C93	C	0.597917	0.565168	0.744980
C94	C	-0.128199	-0.100525	0.078312
C95	C	0.205134	0.232808	0.411645
C96	C	0.538468	0.566141	0.744979
C97	C	-0.122812	-0.092565	-0.078562
C98	C	0.210522	0.240768	0.254771
C99	C	0.543855	0.574102	0.588105
C100	C	-0.063361	-0.093544	-0.078559
C101	C	0.269972	0.239789	0.254774
C102	C	0.603305	0.573123	0.588107
C103	C	-0.036331	-0.098008	-0.000119
C104	C	0.297002	0.235326	0.333214
C105	C	0.630336	0.568659	0.666548
C106	C	0.424120	-0.101605	-0.078522
C107	C	0.757454	0.231728	0.254812
C108	C	1.090787	0.565061	0.588145
C109	C	0.483572	-0.102595	-0.078511
C110	C	0.816906	0.230738	0.254822
C111	C	1.150239	0.564071	0.588156
C112	C	0.478180	-0.110551	0.078362
C113	C	0.811513	0.222782	0.411696
C114	C	1.144846	0.556115	0.745029
C115	C	0.418733	-0.109566	0.078352
C116	C	0.752066	0.223768	0.411685
C117	C	1.085400	0.557101	0.745019
C118	C	0.391705	-0.105090	-0.000097
C119	C	0.725039	0.228244	0.333237
C120	C	1.058372	0.561577	0.666570
O121	O	0.322393	-0.111410	0.145001
O122	O	0.655727	0.221924	0.478334
O123	O	0.989060	0.555257	0.811668
O124	O	0.332319	-0.096646	-0.145237
O125	O	0.665652	0.236688	0.188097
O126	O	0.998986	0.570021	0.521430
C127	C	0.674918	0.041365	-0.000110
C128	C	1.008251	0.374698	0.333223
C129	C	1.341584	0.708031	0.666557
C130	C	0.669591	0.128117	-0.000109
C131	C	1.002924	0.461450	0.333225
C132	C	1.336257	0.794784	0.666558
C133	C	0.781491	-0.095016	-0.000119
C134	C	1.114825	0.238317	0.333214
C135	C	1.448158	0.571650	0.666548
C136	C	0.844764	-0.096051	-0.000124
C137	C	1.178098	0.237282	0.333210
C138	C	1.511431	0.570616	0.666543
C139	C	0.680451	-0.244481	-0.000095
C140	C	1.013784	0.088853	0.333238
C141	C	1.347117	0.422186	0.666571
C142	C	0.685777	-0.331233	-0.000091
C143	C	1.019111	0.002100	0.333243
C144	C	1.352444	0.335434	0.666576
N145	N	0.684697	-0.091169	-0.204868
N146	N	1.018031	0.242164	0.128465
N147	N	1.351364	0.575498	0.461798
C148	C	0.718496	0.178606	-0.000118
C149	C	1.051830	0.511940	0.333216
C150	C	1.385163	0.845273	0.666549
C151	C	0.713488	0.260118	-0.000109
C152	C	1.046821	0.593451	0.333225
C153	C	1.380154	0.926785	0.666558
C154	C	0.659573	0.291139	-0.000097
C155	C	0.992906	0.624472	0.333237
C156	C	1.326240	0.957806	0.666570
C157	C	0.610664	0.240643	-0.000085
C158	C	0.943997	0.573976	0.333248
C159	C	1.277330	0.907310	0.666581
C160	C	0.615673	0.159133	-0.000088
C161	C	0.949006	0.492466	0.333245
C162	C	1.282339	0.825799	0.666579
C163	C	0.641877	0.536761	-0.000082
C164	C	0.975210	0.870094	0.333251
C165	C	1.308544	1.203427	0.666585
C166	C	0.636872	0.618278	-0.000082
C167	C	0.970205	0.951611	0.333252
C168	C	1.303538	1.284944	0.666585
C169	C	0.739696	0.637747	-0.000104
C170	C	1.073029	0.971080	0.333230
C171	C	1.406363	1.304413	0.666563
C172	C	0.744701	0.556234	-0.000112
C173	C	1.078034	0.889567	0.333222
C174	C	1.411367	1.222901	0.666555
C175	C	0.695791	0.505745	-0.000096
C176	C	1.029124	0.839078	0.333238
C177	C	1.362458	1.172412	0.666571
C178	C	0.654452	0.374457	-0.000090
C179	C	0.987786	0.707790	0.333243
C180	C	1.321119	1.041124	0.666576
C181	C	0.700912	0.422428	-0.000096
C182	C	1.034246	0.755762	0.333237
C183	C	1.367579	1.089095	0.666571
C184	C	0.650117	-0.142292	-0.250158
C185	C	0.983450	0.191042	0.083176
C186	C	1.316783	0.524375	0.416509
C187	C	0.653234	-0.137696	-0.340729
C188	C	0.986567	0.195637	-0.007396
C189	C	1.319901	0.528971	0.325937
C190	C	0.690929	-0.081974	-0.386010
C191	C	1.024263	0.251360	-0.052677
C192	C	1.357596	0.584693	0.280656
C193	C	0.725514	-0.030849	-0.340715
C194	C	1.058847	0.302485	-0.007381
C195	C	1.392181	0.635818	0.325952
C196	C	0.722399	-0.035449	-0.250145
C197	C	1.055732	0.297885	0.083189
C198	C	1.389066	0.631218	0.416522
C199	C	0.702145	-0.065415	-0.659473
C200	C	1.035478	0.267918	-0.326140
C201	C	1.368812	0.601251	0.007194
C202	C	0.705256	-0.060818	-0.750049
C203	C	1.038589	0.272516	-0.416716
C204	C	1.371923	0.605849	-0.083383
C205	C	0.632976	-0.167667	-0.750058
C206	C	0.966310	0.165667	-0.416725
C207	C	1.299643	0.499000	-0.083391
C208	C	0.629862	-0.172259	-0.659486
C209	C	0.963196	0.161075	-0.326153
C210	C	1.296529	0.494408	0.007181
C211	C	0.664449	-0.121137	-0.614198
C212	C	0.997782	0.212197	-0.280865
C213	C	1.331116	0.545530	0.052468
C214	C	0.694116	-0.077273	-0.478589
C215	C	1.027449	0.256060	-0.145256
C216	C	1.360782	0.589394	0.188078
C217	C	0.661265	-0.125841	-0.521621
C218	C	0.994599	0.207492	-0.188288
C219	C	1.327932	0.540825	0.145045
N220	N	0.670675	-0.111940	0.204661
N221	N	1.004009	0.221393	0.537995
N222	N	1.337342	0.554726	0.871328
H223	H	0.116202	-0.111833	0.220640
H224	H	0.449535	0.221500	0.553973
H225	H	0.782869	0.554834	0.887306
H226	H	0.604818	-0.209289	-0.786939
H227	H	0.938152	0.124044	-0.453606
H228	H	1.271485	0.457378	-0.120273
H229	H	0.575848	0.118024	-0.000080
H230	H	0.909182	0.451358	0.333253
H231	H	1.242515	0.784691	0.666586
H232	H	0.744809	0.397167	-0.000086
H233	H	1.078142	0.730500	0.333247
H234	H	1.411475	1.063833	0.666580
H235	H	0.753312	0.301224	-0.000118
H236	H	1.086645	0.634557	0.333215
H237	H	1.419979	0.967890	0.666549
H238	H	-0.046746	-0.105141	0.142193
H239	H	0.286588	0.228192	0.475526
H240	H	0.619921	0.561526	0.808860
H241	H	0.619418	-0.187664	-0.213296
H242	H	0.952752	0.145670	0.120037
H243	H	1.286085	0.479003	0.453371
H244	H	0.500199	-0.114194	0.142222
H245	H	0.833533	0.219139	0.475555
H246	H	1.166866	0.552473	0.808889
H247	H	0.610555	0.399724	-0.000083
H248	H	0.943888	0.733057	0.333251
H249	H	1.277221	1.066390	0.666584
H250	H	0.599168	-0.217632	-0.622620
H251	H	0.932501	0.115701	-0.289287
H252	H	1.265834	0.449034	0.044046
H253	H	0.509963	-0.099761	-0.142387
H254	H	0.843296	0.233572	0.190946
H255	H	1.176629	0.566905	0.524280
H256	H	0.625076	-0.179325	-0.377603
H257	H	0.958409	0.154009	-0.044270
H258	H	1.291743	0.487342	0.289063
H259	H	0.750559	0.006180	-0.213271
H260	H	1.083892	0.339513	0.120062
H261	H	1.417226	0.672847	0.453396
H262	H	0.239184	-0.091243	-0.220845
H263	H	0.572518	0.242090	0.112489
H264	H	0.905851	0.575423	0.445822
H265	H	0.131347	-0.089457	-0.220851
H266	H	0.464680	0.243877	0.112482
H267	H	0.798014	0.577210	0.445815
H268	H	0.630576	-0.171214	-0.484751
H269	H	0.963909	0.162120	-0.151418
H270	H	1.297242	0.495453	0.181916
H271	H	0.788603	0.530983	-0.000122
H272	H	1.121937	0.864317	0.333212
H273	H	1.455270	1.197650	0.666545
H274	H	0.735954	-0.015438	-0.786913
H275	H	1.069287	0.317895	-0.453580
H276	H	1.402621	0.651228	-0.120246
H277	H	0.756209	0.014519	-0.377588
H278	H	1.089543	0.347853	-0.044254
H279	H	1.422876	0.681186	0.289079
H280	H	0.724807	-0.031901	-0.515464
H281	H	1.058140	0.301432	-0.182131
H282	H	1.391474	0.634765	0.151202
H283	H	-0.144831	-0.088924	-0.142428
H284	H	0.188502	0.244410	0.190905
H285	H	0.521835	0.577743	0.524239
H286	H	0.592966	0.643532	-0.000086
H287	H	0.926300	0.976865	0.333247
H288	H	1.259633	1.310198	0.666581
H289	H	0.402121	-0.097968	-0.142402
H290	H	0.735455	0.235366	0.190931
H291	H	1.068788	0.568699	0.524265
H292	H	0.762400	0.153356	-0.000133
H293	H	1.095733	0.486689	0.333201
H294	H	1.429066	0.820023	0.666534
H295	H	0.730306	-0.023788	-0.622607
H296	H	1.063639	0.309545	-0.289274
H297	H	1.396972	0.642878	0.044060
H298	H	0.779515	0.678863	-0.000115
H299	H	1.112849	1.012196	0.333218
H300	H	1.446182	1.345530	0.666551
H301	H	-0.154588	-0.103374	0.142184
H302	H	0.178746	0.229959	0.475517
H303	H	0.512079	0.563292	0.808850
H304	H	-0.036972	-0.090708	-0.142430
H305	H	0.296361	0.242625	0.190903
H306	H	0.629694	0.575958	0.524236
H307	H	0.224044	-0.113611	0.220640
H308	H	0.557377	0.219722	0.553974
H309	H	0.890711	0.553056	0.887307
H310	H	0.566765	0.265906	-0.000070
H311	H	0.900098	0.599240	0.333263
H312	H	1.233432	0.932573	0.666597
H313	H	0.392338	-0.112415	0.142222
H314	H	0.725672	0.220919	0.475556
H315	H	1.059005	0.554252	0.808889
H316	H	0.602051	0.495662	-0.000069
H317	H	0.935384	0.828995	0.333264
H318	H	1.268718	1.162328	0.666598
