data_functionalizedCrystal
_audit_creation_method	'MofGen! by Chris Wilmer'
_symmetry_space_group_name_H-M	'P1'
_symmetry_Int_Tables_number	1
_symmetry_cell_setting	triclinic
loop_
_symmetry_equiv_pos_as_xyz
  x,y,z
_cell_length_a	15.298114
_cell_length_b	16.120444
_cell_length_c	15.296720
_cell_angle_alpha	101.987061
_cell_angle_beta	110.778933
_cell_angle_gamma	82.743189
loop_
_atom_site_label
_atom_site_type_symbol
_atom_site_fract_x
_atom_site_fract_y
_atom_site_fract_z
Zn1	Zn	1.291508	-0.589153	-0.318426
Zn2	Zn	1.791508	-0.089153	0.181574
Zn3	Zn	1.310433	-0.707997	-0.170810
Zn4	Zn	1.810433	-0.207997	0.329190
Zn5	Zn	1.165650	-0.548086	-0.187163
Zn6	Zn	1.665650	-0.048086	0.312837
Zn7	Zn	1.128075	-0.707982	-0.353231
Zn8	Zn	1.628075	-0.207982	0.146769
O9	O	1.223917	-0.638304	-0.257407
O10	O	1.723917	-0.138304	0.242593
O11	O	1.423009	-0.622110	-0.277435
O12	O	1.923009	-0.122110	0.222565
O13	O	1.314873	-0.669604	-0.041701
O14	O	1.814873	-0.169604	0.458299
O15	O	1.190150	-0.436879	-0.196853
O16	O	1.690150	0.063121	0.303147
O17	O	1.436913	-0.709424	-0.168982
O18	O	1.936913	-0.209424	0.331018
O19	O	1.282618	-0.467051	-0.293292
O20	O	1.782618	0.032949	0.206708
O21	O	1.208501	-0.552118	-0.053716
O22	O	1.708501	-0.052118	0.446284
O23	O	1.031675	-0.552104	-0.230602
O24	O	1.531675	-0.052104	0.269398
O25	O	1.126109	-0.709400	-0.479892
O26	O	1.626109	-0.209400	0.020108
O27	O	1.004069	-0.669579	-0.352611
O28	O	1.504069	-0.169579	0.147389
O29	O	1.246183	-0.622096	-0.454321
O30	O	1.746183	-0.122096	0.045679
O31	O	1.278438	-0.824649	-0.202730
O32	O	1.778438	-0.324649	0.297270
O33	O	1.144460	-0.824638	-0.336754
O34	O	1.644460	-0.324638	0.163246
C35	C	0.984426	-0.606384	-0.297158
C36	C	1.484426	-0.106384	0.202842
C37	C	0.881966	-0.592752	-0.314188
C38	C	1.381966	-0.092752	0.185812
C39	C	1.209446	-0.854897	-0.271761
C40	C	1.709446	-0.354897	0.228239
C41	C	1.203335	-0.947571	-0.277918
C42	C	1.703335	-0.447571	0.222082
C43	C	0.622191	-0.735775	-0.135928
C44	C	1.122191	-0.235775	0.364072
C45	C	0.718459	-0.748582	-0.119922
C46	C	1.218459	-0.248582	0.380078
C47	C	0.759341	-0.709626	-0.168487
C48	C	1.259341	-0.209626	0.331513
C49	C	0.703945	-0.657860	-0.233061
C50	C	1.203945	-0.157860	0.266939
C51	C	0.607669	-0.645047	-0.249064
C52	C	1.107669	-0.145047	0.250936
C53	C	0.744818	-0.618897	-0.281623
C54	C	1.244818	-0.118897	0.218377
C55	C	0.689422	-0.567132	-0.346197
C56	C	1.189422	-0.067132	0.153803
C57	C	0.593156	-0.554321	-0.362198
C58	C	1.093156	-0.054321	0.137802
C59	C	0.552274	-0.593277	-0.313632
C60	C	1.052274	-0.093277	0.186368
C61	C	0.841094	-0.631711	-0.265620
C62	C	1.341094	-0.131711	0.234380
C63	C	0.826571	-0.540982	-0.378756
C64	C	1.326571	-0.040982	0.121244
C65	C	0.730304	-0.528176	-0.394762
C66	C	1.230304	-0.028176	0.105238
C67	C	1.255810	-1.158535	-0.225628
C68	C	1.755810	-0.658535	0.274372
C69	C	1.192192	-1.117247	-0.289168
C70	C	1.692192	-0.617247	0.210832
C71	C	1.198394	-1.022831	-0.282907
C72	C	1.698394	-0.522831	0.217093
C73	C	1.249610	-1.252959	-0.231888
C74	C	1.749610	-0.752959	0.268112
C75	C	1.464342	-0.670350	-0.217502
C76	C	1.964342	-0.170350	0.282498
C77	C	1.566797	-0.684006	-0.200496
C78	C	2.066797	-0.184006	0.299504
C79	C	1.179844	-0.670328	-0.502097
C80	C	1.679844	-0.170328	-0.002097
C81	C	1.161062	-0.683974	-0.606369
C82	C	1.661062	-0.183974	-0.106369
C83	C	1.238465	-0.420872	-0.243015
C84	C	1.738465	0.079128	0.256985
C85	C	1.244664	-0.328216	-0.236881
C86	C	1.744664	0.171784	0.263119
C87	C	1.358193	-0.540630	-0.847042
C88	C	1.858193	-0.040630	-0.347042
C89	C	1.375845	-0.527811	-0.749072
C90	C	1.875845	-0.027811	-0.249072
C91	C	1.322150	-0.566850	-0.713391
C92	C	1.822150	-0.066850	-0.213391
C93	C	1.250802	-0.618712	-0.775690
C94	C	1.750802	-0.118712	-0.275690
C95	C	1.233153	-0.631538	-0.873669
C96	C	1.733153	-0.131538	-0.373669
C97	C	1.197111	-0.657758	-0.740019
C98	C	1.697111	-0.157758	-0.240019
C99	C	1.125762	-0.709619	-0.802318
C100	C	1.625762	-0.209619	-0.302318
C101	C	1.108117	-0.722442	-0.900287
C102	C	1.608117	-0.222442	-0.400287
C103	C	1.161811	-0.683403	-0.935967
C104	C	1.661811	-0.183403	-0.435967
C105	C	1.214759	-0.644932	-0.642040
C106	C	1.714759	-0.144932	-0.142040
C107	C	1.089720	-0.735839	-0.668668
C108	C	1.589720	-0.235839	-0.168668
C109	C	1.072068	-0.748658	-0.766637
C110	C	1.572068	-0.248658	-0.266637
C111	C	1.267875	-0.606353	-0.013657
C112	C	1.767875	-0.106353	0.486343
C113	C	1.286850	-0.592495	0.090660
C114	C	1.786850	-0.092495	0.590660
H115	H	0.886188	-0.673859	-0.213043
H116	H	1.386188	-0.173859	0.286957
H117	H	1.013975	-0.790884	-0.817375
H118	H	1.513975	-0.290884	-0.317375
H119	H	0.588897	-0.767481	-0.096387
H120	H	1.088897	-0.267481	0.403613
H121	H	1.050027	-0.764679	-0.951009
H122	H	1.550027	-0.264679	-0.451009
Cl123	Cl	0.788097	-0.813636	-0.038726
Cl124	Cl	1.288097	-0.313636	0.461274
H125	H	1.045999	-0.767630	-0.639618
H126	H	1.545999	-0.267630	-0.139618
Cl127	Cl	1.347086	-1.103633	-0.134386
Cl128	Cl	1.847086	-0.603633	0.365614
Cl129	Cl	0.880364	-0.725731	-0.148367
Cl130	Cl	1.380364	-0.225731	0.351633
Cl131	Cl	0.431243	-0.577193	-0.333767
Cl132	Cl	0.931243	-0.077193	0.166233
H133	H	1.272851	-0.602705	-0.591325
H134	H	1.772851	-0.102705	-0.091325
H135	H	0.548056	-0.512164	-0.414772
H136	H	1.048056	-0.012164	0.085228
Cl137	Cl	1.344340	-0.550731	-0.590228
Cl138	Cl	1.844340	-0.050731	-0.090228
Cl139	Cl	0.660653	-0.463102	-0.475940
Cl140	Cl	1.160653	0.036898	0.024060
H141	H	0.859857	-0.509258	-0.418299
H142	H	1.359857	-0.009258	0.081701
Cl143	Cl	1.100905	-1.172146	-0.380411
Cl144	Cl	1.600905	-0.672146	0.119589
H145	H	1.433939	-0.485588	-0.698354
H146	H	1.933939	0.014412	-0.198354
H147	H	1.401908	-0.508856	-0.876102
H148	H	1.901908	-0.008856	-0.376102
H149	H	1.147443	-0.693837	-1.015742
H150	H	1.647443	-0.193837	-0.515742
