data_functionalizedCrystal
_audit_creation_method	'MofGen! by Chris Wilmer'
_symmetry_space_group_name_H-M	'P1'
_symmetry_Int_Tables_number	1
_symmetry_cell_setting	triclinic
loop_
_symmetry_equiv_pos_as_xyz
  x,y,z
_cell_length_a	17.077404
_cell_length_b	19.805404
_cell_length_c	17.077396
_cell_angle_alpha	90.029459
_cell_angle_beta	90.018362
_cell_angle_gamma	90.027563
loop_
_atom_site_label
_atom_site_type_symbol
_atom_site_fract_x
_atom_site_fract_y
_atom_site_fract_z
Zn1	Zn	1.200018	-0.269500	0.443813
Zn2	Zn	1.700018	0.230500	0.943813
Zn3	Zn	1.199910	-0.382693	0.312545
Zn4	Zn	1.699910	0.117307	0.812545
Zn5	Zn	1.068750	-0.269519	0.312564
Zn6	Zn	1.568750	0.230481	0.812564
Zn7	Zn	1.068702	-0.382648	0.443771
Zn8	Zn	1.568702	0.117352	0.943771
O9	O	1.134345	-0.326090	0.378174
O10	O	1.634345	0.173910	0.878174
O11	O	1.309851	-0.284526	0.426410
O12	O	1.809851	0.215474	0.926410
O13	O	1.182486	-0.367707	0.202701
O14	O	1.682486	0.132293	0.702701
O15	O	1.086228	-0.174800	0.330000
O16	O	1.586228	0.325200	0.830000
O17	O	1.309771	-0.367688	0.329968
O18	O	1.809771	0.132312	0.829968
O19	O	1.182670	-0.174786	0.426428
O20	O	1.682670	0.325214	0.926428
O21	O	1.086123	-0.284559	0.202715
O22	O	1.586123	0.215441	0.702715
O23	O	0.958897	-0.284515	0.329959
O24	O	1.458897	0.215485	0.829959
O25	O	1.086147	-0.367612	0.553624
O26	O	1.586147	0.132388	1.053624
O27	O	0.958862	-0.367631	0.426357
O28	O	1.458862	0.132369	0.926357
O29	O	1.182624	-0.284482	0.553655
O30	O	1.682624	0.215518	1.053655
O31	O	1.182440	-0.477404	0.329927
O32	O	1.682440	0.022596	0.829927
O33	O	1.086042	-0.477371	0.426339
O34	O	1.586042	0.022629	0.926339
C35	C	0.930397	-0.326071	0.378156
C36	C	1.430397	0.173929	0.878156
C37	C	0.843147	-0.326079	0.378167
C38	C	1.343147	0.173921	0.878167
C39	C	0.802199	-0.282853	0.428461
C40	C	1.302199	0.217147	0.928461
C41	C	0.720219	-0.282858	0.428465
C42	C	1.220219	0.217142	0.928465
C43	C	0.679188	-0.326092	0.378178
C44	C	1.179188	0.173908	0.878178
C45	C	0.720142	-0.369319	0.327878
C46	C	1.220142	0.130681	0.827878
C47	C	0.802121	-0.369311	0.327871
C48	C	1.302121	0.130689	0.827871
C49	C	0.549272	-0.369335	0.327897
C50	C	1.049272	0.130665	0.827897
C51	C	0.467287	-0.369344	0.327905
C52	C	0.967287	0.130656	0.827905
C53	C	0.467370	-0.282881	0.428491
C54	C	0.967370	0.217119	0.928491
C55	C	0.549349	-0.282873	0.428484
C56	C	1.049349	0.217127	0.928484
C57	C	0.590297	-0.326102	0.378185
C58	C	1.090297	0.173898	0.878185
C59	C	1.134245	-0.501946	0.378143
C60	C	1.634245	-0.001946	0.878143
C61	C	1.134275	-0.577178	0.378157
C62	C	1.634275	-0.077178	0.878157
C63	C	1.184732	-1.038964	0.328082
C64	C	1.684732	-0.538964	0.828082
C65	C	1.184695	-0.968275	0.328067
C66	C	1.684695	-0.468275	0.828067
C67	C	1.134448	-0.932940	0.378215
C68	C	1.634448	-0.432940	0.878215
C69	C	1.084229	-0.968296	0.428377
C70	C	1.584229	-0.468296	0.928377
C71	C	1.084262	-1.038984	0.428387
C72	C	1.584262	-0.538984	0.928387
C73	C	1.084092	-0.683223	0.428333
C74	C	1.584092	-0.183223	0.928333
C75	C	1.084064	-0.612531	0.428320
C76	C	1.584064	-0.112531	0.928320
C77	C	1.184525	-0.612515	0.328013
C78	C	1.684525	-0.112515	0.828013
C79	C	1.184559	-0.683202	0.328024
C80	C	1.684559	-0.183202	0.828024
C81	C	1.134337	-0.718552	0.378182
C82	C	1.634337	-0.218552	0.878182
C83	C	1.134376	-0.795201	0.378197
C84	C	1.634376	-0.295201	0.878197
C85	C	1.134412	-0.856293	0.378205
C86	C	1.634412	-0.356293	0.878205
C87	C	1.339089	-0.326110	0.378192
C88	C	1.839089	0.173890	0.878192
C89	C	1.426339	-0.326118	0.378199
C90	C	1.926339	0.173882	0.878199
C91	C	1.134393	-0.326040	0.582918
C92	C	1.634393	0.173960	1.082918
C93	C	1.134413	-0.326019	0.670168
C94	C	1.634413	0.173981	1.170168
C95	C	1.134466	-0.149547	0.378221
C96	C	1.634466	0.350453	0.878221
C97	C	1.134518	-0.074315	0.378241
C98	C	1.634518	0.425685	0.878241
C99	C	1.134343	-0.326091	0.174226
C100	C	1.634343	0.173909	0.674226
C101	C	1.134475	-0.325921	0.086976
C102	C	1.634475	0.174079	0.586976
C103	C	1.184650	-0.282730	0.711175
C104	C	1.684650	0.217270	1.211175
C105	C	1.184660	-0.282707	0.793156
C106	C	1.684660	0.217293	1.293156
C107	C	1.134435	-0.325978	0.834127
C108	C	1.634435	0.174022	1.334127
C109	C	1.084192	-0.369269	0.793114
C110	C	1.584192	0.130731	1.293114
C111	C	1.084179	-0.369288	0.711135
C112	C	1.584179	0.130712	1.211135
C113	C	1.084224	-0.369228	0.963984
C114	C	1.584224	0.130772	1.463984
C115	C	1.084237	-0.369211	1.045969
C116	C	1.584237	0.130789	1.545969
C117	C	1.184704	-0.282648	1.046005
C118	C	1.684704	0.217352	1.546005
C119	C	1.184691	-0.282666	0.964026
C120	C	1.684691	0.217334	1.464026
C121	C	1.134449	-0.325959	0.923018
C122	C	1.634449	0.174041	1.423018
H123	H	0.433882	-0.404549	0.286958
H124	H	0.933882	0.095451	0.786958
Cl125	Cl	0.853598	-0.423655	0.264642
Cl126	Cl	1.353598	0.076345	0.764642
H127	H	1.043312	-0.939522	0.469206
H128	H	1.543312	-0.439522	0.969206
Cl129	Cl	1.247866	-0.228224	1.097557
Cl130	Cl	1.747866	0.271776	1.597557
Cl131	Cl	0.668560	-0.423667	0.264655
Cl132	Cl	1.168560	0.076333	0.764655
H133	H	1.225593	-0.247436	0.930669
H134	H	1.725593	0.252564	1.430669
Cl135	Cl	1.021088	-0.423601	1.097475
Cl136	Cl	1.521088	0.076399	1.597475
H137	H	1.225570	-0.247458	0.826540
H138	H	1.725570	0.252542	1.326540
H139	H	1.225653	-1.067729	0.287250
H140	H	1.725653	-0.567729	0.787250
Cl141	Cl	1.021049	-0.423664	0.844621
Cl142	Cl	1.521049	0.076336	1.344621
Cl143	Cl	1.021060	-0.423653	0.912433
Cl144	Cl	1.521060	0.076347	1.412433
Cl145	Cl	1.021019	-0.423708	0.659582
Cl146	Cl	1.521019	0.076292	1.159582
H147	H	0.434026	-0.247682	0.469445
H148	H	0.934026	0.252318	0.969445
H149	H	1.225582	-0.939492	0.287223
H150	H	1.725582	-0.439492	0.787223
Cl151	Cl	0.668745	-0.228516	0.491697
Cl152	Cl	1.168745	0.271484	0.991697
Cl153	Cl	0.853773	-0.228502	0.491687
Cl154	Cl	1.353773	0.271498	0.991687
H155	H	1.043144	-0.583762	0.469159
H156	H	1.543144	-0.083762	0.969159
H157	H	1.225478	-0.711969	0.287190
H158	H	1.725478	-0.211969	0.787190
Cl159	Cl	0.600748	-0.423685	0.264669
Cl160	Cl	1.100748	0.076315	0.764669
Cl161	Cl	1.021129	-1.083426	0.491442
Cl162	Cl	1.521129	-0.583426	0.991442
H163	H	0.582754	-0.247672	0.469437
H164	H	1.082754	0.252328	0.969437
H165	H	1.225551	-0.247496	0.677822
H166	H	1.725551	0.252504	1.177822
H167	H	1.225416	-0.583725	0.287169
H168	H	1.725416	-0.083725	0.787169
H169	H	1.043192	-0.711997	0.469169
H170	H	1.543192	-0.211997	0.969169
