data_functionalizedCrystal
_audit_creation_method	'MofGen! by Chris Wilmer'
_symmetry_space_group_name_H-M	'P1'
_symmetry_Int_Tables_number	1
_symmetry_cell_setting	triclinic
loop_
_symmetry_equiv_pos_as_xyz
  x,y,z
_cell_length_a	19.121102
_cell_length_b	25.639239
_cell_length_c	19.120904
_cell_angle_alpha	92.404139
_cell_angle_beta	89.911827
_cell_angle_gamma	92.406175
loop_
_atom_site_label
_atom_site_type_symbol
_atom_site_fract_x
_atom_site_fract_y
_atom_site_fract_z
Zn1	Zn	1.054759	0.255750	0.442006
Zn2	Zn	1.388092	0.589083	0.775340
Zn3	Zn	1.721426	0.922417	1.108673
Zn4	Zn	1.059650	0.339616	0.324751
Zn5	Zn	1.392984	0.672950	0.658085
Zn6	Zn	1.726317	1.006283	0.991418
Zn7	Zn	0.942531	0.248314	0.319792
Zn8	Zn	1.275864	0.581647	0.653125
Zn9	Zn	1.609197	0.914980	0.986459
Zn10	Zn	0.937462	0.339265	0.436954
Zn11	Zn	1.270795	0.672598	0.770287
Zn12	Zn	1.604129	1.005931	1.103621
O13	O	0.998600	0.295736	0.380876
O14	O	1.331934	0.629069	0.714209
O15	O	1.665267	0.962403	1.047543
O16	O	1.153512	0.270134	0.430642
O17	O	1.486846	0.603468	0.763976
O18	O	1.820179	0.936801	1.097309
O19	O	1.048282	0.324540	0.225989
O20	O	1.381616	0.657873	0.559323
O21	O	1.714949	0.991206	0.892656
O22	O	0.957492	0.176138	0.336043
O23	O	1.290826	0.509472	0.669376
O24	O	1.624159	0.842805	1.002709
O25	O	1.157106	0.331750	0.344496
O26	O	1.490439	0.665084	0.677829
O27	O	1.823772	0.998417	1.011162
O28	O	1.039946	0.181602	0.425833
O29	O	1.373279	0.514935	0.759167
O30	O	1.706613	0.848269	1.092500
O31	O	0.962235	0.257460	0.222346
O32	O	1.295568	0.590793	0.555679
O33	O	1.628902	0.924127	0.889012
O34	O	0.843754	0.257119	0.331144
O35	O	1.177087	0.590453	0.664477
O36	O	1.510421	0.923786	0.997810
O37	O	0.948853	0.331151	0.535728
O38	O	1.282187	0.664485	0.869062
O39	O	1.615520	0.997818	1.202395
O40	O	0.840030	0.323941	0.417222
O41	O	1.173363	0.657274	0.750555
O42	O	1.506697	0.990607	1.083889
O43	O	1.035031	0.269794	0.539440
O44	O	1.368364	0.603127	0.872774
O45	O	1.701698	0.936460	1.206107
O46	O	1.043368	0.412731	0.339596
O47	O	1.376701	0.746065	0.672930
O48	O	1.710034	1.079398	1.006263
O49	O	0.953596	0.412473	0.422031
O50	O	1.286930	0.745806	0.755364
O51	O	1.620263	1.079140	1.088698
C52	C	0.816455	0.289685	0.373097
C53	C	1.149788	0.623019	0.706430
C54	C	1.483121	0.956352	1.039763
C55	C	0.738531	0.287110	0.369785
C56	C	1.071864	0.620443	0.703119
C57	C	1.405198	0.953776	1.036452
C58	C	0.700005	0.320738	0.412976
C59	C	1.033338	0.654072	0.746309
C60	C	1.366672	0.987405	1.079642
C61	C	0.626787	0.318312	0.409868
C62	C	0.960121	0.651645	0.743201
C63	C	1.293454	0.984978	1.076534
C64	C	0.592097	0.282258	0.363565
C65	C	0.925431	0.615592	0.696899
C66	C	1.258764	0.948925	1.030232
C67	C	0.630629	0.248626	0.320373
C68	C	0.963962	0.581959	0.653707
C69	C	1.297295	0.915293	0.987040
C70	C	0.703845	0.251051	0.323485
C71	C	1.037178	0.584384	0.656819
C72	C	1.370511	0.917717	0.990152
C73	C	0.371128	0.273192	0.351934
C74	C	0.704461	0.606526	0.685267
C75	C	1.037795	0.939859	1.018601
C76	C	0.297907	0.270771	0.348824
C77	C	0.631240	0.604105	0.682157
C78	C	0.964573	0.937438	1.015490
C79	C	0.294070	0.340456	0.438319
C80	C	0.627404	0.673790	0.771653
C81	C	0.960737	1.007123	1.104986
C82	C	0.367288	0.342880	0.441424
C83	C	0.700621	0.676213	0.774758
C84	C	1.033955	1.009547	1.108091
C85	C	0.405813	0.309246	0.398235
C86	C	0.739146	0.642579	0.731568
C87	C	1.072479	0.975913	1.064902
C88	C	0.517257	0.279778	0.360386
C89	C	0.850591	0.613111	0.693719
C90	C	1.183924	0.946445	1.027053
C91	C	0.480651	0.311724	0.401418
C92	C	0.813985	0.645057	0.734752
C93	C	1.147318	0.978391	1.068085
C94	C	0.998481	0.431573	0.380820
C95	C	1.331814	0.764907	0.714153
C96	C	1.665148	1.098240	1.047486
C97	C	0.998493	0.489688	0.380822
C98	C	1.331826	0.823021	0.714155
C99	C	1.665160	1.156354	1.047489
C100	C	1.041460	0.852863	0.427724
C101	C	1.374793	1.186196	0.761057
C102	C	1.708127	1.519530	1.094391
C103	C	1.041471	0.907468	0.427740
C104	C	1.374804	1.240801	0.761074
C105	C	1.708137	1.574135	1.094407
O106	O	1.077934	0.938091	0.467550
O107	O	1.411267	1.271425	0.800884
O108	O	1.744601	1.604758	1.134217
N109	N	0.998588	0.931978	0.380962
N110	N	1.331921	1.265311	0.714295
N111	N	1.665255	1.598644	1.047629
C112	C	0.955686	0.901879	0.334169
C113	C	1.289020	1.235212	0.667502
C114	C	1.622353	1.568546	1.000836
O115	O	0.919212	0.927740	0.294382
O116	O	1.252545	1.261074	0.627716
O117	O	1.585878	1.594407	0.961049
C118	C	0.955672	0.847275	0.334157
C119	C	1.289006	1.180608	0.667490
C120	C	1.622339	1.513941	1.000823
C121	C	0.998563	0.822768	0.380933
C122	C	1.331896	1.156102	0.714267
C123	C	1.665230	1.489435	1.047600
C124	C	1.084347	0.828356	0.474497
C125	C	1.417680	1.161689	0.807831
C126	C	1.751013	1.495023	1.141164
C127	C	1.084337	0.773755	0.474480
C128	C	1.417670	1.107088	0.807813
C129	C	1.751003	1.440421	1.141147
C130	C	1.041440	0.743660	0.427689
C131	C	1.374773	1.076993	0.761023
C132	C	1.708106	1.410327	1.094356
C133	C	0.998553	0.768167	0.380916
C134	C	1.331886	1.101500	0.714249
C135	C	1.665220	1.434833	1.047583
C136	C	0.912767	0.817177	0.287368
C137	C	1.246101	1.150510	0.620701
C138	C	1.579434	1.483844	0.954034
C139	C	0.912756	0.762569	0.287360
C140	C	1.246090	1.095903	0.620693
C141	C	1.579423	1.429236	0.954026
C142	C	0.955647	0.738063	0.334136
C143	C	1.288981	1.071396	0.667470
C144	C	1.622314	1.404730	1.000803
C145	C	0.955646	0.683471	0.334108
C146	C	1.288979	1.016804	0.667441
C147	C	1.622313	1.350137	1.000774
N148	N	0.998529	0.658961	0.380886
N149	N	1.331862	0.992295	0.714219
N150	N	1.665195	1.325628	1.047553
C151	C	1.041426	0.689056	0.427677
C152	C	1.374759	1.022389	0.761010
C153	C	1.708092	1.355723	1.094343
C154	C	0.955718	1.016552	0.334200
C155	C	1.289052	1.349885	0.667533
C156	C	1.622385	1.683218	1.000866
C157	C	0.955735	1.071155	0.334208
C158	C	1.289069	1.404488	0.667541
C159	C	1.622402	1.737821	1.000875
C160	C	1.041519	1.076740	0.427780
C161	C	1.374853	1.410073	0.761114
C162	C	1.708186	1.743407	1.094447
C163	C	1.041505	1.022136	0.427768
C164	C	1.374838	1.355469	0.761101
C165	C	1.708172	1.688803	1.094435
C166	C	0.998601	0.992042	0.380978
C167	C	1.331934	1.325375	0.714311
C168	C	1.665268	1.658709	1.047645
C169	C	1.041402	0.574389	0.427636
C170	C	1.374735	0.907722	0.760970
C171	C	1.708068	1.241055	1.094303
C172	C	1.041390	0.519782	0.427613
C173	C	1.374723	0.853116	0.760946
C174	C	1.708056	1.186449	1.094279
C175	C	0.955604	0.514202	0.334043
C176	C	1.288937	0.847535	0.667377
C177	C	1.622270	1.180868	1.000710
C178	C	0.955618	0.568803	0.334064
C179	C	1.288951	0.902137	0.667397
C180	C	1.622285	1.235470	1.000731
C181	C	0.998519	0.598896	0.380866
C182	C	1.331852	0.932229	0.714200
C183	C	1.665186	1.265563	1.047533
O184	O	0.919199	0.652814	0.294320
O185	O	1.252532	0.986147	0.627653
O186	O	1.585866	1.319481	0.960987
O187	O	1.077887	0.663187	0.467463
O188	O	1.411221	0.996521	0.800796
O189	O	1.744554	1.329854	1.134130
C190	C	1.181458	0.301811	0.388686
C191	C	1.514791	0.635144	0.722019
C192	C	1.848124	0.968478	1.055353
C193	C	1.259380	0.304400	0.392014
C194	C	1.592714	0.637733	0.725347
C195	C	1.926047	0.971067	1.058681
C196	C	0.990831	0.301263	0.563733
C197	C	1.324165	0.634596	0.897066
C198	C	1.657498	0.967929	1.230400
C199	C	0.987520	0.303618	0.641656
C200	C	1.320854	0.636951	0.974989
C201	C	1.654187	0.970285	1.308322
C202	C	0.998697	1.159369	0.380954
C203	C	1.332030	1.492702	0.714287
C204	C	1.665363	1.826035	1.047621
C205	C	0.998630	1.101254	0.381002
C206	C	1.331963	1.434587	0.714335
C207	C	1.665297	1.767921	1.047668
C208	C	1.006380	0.290195	0.198732
C209	C	1.339713	0.623528	0.532065
C210	C	1.673047	0.956861	0.865399
C211	C	1.009827	0.287697	0.120815
C212	C	1.343160	0.621030	0.454149
C213	C	1.676493	0.954363	0.787482
C214	C	1.030831	0.272780	0.680198
C215	C	1.364164	0.606113	1.013531
C216	C	1.697498	0.939447	1.346864
C217	C	1.027712	0.274991	0.753414
C218	C	1.361045	0.608324	1.086747
C219	C	1.694378	0.941657	1.420081
C220	C	0.981285	0.308042	0.788087
C221	C	1.314618	0.641376	1.121421
C222	C	1.647951	0.974709	1.454754
C223	C	0.937970	0.338881	0.749540
C224	C	1.271303	0.672215	1.082873
C225	C	1.604636	1.005548	1.416207
C226	C	0.941086	0.336668	0.676325
C227	C	1.274419	0.670001	1.009658
C228	C	1.607753	1.003334	1.342991
C229	C	0.969628	0.316322	1.009053
C230	C	1.302961	0.649655	1.342386
C231	C	1.636294	0.982989	1.675720
C232	C	0.966516	0.318535	1.082273
C233	C	1.299849	0.651868	1.415607
C234	C	1.633183	0.985201	1.748940
C235	C	1.056257	0.254643	1.086142
C236	C	1.389591	0.587976	1.419476
C237	C	1.722924	0.921310	1.752809
C238	C	1.059373	0.252434	1.012926
C239	C	1.392706	0.585768	1.346259
C240	C	1.726039	0.919101	1.679593
C241	C	1.016055	0.283271	0.974385
C242	C	1.349388	0.616605	1.307718
C243	C	1.682722	0.949938	1.641051
C244	C	0.978097	0.310304	0.862926
C245	C	1.311430	0.643637	1.196260
C246	C	1.644763	0.976971	1.529593
C247	C	1.019240	0.281007	0.899547
C248	C	1.352573	0.614340	1.232880
C249	C	1.685907	0.947673	1.566214
H250	H	0.508899	0.341076	0.439120
H251	H	0.842232	0.674410	0.772454
H252	H	1.175566	1.007743	1.105787
H253	H	0.595422	0.345696	0.445037
H254	H	0.928756	0.679029	0.778371
H255	H	1.262089	1.012363	1.111704
Br256	Br	0.747077	0.369674	0.475812
Br257	Br	1.080410	0.703007	0.809146
Br258	Br	1.413744	1.036341	1.142479
Br259	Br	1.142568	0.869189	0.538011
Br260	Br	1.475901	1.202522	0.871345
Br261	Br	1.809235	1.535856	1.204678
Br262	Br	1.099738	1.117593	0.491282
Br263	Br	1.433071	1.450927	0.824616
Br264	Br	1.766404	1.784260	1.157949
Br265	Br	0.897537	1.104407	0.270712
Br266	Br	1.230870	1.437740	0.604045
Br267	Br	1.564203	1.771073	0.937378
Br268	Br	0.414362	0.391814	0.504261
Br269	Br	0.747696	0.725147	0.837595
Br270	Br	1.081029	1.058481	1.170928
H271	H	0.262695	0.367839	0.473483
H272	H	0.596029	0.701172	0.806816
H273	H	0.929362	1.034505	1.140149
H274	H	1.119260	0.753805	0.512571
H275	H	1.452593	1.087138	0.845905
H276	H	1.785926	1.420471	1.179238
Br277	Br	1.099626	0.615220	0.491153
Br278	Br	1.432959	0.948553	0.824486
Br279	Br	1.766293	1.281887	1.157820
Br280	Br	1.115041	0.212794	1.138451
Br281	Br	1.448375	0.546127	1.471785
Br282	Br	1.781708	0.879461	1.805118
H283	H	0.928708	0.345450	1.110502
H284	H	1.262041	0.678784	1.443835
H285	H	1.595374	1.012117	1.777169
H286	H	0.402486	0.245809	0.316761
H287	H	0.735820	0.579142	0.650094
H288	H	1.069153	0.912475	0.983427
H289	H	0.269664	0.241406	0.311123
H290	H	0.602997	0.574740	0.644456
H291	H	0.936331	0.908073	0.977790
H292	H	0.920783	0.992051	0.296092
H293	H	1.254116	1.325385	0.629425
H294	H	1.587450	1.658718	0.962758
Br295	Br	0.470172	0.230848	0.297551
Br296	Br	0.803505	0.564182	0.630884
Br297	Br	1.136839	0.897515	0.964217
H298	H	0.877841	0.837121	0.249277
H299	H	1.211174	1.170454	0.582610
H300	H	1.544508	1.503787	0.915943
H301	H	1.076430	1.002186	0.465858
H302	H	1.409763	1.335519	0.799191
H303	H	1.743097	1.668853	1.132525
H304	H	1.076319	0.499831	0.465704
H305	H	1.409652	0.833164	0.799037
H306	H	1.742986	1.166498	1.132371
Br307	Br	0.897420	0.602064	0.270571
Br308	Br	1.230753	0.935397	0.603904
Br309	Br	1.564087	1.268730	0.937237
Br310	Br	0.910838	0.358171	0.956756
Br311	Br	1.244171	0.691505	1.290090
Br312	Br	1.577504	1.024838	1.623423
H313	H	0.602378	0.219269	0.282676
H314	H	0.935712	0.552602	0.616009
H315	H	1.269045	0.885935	0.949343
Br316	Br	0.854525	0.721731	0.223856
Br317	Br	1.187858	1.055064	0.557190
Br318	Br	1.521191	1.388397	0.890523
Br319	Br	0.756131	0.205407	0.264872
Br320	Br	1.089465	0.538741	0.598205
Br321	Br	1.422798	0.872074	0.931538
Br322	Br	0.897390	0.473349	0.270543
Br323	Br	1.230724	0.806682	0.603877
Br324	Br	1.564057	1.140015	0.937210
Br325	Br	1.093847	0.227926	0.633149
Br326	Br	1.427181	0.561260	0.966482
Br327	Br	1.760514	0.894593	1.299815
H328	H	1.062981	0.249881	0.784792
H329	H	1.396315	0.583214	1.118125
H330	H	1.729648	0.916547	1.451459
H331	H	1.097180	0.225522	0.984700
H332	H	1.430513	0.558855	1.318034
H333	H	1.763847	0.892188	1.651367
H334	H	0.900165	0.365791	0.777777
H335	H	1.233499	0.699124	1.111110
H336	H	1.566832	1.032457	1.444443
Br337	Br	0.882301	0.378517	0.624016
Br338	Br	1.215634	0.711851	0.957350
Br339	Br	1.548968	1.045184	1.290683
Br340	Br	1.082236	0.236145	0.852489
Br341	Br	1.415570	0.569478	1.185823
Br342	Br	1.748903	0.902812	1.519156
H343	H	0.940299	0.337217	0.891165
H344	H	1.273633	0.670550	1.224499
H345	H	1.606966	1.003884	1.557832
