data_functionalizedCrystal
_audit_creation_method	'MofGen! by Chris Wilmer'
_symmetry_space_group_name_H-M	'P1'
_symmetry_Int_Tables_number	1
_symmetry_cell_setting	triclinic
loop_
_symmetry_equiv_pos_as_xyz
  x,y,z
_cell_length_a	14.908795
_cell_length_b	21.295417
_cell_length_c	21.295412
_cell_angle_alpha	89.969860
_cell_angle_beta	86.683239
_cell_angle_gamma	93.319839
loop_
_atom_site_label
_atom_site_type_symbol
_atom_site_fract_x
_atom_site_fract_y
_atom_site_fract_z
Zn1	Zn	1.379173	-0.195177	-0.411532
Zn2	Zn	1.879173	0.304823	0.088468
Zn3	Zn	1.379056	-0.300451	-0.306255
Zn4	Zn	1.879056	0.199549	0.193745
Zn5	Zn	1.228312	-0.201259	-0.300193
Zn6	Zn	1.728312	0.298741	0.199807
Zn7	Zn	1.228249	-0.306479	-0.405405
Zn8	Zn	1.728249	0.193521	0.094595
O9	O	1.303698	-0.250841	-0.355846
O10	O	1.803698	0.249159	0.144154
O11	O	1.505406	-0.204073	-0.402667
O12	O	2.005406	0.295927	0.097333
O13	O	1.359037	-0.287315	-0.217360
O14	O	1.859037	0.212685	0.282640
O15	O	1.248399	-0.112360	-0.314990
O16	O	1.748399	0.387640	0.185010
O17	O	1.505321	-0.281417	-0.325321
O18	O	2.005321	0.218583	0.174679
O19	O	1.359236	-0.107891	-0.396790
O20	O	1.859236	0.392109	0.103210
O21	O	1.248286	-0.214440	-0.212907
O22	O	1.748286	0.285560	0.287093
O23	O	1.102055	-0.220286	-0.309049
O24	O	1.602055	0.279714	0.190951
O25	O	1.248292	-0.291692	-0.494308
O26	O	1.748292	0.208308	0.005692
O27	O	1.102009	-0.297590	-0.386348
O28	O	1.602009	0.202410	0.113652
O29	O	1.359175	-0.209918	-0.498809
O30	O	1.859175	0.290082	0.001191
O31	O	1.358976	-0.389343	-0.319379
O32	O	1.858976	0.110657	0.180621
O33	O	1.248179	-0.393772	-0.392225
O34	O	1.748179	0.106228	0.107775
C35	C	1.069297	-0.260253	-0.346376
C36	C	1.569297	0.239747	0.153624
C37	C	0.969019	-0.264294	-0.342340
C38	C	1.469019	0.235706	0.157660
C39	C	0.827639	-0.310192	-0.296318
C40	C	1.327639	0.189808	0.203682
C41	C	0.921859	-0.306397	-0.300111
C42	C	1.421859	0.193603	0.199889
C43	C	0.921953	-0.225981	-0.380778
C44	C	1.421953	0.274019	0.119222
C45	C	0.827733	-0.229776	-0.376986
C46	C	1.327733	0.270224	0.123014
C47	C	0.780579	-0.271883	-0.334755
C48	C	1.280579	0.228117	0.165245
C49	C	0.686358	-0.275681	-0.330967
C50	C	1.186358	0.224319	0.169033
C51	C	0.686453	-0.195262	-0.411631
C52	C	1.186453	0.304738	0.088369
C53	C	0.780673	-0.191467	-0.415423
C54	C	1.280673	0.308533	0.084577
C55	C	1.303583	-0.414398	-0.355810
C56	C	1.803583	0.085602	0.144190
C57	C	1.303616	-0.484364	-0.355818
C58	C	1.803616	0.015636	0.144182
C59	C	1.361295	-0.514848	-0.398439
C60	C	1.861295	-0.014848	0.101561
C61	C	1.361327	-0.580589	-0.398456
C62	C	1.861327	-0.080589	0.101544
C63	C	1.303689	-0.615844	-0.355841
C64	C	1.803689	-0.115844	0.144159
C65	C	1.245998	-0.585353	-0.313217
C66	C	1.745998	-0.085353	0.186783
C67	C	1.245962	-0.519613	-0.313206
C68	C	1.745962	-0.019613	0.186794
N69	N	1.296879	-0.719379	-0.300476
N70	N	1.796879	-0.219379	0.199524
N71	N	1.296919	-0.781829	-0.300488
N72	N	1.796919	-0.281829	0.199512
C73	C	1.303794	-0.813914	-0.355874
C74	C	1.803794	-0.313914	0.144126
N75	N	1.310646	-0.781190	-0.411248
N76	N	1.810646	-0.281190	0.088752
N77	N	1.310611	-0.718734	-0.411235
N78	N	1.810611	-0.218734	0.088765
C79	C	1.303722	-0.687128	-0.355849
C80	C	1.803722	-0.187128	0.144151
C81	C	1.361512	-0.915682	-0.398516
C82	C	1.861512	-0.415682	0.101484
C83	C	1.361537	-0.981425	-0.398534
C84	C	1.861537	-0.481425	0.101466
C85	C	1.246213	-0.986187	-0.313290
C86	C	1.746213	-0.486187	0.186710
C87	C	1.246183	-0.920446	-0.313278
C88	C	1.746183	-0.420446	0.186722
C89	C	1.303837	-0.885197	-0.355890
C90	C	1.803837	-0.385197	0.144110
C91	C	1.539014	-0.241394	-0.365354
C92	C	2.039014	0.258606	0.134646
C93	C	1.639291	-0.237368	-0.369405
C94	C	2.139291	0.262632	0.130595
C95	C	1.303739	-0.250799	-0.520038
C96	C	1.803739	0.249201	-0.020038
C97	C	1.303757	-0.250781	-0.590007
C98	C	1.803757	0.249219	-0.090007
C99	C	1.303838	-0.086645	-0.355898
C100	C	1.803838	0.413355	0.144102
C101	C	1.303897	-0.016675	-0.355920
C102	C	1.803897	0.483325	0.144080
C103	C	1.361579	-0.208098	-1.091814
C104	C	1.861579	0.291902	-0.591814
C105	C	1.361572	-0.208114	-1.026071
C106	C	1.861572	0.291886	-0.526071
C107	C	1.303835	-0.250695	-0.990850
C108	C	1.803835	0.249305	-0.490850
C109	C	1.246117	-0.293274	-1.021378
C110	C	1.746117	0.206726	-0.521378
C111	C	1.246132	-0.293262	-1.087120
C112	C	1.746132	0.206738	-0.587120
N113	N	1.224836	-0.258714	-0.884436
N114	N	1.724836	0.241286	-0.384436
N115	N	1.224824	-0.258723	-0.821984
N116	N	1.724824	0.241277	-0.321984
C117	C	1.303788	-0.250736	-0.792773
C118	C	1.803788	0.249264	-0.292773
N119	N	1.382765	-0.242729	-0.828374
N120	N	1.882765	0.257271	-0.328374
N121	N	1.382776	-0.242717	-0.890832
N122	N	1.882776	0.257283	-0.390832
C123	C	1.303813	-0.250713	-0.919564
C124	C	1.803813	0.249287	-0.419564
C125	C	1.361499	-0.208179	-0.690967
C126	C	1.861499	0.291821	-0.190967
C127	C	1.361493	-0.208199	-0.625223
C128	C	1.861493	0.291801	-0.125223
C129	C	1.246030	-0.293356	-0.620531
C130	C	1.746030	0.206644	-0.120531
C131	C	1.246044	-0.293339	-0.686274
C132	C	1.746044	0.206661	-0.186274
C133	C	1.303777	-0.250748	-0.721488
C134	C	1.803777	0.249252	-0.221488
C135	C	1.303708	-0.250836	-0.192295
C136	C	1.803708	0.249164	0.307705
C137	C	1.303865	-0.250670	-0.122334
C138	C	1.803865	0.249330	0.377666
H139	H	1.408239	-0.486151	-0.433138
H140	H	1.908239	0.013849	0.066862
H141	H	1.199023	-0.328029	-0.591855
H142	H	1.699023	0.171971	-0.091855
O143	O	1.183781	-0.339246	-0.719199
O144	O	1.683781	0.160754	-0.219199
H145	H	1.143623	-0.368854	-0.683664
H146	H	1.643623	0.131146	-0.183664
H147	H	1.199067	-0.614061	-0.278521
H148	H	1.699067	-0.114061	0.221479
O149	O	1.423548	-0.613481	-0.444422
O150	O	1.923548	-0.113481	0.055578
H151	H	1.463636	-0.577925	-0.474048
H152	H	1.963636	-0.077925	0.025952
O153	O	1.184047	-1.024200	-0.267322
O154	O	1.684047	-0.524200	0.232678
H155	H	1.193766	-1.075035	-0.274486
H156	H	1.693766	-0.575035	0.225514
H157	H	1.199218	-0.895624	-0.278569
H158	H	1.699218	-0.395624	0.221431
H159	H	1.198991	-0.494793	-0.278498
H160	H	1.698991	0.005207	0.221502
H161	H	0.960172	-0.337592	-0.268811
H162	H	1.460172	0.162408	0.231189
H163	H	1.408569	-0.173445	-1.001216
H164	H	1.908569	0.326555	-0.501216
H165	H	0.647967	-0.309969	-0.296582
H166	H	1.147967	0.190031	0.203418
O167	O	0.635691	-0.153939	-0.453088
O168	O	1.135691	0.346061	0.046912
H169	H	0.684312	-0.124026	-0.483092
H170	H	1.184312	0.375974	0.016908
H171	H	1.199109	-0.327945	-0.992697
H172	H	1.699109	0.172055	-0.492697
H173	H	1.408454	-0.886982	-0.433216
H174	H	1.908454	-0.386982	0.066784
H175	H	1.408506	-1.006243	-0.433244
H176	H	1.908506	-0.506243	0.066756
O177	O	1.183872	-0.339173	-1.120044
O178	O	1.683872	0.160827	-0.620044
H179	H	1.143716	-0.368783	-1.084510
H180	H	1.643716	0.131217	-0.584510
O181	O	1.423775	-0.162252	-0.728956
O182	O	1.923775	0.337748	-0.228956
H183	H	1.463919	-0.132659	-0.696686
H184	H	1.963919	0.367341	-0.196686
O185	O	0.972817	-0.180562	-0.426319
O186	O	1.472817	0.319438	0.073681
H187	H	1.046239	-0.184362	-0.422496
H188	H	1.546239	0.315638	0.077504
O189	O	0.831531	-0.146053	-0.460971
O190	O	1.331531	0.353947	0.039029
H191	H	0.904955	-0.149852	-0.457154
H192	H	1.404955	0.350148	0.042846
O193	O	1.423752	-0.162282	-0.592306
O194	O	1.923752	0.337718	-0.092306
H195	H	1.414054	-0.169451	-0.540675
H196	H	1.914054	0.330549	-0.040675
O197	O	0.776771	-0.355604	-0.250773
O198	O	1.276771	0.144396	0.249227
H199	H	0.825325	-0.381604	-0.224680
H200	H	1.325325	0.118396	0.275320
O201	O	1.423855	-0.162169	-1.129797
O202	O	1.923855	0.337831	-0.629797
H203	H	1.463993	-0.132573	-1.097525
H204	H	1.963993	0.367427	-0.597525
