data_functionalizedCrystal
_audit_creation_method	'MofGen! by Chris Wilmer'
_symmetry_space_group_name_H-M	'P1'
_symmetry_Int_Tables_number	1
_symmetry_cell_setting	triclinic
loop_
_symmetry_equiv_pos_as_xyz
  x,y,z
_cell_length_a	11.026607
_cell_length_b	19.188930
_cell_length_c	9.482900
_cell_angle_alpha	99.297616
_cell_angle_beta	78.636152
_cell_angle_gamma	95.865399
loop_
_atom_site_label
_atom_site_type_symbol
_atom_site_fract_x
_atom_site_fract_y
_atom_site_fract_z
O1	O	1.627581	0.283622	-0.120957
O2	O	2.127581	0.783622	0.379043
O3	O	1.274451	0.250352	-0.120952
O4	O	1.774451	0.750352	0.379048
O5	O	1.461202	0.166632	-0.120926
O6	O	1.961202	0.666632	0.379074
O7	O	1.440830	0.367342	-0.120983
O8	O	1.940830	0.867342	0.379017
O9	O	1.423268	0.183725	0.120861
O10	O	1.923268	0.683725	0.620861
O11	O	1.236517	0.267445	0.120835
O12	O	1.736517	0.767445	0.620835
O13	O	1.589648	0.300715	0.120830
O14	O	2.089648	0.800715	0.620830
Cu15	Cu	1.409619	0.285641	0.142910
Cu16	Cu	1.909619	0.785641	0.642910
Cu17	Cu	1.454480	0.265426	-0.143032
Cu18	Cu	1.954480	0.765426	0.356968
O19	O	1.402896	0.384435	0.120804
O20	O	1.902896	0.884435	0.620804
C21	C	1.210306	0.252761	-0.000057
C22	C	1.710306	0.752761	0.499943
C23	C	1.075688	0.234464	-0.000054
C24	C	1.575688	0.734464	0.499946
C25	C	1.001617	0.284984	-0.000069
C26	C	1.501617	0.784984	0.499931
C27	C	0.862482	0.266075	-0.000066
C28	C	1.362482	0.766075	0.499934
C29	C	1.441575	0.149084	-0.000029
C30	C	1.941575	0.649084	0.499971
C31	C	1.439592	0.071328	-0.000016
C32	C	1.939592	0.571328	0.499984
C33	C	1.549173	0.040370	-0.000011
C34	C	2.049173	0.540370	0.499989
C35	C	1.547315	-0.032693	-0.000034
C36	C	2.047315	0.467307	0.499966
C37	C	1.435865	-0.074793	-0.000033
C38	C	1.935865	0.425207	0.499967
C39	C	1.326271	-0.043828	-0.000047
C40	C	1.826271	0.456172	0.499953
C41	C	1.328134	0.029233	-0.000038
C42	C	1.828134	0.529233	0.499962
N43	N	1.337766	-0.187838	0.082253
N44	N	1.837766	0.312162	0.582253
N45	N	1.336003	-0.257242	0.082248
N46	N	1.836003	0.242758	0.582248
C47	C	1.430246	-0.294921	-0.000063
C48	C	1.930246	0.205079	0.499937
N49	N	1.526334	-0.260572	-0.082349
N50	N	2.026334	0.239428	0.417651
N51	N	1.528099	-0.191161	-0.082338
N52	N	2.028099	0.308839	0.417662
C53	C	1.433833	-0.154016	-0.000044
C54	C	1.933833	0.345984	0.499956
C55	C	1.537820	-0.405101	-0.000085
C56	C	2.037820	0.094899	0.499915
C57	C	1.535959	-0.478166	-0.000117
C58	C	2.035959	0.021834	0.499883
C59	C	1.314910	-0.489299	-0.000115
C60	C	1.814910	0.010701	0.499885
C61	C	1.316776	-0.416236	-0.000098
C62	C	1.816776	0.083764	0.499902
C63	C	1.428234	-0.374141	-0.000075
C64	C	1.928234	0.125859	0.499925
C65	C	1.653793	0.298306	-0.000068
C66	C	2.153793	0.798306	0.499932
C67	C	1.788412	0.316602	-0.000081
C68	C	2.288412	0.816602	0.499919
C69	C	1.422524	0.401983	-0.000097
C70	C	1.922524	0.901983	0.499903
C71	C	1.424509	0.479738	-0.000119
C72	C	1.924509	0.979738	0.499881
N73	N	1.378075	0.299859	0.344025
N74	N	1.878075	0.799859	0.844025
N75	N	1.486034	0.251204	-0.344148
N76	N	1.986034	0.751204	0.155852
C77	C	1.445167	0.269615	0.416234
C78	C	1.945167	0.769615	0.916234
C79	C	1.418931	0.281452	0.583648
C80	C	1.918931	0.781452	1.083648
H81	H	1.041206	0.342235	-0.000077
H82	H	1.541206	0.842235	0.499923
H83	H	1.522028	0.234957	0.354116
H84	H	2.022028	0.734957	0.854116
H85	H	1.342057	0.316106	0.645762
H86	H	1.842057	0.816106	1.145762
C87	C	1.204086	-0.586690	-0.124420
C88	C	1.704086	-0.086690	0.375580
C89	C	1.192401	-0.535567	-0.000120
C90	C	1.692401	-0.035567	0.499880
H91	H	1.128453	-0.615258	-0.124421
H92	H	1.628453	-0.115258	0.375579
H93	H	1.222630	-0.563906	-0.208714
H94	H	1.722630	-0.063906	0.291286
H95	H	1.269088	-0.615583	-0.124409
H96	H	1.769088	-0.115583	0.375591
H97	H	1.127405	-0.506671	-0.000137
H98	H	1.627405	-0.006671	0.499863
H99	H	1.173842	-0.558353	0.084196
H100	H	1.673842	-0.058353	0.584196
C101	C	1.215450	-0.141230	-0.124336
C102	C	1.715450	0.358770	0.375664
C103	C	1.203764	-0.090103	-0.000044
C104	C	1.703764	0.409897	0.499956
H105	H	1.139819	-0.169800	-0.124332
H106	H	1.639819	0.330200	0.375668
H107	H	1.233992	-0.118450	-0.208636
H108	H	1.733992	0.381550	0.291364
H109	H	1.280454	-0.170121	-0.124320
H110	H	1.780454	0.329879	0.375680
H111	H	1.138766	-0.061209	-0.000066
H112	H	1.638766	0.438791	0.499934
H113	H	1.185207	-0.112885	0.084277
H114	H	1.685207	0.387115	0.584277
C115	C	1.109452	0.010889	-0.000037
C116	C	1.609452	0.510889	0.499963
C117	C	1.207671	0.063267	-0.000030
C118	C	1.707671	0.563267	0.499970
H119	H	1.035082	0.031903	-0.000020
H120	H	1.535082	0.531903	0.499980
H121	H	1.126548	-0.023324	-0.084356
H122	H	1.626548	0.476676	0.415644
H123	H	1.100102	-0.011427	0.084278
H124	H	1.600102	0.488573	0.584278
H125	H	1.217028	0.085579	-0.084350
H126	H	1.717028	0.585579	0.415650
H127	H	1.190571	0.097492	0.084298
H128	H	1.690571	0.597492	0.584298
H129	H	1.628576	-0.370826	-0.000073
H130	H	2.128576	0.129174	0.499927
C131	C	1.754634	-0.459817	-0.000078
C132	C	2.254634	0.040183	0.499922
C133	C	1.656421	-0.512198	-0.000107
C134	C	2.156421	-0.012198	0.499893
H135	H	1.829000	-0.480828	-0.000061
H136	H	2.329000	0.019172	0.499939
H137	H	1.764001	-0.437504	-0.084384
H138	H	2.264001	0.062496	0.415616
H139	H	1.737515	-0.425600	0.084250
H140	H	2.237515	0.074400	0.584250
H141	H	1.673536	-0.546412	-0.084441
H142	H	2.173536	-0.046412	0.415559
H143	H	1.647054	-0.534521	0.084207
H144	H	2.147054	-0.034521	0.584207
C145	C	1.098096	-0.434579	-0.000076
C146	C	1.598096	0.065421	0.499924
C147	C	1.196316	-0.382201	-0.000078
C148	C	1.696316	0.117799	0.499922
H149	H	1.023725	-0.413565	-0.000057
H150	H	1.523725	0.086435	0.499943
H151	H	1.115190	-0.468793	-0.084393
H152	H	1.615190	0.031207	0.415607
H153	H	1.088750	-0.456893	0.084241
H154	H	1.588750	0.043107	0.584241
H155	H	1.205668	-0.359890	-0.084400
H156	H	1.705668	0.140110	0.415600
H157	H	1.179218	-0.347974	0.084248
H158	H	1.679218	0.152026	0.584248
H159	H	1.562899	0.216543	0.593739
H160	H	2.062899	0.716543	1.093739
C161	C	1.186263	0.306521	0.515424
C162	C	1.686263	0.806521	1.015424
C163	C	1.274307	0.346643	0.427875
C164	C	1.774307	0.846643	0.927875
H165	H	1.122205	0.335407	0.567193
H166	H	1.622205	0.835407	1.067193
H167	H	1.151901	0.267874	0.456061
H168	H	1.651901	0.767874	0.956061
H169	H	1.224971	0.289083	0.582412
H170	H	1.724971	0.789083	1.082412
H171	H	1.235600	0.364077	0.360880
H172	H	1.735600	0.864077	0.860880
H173	H	1.308671	0.385303	0.487244
H174	H	1.808671	0.885303	0.987244
C175	C	0.681568	0.185010	-0.000056
C176	C	1.181568	0.685010	0.499944
C177	C	0.809058	0.188782	-0.000052
C178	C	1.309058	0.688782	0.499948
H179	H	0.648590	0.137292	-0.000058
H180	H	1.148590	0.637292	0.499942
H181	H	0.641598	0.213540	0.084251
H182	H	1.141598	0.713540	0.584251
H183	H	0.668059	0.201629	-0.084383
H184	H	1.168059	0.701629	0.415617
H185	H	0.822567	0.172167	0.084281
H186	H	1.322567	0.672167	0.584281
H187	H	0.849040	0.160242	-0.084368
H188	H	1.349040	0.660242	0.415632
H189	H	1.639931	0.074639	0.000002
H190	H	2.139931	0.574639	0.500002
H191	H	0.827994	0.373857	-0.000087
H192	H	1.327994	0.873857	0.499913
C193	C	1.081211	0.115123	-0.124317
C194	C	1.581211	0.615123	0.375683
C195	C	1.022261	0.157175	-0.000034
C196	C	1.522261	0.657175	0.499966
H197	H	1.048234	0.067407	-0.124298
H198	H	1.548234	0.567407	0.375702
H199	H	1.067678	0.131739	-0.208623
H200	H	1.567678	0.631739	0.291377
H201	H	1.167702	0.117698	-0.124302
H202	H	1.667702	0.617698	0.375698
H203	H	0.935772	0.154604	-0.000055
H204	H	1.435772	0.654604	0.499945
H205	H	1.035785	0.140555	0.084293
H206	H	1.535785	0.640555	0.584293
H207	H	1.636553	-0.057905	-0.000036
H208	H	2.136553	0.442095	0.499964
