data_functionalizedCrystal
_audit_creation_method	'MofGen! by Chris Wilmer'
_symmetry_space_group_name_H-M	'P1'
_symmetry_Int_Tables_number	1
_symmetry_cell_setting	triclinic
loop_
_symmetry_equiv_pos_as_xyz
  x,y,z
_cell_length_a	14.853566
_cell_length_b	14.853567
_cell_length_c	13.930277
_cell_angle_alpha	89.991563
_cell_angle_beta	90.003759
_cell_angle_gamma	83.634672
loop_
_atom_site_label
_atom_site_type_symbol
_atom_site_fract_x
_atom_site_fract_y
_atom_site_fract_z
O1	O	1.196370	0.117686	0.079759
O2	O	0.933910	0.131709	0.079774
O3	O	1.072150	-0.006532	0.079769
O4	O	1.058129	0.255927	0.079764
O5	O	1.072130	-0.006511	-0.079893
O6	O	0.933890	0.131730	-0.079888
O7	O	1.196349	0.117707	-0.079903
Zn8	Zn	1.065116	0.124722	-0.105245
Zn9	Zn	1.065143	0.124694	0.105116
O10	O	1.058109	0.255948	-0.079898
C11	C	0.900311	0.131084	-0.000055
C12	C	0.800227	0.129181	-0.000049
C13	C	0.377054	0.121118	0.086966
C14	C	0.377053	0.121142	-0.087103
C15	C	0.471087	0.122929	-0.087101
C16	C	0.518108	0.123813	-0.000063
C17	C	0.471096	0.122909	0.086972
C18	C	0.518105	0.123843	-0.174134
C19	C	0.612145	0.125631	-0.174134
C20	C	0.659169	0.126508	-0.087095
C21	C	0.612151	0.125603	-0.000057
C22	C	0.659172	0.126486	0.086980
C23	C	0.612157	0.125575	0.174019
C24	C	0.518120	0.123786	0.174010
C25	C	0.753206	0.128297	-0.087086
C26	C	0.753215	0.128277	0.086986
C27	C	1.071505	-0.040111	-0.000059
C28	C	1.069601	-0.140194	-0.000051
C29	C	0.979435	-0.552728	-0.000064
C30	C	1.143668	-0.574009	-0.000073
C31	C	1.145458	-0.479976	-0.000067
C32	C	1.064236	-0.422313	-0.000061
C33	C	0.981223	-0.458685	-0.000061
C34	C	1.228470	-0.443597	-0.000078
C35	C	1.230263	-0.349558	-0.000073
C36	C	1.149040	-0.291894	-0.000060
C37	C	1.066023	-0.328271	-0.000059
C38	C	0.984801	-0.270608	-0.000053
C39	C	0.901784	-0.306983	-0.000045
C40	C	0.899999	-0.401021	-0.000048
C41	C	1.150824	-0.197856	-0.000057
C42	C	0.986588	-0.176566	-0.000050
C43	C	1.229948	0.118332	-0.000072
C44	C	1.330032	0.120235	-0.000071
C45	C	1.058754	0.289526	-0.000068
C46	C	1.060658	0.389610	-0.000070
N47	N	1.065105	0.124740	-0.248811
C48	C	1.119899	0.179457	-0.701075
C49	C	1.010415	0.069894	-0.701056
C50	C	1.010401	0.069909	-0.600560
C51	C	1.065138	0.124697	-0.550317
C52	C	1.119889	0.179471	-0.600570
C53	C	0.955659	0.015129	-0.550299
C54	C	0.955643	0.015141	-0.449798
C55	C	1.010376	0.069935	-0.399553
C56	C	1.065128	0.124711	-0.449812
C57	C	1.119865	0.179500	-0.399569
C58	C	1.174613	0.234282	-0.449826
C59	C	1.174622	0.234265	-0.550325
C60	C	1.010368	0.069952	-0.299054
C61	C	1.119855	0.179514	-0.299064
N62	N	1.065162	0.124668	0.248682
H63	H	0.479813	0.123130	-0.244995
H64	H	0.338761	0.120429	-0.157965
H65	H	0.965795	0.025347	-0.258139
H66	H	1.294597	-0.490552	-0.000091
H67	H	0.650453	0.126300	0.244885
H68	H	0.791494	0.128993	0.157863
H69	H	1.219184	0.278886	-0.408905
C70	C	1.180120	0.239709	-0.756351
H71	H	1.172293	0.231854	-0.823401
H72	H	1.163445	0.301366	-0.739898
H73	H	1.241782	0.223065	-0.739866
C74	C	1.233005	-0.637434	-0.000082
H75	H	1.220051	-0.698649	-0.000079
H76	H	1.267035	-0.626384	-0.055758
H77	H	1.267042	-0.626409	0.055604
H78	H	0.338770	0.120373	0.157831
C79	C	0.895391	-0.045079	-0.394519
H80	H	0.903216	-0.037218	-0.327469
H81	H	0.833741	-0.028418	-0.411025
H82	H	0.912050	-0.106748	-0.410949
H83	H	0.479832	0.123042	0.244873
C84	C	0.950210	0.009633	-0.756320
H85	H	0.958054	0.017473	-0.823371
H86	H	0.966878	-0.052020	-0.739827
H87	H	0.888543	0.026283	-0.739868
C88	C	0.895426	-0.045107	-0.605561
H89	H	0.862819	-0.077728	-0.561239
H90	H	0.853993	-0.008219	-0.644768
H91	H	0.932307	-0.086544	-0.644763
C92	C	0.663855	0.126626	-0.269871
H93	H	0.622382	0.125838	-0.321707
H94	H	0.693734	0.179852	-0.273491
H95	H	0.707344	0.074783	-0.273484
H96	H	0.791480	0.129049	-0.157952
C97	C	0.897242	-0.113144	-0.000044
H98	H	0.847549	-0.148278	-0.000047
H99	H	0.894532	-0.076023	0.055631
H100	H	0.894517	-0.076013	-0.055731
H101	H	0.835653	-0.260023	-0.000046
H102	H	0.832411	-0.430646	-0.000043
C103	C	1.242130	-0.157846	-0.000068
H104	H	1.290247	-0.205656	-0.000071
H105	H	1.246230	-0.121591	-0.055743
H106	H	1.246252	-0.121619	0.055619
C107	C	0.888124	-0.592735	-0.000059
H108	H	0.898687	-0.656999	-0.000066
H109	H	0.854682	-0.572957	0.055619
H110	H	0.854674	-0.572942	-0.055743
C111	C	1.234847	0.294507	-0.605609
H112	H	1.227022	0.286641	-0.672658
H113	H	1.218177	0.356167	-0.589168
H114	H	1.296509	0.277861	-0.589119
C115	C	1.321576	-0.309553	-0.000069
H116	H	1.369692	-0.357363	-0.000066
H117	H	1.325686	-0.273296	-0.055741
H118	H	1.325690	-0.273328	0.055621
C119	C	1.180065	0.239781	-0.243800
H120	H	1.172217	0.231949	-0.176748
H121	H	1.241727	0.223146	-0.260258
H122	H	1.163380	0.301438	-0.260289
