data_functionalizedCrystal
_audit_creation_method	'MofGen! by Chris Wilmer'
_symmetry_space_group_name_H-M	'P1'
_symmetry_Int_Tables_number	1
_symmetry_cell_setting	triclinic
loop_
_symmetry_equiv_pos_as_xyz
  x,y,z
_cell_length_a	8.559649
_cell_length_b	17.038272
_cell_length_c	7.088929
_cell_angle_alpha	83.325468
_cell_angle_beta	95.325015
_cell_angle_gamma	80.445110
loop_
_atom_site_label
_atom_site_type_symbol
_atom_site_fract_x
_atom_site_fract_y
_atom_site_fract_z
O1	O	2.101368	-0.017362	-0.158956
O2	O	1.641608	0.022690	-0.158968
O3	O	1.868757	-0.110988	-0.158947
O4	O	1.874219	0.116317	-0.158977
O5	O	1.899108	-0.128889	0.159031
O6	O	1.671959	0.004789	0.159010
O7	O	2.131720	-0.035263	0.159022
Cu8	Cu	1.904611	-0.016871	0.188050
Cu9	Cu	1.868717	0.004298	-0.187996
O10	O	1.904570	0.098416	0.159001
C11	C	1.597666	0.016775	0.000020
C12	C	1.421514	0.025810	0.000016
C13	C	1.878962	-0.148769	0.000042
C14	C	1.864133	-0.234674	0.000041
C15	C	2.000285	-0.292946	0.000046
C16	C	1.986340	-0.373660	0.000028
C17	C	1.836242	-0.396101	0.000018
C18	C	1.700079	-0.337821	0.000006
C19	C	1.714024	-0.257108	0.000011
C20	C	1.786975	-0.638906	-0.000010
C21	C	1.773041	-0.719626	-0.000009
C22	C	2.059303	-0.755459	0.000009
C23	C	2.073236	-0.674743	0.000025
C24	C	1.937072	-0.616470	0.000004
C25	C	1.821985	-0.478604	0.000005
C26	C	1.951329	-0.533968	0.000003
C27	C	2.175661	-0.029347	0.000030
C28	C	2.351812	-0.038381	0.000022
C29	C	1.894365	0.136197	0.000008
C30	C	1.909193	0.222102	-0.000003
N31	N	1.929868	-0.031762	0.452540
N32	N	1.843471	0.019182	-0.452486
H33	H	1.346417	0.087683	-0.000003
O34	O	1.441236	-0.112250	0.000286
C35	C	1.523863	-0.246801	0.165092
C36	C	1.422479	-0.163187	0.165010
H37	H	1.508759	-0.288002	0.298277
H38	H	1.483274	-0.273122	0.032113
H39	H	1.654716	-0.241158	0.165000
H40	H	1.291602	-0.168761	0.165170
H41	H	1.463201	-0.136896	0.297978
O42	O	1.554335	-0.359703	-0.000260
C43	C	1.356697	-0.420713	-0.165057
C44	C	1.521794	-0.395993	-0.164979
H45	H	1.330322	-0.450044	-0.298238
H46	H	1.355674	-0.465143	-0.032074
H47	H	1.261815	-0.365192	-0.164971
H48	H	1.616769	-0.451466	-0.165133
H49	H	1.522683	-0.351535	-0.297951
O50	O	1.654721	-0.582262	-0.000357
C51	C	1.488632	-0.461041	-0.165045
C52	C	1.638440	-0.525149	-0.164913
H53	H	1.475439	-0.414840	-0.298053
H54	H	1.378901	-0.490903	-0.165168
H55	H	1.500715	-0.429890	-0.031913
H56	H	1.626514	-0.556323	-0.298021
H57	H	1.748113	-0.495242	-0.164690
H58	H	2.122512	-0.274683	0.000066
H59	H	2.097211	-0.421103	0.000036
H60	H	2.195462	-0.656479	0.000034
O61	O	1.736819	0.082257	0.450200
C62	C	1.656742	0.226120	0.388670
C63	C	1.777659	0.154761	0.498976
H64	H	1.689697	0.284756	0.428095
H65	H	1.658805	0.224967	0.228439
H66	H	1.532122	0.221456	0.427916
H67	H	1.902335	0.159378	0.459890
H68	H	1.775456	0.155938	0.659181
O69	O	2.036602	-0.094839	0.549742
C70	C	2.116553	-0.238705	0.611455
C71	C	1.995594	-0.167346	0.501221
H72	H	2.083423	-0.297345	0.572297
H73	H	2.241202	-0.234151	0.572148
H74	H	2.114522	-0.237444	0.771653
H75	H	1.997483	-0.168563	0.340998
H76	H	1.871001	-0.171926	0.540687
O77	O	1.581627	-0.200558	-0.000246
C78	C	1.325555	-0.135919	-0.165064
C79	C	1.475394	-0.200003	-0.164974
H80	H	1.239640	-0.135438	-0.298252
H81	H	1.264806	-0.150441	-0.032087
H82	H	1.361351	-0.074391	-0.164973
H83	H	1.439733	-0.261555	-0.165132
H84	H	1.536107	-0.185412	-0.297939
H85	H	2.170160	-0.802912	0.000023
H86	H	1.650810	-0.737894	0.000014
H87	H	2.073534	-0.515691	-0.000031
H88	H	1.699775	-0.496884	0.000001
