data_functionalizedCrystal
_audit_creation_method	'MofGen! by Chris Wilmer'
_symmetry_space_group_name_H-M	'P1'
_symmetry_Int_Tables_number	1
_symmetry_cell_setting	triclinic
loop_
_symmetry_equiv_pos_as_xyz
  x,y,z
_cell_length_a	19.288859
_cell_length_b	17.699092
_cell_length_c	18.366186
_cell_angle_alpha	89.995439
_cell_angle_beta	89.990083
_cell_angle_gamma	83.210047
loop_
_atom_site_label
_atom_site_type_symbol
_atom_site_fract_x
_atom_site_fract_y
_atom_site_fract_z
O1	O	0.921470	0.094395	-0.060561
O2	O	1.421470	0.594395	0.439439
O3	O	0.719224	0.107136	-0.060559
O4	O	1.219224	0.607136	0.439441
O5	O	0.826058	-0.009432	-0.060559
O6	O	1.326058	0.490568	0.439441
O7	O	0.814636	0.210962	-0.060562
O8	O	1.314636	0.710962	0.439438
O9	O	0.826040	-0.009437	0.060541
O10	O	1.326040	0.490563	0.560541
O11	O	0.719206	0.107130	0.060540
O12	O	1.219206	0.607130	0.560540
O13	O	0.921452	0.094389	0.060538
O14	O	1.421452	0.594389	0.560538
Zn15	Zn	0.820326	0.100759	0.079766
Zn16	Zn	1.320326	0.600759	0.579766
Zn17	Zn	0.820350	0.100766	-0.079787
Zn18	Zn	1.320350	0.600766	0.420213
O19	O	0.814618	0.210957	0.060537
O20	O	1.314618	0.710957	0.560537
C21	C	0.693338	0.106724	-0.000009
C22	C	1.193338	0.606724	0.499991
C23	C	0.616233	0.105496	-0.000009
C24	C	1.116233	0.605496	0.499991
C25	C	0.052265	0.165583	-0.000011
C26	C	0.552265	0.665583	0.499989
C27	C	0.124712	0.166743	-0.000014
C28	C	0.624712	0.666743	0.499986
C29	C	0.169336	0.098347	-0.000012
C30	C	0.669336	0.598347	0.499988
C31	C	0.141507	0.028784	-0.000025
C32	C	0.641507	0.528784	0.499975
C33	C	0.069060	0.027625	-0.000028
C34	C	0.569060	0.527625	0.499972
C35	C	0.290539	0.047335	0.042418
C36	C	0.790539	0.547335	0.542418
C37	C	0.362984	0.048497	0.042426
C38	C	0.862984	0.548497	0.542426
C39	C	0.392787	0.101918	-0.000005
C40	C	0.892787	0.601918	0.499995
C41	C	0.350134	0.154191	-0.042434
C42	C	0.850134	0.654191	0.457566
C43	C	0.277687	0.153032	-0.042437
C44	C	0.777687	0.653032	0.457563
C45	C	0.247894	0.099596	-0.000009
C46	C	0.747894	0.599596	0.499991
C47	C	0.499164	0.172735	-0.000001
C48	C	0.999164	0.672735	0.499999
C49	C	0.571613	0.173893	-0.000010
C50	C	1.071613	0.673893	0.499990
C51	C	0.588407	0.035932	-0.000013
C52	C	1.088407	0.535932	0.499987
C53	C	0.515959	0.034776	-0.000012
C54	C	1.015959	0.534776	0.499988
C55	C	0.471341	0.103180	-0.000003
C56	C	0.971341	0.603180	0.499997
C57	C	0.825638	-0.037631	-0.000010
C58	C	1.325638	0.462369	0.499990
C59	C	0.824408	-0.121647	-0.000013
C60	C	1.324408	0.378353	0.499987
C61	C	0.823841	-0.161110	-0.066026
C62	C	1.323841	0.338890	0.433974
C63	C	0.822680	-0.240052	-0.066026
C64	C	1.322680	0.259948	0.433974
C65	C	0.822091	-0.279529	-0.000014
C66	C	1.322091	0.220471	0.499986
C67	C	0.822656	-0.240059	0.066003
C68	C	1.322656	0.259941	0.566003
C69	C	0.823812	-0.161119	0.066003
C70	C	1.323812	0.338881	0.566003
C71	C	0.817993	-0.558418	0.066004
C72	C	1.317993	-0.058418	0.566004
C73	C	0.816839	-0.637364	0.065999
C74	C	1.316839	-0.137364	0.565999
C75	C	0.816862	-0.637350	-0.066025
C76	C	1.316862	-0.137350	0.433975
C77	C	0.818018	-0.558410	-0.066025
C78	C	1.318018	-0.058410	0.433975
C79	C	0.818579	-0.518947	-0.000009
C80	C	1.318579	-0.018947	0.499991
C81	C	0.819836	-0.433350	-0.000008
C82	C	1.319836	0.066650	0.499992
C83	C	0.820839	-0.365125	-0.000014
C84	C	1.320839	0.134875	0.499986
C85	C	0.947338	0.094801	-0.000013
C86	C	1.447338	0.594801	0.499987
C87	C	1.024443	0.096029	-0.000019
C88	C	1.524443	0.596029	0.499981
C89	C	0.815037	0.239156	-0.000013
C90	C	1.315037	0.739156	0.499987
C91	C	0.816268	0.323172	-0.000014
C92	C	1.316268	0.823172	0.499986
N93	N	0.820315	0.100753	0.188657
N94	N	1.320315	0.600753	0.688657
N95	N	0.820366	0.100766	-0.188679
N96	N	1.320366	0.600766	0.311321
C97	C	0.867636	0.049162	0.226758
C98	C	1.367636	0.549162	0.726758
C99	C	0.867640	0.049159	0.302986
C100	C	1.367640	0.549159	0.802986
C101	C	0.820330	0.100759	0.341110
C102	C	1.320330	0.600759	0.841110
C103	C	0.773000	0.152354	0.303000
C104	C	1.273000	0.652354	0.803000
C105	C	0.772992	0.152351	0.226774
C106	C	1.272992	0.652351	0.726774
C107	C	0.811115	0.169721	0.461869
C108	C	1.311115	0.669721	0.961869
C109	C	0.811128	0.169725	0.538094
C110	C	1.311128	0.669725	1.038094
C111	C	0.820350	0.100769	0.576218
C112	C	1.320350	0.600769	1.076218
C113	C	0.829574	0.031805	0.538107
C114	C	1.329574	0.531805	1.038107
C115	C	0.829566	0.031802	0.461880
C116	C	1.329566	0.531802	0.961880
C117	C	0.820333	0.100768	0.423765
C118	C	1.320333	0.600768	0.923765
C119	C	0.867679	0.049170	0.696973
C120	C	1.367679	0.549170	1.196973
C121	C	0.867678	0.049166	0.773202
C122	C	1.367678	0.549166	1.273202
C123	C	0.773041	0.152368	0.773215
C124	C	1.273041	0.652368	1.273215
C125	C	0.773038	0.152365	0.696988
C126	C	1.273038	0.652365	1.196988
C127	C	0.820360	0.100767	0.658871
C128	C	1.320360	0.600767	1.158871
H129	H	0.397706	0.005937	0.076978
H130	H	0.897706	0.505937	0.576978
H131	H	0.493307	-0.021862	-0.000014
H132	H	0.993307	0.478138	0.499986
H133	H	0.803594	0.225878	0.430836
H134	H	1.303594	0.725878	0.930836
N135	N	0.258398	-0.010291	0.088180
N136	N	0.758398	0.489709	0.588180
H137	H	0.296408	-0.043224	0.115063
H138	H	0.796408	0.456776	0.615063
H139	H	0.224941	0.017075	0.124418
H140	H	0.724941	0.517075	0.624418
H141	H	0.906210	0.007153	0.665938
H142	H	1.406210	0.507153	1.165938
N143	N	0.918732	-0.006469	0.814301
N144	N	1.418732	0.493531	1.314301
H145	H	0.948713	-0.039147	0.778584
H146	H	1.448713	0.460853	1.278584
H147	H	0.949379	0.022444	0.845908
H148	H	1.449379	0.522444	1.345908
N149	N	0.822028	-0.282636	0.137203
N150	N	1.322028	0.217364	0.637203
H151	H	0.778512	-0.309113	0.140150
H152	H	1.278512	0.190887	0.640150
H153	H	0.864623	-0.321626	0.140094
H154	H	1.364623	0.178374	0.640094
H155	H	0.177845	-0.026905	-0.000025
H156	H	0.677845	0.473095	0.499975
N157	N	0.039048	-0.047396	-0.000036
N158	N	0.539048	0.452604	0.499964
H159	H	0.078308	-0.090551	-0.000038
H160	H	0.578308	0.409449	0.499962
H161	H	0.009349	-0.050885	0.044857
H162	H	0.509349	0.449115	0.544857
H163	H	0.824263	-0.128987	0.119757
H164	H	1.324263	0.371013	0.619757
H165	H	0.462834	0.228434	0.000005
H166	H	0.962834	0.728434	0.500005
H167	H	0.734517	0.194379	0.804256
H168	H	1.234517	0.694379	1.304256
H169	H	0.906167	0.007146	0.195726
H170	H	1.406167	0.507146	0.695726
H171	H	0.803621	0.225880	0.569119
H172	H	1.303621	0.725880	1.069119
H173	H	0.816402	-0.669490	-0.119779
H174	H	1.316402	-0.169490	0.380221
N175	N	0.816205	-0.679946	0.137200
N176	N	1.316205	-0.179946	0.637200
H177	H	0.816734	-0.642968	0.179022
H178	H	1.316734	-0.142968	0.679022
H179	H	0.772684	-0.706420	0.140070
H180	H	1.272684	-0.206420	0.640070
H181	H	0.818501	-0.526272	-0.119779
H182	H	1.318501	-0.026272	0.380221
N183	N	0.824483	-0.118535	-0.137225
N184	N	1.324483	0.381465	0.362775
H185	H	0.823946	-0.155516	-0.179043
H186	H	1.323946	0.344484	0.320957
H187	H	0.781921	-0.079498	-0.140101
H188	H	1.281921	0.420502	0.359899
N189	N	0.822169	-0.282631	-0.137225
N190	N	1.322169	0.217369	0.362775
H191	H	0.822756	-0.245650	-0.179042
H192	H	1.322756	0.254350	0.320958
H193	H	0.864765	-0.321629	-0.140024
H194	H	1.364765	0.178371	0.359976
N195	N	0.004169	0.239376	0.000044
N196	N	0.504169	0.739376	0.500044
H197	H	0.013108	0.269767	-0.044829
H198	H	0.513108	0.769767	0.455171
H199	H	-0.045938	0.228060	0.000085
H200	H	0.454062	0.728060	0.500085
N201	N	0.818607	-0.515861	0.137204
N202	N	1.318607	-0.015861	0.637204
H203	H	0.818064	-0.552851	0.179020
H204	H	1.318064	-0.052851	0.679020
H205	H	0.862129	-0.489392	0.140076
H206	H	1.362129	0.010608	0.640076
N207	N	0.918680	-0.006489	0.344093
N208	N	1.418680	0.493511	0.844093
H209	H	0.948656	-0.039177	0.308379
H210	H	1.448656	0.460823	0.808379
H211	H	0.949335	0.022408	0.375706
H212	H	1.449335	0.522408	0.875706
H213	H	0.147369	0.223384	-0.000001
H214	H	0.647369	0.723384	0.499999
H215	H	0.837075	-0.024350	0.430853
H216	H	1.337075	0.475650	0.930853
H217	H	0.837083	-0.024346	0.569145
H218	H	1.337083	0.475654	1.069145
N219	N	0.721997	0.208010	0.655887
N220	N	1.221997	0.708010	1.155887
H221	H	0.692025	0.240698	0.691603
H222	H	1.192025	0.740698	1.191603
H223	H	0.748524	0.241396	0.624247
H224	H	1.248524	0.741396	1.124247
N225	N	0.231684	0.209395	-0.088207
N226	N	0.731684	0.709395	0.411793
H227	H	0.197660	0.241420	-0.055714
H228	H	0.697660	0.741420	0.444286
H229	H	0.261602	0.243363	-0.115084
H230	H	0.761602	0.743363	0.384916
H231	H	0.734478	0.194367	0.334045
H232	H	1.234478	0.694367	0.834045
N233	N	0.721947	0.208000	0.185680
N234	N	1.221947	0.708000	0.685680
H235	H	0.729853	0.261696	0.198938
H236	H	1.229853	0.761696	0.698938
H237	H	0.729146	0.200105	0.131620
H238	H	1.229146	0.700105	0.631620
N239	N	0.382259	0.211818	-0.088206
N240	N	0.882259	0.711818	0.411794
H241	H	0.408357	0.244803	-0.055710
H242	H	0.908357	0.744803	0.444290
H243	H	0.415670	0.184453	-0.124487
H244	H	0.915670	0.684453	0.375513
N245	N	0.601616	0.248920	-0.000011
N246	N	1.101616	0.748920	0.499989
H247	H	0.585332	0.278868	0.044883
H248	H	1.085332	0.778868	0.544883
H249	H	0.654277	0.239219	-0.000043
H250	H	1.154277	0.739219	0.499957
N251	N	0.636527	-0.037841	-0.000018
N252	N	1.136527	0.462159	0.499982
H253	H	0.686644	-0.026554	-0.000017
H254	H	1.186644	0.473446	0.499983
H255	H	0.627524	-0.068171	0.044873
H256	H	1.127524	0.431829	0.544873
