data_functionalizedCrystal
_audit_creation_method	'MofGen! by Chris Wilmer'
_symmetry_space_group_name_H-M	'P1'
_symmetry_Int_Tables_number	1
_symmetry_cell_setting	triclinic
loop_
_symmetry_equiv_pos_as_xyz
  x,y,z
_cell_length_a	16.109301
_cell_length_b	9.482944
_cell_length_c	16.109301
_cell_angle_alpha	79.569783
_cell_angle_beta	96.538519
_cell_angle_gamma	100.473153
loop_
_atom_site_label
_atom_site_type_symbol
_atom_site_fract_x
_atom_site_fract_y
_atom_site_fract_z
O1	O	1.114742	0.120809	-0.118412
O2	O	1.614742	0.620809	0.381588
O3	O	0.872682	0.120833	-0.131714
O4	O	1.372682	0.620833	0.368286
O5	O	1.000360	0.120805	-0.004031
O6	O	1.500360	0.620805	0.495969
O7	O	0.987064	0.120836	-0.246096
O8	O	1.487064	0.620836	0.253904
O9	O	0.977112	-0.120987	0.019080
O10	O	1.477112	0.379013	0.519080
O11	O	0.849434	-0.120960	-0.108603
O12	O	1.349434	0.379040	0.391397
O13	O	1.091494	-0.120984	-0.095301
O14	O	1.591494	0.379016	0.404699
Cu15	Cu	0.968341	-0.143050	-0.099842
Cu16	Cu	1.468341	0.356950	0.400158
Cu17	Cu	0.995835	0.142898	-0.127173
Cu18	Cu	1.495835	0.642898	0.372827
O19	O	0.963816	-0.120956	-0.222985
O20	O	1.463816	0.379044	0.277015
C21	C	0.830084	-0.000061	-0.119620
C22	C	1.330084	0.499939	0.380380
C23	C	0.737789	-0.000052	-0.118006
C24	C	1.237789	0.499948	0.381994
C25	C	0.515516	-0.000060	-0.190013
C26	C	1.015516	0.499940	0.309987
C27	C	0.428795	-0.000069	-0.188488
C28	C	0.928795	0.499931	0.311512
C29	C	0.448668	-0.000083	-0.036998
C30	C	0.948668	0.499917	0.463002
C31	C	0.535386	-0.000084	-0.038522
C32	C	1.035386	0.499916	0.461478
C33	C	0.568809	-0.000065	-0.115033
C34	C	1.068809	0.499935	0.384967
C35	C	0.395369	-0.000073	-0.111983
C36	C	0.895369	0.499927	0.388017
C37	C	0.301342	-0.000084	-0.110329
C38	C	0.801342	0.499916	0.389671
C39	C	0.662841	-0.000057	-0.116687
C40	C	1.162841	0.499943	0.383313
N41	N	0.949010	-0.344170	-0.080618
N42	N	1.449010	0.155830	0.419382
C43	C	0.990127	-0.416369	-0.121503
C44	C	1.490127	0.083631	0.378497
C45	C	0.974050	-0.583786	-0.105500
C46	C	1.474050	-0.083786	0.394500
C47	C	1.134093	-0.000087	-0.107396
C48	C	1.634093	0.499913	0.392604
C49	C	1.226388	-0.000086	-0.109011
C50	C	1.726388	0.499914	0.390989
C51	C	0.988198	-0.000092	0.038500
C52	C	1.488198	0.499908	0.538500
C53	C	0.986582	-0.000094	0.130795
C54	C	1.486582	0.499906	0.630795
N55	N	1.015173	0.344019	-0.146391
N56	N	1.515173	0.844019	0.353609
C57	C	0.975979	-0.000056	-0.265515
C58	C	1.475979	0.499944	0.234485
C59	C	0.977595	-0.000045	-0.357812
C60	C	1.477595	0.499955	0.142188
C61	C	1.058591	-0.000078	0.353066
C62	C	1.558591	0.499922	0.853066
C63	C	1.057069	-0.000065	0.439785
C64	C	1.557069	0.499935	0.939785
C65	C	0.905581	-0.000056	0.419910
C66	C	1.405581	0.499944	0.919910
C67	C	0.907105	-0.000058	0.333192
C68	C	1.407105	0.499942	0.833192
C69	C	0.983613	-0.000076	0.299773
C70	C	1.483613	0.499924	0.799773
C71	C	0.980565	-0.000062	0.473211
C72	C	1.480565	0.499938	0.973211
C73	C	0.978913	-0.000049	0.567235
C74	C	1.478913	0.499951	1.067235
C75	C	0.985265	-0.000086	0.205742
C76	C	1.485265	0.499914	0.705742
H77	H	0.421444	-0.000107	0.025296
H78	H	0.921444	0.499893	0.525296
H79	H	0.926944	-0.645913	-0.058645
H80	H	1.426944	-0.145913	0.441355
H81	H	0.901907	-0.406302	-0.033766
H82	H	1.401907	0.093698	0.466234
H83	H	1.120889	-0.000089	0.325860
H84	H	1.620889	0.499911	0.825860
Cl85	Cl	0.602387	-0.000102	0.055747
Cl86	Cl	1.102387	0.499898	0.555747
H87	H	1.062283	-0.593857	-0.193242
H88	H	1.562283	-0.093857	0.306758
H89	H	0.843291	-0.000045	0.447131
H90	H	1.343291	0.499955	0.947131
H91	H	1.118124	-0.000064	0.483174
H92	H	1.618124	0.499936	0.983174
H93	H	1.037235	-0.354237	-0.168349
H94	H	1.537235	0.145763	0.331651
H95	H	0.846045	-0.000052	0.289797
H96	H	1.346045	0.499948	0.789797
H97	H	0.385406	-0.000068	-0.249543
H98	H	0.885406	0.499932	0.250457
Cl99	Cl	0.557529	-0.000045	-0.286196
Cl100	Cl	1.057529	0.499955	0.213804
