data_functionalizedCrystal
_audit_creation_method	'MofGen! by Chris Wilmer'
_symmetry_space_group_name_H-M	'P1'
_symmetry_Int_Tables_number	1
_symmetry_cell_setting	triclinic
loop_
_symmetry_equiv_pos_as_xyz
  x,y,z
_cell_length_a	16.959455
_cell_length_b	21.295417
_cell_length_c	16.959447
_cell_angle_alpha	90.035193
_cell_angle_beta	90.014322
_cell_angle_gamma	90.027454
loop_
_atom_site_label
_atom_site_type_symbol
_atom_site_fract_x
_atom_site_fract_y
_atom_site_fract_z
Zn1	Zn	1.208326	-0.250648	0.446882
Zn2	Zn	1.708326	0.249352	0.946882
Zn3	Zn	1.208225	-0.355925	0.314692
Zn4	Zn	1.708225	0.144075	0.814692
Zn5	Zn	1.076155	-0.250668	0.314719
Zn6	Zn	1.576155	0.249332	0.814719
Zn7	Zn	1.076096	-0.355878	0.446831
Zn8	Zn	1.576096	0.144122	0.946831
O9	O	1.142200	-0.303280	0.380781
O10	O	1.642200	0.196720	0.880781
O11	O	1.318924	-0.264625	0.429357
O12	O	1.818924	0.235375	0.929357
O13	O	1.190688	-0.341990	0.204085
O14	O	1.690688	0.158010	0.704085
O15	O	1.093755	-0.162576	0.332284
O16	O	1.593755	0.337424	0.832284
O17	O	1.318849	-0.341971	0.332237
O18	O	1.818849	0.158029	0.832237
O19	O	1.190861	-0.162561	0.429383
O20	O	1.690861	0.337439	0.929383
O21	O	1.093657	-0.264658	0.204105
O22	O	1.593657	0.235342	0.704105
O23	O	0.965536	-0.264613	0.332234
O24	O	1.465536	0.235387	0.832234
O25	O	1.093654	-0.341891	0.557448
O26	O	1.593654	0.158109	1.057448
O27	O	0.965493	-0.341910	0.429296
O28	O	1.465493	0.158090	0.929296
O29	O	1.190803	-0.264579	0.557486
O30	O	1.690803	0.235421	1.057486
O31	O	1.190630	-0.444008	0.332188
O32	O	1.690630	0.055992	0.832188
O33	O	1.093555	-0.443973	0.429269
O34	O	1.593555	0.056027	0.929269
C35	C	0.936834	-0.303259	0.380763
C36	C	1.436834	0.196741	0.880763
C37	C	0.848978	-0.303265	0.380774
C38	C	1.348978	0.196735	0.880774
C39	C	0.477500	-0.262998	0.330347
C40	C	0.977500	0.237002	0.830347
C41	C	0.477504	-0.343613	0.431261
C42	C	0.977504	0.156387	0.931261
C43	C	0.560050	-0.343604	0.431256
C44	C	1.060050	0.156396	0.931256
C45	C	0.601325	-0.303292	0.380795
C46	C	1.101325	0.196708	0.880795
C47	C	0.560054	-0.262989	0.330339
C48	C	1.060054	0.237011	0.830339
C49	C	0.601327	-0.383911	0.481705
C50	C	1.101327	0.116089	0.981705
C51	C	0.683877	-0.383904	0.481702
C52	C	1.183877	0.116096	0.981702
C53	C	0.725154	-0.343588	0.431244
C54	C	1.225154	0.156412	0.931244
C55	C	0.683878	-0.303283	0.380787
C56	C	1.183878	0.196717	0.880787
C57	C	0.725153	-0.262971	0.330326
C58	C	1.225153	0.237029	0.830326
C59	C	0.683879	-0.222662	0.279871
C60	C	1.183879	0.277338	0.779871
C61	C	0.601330	-0.222673	0.279881
C62	C	1.101330	0.277327	0.779881
C63	C	0.807702	-0.343577	0.431235
C64	C	1.307702	0.156423	0.931235
C65	C	0.807707	-0.262962	0.330318
C66	C	1.307707	0.237038	0.830318
C67	C	1.142097	-0.466831	0.380737
C68	C	1.642097	0.033169	0.880737
C69	C	1.142125	-0.536799	0.380745
C70	C	1.642125	-0.036799	0.880745
C71	C	1.192717	-0.569663	0.330246
C72	C	1.692717	-0.069663	0.830246
C73	C	1.192754	-0.635406	0.330264
C74	C	1.692754	-0.135406	0.830264
C75	C	1.142185	-0.668282	0.380772
C76	C	1.642185	-0.168282	0.880772
C77	C	1.091589	-0.635410	0.431281
C78	C	1.591589	-0.135410	0.931281
C79	C	1.091559	-0.569669	0.431267
C80	C	1.591559	-0.069669	0.931267
N81	N	1.073038	-0.771544	0.386792
N82	N	1.573038	-0.271544	0.886792
N83	N	1.073069	-0.833996	0.386800
N84	N	1.573069	-0.333996	0.886800
C85	C	1.142273	-0.866357	0.380818
C86	C	1.642273	-0.366357	0.880818
N87	N	1.211448	-0.833907	0.374811
N88	N	1.711448	-0.333907	0.874811
N89	N	1.211416	-0.771449	0.374798
N90	N	1.711416	-0.271449	0.874798
C91	C	1.142212	-0.739567	0.380793
C92	C	1.642212	-0.239567	0.880793
C93	C	1.192910	-0.970506	0.330335
C94	C	1.692910	-0.470506	0.830335
C95	C	1.192948	-1.036249	0.330359
C96	C	1.692948	-0.536249	0.830359
C97	C	1.091777	-1.036253	0.431371
C98	C	1.591777	-0.536253	0.931371
C99	C	1.091745	-0.970510	0.431352
C100	C	1.591745	-0.470510	0.931352
C101	C	1.142311	-0.937641	0.380830
C102	C	1.642311	-0.437641	0.880830
C103	C	1.348369	-0.303301	0.380800
C104	C	1.848369	0.196699	0.880800
C105	C	1.436225	-0.303310	0.380808
C106	C	1.936225	0.196690	0.880808
C107	C	1.142233	-0.303228	0.586949
C108	C	1.642233	0.196772	1.086949
C109	C	1.142247	-0.303205	0.674806
C110	C	1.642247	0.196795	1.174806
C111	C	1.142326	-0.139089	0.380842
C112	C	1.642326	0.360911	0.880842
C113	C	1.142379	-0.069121	0.380868
C114	C	1.642379	0.430879	0.880868
C115	C	1.142213	-0.303286	0.175415
C116	C	1.642213	0.196714	0.675415
C117	C	1.142352	-0.303131	0.087559
C118	C	1.642352	0.196869	0.587559
C119	C	1.091760	-0.343392	1.046265
C120	C	1.591760	0.156608	1.546265
C121	C	1.192923	-0.262886	1.046299
C122	C	1.692923	0.237114	1.546299
C123	C	1.192902	-0.262900	0.963753
C124	C	1.692902	0.237100	1.463753
C125	C	1.142310	-0.303160	0.922459
C126	C	1.642310	0.196840	1.422459
C127	C	1.091740	-0.343407	0.963711
C128	C	1.591740	0.156593	1.463711
C129	C	1.243478	-0.222658	0.922495
C130	C	1.743478	0.277342	1.422495
C131	C	1.243459	-0.222670	0.839944
C132	C	1.743459	0.277330	1.339944
C133	C	1.192863	-0.262928	0.798648
C134	C	1.692863	0.237072	1.298648
C135	C	1.142289	-0.303176	0.839906
C136	C	1.642289	0.196824	1.339906
C137	C	1.091698	-0.343437	0.798612
C138	C	1.591698	0.156563	1.298612
C139	C	1.041120	-0.383682	0.839867
C140	C	1.541120	0.116318	1.339867
C141	C	1.041143	-0.383665	0.922416
C142	C	1.541143	0.116335	1.422416
C143	C	1.192839	-0.262945	0.716100
C144	C	1.692839	0.237055	1.216100
C145	C	1.091677	-0.343453	0.716058
C146	C	1.591677	0.156547	1.216058
H147	H	0.567714	-0.416735	0.522782
H148	H	1.067714	0.083265	1.022782
H149	H	0.567717	-0.189857	0.238803
H150	H	1.067717	0.310143	0.738803
N151	N	0.435333	-0.221825	0.278821
N152	N	0.935333	0.278175	0.778821
N153	N	0.361629	-0.221832	0.278836
N154	N	0.861629	0.278168	0.778836
H155	H	0.331847	-0.192753	0.242447
H156	H	0.831847	0.307247	0.742447
H157	H	0.717476	-0.416725	0.522785
H158	H	1.217476	0.083275	1.022785
N159	N	0.849864	-0.384756	0.482752
N160	N	1.349864	0.115244	0.982752
N161	N	0.840622	-0.442837	0.477366
N162	N	1.340622	0.057163	0.977366
H163	H	0.870399	-0.471923	0.513752
H164	H	1.370399	0.028077	1.013752
H165	H	0.443893	-0.376437	0.472339
H166	H	0.943893	0.123563	0.972339
H167	H	1.233892	-0.542903	0.289110
H168	H	1.733892	-0.042903	0.789110
N169	N	1.039944	-0.668999	0.482873
N170	N	1.539944	-0.168999	0.982873
N171	N	1.039977	-0.727696	0.482879
N172	N	1.539977	-0.227696	0.982879
H173	H	1.003503	-0.751418	0.519320
H174	H	1.503503	-0.251418	1.019320
H175	H	1.050361	-0.542911	0.472390
H176	H	1.550361	-0.042911	0.972390
H177	H	1.233954	-0.662168	0.289142
H178	H	1.733954	-0.162168	0.789142
H179	H	1.234086	-0.943742	0.289200
H180	H	1.734086	-0.443742	0.789200
N181	N	1.040060	-0.936947	0.482940
N182	N	1.540060	-0.436947	0.982940
N183	N	0.994915	-0.966305	0.528036
N184	N	1.494915	-0.466305	1.028036
H185	H	0.958411	-0.942602	0.564475
H186	H	1.458411	-0.442602	1.064475
H187	H	0.841307	-0.230131	0.289230
H188	H	1.341307	0.269869	0.789230
N189	N	1.244630	-1.069833	0.278785
N190	N	1.744630	-0.569833	0.778785
N191	N	1.294998	-1.106465	0.306649
N192	N	1.794998	-0.606465	0.806649
H193	H	1.331499	-1.130185	0.270225
H194	H	1.831499	-0.630185	0.770225
N195	N	1.040131	-1.069836	0.482965
N196	N	1.540131	-0.569836	0.982965
N197	N	1.040165	-1.128533	0.482973
N198	N	1.540165	-0.628533	0.982973
H199	H	1.003691	-1.152256	0.519414
H200	H	1.503691	-0.652256	1.019414
H201	H	1.284642	-0.189899	0.806360
H202	H	1.784642	0.310101	1.306360
H203	H	1.050471	-0.376232	0.682442
H204	H	1.550471	0.123768	1.182442
N205	N	0.989454	-0.424808	0.797670
N206	N	1.489454	0.075192	1.297670
N207	N	0.989455	-0.424817	0.723967
N208	N	1.489455	0.075183	1.223967
H209	H	0.952968	-0.453861	0.694161
H210	H	1.452968	0.046139	1.194161
H211	H	0.999968	-0.416433	0.956013
H212	H	1.499968	0.083567	1.456013
N213	N	1.040098	-0.384492	1.088413
N214	N	1.540098	0.115508	1.588413
N215	N	1.040116	-0.384471	1.162116
N216	N	1.540116	0.115529	1.662116
H217	H	1.003628	-0.413498	1.191886
H218	H	1.503628	0.086502	1.691886
H219	H	1.234117	-0.230111	1.079925
H220	H	1.734117	0.269889	1.579925
N221	N	1.295156	-0.181546	0.964686
N222	N	1.795156	0.318454	1.464686
N223	N	1.295165	-0.181540	1.038390
N224	N	1.795165	0.318460	1.538390
H225	H	1.331665	-0.152504	1.068192
H226	H	1.831665	0.347496	1.568192
N227	N	1.244495	-0.221831	0.673970
N228	N	1.744495	0.278169	1.173970
N229	N	1.239302	-0.163743	0.683222
N230	N	1.739302	0.336257	1.183222
H231	H	1.275786	-0.134703	0.653469
H232	H	1.775786	0.365297	1.153469
N233	N	0.726056	-0.181495	0.228326
N234	N	1.226056	0.318505	0.728326
N235	N	0.799760	-0.181503	0.228325
N236	N	1.299760	0.318497	0.728325
H237	H	0.829552	-0.152430	0.191922
H238	H	1.329552	0.347570	0.691922
