data_functionalizedCrystal
_audit_creation_method	'MofGen! by Chris Wilmer'
_symmetry_space_group_name_H-M	'P1'
_symmetry_Int_Tables_number	1
_symmetry_cell_setting	triclinic
loop_
_symmetry_equiv_pos_as_xyz
  x,y,z
_cell_length_a	15.944551
_cell_length_b	10.654550
_cell_length_c	9.730223
_cell_angle_alpha	90.004253
_cell_angle_beta	89.998800
_cell_angle_gamma	83.991834
loop_
_atom_site_label
_atom_site_type_symbol
_atom_site_fract_x
_atom_site_fract_y
_atom_site_fract_z
O1	O	-1.115460	-0.161966	-0.114146
O2	O	-0.615460	0.338034	0.385854
O3	O	-0.871026	-0.181935	-0.114180
O4	O	-0.371026	0.318065	0.385820
O5	O	-0.998863	0.010862	-0.114154
O6	O	-0.498863	0.510862	0.385846
O7	O	-0.987623	-0.354762	-0.114173
O8	O	-0.487623	0.145238	0.385827
O9	O	-0.998855	0.010867	0.114426
O10	O	-0.498855	0.510867	0.614426
O11	O	-0.871018	-0.181929	0.114400
O12	O	-0.371018	0.318071	0.614400
O13	O	-1.115452	-0.161961	0.114434
O14	O	-0.615452	0.338039	0.614434
Zn15	Zn	-0.993234	-0.171944	0.150709
Zn16	Zn	-0.493234	0.328056	0.650709
Zn17	Zn	-0.993244	-0.171951	-0.150455
Zn18	Zn	-0.493244	0.328049	0.349545
O19	O	-0.987615	-0.354757	0.114407
O20	O	-0.487615	0.145243	0.614407
C21	C	-0.839723	-0.181103	0.000105
C22	C	-0.339723	0.318897	0.500105
C23	C	-0.746463	-0.178618	0.000093
C24	C	-0.246463	0.321382	0.500093
C25	C	-0.998034	0.057652	0.000135
C26	C	-0.498034	0.557652	0.500135
C27	C	-0.995565	0.197063	0.000133
C28	C	-0.495565	0.697063	0.500133
C29	C	-1.146755	-0.162792	0.000145
C30	C	-0.646755	0.337208	0.500145
C31	C	-1.240015	-0.165278	0.000149
C32	C	-0.740015	0.334722	0.500149
C33	C	-0.530880	-0.053173	0.000126
C34	C	-0.030880	0.446827	0.500126
C35	C	-0.470201	-0.111428	-0.112579
C36	C	0.029799	0.388572	0.387421
C37	C	-0.575711	-0.174122	0.000109
C38	C	-0.075711	0.325878	0.500109
C39	C	-0.470215	-0.111451	0.112783
C40	C	0.029785	0.388549	0.612783
C41	C	-0.410773	-0.169770	0.000131
C42	C	0.089227	0.330230	0.500131
C43	C	-0.516260	-0.232410	-0.112689
C44	C	-0.016260	0.267590	0.387311
C45	C	-0.516281	-0.232416	0.112774
C46	C	-0.016281	0.267584	0.612774
C47	C	-0.455620	-0.290759	0.000042
C48	C	0.044380	0.209241	0.500042
C49	C	-0.670728	-0.176625	0.000095
C50	C	-0.170728	0.323375	0.500095
C51	C	-0.315757	-0.167276	0.000135
C52	C	0.184243	0.332724	0.500135
C53	C	-0.988444	-0.401547	0.000115
C54	C	-0.488444	0.098453	0.500115
C55	C	-0.990913	-0.540958	0.000109
C56	C	-0.490913	-0.040958	0.500109
N57	N	-0.993232	-0.171939	0.356245
N58	N	-0.493232	0.328061	0.856245
C59	C	-1.070833	0.277522	0.000143
C60	C	-0.570833	0.777522	0.500143
C61	C	-1.068508	0.408513	0.000126
C62	C	-0.568508	0.908513	0.500126
C63	C	-0.915639	0.378572	0.000095
C64	C	-0.415639	0.878572	0.500095
C65	C	-0.917965	0.247584	0.000102
C66	C	-0.417965	0.747584	0.500102
N67	N	-0.993252	-0.171947	-0.355992
N68	N	-0.493252	0.328053	0.144008
C69	C	-1.049858	-0.086604	0.428183
C70	C	-0.549858	0.413396	0.928183
C71	C	-1.049866	-0.086605	0.572066
C72	C	-0.549866	0.413395	1.072066
C73	C	-0.936621	-0.257285	0.572061
C74	C	-0.436621	0.242715	1.072061
C75	C	-0.936609	-0.257278	0.428180
C76	C	-0.436609	0.242722	0.928180
H77	H	-0.563632	0.047204	-0.000009
H78	H	-0.063632	0.547204	0.499991
H79	H	-1.095963	-0.017115	0.369617
H80	H	-0.595963	0.482885	0.869617
H81	H	-0.890520	-0.326768	0.630645
H82	H	-0.390520	0.173232	1.130645
H83	H	-1.095975	-0.017116	0.630634
H84	H	-0.595975	0.482884	1.130634
H85	H	-0.856669	0.182070	0.000090
H86	H	-0.356669	0.682070	0.500090
H87	H	-0.852460	0.419723	0.000072
H88	H	-0.352460	0.919723	0.500072
H89	H	-0.890493	-0.326768	0.369605
H90	H	-0.390493	0.173232	0.869605
H91	H	-0.536547	-0.283530	-0.208076
H92	H	-0.036547	0.216470	0.291924
H93	H	-0.449798	-0.060274	-0.207858
H94	H	0.050202	0.439726	0.292142
H95	H	-0.536705	-0.283528	0.208058
H96	H	-0.036705	0.216472	0.708058
H97	H	-0.423043	-0.391240	-0.000026
H98	H	0.076957	0.108760	0.499974
H99	H	-0.449830	-0.060271	0.208063
H100	H	0.050170	0.439729	0.708063
H101	H	-1.134019	0.236393	0.000165
H102	H	-0.634019	0.736393	0.500165
H103	H	-1.129799	0.474019	0.000131
H104	H	-0.629799	0.974019	0.500131
