data_functionalizedCrystal
_audit_creation_method	'MofGen! by Chris Wilmer'
_symmetry_space_group_name_H-M	'P1'
_symmetry_Int_Tables_number	1
_symmetry_cell_setting	triclinic
loop_
_symmetry_equiv_pos_as_xyz
  x,y,z
_cell_length_a	10.654550
_cell_length_b	14.519709
_cell_length_c	9.730223
_cell_angle_alpha	89.994652
_cell_angle_beta	89.999957
_cell_angle_gamma	84.082538
loop_
_atom_site_label
_atom_site_type_symbol
_atom_site_fract_x
_atom_site_fract_y
_atom_site_fract_z
O1	O	1.666594	0.129532	-0.114191
O2	O	1.300996	0.141873	-0.114216
O3	O	1.493488	0.001514	-0.114190
O4	O	1.474102	0.269891	-0.114216
O5	O	1.493476	0.001511	0.114390
O6	O	1.300984	0.141869	0.114364
O7	O	1.666581	0.129528	0.114389
Zn8	Zn	1.483781	0.135698	0.150669
Zn9	Zn	1.483797	0.135703	-0.150495
O10	O	1.474089	0.269887	0.114363
C11	C	1.254201	0.140965	0.000071
C12	C	1.114784	0.138254	0.000061
C13	C	1.034504	0.220895	0.000057
C14	C	0.903507	0.218342	0.000081
C15	C	0.933084	0.050500	0.000108
C16	C	1.064078	0.053054	0.000094
C17	C	1.492579	-0.032852	0.000100
C18	C	1.489871	-0.135247	0.000100
C19	C	1.479904	-0.510195	0.000064
C20	C	1.482672	-0.405872	0.000075
C21	C	1.484887	-0.322724	0.000083
C22	C	1.487656	-0.218395	0.000091
C23	C	1.713377	0.130436	0.000099
C24	C	1.852794	0.133147	0.000100
C25	C	1.474999	0.304253	0.000070
C26	C	1.477706	0.406649	0.000061
N27	N	1.483779	0.135694	0.356205
N28	N	1.483809	0.135700	-0.356032
C29	C	1.569043	0.073570	0.428142
C30	C	1.569056	0.073570	0.572025
C31	C	1.398535	0.197827	0.572021
C32	C	1.398518	0.197822	0.428140
H33	H	1.129446	-0.014247	0.000101
H34	H	0.838147	0.285637	0.000081
C35	C	1.090280	0.314613	0.000034
C36	C	1.176252	0.339455	-0.118676
C37	C	1.232023	0.433176	-0.118695
C38	C	1.201823	0.502054	-0.000003
C39	C	1.115848	0.477214	0.118716
C40	C	1.060076	0.383493	0.118735
H41	H	1.198611	0.288465	-0.206547
H42	H	1.295668	0.451564	-0.206580
H43	H	1.243108	0.571432	-0.000017
H44	H	1.093488	0.528204	0.206587
H45	H	0.996431	0.365105	0.206620
C46	C	1.662818	0.005224	0.349012
C47	C	1.662810	0.005213	0.190750
C48	C	1.756584	-0.063137	0.111625
C49	C	1.850367	-0.131476	0.190763
C50	C	1.850379	-0.131468	0.349034
C51	C	1.756604	-0.063118	0.428159
H52	H	1.593383	0.055804	0.132159
H53	H	1.756575	-0.063143	-0.005539
H54	H	1.919785	-0.182073	0.132190
H55	H	1.919806	-0.182059	0.407625
H56	H	1.756613	-0.063112	0.545323
H57	H	0.891783	-0.018867	0.000143
H58	H	1.638484	0.022982	0.630593
H59	H	1.329120	0.248412	0.630605
H60	H	1.329079	0.248411	0.369565
