data_functionalizedCrystal
_audit_creation_method	'MofGen! by Chris Wilmer'
_symmetry_space_group_name_H-M	'P1'
_symmetry_Int_Tables_number	1
_symmetry_cell_setting	triclinic
loop_
_symmetry_equiv_pos_as_xyz
  x,y,z
_cell_length_a	6.817900
_cell_length_b	11.102288
_cell_length_c	14.125286
_cell_angle_alpha	94.650417
_cell_angle_beta	100.396688
_cell_angle_gamma	108.605689
loop_
_atom_site_label
_atom_site_type_symbol
_atom_site_fract_x
_atom_site_fract_y
_atom_site_fract_z
V1	V	-4.017305	-0.174858	-0.299991
O2	O	-3.978131	0.009412	-0.294280
O3	O	-3.994727	-0.347685	-0.297939
O4	O	-3.952991	-0.171725	-0.430827
O5	O	-4.020156	-0.167765	-0.160472
V6	V	-4.499649	-0.152869	-0.283303
O7	O	-4.281150	-0.223091	-0.336596
O8	O	-4.686002	-0.104636	-0.246698
O9	O	-4.299021	0.019958	-0.285355
O10	O	-4.656220	-0.337139	-0.289014
O11	O	-4.614196	-0.159962	-0.422822
O12	O	-4.340757	-0.156002	-0.152467
C13	C	-3.846524	-0.389830	-0.293207
C14	C	-3.909244	-0.531116	-0.292401
C15	C	-3.793286	-0.165374	-0.462717
C16	C	-3.822156	-0.163956	-0.569676
C17	C	-4.121210	-0.603949	-0.296823
C18	C	-4.180133	-0.736703	-0.296074
C19	C	-3.815102	-0.723776	-0.286477
C20	C	-3.756184	-0.591026	-0.287233
C21	C	-4.061310	-0.166532	-0.817798
C22	C	-3.875025	-0.161193	-0.765484
C23	C	-3.845610	-0.162731	-0.656526
C24	C	-4.090733	-0.164994	-0.926765
C25	C	-4.110567	0.062096	-0.290084
C26	C	-4.027085	0.203381	-0.290896
C27	C	-4.163806	-0.162357	-0.120572
C28	C	-4.114173	-0.163768	-0.013611
H29	H	-4.245845	-0.555174	-0.301030
H30	H	-4.198692	-0.172260	-0.780759
Cl31	Cl	-3.489693	-0.499458	-0.281680
H32	H	-4.352732	-0.796000	-0.299676
Cl33	Cl	-3.622698	-0.799101	-0.279973
Cl34	Cl	-3.662895	-0.152347	-0.822668
