data_functionalizedCrystal
_audit_creation_method	'MofGen! by Chris Wilmer'
_symmetry_space_group_name_H-M	'P1'
_symmetry_Int_Tables_number	1
_symmetry_cell_setting	triclinic
loop_
_symmetry_equiv_pos_as_xyz
  x,y,z
_cell_length_a	28.938199
_cell_length_b	28.937346
_cell_length_c	28.934044
_cell_angle_alpha	60.005004
_cell_angle_beta	60.009897
_cell_angle_gamma	59.994060
loop_
_atom_site_label
_atom_site_type_symbol
_atom_site_fract_x
_atom_site_fract_y
_atom_site_fract_z
O1	O	0.064043	-0.675186	0.564597
O2	O	0.024124	-0.525682	0.454913
O3	O	0.118795	-0.620275	0.454833
O4	O	-0.030629	-0.580593	0.564678
O5	O	0.150204	-0.588870	0.486157
O6	O	0.055533	-0.494276	0.486238
O7	O	0.095452	-0.643780	0.595921
Cu8	Cu	0.078360	-0.566161	0.543940
Cu9	Cu	0.041215	-0.603301	0.506895
O10	O	0.000780	-0.549187	0.596002
N11	N	0.104487	-0.540042	0.569998
N12	N	0.015094	-0.629425	0.480837
C13	C	0.165467	-0.323909	0.630915
C14	C	0.165587	-0.479117	0.786068
C15	C	0.165481	-0.479095	0.630906
C16	C	0.320696	-0.479083	0.630835
C17	C	0.182557	-0.375118	0.647971
C18	C	0.182626	-0.462038	0.734858
C19	C	0.269485	-0.462018	0.647928
C20	C	0.182566	-0.462025	0.647966
C21	C	0.143714	-0.258726	0.609206
C22	C	0.143738	-0.500820	0.609192
C23	C	0.204309	-0.440300	0.669680
C24	C	0.415481	-0.462740	0.580919
C25	C	0.474732	-0.482485	0.561145
C26	C	0.474757	-0.578356	0.597704
C27	C	0.415508	-0.558609	0.617479
C28	C	0.157989	-0.229089	0.550957
C29	C	0.138212	-0.169834	0.531225
C30	C	0.089890	-0.169857	0.627992
C31	C	0.109667	-0.229112	0.647725
C32	C	0.085482	-0.486515	0.623535
C33	C	0.065722	-0.506265	0.603789
C34	C	0.162467	-0.554625	0.555370
C35	C	0.182230	-0.534875	0.575110
C36	C	0.085661	-0.486557	0.880902
C37	C	0.065952	-0.506323	0.940155
C38	C	0.162734	-0.554693	0.940102
C39	C	0.182441	-0.534928	0.880847
C40	C	0.143904	-0.500859	0.851249
C41	C	0.385871	-0.500801	0.609083
C42	C	-0.110907	-0.668480	0.441278
C43	C	-0.024049	-0.668588	0.441475
C44	C	-0.045729	-0.690282	0.419668
C45	C	-0.062146	-0.785032	0.469507
C46	C	-0.042446	-0.844287	0.489286
C47	C	0.053426	-0.844399	0.452899
C48	C	0.033725	-0.785144	0.433120
C49	C	-0.140617	-0.682751	0.499509
C50	C	-0.199867	-0.662928	0.519152
C51	C	-0.199694	-0.614571	0.422330
C52	C	-0.140443	-0.634393	0.402687
C53	C	-0.038320	-0.610337	0.427144
C54	C	-0.018610	-0.590621	0.446974
C55	C	0.029642	-0.687402	0.495454
C56	C	0.009933	-0.707121	0.475630
C57	C	-0.038148	-0.610347	0.324832
C58	C	-0.018301	-0.590634	0.265579
C59	C	0.030035	-0.687421	0.265643
C60	C	0.010190	-0.707133	0.324897
C61	C	-0.023903	-0.668595	0.354491
C62	C	-0.024062	-0.755463	0.441426
N63	N	0.503527	-0.540005	0.569810
O64	O	0.684453	-0.545211	0.434650
O65	O	0.684643	-0.655237	0.584005
O66	O	0.684567	-0.654986	0.489282
O67	O	0.684529	-0.545462	0.529373
O68	O	0.590438	-0.623674	0.520735
O69	O	0.590513	-0.623924	0.615457
O70	O	0.590323	-0.513899	0.466102
Cu71	Cu	0.581823	-0.566053	0.543652
Cu72	Cu	0.693143	-0.603083	0.506456
O73	O	0.590399	-0.514149	0.560825
N74	N	0.771439	-0.629131	0.480292
N75	N	0.104456	-0.141061	0.570015
O76	O	-0.030629	0.039964	0.564688
O77	O	0.118732	0.039984	0.454661
O78	O	0.023980	0.039958	0.454946
O79	O	0.064123	0.039990	0.564403
O80	O	0.055392	-0.054179	0.486321
O81	O	0.150144	-0.054153	0.486036
O82	O	0.000784	-0.054173	0.596063
Cu83	Cu	0.078332	-0.062759	0.543914
Cu84	Cu	0.041183	0.048570	0.506810
O85	O	0.095535	-0.054147	0.595778
N86	N	0.015053	0.126872	0.480710
N87	N	0.104760	-0.540096	0.968910
O88	O	0.099447	-0.675167	1.149923
O89	O	-0.010552	-0.525757	1.149951
O90	O	-0.010297	-0.620493	1.149918
O91	O	0.099192	-0.580431	1.149956
O92	O	0.021064	-0.589100	1.055785
O93	O	0.020809	-0.494365	1.055818
O94	O	0.130808	-0.643774	1.055790
Cu95	Cu	0.078672	-0.566203	1.047209
Cu96	Cu	0.041584	-0.603328	1.158532
O97	O	0.130553	-0.549038	1.055823
N98	N	0.015495	-0.629442	1.236831
C99	C	0.036087	-0.491140	0.455465
C100	C	0.153325	-0.608283	0.455364
C101	C	0.083488	-0.678322	0.595370
C102	C	-0.033750	-0.561180	0.595470
C103	C	0.637601	-0.654732	0.618548
C104	C	0.637509	-0.654422	0.501245
C105	C	0.637362	-0.514403	0.431560
C106	C	0.637458	-0.514713	0.548862
C107	C	0.153215	-0.006966	0.455158
C108	C	0.035916	-0.007114	0.455550
C109	C	-0.033739	-0.007106	0.595527
C110	C	0.083600	-0.007076	0.595174
C111	C	-0.010020	-0.491238	1.102888
C112	C	-0.009698	-0.608550	1.102828
C113	C	0.130276	-0.678293	1.102853
C114	C	0.129961	-0.560974	1.102892
H115	H	0.054276	-0.458811	0.856808
H116	H	0.164358	-0.552401	1.102897
H117	H	-0.116252	-0.622767	0.355267
O118	O	0.204563	-0.618454	0.414280
C119	C	0.239731	-0.674075	0.434734
H120	H	0.224372	-0.689064	0.482944
H121	H	0.238174	-0.703345	0.420396
C122	C	0.319859	-0.656636	0.352106
C123	C	0.300998	-0.675044	0.411319
H124	H	0.357652	-0.657235	0.337661
H125	H	0.296166	-0.619164	0.338325
H126	H	0.318557	-0.681031	0.340166
H127	H	0.302294	-0.650646	0.423259
H128	H	0.324693	-0.712512	0.425102
O129	O	-0.084923	-0.551035	0.636640
C130	C	-0.095052	-0.505219	0.649699
H131	H	-0.053026	-0.500671	0.637178
H132	H	-0.122369	-0.464645	0.625400
C133	C	-0.177603	-0.521712	0.729083
C134	C	-0.125985	-0.516129	0.713708
H135	H	-0.196687	-0.528440	0.768566
H136	H	-0.170781	-0.552578	0.720284
H137	H	-0.200360	-0.487899	0.708829
H138	H	-0.103227	-0.549945	0.733957
H139	H	-0.132804	-0.485269	0.722512
O140	O	0.238839	-0.548834	0.561139
C141	C	0.268575	-0.583110	0.526807
H142	H	0.240323	-0.604664	0.534385
H143	H	0.281305	-0.555758	0.480399
C144	C	0.356724	-0.601912	0.532451
C145	C	0.322026	-0.628388	0.541762
H146	H	0.389696	-0.629840	0.541674
H147	H	0.336691	-0.578818	0.555579
H148	H	0.367326	-0.579119	0.493778
H149	H	0.311418	-0.651174	0.580436
H150	H	0.342058	-0.651487	0.518641
H151	H	0.637649	-0.689271	0.661445
O152	O	-0.084954	-0.007004	0.636687
C153	C	-0.127638	0.041739	0.617335
H154	H	-0.108361	0.075812	0.582079
H155	H	-0.147658	0.030707	0.600458
C156	C	-0.196934	0.022008	0.709920
C157	C	-0.173259	0.063860	0.666621
H158	H	-0.225077	0.035652	0.740323
H159	H	-0.168178	-0.010832	0.722958
H160	H	-0.213614	0.012818	0.695849
H161	H	-0.156574	0.073043	0.680691
H162	H	-0.202013	0.096702	0.653587
H163	H	0.092195	-0.007066	0.629560
O164	O	0.093649	-0.729599	0.636418
C165	C	0.106956	-0.772226	0.616985
H166	H	0.088717	-0.752917	0.581819
H167	H	0.154884	-0.792129	0.599963
C168	C	0.103789	-0.841705	0.709448
C169	C	0.081383	-0.817990	0.666260
H170	H	0.088017	-0.869936	0.739843
H171	H	0.094826	-0.812987	0.722540
H172	H	0.143728	-0.858286	0.695256
H173	H	0.041446	-0.801403	0.680451
H174	H	0.090339	-0.846706	0.653171
H175	H	0.498884	-0.625426	0.604536
H176	H	0.637300	-0.479859	0.388668
H177	H	0.637525	-0.688829	0.492664
O178	O	0.023868	-0.763725	0.489578
C179	C	0.058076	-0.793508	0.523987
H180	H	0.079621	-0.765286	0.516487
H181	H	0.030675	-0.806246	0.570372
C182	C	0.076894	-0.881623	0.518258
C183	C	0.103359	-0.846961	0.509042
H184	H	0.104824	-0.914597	0.509042
H185	H	0.053845	-0.861558	0.495078
H186	H	0.054060	-0.892232	0.556912
H187	H	0.126186	-0.836348	0.470387
H188	H	0.126412	-0.867026	0.532215
H189	H	-0.044080	-0.617108	1.102779
H190	H	0.637450	-0.480310	0.557440
H191	H	0.196022	-0.006699	0.420530
O192	O	0.025816	-0.439885	0.414418
C193	C	-0.029802	-0.404773	0.434960
H194	H	-0.056622	-0.432086	0.471310
H195	H	-0.028948	-0.376202	0.450699
C196	C	-0.022542	-0.334571	0.342387
C197	C	-0.055483	-0.368118	0.387030
H198	H	-0.038383	-0.311959	0.312822
H199	H	0.014930	-0.358225	0.328548
H200	H	-0.021833	-0.310767	0.355511
H201	H	-0.056186	-0.391926	0.373908
H202	H	-0.092956	-0.344467	0.400866
H203	H	0.027318	-0.007118	0.421162
H204	H	-0.044554	-0.448327	1.102896
H205	H	0.164813	-0.721202	1.102837
H206	H	0.194117	-0.582425	0.964198
O207	O	0.009354	-0.492346	0.968868
C208	C	-0.020428	-0.458047	0.930034
H209	H	0.007810	-0.436500	0.887791
H210	H	-0.033212	-0.485378	0.923736
C211	C	-0.108520	-0.439229	1.005067
C212	C	-0.073838	-0.412762	0.953185
H213	H	-0.141467	-0.411297	1.019348
H214	H	-0.088456	-0.462339	1.031231
H215	H	-0.119167	-0.462005	0.999812
H216	H	-0.063186	-0.389993	0.958442
H217	H	-0.093902	-0.389647	0.927022
H218	H	0.054136	-0.458786	0.651283
O219	O	0.239040	-0.548854	0.852130
C220	C	0.268825	-0.583170	0.890963
H221	H	0.240586	-0.575617	0.933209
H222	H	0.281613	-0.629582	0.897253
C223	C	0.356913	-0.577435	0.815929
C224	C	0.322231	-0.568156	0.867815
H225	H	0.389858	-0.568177	0.801651
H226	H	0.336847	-0.554318	0.789767
H227	H	0.367564	-0.616113	0.821179
H228	H	0.311575	-0.529478	0.862564
H229	H	0.342297	-0.591267	0.893977
H230	H	0.193817	-0.582360	0.527624
O231	O	0.386777	-0.595597	0.644744
C232	C	0.401254	-0.623349	0.608481
H233	H	0.417509	-0.596361	0.562612
H234	H	0.435667	-0.666107	0.618015
C235	C	0.328658	-0.665509	0.674287
C236	C	0.348619	-0.632360	0.617950
H237	H	0.296191	-0.671070	0.680130
H238	H	0.318905	-0.646814	0.698720
H239	H	0.357341	-0.701137	0.682226
H240	H	0.319939	-0.596731	0.610015
H241	H	0.358365	-0.651049	0.593516
O242	O	0.503411	-0.445433	0.533772
C243	C	0.464550	-0.390176	0.530614
H244	H	0.422305	-0.387869	0.534518
H245	H	0.458275	-0.379115	0.566508
C246	C	0.539528	-0.350706	0.468610
C247	C	0.487643	-0.347872	0.473400
H248	H	0.553773	-0.324611	0.433319
H249	H	0.565710	-0.387934	0.470739
H250	H	0.534291	-0.341490	0.498525
H251	H	0.492882	-0.357095	0.443490
H252	H	0.461462	-0.310645	0.471264
H253	H	0.018285	-0.494604	0.615454
H254	H	0.185713	-0.253197	0.519589
O255	O	0.386603	-0.406599	0.572792
C256	C	0.327957	-0.397329	0.596294
H257	H	0.319864	-0.433546	0.599149
H258	H	0.311167	-0.395234	0.640454
C259	C	0.307448	-0.296630	0.554949
C260	C	0.297508	-0.341110	0.558451
H261	H	0.288664	-0.261950	0.531608
H262	H	0.346959	-0.302874	0.539117
H263	H	0.293456	-0.294891	0.591751
H264	H	0.311506	-0.342852	0.521650
H265	H	0.257998	-0.334864	0.574276
O266	O	0.152148	-0.141128	0.474621
C267	C	0.186429	-0.179973	0.444856
H268	H	0.208000	-0.222213	0.473098
H269	H	0.159081	-0.186280	0.432099
C270	C	0.205184	-0.104949	0.356737
C271	C	0.231682	-0.156827	0.391423
H272	H	0.233097	-0.090671	0.323776
H273	H	0.182087	-0.078778	0.376790
H274	H	0.182395	-0.110212	0.346112
H275	H	0.254464	-0.151562	0.402053
H276	H	0.254784	-0.182997	0.371371
H277	H	0.098041	-0.253238	0.695156
O278	O	0.056806	-0.141174	0.665485
C279	C	0.048468	-0.180041	0.721130
H280	H	0.055093	-0.222280	0.721023
H281	H	0.080025	-0.186339	0.738082
C282	C	-0.020356	-0.105054	0.759293
C283	C	-0.012224	-0.156931	0.759162
H284	H	-0.057792	-0.090798	0.782754
H285	H	-0.014737	-0.078868	0.721804
H286	H	0.005946	-0.110309	0.773418
H287	H	-0.038520	-0.151674	0.745030
H288	H	-0.017848	-0.183116	0.796649
H289	H	-0.029909	-0.543201	0.241439
H290	H	0.057785	-0.718806	0.241554
O291	O	-0.071176	-0.572890	0.353559
C292	C	-0.041246	-0.538676	0.339139
H293	H	0.006157	-0.561605	0.322922
H294	H	-0.053797	-0.497044	0.304712
C295	C	-0.113849	-0.498406	0.411715
C296	C	-0.055629	-0.526569	0.391802
H297	H	-0.122722	-0.490935	0.444199
H298	H	-0.134015	-0.521455	0.421430
H299	H	-0.124301	-0.463716	0.383022
H300	H	-0.045179	-0.561262	0.420493
H301	H	-0.035461	-0.503526	0.382094
O302	O	0.023961	-0.763724	0.353682
C303	C	0.003738	-0.788299	0.339121
H304	H	-0.032753	-0.754529	0.322750
H305	H	0.039321	-0.807043	0.304768
C306	C	0.027696	-0.876916	0.411842
C307	C	-0.017127	-0.835441	0.391739
H308	H	0.014828	-0.905998	0.444298
H309	H	0.041323	-0.860361	0.421651
H310	H	0.057345	-0.892530	0.383210
H311	H	-0.046770	-0.819823	0.420369
H312	H	-0.030758	-0.851995	0.381937
O313	O	0.070786	-0.756482	0.405784
C314	C	0.111057	-0.770996	0.356962
H315	H	0.113833	-0.814006	0.362301
H316	H	0.097738	-0.737646	0.318534
C317	C	0.165880	-0.720973	0.341772
C318	C	0.169293	-0.773802	0.348331
H319	H	0.201802	-0.722702	0.336447
H320	H	0.138748	-0.711193	0.374664
H321	H	0.154779	-0.693187	0.309750
H322	H	0.180387	-0.801585	0.380358
H323	H	0.196428	-0.783587	0.315445
O324	O	-0.079517	-0.872922	0.516537
C325	C	-0.107233	-0.858439	0.480237
H326	H	-0.105779	-0.815459	0.446465
H327	H	-0.085149	-0.891834	0.459081
C328	C	-0.171092	-0.908353	0.556266
C329	C	-0.169310	-0.855562	0.514789
H330	H	-0.209383	-0.906581	0.577579
H331	H	-0.152418	-0.918112	0.580722
H332	H	-0.152685	-0.936177	0.538629
H333	H	-0.187710	-0.827741	0.532426
H334	H	-0.187989	-0.845798	0.490337
H335	H	-0.030233	-0.543188	0.435308
O336	O	-0.111985	-0.715918	0.537048
C337	C	-0.126514	-0.765582	0.571273
H338	H	-0.169512	-0.757583	0.571767
H339	H	-0.093162	-0.801250	0.553493
C340	C	-0.076542	-0.792276	0.631405
C341	C	-0.129356	-0.782451	0.632014
H342	H	-0.078292	-0.802684	0.668872
H343	H	-0.066751	-0.758818	0.608345
H344	H	-0.048754	-0.821999	0.616585
H345	H	-0.157141	-0.752724	0.646827
H346	H	-0.139151	-0.815905	0.655078
O347	O	-0.228754	-0.676694	0.575717
C348	C	-0.263037	-0.626886	0.590001
H349	H	-0.245130	-0.591324	0.556626
H350	H	-0.307920	-0.614368	0.591878
C351	C	-0.286042	-0.681107	0.689143
C352	C	-0.264044	-0.637430	0.648154
H353	H	-0.286665	-0.687611	0.725015
H354	H	-0.262946	-0.714664	0.679520
H355	H	-0.323442	-0.670669	0.690700
H356	H	-0.226642	-0.647872	0.646592
H357	H	-0.287134	-0.603876	0.657778
H358	H	0.057315	-0.718782	0.523258
O359	O	-0.228302	-0.581450	0.384768
C360	C	-0.189373	-0.573128	0.329156
H361	H	-0.147158	-0.579797	0.329348
H362	H	-0.183057	-0.604668	0.312172
C363	C	-0.264257	-0.504232	0.290859
C364	C	-0.212409	-0.512418	0.291093
H365	H	-0.278467	-0.466785	0.267378
H366	H	-0.290485	-0.509840	0.328325
H367	H	-0.258987	-0.530520	0.276707
H368	H	-0.217682	-0.486136	0.305252
H369	H	-0.186183	-0.506804	0.253628
H370	H	-0.065985	-0.578958	0.399332
H371	H	0.100481	-0.868567	0.446139
H372	H	-0.109200	-0.760870	0.476275
