data_functionalizedCrystal
_audit_creation_method	'MofGen! by Chris Wilmer'
_symmetry_space_group_name_H-M	'P1'
_symmetry_Int_Tables_number	1
_symmetry_cell_setting	triclinic
loop_
_symmetry_equiv_pos_as_xyz
  x,y,z
_cell_length_a	17.699083
_cell_length_b	16.992695
_cell_length_c	16.176319
_cell_angle_alpha	89.993125
_cell_angle_beta	89.998611
_cell_angle_gamma	86.975619
loop_
_atom_site_label
_atom_site_type_symbol
_atom_site_fract_x
_atom_site_fract_y
_atom_site_fract_z
O1	O	1.010252	0.099146	-0.068631
O2	O	1.510252	0.599146	0.431369
O3	O	0.790676	0.112045	-0.068658
O4	O	1.290676	0.612045	0.431342
O5	O	0.899584	-0.008546	-0.068638
O6	O	1.399584	0.491454	0.431362
O7	O	0.901344	0.219736	-0.068651
O8	O	1.401344	0.719736	0.431349
O9	O	0.899567	-0.008553	0.068855
O10	O	1.399567	0.491447	0.568855
O11	O	0.790660	0.112037	0.068835
O12	O	1.290660	0.612037	0.568835
O13	O	1.010235	0.099138	0.068862
O14	O	1.510235	0.599138	0.568862
Cu15	Cu	0.900446	0.105587	0.081403
Cu16	Cu	1.400446	0.605587	0.581403
Cu17	Cu	0.900465	0.105596	-0.081199
Cu18	Cu	1.400465	0.605596	0.418801
O19	O	0.901328	0.219729	0.068842
O20	O	1.401328	0.719729	0.568842
C21	C	0.762442	0.111579	0.000085
C22	C	1.262442	0.611579	0.500085
C23	C	0.678338	0.110192	0.000075
C24	C	1.178338	0.610192	0.500075
C25	C	0.897311	-0.037758	0.000108
C26	C	1.397311	0.462242	0.500108
C27	C	0.890554	-0.124789	0.000107
C28	C	1.390554	0.375211	0.500107
C29	C	0.634124	0.180976	0.000071
C30	C	1.134124	0.680976	0.500071
C31	C	0.555099	0.179669	0.000082
C32	C	1.055099	0.679669	0.500082
C33	C	0.520290	0.107576	0.000091
C34	C	1.020290	0.607576	0.500091
C35	C	0.564510	0.036787	0.000097
C36	C	1.064510	0.536787	0.500097
C37	C	0.643533	0.038095	0.000092
C38	C	1.143533	0.538095	0.500092
C39	C	0.245818	0.031509	0.000118
C40	C	0.745818	0.531509	0.500118
C41	C	0.166789	0.030206	0.000120
C42	C	0.666789	0.530206	0.500120
C43	C	0.157384	0.173082	0.000108
C44	C	0.657384	0.673082	0.500108
C45	C	0.236408	0.174391	0.000103
C46	C	0.736408	0.674391	0.500103
C47	C	0.280621	0.103602	0.000113
C48	C	0.780621	0.603602	0.500113
C49	C	0.366308	0.105020	0.000103
C50	C	0.866308	0.605020	0.500103
C51	C	0.434604	0.106157	0.000095
C52	C	0.934604	0.606157	0.500095
C53	C	0.955751	-0.175154	0.000116
C54	C	1.455751	0.324846	0.500116
C55	C	0.949398	-0.256928	0.000107
C56	C	1.449398	0.243072	0.500107
C57	C	0.877846	-0.288336	0.000096
C58	C	1.377846	0.211664	0.500096
C59	C	0.812643	-0.237965	0.000084
C60	C	1.312643	0.262035	0.500084
C61	C	0.818998	-0.156192	0.000087
C62	C	1.318998	0.343808	0.500087
C63	C	0.851510	-0.531884	0.000081
C64	C	1.351510	-0.031884	0.500081
C65	C	0.845160	-0.613663	0.000081
C66	C	1.345160	-0.113663	0.500081
C67	C	0.981915	-0.632621	0.000102
C68	C	1.481915	-0.132621	0.500102
C69	C	0.988263	-0.550845	0.000110
C70	C	1.488263	-0.050845	0.500110
C71	C	0.923061	-0.500481	0.000094
C72	C	1.423061	-0.000481	0.500094
N73	N	0.871350	-0.371923	0.000090
N74	N	1.371350	0.128077	0.500090
N75	N	0.929558	-0.416897	0.000095
N76	N	1.429558	0.083103	0.500095
C77	C	1.038469	0.099604	0.000117
C78	C	1.538469	0.599604	0.500117
C79	C	1.122574	0.100991	0.000122
C80	C	1.622574	0.600991	0.500122
C81	C	0.903601	0.248941	0.000094
C82	C	1.403601	0.748941	0.500094
C83	C	0.910358	0.335972	0.000090
C84	C	1.410358	0.835972	0.500090
N85	N	0.900438	0.105580	0.195768
N86	N	1.400438	0.605580	0.695768
N87	N	0.900479	0.105597	-0.195564
N88	N	1.400479	0.605597	0.304436
C89	C	0.948679	0.052204	0.239041
C90	C	1.448679	0.552204	0.739041
C91	C	0.948683	0.052203	0.325588
C92	C	1.448683	0.552203	0.825588
C93	C	0.900449	0.105583	0.368861
C94	C	1.400449	0.605583	0.868861
C95	C	0.852202	0.158961	0.325582
C96	C	1.352202	0.658961	0.825582
C97	C	0.852195	0.158957	0.239036
C98	C	1.352195	0.658957	0.739036
C99	C	0.852229	0.158976	0.674610
C100	C	1.352229	0.658976	1.174610
C101	C	0.852242	0.158977	0.761161
C102	C	1.352242	0.658977	1.261161
C103	C	0.948717	0.052222	0.761162
C104	C	1.448717	0.552222	1.261162
C105	C	0.948709	0.052218	0.674617
C106	C	1.448709	0.552218	1.174617
C107	C	0.900461	0.105593	0.631345
C108	C	1.400461	0.605593	1.131345
C109	C	0.900456	0.105593	0.537501
C110	C	1.400456	0.605593	1.037501
C111	C	0.900457	0.105588	0.462703
C112	C	1.400457	0.605588	0.962703
H113	H	0.662460	0.239682	0.000064
H114	H	1.162460	0.739682	0.500064
H115	H	0.264745	0.233096	0.000092
H116	H	0.764745	0.733096	0.500092
O117	O	0.109699	0.249439	0.000114
O118	O	0.609699	0.749439	0.500114
H119	H	0.048901	0.236422	0.000131
H120	H	0.548901	0.736422	0.500131
O121	O	0.800216	0.216551	0.807842
O122	O	1.300216	0.716551	1.307842
H123	H	0.834388	0.254616	0.847251
H124	H	1.334388	0.754616	1.347251
O125	O	1.000687	-0.005383	0.192367
O126	O	1.500687	0.494617	0.692367
H127	H	1.039466	0.027557	0.152922
H128	H	1.539466	0.527557	0.652922
H129	H	1.046528	-0.525279	0.000120
H130	H	1.546528	-0.025279	0.500120
O131	O	0.507408	0.256014	0.000078
O132	O	1.007408	0.756014	0.500078
H133	H	0.544890	0.306363	0.000062
H134	H	1.044890	0.806363	0.500062
O135	O	0.129240	-0.047554	0.000143
O136	O	0.629240	0.452446	0.500143
H137	H	0.173259	-0.096559	0.000161
H138	H	0.673259	0.403441	0.500161
O139	O	1.000724	-0.005361	0.627941
O140	O	1.500724	0.494639	1.127941
H141	H	1.060326	0.004540	0.644540
H142	H	1.560326	0.504540	1.144540
O143	O	0.691221	-0.038253	0.000101
O144	O	1.191221	0.461747	0.500101
H145	H	0.752018	-0.025233	0.000107
H146	H	1.252018	0.474767	0.500107
O147	O	0.526965	-0.040970	0.000111
O148	O	1.026965	0.459030	0.500111
H149	H	0.570988	-0.089971	0.000123
H150	H	1.070988	0.410029	0.500123
O151	O	0.293501	-0.044838	0.000129
O152	O	0.793501	0.455162	0.500129
H153	H	0.256017	-0.095186	0.000128
H154	H	0.756017	0.404814	0.500128
O155	O	0.800200	0.216548	0.627942
O156	O	1.300200	0.716548	1.127942
H157	H	0.766670	0.253672	0.672575
H158	H	1.266670	0.753672	1.172575
H159	H	0.988001	0.008758	0.796403
H160	H	1.488001	0.508758	1.296403
O161	O	1.052239	-0.686940	0.000118
O162	O	1.552239	-0.186940	0.500118
H163	H	1.052629	-0.724639	-0.055925
H164	H	1.552629	-0.224639	0.444075
O165	O	1.032927	-0.141280	0.000131
O166	O	1.532927	0.358720	0.500131
H167	H	1.039095	-0.104466	-0.055905
H168	H	1.539095	0.395534	0.444095
O169	O	0.800179	0.216540	0.372248
O170	O	1.300179	0.716540	0.872248
H171	H	0.808295	0.207583	0.439699
H172	H	1.308295	0.707583	0.939699
O173	O	0.800168	0.216530	0.192356
O174	O	1.300168	0.716530	0.692356
H175	H	0.766635	0.253655	0.236984
H176	H	1.266635	0.753655	0.736984
H177	H	0.798417	-0.490887	0.000069
H178	H	1.298417	0.009113	0.500069
O179	O	1.019722	-0.311247	0.000130
O180	O	1.519722	0.188753	0.500130
H181	H	1.053745	-0.300084	-0.055896
H182	H	1.553745	0.199916	0.444104
O183	O	0.767983	-0.647544	0.000059
O184	O	1.267983	-0.147544	0.500059
H185	H	0.723710	-0.598786	0.000039
H186	H	1.223710	-0.098786	0.500039
O187	O	0.735466	-0.271835	0.000081
O188	O	1.235466	0.228165	0.500081
H189	H	0.741999	-0.337158	0.000092
H190	H	1.241999	0.162842	0.500092
H191	H	0.765906	-0.115186	0.000080
H192	H	1.265906	0.384814	0.500080
O193	O	1.000728	-0.005351	0.372265
O194	O	1.500728	0.494649	0.872265
H195	H	1.034278	-0.042458	0.327635
H196	H	1.534278	0.457542	0.827635
