data_functionalizedCrystal
_audit_creation_method	'MofGen! by Chris Wilmer'
_symmetry_space_group_name_H-M	'P1'
_symmetry_Int_Tables_number	1
_symmetry_cell_setting	triclinic
loop_
_symmetry_equiv_pos_as_xyz
  x,y,z
_cell_length_a	16.109301
_cell_length_b	11.804783
_cell_length_c	16.109301
_cell_angle_alpha	76.705655
_cell_angle_beta	83.461532
_cell_angle_gamma	76.713469
loop_
_atom_site_label
_atom_site_type_symbol
_atom_site_fract_x
_atom_site_fract_y
_atom_site_fract_z
O1	O	1.088169	0.098958	0.091889
O2	O	0.846105	0.098975	0.105186
O3	O	0.973788	0.098954	-0.022492
O4	O	0.960485	0.098979	0.219567
O5	O	1.003721	-0.099086	0.007481
O6	O	0.876037	-0.099064	0.135158
O7	O	1.118102	-0.099082	0.121862
Cu8	Cu	0.999803	-0.117156	0.131247
Cu9	Cu	0.964404	0.117049	0.095801
O10	O	0.990418	-0.099060	0.249539
C11	C	0.830096	-0.000042	0.119633
C12	C	0.737800	-0.000036	0.118017
N13	N	1.024707	-0.281883	0.156177
C14	C	0.428803	-0.000050	0.188502
C15	C	0.515523	-0.000043	0.190026
C16	C	0.535396	-0.000042	0.038537
C17	C	0.448677	-0.000041	0.037013
C18	C	0.395383	-0.000051	0.111998
C19	C	0.568822	-0.000045	0.115047
C20	C	0.662846	-0.000037	0.116700
C21	C	0.301352	-0.000056	0.110346
C22	C	0.879674	-0.655910	0.010990
C23	C	0.860818	-0.531258	-0.007874
C24	C	0.901788	-0.468908	0.033137
C25	C	0.961618	-0.531222	0.093016
C26	C	0.980481	-0.655886	0.111878
C27	C	1.002595	-0.468884	0.134025
C28	C	1.062425	-0.531198	0.193904
C29	C	1.081284	-0.655849	0.212763
C30	C	1.040313	-0.718199	0.171751
C31	C	0.983733	-0.344220	0.115163
C32	C	1.084540	-0.344197	0.216050
C33	C	1.103395	-0.468848	0.234915
C34	C	1.134110	-0.000061	0.107414
C35	C	1.226405	-0.000059	0.109029
C36	C	0.988216	-0.000066	-0.038480
C37	C	0.986601	-0.000068	-0.130775
N38	N	0.939507	0.281777	0.070864
C39	C	1.058607	-0.000054	-0.353050
C40	C	1.057081	-0.000044	-0.439772
C41	C	0.905592	-0.000038	-0.419898
C42	C	0.907117	-0.000039	-0.333179
C43	C	0.983628	-0.000054	-0.299757
C44	C	0.980577	-0.000042	-0.473197
C45	C	0.978923	-0.000032	-0.567225
C46	C	0.985283	-0.000062	-0.205723
C47	C	0.975990	-0.000037	0.265527
C48	C	0.977604	-0.000028	0.357821
H49	H	0.385414	-0.000057	0.249560
H50	H	0.846328	-0.706686	-0.022400
Cl51	Cl	0.785585	-0.452930	-0.083125
Cl52	Cl	0.908521	-0.265899	0.039889
Cl53	Cl	1.151345	-0.000043	-0.506766
Cl54	Cl	0.809412	-0.000021	-0.461922
H55	H	1.055659	-0.819701	0.187112
H56	H	0.542728	-0.000041	0.252323
H57	H	0.886432	-0.367411	0.017774
Cl58	Cl	0.812848	-0.000028	-0.266179
H59	H	1.130008	-0.706582	0.261513
H60	H	1.152110	-0.519602	0.283670
H61	H	0.578798	-0.000037	-0.022513
Cl62	Cl	0.406658	-0.000027	-0.059174
Cl63	Cl	1.136053	-0.265823	0.267608
H64	H	1.120907	-0.000063	-0.325840
