data_functionalizedCrystal
_audit_creation_method	'MofGen! by Chris Wilmer'
_symmetry_space_group_name_H-M	'P1'
_symmetry_Int_Tables_number	1
_symmetry_cell_setting	triclinic
loop_
_symmetry_equiv_pos_as_xyz
  x,y,z
_cell_length_a	16.625547
_cell_length_b	18.050589
_cell_length_c	16.625539
_cell_angle_alpha	90.024824
_cell_angle_beta	90.024822
_cell_angle_gamma	90.028158
loop_
_atom_site_label
_atom_site_type_symbol
_atom_site_fract_x
_atom_site_fract_y
_atom_site_fract_z
Zn1	Zn	1.232648	-0.295659	0.456020
Zn2	Zn	1.732648	0.204341	0.956020
Zn3	Zn	1.232538	-0.419857	0.321196
Zn4	Zn	1.732538	0.080143	0.821196
Zn5	Zn	1.097810	-0.295685	0.321191
Zn6	Zn	1.597810	0.204315	0.821191
Zn7	Zn	1.097767	-0.419812	0.455976
Zn8	Zn	1.597767	0.080188	0.955976
O9	O	1.165191	-0.357753	0.388596
O10	O	1.665191	0.142247	0.888596
O11	O	1.345466	-0.312142	0.438156
O12	O	1.845466	0.187858	0.938156
O13	O	1.214638	-0.403415	0.208363
O14	O	1.714638	0.096585	0.708363
O15	O	1.115761	-0.191757	0.339093
O16	O	1.615761	0.308243	0.839093
O17	O	1.345385	-0.403390	0.339101
O18	O	1.845385	0.096610	0.839101
O19	O	1.214826	-0.191738	0.438152
O20	O	1.714826	0.308262	0.938152
O21	O	1.115654	-0.312187	0.208359
O22	O	1.615654	0.187813	0.708359
O23	O	0.984972	-0.312143	0.339050
O24	O	1.484972	0.187857	0.839050
O25	O	1.115687	-0.403313	0.568814
O26	O	1.615687	0.096687	1.068814
O27	O	0.984940	-0.403338	0.438075
O28	O	1.484940	0.096662	0.938075
O29	O	1.214784	-0.312099	0.568847
O30	O	1.714784	0.187901	1.068847
O31	O	1.214596	-0.523776	0.339058
O32	O	1.714596	-0.023776	0.839058
O33	O	1.115580	-0.523742	0.438080
O34	O	1.615580	-0.023742	0.938080
C35	C	0.955700	-0.357739	0.388558
C36	C	1.455700	0.142261	0.888558
C37	C	0.866079	-0.357751	0.388560
C38	C	1.366079	0.142249	0.888560
C39	C	0.793296	-0.357752	0.388570
C40	C	1.293296	0.142248	0.888570
C41	C	0.701988	-0.357756	0.388591
C42	C	1.201988	0.142244	0.888591
C43	C	0.629212	-0.357763	0.388611
C44	C	1.129212	0.142237	0.888611
C45	C	0.537897	-0.357768	0.388630
C46	C	1.037897	0.142232	0.888630
C47	C	1.165093	-0.550706	0.388582
C48	C	1.665093	-0.050706	0.888582
C49	C	1.165126	-0.633251	0.388603
C50	C	1.665126	-0.133251	0.888603
C51	C	1.111334	-0.832711	0.442433
C52	C	1.611334	-0.332711	0.942433
C53	C	1.091677	-0.882153	0.368856
C54	C	1.591677	-0.382153	0.868856
C55	C	1.165205	-0.784382	0.388614
C56	C	1.665205	-0.284382	0.888614
C57	C	1.184901	-0.882021	0.462200
C58	C	1.684901	-0.382021	0.962200
C59	C	1.165280	-0.930367	0.388631
C60	C	1.665280	-0.430367	0.888631
C61	C	1.145510	-0.832736	0.314998
C62	C	1.645510	-0.332736	0.814998
C63	C	1.238767	-0.832601	0.408392
C64	C	1.738767	-0.332601	0.908392
C65	C	1.219139	-0.882020	0.334763
C66	C	1.719139	-0.382020	0.834763
C67	C	1.165160	-0.700283	0.388605
C68	C	1.665160	-0.200283	0.888605
C69	C	1.165325	-1.014463	0.388631
C70	C	1.665325	-0.514463	0.888631
C71	C	1.375500	-0.357768	0.388634
C72	C	1.875500	0.142232	0.888634
C73	C	1.465121	-0.357775	0.388651
C74	C	1.965121	0.142225	0.888651
C75	C	1.165243	-0.357698	0.598905
C76	C	1.665243	0.142302	1.098905
C77	C	1.165266	-0.357674	0.688526
C78	C	1.665266	0.142326	1.188526
C79	C	1.165311	-0.164048	0.388627
C80	C	1.665311	0.335952	0.888627
C81	C	1.165362	-0.081502	0.388640
C82	C	1.665362	0.418498	0.888640
C83	C	1.165185	-0.357755	0.179105
C84	C	1.665185	0.142245	0.679105
C85	C	1.165319	-0.357569	0.089484
C86	C	1.665319	0.142431	0.589484
C87	C	1.165303	-0.357591	1.016702
C88	C	1.665303	0.142409	1.516702
C89	C	1.165290	-0.357617	0.925393
C90	C	1.665290	0.142383	1.425393
C91	C	1.165285	-0.357633	0.852617
C92	C	1.665285	0.142367	1.352617
C93	C	1.165271	-0.357658	0.761302
C94	C	1.665271	0.142342	1.261302
H95	H	1.065710	-0.811059	0.487881
H96	H	1.565710	-0.311059	0.987881
H97	H	1.029503	-0.903934	0.352143
H98	H	1.529503	-0.403934	0.852143
H99	H	1.300928	-0.810821	0.425140
H100	H	1.800928	-0.310821	0.925140
H101	H	1.128809	-0.811176	0.252757
H102	H	1.628809	-0.311176	0.752757
N103	N	1.279527	-0.910521	0.274419
N104	N	1.779527	-0.410521	0.774419
H105	H	1.251122	-0.942078	0.233031
H106	H	1.751122	-0.442078	0.733031
H107	H	1.321436	-0.941244	0.303056
H108	H	1.821436	-0.441244	0.803056
H109	H	1.201530	-0.903671	0.524424
H110	H	1.701530	-0.403671	1.024424
