data_functionalizedCrystal
_audit_creation_method	'MofGen! by Chris Wilmer'
_symmetry_space_group_name_H-M	'P1'
_symmetry_Int_Tables_number	1
_symmetry_cell_setting	triclinic
loop_
_symmetry_equiv_pos_as_xyz
  x,y,z
_cell_length_a	15.944551
_cell_length_b	14.044220
_cell_length_c	13.101039
_cell_angle_alpha	86.332523
_cell_angle_beta	86.646591
_cell_angle_gamma	91.656192
loop_
_atom_site_label
_atom_site_type_symbol
_atom_site_fract_x
_atom_site_fract_y
_atom_site_fract_z
O1	O	1.127901	-0.117026	-0.085109
O2	O	1.461235	0.216308	0.248224
O3	O	1.794568	0.549641	0.581557
O4	O	0.884482	-0.132096	-0.085135
O5	O	1.217815	0.201237	0.248198
O6	O	1.551148	0.534570	0.581532
O7	O	1.002537	0.013423	-0.085112
O8	O	1.335871	0.346756	0.248221
O9	O	1.669204	0.680090	0.581554
O10	O	1.009846	-0.262545	-0.085132
O11	O	1.343179	0.070788	0.248201
O12	O	1.676512	0.404121	0.581535
O13	O	0.994068	0.002965	0.085316
O14	O	1.327402	0.336298	0.418649
O15	O	1.660735	0.669632	0.751983
O16	O	0.876013	-0.142555	0.085293
O17	O	1.209346	0.190779	0.418627
O18	O	1.542679	0.524112	0.751960
O19	O	1.119432	-0.127484	0.085319
O20	O	1.452766	0.205849	0.418652
O21	O	1.786099	0.539183	0.751986
Zn22	Zn	0.996378	-0.136680	0.112365
Zn23	Zn	1.329711	0.196654	0.445699
Zn24	Zn	1.663045	0.529987	0.779032
Zn25	Zn	1.007536	-0.122901	-0.112181
Zn26	Zn	1.340870	0.210433	0.221152
Zn27	Zn	1.674203	0.543766	0.554485
O28	O	1.001377	-0.273003	0.085296
O29	O	1.334710	0.060330	0.418630
O30	O	1.668043	0.393663	0.751963
C31	C	0.848906	-0.136700	0.000076
C32	C	1.182240	0.196634	0.333409
C33	C	1.515573	0.529967	0.666743
C34	C	0.755520	-0.134823	0.000066
C35	C	1.088854	0.198510	0.333400
C36	C	1.422187	0.531844	0.666733
C37	C	0.995104	0.043509	0.000102
C38	C	1.328437	0.376842	0.333435
C39	C	1.661771	0.710175	0.666768
C40	C	0.985563	0.148735	0.000102
C41	C	1.318896	0.482068	0.333435
C42	C	1.652229	0.815402	0.666769
C43	C	1.008810	-0.303089	0.000080
C44	C	1.342143	0.030244	0.333413
C45	C	1.675477	0.363578	0.666747
C46	C	1.018352	-0.408315	0.000073
C47	C	1.351685	-0.074982	0.333406
C48	C	1.685018	0.258352	0.666740
C49	C	0.533573	-0.040140	0.000093
C50	C	0.866906	0.293193	0.333426
C51	C	1.200239	0.626526	0.666760
C52	C	0.480021	-0.078952	-0.083940
C53	C	0.813354	0.254381	0.249393
C54	C	1.146687	0.587715	0.582726
C55	C	0.584540	-0.131430	0.000079
C56	C	0.917873	0.201903	0.333412
C57	C	1.251207	0.535236	0.666745
C58	C	0.471695	-0.089285	0.084089
C59	C	0.805028	0.244049	0.417422
C60	C	1.138361	0.577382	0.750755
C61	C	0.419380	-0.128147	0.000095
C62	C	0.752714	0.205187	0.333428
C63	C	1.086047	0.538520	0.666762
C64	C	0.532221	-0.170263	-0.084024
C65	C	0.865555	0.163071	0.249309
C66	C	1.198888	0.496404	0.582643
C67	C	0.523897	-0.180587	0.084080
C68	C	0.857230	0.152746	0.417414
C69	C	1.190564	0.486080	0.750747
C70	C	0.470369	-0.219464	0.000027
C71	C	0.803702	0.113869	0.333360
C72	C	1.137035	0.447203	0.666693
C73	C	0.679684	-0.133319	0.000068
C74	C	1.013018	0.200014	0.333402
C75	C	1.346351	0.533347	0.666735
C76	C	0.324238	-0.126264	0.000098
C77	C	0.657572	0.207069	0.333431
C78	C	0.990905	0.540403	0.666765
C79	C	1.155008	-0.122881	0.000106
C80	C	1.488341	0.210453	0.333439
C81	C	1.821674	0.543786	0.666772
C82	C	1.248394	-0.124757	0.000109
C83	C	1.581727	0.208577	0.333442
C84	C	1.915061	0.541910	0.666775
N85	N	0.988769	-0.146083	0.265612
N86	N	1.322102	0.187250	0.598946
N87	N	1.655435	0.520584	0.932279
C88	C	0.968120	0.341399	0.000085
C89	C	1.301453	0.674732	0.333419
C90	C	1.634787	1.008065	0.666752
C91	C	1.035791	0.399027	0.000090
C92	C	1.369124	0.732361	0.333423
C93	C	1.702457	1.065694	0.666756
C94	C	1.026085	0.506232	0.000080
C95	C	1.359419	0.839565	0.333414
C96	C	1.692752	1.172898	0.666747
C97	C	0.977824	0.234184	0.000095
C98	C	1.311158	0.567517	0.333428
C99	C	1.644491	0.900851	0.666761
N100	N	1.015152	-0.113490	-0.265428
N101	N	1.348485	0.219843	0.067905
N102	N	1.681818	0.553177	0.401238
C103	C	0.978417	-0.158885	0.474653
C104	C	1.311750	0.174448	0.807986
C105	C	1.645083	0.507782	1.141320
C106	C	1.025501	-0.100691	0.525538
C107	C	1.358834	0.232642	0.858871
C108	C	1.692168	0.565976	1.192204
C109	C	1.019741	-0.107814	0.641855
C110	C	1.353074	0.225519	0.975188
C111	C	1.686408	0.558853	1.308522
C112	C	0.984176	-0.151763	0.358325
C113	C	1.317509	0.181570	0.691658
C114	C	1.650842	0.514904	1.024992
H115	H	0.561238	0.035630	-0.000006
H116	H	0.894571	0.368963	0.333328
H117	H	1.227904	0.702296	0.666661
Cl118	Cl	0.867426	0.389529	0.000070
Cl119	Cl	1.200759	0.722862	0.333403
Cl120	Cl	1.534092	1.056196	0.666736
H121	H	1.070137	-0.045520	0.481744
H122	H	1.403471	0.287813	0.815077
H123	H	1.736804	0.621146	1.148411
Cl124	Cl	0.909508	-0.244065	0.542261
Cl125	Cl	1.242842	0.089269	0.875594
Cl126	Cl	1.576175	0.422602	1.208928
H127	H	0.460550	-0.035980	-0.154979
H128	H	0.793883	0.297353	0.178354
H129	H	1.127216	0.630686	0.511687
H130	H	0.558632	-0.204482	-0.155145
H131	H	0.891966	0.128851	0.178188
H132	H	1.225299	0.462185	0.511522
Cl133	Cl	0.427940	-0.336551	-0.000050
Cl134	Cl	0.761274	-0.003217	0.333283
Cl135	Cl	1.094607	0.330116	0.666616
Cl136	Cl	1.136492	0.350898	0.000111
Cl137	Cl	1.469825	0.684232	0.333445
Cl138	Cl	1.803158	1.017565	0.666778
H139	H	0.543387	-0.223527	0.155123
H140	H	0.876720	0.109806	0.488456
H141	H	1.210053	0.443140	0.821789
H142	H	0.445186	-0.055015	0.155130
H143	H	0.778519	0.278319	0.488463
H144	H	1.111853	0.611652	0.821796
