data_functionalizedCrystal
_audit_creation_method	'MofGen! by Chris Wilmer'
_symmetry_space_group_name_H-M	'P1'
_symmetry_Int_Tables_number	1
_symmetry_cell_setting	triclinic
loop_
_symmetry_equiv_pos_as_xyz
  x,y,z
_cell_length_a	8.559649
_cell_length_b	22.610064
_cell_length_c	23.532407
_cell_angle_alpha	89.995564
_cell_angle_beta	103.686294
_cell_angle_gamma	90.006862
loop_
_atom_site_label
_atom_site_type_symbol
_atom_site_fract_x
_atom_site_fract_y
_atom_site_fract_z
O1	O	2.120446	0.049172	0.019342
O2	O	1.654775	0.049179	-0.010090
O3	O	1.901653	0.049159	0.088143
O4	O	1.873568	0.049192	-0.078892
O5	O	1.901609	-0.049210	0.088129
O6	O	1.654731	-0.049190	-0.010105
O7	O	2.120402	-0.049198	0.019327
Zn8	Zn	1.887560	-0.064812	0.004609
Zn9	Zn	1.887617	0.064794	0.004628
O10	O	1.873525	-0.049177	-0.078906
C11	C	1.595188	-0.000004	-0.012328
C12	C	1.417703	-0.000002	-0.018967
N13	N	1.887532	-0.153264	0.004596
C14	C	1.996940	-0.561915	0.048120
C15	C	1.996948	-0.623835	0.048125
O16	O	2.089902	-0.655861	0.085119
N17	N	1.887616	-0.654801	0.004640
C18	C	1.778259	-0.623845	-0.038849
O19	O	1.685263	-0.655870	-0.075835
C20	C	1.778244	-0.561926	-0.038850
C21	C	1.887594	-0.530963	0.004634
C22	C	2.106279	-0.530951	0.091601
C23	C	2.106272	-0.469036	0.091596
C24	C	1.996926	-0.438084	0.048110
C25	C	1.887587	-0.469047	0.004629
C26	C	1.668880	-0.530971	-0.082336
C27	C	1.668874	-0.469048	-0.082334
C28	C	1.778224	-0.438084	-0.038850
C29	C	1.778234	-0.376179	-0.038863
N30	N	1.887566	-0.345213	0.004622
C31	C	1.996912	-0.376165	0.048108
C32	C	1.778296	-0.753879	-0.038842
C33	C	1.778316	-0.815796	-0.038843
C34	C	1.997004	-0.815782	0.048131
C35	C	1.996990	-0.753863	0.048130
C36	C	1.887627	-0.722912	0.004643
C37	C	1.996891	-0.246138	0.048093
C38	C	1.996879	-0.184216	0.048083
C39	C	1.778186	-0.184236	-0.038889
C40	C	1.778203	-0.246152	-0.038881
C41	C	1.887561	-0.277101	0.004615
O42	O	1.685324	-0.344113	-0.075837
O43	O	2.089878	-0.344132	0.085093
C44	C	2.179990	-0.000012	0.021565
C45	C	2.357475	-0.000011	0.028204
C46	C	1.900916	-0.000029	0.109322
C47	C	1.898765	-0.000038	0.172450
N48	N	1.887658	0.153246	0.004645
C49	C	1.874262	0.000012	-0.100085
C50	C	1.876412	0.000025	-0.163213
C51	C	1.743801	0.000002	0.432152
C52	C	1.745799	-0.000003	0.372835
O53	O	1.622867	0.000018	0.330961
N54	N	1.892567	-0.000012	0.356332
C55	C	2.037348	-0.000011	0.399150
O56	O	2.162370	-0.000019	0.379666
C57	C	2.035349	-0.000002	0.458466
C58	C	1.888571	0.000001	0.474964
C59	C	1.597035	0.000006	0.448652
C60	C	1.595038	0.000009	0.507964
C61	C	1.739808	0.000009	0.550777
C62	C	1.886574	0.000005	0.534277
C63	C	2.180128	0.000004	0.501282
C64	C	2.178116	0.000013	0.560601
C65	C	2.031338	0.000016	0.577100
C66	C	2.029347	0.000008	0.636403
N67	N	1.882578	0.000017	0.652906
C68	C	1.737809	0.000018	0.610093
C69	C	2.041535	-0.000028	0.274582
C70	C	2.043536	-0.000041	0.215268
C71	C	1.751986	-0.000032	0.188956
C72	C	1.749987	-0.000023	0.248272
C73	C	1.894766	-0.000019	0.291085
C74	C	1.733626	0.000024	0.734655
C75	C	1.731642	0.000025	0.793974
C76	C	2.023192	0.000019	0.820280
C77	C	2.025177	0.000015	0.760967
C78	C	1.880381	0.000020	0.718154
O79	O	2.152214	-0.000011	0.678308
O80	O	1.612808	0.000033	0.629586
H81	H	1.333475	0.000010	-0.064434
H82	H	2.144695	0.000004	0.747533
H83	H	1.441693	-0.000017	0.073668
H84	H	1.630467	-0.000023	0.261700
H85	H	2.163057	-0.000053	0.201841
H86	H	1.689162	-0.159025	-0.074297
O87	O	2.318718	0.000120	0.602211
C88	C	2.326293	0.051061	0.637313
H89	H	2.244182	0.086669	0.611969
H90	H	2.455204	0.068161	0.649617
H91	H	2.285620	0.039546	0.678735
H92	H	1.615720	0.000028	0.699803
O93	O	2.103164	-0.154231	0.090384
C94	C	2.199695	-0.194833	0.128759
H95	H	2.134152	-0.238973	0.126550
H96	H	2.224816	-0.176944	0.175333
H97	H	2.318174	-0.201413	0.115424
O98	O	2.103190	-0.276260	0.090269
C99	C	2.201383	-0.312057	0.064049
H100	H	2.136987	-0.321347	0.016684
H101	H	2.227088	-0.355593	0.088948
H102	H	2.319472	-0.288181	0.065312
O103	O	2.182332	-0.000059	0.316094
C104	C	2.312287	-0.000055	0.288802
H105	H	2.270947	-0.018681	0.242666
H106	H	2.413651	-0.028617	0.315141
H107	H	2.357348	0.047135	0.286531
O108	O	2.212544	-0.439054	0.133899
C109	C	2.309066	-0.479661	0.172269
H110	H	2.243519	-0.523802	0.170052
H111	H	2.334178	-0.461779	0.218846
H112	H	2.427549	-0.486239	0.158937
O113	O	2.212292	-0.561039	0.133893
C114	C	2.127270	-0.596877	0.165327
H115	H	2.001180	-0.578236	0.160802
H116	H	2.193243	-0.597568	0.213464
H117	H	2.118638	-0.643806	0.147135
H118	H	2.141059	0.000016	0.855149
O119	O	2.103264	-0.723879	0.090430
C120	C	2.199801	-0.764484	0.128799
H121	H	2.134263	-0.808626	0.126586
H122	H	2.224923	-0.746601	0.175376
H123	H	2.318279	-0.771059	0.115463
O124	O	2.102999	-0.845881	0.090426
C125	C	2.017923	-0.881714	0.121845
H126	H	1.891848	-0.863058	0.117316
H127	H	2.083874	-0.882420	0.169984
H128	H	2.009255	-0.928640	0.103642
O129	O	1.671951	-0.845779	-0.081115
C130	C	1.575476	-0.805174	-0.119504
H131	H	1.574051	-0.761038	-0.096216
H132	H	1.447647	-0.823066	-0.133757
H133	H	1.626713	-0.798584	-0.159581
H134	H	1.689243	-0.728681	-0.074258
O135	O	1.562498	-0.560947	-0.124605
C136	C	1.466020	-0.520338	-0.162987
H137	H	1.464609	-0.476204	-0.139694
H138	H	1.338188	-0.538228	-0.177237
H139	H	1.517246	-0.513746	-0.203066
H140	H	1.579813	-0.443850	-0.117746
H141	H	1.689176	-0.271363	-0.074295
H142	H	1.612113	0.000025	0.807403
H143	H	1.475516	0.000017	0.521391
O144	O	1.456288	0.000083	0.407121
C145	C	1.367156	0.051038	0.413598
H146	H	1.407187	0.068033	0.460401
H147	H	1.233731	0.039579	0.403605
H148	H	1.388473	0.086706	0.382026
O149	O	1.611498	0.000001	0.147287
C150	C	1.644753	-0.000019	0.091398
H151	H	1.770322	0.018596	0.094609
H152	H	1.552446	0.028545	0.060447
H153	H	1.638381	-0.047212	0.073945
O154	O	2.322667	-0.000099	0.485234
C155	C	2.332548	-0.051038	0.451706
H156	H	2.249217	-0.086650	0.462114
H157	H	2.461499	-0.068134	0.462680
H158	H	2.294920	-0.039523	0.403216
