data_functionalizedCrystal
_audit_creation_method	'MofGen! by Chris Wilmer'
_symmetry_space_group_name_H-M	'P1'
_symmetry_Int_Tables_number	1
_symmetry_cell_setting	triclinic
loop_
_symmetry_equiv_pos_as_xyz
  x,y,z
_cell_length_a	10.654545
_cell_length_b	16.974885
_cell_length_c	9.130313
_cell_angle_alpha	93.649313
_cell_angle_beta	89.996934
_cell_angle_gamma	83.938315
loop_
_atom_site_label
_atom_site_type_symbol
_atom_site_fract_x
_atom_site_fract_y
_atom_site_fract_z
O1	O	1.666115	0.111037	-0.108629
O2	O	1.300471	0.121621	-0.107381
O3	O	1.493486	0.001283	-0.121626
O4	O	1.473099	0.231375	-0.094384
O5	O	1.493473	0.001280	0.121972
O6	O	1.300458	0.121618	0.136217
O7	O	1.666101	0.111034	0.134970
Cu8	Cu	1.483278	0.116325	0.157836
Cu9	Cu	1.483294	0.116330	-0.130247
O10	O	1.473086	0.231372	0.149215
C11	C	1.253678	0.120843	0.014326
C12	C	1.114271	0.118520	0.014048
C13	C	1.048776	0.117425	0.146705
C14	C	0.917791	0.115229	0.146445
C15	C	0.917806	0.115228	-0.119140
C16	C	1.048790	0.117418	-0.118879
C17	C	1.492704	-0.028181	-0.003318
C18	C	1.490379	-0.115969	-0.013722
C19	C	1.489276	-0.157221	0.114170
C20	C	1.487099	-0.239708	0.104382
C21	C	1.486015	-0.280941	-0.033299
C22	C	1.487122	-0.239683	-0.161200
C23	C	1.489308	-0.157198	-0.151411
C24	C	1.479486	-0.527634	-0.076815
C25	C	1.477296	-0.610124	-0.086594
C26	C	1.477276	-0.610143	0.178989
C27	C	1.479454	-0.527656	0.188766
C28	C	1.480567	-0.486406	0.060865
N29	N	1.483786	-0.365256	-0.043307
N30	N	1.482806	-0.402094	0.070874
C31	C	1.712894	0.111812	0.013260
C32	C	1.852301	0.114135	0.013528
C33	C	1.473868	0.260836	0.030904
C34	C	1.476194	0.348624	0.041297
N35	N	1.483277	0.116322	0.360458
N36	N	1.483306	0.116327	-0.332870
C37	C	1.568772	0.063059	0.430805
C38	C	1.568784	0.063059	0.584142
C39	C	1.397801	0.169592	0.596772
C40	C	1.397784	0.169588	0.443438
H41	H	0.864475	0.114331	-0.227364
F42	F	1.118499	0.118578	-0.260079
F43	F	1.485923	-0.283608	0.240503
F44	F	1.306778	0.226277	0.368563
F45	F	1.480667	-0.483743	-0.212940
F46	F	1.490422	-0.113345	0.260710
H47	H	1.476371	-0.643738	0.283118
F48	F	1.480581	-0.483777	0.335305
F49	F	1.485984	-0.283570	-0.307731
F50	F	1.476138	-0.654005	-0.233140
H51	H	1.490207	-0.123612	-0.255554
H52	H	1.638384	0.019686	0.363246
H53	H	1.102087	0.118323	0.254943
F54	F	1.659778	0.006368	0.659005
F55	F	1.306820	0.226281	0.685095
H56	H	0.864471	0.114338	0.254468
