data_functionalizedCrystal
_audit_creation_method	'MofGen! by Chris Wilmer'
_symmetry_space_group_name_H-M	'P1'
_symmetry_Int_Tables_number	1
_symmetry_cell_setting	triclinic
loop_
_symmetry_equiv_pos_as_xyz
  x,y,z
_cell_length_a	15.944545
_cell_length_b	15.944551
_cell_length_c	9.798715
_cell_angle_alpha	89.995900
_cell_angle_beta	89.999098
_cell_angle_gamma	83.497455
loop_
_atom_site_label
_atom_site_type_symbol
_atom_site_fract_x
_atom_site_fract_y
_atom_site_fract_z
O1	O	1.114527	0.108305	-0.113406
O2	O	0.869976	0.121667	-0.113428
O3	O	0.998930	-0.007289	-0.113404
O4	O	0.985573	0.237261	-0.113430
O5	O	0.998920	-0.007289	0.113578
O6	O	0.869967	0.121667	0.113554
O7	O	1.114517	0.108305	0.113577
Zn8	Zn	0.992240	0.114986	0.149604
Zn9	Zn	0.992253	0.114986	-0.149455
O10	O	0.985564	0.237261	0.113552
C11	C	0.838677	0.121113	0.000060
C12	C	0.745431	0.119453	0.000052
C13	C	0.474798	0.034559	0.000075
C14	C	0.525375	0.075488	0.111989
C15	C	0.409787	0.113532	0.000076
C16	C	0.525365	0.075509	-0.111798
C17	C	0.574701	0.116437	0.000062
C18	C	0.459136	0.154440	0.112082
C19	C	0.459123	0.154450	-0.111806
C20	C	0.509667	0.195436	0.000135
C21	C	0.314785	0.111856	0.000085
C22	C	0.669700	0.118119	0.000062
C23	C	0.998370	-0.038583	0.000087
C24	C	0.996708	-0.131829	0.000088
C25	C	0.912803	-0.346684	0.000061
C26	C	0.951761	-0.407702	0.111981
C27	C	0.993701	-0.302555	0.000077
C28	C	0.951790	-0.407685	-0.111806
C29	C	0.990790	-0.467468	0.000061
C30	C	1.032681	-0.362345	0.112089
C31	C	1.032698	-0.362322	-0.111798
C32	C	1.071715	-0.423322	0.000149
C33	C	0.995375	-0.207553	0.000088
C34	C	0.989122	-0.562469	0.000060
C35	C	1.145816	0.108859	0.000085
C36	C	1.239062	0.110519	0.000084
C37	C	0.986123	0.268555	0.000058
C38	C	0.987785	0.361801	0.000049
N39	N	0.992238	0.114985	0.353703
N40	N	0.992262	0.114980	-0.353555
C41	C	1.046384	0.060603	0.421490
C42	C	1.046397	0.060600	0.578653
H43	H	0.430323	0.187767	0.206797
C44	C	0.529690	0.071006	0.356843
C45	C	0.564433	0.030470	0.239722
H46	H	0.553798	0.043206	0.435696
H47	H	0.541362	0.128114	0.356949
H48	H	0.470348	0.069174	0.357323
H49	H	0.623774	0.032307	0.239237
H50	H	0.552767	-0.026654	0.239617
C51	C	0.960755	-0.490388	0.317357
C52	C	0.905570	-0.434856	0.239703
H53	H	0.932234	-0.507145	0.396205
H54	H	0.979492	-0.538752	0.264291
H55	H	1.007958	-0.462922	0.344256
H56	H	0.858369	-0.462325	0.212794
H57	H	0.886820	-0.386484	0.292779
H58	H	1.066889	-0.342192	-0.206416
H59	H	0.945906	0.161544	0.588160
C60	C	1.095301	-0.084849	0.622906
C61	C	1.108979	-0.002258	0.657336
H62	H	1.133942	-0.123656	0.671479
H63	H	1.039196	-0.093824	0.646277
H64	H	1.103505	-0.093083	0.527611
H65	H	1.100770	0.005978	0.752631
H66	H	1.165098	0.006720	0.633975
C67	C	0.809358	-0.251707	-0.117072
C68	C	0.822157	-0.301717	0.000187
H69	H	0.753396	-0.223952	-0.116992
H70	H	0.848332	-0.210857	-0.117930
H71	H	0.817653	-0.286402	-0.195819
H72	H	0.813868	-0.267021	0.078935
H73	H	0.783171	-0.342572	0.001058
H74	H	0.945888	0.161538	0.412019
C75	C	0.618314	0.288122	-0.000905
C76	C	0.530592	0.287317	0.000207
H77	H	0.631231	0.344845	-0.000863
H78	H	0.641996	0.259882	0.077840
H79	H	0.641203	0.260196	-0.080462
H80	H	0.507703	0.315238	0.079769
H81	H	0.506900	0.315570	-0.078547
H82	H	0.459145	-0.033453	0.000191
C83	C	1.148891	-0.295565	0.200530
C84	C	1.078825	-0.335366	0.239967
H85	H	1.177371	-0.278904	0.279478
H86	H	1.186173	-0.333603	0.148236
H87	H	1.130643	-0.247187	0.147148
H88	H	1.097074	-0.383748	0.293341
H89	H	1.041536	-0.297325	0.292284
C90	C	0.453637	0.157941	-0.356623
C91	C	0.420040	0.199433	-0.239541
H92	H	0.429503	0.185705	-0.435487
H93	H	0.513088	0.158875	-0.357994
H94	H	0.441090	0.101105	-0.355801
H95	H	0.432592	0.256268	-0.240358
H96	H	0.360575	0.198508	-0.238171
C97	C	0.651880	0.033160	-0.238796
C98	C	0.564407	0.030472	-0.239520
H99	H	0.675980	0.005347	-0.317638
H100	H	0.663547	0.090270	-0.238951
H101	H	0.675437	0.005672	-0.159315
H102	H	0.540849	0.057966	-0.318996
H103	H	0.552733	-0.026648	-0.239377
H104	H	1.138922	-0.456483	0.000218
C105	C	0.947164	-0.410775	-0.356663
C106	C	0.905595	-0.434804	-0.239539
H107	H	0.918643	-0.427520	-0.435514
H108	H	0.947433	-0.351236	-0.357133
H109	H	1.003606	-0.437285	-0.356783
H110	H	0.849155	-0.408289	-0.239414
H111	H	0.905316	-0.494354	-0.239070
H112	H	1.092728	0.014044	0.363176
