data_functionalizedCrystal
_audit_creation_method	'MofGen! by Chris Wilmer'
_symmetry_space_group_name_H-M	'P1'
_symmetry_Int_Tables_number	1
_symmetry_cell_setting	triclinic
loop_
_symmetry_equiv_pos_as_xyz
  x,y,z
_cell_length_a	16.109301
_cell_length_b	13.101050
_cell_length_c	16.109301
_cell_angle_alpha	86.639520
_cell_angle_beta	96.538519
_cell_angle_gamma	86.645909
loop_
_atom_site_label
_atom_site_type_symbol
_atom_site_fract_x
_atom_site_fract_y
_atom_site_fract_z
O1	O	1.107704	-0.085153	-0.102280
O2	O	0.865643	-0.085169	-0.115578
O3	O	0.993322	-0.085150	0.012101
O4	O	0.980024	-0.085172	-0.229959
O5	O	0.984161	0.085278	0.002924
O6	O	0.856481	0.085259	-0.124756
O7	O	1.098542	0.085276	-0.111457
Zn8	Zn	0.976057	0.112327	-0.119564
Zn9	Zn	0.988128	-0.112220	-0.107472
O10	O	0.970863	0.085257	-0.239137
C11	C	0.830087	0.000043	-0.119628
C12	C	0.737792	0.000037	-0.118013
C13	C	0.515520	0.000042	-0.190021
C14	C	0.428799	0.000049	-0.188497
C15	C	0.448673	0.000058	-0.037009
C16	C	0.535391	0.000059	-0.038534
C17	C	0.568812	0.000046	-0.115042
C18	C	0.395373	0.000052	-0.111993
C19	C	0.301347	0.000059	-0.110340
C20	C	0.662845	0.000040	-0.116695
N21	N	0.967826	0.265574	-0.127815
C22	C	0.956626	0.474615	-0.139050
C23	C	1.007560	0.525498	-0.087990
C24	C	1.001328	0.641816	-0.094241
C25	C	0.962856	0.358287	-0.132800
C26	C	1.134098	0.000061	-0.107407
C27	C	1.226393	0.000061	-0.109022
C28	C	0.988203	0.000065	0.038488
C29	C	0.986588	0.000066	0.130783
N30	N	0.996363	0.734533	-0.099222
C31	C	0.975982	0.000040	-0.265523
C32	C	0.977598	0.000032	-0.357818
C33	C	1.058596	0.000055	0.353056
C34	C	1.057072	0.000046	0.439777
C35	C	0.905584	0.000040	0.419903
C36	C	0.907109	0.000041	0.333184
C37	C	0.983617	0.000054	0.299763
C38	C	0.980569	0.000044	0.473202
C39	C	0.978916	0.000035	0.567229
C40	C	0.985270	0.000061	0.205730
H41	H	0.542727	0.000039	-0.252319
H42	H	0.843293	0.000031	0.447125
Br43	Br	0.805345	0.000026	0.260852
Br44	Br	1.158835	0.000042	0.512101
H45	H	0.421450	0.000075	0.025281
H46	H	0.908344	0.518405	-0.187455
H47	H	1.120894	0.000063	0.325848
H48	H	0.578785	0.000065	0.022527
Br49	Br	0.356475	0.000049	-0.290259
Br50	Br	1.088392	0.452511	-0.007658
