data_functionalizedCrystal
_audit_creation_method	'MofGen! by Chris Wilmer'
_symmetry_space_group_name_H-M	'P1'
_symmetry_Int_Tables_number	1
_symmetry_cell_setting	triclinic
loop_
_symmetry_equiv_pos_as_xyz
  x,y,z
_cell_length_a	13.033286
_cell_length_b	13.032721
_cell_length_c	13.032268
_cell_angle_alpha	103.289627
_cell_angle_beta	105.163409
_cell_angle_gamma	89.137287
loop_
_atom_site_label
_atom_site_type_symbol
_atom_site_fract_x
_atom_site_fract_y
_atom_site_fract_z
Zn1	Zn	1.451070	-0.662369	-0.490252
Zn2	Zn	1.784403	-0.329036	-0.156919
Zn3	Zn	2.117737	0.004297	0.176414
Zn4	Zn	1.450956	-0.817441	-0.335213
Zn5	Zn	1.784289	-0.484108	-0.001880
Zn6	Zn	2.117623	-0.150774	0.331454
Zn7	Zn	1.301741	-0.623060	-0.329544
Zn8	Zn	1.635074	-0.289727	0.003789
Zn9	Zn	1.968408	0.043606	0.337123
Zn10	Zn	1.250876	-0.817400	-0.535361
Zn11	Zn	1.584210	-0.484067	-0.202028
Zn12	Zn	1.917543	-0.150733	0.131306
O13	O	1.363661	-0.730068	-0.422593
O14	O	1.696994	-0.396734	-0.089259
O15	O	2.030328	-0.063401	0.244074
O16	O	1.597284	-0.699408	-0.453180
O17	O	1.930617	-0.366075	-0.119847
O18	O	2.263950	-0.032741	0.213486
O19	O	1.452402	-0.775222	-0.183441
O20	O	1.785735	-0.441889	0.149892
O21	O	2.119068	-0.108555	0.483225
O22	O	1.342885	-0.482045	-0.329612
O23	O	1.676218	-0.148712	0.003722
O24	O	2.009551	0.184622	0.337055
O25	O	1.597200	-0.813338	-0.339274
O26	O	1.930533	-0.480005	-0.005940
O27	O	2.263866	-0.146672	0.327393
O28	O	1.452596	-0.510925	-0.447683
O29	O	1.785929	-0.177592	-0.114350
O30	O	2.119263	0.155741	0.218983
O31	O	1.342774	-0.632412	-0.179276
O32	O	1.676107	-0.299078	0.154057
O33	O	2.009441	0.034255	0.487390
O34	O	1.148765	-0.632372	-0.373352
O35	O	1.482098	-0.299039	-0.040018
O36	O	1.815432	0.034295	0.293315
O37	O	1.256193	-0.813269	-0.680397
O38	O	1.589527	-0.479935	-0.347063
O39	O	1.922860	-0.146602	-0.013730
O40	O	1.111395	-0.775152	-0.524564
O41	O	1.444728	-0.441819	-0.191231
O42	O	1.778062	-0.108486	0.142102
O43	O	1.403275	-0.699368	-0.647256
O44	O	1.736608	-0.366035	-0.313922
O45	O	2.069941	-0.032702	0.019411
O46	O	1.403080	-0.963665	-0.383014
O47	O	1.736414	-0.630332	-0.049680
O48	O	2.069747	-0.296998	0.283653
O49	O	1.256083	-0.963635	-0.530062
O50	O	1.589416	-0.630302	-0.196728
O51	O	1.922749	-0.296968	0.136605
C52	C	1.092164	-0.699493	-0.453239
C53	C	1.425498	-0.366160	-0.119905
C54	C	1.758831	-0.032826	0.213428
C55	C	0.976010	-0.686441	-0.466378
C56	C	1.309343	-0.353108	-0.133045
C57	C	1.642676	-0.019774	0.200288
C58	C	0.924212	-0.736883	-0.415762
C59	C	1.257545	-0.403549	-0.082428
C60	C	1.590878	-0.070216	0.250905
C61	C	0.804160	-0.723394	-0.429341
C62	C	1.137493	-0.390061	-0.096008
C63	C	1.470827	-0.056727	0.237326
C64	C	1.324075	-1.001572	-0.462068
C65	C	1.657408	-0.668238	-0.128735
C66	C	1.990741	-0.334905	0.204599
C67	C	1.307230	-1.117737	-0.478981
C68	C	1.640563	-0.784403	-0.145648
C69	C	1.973897	-0.451070	0.187686
C70	C	1.372501	-1.169519	-0.413808
C71	C	1.705834	-0.836186	-0.080474
C72	C	2.039168	-0.502852	0.252859
C73	C	1.355093	-1.289582	-0.431287
C74	C	1.688426	-0.956248	-0.097953
C75	C	2.021759	-0.622915	0.235380
C76	C	1.636217	-0.760763	-0.391828
C77	C	1.969551	-0.427429	-0.058494
C78	C	2.302884	-0.094096	0.274839
C79	C	1.752365	-0.773843	-0.378717
C80	C	2.085698	-0.440510	-0.045384
C81	C	2.419031	-0.107176	0.287949
C82	C	1.324073	-0.760699	-0.704079
C83	C	1.657406	-0.427365	-0.370745
C84	C	1.990740	-0.094032	-0.037412
C85	C	1.307203	-0.773752	-0.824031
C86	C	1.640536	-0.440419	-0.490698
C87	C	1.973870	-0.107085	-0.157365
C88	C	1.403427	-0.457509	-0.382983
C89	C	1.736760	-0.124176	-0.049650
C90	C	2.070093	0.209157	0.283683
C91	C	1.420373	-0.341361	-0.366104
C92	C	1.753706	-0.008028	-0.032771
C93	C	2.087039	0.325306	0.300562
C94	C	1.372455	-0.723216	-0.861113
C95	C	1.705788	-0.389882	-0.527779
C96	C	2.039121	-0.056549	-0.194446
C97	C	1.355020	-0.736706	-0.985090
C98	C	1.688354	-0.403372	-0.651756
C99	C	2.021687	-0.070039	-0.318423
C100	C	1.403166	-0.699487	-0.142184
C101	C	1.736499	-0.366154	0.191150
C102	C	2.069833	-0.032820	0.524483
C103	C	1.420281	-0.686162	-0.022166
C104	C	1.753614	-0.352829	0.311168
C105	C	2.086948	-0.019496	0.644501
H106	H	0.931477	-0.633273	-0.519770
H107	H	1.264810	-0.299940	-0.186437
H108	H	1.598144	0.033393	0.146897
H109	H	0.796889	-0.827027	-0.325335
H110	H	1.130222	-0.493694	0.007998
H111	H	1.463555	-0.160361	0.341332
H112	H	1.489053	-0.632899	-0.962133
H113	H	1.822386	-0.299566	-0.628799
H114	H	2.155720	0.033767	-0.295466
H115	H	0.968743	-0.790058	-0.362378
H116	H	1.302076	-0.456724	-0.029045
H117	H	1.635409	-0.123391	0.304289
H118	H	1.238426	-0.826997	-0.884068
H119	H	1.571759	-0.493664	-0.550735
H120	H	1.905092	-0.160330	-0.217402
H121	H	1.441274	-1.124969	-0.345073
H122	H	1.774607	-0.791636	-0.011740
H123	H	2.107940	-0.458302	0.321593
H124	H	1.489150	-1.296814	-0.297365
H125	H	1.822483	-0.963480	0.035968
H126	H	2.155816	-0.630147	0.369301
H127	H	1.286238	-0.789954	-1.045124
H128	H	1.619571	-0.456621	-0.711790
H129	H	1.952905	-0.123288	-0.378457
H130	H	1.238465	-1.162291	-0.547722
H131	H	1.571798	-0.828958	-0.214389
H132	H	1.905132	-0.495624	0.118945
H133	H	0.759631	-0.670223	-0.482737
H134	H	1.092964	-0.336890	-0.149403
H135	H	1.426298	-0.003556	0.183930
H136	H	1.441223	-0.669959	-0.801075
H137	H	1.774556	-0.336626	-0.467742
H138	H	2.107890	-0.003292	-0.134408
H139	H	1.286323	-1.334132	-0.500033
H140	H	1.619656	-1.000799	-0.166699
H141	H	1.952990	-0.667465	0.166634
