data_functionalizedCrystal
_audit_creation_method	'MofGen! by Chris Wilmer'
_symmetry_space_group_name_H-M	'P1'
_symmetry_Int_Tables_number	1
_symmetry_cell_setting	triclinic
loop_
_symmetry_equiv_pos_as_xyz
  x,y,z
_cell_length_a	18.215407
_cell_length_b	16.625546
_cell_length_c	18.215399
_cell_angle_alpha	90.029595
_cell_angle_beta	90.019350
_cell_angle_gamma	90.022916
loop_
_atom_site_label
_atom_site_type_symbol
_atom_site_fract_x
_atom_site_fract_y
_atom_site_fract_z
Zn1	Zn	1.125081	-0.320997	0.416110
Zn2	Zn	1.375081	-0.070997	0.666110
Zn3	Zn	1.625081	0.179003	0.916110
Zn4	Zn	1.875081	0.429003	1.166110
Zn5	Zn	1.124995	-0.455838	0.293041
Zn6	Zn	1.374995	-0.205838	0.543041
Zn7	Zn	1.624995	0.044162	0.793041
Zn8	Zn	1.874995	0.294162	1.043041
Zn9	Zn	1.002014	-0.321024	0.293057
Zn10	Zn	1.252014	-0.071024	0.543057
Zn11	Zn	1.502014	0.178976	0.793057
Zn12	Zn	1.752014	0.428976	1.043057
Zn13	Zn	1.001984	-0.455792	0.416066
Zn14	Zn	1.251984	-0.205792	0.666066
Zn15	Zn	1.501984	0.044208	0.916066
Zn16	Zn	1.751984	0.294208	1.166066
O17	O	1.063519	-0.388413	0.354568
O18	O	1.313519	-0.138413	0.604568
O19	O	1.563519	0.111587	0.854568
O20	O	1.813519	0.361587	1.104568
O21	O	1.228054	-0.338892	0.399796
O22	O	1.478054	-0.088892	0.649796
O23	O	1.728054	0.161108	0.899796
O24	O	1.978054	0.411108	1.149796
O25	O	1.108659	-0.437985	0.190059
O26	O	1.358659	-0.187985	0.440059
O27	O	1.608659	0.062015	0.690059
O28	O	1.858659	0.312015	0.940059
O29	O	1.018388	-0.208188	0.309405
O30	O	1.268388	0.041812	0.559405
O31	O	1.518388	0.291812	0.809405
O32	O	1.768388	0.541812	1.059405
O33	O	1.227991	-0.437959	0.309378
O34	O	1.477991	-0.187959	0.559378
O35	O	1.727991	0.062041	0.809378
O36	O	1.977991	0.312041	1.059378
O37	O	1.108804	-0.208168	0.399812
O38	O	1.358804	0.041832	0.649812
O39	O	1.608804	0.291832	0.899812
O40	O	1.858804	0.541832	1.149812
O41	O	1.018305	-0.338938	0.190070
O42	O	1.268305	-0.088938	0.440070
O43	O	1.518305	0.161062	0.690070
O44	O	1.768305	0.411062	0.940070
O45	O	0.899026	-0.338894	0.309363
O46	O	1.149026	-0.088894	0.559363
O47	O	1.399026	0.161106	0.809363
O48	O	1.649026	0.411106	1.059363
O49	O	1.018337	-0.437881	0.519056
O50	O	1.268337	-0.187881	0.769056
O51	O	1.518337	0.062119	1.019056
O52	O	1.768337	0.312119	1.269056
O53	O	0.899004	-0.437907	0.399737
O54	O	1.149004	-0.187907	0.649737
O55	O	1.399004	0.062093	0.899737
O56	O	1.649004	0.312093	1.149737
O57	O	1.108775	-0.338847	0.519088
O58	O	1.358775	-0.088847	0.769088
O59	O	1.608775	0.161153	1.019088
O60	O	1.858775	0.411153	1.269088
O61	O	1.108629	-0.568664	0.309335
O62	O	1.358629	-0.318664	0.559335
O63	O	1.608629	-0.068664	0.809335
O64	O	1.858629	0.181336	1.059335
O65	O	1.018254	-0.568631	0.399721
O66	O	1.268254	-0.318631	0.649721
O67	O	1.518254	-0.068631	0.899721
O68	O	1.768254	0.181369	1.149721
C69	C	0.872313	-0.388399	0.354547
C70	C	1.122313	-0.138399	0.604547
C71	C	1.372313	0.111601	0.854547
C72	C	1.622313	0.361601	1.104547
C73	C	0.790514	-0.388413	0.354556
C74	C	1.040514	-0.138413	0.604556
C75	C	1.290514	0.111587	0.854556
C76	C	1.540514	0.361587	1.104556
C77	C	0.602327	-0.440050	0.401554
C78	C	0.852327	-0.190050	0.651554
C79	C	1.102327	0.059950	0.901554
C80	C	1.352327	0.309950	1.151554
C81	C	0.525469	-0.440053	0.401563
C82	C	0.775469	-0.190053	0.651563
C83	C	1.025469	0.059947	0.901563
C84	C	1.275469	0.309947	1.151563
C85	C	0.525462	-0.336790	0.307598
C86	C	0.775462	-0.086790	0.557598
C87	C	1.025462	0.163210	0.807598
C88	C	1.275462	0.413210	1.057598
C89	C	0.602319	-0.336784	0.307593
C90	C	0.852319	-0.086784	0.557593
C91	C	1.102319	0.163216	0.807593
C92	C	1.352319	0.413216	1.057593
C93	C	0.640750	-0.388419	0.354570
C94	C	0.890750	-0.138419	0.604570
C95	C	1.140750	0.111581	0.854570
C96	C	1.390750	0.361581	1.104570
C97	C	0.487034	-0.388427	0.354584
C98	C	0.737034	-0.138427	0.604584
C99	C	0.987034	0.111573	0.854584
C100	C	1.237034	0.361573	1.104584
C101	C	0.403700	-0.388430	0.354594
C102	C	0.653700	-0.138430	0.604594
C103	C	0.903700	0.111570	0.854594
C104	C	1.153700	0.361570	1.104594
C105	C	0.724089	-0.388416	0.354562
C106	C	0.974089	-0.138416	0.604562
C107	C	1.224089	0.111584	0.854562
C108	C	1.474089	0.361584	1.104562
C109	C	1.063449	-0.597904	0.354537
C110	C	1.313449	-0.347904	0.604537
C111	C	1.563449	-0.097904	0.854537
C112	C	1.813449	0.152096	1.104537
C113	C	1.063487	-0.687525	0.354549
C114	C	1.313487	-0.437525	0.604549
C115	C	1.563487	-0.187525	0.854549
C116	C	1.813487	0.062475	1.104549
C117	C	1.063615	-1.015700	0.354625
C118	C	1.313615	-0.765700	0.604625
C119	C	1.563615	-0.515700	0.854625
C120	C	1.813615	-0.265700	1.104625
C121	C	1.063577	-0.924392	0.354606
C122	C	1.313577	-0.674392	0.604606
C123	C	1.563577	-0.424392	0.854606
C124	C	1.813577	-0.174392	1.104606
C125	C	1.063550	-0.851616	0.354587
C126	C	1.313550	-0.601616	0.604587
C127	C	1.563550	-0.351616	0.854587
C128	C	1.813550	-0.101616	1.104587
C129	C	1.063513	-0.760301	0.354568
C130	C	1.313513	-0.510301	0.604568
C131	C	1.563513	-0.260301	0.854568
C132	C	1.813513	-0.010301	1.104568
C133	C	1.255472	-0.388427	0.354590
C134	C	1.505472	-0.138427	0.604590
C135	C	1.755472	0.111573	0.854590
C136	C	2.005472	0.361573	1.104590
C137	C	1.337271	-0.388433	0.354599
C138	C	1.587271	-0.138433	0.604599
C139	C	1.837271	0.111567	0.854599
C140	C	2.087271	0.361567	1.104599
C141	C	1.063562	-0.388356	0.546521
C142	C	1.313562	-0.138356	0.796521
C143	C	1.563562	0.111644	1.046521
C144	C	1.813562	0.361644	1.296521
C145	C	1.063580	-0.388331	0.628320
C146	C	1.313580	-0.138331	0.878320
C147	C	1.563580	0.111669	1.128320
C148	C	1.813580	0.361669	1.378320
C149	C	1.063609	-0.178104	0.354615
C150	C	1.313609	0.071896	0.604615
C151	C	1.563609	0.321896	0.854615
C152	C	1.813609	0.571896	1.104615
C153	C	1.063647	-0.088483	0.354635
C154	C	1.313647	0.161517	0.604635
C155	C	1.563647	0.411517	0.854635
C156	C	1.813647	0.661517	1.104635
C157	C	1.063518	-0.388412	0.163362
C158	C	1.313518	-0.138412	0.413362
C159	C	1.563518	0.111588	0.663362
C160	C	1.813518	0.361588	0.913362
C161	C	1.063642	-0.388209	0.081563
C162	C	1.313642	-0.138209	0.331563
C163	C	1.563642	0.111791	0.581563
C164	C	1.813642	0.361791	0.831563
C165	C	1.110699	-0.336695	0.893396
C166	C	1.360699	-0.086695	1.143396
C167	C	1.610699	0.163305	1.393396
C168	C	1.860699	0.413305	1.643396
C169	C	1.110690	-0.336717	0.816537
C170	C	1.360690	-0.086717	1.066537
C171	C	1.610690	0.163283	1.316537
C172	C	1.860690	0.413283	1.566537
C173	C	1.016522	-0.439851	0.816493
C174	C	1.266522	-0.189851	1.066493
C175	C	1.516522	0.060149	1.316493
C176	C	1.766522	0.310149	1.566493
C177	C	1.016535	-0.439833	0.893351
C178	C	1.266535	-0.189833	1.143351
C179	C	1.516535	0.060167	1.393351
C180	C	1.766535	0.310167	1.643351
C181	C	1.063622	-0.388250	0.931800
C182	C	1.313622	-0.138250	1.181800
C183	C	1.563622	0.111750	1.431800
C184	C	1.813622	0.361750	1.681800
C185	C	1.063601	-0.388290	0.778084
C186	C	1.313601	-0.138290	1.028084
C187	C	1.563601	0.111710	1.278084
C188	C	1.813601	0.361710	1.528084
C189	C	1.063591	-0.388314	0.694750
C190	C	1.313591	-0.138314	0.944750
C191	C	1.563591	0.111686	1.194750
C192	C	1.813591	0.361686	1.444750
C193	C	1.063633	-0.388227	1.015139
C194	C	1.313633	-0.138227	1.265139
C195	C	1.563633	0.111773	1.515139
C196	C	1.813633	0.361773	1.765139
H197	H	0.633604	-0.294735	0.269333
H198	H	0.883604	-0.044735	0.519333
H199	H	1.133604	0.205265	0.769333
H200	H	1.383604	0.455265	1.019333
H201	H	0.494162	-0.294753	0.269350
H202	H	0.744162	-0.044753	0.519350
H203	H	0.994162	0.205247	0.769350
H204	H	1.244162	0.455247	1.019350
H205	H	1.149040	-0.294693	0.924699
H206	H	1.399040	-0.044693	1.174699
H207	H	1.649040	0.205307	1.424699
H208	H	1.899040	0.455307	1.674699
H209	H	0.633616	-0.482092	0.439808
H210	H	0.883616	-0.232092	0.689808
H211	H	1.133616	0.017908	0.939808
H212	H	1.383616	0.267908	1.189808
H213	H	1.149025	-0.294736	0.785272
H214	H	1.399025	-0.044736	1.035272
H215	H	1.649025	0.205264	1.285272
H216	H	1.899025	0.455264	1.535272
H217	H	0.978184	-0.481846	0.785178
H218	H	1.228184	-0.231846	1.035178
H219	H	1.478184	0.018154	1.285178
H220	H	1.728184	0.268154	1.535178
C221	C	0.533200	-0.542128	0.494434
C222	C	0.783200	-0.292128	0.744434
C223	C	1.033200	-0.042128	0.994434
C224	C	1.283200	0.207872	1.244434
C225	C	0.483235	-0.496811	0.453206
C226	C	0.733235	-0.246811	0.703206
C227	C	0.983235	0.003189	0.953206
C228	C	1.233235	0.253189	1.203206
H229	H	0.507125	-0.577172	0.526315
H230	H	0.757125	-0.327172	0.776315
H231	H	1.007125	-0.077172	1.026315
H232	H	1.257125	0.172828	1.276315
H233	H	0.563199	-0.507036	0.522638
H234	H	0.813199	-0.257036	0.772638
H235	H	1.063199	-0.007036	1.022638
H236	H	1.313199	0.242964	1.272638
H237	H	0.563155	-0.572921	0.462308
H238	H	0.813155	-0.322921	0.712308
H239	H	1.063155	-0.072921	0.962308
H240	H	1.313155	0.177079	1.212308
H241	H	0.453283	-0.466013	0.485333
H242	H	0.703283	-0.216013	0.735333
H243	H	0.953283	0.033987	0.985333
H244	H	1.203283	0.283987	1.235333
H245	H	0.453224	-0.531908	0.425001
H246	H	0.703224	-0.281908	0.675001
H247	H	0.953224	-0.031908	0.925001
H248	H	1.203224	0.218092	1.175001
C249	C	0.923442	-0.541776	0.885593
C250	C	1.173442	-0.291776	1.135593
C251	C	1.423442	-0.041776	1.385593
C252	C	1.673442	0.208224	1.635593
C253	C	0.964782	-0.496504	0.935570
C254	C	1.214782	-0.246504	1.185570
C255	C	1.464782	0.003496	1.435570
C256	C	1.714782	0.253496	1.685570
H257	H	0.891493	-0.576758	0.911660
H258	H	1.141493	-0.326758	1.161660
H259	H	1.391493	-0.076758	1.411660
H260	H	1.641493	0.173242	1.661660
H261	H	0.955488	-0.572626	0.855614
H262	H	1.205488	-0.322626	1.105614
H263	H	1.455488	-0.072626	1.355614
H264	H	1.705488	0.177374	1.605614
H265	H	0.895300	-0.506645	0.855620
H266	H	1.145300	-0.256645	1.105620
H267	H	1.395300	-0.006645	1.355620
H268	H	1.645300	0.243355	1.605620
H269	H	0.992928	-0.531635	0.965540
H270	H	1.242928	-0.281635	1.215540
H271	H	1.492928	-0.031635	1.465540
H272	H	1.742928	0.218365	1.715540
H273	H	0.932732	-0.465653	0.965562
H274	H	1.182732	-0.215653	1.215562
H275	H	1.432732	0.034347	1.465562
H276	H	1.682732	0.284347	1.715562
