data_functionalizedCrystal
_audit_creation_method	'MofGen! by Chris Wilmer'
_symmetry_space_group_name_H-M	'P1'
_symmetry_Int_Tables_number	1
_symmetry_cell_setting	triclinic
loop_
_symmetry_equiv_pos_as_xyz
  x,y,z
_cell_length_a	12.759401
_cell_length_b	14.908520
_cell_length_c	12.759393
_cell_angle_alpha	93.262473
_cell_angle_beta	89.981504
_cell_angle_gamma	93.320696
loop_
_atom_site_label
_atom_site_type_symbol
_atom_site_fract_x
_atom_site_fract_y
_atom_site_fract_z
Zn1	Zn	1.582067	-0.359100	-0.618083
Zn2	Zn	1.571798	-0.509987	-0.452530
Zn3	Zn	1.406366	-0.359147	-0.442425
Zn4	Zn	1.396199	-0.509917	-0.628166
O5	O	1.489108	-0.434538	-0.535301
O6	O	1.727726	-0.379125	-0.596130
O7	O	1.549811	-0.490026	-0.304171
O8	O	1.438226	-0.232897	-0.457278
O9	O	1.720181	-0.489981	-0.474499
O10	O	1.567313	-0.232862	-0.586332
O11	O	1.428268	-0.379205	-0.296748
O12	O	1.257997	-0.379138	-0.467055
O13	O	1.420898	-0.489862	-0.773847
O14	O	1.250528	-0.489908	-0.603519
O15	O	1.557454	-0.379058	-0.766438
O16	O	1.539952	-0.636222	-0.484277
O17	O	1.410940	-0.636171	-0.613317
C18	C	1.216142	-0.434521	-0.535286
C19	C	1.099364	-0.434536	-0.535305
C20	C	1.040634	-0.492306	-0.606257
C21	C	0.930909	-0.492318	-0.606269
C22	C	0.938654	-0.376786	-0.464369
C23	C	1.048377	-0.376771	-0.464363
C24	C	1.036161	-0.559010	-0.688179
C25	C	0.926436	-0.559022	-0.688191
C26	C	1.473257	-0.668930	-0.551010
C27	C	1.466573	-0.769204	-0.557766
C28	C	1.588489	-0.957621	-0.436200
C29	C	1.582212	-1.051837	-0.442544
C30	C	1.447746	-1.051854	-0.576803
C31	C	1.454024	-0.957638	-0.570459
C32	C	1.524397	-0.910524	-0.500154
C33	C	1.530668	-0.816307	-0.493805
C34	C	1.396208	-0.816325	-0.628069
C35	C	1.389931	-0.910541	-0.634413
C36	C	1.763140	-0.434555	-0.535317
C37	C	1.879916	-0.434563	-0.535324
C38	C	1.489187	-0.434447	-0.809328
C39	C	1.489221	-0.434408	-0.926102
C40	C	1.505049	-0.199231	-0.519553
C41	C	1.511842	-0.098957	-0.512842
C42	C	1.560336	-0.376707	-0.977108
C43	C	1.560363	-0.376674	-1.086830
C44	C	1.418158	-0.492052	-1.094531
C45	C	1.418126	-0.492079	-0.984811
C46	C	1.642440	-0.310097	-0.972663
C47	C	1.642467	-0.310064	-1.082385
C48	C	1.489093	-0.434563	-0.262335
C49	C	1.489280	-0.434348	-0.145545
H50	H	0.897128	-0.329755	-0.406611
H51	H	1.360273	-0.539004	-1.142345
H52	H	1.360215	-0.539062	-0.943286
H53	H	1.096192	-0.329723	-0.406594
C54	C	1.552408	-0.710436	-0.345360
C55	C	1.608020	-0.764517	-0.416528
H56	H	1.600166	-0.678470	-0.297649
H57	H	1.515145	-0.668904	-0.382539
H58	H	1.504209	-0.747262	-0.307612
H59	H	1.656214	-0.727690	-0.454281
H60	H	1.645300	-0.806053	-0.379345
C61	C	1.144361	-0.455698	-0.784749
C62	C	1.078114	-0.533860	-0.796380
H63	H	1.170266	-0.440178	-0.851547
H64	H	1.106217	-0.407861	-0.754620
H65	H	1.201538	-0.466054	-0.740206
H66	H	1.020932	-0.523501	-0.840917
H67	H	1.116258	-0.581707	-0.826525
H68	H	1.634405	-1.090179	-0.390468
H69	H	1.625378	-0.240231	-0.938218
H70	H	0.894118	-0.534082	-0.763869
C71	C	1.378428	-1.196293	-0.646135
C72	C	1.370397	-1.103652	-0.654076
H73	H	1.330669	-1.228269	-0.693836
H74	H	1.447978	-1.211659	-0.662616
H75	H	1.362066	-1.211780	-0.576569
H76	H	1.386767	-1.088164	-0.723641
H77	H	1.300831	-1.088279	-0.637602
H78	H	1.718025	-0.335143	-0.940308
C79	C	1.587360	-0.161622	-1.036681
C80	C	1.609222	-0.220447	-1.122345
H81	H	1.566841	-0.106297	-1.061354
H82	H	1.532081	-0.187734	-0.996528
H83	H	1.648339	-0.150929	-0.994072
H84	H	1.548240	-0.231145	-1.164949
H85	H	1.664505	-0.194329	-1.162514
H86	H	1.645782	-0.919261	-0.378948
C87	C	0.990349	-0.707385	-0.632660
C88	C	1.076058	-0.648559	-0.654665
H89	H	1.014983	-0.762669	-0.611974
H90	H	0.950201	-0.681225	-0.577465
H91	H	0.947745	-0.718168	-0.693628
H92	H	1.118658	-0.637771	-0.593695
H93	H	1.116223	-0.674724	-0.709865
H94	H	1.722578	-0.328777	-1.113419
H95	H	1.344016	-0.777969	-0.680141
H96	H	0.891935	-0.628875	-0.670947
H97	H	1.332638	-0.948914	-0.691656
