data_functionalizedCrystal
_audit_creation_method	'MofGen! by Chris Wilmer'
_symmetry_space_group_name_H-M	'P1'
_symmetry_Int_Tables_number	1
_symmetry_cell_setting	triclinic
loop_
_symmetry_equiv_pos_as_xyz
  x,y,z
_cell_length_a	16.625546
_cell_length_b	18.215407
_cell_length_c	18.215398
_cell_angle_alpha	90.016530
_cell_angle_beta	90.026650
_cell_angle_gamma	90.019927
loop_
_atom_site_label
_atom_site_type_symbol
_atom_site_fract_x
_atom_site_fract_y
_atom_site_fract_z
Zn1	Zn	-0.321085	1.125082	0.416052
Zn2	Zn	0.178915	1.625082	0.916052
Zn3	Zn	-0.455919	1.124996	0.292983
Zn4	Zn	0.044081	1.624996	0.792983
Zn5	Zn	-0.321098	1.002015	0.293006
Zn6	Zn	0.178902	1.502015	0.793006
Zn7	Zn	-0.455873	1.001985	0.416014
Zn8	Zn	0.044127	1.501985	0.916014
O9	O	-0.388494	1.063519	0.354514
O10	O	0.111506	1.563519	0.854514
O11	O	-0.338984	1.228054	0.399733
O12	O	0.161016	1.728054	0.899733
O13	O	-0.438060	1.108659	0.190002
O14	O	0.061940	1.608659	0.690002
O15	O	-0.208264	1.018388	0.309353
O16	O	0.291736	1.518388	0.809353
O17	O	-0.438047	1.227992	0.309315
O18	O	0.061953	1.727992	0.809315
O19	O	-0.208254	1.108805	0.399755
O20	O	0.291746	1.608805	0.899755
O21	O	-0.339007	1.018305	0.190018
O22	O	0.160993	1.518305	0.690018
O23	O	-0.338963	0.899027	0.309317
O24	O	0.161037	1.399027	0.809317
O25	O	-0.437968	1.018338	0.519004
O26	O	0.062032	1.518338	1.019004
O27	O	-0.437981	0.899005	0.399691
O28	O	0.062019	1.399005	0.899691
O29	O	-0.338940	1.108776	0.519031
O30	O	0.161060	1.608776	1.019031
O31	O	-0.568745	1.108630	0.309278
O32	O	-0.068745	1.608630	0.809278
O33	O	-0.568712	1.018255	0.399669
O34	O	-0.068712	1.518255	0.899669
C35	C	-0.388469	0.872313	0.354502
C36	C	0.111531	1.372313	0.854502
C37	C	-0.388478	0.790514	0.354515
C38	C	0.111522	1.290514	0.854515
C39	C	-0.440137	0.525465	0.401507
C40	C	0.059863	1.025465	0.901507
C41	C	-0.440130	0.602323	0.401503
C42	C	0.059870	1.102323	0.901503
C43	C	-0.336868	0.602316	0.307534
C44	C	0.163132	1.102316	0.807534
C45	C	-0.336880	0.525458	0.307534
C46	C	0.163120	1.025458	0.807534
C47	C	-0.388513	0.487035	0.354525
C48	C	0.111487	0.987035	0.854525
C49	C	-0.388495	0.640751	0.354521
C50	C	0.111505	1.140751	0.854521
C51	C	-0.388487	0.724084	0.354517
C52	C	0.111513	1.224084	0.854517
C53	C	-0.388522	0.403696	0.354528
C54	C	0.111478	0.903696	0.854528
C55	C	-0.597985	1.063450	0.354483
C56	C	-0.097985	1.563450	0.854483
C57	C	-0.687606	1.063487	0.354494
C58	C	-0.187606	1.563487	0.854494
C59	C	-1.015781	1.063616	0.354571
C60	C	-0.515781	1.563616	0.854571
C61	C	-0.924473	1.063578	0.354552
C62	C	-0.424473	1.563578	0.854552
C63	C	-0.851696	1.063551	0.354532
C64	C	-0.351696	1.563551	0.854532
C65	C	-0.760382	1.063514	0.354514
C66	C	-0.260382	1.563514	0.854514
C67	C	-0.178185	1.063609	0.354561
C68	C	0.321815	1.563609	0.854561
C69	C	-0.088564	1.063648	0.354581
C70	C	0.411436	1.563648	0.854581
C71	C	-0.388447	1.063563	0.546467
C72	C	0.111553	1.563563	1.046467
C73	C	-0.388428	1.063582	0.628266
C74	C	0.111572	1.563582	1.128266
C75	C	-0.388519	1.255472	0.354526
C76	C	0.111481	1.755472	0.854526
C77	C	-0.388530	1.337271	0.354531
C78	C	0.111470	1.837271	0.854531
C79	C	-0.388482	1.063518	0.163307
C80	C	0.111518	1.563518	0.663307
C81	C	-0.388274	1.063642	0.081509
C82	C	0.111726	1.563642	0.581509
C83	C	-0.439905	1.110662	0.893319
C84	C	0.060095	1.610662	1.393319
C85	C	-0.439933	1.110651	0.816460
C86	C	0.060067	1.610651	1.316460
C87	C	-0.336795	1.016556	0.816461
C88	C	0.163205	1.516556	1.316461
C89	C	-0.336772	1.016565	0.893318
C90	C	0.163228	1.516565	1.393318
C91	C	-0.388325	1.063622	0.931745
C92	C	0.111675	1.563622	1.431745
C93	C	-0.388377	1.063602	0.778029
C94	C	0.111623	1.563602	1.278029
C95	C	-0.388407	1.063590	0.694696
C96	C	0.111593	1.563590	1.194696
C97	C	-0.388297	1.063633	1.015084
C98	C	0.111703	1.563633	1.515084
H99	H	-0.294829	0.633609	0.269276
H100	H	0.205171	1.133609	0.769276
C101	C	-0.495963	1.161807	0.774873
C102	C	0.004037	1.661807	1.274873
C103	C	-0.541089	1.203029	0.824979
C104	C	-0.041089	1.703029	1.324979
C105	C	-0.592707	1.250169	0.786697
C106	C	-0.092707	1.750169	1.286697
H107	H	-0.531176	1.133722	0.744879
H108	H	-0.031176	1.633722	1.244879
H109	H	-0.465147	1.193919	0.744916
H110	H	0.034853	1.693919	1.244916
H111	H	-0.571902	1.170921	0.854924
H112	H	-0.071902	1.670921	1.354924
H113	H	-0.505897	1.231128	0.854975
H114	H	-0.005897	1.731128	1.354975
H115	H	-0.561892	1.282281	0.756740
H116	H	-0.061892	1.782281	1.256740
H117	H	-0.627915	1.222078	0.756704
H118	H	-0.127915	1.722078	1.256704
H119	H	-0.623326	1.278148	0.820688
H120	H	-0.123326	1.778148	1.320688
C121	C	-0.496145	0.644180	0.452437
C122	C	0.003855	1.144180	0.952437
C123	C	-0.485103	0.719713	0.442368
C124	C	0.014897	1.219713	0.942368
C125	C	-0.536699	0.758293	0.489271
C126	C	-0.036699	1.258293	0.989271
H127	H	-0.484462	0.631690	0.501932
H128	H	0.015538	1.131690	1.001932
H129	H	-0.550325	0.631611	0.441578
H130	H	-0.050325	1.131611	0.941578
H131	H	-0.430935	0.732276	0.453233
H132	H	0.069065	1.232276	0.953233
H133	H	-0.496792	0.732225	0.392883
H134	H	0.003208	1.232225	0.892883
H135	H	-0.590880	0.745725	0.478411
H136	H	-0.090880	1.245725	0.978411
H137	H	-0.525012	0.745797	0.538762
H138	H	-0.025012	1.245797	1.038762
H139	H	-0.529220	0.809546	0.482441
H140	H	-0.029220	1.309546	0.982441
C141	C	-0.280849	0.965554	0.774605
C142	C	0.219151	1.465554	1.274605
C143	C	-0.291891	0.975630	0.699072
C144	C	0.208109	1.475630	1.199072
C145	C	-0.240356	0.928667	0.660494
C146	C	0.259644	1.428667	1.160494
H147	H	-0.292589	0.916074	0.787100
H148	H	0.207411	1.416074	1.287100
H149	H	-0.226654	0.976355	0.787172
H150	H	0.273346	1.476355	1.287172
H151	H	-0.346073	0.964824	0.686510
H152	H	0.153927	1.464824	1.186510
H153	H	-0.280144	1.025100	0.686556
H154	H	0.219856	1.525100	1.186556
H155	H	-0.186161	0.939468	0.673060
H156	H	0.313839	1.439468	1.173060
H157	H	-0.252101	0.879189	0.672994
H158	H	0.247899	1.379189	1.172994
H159	H	-0.247836	0.935501	0.609241
H160	H	0.252164	1.435501	1.109241
H161	H	-0.294840	0.494168	0.269272
H162	H	0.205160	0.994168	0.769272
H163	H	-0.481884	1.148978	0.924604
H164	H	0.018116	1.648978	1.424604
H165	H	-0.482181	0.494182	0.439769
H166	H	0.017819	0.994182	0.939769
H167	H	-0.294769	0.978255	0.924606
H168	H	0.205231	1.478255	1.424606
