data_functionalizedCrystal
_audit_creation_method	'MofGen! by Chris Wilmer'
_symmetry_space_group_name_H-M	'P1'
_symmetry_Int_Tables_number	1
_symmetry_cell_setting	triclinic
loop_
_symmetry_equiv_pos_as_xyz
  x,y,z
_cell_length_a	16.974829
_cell_length_b	16.992695
_cell_length_c	18.366186
_cell_angle_alpha	89.993794
_cell_angle_beta	86.335638
_cell_angle_gamma	87.025716
loop_
_atom_site_label
_atom_site_type_symbol
_atom_site_fract_x
_atom_site_fract_y
_atom_site_fract_z
O1	O	1.055472	0.099961	-0.122743
O2	O	0.826069	0.112683	-0.109227
O3	O	0.939851	-0.007820	-0.115925
O4	O	0.941690	0.220464	-0.116045
O5	O	0.939830	-0.007826	0.005175
O6	O	0.826048	0.112677	0.011873
O7	O	1.055451	0.099955	-0.001643
Zn8	Zn	0.940746	0.106315	0.024343
Zn9	Zn	0.940774	0.106323	-0.135213
O10	O	0.941669	0.220458	0.005055
C11	C	0.796569	0.112195	-0.046940
C12	C	0.708700	0.110740	-0.041762
C13	C	0.214088	0.102578	-0.005534
C14	C	0.296650	0.103945	-0.010400
C15	C	0.337943	0.104626	-0.078846
C16	C	0.296669	0.103948	-0.142431
C17	C	0.214108	0.102587	-0.137564
C18	C	0.584865	0.108701	-0.100480
C19	C	0.667432	0.110060	-0.105342
C20	C	0.667407	0.110059	0.026689
C21	C	0.584845	0.108693	0.031550
C22	C	0.543578	0.108019	-0.032035
N23	N	0.422335	0.106020	-0.083822
N24	N	0.459187	0.106630	-0.027058
C25	C	0.937474	-0.037033	-0.055236
C26	C	0.930415	-0.124069	-0.054820
C27	C	0.998531	-0.174381	-0.058832
C28	C	0.991893	-0.256161	-0.058448
C29	C	0.917138	-0.287627	-0.054046
C30	C	0.849017	-0.237309	-0.050036
C31	C	0.855656	-0.155531	-0.050425
C32	C	0.889623	-0.531196	-0.052435
C33	C	0.882990	-0.612980	-0.052044
C34	C	1.025866	-0.631827	-0.060458
C35	C	1.032498	-0.550047	-0.060842
C36	C	0.964377	-0.499735	-0.056836
N37	N	0.910351	-0.371219	-0.053651
N38	N	0.971165	-0.416145	-0.057236
C39	C	1.084951	0.100443	-0.063932
C40	C	1.172820	0.101898	-0.069114
N41	N	0.940733	0.106309	0.133235
C42	C	0.944046	0.249671	-0.055636
C43	C	0.951105	0.336708	-0.056056
N44	N	0.940793	0.106323	-0.244105
C45	C	0.991135	0.052977	0.168368
C46	C	0.991140	0.052974	0.244596
C47	C	0.940751	0.106316	0.285686
C48	C	0.890339	0.159652	0.250544
C49	C	0.890330	0.159649	0.174318
C50	C	0.934904	0.177733	0.406787
C51	C	0.934919	0.177737	0.483012
C52	C	0.940774	0.106326	0.520792
C53	C	0.946631	0.034907	0.482339
C54	C	0.946622	0.034903	0.406113
C55	C	0.940755	0.106325	0.368341
C56	C	0.991184	0.052985	0.638580
C57	C	0.991183	0.052981	0.714810
C58	C	0.890387	0.159666	0.720757
C59	C	0.890383	0.159664	0.644529
C60	C	0.940786	0.106324	0.603445
H61	H	0.701016	0.110609	0.078456
O62	O	0.544744	0.108178	-0.162224
C63	C	0.492315	0.175252	-0.163092
H64	H	0.513927	0.223102	-0.126908
H65	H	0.489833	0.198015	-0.221334
H66	H	0.430791	0.158878	-0.141737
H67	H	0.330296	0.104507	-0.198161
O68	O	0.789431	-0.106734	-0.046620
C69	C	0.744374	-0.120963	-0.106695
H70	H	0.759870	-0.183018	-0.128516
H71	H	0.678792	-0.115137	-0.088729
H72	H	0.758025	-0.076240	-0.151417
H73	H	1.059404	-0.148769	-0.062412
O74	O	1.039836	0.001024	0.128364
C75	C	1.028884	0.012325	0.053558
H76	H	1.003576	0.074770	0.044560
H77	H	1.088102	0.003186	0.020975
H78	H	0.986119	-0.031843	0.034648
O79	O	0.929191	0.247179	0.520251
C80	C	0.924029	0.310209	0.470562
H81	H	0.900931	0.288529	0.417596
H82	H	0.881892	0.359020	0.495074
H83	H	0.985088	0.334044	0.458836
O84	O	0.823474	-0.482301	-0.048669
C85	C	0.823053	-0.434415	-0.111354
H86	H	0.861603	-0.464399	-0.157461
H87	H	0.759950	-0.425158	-0.128689
H88	H	0.847265	-0.374966	-0.098602
O89	O	0.173972	0.102063	-0.199303
C90	C	0.121543	0.169137	-0.200159
H91	H	0.143163	0.216984	-0.163977
H92	H	0.119048	0.191905	-0.258399
H93	H	0.060022	0.152763	-0.178794
O94	O	1.040161	0.001092	0.598778
C95	C	1.084658	-0.045975	0.646137
H96	H	1.052191	-0.046845	0.702394
H97	H	1.092763	-0.108597	0.623640
H98	H	1.145000	-0.020546	0.650673
O99	O	1.058141	-0.304922	-0.062313
C100	C	1.125544	-0.259613	-0.066294
H101	H	1.109325	-0.198559	-0.042412
H102	H	1.173578	-0.289837	-0.033961
H103	H	1.148233	-0.253806	-0.125725
O104	O	1.092091	-0.680620	-0.064458
C105	C	1.137170	-0.666374	-0.129842
H106	H	1.121678	-0.604314	-0.149836
H107	H	1.202747	-0.672199	-0.119603
H108	H	1.123537	-0.711086	-0.172958
O109	O	0.544635	0.108128	0.097995
C110	C	0.492222	0.175214	0.105040
H111	H	0.478316	0.197648	0.048545
H112	H	0.435207	0.158980	0.136329
H113	H	0.520760	0.223261	0.135944
O114	O	1.105074	-0.519394	-0.065218
C115	C	1.113210	-0.472663	-0.128424
H116	H	1.052185	-0.452222	-0.145738
H117	H	1.148113	-0.419150	-0.116374
H118	H	1.145910	-0.508828	-0.174269
O119	O	0.707420	0.110766	-0.171892
C120	C	0.653295	0.109866	-0.226971
H121	H	0.592734	0.133700	-0.204051
H122	H	0.674546	0.148316	-0.274387
H123	H	0.648839	0.046855	-0.247012
O124	O	0.841316	0.211498	0.290348
C125	C	0.796840	0.258585	0.242987
H126	H	0.793913	0.226437	0.188828
H127	H	0.734457	0.270573	0.268702
H128	H	0.826184	0.316820	0.233135
O129	O	0.810308	-0.643417	-0.047804
C130	C	0.751605	-0.581476	-0.044336
H131	H	0.777283	-0.525940	-0.068772
H132	H	0.699739	-0.598513	-0.076447
H133	H	0.730325	-0.569888	0.015012
H134	H	0.788150	-0.262935	-0.046456
H135	H	0.849286	0.203079	0.145713
H136	H	1.032185	0.009542	0.273206
H137	H	0.951389	-0.023248	0.374807
H138	H	0.951399	-0.023244	0.513098
O139	O	1.040033	0.001092	0.748978
C140	C	0.994649	-0.047253	0.795773
H141	H	0.932211	-0.048554	0.776495
H142	H	1.022979	-0.109585	0.794968
H143	H	0.992057	-0.022713	0.853695
O144	O	0.841511	0.211452	0.760771
C145	C	0.852308	0.200004	0.835586
H146	H	0.913318	0.170673	0.842393
H147	H	0.847259	0.259385	0.864848
H148	H	0.805077	0.160698	0.860015
H149	H	0.930123	0.235889	0.376033
O150	O	0.174099	0.101953	0.061013
C151	C	0.228233	0.102828	0.116086
H152	H	0.285384	0.128608	0.093360
H153	H	0.201760	0.140482	0.163812
H154	H	0.241330	0.040103	0.135618
O155	O	0.336829	0.104495	0.051311
C156	C	0.389232	0.037402	0.052184
H157	H	0.403169	0.014986	-0.005952
H158	H	0.446234	0.053620	0.076768
H159	H	0.360670	-0.010652	0.086441
O160	O	0.841404	0.211554	0.610510
C161	C	0.796915	0.258622	0.663121
H162	H	0.829391	0.259495	0.715537
H163	H	0.788804	0.321243	0.641568
H164	H	0.736575	0.233192	0.674801
