data_functionalizedCrystal
_audit_creation_method	'MofGen! by Chris Wilmer'
_symmetry_space_group_name_H-M	'P1'
_symmetry_Int_Tables_number	1
_symmetry_cell_setting	triclinic
loop_
_symmetry_equiv_pos_as_xyz
  x,y,z
_cell_length_a	11.169417
_cell_length_b	16.120484
_cell_length_c	11.169409
_cell_angle_alpha	92.860826
_cell_angle_beta	89.979436
_cell_angle_gamma	92.926269
loop_
_atom_site_label
_atom_site_type_symbol
_atom_site_fract_x
_atom_site_fract_y
_atom_site_fract_z
Zn1	Zn	1.810625	-0.331819	-0.702705
Zn2	Zn	2.310625	0.168181	-0.202705
Zn3	Zn	1.800280	-0.471262	-0.512176
Zn4	Zn	2.300280	0.028738	-0.012176
Zn5	Zn	1.609904	-0.331869	-0.502043
Zn6	Zn	2.109904	0.168131	-0.002043
Zn7	Zn	1.599692	-0.471194	-0.712816
Zn8	Zn	2.099692	0.028806	-0.212816
O9	O	1.705125	-0.401536	-0.607435
O10	O	2.205125	0.098464	-0.107435
O11	O	1.977202	-0.350323	-0.677440
O12	O	2.477202	0.149677	-0.177440
O13	O	1.774971	-0.452820	-0.342886
O14	O	2.274971	0.047180	0.157114
O15	O	1.645134	-0.215198	-0.520190
O16	O	2.145134	0.284802	-0.020190
O17	O	1.969602	-0.452771	-0.537460
O18	O	2.469602	0.047229	-0.037460
O19	O	1.792602	-0.215160	-0.667615
O20	O	2.292602	0.284840	-0.167615
O21	O	1.635103	-0.350410	-0.335441
O22	O	2.135103	0.149590	0.164559
O23	O	1.440601	-0.350344	-0.529994
O24	O	1.940601	0.149656	-0.029994
O25	O	1.627728	-0.452656	-0.879421
O26	O	2.127728	0.047344	-0.379421
O27	O	1.433097	-0.452705	-0.684847
O28	O	1.933097	0.047295	-0.184847
O29	O	1.782699	-0.350258	-0.871993
O30	O	2.282699	0.149742	-0.371993
O31	O	1.765069	-0.587918	-0.547264
O32	O	2.265069	-0.087918	-0.047264
O33	O	1.617697	-0.587868	-0.694673
O34	O	2.117697	-0.087868	-0.194673
C35	C	1.393302	-0.401523	-0.607419
C36	C	1.893302	0.098477	-0.107419
C37	C	1.259901	-0.401538	-0.607442
C38	C	1.759901	0.098462	-0.107442
C39	C	1.689185	-0.618143	-0.623191
C40	C	2.189185	-0.118143	-0.123191
C41	C	1.682475	-0.710808	-0.629972
C42	C	2.182475	-0.210808	-0.129972
C43	C	1.670232	-0.880469	-0.642376
C44	C	2.170232	-0.380469	-0.142376
C45	C	1.740233	-0.921763	-0.572514
C46	C	2.240233	-0.421763	-0.072514
C47	C	1.733421	-1.016168	-0.579416
C48	C	2.233421	-0.516168	-0.079416
C49	C	1.677043	-0.786055	-0.635476
C50	C	2.177043	-0.286055	-0.135476
C51	C	2.018167	-0.401549	-0.607452
C52	C	2.518167	0.098451	-0.107452
C53	C	2.151566	-0.401555	-0.607460
C54	C	2.651566	0.098445	-0.107460
C55	C	1.705228	-0.401444	-0.920471
C56	C	2.205228	0.098556	-0.420471
C57	C	1.705272	-0.401404	-1.053868
C58	C	2.205272	0.098596	-0.553868
C59	C	1.721161	-0.184083	-0.591644
C60	C	2.221161	0.315917	-0.091644
C61	C	1.727994	-0.091418	-0.584915
C62	C	2.227994	0.408582	-0.084915
C63	C	1.705096	-0.401568	-0.295613
C64	C	2.205096	0.098432	0.204387
C65	C	1.705302	-0.401372	-0.162199
C66	C	2.205302	0.098628	0.337801
H67	H	1.805278	-0.886215	-0.507520
H68	H	2.305278	-0.386215	-0.007520
H69	H	1.605191	-0.916014	-0.707364
H70	H	2.105191	-0.416014	-0.207364
