data_functionalizedCrystal
_audit_creation_method	'MofGen! by Chris Wilmer'
_symmetry_space_group_name_H-M	'P1'
_symmetry_Int_Tables_number	1
_symmetry_cell_setting	triclinic
loop_
_symmetry_equiv_pos_as_xyz
  x,y,z
_cell_length_a	16.109301
_cell_length_b	10.540539
_cell_length_c	14.586319
_cell_angle_alpha	89.998343
_cell_angle_beta	89.999213
_cell_angle_gamma	83.993486
loop_
_atom_site_label
_atom_site_type_symbol
_atom_site_fract_x
_atom_site_fract_y
_atom_site_fract_z
O1	O	1.104129	0.163159	-0.076178
O2	O	1.604129	0.663159	0.423822
O3	O	0.862191	0.183464	-0.076192
O4	O	1.362191	0.683464	0.423808
O5	O	0.988679	-0.011474	-0.076184
O6	O	1.488679	0.488526	0.423816
O7	O	0.977640	0.358096	-0.076186
O8	O	1.477640	0.858096	0.423814
O9	O	0.988670	-0.011477	0.076297
O10	O	1.488670	0.488523	0.576297
O11	O	0.862182	0.183461	0.076289
O12	O	1.362182	0.683461	0.576289
O13	O	1.104120	0.163156	0.076303
O14	O	1.604120	0.663156	0.576303
Cu15	Cu	0.983150	0.173308	0.090219
Cu16	Cu	1.483150	0.673308	0.590219
Cu17	Cu	0.983160	0.173312	-0.090108
Cu18	Cu	1.483160	0.673312	0.409892
O19	O	0.977631	0.358094	0.076294
O20	O	1.477631	0.858094	0.576294
C21	C	0.831206	0.182640	0.000047
C22	C	1.331206	0.682640	0.500047
C23	C	0.738896	0.180174	0.000041
C24	C	1.238896	0.680174	0.500041
C25	C	0.517296	0.290112	0.000051
C26	C	1.017296	0.790112	0.500051
C27	C	0.430561	0.287785	0.000057
C28	C	0.930561	0.787785	0.500057
C29	C	0.449021	0.056499	0.000055
C30	C	0.949021	0.556499	0.500055
C31	C	0.535754	0.058827	0.000055
C32	C	1.035754	0.558827	0.500055
C33	C	0.569889	0.175637	0.000049
C34	C	1.069889	0.675637	0.500049
C35	C	0.396421	0.170982	0.000054
C36	C	0.896421	0.670982	0.500054
C37	C	0.302380	0.168459	0.000060
C38	C	0.802380	0.668459	0.500060
C39	C	0.663936	0.178162	0.000044
C40	C	1.163936	0.678162	0.500044
C41	C	0.987847	-0.058767	0.000055
C42	C	1.487847	0.441233	0.500055
C43	C	0.985370	-0.199679	0.000050
C44	C	1.485370	0.300321	0.500050
C45	C	0.890460	-0.381753	-0.000298
C46	C	1.390460	0.118247	0.499702
C47	C	0.892971	-0.235171	0.000046
C48	C	1.392971	0.264829	0.500046
C49	C	1.029832	-0.261973	0.087127
C50	C	1.529832	0.238027	0.587127
C51	C	1.026678	-0.408472	0.087200
C52	C	1.526678	0.091528	0.587200
C53	C	1.028567	-0.409014	-0.086199
C54	C	1.528567	0.090986	0.413801
C55	C	1.029419	-0.262044	-0.087350
C56	C	1.529419	0.237956	0.412650
C57	C	1.135104	0.163980	0.000062
C58	C	1.635104	0.663980	0.500062
C59	C	1.227414	0.166446	0.000062
C60	C	1.727414	0.666446	0.500062
C61	C	0.978463	0.405386	0.000054
C62	C	1.478463	0.905386	0.500054
C63	C	0.980940	0.546299	0.000053
C64	C	1.480940	1.046299	0.500053
N65	N	0.983149	0.173305	0.217050
N66	N	1.483149	0.673305	0.717050
N67	N	0.983168	0.173305	-0.216939
N68	N	1.483168	0.673305	0.283061
C69	C	1.039177	0.087015	0.452060
C70	C	1.539177	0.587015	0.952060
C71	C	1.039179	0.087012	0.548042
C72	C	1.539179	0.587012	1.048042
C73	C	0.927134	0.259598	0.548044
C74	C	1.427134	0.759598	1.048044
C75	C	0.927129	0.259594	0.452064
C76	C	1.427129	0.759594	0.952064
C77	C	0.983154	0.173304	0.404075
C78	C	1.483154	0.673304	0.904075
C79	C	0.983163	0.173305	0.596036
C80	C	1.483163	0.673305	1.096036
C81	C	0.983165	0.173303	0.700103
C82	C	1.483165	0.673303	1.200103
C83	C	0.983151	0.173305	0.300001
C84	C	1.483151	0.673305	0.800001
H85	H	0.578578	-0.034398	0.000056
H86	H	1.078578	0.465602	0.500056
N87	N	0.849079	-0.181108	-0.078260
N88	N	1.349079	0.318892	0.421740
N89	N	0.816371	-0.251626	-0.133546
N90	N	1.316371	0.248374	0.366454
H91	H	0.785366	-0.213450	-0.188851
H92	H	1.285366	0.286550	0.311149
N93	N	1.096358	-0.001209	0.403054
N94	N	1.596358	0.498791	0.903054
N95	N	1.146339	-0.078298	0.445915
N96	N	1.646339	0.421702	0.945915
H97	H	1.186705	-0.140641	0.411307
H98	H	1.686705	0.359359	0.911307
H99	H	1.084796	0.016747	0.587109
H100	H	1.584796	0.516747	1.087109
H101	H	0.421218	-0.038605	0.000066
H102	H	0.921218	0.461395	0.500066
H103	H	0.545085	0.385227	0.000052
H104	H	1.045085	0.885227	0.500052
N105	N	0.869921	0.347759	0.597063
N106	N	1.369921	0.847759	1.097063
N107	N	0.871754	0.465088	0.586336
N108	N	1.371754	0.965088	1.086336
H109	H	0.831347	0.527357	0.620953
H110	H	1.331347	1.027357	1.120953
H111	H	0.853964	-0.409832	-0.062742
H112	H	1.353964	0.090168	0.437258
N113	N	0.376837	0.404717	0.000043
N114	N	0.876837	0.904717	0.500043
N115	N	0.326377	0.429226	-0.064228
N116	N	0.826377	0.929226	0.435772
H117	H	0.288432	0.511813	-0.064236
H118	H	0.788432	1.011813	0.435764
N119	N	0.869889	0.347742	0.403056
N120	N	1.369889	0.847742	0.903056
N121	N	0.819874	0.424783	0.445912
N122	N	1.319874	0.924783	0.945912
H123	H	0.779447	0.487031	0.411300
H124	H	1.279447	0.987031	0.911300
N125	N	0.844858	-0.419008	0.077594
N126	N	1.344858	0.080992	0.577594
N127	N	0.878706	-0.498317	0.133363
N128	N	1.378706	0.001683	0.633363
H129	H	0.846502	-0.524633	0.188376
H130	H	1.346502	-0.024633	0.688376
N131	N	0.848766	-0.182168	0.078480
N132	N	1.348766	0.317832	0.578480
N133	N	0.815967	-0.253451	0.133141
N134	N	1.315967	0.246549	0.633141
H135	H	0.784746	-0.216021	0.188540
H136	H	1.284746	0.283979	0.688540
H137	H	0.993812	-0.436204	0.152288
H138	H	1.493812	0.063796	0.652288
N139	N	1.110042	-0.469826	0.092173
N140	N	1.610042	0.030174	0.592173
N141	N	1.170363	-0.404408	0.095584
N142	N	1.670363	0.095592	0.595584
H143	H	1.229238	-0.447733	0.099103
H144	H	1.729238	0.052267	0.599103
N145	N	1.114955	-0.235144	0.091184
N146	N	1.614955	0.264856	0.591184
N147	N	1.143870	-0.169654	0.029799
N148	N	1.643870	0.330346	0.529799
H149	H	1.203989	-0.150704	0.032662
H150	H	1.703989	0.349296	0.532662
N151	N	0.991072	-0.207977	0.168408
N152	N	1.491072	0.292023	0.668408
N153	N	0.930714	-0.123635	0.162431
N154	N	1.430714	0.376365	0.662431
H155	H	0.903334	-0.085501	0.219834
H156	H	1.403334	0.414499	0.719834
H157	H	0.998666	-0.440139	-0.152197
H158	H	1.498666	0.059861	0.347803
N159	N	0.988654	-0.210106	-0.168158
N160	N	1.488654	0.289894	0.331842
N161	N	0.927389	-0.127463	-0.161476
N162	N	1.427389	0.372537	0.338524
H163	H	0.898596	-0.090774	-0.218545
H164	H	1.398596	0.409226	0.281455
H165	H	1.095307	-0.457191	-0.086781
H166	H	1.595307	0.042809	0.413219
N167	N	1.113928	-0.232855	-0.093927
N168	N	1.613928	0.267145	0.406073
N169	N	1.164650	-0.266060	-0.031388
N170	N	1.664650	0.233940	0.468612
H171	H	1.224338	-0.245441	-0.036024
H172	H	1.724338	0.254559	0.463976
