data_functionalizedCrystal
_audit_creation_method	'MofGen! by Chris Wilmer'
_symmetry_space_group_name_H-M	'P1'
_symmetry_Int_Tables_number	1
_symmetry_cell_setting	triclinic
loop_
_symmetry_equiv_pos_as_xyz
  x,y,z
_cell_length_a	12.759401
_cell_length_b	25.639239
_cell_length_c	12.759393
_cell_angle_alpha	89.964022
_cell_angle_beta	89.979062
_cell_angle_gamma	90.040211
loop_
_atom_site_label
_atom_site_type_symbol
_atom_site_fract_x
_atom_site_fract_y
_atom_site_fract_z
Zn1	Zn	1.606091	-0.208104	-0.593980
Zn2	Zn	1.605909	-0.295549	-0.418283
Zn3	Zn	1.430390	-0.208132	-0.418315
Zn4	Zn	1.430308	-0.295513	-0.593921
O5	O	1.518175	-0.251825	-0.506125
O6	O	1.753088	-0.219708	-0.570685
O7	O	1.582584	-0.283980	-0.271266
O8	O	1.453808	-0.134963	-0.441656
O9	O	1.752954	-0.283953	-0.441601
O10	O	1.582895	-0.134943	-0.570716
O11	O	1.453631	-0.219755	-0.271290
O12	O	1.283358	-0.219720	-0.441598
O13	O	1.453669	-0.283891	-0.740950
O14	O	1.283298	-0.283918	-0.570615
O15	O	1.582816	-0.219672	-0.740993
O16	O	1.582505	-0.368710	-0.441544
O17	O	1.453492	-0.368683	-0.570584
C18	C	1.245207	-0.251818	-0.506104
C19	C	1.128431	-0.251828	-0.506120
C20	C	1.073565	-0.285307	-0.573193
C21	C	0.963841	-0.285309	-0.573214
C22	C	0.963858	-0.218352	-0.439079
C23	C	1.073580	-0.218347	-0.439065
C24	C	1.517998	-0.387667	-0.506077
C25	C	1.518018	-0.445781	-0.506091
C26	C	1.585527	-0.806146	-0.439048
C27	C	1.585568	-0.860750	-0.439062
O28	O	1.642783	-0.888988	-0.382007
N29	N	1.518359	-0.888064	-0.506194
C30	C	1.451113	-0.860770	-0.573324
O31	O	1.393952	-0.889017	-0.630428
C32	C	1.451079	-0.806167	-0.573315
C33	C	1.518284	-0.778856	-0.506171
C34	C	1.652728	-0.778835	-0.371910
C35	C	1.652685	-0.724234	-0.371895
C36	C	1.585442	-0.696945	-0.439018
C37	C	1.518242	-0.724255	-0.506156
C38	C	1.383839	-0.778874	-0.640449
C39	C	1.383810	-0.724267	-0.640435
C40	C	1.451016	-0.696957	-0.573291
C41	C	1.450956	-0.642365	-0.573263
N42	N	1.518165	-0.615052	-0.506131
C43	C	1.585408	-0.642341	-0.439008
C44	C	1.451192	-0.975441	-0.573341
C45	C	1.451221	-1.030043	-0.573346
C46	C	1.585677	-1.030019	-0.439085
C47	C	1.585642	-0.975416	-0.439075
C48	C	1.518401	-0.948127	-0.506208
C49	C	1.585313	-0.527676	-0.438981
C50	C	1.585261	-0.473071	-0.438969
C51	C	1.450810	-0.473100	-0.573233
C52	C	1.450857	-0.527700	-0.573242
C53	C	1.518117	-0.554987	-0.506112
O54	O	1.393774	-0.614093	-0.630292
O55	O	1.642569	-0.614088	-0.381925
C56	C	1.792208	-0.251831	-0.506146
C57	C	1.908984	-0.251834	-0.506156
C58	C	1.518253	-0.251774	-0.780158
C59	C	1.518287	-0.251753	-0.896935
C60	C	1.518381	-0.115452	-0.506196
C61	C	1.518468	-0.057337	-0.506226
C62	C	1.585539	-0.218309	-0.951821
C63	C	1.585556	-0.218286	-1.061546
C64	C	1.451068	-0.285156	-1.061487
C65	C	1.451045	-0.285176	-0.951765
C66	C	1.518157	-0.251837	-0.233157
C67	C	1.518327	-0.251711	-0.116381
H68	H	0.919174	-0.312570	-0.627833
H69	H	1.118221	-0.312568	-0.627796
C70	C	0.795668	-0.188627	-0.379543
C71	C	0.903562	-0.181553	-0.365371
H72	H	0.758448	-0.165911	-0.334032
H73	H	0.777738	-0.181019	-0.450157
H74	H	0.777645	-0.223749	-0.364035
H75	H	0.921586	-0.146432	-0.380887
H76	H	0.921500	-0.189158	-0.294741
C77	C	1.062584	-0.152165	-0.306465
C78	C	1.133897	-0.181546	-0.365328
H79	H	1.099824	-0.129449	-0.260944
H80	H	1.019839	-0.132195	-0.352317
H81	H	1.019738	-0.174927	-0.266200
H82	H	1.176738	-0.158784	-0.405600
H83	H	1.176660	-0.201518	-0.319471
H84	H	1.640318	-0.191052	-1.106229
H85	H	1.639988	-0.450836	-0.384288
H86	H	1.640288	-0.191092	-0.907182
H87	H	1.396136	-0.549938	-0.627919
C88	C	1.318116	-0.351280	-0.962720
C89	C	1.377121	-0.321943	-0.891426
H90	H	1.272484	-0.373978	-0.925466
H91	H	1.277971	-0.328493	-1.005518
H92	H	1.363878	-0.371273	-1.005515
H93	H	1.331358	-0.301947	-0.848636
H94	H	1.417268	-0.344733	-0.848609
H95	H	1.329108	-0.801102	-0.695120
H96	H	1.396324	-0.312369	-1.106143
H97	H	1.396058	-0.450872	-0.627881
C98	C	1.718201	-0.522153	-0.306255
C99	C	1.659238	-0.557665	-0.365184
H100	H	1.763829	-0.540667	-0.260689
H101	H	1.758347	-0.500820	-0.352063
H102	H	1.672411	-0.500893	-0.266035
H103	H	1.705027	-0.578922	-0.405410
H104	H	1.619089	-0.579007	-0.319371
H105	H	1.707491	-0.801048	-0.317251
C106	C	1.785605	-0.729712	-0.239206
C107	C	1.726576	-0.694219	-0.298103
H108	H	1.831231	-0.711183	-0.193656
H109	H	1.739864	-0.751044	-0.198979
H110	H	1.825765	-0.750975	-0.285042
H111	H	1.686409	-0.672958	-0.252267
H112	H	1.772322	-0.672878	-0.338333
H113	H	1.396428	-0.953225	-0.628006
C114	C	1.324045	-0.640576	-0.700050
C115	C	1.309894	-0.694272	-0.714231
H116	H	1.278415	-0.622060	-0.745612
H117	H	1.308691	-0.631664	-0.629454
H118	H	1.394624	-0.631588	-0.715485
H119	H	1.239316	-0.703261	-0.698788
H120	H	1.325240	-0.703188	-0.784843
H121	H	1.640367	-0.953182	-0.384401
H122	H	1.640434	-1.052248	-0.384433
H123	H	1.396486	-1.052275	-0.628011
