data_functionalizedCrystal
_audit_creation_method	'MofGen! by Chris Wilmer'
_symmetry_space_group_name_H-M	'P1'
_symmetry_Int_Tables_number	1
_symmetry_cell_setting	triclinic
loop_
_symmetry_equiv_pos_as_xyz
  x,y,z
_cell_length_a	15.944564
_cell_length_b	11.026607
_cell_length_c	9.482900
_cell_angle_alpha	78.599815
_cell_angle_beta	99.286246
_cell_angle_gamma	96.044976
loop_
_atom_site_label
_atom_site_type_symbol
_atom_site_fract_x
_atom_site_fract_y
_atom_site_fract_z
O1	O	-1.148393	-0.137612	-0.120735
O2	O	-0.906763	-0.156887	-0.120771
O3	O	-1.007551	0.029406	-0.120751
O4	O	-1.047605	-0.323905	-0.120755
O5	O	-0.987102	-0.008586	0.121038
O6	O	-0.886313	-0.194879	0.121018
O7	O	-1.127944	-0.175604	0.121053
Cu8	Cu	-1.005261	-0.188711	0.143113
Cu9	Cu	-1.029445	-0.143780	-0.142830
O10	O	-1.027155	-0.361897	0.121033
C11	C	-0.865123	-0.175079	0.000119
C12	C	-0.771515	-0.172669	0.000105
C13	C	-0.989938	0.055622	0.000141
C14	C	-0.967912	0.190341	0.000132
N15	N	-0.988258	-0.220311	0.344229
C16	C	-0.538330	-0.051439	0.000135
C17	C	-0.495902	-0.088993	-0.119080
C18	C	-0.600130	-0.168316	0.000123
C19	C	-0.475767	-0.126478	0.119304
C20	C	-0.434579	-0.164103	0.000146
C21	C	-0.558943	-0.205887	-0.119191
C22	C	-0.538803	-0.243373	0.119300
C23	C	-0.496407	-0.281008	0.000056
C24	C	-0.695500	-0.170739	0.000108
C25	C	-0.339213	-0.161687	0.000150
C26	C	-0.169583	-0.157395	0.000160
C27	C	-0.263189	-0.159754	0.000164
C28	C	-1.044769	-0.388113	0.000139
C29	C	-1.066796	-0.522830	0.000137
C30	C	-1.028731	0.264137	0.000139
C31	C	-1.005968	0.403376	0.000131
N32	N	-1.046454	-0.112170	-0.343947
C33	C	-1.024423	-0.153095	0.416436
C34	C	-1.010283	-0.179397	0.583850
H35	H	-0.557013	0.045579	-0.000011
H36	H	-0.439681	-0.092858	0.220088
H37	H	-0.557876	-0.308604	0.220092
Cl38	Cl	-1.088160	-0.033909	0.320535
H39	H	-1.097653	0.224232	0.000158
H40	H	-0.937041	0.443275	0.000111
H41	H	-0.968846	-0.256416	0.645967
H42	H	-0.946823	-0.297326	0.406351
H43	H	-0.594931	-0.239431	-0.220088
H44	H	-0.898990	0.230246	0.000113
Cl45	Cl	-1.110643	0.006491	0.560162
Cl46	Cl	-1.173216	0.415584	0.000146
Cl47	Cl	-0.467877	-0.430896	-0.000044
Cl48	Cl	-0.466478	0.011776	-0.274690
