data_functionalizedCrystal
_audit_creation_method	'MofGen! by Chris Wilmer'
_symmetry_space_group_name_H-M	'P1'
_symmetry_Int_Tables_number	1
_symmetry_cell_setting	triclinic
loop_
_symmetry_equiv_pos_as_xyz
  x,y,z
_cell_length_a	17.699083
_cell_length_b	10.868271
_cell_length_c	17.699092
_cell_angle_alpha	90.003449
_cell_angle_beta	83.284691
_cell_angle_gamma	89.998288
loop_
_atom_site_label
_atom_site_type_symbol
_atom_site_fract_x
_atom_site_fract_y
_atom_site_fract_z
O1	O	1.004078	0.102145	0.095711
O2	O	1.504078	0.602145	0.595711
O3	O	0.783700	0.102185	0.108164
O4	O	1.283700	0.602185	0.608164
O5	O	0.900112	0.102161	-0.008251
O6	O	1.400112	0.602161	0.491749
O7	O	0.887666	0.102169	0.212126
O8	O	1.387666	0.602169	0.712126
O9	O	0.900103	-0.102484	-0.008256
O10	O	1.400103	0.397516	0.491744
O11	O	0.783691	-0.102460	0.108159
O12	O	1.283691	0.397540	0.608159
O13	O	1.004069	-0.102499	0.095707
O14	O	1.504069	0.397501	0.595707
Zn15	Zn	0.893878	-0.134971	0.101932
Zn16	Zn	1.393878	0.365029	0.601932
Zn17	Zn	0.893891	0.134657	0.101938
Zn18	Zn	1.393891	0.634657	0.601938
O19	O	0.887657	-0.102476	0.212122
O20	O	1.387657	0.397524	0.712122
C21	C	0.755499	-0.000132	0.107715
C22	C	1.255499	0.499868	0.607715
C23	C	0.671480	-0.000117	0.106377
C24	C	1.171480	0.499883	0.606377
N25	N	0.893875	-0.318985	0.101928
N26	N	1.393875	0.181015	0.601928
C27	C	0.622862	-0.000115	0.174710
C28	C	1.122862	0.499885	0.674710
C29	C	0.543918	-0.000131	0.173448
C30	C	1.043918	0.499869	0.673448
C31	C	0.513595	-0.000140	0.103851
C32	C	1.013595	0.499860	0.603851
C33	C	0.562220	-0.000146	0.035513
C34	C	1.062220	0.499854	0.535513
C35	C	0.641162	-0.000139	0.036776
C36	C	1.141162	0.499861	0.536776
C37	C	0.243857	-0.000177	0.030418
C38	C	0.743857	0.499823	0.530418
C39	C	0.164909	-0.000180	0.029160
C40	C	0.664909	0.499820	0.529160
C41	C	0.146613	-0.000169	0.167089
C42	C	0.646613	0.499831	0.667089
C43	C	0.225555	-0.000162	0.168352
C44	C	0.725555	0.499838	0.668352
C45	C	0.274173	-0.000174	0.100014
C46	C	0.774173	0.499826	0.600014
C47	C	0.359772	-0.000159	0.101384
C48	C	0.859772	0.499841	0.601384
C49	C	0.427998	-0.000146	0.102481
C50	C	0.927998	0.499854	0.602481
C51	C	0.893887	-0.569991	0.101937
C52	C	1.393887	-0.069991	0.601937
C53	C	0.893878	-0.430314	0.101934
C54	C	1.393878	0.069686	0.601934
C55	C	1.032271	-0.000180	0.096155
C56	C	1.532271	0.499820	0.596155
C57	C	1.116289	-0.000187	0.097494
C58	C	1.616289	0.499813	0.597494
C59	C	0.899661	-0.000159	-0.036450
C60	C	1.399661	0.499841	0.463550
C61	C	0.898319	-0.000153	-0.120468
C62	C	1.398319	0.499847	0.379532
N63	N	0.893900	0.318671	0.101937
N64	N	1.393900	0.818671	0.601937
C65	C	0.897696	0.111400	-0.159933
C66	C	1.397696	0.611400	0.340067
C67	C	0.896431	0.111402	-0.238876
C68	C	1.396431	0.611402	0.261124
C69	C	0.895795	-0.000151	-0.278353
C70	C	1.395795	0.499849	0.221647
C71	C	0.896416	-0.111713	-0.238883
C72	C	1.396416	0.388287	0.261117
C73	C	0.897675	-0.111714	-0.159940
C74	C	1.397675	0.388286	0.340060
C75	C	0.891336	-0.111714	-0.557248
C76	C	1.391336	0.388286	-0.057248
C77	C	0.890078	-0.111705	-0.636196
C78	C	1.390078	0.388295	-0.136196
C79	C	0.890092	0.111401	-0.636183
C80	C	1.390092	0.611401	-0.136183
C81	C	0.891351	0.111401	-0.557241
C82	C	1.391351	0.611401	-0.057241
C83	C	0.891968	-0.000160	-0.517777
C84	C	1.391968	0.499840	-0.017777
C85	C	0.893338	-0.000161	-0.432178
C86	C	1.393338	0.499839	0.067822
C87	C	0.894430	-0.000152	-0.363952
C88	C	1.394430	0.499848	0.136048
C89	C	0.888109	-0.000153	0.240321
C90	C	1.388109	0.499847	0.740321
C91	C	0.889450	-0.000150	0.324339
C92	C	1.389450	0.499850	0.824339
H93	H	0.647544	-0.000107	0.231383
H94	H	1.147544	0.499893	0.731383
H95	H	0.107018	-0.000165	0.222733
H96	H	0.607018	0.499835	0.722733
C97	C	0.086742	-0.105396	-0.052273
C98	C	0.586742	0.394604	0.447727
C99	C	0.131574	-0.000198	-0.047345
C100	C	0.631574	0.499802	0.452655
H101	H	0.066158	-0.105399	-0.099499
H102	H	0.566158	0.394601	0.400501
H103	H	0.117160	-0.176746	-0.048918
H104	H	0.617160	0.323254	0.451082
H105	H	0.046493	-0.105375	-0.011749
H106	H	0.546493	0.394625	0.488251
H107	H	0.171827	-0.000224	-0.087865
H108	H	0.671827	0.499776	0.412135
H109	H	0.101154	0.071171	-0.050707
H110	H	0.601154	0.571171	0.449293
H111	H	0.889558	-0.202550	-0.668336
H112	H	1.389558	0.297450	-0.168336
H113	H	0.895893	-0.202542	-0.271031
H114	H	1.395893	0.297458	0.228969
H115	H	0.283433	-0.000188	-0.025227
H116	H	0.783433	0.499812	0.474773
H117	H	0.898172	-0.202552	-0.127808
H118	H	1.398172	0.297448	0.372192
C119	C	0.740557	0.105062	-0.041818
C120	C	1.240557	0.605062	0.458182
C121	C	0.694611	-0.000137	-0.038336
C122	C	1.194611	0.499863	0.461664
H123	H	0.773556	0.105053	-0.088189
H124	H	1.273556	0.605053	0.411811
H125	H	0.709378	0.176412	-0.039448
H126	H	1.209378	0.676412	0.460552
H127	H	0.769907	0.105054	-0.000183
H128	H	1.269907	0.605054	0.499817
H129	H	0.665256	-0.000124	-0.079968
H130	H	1.165256	0.499876	0.420032
H131	H	0.725793	-0.071505	-0.040713
H132	H	1.225793	0.428495	0.459287
H133	H	0.537525	-0.000171	-0.021154
H134	H	1.037525	0.499829	0.478846
H135	H	0.895927	0.202240	-0.271005
H136	H	1.395927	0.702240	0.228995
H137	H	0.504335	-0.000128	0.229091
H138	H	1.004335	0.499872	0.729091
H139	H	0.898219	0.202240	-0.127797
H140	H	1.398219	0.702240	0.372203
C141	C	0.199538	-0.000167	0.304568
C142	C	0.699538	0.499833	0.804568
C143	C	0.258885	-0.000158	0.244854
C144	C	0.758885	0.499842	0.744854
H145	H	0.220115	-0.000176	0.351797
H146	H	0.720115	0.499824	0.851797
H147	H	0.169127	0.071192	0.301212
H148	H	0.669127	0.571192	0.801212
H149	H	0.169130	-0.071537	0.301198
H150	H	0.669130	0.428463	0.801198
H151	H	0.289289	0.071218	0.248221
H152	H	0.789289	0.571218	0.748221
H153	H	0.289308	-0.071523	0.248212
H154	H	0.789308	0.428477	0.748212
H155	H	0.891873	0.202239	-0.525103
H156	H	1.391873	0.702239	-0.025103
H157	H	0.889585	0.202240	-0.668324
H158	H	1.389585	0.702240	-0.168324
H159	H	0.891853	-0.202554	-0.525127
H160	H	1.391853	0.297446	-0.025127
