data_functionalizedCrystal
_audit_creation_method	'MofGen! by Chris Wilmer'
_symmetry_space_group_name_H-M	'P1'
_symmetry_Int_Tables_number	1
_symmetry_cell_setting	triclinic
loop_
_symmetry_equiv_pos_as_xyz
  x,y,z
_cell_length_a	11.169417
_cell_length_b	18.050590
_cell_length_c	11.169417
_cell_angle_alpha	90.013256
_cell_angle_beta	90.000551
_cell_angle_gamma	90.019802
loop_
_atom_site_label
_atom_site_type_symbol
_atom_site_fract_x
_atom_site_fract_y
_atom_site_fract_z
Zn1	Zn	1.834669	-0.295756	0.678485
Zn2	Zn	1.834596	-0.419917	0.477782
Zn3	Zn	1.634021	-0.295748	0.477821
Zn4	Zn	1.633934	-0.419911	0.678428
O5	O	1.734305	-0.357833	0.578129
O6	O	2.002609	-0.312232	0.651869
O7	O	1.807996	-0.403445	0.309838
O8	O	1.660705	-0.191825	0.504479
O9	O	2.002556	-0.403453	0.504414
O10	O	1.808120	-0.191830	0.651906
O11	O	1.660634	-0.312219	0.309866
O12	O	1.466060	-0.312213	0.504424
O13	O	1.660556	-0.403442	0.846385
O14	O	1.465996	-0.403435	0.651809
O15	O	1.808035	-0.312226	0.846427
O16	O	1.807911	-0.523841	0.504359
O17	O	1.660485	-0.523837	0.651772
C18	C	1.422480	-0.357823	0.578115
C19	C	1.289081	-0.357837	0.578138
C20	C	1.734213	-0.550785	0.578081
C21	C	1.734283	-0.633331	0.578101
C22	C	1.814620	-0.832757	0.498049
C23	C	1.843908	-0.882107	0.607585
C24	C	1.734351	-0.784461	0.578149
C25	C	1.705186	-0.882193	0.468662
C26	C	1.734419	-0.930446	0.578185
C27	C	1.763695	-0.832724	0.687742
C28	C	1.624922	-0.832806	0.548745
C29	C	1.654168	-0.882133	0.658357
C30	C	1.734315	-0.700363	0.578126
C31	C	1.734455	-1.014543	0.578220
C32	C	2.047347	-0.357844	0.578144
C33	C	2.180747	-0.357848	0.578150
C34	C	1.734294	-0.357834	0.891171
C35	C	1.734289	-0.357835	1.024571
C36	C	1.734430	-0.164127	0.578203
C37	C	1.734484	-0.081582	0.578235
C38	C	1.734302	-0.357845	1.266304
C39	C	1.734292	-0.357836	1.132904
H40	H	1.882524	-0.811077	0.430382
O41	O	1.954430	-0.907819	0.637246
C42	C	2.157334	-0.876737	0.690709
C43	C	2.032229	-0.847527	0.657119
H44	H	2.220263	-0.828005	0.706810
H45	H	2.193601	-0.912348	0.614610
H46	H	2.150727	-0.911491	0.775664
H47	H	2.038734	-0.812741	0.572195
H48	H	1.996008	-0.811956	0.733288
H49	H	1.788300	-0.811087	0.780428
O50	O	1.675922	-0.908152	0.358154
C51	C	1.736883	-0.981602	0.188623
C52	C	1.770173	-0.952244	0.313752
H53	H	1.813055	-1.017270	0.152697
H54	H	1.721019	-0.932967	0.125493
H55	H	1.651877	-1.016348	0.195081
H56	H	1.855194	-0.917510	0.307409
H57	H	1.785959	-1.000913	0.376833
O58	O	1.573356	-0.907806	0.739435
C59	C	1.512828	-0.911551	0.946419
C60	C	1.604440	-0.882440	0.854727
H61	H	1.537912	-0.891042	1.039649
H62	H	1.512894	-0.974706	0.945395
H63	H	1.419795	-0.890412	0.922071
H64	H	1.697518	-0.903524	0.879011
H65	H	1.604270	-0.819286	0.855767
O66	O	1.514484	-0.806908	0.519226
C67	C	1.343882	-0.734595	0.580630
C68	C	1.468930	-0.763889	0.614241
H69	H	1.307025	-0.699795	0.657420
H70	H	1.281255	-0.783263	0.562915
H71	H	1.350830	-0.698996	0.496620
H72	H	1.462098	-0.799476	0.698268
H73	H	1.531509	-0.715187	0.631878
