data_functionalizedCrystal
_audit_creation_method	'MofGen! by Chris Wilmer'
_symmetry_space_group_name_H-M	'P1'
_symmetry_Int_Tables_number	1
_symmetry_cell_setting	triclinic
loop_
_symmetry_equiv_pos_as_xyz
  x,y,z
_cell_length_a	8.559649
_cell_length_b	8.559649
_cell_length_c	7.088929
_cell_angle_alpha	95.324765
_cell_angle_beta	95.344185
_cell_angle_gamma	110.221336
loop_
_atom_site_label
_atom_site_type_symbol
_atom_site_fract_x
_atom_site_fract_y
_atom_site_fract_z
O1	O	0.036317	2.108184	-0.158969
O2	O	-0.047465	1.632698	-0.158974
O3	O	0.232169	1.912332	-0.158969
O4	O	-0.243317	1.828550	-0.158974
O5	O	0.269614	1.949711	0.159006
O6	O	-0.010019	1.670078	0.159002
O7	O	0.073762	2.145563	0.159006
Cu8	Cu	0.035291	1.911233	0.188038
Cu9	Cu	-0.008993	1.867028	-0.188005
O10	O	-0.205871	1.865930	0.159002
C11	C	0.311200	1.937370	0.000015
C12	C	0.490898	1.956268	0.000005
C13	C	-0.035091	1.591079	0.000013
C14	C	-0.053991	1.411379	0.000011
C15	C	0.061389	2.187182	0.000015
C16	C	0.080286	2.366880	0.000005
C17	C	-0.284903	1.840891	0.000013
C18	C	-0.464602	1.821991	0.000011
N19	N	0.066440	1.942337	0.452526
N20	N	-0.040128	1.835939	-0.452494
H21	H	0.436020	1.692572	0.000016
O22	O	0.212736	2.088421	0.560667
H23	H	0.210159	2.085850	0.716624
O24	O	0.251736	2.498518	0.000013
H25	H	0.335643	2.499392	0.129609
O26	O	0.622539	2.127720	0.000035
H27	H	0.592944	2.181146	-0.129558
O28	O	-0.225433	2.279758	0.000018
H29	H	-0.213873	2.154537	0.000023
O30	O	-0.186393	1.689840	0.439374
H31	H	-0.183792	1.692395	0.283418
