data_functionalizedCrystal
_audit_creation_method	'MofGen! by Chris Wilmer'
_symmetry_space_group_name_H-M	'P1'
_symmetry_Int_Tables_number	1
_symmetry_cell_setting	triclinic
loop_
_symmetry_equiv_pos_as_xyz
  x,y,z
_cell_length_a	19.805407
_cell_length_b	19.805406
_cell_length_c	19.805399
_cell_angle_alpha	89.984242
_cell_angle_beta	90.018378
_cell_angle_gamma	90.001047
loop_
_atom_site_label
_atom_site_type_symbol
_atom_site_fract_x
_atom_site_fract_y
_atom_site_fract_z
Zn1	Zn	-1.034842	-0.269488	-0.382809
Zn2	Zn	-0.534842	0.230512	0.117191
Zn3	Zn	-1.034815	-0.382679	-0.269647
Zn4	Zn	-0.534815	0.117321	0.230353
Zn5	Zn	-0.921662	-0.269507	-0.269630
Zn6	Zn	-0.421662	0.230493	0.230370
Zn7	Zn	-0.921673	-0.382638	-0.382791
Zn8	Zn	-0.421673	0.117362	0.117209
O9	O	-0.978248	-0.326078	-0.326219
O10	O	-0.478248	0.173922	0.173781
O11	O	-1.129555	-0.284512	-0.367812
O12	O	-0.629555	0.215488	0.132188
O13	O	-1.019789	-0.367692	-0.174928
O14	O	-0.519789	0.132308	0.325072
O15	O	-0.936683	-0.174788	-0.284645
O16	O	-0.436683	0.325212	0.215355
O17	O	-1.129535	-0.367673	-0.284672
O18	O	-0.629535	0.132327	0.215328
O19	O	-1.019836	-0.174774	-0.367796
O20	O	-0.519836	0.325226	0.132204
O21	O	-0.936656	-0.284545	-0.174916
O22	O	-0.436656	0.215455	0.325084
O23	O	-0.826947	-0.284505	-0.284627
O24	O	-0.326947	0.215495	0.215373
O25	O	-0.936701	-0.367603	-0.477510
O26	O	-0.436701	0.132397	0.022490
O27	O	-0.826955	-0.367622	-0.367765
O28	O	-0.326955	0.132378	0.132235
O29	O	-1.019846	-0.284472	-0.477523
O30	O	-0.519846	0.215528	0.022477
O31	O	-1.019799	-0.477390	-0.284655
O32	O	-0.519799	0.022610	0.215345
O33	O	-0.936674	-0.477360	-0.367781
O34	O	-0.436674	0.022640	0.132219
C35	C	-0.802392	-0.326062	-0.326193
C36	C	-0.302392	0.173938	0.173807
C37	C	-0.727160	-0.326071	-0.326197
C38	C	-0.227160	0.173929	0.173803
C39	C	-0.978253	-0.501934	-0.326232
C40	C	-0.478253	-0.001934	0.173768
C41	C	-0.978317	-0.577166	-0.326261
C42	C	-0.478317	-0.077166	0.173739
C43	C	-0.978277	-0.326031	-0.502762
C44	C	-0.478277	0.173969	-0.002762
C45	C	-0.978290	-0.326011	-0.577994
C46	C	-0.478290	0.173989	-0.077994
C47	C	-0.691837	-0.369415	-0.369417
C48	C	-0.191837	0.130585	0.130583
C49	C	-0.621149	-0.369415	-0.369424
C50	C	-0.121149	0.130585	0.130576
C51	C	-0.585784	-0.326074	-0.326209
C52	C	-0.085784	0.173926	0.173791
C53	C	-0.621112	-0.282726	-0.282988
C54	C	-0.121112	0.217274	0.217012
C55	C	-0.691799	-0.282723	-0.282984
C56	C	-0.191799	0.217277	0.217016
C57	C	-0.336038	-0.282736	-0.283003
C58	C	0.163962	0.217264	0.216997
C59	C	-0.265346	-0.282743	-0.283009
C60	C	0.234654	0.217257	0.216991
C61	C	-0.265388	-0.369427	-0.369443
C62	C	0.234612	0.130573	0.130557
C63	C	-0.336076	-0.369425	-0.369439
C64	C	0.163924	0.130575	0.130561
C65	C	-0.371397	-0.326074	-0.326221
C66	C	0.128603	0.173926	0.173779
C67	C	-0.448045	-0.326074	-0.326214
C68	C	0.051955	0.173926	0.173786
C69	C	-0.509137	-0.326077	-0.326212
C70	C	-0.009137	0.173923	0.173788
C71	C	-0.154791	-0.326090	-0.326240
C72	C	0.345209	0.173910	0.173760
C73	C	-0.230022	-0.326084	-0.326232
C74	C	0.269978	0.173916	0.173768
C75	C	-0.978261	-0.149535	-0.326221
C76	C	-0.478261	0.350465	0.173779
C77	C	-0.978267	-0.074303	-0.326221
C78	C	-0.478267	0.425697	0.173779
C79	C	-0.934979	-0.038965	-0.282931
C80	C	-0.434979	0.461035	0.217069
C81	C	-0.934983	0.031723	-0.282938
C82	C	-0.434983	0.531723	0.217062
C83	C	-0.978279	0.067072	-0.326233
C84	C	-0.478279	0.567072	0.173767
C85	C	-1.021569	0.031730	-0.369529
C86	C	-0.521569	0.531730	0.130471
C87	C	-1.021561	-0.038958	-0.369524
C88	C	-0.521561	0.461042	0.130476
C89	C	-1.021602	0.316803	-0.369549
C90	C	-0.521602	0.816803	0.130451
C91	C	-1.021609	0.387495	-0.369549
C92	C	-0.521609	0.887495	0.130451
C93	C	-0.935025	0.387483	-0.282962
C94	C	-0.435025	0.887483	0.217038
C95	C	-0.935017	0.316796	-0.282958
C96	C	-0.435017	0.816796	0.217042
C97	C	-0.978304	0.281460	-0.326256
C98	C	-0.478304	0.781460	0.173744
C99	C	-0.978297	0.204811	-0.326248
C100	C	-0.478297	0.704811	0.173752
C101	C	-0.978289	0.143719	-0.326238
C102	C	-0.478289	0.643719	0.173762
C103	C	-0.935015	-0.282712	-0.613331
C104	C	-0.435015	0.217288	-0.113331
C105	C	-0.935025	-0.282699	-0.684020
C106	C	-0.435025	0.217301	-0.184020
C107	C	-0.978313	-0.325982	-0.719370
C108	C	-0.478313	0.174018	-0.219370
C109	C	-1.021589	-0.369285	-0.684027
C110	C	-0.521589	0.130715	-0.184027
C111	C	-1.021576	-0.369301	-0.613340
C112	C	-0.521576	0.130699	-0.113340
C113	C	-1.021643	-0.369222	-0.969101
C114	C	-0.521643	0.130778	-0.469101
C115	C	-1.021654	-0.369201	-1.039793
C116	C	-0.521654	0.130799	-0.539793
C117	C	-0.935091	-0.282620	-1.039780
C118	C	-0.435091	0.217380	-0.539780
C119	C	-0.935078	-0.282636	-0.969093
C120	C	-0.435078	0.217364	-0.469093
C121	C	-0.978352	-0.325941	-0.933757
C122	C	-0.478352	0.174059	-0.433757
C123	C	-0.978341	-0.325956	-0.857109
C124	C	-0.478341	0.174044	-0.357109
C125	C	-0.978328	-0.325964	-0.796017
C126	C	-0.478328	0.174036	-0.296017
C127	C	-0.978257	-0.326076	-0.150363
C128	C	-0.478257	0.173924	0.349637
C129	C	-0.978376	-0.325905	-0.075132
C130	C	-0.478376	0.174095	0.424868
H131	H	-0.720626	-0.404710	-0.404605
H132	H	-0.220626	0.095290	0.095395
H133	H	-0.592393	-0.404710	-0.404617
H134	H	-0.092393	0.095290	0.095383
Cl135	Cl	-0.380530	-0.423914	-0.423767
Cl136	Cl	0.119470	0.076086	0.076233
H137	H	-0.592312	-0.247434	-0.247804
H138	H	-0.092312	0.252566	0.252196
Cl139	Cl	-0.220888	-0.228253	-0.228678
Cl140	Cl	0.279112	0.271747	0.271322
H141	H	-0.720557	-0.247425	-0.247794
H142	H	-0.220557	0.252575	0.252206
Cl143	Cl	-1.075982	-0.083382	-0.423951
Cl144	Cl	-0.575982	0.416618	0.076049
H145	H	-0.899725	-0.067742	-0.247672
H146	H	-0.399725	0.432258	0.252328
H147	H	-0.364788	-0.247442	-0.247807
H148	H	0.135212	0.252558	0.252193
Cl149	Cl	-0.880553	0.076145	-0.228522
Cl150	Cl	-0.380553	0.576145	0.271478
H151	H	-0.899783	-0.247444	-0.712788
H152	H	-0.399783	0.252556	-0.212788
Cl153	Cl	-1.076041	0.431933	-0.423982
Cl154	Cl	-0.576041	0.931933	0.076018
Cl155	Cl	-1.076005	-0.423702	-0.728467
Cl156	Cl	-0.576005	0.076298	-0.228467
Cl157	Cl	-1.076014	0.272389	-0.423987
Cl158	Cl	-0.576014	0.772389	0.076013
Cl159	Cl	-0.880686	-0.228180	-1.084207
Cl160	Cl	-0.380686	0.271820	-0.584207
H161	H	-0.899763	0.288018	-0.247700
H162	H	-0.399763	0.788018	0.252300
Cl163	Cl	-1.076077	-0.423619	-1.084232
Cl164	Cl	-0.576077	0.076381	-0.584232
Cl165	Cl	-1.075992	0.076169	-0.423965
Cl166	Cl	-0.575992	0.576169	0.076035
H167	H	-0.899769	-0.247463	-0.584555
H168	H	-0.399769	0.252537	-0.084555
Cl169	Cl	-0.880603	0.431911	-0.228533
Cl170	Cl	-0.380603	0.931911	0.271467
Cl171	Cl	-0.880659	-0.228219	-0.924657
Cl172	Cl	-0.380659	0.271781	-0.424657
Cl173	Cl	-1.076050	-0.423658	-0.924687
Cl174	Cl	-0.576050	0.076342	-0.424687
H175	H	-0.236621	-0.404723	-0.404636
H176	H	0.263379	0.095277	0.095364
Cl177	Cl	-1.075978	-0.423739	-0.568916
Cl178	Cl	-0.575978	0.076261	-0.068916
