data_functionalizedCrystal
_audit_creation_method	'MofGen! by Chris Wilmer'
_symmetry_space_group_name_H-M	'P1'
_symmetry_Int_Tables_number	1
_symmetry_cell_setting	triclinic
loop_
_symmetry_equiv_pos_as_xyz
  x,y,z
_cell_length_a	16.974800
_cell_length_b	10.489741
_cell_length_c	16.053833
_cell_angle_alpha	87.144041
_cell_angle_beta	83.459502
_cell_angle_gamma	83.963381
loop_
_atom_site_label
_atom_site_type_symbol
_atom_site_fract_x
_atom_site_fract_y
_atom_site_fract_z
O1	O	1.050141	0.162581	-0.001554
O2	O	0.819376	0.182230	0.014046
O3	O	0.940010	-0.013255	0.005886
O4	O	0.929507	0.358066	0.006606
O5	O	0.946031	-0.003651	-0.133379
O6	O	0.825397	0.191834	-0.125219
O7	O	1.056162	0.172184	-0.140818
Zn8	Zn	0.941735	0.183534	-0.155130
Zn9	Zn	0.933803	0.170881	0.028357
O10	O	0.935528	0.367669	-0.132659
C11	C	0.792837	0.186109	-0.053589
C12	C	0.704789	0.183344	-0.047637
C13	C	0.942227	-0.055975	-0.063692
C14	C	0.939854	-0.197576	-0.063530
C15	C	0.666711	0.187277	-0.120756
C16	C	0.583982	0.184658	-0.115166
C17	C	0.539333	0.178116	-0.036456
C18	C	0.577417	0.174179	0.036668
C19	C	0.660145	0.176789	0.031078
C20	C	0.291561	0.169742	-0.011595
C21	C	0.208827	0.167137	-0.006009
C22	C	0.215398	0.177614	-0.157844
C23	C	0.298127	0.180231	-0.163428
C24	C	0.336204	0.176287	-0.090304
N25	N	0.454770	0.175444	-0.030740
N26	N	0.420766	0.178950	-0.096020
C27	C	0.863098	-0.264800	-0.058335
C28	C	0.902325	-0.352621	-0.129451
C29	C	0.896407	-0.362064	0.007852
C30	C	0.979115	-0.283528	-0.134705
C31	C	0.973184	-0.292966	0.002661
C32	C	1.012467	-0.380759	-0.068476
C33	C	1.082701	0.168305	-0.073182
C34	C	1.170748	0.171070	-0.079128
C35	C	0.933311	0.410390	-0.063079
C36	C	0.935684	0.551990	-0.063235
N37	N	0.947155	0.192168	-0.280356
C38	C	0.975028	0.236754	-0.805868
C39	C	0.971241	0.230704	-0.718206
C40	C	0.920818	0.150129	-0.671095
C41	C	0.874175	0.075609	-0.711650
C42	C	0.877958	0.081666	-0.799310
C43	C	0.904295	0.123705	-0.408571
C44	C	0.900516	0.117651	-0.320905
C45	C	0.997582	0.272749	-0.327467
C46	C	1.001365	0.278793	-0.415129
C47	C	0.954718	0.204277	-0.455676
N48	N	0.916948	0.143941	-0.581490
N49	N	0.958584	0.210474	-0.545279
N50	N	0.928389	0.162236	0.153583
H51	H	0.552985	0.187840	-0.174707
H52	H	0.334476	0.185552	-0.227522
C53	C	1.056123	0.366413	-0.466125
C54	C	1.096142	0.430407	-0.411849
C55	C	1.146585	0.511144	-0.458796
H56	H	1.093866	0.316787	-0.502784
H57	H	1.025446	0.427417	-0.498121
H58	H	1.126817	0.369411	-0.379867
H59	H	1.058419	0.480057	-0.375189
H60	H	1.115908	0.572148	-0.490793
H61	H	1.184323	0.461508	-0.495454
H62	H	1.173738	0.554582	-0.421977
C63	C	0.827425	0.000532	-0.843302
C64	C	0.847667	-0.129393	-0.823440
C65	C	0.801135	-0.204168	-0.863957
H66	H	0.772661	0.022867	-0.825304
H67	H	0.836907	0.015595	-0.902264
H68	H	0.838178	-0.144448	-0.764490
H69	H	0.902423	-0.151766	-0.841439
H70	H	0.810617	-0.189106	-0.922919
H71	H	0.746374	-0.181823	-0.845956
H72	H	0.814868	-0.292331	-0.850492
C73	C	0.778949	-0.197629	-0.052906
C74	C	0.742245	-0.227473	-0.122279
C75	C	0.664734	-0.165603	-0.117315
H76	H	0.749223	-0.225539	-0.002809
H77	H	0.780995	-0.107494	-0.052593
H78	H	0.740195	-0.317588	-0.122584
H79	H	0.771947	-0.199560	-0.172386
H80	H	0.666780	-0.075468	-0.117003
H81	H	0.635016	-0.193518	-0.067216
H82	H	0.639823	-0.185834	-0.164387
H83	H	0.866314	0.063025	-0.441574
C84	C	0.849739	-0.408436	0.088114
C85	C	0.848721	-0.541680	0.087542
C86	C	0.805724	-0.584434	0.161456
H87	H	0.874331	-0.387105	0.135130
H88	H	0.796660	-0.368394	0.091616
H89	H	0.901790	-0.581708	0.084049
H90	H	0.824123	-0.563045	0.040542
H91	H	0.752645	-0.544392	0.164958
H92	H	0.830320	-0.563095	0.208467
H93	H	0.805021	-0.674842	0.161075
H94	H	1.014076	-0.249076	-0.195014
C95	C	0.715050	0.194314	-0.206293
C96	C	0.663995	0.197160	-0.269130
C97	C	0.708495	0.203619	-0.347938
H98	H	0.741843	0.269853	-0.211370
H99	H	0.753072	0.121204	-0.212055
H100	H	0.625987	0.270263	-0.263370
H101	H	0.637201	0.121628	-0.264080
H102	H	0.746517	0.130509	-0.353701
H103	H	0.735286	0.279159	-0.353007
H104	H	0.673862	0.205539	-0.390583
C105	C	1.013230	-0.257612	0.077106
C106	C	1.090927	-0.318721	0.072384
C107	C	1.127830	-0.286192	0.140961
H108	H	1.014967	-0.167335	0.076220
H109	H	0.983826	-0.284396	0.127717
H110	H	1.120324	-0.291930	0.021785
H111	H	1.089213	-0.408999	0.073280
H112	H	1.098426	-0.312976	0.191573
H113	H	1.129561	-0.195914	0.140070
H114	H	1.180548	-0.327659	0.137771
C115	C	0.862429	-0.388393	-0.203900
C116	C	0.861399	-0.521735	-0.203184
C117	C	0.824657	-0.554731	-0.271755
H118	H	0.809340	-0.348429	-0.200312
H119	H	0.891304	-0.360305	-0.254494
H120	H	0.832522	-0.549809	-0.152603
H121	H	0.914477	-0.561730	-0.206784
H122	H	0.853533	-0.526642	-0.322349
H123	H	0.771570	-0.514759	-0.268161
H124	H	0.823960	-0.645206	-0.271283
C125	C	1.029901	0.324144	-0.856915
C126	C	1.108686	0.287816	-0.840969
C127	C	1.159255	0.368305	-0.887967
H128	H	1.025584	0.317153	-0.914950
H129	H	1.015084	0.410384	-0.841562
H130	H	1.123498	0.201597	-0.856327
H131	H	1.113028	0.294813	-0.782943
H132	H	1.144438	0.454545	-0.872615
H133	H	1.154931	0.361308	-0.946000
H134	H	1.212715	0.343675	-0.877149
C135	C	0.528799	0.167142	0.122049
C136	C	0.448195	0.165736	0.111298
C137	C	0.403385	0.159275	0.189934
H138	H	0.546533	0.091114	0.152012
H139	H	0.535335	0.239763	0.152718
H140	H	0.441663	0.093122	0.080643
H141	H	0.430438	0.241757	0.081349
H142	H	0.409921	0.231896	0.220602
H143	H	0.421126	0.083247	0.219890
H144	H	0.348690	0.158333	0.182650
H145	H	1.009220	0.291383	-0.685195
H146	H	1.075634	-0.430935	-0.072784
C147	C	1.048078	0.353826	-0.283389
C148	C	0.998310	0.436565	-0.229853
C149	C	1.044797	0.511292	-0.189244
H150	H	1.082812	0.299483	-0.251577
H151	H	1.078631	0.402756	-0.323974
H152	H	0.967771	0.387639	-0.189273
H153	H	0.963576	0.490935	-0.261643
H154	H	1.075350	0.560223	-0.229829
H155	H	1.079529	0.456939	-0.157437
H156	H	1.011036	0.567448	-0.152921
C157	C	0.701338	0.172583	0.110562
C158	C	0.644528	0.166334	0.180691
C159	C	0.682443	0.162472	0.253928
H160	H	0.739097	0.099080	0.111275
H161	H	0.727825	0.247728	0.111965
H162	H	0.618054	0.091197	0.179289
H163	H	0.606767	0.239830	0.180006
H164	H	0.708931	0.237616	0.255330
H165	H	0.720201	0.088967	0.254633
H166	H	0.643903	0.158243	0.301519
H167	H	0.859452	0.052038	-0.282549
H168	H	0.184387	0.180823	-0.217378
C169	C	0.819375	-0.011673	-0.660392
C170	C	0.763952	0.061972	-0.606436
C171	C	0.713467	-0.018395	-0.559198
H172	H	0.792060	-0.055216	-0.696996
H173	H	0.850043	-0.072593	-0.628330
H174	H	0.733288	0.122870	-0.638495
H175	H	0.791244	0.105513	-0.569815
H176	H	0.744135	-0.079316	-0.527136
H177	H	0.686158	-0.061934	-0.595808
H178	H	0.675861	0.031559	-0.522578
H179	H	0.172474	0.161813	0.058089
H180	H	0.322553	0.166527	0.047949
