data_functionalizedCrystal
_audit_creation_method	'MofGen! by Chris Wilmer'
_symmetry_space_group_name_H-M	'P1'
_symmetry_Int_Tables_number	1
_symmetry_cell_setting	triclinic
loop_
_symmetry_equiv_pos_as_xyz
  x,y,z
_cell_length_a	10.654546
_cell_length_b	18.266242
_cell_length_c	19.188930
_cell_angle_alpha	90.011475
_cell_angle_beta	96.185848
_cell_angle_gamma	89.983384
loop_
_atom_site_label
_atom_site_type_symbol
_atom_site_fract_x
_atom_site_fract_y
_atom_site_fract_z
O1	O	-1.665777	0.061019	0.098052
O2	O	-1.300100	0.060993	0.107397
O3	O	-1.493491	0.060993	0.001138
O4	O	-1.472386	0.061020	0.204311
O5	O	-1.493459	-0.060769	0.001132
O6	O	-1.300068	-0.060769	0.107391
O7	O	-1.665744	-0.060743	0.098046
Zn8	Zn	-1.482901	-0.080088	0.102718
Zn9	Zn	-1.482944	0.080339	0.102725
O10	O	-1.472353	-0.060742	0.204305
C11	C	-1.253300	0.000109	0.106708
C12	C	-1.113900	0.000098	0.104657
N13	N	-1.482881	-0.189575	0.102712
C14	C	-1.033091	0.000114	0.167221
C15	C	-0.902111	0.000121	0.165289
C16	C	-0.932763	0.000099	0.038224
C17	C	-1.063740	0.000087	0.040157
C18	C	-1.015393	0.000130	0.240580
C19	C	-0.884413	0.000137	0.238648
C20	C	-1.568542	-0.227884	0.055684
C21	C	-1.568550	-0.304529	0.055681
C22	C	-1.482909	-0.342862	0.102718
C23	C	-1.397231	-0.304543	0.149750
C24	C	-1.397217	-0.227900	0.149747
N25	N	-1.466585	-0.463187	0.164419
N26	N	-1.466606	-0.535995	0.164419
C27	C	-1.482944	-0.573784	0.102728
N28	N	-1.499285	-0.536015	0.041035
N29	N	-1.499270	-0.463200	0.041035
C30	C	-1.482914	-0.425969	0.102726
C31	C	-1.568619	-0.695200	0.055693
C32	C	-1.568618	-0.771847	0.055689
C33	C	-1.397305	-0.771860	0.149763
C34	C	-1.397299	-0.695215	0.149762
C35	C	-1.482963	-0.656890	0.102727
C36	C	-0.712544	0.000133	0.098736
C37	C	-0.851943	0.000117	0.100793
C38	C	-1.492791	0.000110	-0.024881
C39	C	-1.490740	0.000103	-0.102399
N40	N	-1.482974	0.189826	0.102725
C41	C	-1.604215	0.000108	-0.146581
C42	C	-1.602288	0.000119	-0.219418
C43	C	-1.486878	0.000112	-0.248068
C44	C	-1.373388	0.000111	-0.203876
C45	C	-1.375319	0.000107	-0.131041
N46	N	-1.398650	-0.041333	-0.356651
N47	N	-1.396824	-0.041330	-0.425842
C48	C	-1.481054	0.000126	-0.467515
N49	N	-1.567199	0.041570	-0.437385
N50	N	-1.569029	0.041565	-0.368188
C51	C	-1.484772	0.000117	-0.327044
C52	C	-1.592448	0.000144	-0.590675
C53	C	-1.590515	0.000160	-0.663513
C54	C	-1.361612	0.000145	-0.647969
C55	C	-1.363548	0.000136	-0.575134
C56	C	-1.478969	0.000132	-0.546491
C57	C	-1.473053	0.000143	0.230324
C58	C	-1.475105	0.000154	0.307842
H59	H	-1.129532	0.000064	-0.010788
Cl60	Cl	-1.749316	0.000124	-0.110577
H61	H	-0.891906	0.000101	-0.014289
H62	H	-1.044103	-0.050825	0.269268
H63	H	-1.050568	0.052704	0.263941
Cl64	Cl	-0.813142	-0.081018	0.272875
H65	H	-1.282910	0.000103	-0.095067
H66	H	-0.842109	0.051100	0.266292
Cl67	Cl	-1.676224	-0.179704	-0.003447
H68	H	-1.638308	-0.335726	0.017383
Cl69	Cl	-1.289632	-0.820044	0.208891
H70	H	-1.327551	-0.664022	0.188059
H71	H	-1.682925	0.000168	-0.699486
H72	H	-1.638367	-0.663995	0.017392
H73	H	-1.694696	0.000126	-0.255398
H74	H	-1.327498	-0.335758	0.188047
Cl75	Cl	-1.228302	0.000107	-0.239893
Cl76	Cl	-1.737545	0.000135	-0.554664
H77	H	-1.267643	0.000142	-0.671296
Cl78	Cl	-1.676308	-0.820010	-0.003442
Cl79	Cl	-1.289521	-0.179737	0.208874
H80	H	-1.271143	0.000128	-0.539159
