data_functionalizedCrystal
_audit_creation_method	'MofGen! by Chris Wilmer'
_symmetry_space_group_name_H-M	'P1'
_symmetry_Int_Tables_number	1
_symmetry_cell_setting	triclinic
loop_
_symmetry_equiv_pos_as_xyz
  x,y,z
_cell_length_a	16.109301
_cell_length_b	15.186229
_cell_length_c	16.109295
_cell_angle_alpha	90.002834
_cell_angle_beta	83.460334
_cell_angle_gamma	89.997109
loop_
_atom_site_label
_atom_site_type_symbol
_atom_site_fract_x
_atom_site_fract_y
_atom_site_fract_z
O1	O	-1.103132	0.073167	-0.106862
O2	O	-0.861069	0.073180	-0.120161
O3	O	-0.988753	0.073174	0.007520
O4	O	-0.975448	0.073173	-0.234543
O5	O	-0.988738	-0.073283	0.007513
O6	O	-0.861054	-0.073277	-0.120168
O7	O	-1.103117	-0.073291	-0.106869
Zn8	Zn	-0.982083	-0.096537	-0.113520
Zn9	Zn	-0.982103	0.096427	-0.113510
O10	O	-0.975433	-0.073285	-0.234550
C11	C	-0.830087	-0.000047	-0.119626
C12	C	-0.737792	-0.000042	-0.118011
N13	N	-0.982076	-0.228230	-0.113526
C14	C	-0.988207	-0.000052	0.038491
C15	C	-0.986594	-0.000046	0.130787
C16	C	-1.134099	-0.000062	-0.107404
C17	C	-1.226394	-0.000061	-0.109019
C18	C	-0.515518	-0.000052	-0.190019
C19	C	-0.428798	-0.000058	-0.188495
C20	C	-0.448675	-0.000053	-0.037006
C21	C	-0.535394	-0.000054	-0.038531
C22	C	-0.568813	-0.000049	-0.115040
C23	C	-0.395374	-0.000054	-0.111991
C24	C	-0.301348	-0.000060	-0.110338
C25	C	-0.662845	-0.000044	-0.116693
C26	C	-1.032499	-0.453956	-0.163954
C27	C	-1.032508	-0.546146	-0.163948
C28	C	-0.931692	-0.546148	-0.063064
C29	C	-0.931688	-0.453960	-0.063066
C30	C	-0.982090	-0.407866	-0.113516
C31	C	-0.982103	-0.592244	-0.113508
C32	C	-0.982112	-0.692200	-0.113501
C33	C	-0.982082	-0.307904	-0.113522
N34	N	-0.982117	0.228119	-0.113498
C35	C	-1.058606	-0.000017	0.353060
C36	C	-1.057084	-0.000003	0.439780
C37	C	-0.905595	0.000001	0.419906
C38	C	-0.907118	-0.000007	0.333187
C39	C	-0.983626	-0.000021	0.299766
C40	C	-0.980580	0.000002	0.473206
C41	C	-0.978929	0.000018	0.567232
C42	C	-0.985277	-0.000035	0.205734
C43	C	-0.975984	-0.000035	0.734479
C44	C	-0.977612	0.000027	0.642186
H45	H	-0.542724	-0.000055	-0.252317
H46	H	-0.385408	-0.000062	-0.249551
H47	H	-1.073539	-0.416429	-0.205034
H48	H	-0.421454	-0.000063	0.025285
H49	H	-0.890639	-0.416433	-0.021989
Cl50	Cl	-1.151349	0.000004	0.506775
Cl51	Cl	-0.809418	0.000018	0.461927
Cl52	Cl	-0.602398	-0.000057	0.055737
H53	H	-0.846056	-0.000007	0.289793
Cl54	Cl	-0.868327	-0.604101	0.000349
Cl55	Cl	-1.095883	-0.604083	-0.227358
H56	H	-1.120904	-0.000027	0.325852
