data_functionalizedCrystal
_audit_creation_method	'MofGen! by Chris Wilmer'
_symmetry_space_group_name_H-M	'P1'
_symmetry_Int_Tables_number	1
_symmetry_cell_setting	triclinic
loop_
_symmetry_equiv_pos_as_xyz
  x,y,z
_cell_length_a	23.532407
_cell_length_b	23.532357
_cell_length_c	15.455313
_cell_angle_alpha	92.642146
_cell_angle_beta	87.338236
_cell_angle_gamma	82.838519
loop_
_atom_site_label
_atom_site_type_symbol
_atom_site_fract_x
_atom_site_fract_y
_atom_site_fract_z
O1	O	0.757756	0.066633	-0.072086
O2	O	1.257756	0.566633	0.427914
O3	O	0.591892	0.076636	-0.072101
O4	O	1.091892	0.576636	0.427899
O5	O	0.679840	-0.011298	-0.072075
O6	O	1.179840	0.488702	0.427925
O7	O	0.669808	0.154568	-0.072112
O8	O	1.169808	0.654568	0.427888
O9	O	0.674811	-0.006291	0.072185
O10	O	1.174811	0.493709	0.572185
O11	O	0.586863	0.081644	0.072160
O12	O	1.086863	0.581644	0.572160
O13	O	0.752727	0.071641	0.072175
O14	O	1.252727	0.571641	0.572175
Cu15	Cu	0.669336	0.077100	0.085339
Cu16	Cu	1.169336	0.577100	0.585339
Cu17	Cu	0.675283	0.071177	-0.085266
Cu18	Cu	1.175283	0.571177	0.414734
O19	O	0.664779	0.159576	0.072149
O20	O	1.164779	0.659576	0.572149
C21	C	0.568161	0.078885	0.000028
C22	C	1.068161	0.578885	0.500028
C23	C	0.504944	0.078119	0.000023
C24	C	1.004944	0.578119	0.500023
C25	C	0.677074	-0.030011	0.000058
C26	C	1.177074	0.469989	0.500058
C27	C	0.676319	-0.093229	0.000066
C28	C	1.176319	0.406771	0.500066
C29	C	0.238786	0.022924	0.000058
C30	C	0.738786	0.522924	0.500058
C31	C	0.298186	0.023635	0.000058
C32	C	0.798186	0.523635	0.500058
O33	O	0.334937	-0.020151	0.000098
O34	O	0.834937	0.479849	0.500098
N35	N	0.320803	0.075912	0.000041
N36	N	0.820803	0.575912	0.500041
C37	C	0.284017	0.127481	0.000032
C38	C	0.784017	0.627481	0.500032
O39	O	0.308709	0.172012	0.000018
O40	O	0.808709	0.672012	0.500018
C41	C	0.224618	0.126769	0.000039
C42	C	0.724618	0.626769	0.500039
C43	C	0.202004	0.074489	0.000048
C44	C	0.702004	0.574489	0.500048
C45	C	0.216171	-0.029353	0.000068
C46	C	0.716171	0.470647	0.500068
C47	C	0.156775	-0.030064	0.000067
C48	C	0.656775	0.469936	0.500067
C49	C	0.119994	0.021501	0.000056
C50	C	0.619994	0.521501	0.500056
C51	C	0.142608	0.073777	0.000046
C52	C	0.642608	0.573777	0.500046
C53	C	0.187832	0.178338	0.000037
C54	C	0.687832	0.678338	0.500037
C55	C	0.128429	0.177622	0.000044
C56	C	0.628429	0.677622	0.500044
C57	C	0.105816	0.125341	0.000053
C58	C	0.605816	0.625341	0.500053
C59	C	0.046430	0.124631	0.000034
C60	C	0.546430	0.624631	0.500034
N61	N	0.023813	0.072354	0.000052
N62	N	0.523813	0.572354	0.500052
C63	C	0.060595	0.020789	0.000062
C64	C	0.560595	0.520789	0.500062
C65	C	0.408759	0.128972	0.000020
C66	C	0.908759	0.628972	0.500020
C67	C	0.468158	0.129684	0.000007
C68	C	0.968158	0.629684	0.500007
C69	C	0.482323	0.025838	0.000034
C70	C	0.982323	0.525838	0.500034
C71	C	0.422923	0.025126	0.000041
C72	C	0.922923	0.525126	0.500041
C73	C	0.386142	0.076695	0.000037
C74	C	0.886142	0.576695	0.500037
C75	C	-0.064142	0.019299	0.000059
C76	C	0.435858	0.519299	0.500059
C77	C	-0.123544	0.018593	0.000054
C78	C	0.376456	0.518593	0.500054
C79	C	-0.137704	0.122439	0.000032
C80	C	0.362296	0.622439	0.500032
C81	C	-0.078307	0.123146	0.000032
C82	C	0.421693	0.623146	0.500032
C83	C	-0.041527	0.071572	0.000049
C84	C	0.458473	0.571572	0.500049
O85	O	0.009644	0.168394	-0.000002
O86	O	0.509644	0.668394	0.499998
O87	O	0.035894	-0.023734	0.000088
O88	O	0.535894	0.476266	0.500088
C89	C	0.674326	-0.487972	-0.078618
C90	C	1.174326	0.012028	0.421382
C91	C	0.673609	-0.547372	-0.078623
C92	C	1.173609	-0.047372	0.421377
O93	O	0.675550	-0.580410	-0.145500
O94	O	1.175550	-0.080410	0.354500
N95	N	0.670512	-0.574353	0.000013
N96	N	1.170512	-0.074353	0.500013
C97	C	0.668126	-0.541931	0.078658
C98	C	1.168126	-0.041931	0.578658
O99	O	0.665425	-0.570335	0.145543
O100	O	1.165425	-0.070335	0.645543
C101	C	0.668839	-0.482532	0.078662
C102	C	1.168839	0.017468	0.578662
C103	C	0.671942	-0.455554	0.000022
C104	C	1.171942	0.044446	0.500022
C105	C	0.677428	-0.460994	-0.157252
C106	C	1.177428	0.039006	0.342748
C107	C	0.678146	-0.401599	-0.157247
C108	C	1.178146	0.098401	0.342753
C109	C	0.675762	-0.369181	-0.078607
C110	C	1.175762	0.130819	0.421393
C111	C	0.672660	-0.396159	0.000027
C112	C	1.172660	0.103841	0.500027
C113	C	0.666449	-0.450110	0.157307
C114	C	1.166449	0.049890	0.657307
C115	C	0.667162	-0.390707	0.157304
C116	C	1.167162	0.109293	0.657304
C117	C	0.670265	-0.363730	0.078664
C118	C	1.170265	0.136270	0.578664
C119	C	0.670994	-0.304346	0.078672
C120	C	1.170994	0.195654	0.578672
N121	N	0.674091	-0.277365	0.000036
N122	N	1.174091	0.222635	0.500036
C123	C	0.676475	-0.309782	-0.078603
C124	C	1.176475	0.190218	0.421397
C125	C	0.666628	-0.666673	0.078643
C126	C	1.166628	-0.166673	0.578643
C127	C	0.665919	-0.726071	0.078640
C128	C	1.165919	-0.226071	0.578640
C129	C	0.671401	-0.731508	-0.078641
C130	C	1.171401	-0.231508	0.421359
C131	C	0.672114	-0.672109	-0.078637
C132	C	1.172114	-0.172109	0.421363
C133	C	0.669725	-0.639691	0.000008
C134	C	1.169725	-0.139691	0.500008
C135	C	0.677983	-0.185047	-0.078586
C136	C	1.177983	0.314953	0.421414
C137	C	0.678703	-0.125647	-0.078574
C138	C	1.178703	0.374353	0.421426
C139	C	0.673218	-0.120215	0.078707
C140	C	1.173218	0.379785	0.578707
C141	C	0.672501	-0.179611	0.078695
C142	C	1.172501	0.320389	0.578695
C143	C	0.674882	-0.212026	0.000042
C144	C	1.174882	0.287974	0.500042
O145	O	0.669052	-0.271271	0.145515
O146	O	1.169052	0.228729	0.645515
O147	O	0.679168	-0.281370	-0.145477
O148	O	1.179168	0.218630	0.354523
C149	C	0.776458	0.069392	0.000044
C150	C	1.276458	0.569392	0.500044
C151	C	0.839675	0.070158	0.000043
C152	C	1.339675	0.570158	0.500043
C153	C	0.667545	0.178288	0.000014
C154	C	1.167545	0.678288	0.500014
C155	C	0.668300	0.241506	0.000000
C156	C	1.168300	0.741506	0.500000
N157	N	0.665157	0.081265	0.205334
N158	N	1.165157	0.581265	0.705334
N159	N	0.679467	0.067008	-0.205260
N160	N	1.179467	0.567008	0.294740
C161	C	0.702533	0.043921	0.250739
C162	C	1.202533	0.543921	0.750739
C163	C	0.699378	0.047076	0.341546
C164	C	1.199378	0.547076	0.841546
C165	C	0.658848	0.087578	0.386946
C166	C	1.158848	0.587578	0.886946
C167	C	0.621468	0.124924	0.341534
C168	C	1.121468	0.624924	0.841534
C169	C	0.624621	0.121766	0.250729
C170	C	1.124621	0.621766	0.750729
C171	C	0.645239	0.101195	0.658523
C172	C	1.145239	0.601195	1.158523
C173	C	0.642090	0.104352	0.749335
C174	C	1.142090	0.604352	1.249335
C175	C	0.720000	0.026503	0.749340
C176	C	1.220000	0.526503	1.249340
C177	C	0.723151	0.023350	0.658533
C178	C	1.223151	0.523350	1.158533
C179	C	0.685769	0.060694	0.613129
C180	C	1.185769	0.560694	1.113129
N181	N	0.655624	0.090806	0.479765
N182	N	1.155624	0.590806	0.979765
N183	N	0.688992	0.057464	0.520312
N184	N	1.188992	0.557464	1.020312
H185	H	-0.141952	-0.023982	0.000059
H186	H	0.358048	0.476018	0.500059
Br187	Br	0.680663	-0.504979	-0.263992
Br188	Br	1.180663	-0.004979	0.236008
H189	H	0.609085	0.137336	0.786296
H190	H	1.109085	0.637336	1.286296
H191	H	0.674639	-0.650148	-0.142673
H192	H	1.174639	-0.150148	0.357327
Br193	Br	0.674633	-0.775514	-0.185367
Br194	Br	1.174633	-0.275514	0.314633
H195	H	-0.167662	0.164422	0.000018
H196	H	0.332338	0.664422	0.500018
Br197	Br	0.126096	-0.101021	0.000067
Br198	Br	0.626096	0.398979	0.500067
Br199	Br	0.668303	-0.216226	0.185422
Br200	Br	1.168303	0.283774	0.685422
Br201	Br	0.594509	0.151875	0.596909
Br202	Br	1.094509	0.651875	1.096909
H203	H	0.206233	0.220910	0.000026
H204	H	0.706233	0.720910	0.500026
H205	H	-0.034202	-0.022697	0.000072
H206	H	0.465798	0.477303	0.500072
H207	H	0.588466	0.157900	0.378504
H208	H	1.088466	0.657900	0.878504
H209	H	0.671280	-0.093810	0.142733
H210	H	1.171280	0.406190	0.642733
H211	H	0.098484	0.219617	0.000045
H212	H	0.598484	0.719617	0.500045
Br213	Br	0.573890	0.172446	0.189108
Br214	Br	1.073890	0.672446	0.689108
H215	H	0.404516	-0.017445	0.000049
H216	H	0.904516	0.482555	0.500049
Br217	Br	0.661721	-0.762678	0.185371
Br218	Br	1.161721	-0.262678	0.685371
Br219	Br	0.663389	-0.622684	0.185386
Br220	Br	1.163389	-0.122684	0.685386
Br221	Br	0.266079	-0.099344	0.000086
Br222	Br	0.766079	0.400656	0.500086
Br223	Br	0.757544	-0.011045	0.189134
Br224	Br	1.257544	0.488955	0.689134
Br225	Br	0.498841	0.200639	-0.000027
Br226	Br	0.998841	0.700639	0.499973
Br227	Br	0.532252	-0.044144	0.000046
Br228	Br	1.032252	0.455856	0.500046
Br229	Br	0.750101	-0.003608	0.403170
Br230	Br	1.250101	0.496392	0.903170
H231	H	0.378815	0.170968	0.000011
H232	H	0.878815	0.670968	0.500011
Br233	Br	-0.047615	0.194098	0.000006
Br234	Br	0.452385	0.694098	0.500006
Br235	Br	0.682918	-0.089039	-0.185307
Br236	Br	1.182918	0.410961	0.314693
Br237	Br	0.681214	-0.229030	-0.185331
Br238	Br	1.181214	0.270970	0.314669
H239	H	0.756153	-0.009630	0.621570
H240	H	1.256153	0.490370	1.121570
H241	H	0.680671	-0.379639	-0.221284
H242	H	1.180671	0.120361	0.278716
Br243	Br	0.770729	-0.024177	0.810962
Br244	Br	1.270729	0.475823	1.310962
Br245	Br	0.662235	-0.486707	0.264040
Br246	Br	1.162235	0.013293	0.764040
Br247	Br	0.663918	-0.346715	0.264043
Br248	Br	1.163918	0.153285	0.764043
