data_functionalizedCrystal
_audit_creation_method	'MofGen! by Chris Wilmer'
_symmetry_space_group_name_H-M	'P1'
_symmetry_Int_Tables_number	1
_symmetry_cell_setting	triclinic
loop_
_symmetry_equiv_pos_as_xyz
  x,y,z
_cell_length_a	15.944545
_cell_length_b	15.944551
_cell_length_c	14.472311
_cell_angle_alpha	90.003492
_cell_angle_beta	89.996046
_cell_angle_gamma	83.497455
loop_
_atom_site_label
_atom_site_type_symbol
_atom_site_fract_x
_atom_site_fract_y
_atom_site_fract_z
O1	O	1.114531	0.108295	-0.076783
O2	O	0.869981	0.121657	-0.076798
O3	O	0.998934	-0.007299	-0.076782
O4	O	0.985578	0.237251	-0.076799
O5	O	0.998915	-0.007280	0.076900
O6	O	0.869962	0.121676	0.076884
O7	O	1.114512	0.108315	0.076899
Cu8	Cu	0.992235	0.114997	0.090924
Cu9	Cu	0.992258	0.114974	-0.090823
O10	O	0.985559	0.237270	0.076883
C11	C	0.838677	0.121113	0.000041
C12	C	0.745431	0.119453	0.000035
C13	C	0.474798	0.034559	0.000051
C14	C	0.525371	0.075497	0.075824
C15	C	0.409787	0.113532	0.000051
C16	C	0.525370	0.075500	-0.075695
C17	C	0.574701	0.116437	0.000042
C18	C	0.459131	0.154449	0.075887
C19	C	0.459127	0.154440	-0.075700
C20	C	0.509667	0.195436	0.000091
C21	C	0.314785	0.111856	0.000058
C22	C	0.669700	0.118119	0.000042
C23	C	0.998370	-0.038583	0.000059
C24	C	0.996708	-0.131829	0.000060
C25	C	0.912803	-0.346684	0.000042
C26	C	0.951756	-0.407693	0.075819
C27	C	0.993701	-0.302555	0.000052
C28	C	0.951794	-0.407695	-0.075700
C29	C	0.990790	-0.467468	0.000041
C30	C	1.032676	-0.362335	0.075892
C31	C	1.032703	-0.362331	-0.075695
C32	C	1.071715	-0.423322	0.000101
C33	C	0.995375	-0.207553	0.000059
C34	C	0.989122	-0.562469	0.000041
C35	C	1.145816	0.108859	0.000058
C36	C	1.239062	0.110519	0.000057
C37	C	0.986123	0.268555	0.000039
C38	C	0.987785	0.361801	0.000033
N39	N	0.992225	0.115013	0.218755
C40	C	0.992238	0.114997	0.407255
C41	C	0.923226	0.183974	0.446476
C42	C	0.922988	0.183788	0.553564
C43	C	0.992250	0.114983	0.592846
C44	C	0.973461	0.027233	0.553960
C45	C	0.972958	0.027645	0.446839
C46	C	1.080250	0.132979	0.446718
C47	C	1.079667	0.134962	0.553846
C48	C	0.992258	0.114970	0.697734
C49	C	0.992227	0.115005	0.302367
N50	N	0.992262	0.114968	0.781346
H51	H	0.554296	0.042126	-0.139751
N52	N	0.841062	0.169315	0.585755
N53	N	0.826647	0.166663	0.670542
H54	H	0.768784	0.156440	0.693278
H55	H	0.917576	-0.427779	-0.139768
H56	H	0.430189	0.187755	-0.139767
N57	N	0.908823	-0.432930	0.156169
N58	N	0.901231	-0.509178	0.169356
H59	H	0.870905	-0.527002	0.226101
H60	H	0.934127	0.249005	0.579857
H61	H	0.934174	0.249412	0.420723
H62	H	0.845655	-0.313375	0.000113
N63	N	1.147099	0.076054	0.587363
N64	N	1.221371	0.082499	0.563232
H65	H	1.268995	0.040889	0.586902
H66	H	0.858274	0.172612	0.419573
N67	N	0.892443	0.007847	0.415521
N68	N	0.837012	-0.006177	0.472776
H69	H	0.780143	-0.020152	0.450663
H70	H	1.021330	-0.025243	0.420891
N71	N	1.075556	-0.337243	0.156342
N72	N	1.083723	-0.261092	0.169346
H73	H	1.114005	-0.243367	0.226164
N74	N	1.156027	-0.464915	0.000163
N75	N	1.204862	-0.453194	0.065284
H76	H	1.264408	-0.482568	0.065332
N77	N	1.075596	-0.337095	-0.156066
N78	N	1.048034	-0.351380	-0.234689
H79	H	1.078322	-0.333556	-0.291459
H80	H	1.022409	-0.025350	0.579402
H81	H	0.910029	0.011054	0.580809
N82	N	1.102994	0.211563	0.412823
N83	N	1.054606	0.255273	0.359162
H84	H	1.070660	0.310776	0.335222
N85	N	1.097546	0.215956	0.585712
N86	N	1.046141	0.258849	0.636959
H87	H	1.058761	0.316055	0.659463
N88	N	1.144675	0.069879	0.414910
N89	N	1.140910	-0.006025	0.434162
H90	H	1.186405	-0.050593	0.411696
N91	N	0.455166	-0.050762	0.000155
N92	N	0.479404	-0.098965	0.065324
H93	H	0.465538	-0.159222	0.065402
H94	H	0.554293	0.042153	0.139888
N95	N	0.529111	0.280819	0.000113
N96	N	0.503769	0.329398	-0.064335
H97	H	0.517504	0.389699	-0.064319
H98	H	0.430314	0.187785	0.140015
