data_functionalizedCrystal
_audit_creation_method	'MofGen! by Chris Wilmer'
_symmetry_space_group_name_H-M	'P1'
_symmetry_Int_Tables_number	1
_symmetry_cell_setting	triclinic
loop_
_symmetry_equiv_pos_as_xyz
  x,y,z
_cell_length_a	7.190334
_cell_length_b	13.635800
_cell_length_c	7.190339
_cell_angle_alpha	60.611724
_cell_angle_beta	82.319600
_cell_angle_gamma	60.611776
loop_
_atom_site_label
_atom_site_type_symbol
_atom_site_fract_x
_atom_site_fract_y
_atom_site_fract_z
V1	V	0.663510	-2.154325	0.291701
O2	O	0.652431	-2.100792	-0.017518
O3	O	0.657480	-2.172020	0.581760
O4	O	0.953571	-2.172022	0.285678
O5	O	0.354291	-2.100790	0.280614
V6	V	0.626707	-2.385281	0.254896
O7	O	0.744243	-2.308656	0.372435
O8	O	0.545974	-2.456048	0.174162
O9	O	0.632737	-2.255982	-0.035163
O10	O	0.637786	-2.497512	0.564115
O11	O	0.935926	-2.497514	0.265983
O12	O	0.336646	-2.255980	0.260919
V13	V	0.626707	-1.885274	0.254896
O14	O	0.935926	-1.938809	0.265983
O15	O	0.336646	-1.867576	0.260919
O16	O	0.632737	-1.867578	-0.035163
O17	O	0.637786	-1.938807	0.564115
V18	V	0.663510	-1.654317	0.291701
O19	O	0.545974	-1.730942	0.174162
O20	O	0.744243	-1.583550	0.372435
O21	O	0.953571	-1.783618	0.285678
O22	O	0.354291	-1.542084	0.280614
O23	O	0.652431	-1.542086	-0.017518
O24	O	0.657480	-1.783616	0.581760
C25	C	1.024318	-2.103363	0.274825
C26	C	1.265891	-2.159792	0.271761
C27	C	0.646638	-2.103367	0.652521
C28	C	0.643590	-2.159800	0.894096
C29	C	0.265885	-1.936230	0.271764
C30	C	0.024311	-1.879799	0.274818
C31	C	0.643592	-1.936238	-0.105910
C32	C	0.646667	-1.879812	-0.347481
