data_functionalizedCrystal
_audit_creation_method	'MofGen! by Chris Wilmer'
_symmetry_space_group_name_H-M	'P1'
_symmetry_Int_Tables_number	1
_symmetry_cell_setting	triclinic
loop_
_symmetry_equiv_pos_as_xyz
  x,y,z
_cell_length_a	12.645330
_cell_length_b	12.645331
_cell_length_c	16.120297
_cell_angle_alpha	92.886762
_cell_angle_beta	87.123238
_cell_angle_gamma	89.984155
loop_
_atom_site_label
_atom_site_type_symbol
_atom_site_fract_x
_atom_site_fract_y
_atom_site_fract_z
Zn1	Zn	-0.452501	-1.590322	0.471228
Zn2	Zn	-0.620790	-1.599199	0.331827
Zn3	Zn	-0.443537	-1.422031	0.331851
Zn4	Zn	-0.629716	-1.413019	0.471214
O5	O	-0.536636	-1.506143	0.401530
O6	O	-0.474841	-1.739847	0.452732
O7	O	-0.589791	-1.583184	0.215166
O8	O	-0.296380	-1.444411	0.350356
O9	O	-0.598482	-1.746369	0.350314
O10	O	-0.302966	-1.568054	0.452756
O11	O	-0.459564	-1.453019	0.215184
O12	O	-0.468219	-1.272488	0.350342
O13	O	-0.613695	-1.429052	0.587880
O14	O	-0.605003	-1.265867	0.452732
O15	O	-0.483495	-1.559316	0.587891
O16	O	-0.770321	-1.574446	0.350301
O17	O	-0.776878	-1.437660	0.452708
C18	C	-0.536608	-1.230713	0.401539
C19	C	-0.536622	-1.112881	0.401562
C20	C	-0.623098	-0.941209	0.465643
C21	C	-0.622851	-1.063752	0.465908
C22	C	-0.426516	-1.066854	0.425566
C23	C	-0.427045	-0.944227	0.426020
C24	C	-0.559334	-0.951332	0.313282
C25	C	-0.561808	-1.073908	0.313756
C26	C	-0.812065	-1.506066	0.401518
C27	C	-0.929897	-1.506129	0.401541
C28	C	-1.101643	-1.420402	0.466164
C29	C	-0.979070	-1.419998	0.465957
C30	C	-0.968819	-1.481553	0.313684
C31	C	-1.091442	-1.481030	0.314076
C32	C	-1.098443	-1.616976	0.424063
C33	C	-0.975960	-1.616164	0.425984
C34	C	-0.260133	-1.506247	0.401560
C35	C	-0.142304	-1.506292	0.401573
C36	C	-0.550591	-1.492188	0.618981
C37	C	-0.556537	-1.486242	0.711646
C38	C	-0.536661	-0.782648	0.401528
C39	C	-0.536661	-0.900477	0.401542
C40	C	-0.522660	-1.520104	0.184925
C41	C	-0.516414	-1.526256	0.092261
C42	C	-0.567370	-1.475346	0.881305
C43	C	-0.505584	-1.537148	0.922607
C44	C	-0.511612	-1.531086	1.017011
C45	C	-0.561344	-1.481407	0.786892
H46	H	-0.642802	-1.104159	0.295652
C47	C	-0.428016	-1.614789	0.874595
N48	N	-0.369598	-1.673270	0.838430
C49	C	-0.603228	-1.097704	0.554262
N50	N	-0.588460	-1.123275	0.620816
H51	H	-0.407147	-0.911488	0.490541
H52	H	-0.936953	-1.401687	0.294285
H53	H	-0.624790	-1.417888	0.916843
H54	H	-0.502967	-1.107772	0.263431
C55	C	-0.398984	-1.102789	0.511788
N56	N	-0.378253	-1.129852	0.576734
C57	C	-0.925111	-1.563718	0.246888
N58	N	-0.892186	-1.625605	0.196579
H59	H	-0.705210	-0.912677	0.450767
H60	H	-0.704679	-1.094795	0.450865
C61	C	-0.474191	-0.916287	0.248757
N62	N	-0.410060	-0.889883	0.200162
H63	H	-0.608762	-0.906222	0.530660
H64	H	-0.360653	-0.917420	0.381472
C65	C	-0.944013	-1.439879	0.553967
N66	N	-0.917613	-1.454849	0.620261
H67	H	-1.124397	-1.680897	0.377018
H68	H	-0.637955	-0.921818	0.291466
H69	H	-0.360612	-1.098905	0.380334
H70	H	-1.135274	-1.434933	0.531524
H71	H	-1.131592	-1.338738	0.451456
C72	C	-0.938272	-1.308966	0.445890
N73	N	-0.907545	-1.225325	0.430796
H74	H	-1.118901	-1.400287	0.295022
H75	H	-1.117889	-1.541181	0.264310
C76	C	-0.942173	-1.641370	0.513317
N77	N	-0.916704	-1.660359	0.579092
C78	C	-0.930757	-1.706557	0.367053
N79	N	-0.896710	-1.774639	0.322658
C80	C	-1.145598	-1.648755	0.509144
N81	N	-1.181115	-1.672679	0.573231
