data_functionalizedCrystal
_audit_creation_method	'MofGen! by Chris Wilmer'
_symmetry_space_group_name_H-M	'P1'
_symmetry_Int_Tables_number	1
_symmetry_cell_setting	triclinic
loop_
_symmetry_equiv_pos_as_xyz
  x,y,z
_cell_length_a	10.723022
_cell_length_b	9.798715
_cell_length_c	10.654559
_cell_angle_alpha	90.003557
_cell_angle_beta	84.477935
_cell_angle_gamma	90.003391
loop_
_atom_site_label
_atom_site_type_symbol
_atom_site_fract_x
_atom_site_fract_y
_atom_site_fract_z
O1	O	1.657220	0.113484	0.176137
O2	O	1.294071	0.113489	0.192999
O3	O	1.483989	0.113475	0.001828
O4	O	1.467302	0.113497	0.367308
O5	O	1.483975	-0.113507	0.001828
O6	O	1.294057	-0.113494	0.192999
O7	O	1.657206	-0.113498	0.176136
Zn8	Zn	1.475629	-0.149534	0.184567
Zn9	Zn	1.475648	0.149524	0.184568
O10	O	1.467288	-0.113485	0.367307
C11	C	1.247564	-0.000002	0.191772
C12	C	1.109009	-0.000001	0.188102
C13	C	0.890849	0.000008	0.291275
C14	C	1.034053	0.000007	0.295071
N15	N	1.475625	-0.353634	0.184566
C16	C	1.555367	-0.421416	0.103945
C17	C	1.555387	-0.578579	0.103941
C18	C	1.703713	-0.000005	0.177363
C19	C	1.842268	0.000002	0.181033
C20	C	1.482754	-0.000015	-0.044970
C21	C	1.479081	-0.000015	-0.184412
N22	N	1.475661	0.353624	0.184559
C23	C	1.473921	0.123738	-0.380928
C24	C	1.477369	0.123723	-0.249907
C25	C	1.477359	-0.123746	-0.249946
C26	C	1.473921	-0.123729	-0.380966
C27	C	1.473921	0.266612	-0.380903
C28	C	1.477369	0.266597	-0.249882
C29	C	1.468522	0.000008	0.414105
C30	C	1.472195	0.000017	0.553547
H31	H	1.623618	-0.363099	0.034920
O32	O	1.365288	0.319279	-0.416232
C33	C	1.180579	0.279654	-0.523188
C34	C	1.303556	0.219832	-0.483229
H35	H	1.130647	0.199289	-0.577385
H36	H	1.117643	0.311597	-0.435783
H37	H	1.202457	0.372412	-0.586057
H38	H	1.281795	0.127034	-0.420389
H39	H	1.366455	0.187984	-0.570689
H40	H	1.075882	0.000004	0.389459
O41	O	1.394139	-0.423349	0.266737
C42	C	1.224083	-0.584813	0.292226
C43	C	1.316316	-0.505975	0.199027
H44	H	1.161122	-0.651613	0.237519
H45	H	1.278689	-0.651791	0.355213
H46	H	1.164097	-0.509310	0.352955
H47	H	1.376325	-0.581379	0.138216
H48	H	1.261635	-0.438976	0.136127
O49	O	0.813872	0.000197	0.400441
C50	C	0.650692	0.117842	0.529037
C51	C	0.737772	0.117782	0.405343
H52	H	0.589160	0.212914	0.533053
H53	H	0.588957	0.022917	0.533070
H54	H	0.709565	0.117778	0.612612
H55	H	0.678997	0.117894	0.321699
H56	H	0.799512	0.212699	0.401421
H57	H	1.067188	0.000030	0.093709
O58	O	1.636779	-0.647960	0.021418
C59	C	1.707332	-0.692011	-0.196399
C60	C	1.615103	-0.613324	-0.103077
H61	H	1.689822	-0.664058	-0.297074
H62	H	1.807544	-0.663951	-0.179536
H63	H	1.692853	-0.806365	-0.181665
H64	H	1.629469	-0.498951	-0.117756
H65	H	1.514925	-0.641498	-0.119964
O66	O	0.919244	0.000179	0.071866
C67	C	1.082436	0.117808	-0.056730
C68	C	0.995358	0.117762	0.066966
H69	H	1.143979	0.212878	-0.060745
H70	H	1.144160	0.022882	-0.060766
H71	H	1.023561	0.117737	-0.140304
H72	H	1.054135	0.117881	0.150609
H73	H	0.933630	0.212680	0.070891
O74	O	1.472206	-0.244033	-0.444418
C75	C	1.472659	-0.489490	-0.430638
C76	C	1.474573	-0.353339	-0.358619
H77	H	1.474598	-0.577898	-0.361304
H78	H	1.383853	-0.495775	-0.481211
H79	H	1.558208	-0.495583	-0.502743
H80	H	1.389085	-0.347154	-0.286454
H81	H	1.563434	-0.347111	-0.308133
H82	H	1.391128	0.321446	-0.203580
O83	O	1.478805	-0.243907	-0.186240
C84	C	1.374799	-0.387493	-0.024985
C85	C	1.372997	-0.251376	-0.097055
H86	H	1.289278	-0.393564	0.047155
H87	H	1.372892	-0.475978	-0.094255
H88	H	1.463627	-0.393667	0.025558
H89	H	1.284184	-0.245069	-0.147602
H90	H	1.374971	-0.162956	-0.027726
H91	H	1.407392	-0.588095	0.253591
H92	H	1.560164	0.321477	-0.427183
H93	H	1.568385	0.310930	-0.220314
