data_functionalizedCrystal
_audit_creation_method	'MofGen! by Chris Wilmer'
_symmetry_space_group_name_H-M	'P1'
_symmetry_Int_Tables_number	1
_symmetry_cell_setting	triclinic
loop_
_symmetry_equiv_pos_as_xyz
  x,y,z
_cell_length_a	12.811445
_cell_length_b	12.837942
_cell_length_c	18.366186
_cell_angle_alpha	89.994829
_cell_angle_beta	84.559541
_cell_angle_gamma	89.412982
loop_
_atom_site_label
_atom_site_type_symbol
_atom_site_fract_x
_atom_site_fract_y
_atom_site_fract_z
O1	O	1.406666	0.139722	-0.153427
O2	O	1.906666	0.639722	0.346573
O3	O	1.102598	0.154903	-0.133352
O4	O	1.602598	0.654903	0.366648
O5	O	1.247889	-0.003620	-0.142940
O6	O	1.747889	0.496380	0.357060
O7	O	1.261374	0.298244	-0.143839
O8	O	1.761374	0.798244	0.356161
O9	O	1.247861	-0.003628	-0.021838
O10	O	1.747861	0.496372	0.478162
O11	O	1.102570	0.154895	-0.012250
O12	O	1.602570	0.654895	0.487750
O13	O	1.406638	0.139714	-0.032326
O14	O	1.906638	0.639714	0.467674
Zn15	Zn	1.254599	0.147303	-0.003061
Zn16	Zn	1.754599	0.647303	0.496939
Zn17	Zn	1.254636	0.147314	-0.162617
Zn18	Zn	1.754636	0.647314	0.337383
O19	O	1.261346	0.298236	-0.022738
O20	O	1.761346	0.798236	0.477262
C21	C	1.063394	0.154047	-0.070214
C22	C	1.563394	0.654047	0.429786
C23	C	0.946620	0.151495	-0.062504
C24	C	1.446620	0.651495	0.437496
C25	C	0.727217	0.146729	-0.180055
C26	C	1.227217	0.646729	0.319945
C27	C	0.617498	0.144332	-0.172814
C28	C	1.117498	0.644332	0.327186
C29	C	0.617459	0.144312	-0.040782
C30	C	1.117459	0.644312	0.459218
C31	C	0.727179	0.146709	-0.048023
C32	C	1.227179	0.646709	0.451977
C33	C	0.782054	0.147916	-0.117661
C34	C	1.282054	0.647916	0.382339
C35	C	0.891776	0.150305	-0.124902
C36	C	1.391776	0.650305	0.375098
C37	C	0.891735	0.150292	0.007129
C38	C	1.391735	0.650292	0.507129
C39	C	0.782016	0.147895	0.014370
C40	C	1.282016	0.647895	0.514370
C41	C	1.243320	-0.042264	-0.082089
C42	C	1.743320	0.457736	0.417911
C43	C	1.229734	-0.157400	-0.081193
C44	C	1.729734	0.342600	0.418807
C45	C	1.393065	-0.397650	-0.091992
C46	C	1.893065	0.102350	0.408008
C47	C	1.380304	-0.505831	-0.091150
C48	C	1.880304	-0.005831	0.408850
C49	C	1.191453	-0.481946	-0.078674
C50	C	1.691453	0.018054	0.421326
C51	C	1.204213	-0.373765	-0.079516
C52	C	1.704213	0.126235	0.420484
C53	C	1.305023	-0.331621	-0.086173
C54	C	1.805023	0.168379	0.413827
C55	C	1.317782	-0.223438	-0.087009
C56	C	1.817782	0.276562	0.412991
C57	C	1.128932	-0.199554	-0.074539
C58	C	1.628932	0.300446	0.425461
C59	C	1.116171	-0.307736	-0.073697
C60	C	1.616171	0.192264	0.426303
C61	C	1.445841	0.140570	-0.095465
C62	C	1.945841	0.640570	0.404535
C63	C	1.562615	0.143122	-0.103180
C64	C	2.062615	0.643122	0.396820
C65	C	1.265915	0.336881	-0.083590
C66	C	1.765915	0.836881	0.416410
C67	C	1.279502	0.452017	-0.084491
C68	C	1.779502	0.952017	0.415509
N69	N	1.254581	0.147295	0.105832
N70	N	1.754581	0.647295	0.605832
N71	N	1.254661	0.147313	-0.271510
N72	N	1.754661	0.647313	0.228490
C73	C	1.318943	0.077136	0.139685
C74	C	1.818943	0.577136	0.639685
C75	C	1.318950	0.077132	0.215912
C76	C	1.818950	0.577132	0.715912
C77	C	1.254605	0.147304	0.258283
C78	C	1.754605	0.647304	0.758283
C79	C	1.190231	0.217468	0.224421
C80	C	1.690231	0.717468	0.724421
C81	C	1.190218	0.217464	0.148196
C82	C	1.690218	0.717464	0.648196
C83	C	1.250295	0.241695	0.379325
C84	C	1.750295	0.741695	0.879325
C85	C	1.250314	0.241700	0.455549
C86	C	1.750314	0.741700	0.955549
C87	C	1.254637	0.147317	0.493388
C88	C	1.754637	0.647317	0.993388
C89	C	1.258961	0.052924	0.454993
C90	C	1.758961	0.552924	0.954993
C91	C	1.258949	0.052920	0.378768
C92	C	1.758949	0.552920	0.878768
C93	C	1.254611	0.147316	0.340937
C94	C	1.754611	0.647316	0.840937
C95	C	1.319009	0.077147	0.609896
C96	C	1.819009	0.577147	1.109896
C97	C	1.319007	0.077141	0.686125
C98	C	1.819007	0.577141	1.186125
C99	C	1.190294	0.217487	0.694632
C100	C	1.690294	0.717487	1.194632
C101	C	1.190290	0.217484	0.618405
C102	C	1.690290	0.717484	1.118405
C103	C	1.254653	0.147315	0.576041
C104	C	1.754653	0.647315	1.076041
H105	H	0.572761	0.143338	0.015914
H106	H	1.072761	0.643338	0.515914
Cl107	Cl	1.399870	-0.011075	0.258478
Cl108	Cl	1.899870	0.488925	0.758478
H109	H	0.936395	0.151257	0.057935
H110	H	1.436395	0.651257	0.557935
Cl111	Cl	1.444512	-0.170458	-0.095374
Cl112	Cl	1.944512	0.329542	0.404626
H113	H	1.371415	0.020004	0.713688
H114	H	1.871415	0.520004	1.213688
H115	H	1.137900	0.274619	0.729130
H116	H	1.637900	0.774619	1.229130
Cl117	Cl	1.490991	-0.588837	-0.098467
Cl118	Cl	1.990991	-0.088837	0.401533
H119	H	1.137839	0.274602	0.258924
H120	H	1.637839	0.774602	0.758924
H121	H	1.109378	-0.516279	-0.073262
H122	H	1.609378	-0.016279	0.426738
H123	H	0.737321	0.146916	0.071068
H124	H	1.237321	0.646916	0.571068
H125	H	1.475148	-0.363336	-0.097405
H126	H	1.975148	0.136664	0.402595
Cl127	Cl	1.109380	0.305694	0.575842
Cl128	Cl	1.609380	0.805694	1.075842
Cl129	Cl	0.989447	-0.360727	-0.065334
Cl130	Cl	1.489447	0.139273	0.434666
Cl131	Cl	1.264374	-0.065740	0.330503
Cl132	Cl	1.764374	0.434260	0.830503
H133	H	1.057241	-0.145781	-0.069795
H134	H	1.557241	0.354219	0.430205
H135	H	1.371349	0.019999	0.105194
H136	H	1.871349	0.519999	0.605194
Cl137	Cl	1.264404	-0.065737	0.502554
Cl138	Cl	1.764404	0.434263	1.002554
Cl139	Cl	1.244885	0.360364	0.503808
Cl140	Cl	1.744885	0.860364	1.003808
H141	H	0.572854	0.143368	-0.223621
H142	H	1.072854	0.643368	0.276379
Cl143	Cl	1.399915	-0.011069	0.556637
Cl144	Cl	1.899915	0.488931	1.056637
Cl145	Cl	1.244959	0.360363	0.331757
Cl146	Cl	1.744959	0.860363	0.831757
H147	H	1.137806	0.274597	0.120633
H148	H	1.637806	0.774597	0.620633
H149	H	0.936454	0.151287	-0.181605
H150	H	1.436454	0.651287	0.318395
H151	H	0.771898	0.147707	-0.236757
H152	H	1.271898	0.647707	0.263243
