data_functionalizedCrystal
_audit_creation_method	'MofGen! by Chris Wilmer'
_symmetry_space_group_name_H-M	'P1'
_symmetry_Int_Tables_number	1
_symmetry_cell_setting	triclinic
loop_
_symmetry_equiv_pos_as_xyz
  x,y,z
_cell_length_a	19.188900
_cell_length_b	14.472311
_cell_length_c	19.188929
_cell_angle_alpha	90.030067
_cell_angle_beta	96.861367
_cell_angle_gamma	89.986501
loop_
_atom_site_label
_atom_site_type_symbol
_atom_site_fract_x
_atom_site_fract_y
_atom_site_fract_z
O1	O	-0.926158	0.077064	0.087071
O2	O	-0.592825	0.410397	0.420404
O3	O	-0.259492	0.743731	0.753738
O4	O	-0.722844	0.077033	0.098827
O5	O	-0.389511	0.410366	0.432161
O6	O	-0.056177	0.743699	0.765494
O7	O	-0.830368	0.076992	-0.008707
O8	O	-0.497035	0.410325	0.324626
O9	O	-0.163702	0.743659	0.657960
O10	O	-0.818634	0.077104	0.194606
O11	O	-0.485301	0.410438	0.527939
O12	O	-0.151967	0.743771	0.861272
O13	O	-0.830359	-0.076690	-0.008717
O14	O	-0.497026	0.256643	0.324616
O15	O	-0.163692	0.589977	0.657949
O16	O	-0.722835	-0.076650	0.098817
O17	O	-0.389501	0.256684	0.432150
O18	O	-0.056168	0.590017	0.765484
O19	O	-0.926149	-0.076618	0.087061
O20	O	-0.592815	0.256715	0.420394
O21	O	-0.259482	0.590049	0.753727
Cu22	Cu	-0.824491	-0.090666	0.092938
Cu23	Cu	-0.491157	0.242667	0.426271
Cu24	Cu	-0.157824	0.576001	0.759605
Cu25	Cu	-0.824502	0.091081	0.092950
Cu26	Cu	-0.491169	0.424414	0.426284
Cu27	Cu	-0.157835	0.757747	0.759617
O28	O	-0.818624	-0.076578	0.194595
O29	O	-0.485291	0.256756	0.527928
O30	O	-0.151958	0.590089	0.861262
C31	C	-0.696828	0.000186	0.098445
C32	C	-0.363495	0.333520	0.431778
C33	C	-0.030161	0.666853	0.765112
C34	C	-0.619322	0.000171	0.097313
C35	C	-0.285989	0.333505	0.430646
C36	C	0.047344	0.666838	0.763979
N37	N	-0.824488	-0.218497	0.092929
N38	N	-0.491154	0.114836	0.426262
N39	N	-0.157821	0.448170	0.759595
C40	C	-0.582936	0.083945	0.096774
C41	C	-0.249602	0.417278	0.430108
C42	C	0.083731	0.750611	0.763441
C43	C	-0.510112	0.083953	0.095703
C44	C	-0.176779	0.417287	0.429036
C45	C	0.156555	0.750620	0.762369
C46	C	-0.473679	0.000184	0.095155
C47	C	-0.140346	0.333518	0.428489
C48	C	0.192987	0.666851	0.761822
C49	C	-0.510074	-0.083600	0.095698
C50	C	-0.176741	0.249733	0.429031
C51	C	0.156592	0.583067	0.762364
C52	C	-0.582896	-0.083606	0.096776
C53	C	-0.249562	0.249727	0.430110
C54	C	0.083771	0.583060	0.763443
N55	N	-0.364655	-0.062182	0.053724
N56	N	-0.031322	0.271151	0.387058
N57	N	0.302012	0.604484	0.720391
N58	N	-0.295478	-0.062170	0.052698
N59	N	0.037856	0.271163	0.386031
N60	N	0.371189	0.604496	0.719365
C61	C	-0.254272	0.000198	0.091907
C62	C	0.079061	0.333532	0.425240
C63	C	0.412394	0.666865	0.758573
N64	N	-0.284858	0.062569	0.132171
N65	N	0.048475	0.395902	0.465505
N66	N	0.381808	0.729236	0.798838
N67	N	-0.354042	0.062560	0.133194
N68	N	-0.020709	0.395893	0.466528
N69	N	0.312624	0.729227	0.799861
C70	C	-0.394717	0.000182	0.093986
C71	C	-0.061383	0.333515	0.427319
C72	C	0.271950	0.666848	0.760653
C73	C	-0.138922	0.083987	0.090207
C74	C	0.194412	0.417320	0.423541
C75	C	0.527745	0.750653	0.756874
C76	C	-0.066096	0.083992	0.089140
C77	C	0.267238	0.417325	0.422473
C78	C	0.600571	0.750659	0.755807
C79	C	-0.066061	-0.083564	0.089128
C80	C	0.267273	0.249770	0.422461
C81	C	0.600606	0.583103	0.755794
C82	C	-0.138884	-0.083567	0.090202
C83	C	0.194449	0.249767	0.423535
C84	C	0.527783	0.583100	0.756869
C85	C	-0.175310	0.000211	0.090738
C86	C	0.158023	0.333545	0.424072
C87	C	0.491356	0.666878	0.757405
C88	C	-0.824495	-0.406997	0.092938
C89	C	-0.491162	-0.073664	0.426271
C90	C	-0.157829	0.259669	0.759604
C91	C	-0.882043	-0.446220	0.035417
C92	C	-0.548710	-0.112887	0.368751
C93	C	-0.215376	0.220446	0.702084
C94	C	-0.882250	-0.553308	0.035569
C95	C	-0.548917	-0.219975	0.368903
C96	C	-0.215584	0.113358	0.702236
C97	C	-0.824503	-0.592588	0.092945
C98	C	-0.491170	-0.259255	0.426278
C99	C	-0.157836	0.074078	0.759612
C100	C	-0.839891	-0.553651	0.165837
C101	C	-0.506557	-0.220317	0.499170
C102	C	-0.173224	0.113016	0.832503
C103	C	-0.840299	-0.446529	0.165495
C104	C	-0.506966	-0.113196	0.498828
C105	C	-0.173632	0.220137	0.832161
C106	C	-0.751386	-0.446510	0.078223
C107	C	-0.418053	-0.113177	0.411556
C108	C	-0.084720	0.220157	0.744890
C109	C	-0.751886	-0.553640	0.076571
C110	C	-0.418553	-0.220306	0.409904
C111	C	-0.085220	0.113027	0.743237
C112	C	-0.824506	-0.697476	0.092954
C113	C	-0.491173	-0.364143	0.426287
C114	C	-0.157839	-0.030810	0.759620
C115	C	-0.824494	-0.302109	0.092934
C116	C	-0.491161	0.031224	0.426267
C117	C	-0.157827	0.364558	0.759600
C118	C	0.047836	0.000223	0.087448
C119	C	0.381169	0.333556	0.420781
C120	C	0.714502	0.666889	0.754114
C121	C	-0.029668	0.000222	0.088594
C122	C	0.303665	0.333555	0.421927
C123	C	0.636999	0.666889	0.755260
C124	C	-0.829984	0.000138	-0.034723
C125	C	-0.496650	0.333472	0.298610
C126	C	-0.163317	0.666805	0.631943
C127	C	-0.828843	0.000100	-0.112228
C128	C	-0.495510	0.333434	0.221106
C129	C	-0.162176	0.666767	0.554439
N130	N	-0.824511	0.218912	0.092954
N131	N	-0.491177	0.552245	0.426287
N132	N	-0.157844	0.885578	0.759620
C133	C	-0.819009	0.000278	0.220611
C134	C	-0.485676	0.333612	0.553945
C135	C	-0.152343	0.666945	0.887278
C136	C	-0.820150	0.000322	0.298116
C137	C	-0.486817	0.333656	0.631449
C138	C	-0.153483	0.666989	0.964782
C139	C	-0.757058	0.000294	0.343046
C140	C	-0.423725	0.333627	0.676380
C141	C	-0.090392	0.666961	1.009713
C142	C	-0.758130	0.000273	0.415870
C143	C	-0.424797	0.333607	0.749203
C144	C	-0.091463	0.666940	1.082537
C145	C	-0.822297	0.000262	0.443760
C146	C	-0.488964	0.333596	0.777093
C147	C	-0.155630	0.666929	1.110426
C148	C	-0.885397	0.000296	0.398819
C149	C	-0.552064	0.333629	0.732153
C150	C	-0.218730	0.666963	1.065486
C151	C	-0.884323	0.000326	0.325997
C152	C	-0.550990	0.333659	0.659330
C153	C	-0.217657	0.666993	0.992664
N154	N	-0.871341	-0.052090	0.551719
N155	N	-0.538008	0.281244	0.885053
N156	N	-0.204674	0.614577	1.218386
N157	N	-0.872357	-0.052120	0.620898
N158	N	-0.539023	0.281213	0.954231
N159	N	-0.205690	0.614547	1.287565
C160	C	-0.825535	0.000174	0.663168
C161	C	-0.492202	0.333507	0.996501
C162	C	-0.158868	0.666841	1.329835
N163	N	-0.777649	0.052488	0.633648
N164	N	-0.444316	0.385822	0.966981
N165	N	-0.110982	0.719155	1.300314
N166	N	-0.776632	0.052515	0.564463
N167	N	-0.443298	0.385848	0.897797
N168	N	-0.109965	0.719181	1.231130
C169	C	-0.823468	0.000231	0.522722
C170	C	-0.490135	0.333564	0.856055
C171	C	-0.156801	0.666897	1.189389
C172	C	-0.763601	0.000125	0.787063
C173	C	-0.430268	0.333458	1.120396
C174	C	-0.096934	0.666791	1.453730
C175	C	-0.764675	0.000110	0.859888
C176	C	-0.431342	0.333443	1.193221
C177	C	-0.098009	0.666776	1.526554
C178	C	-0.891944	0.000123	0.842835
C179	C	-0.558611	0.333456	1.176169
C180	C	-0.225278	0.666790	1.509502
C181	C	-0.890868	0.000147	0.770012
C182	C	-0.557535	0.333481	1.103346
C183	C	-0.224201	0.666814	1.436679
C184	C	-0.826695	0.000144	0.742131
C185	C	-0.493361	0.333477	1.075464
C186	C	-0.160028	0.666810	1.408797
H187	H	-0.612590	0.152163	0.097211
H188	H	-0.279256	0.485496	0.430545
H189	H	0.054077	0.818830	0.763878
O190	O	-0.736402	-0.587362	0.005544
O191	O	-0.403068	-0.254029	0.338878
O192	O	-0.069735	0.079305	0.672211
H193	H	-0.730655	-0.527195	-0.029157
H194	H	-0.397322	-0.193862	0.304176
H195	H	-0.063988	0.139472	0.637509
H196	H	-0.704803	0.000299	0.320351
H197	H	-0.371470	0.333633	0.653684
H198	H	-0.038136	0.666966	0.987017
O199	O	-0.958917	0.000157	0.721544
O200	O	-0.625584	0.333490	1.054877
O201	O	-0.292250	0.666823	1.388210
H202	H	-1.003718	0.000135	0.753169
H203	H	-0.670385	0.333469	1.086502
H204	H	-0.337051	0.666802	1.419835
H205	H	-0.935702	0.000350	0.289414
H206	H	-0.602369	0.333683	0.622747
H207	H	-0.269035	0.667017	0.956080
O208	O	-0.026838	0.174347	0.088559
O209	O	0.306495	0.507680	0.421892
O210	O	0.639829	0.841013	0.755226
H211	H	-0.000032	0.178309	0.040493
H212	H	0.333301	0.511642	0.373827
H213	H	0.666634	0.844975	0.707160
O214	O	-0.470895	-0.174046	0.095192
O215	O	-0.137562	0.159287	0.428525
O216	O	0.195772	0.492620	0.761858
H217	H	-0.478596	-0.214049	0.143011
H218	H	-0.145262	0.119284	0.476344
H219	H	0.188071	0.452618	0.809678
H220	H	-0.708567	-0.421142	0.120170
H221	H	-0.375234	-0.087809	0.453503
H222	H	-0.041901	0.245524	0.786836
H223	H	-0.612521	-0.151827	0.097215
H224	H	-0.279188	0.181507	0.430549
H225	H	0.054145	0.514840	0.763882
O226	O	-0.470854	0.174311	0.095108
O227	O	-0.137521	0.507644	0.428441
O228	O	0.195813	0.840978	0.761775
H229	H	-0.508419	0.232565	0.095655
H230	H	-0.175086	0.565898	0.428988
H231	H	0.158247	0.899231	0.762322
H232	H	-0.892581	-0.580455	0.179113
H233	H	-0.559248	-0.247122	0.512446
H234	H	-0.225915	0.086211	0.845780
O235	O	-0.786859	-0.412120	0.223889
O236	O	-0.453525	-0.078786	0.557223
O237	O	-0.120192	0.254547	0.890556
H238	H	-0.800615	-0.437867	0.274981
H239	H	-0.467281	-0.104534	0.608315
H240	H	-0.133948	0.228799	0.941648
O241	O	-0.026721	-0.173880	0.088576
O242	O	0.306612	0.159453	0.421909
O243	O	0.639946	0.492787	0.755243
H244	H	-0.047019	-0.214138	0.041218
H245	H	0.286314	0.119195	0.374551
H246	H	0.619647	0.452529	0.707885
H247	H	-0.168511	-0.151784	0.090636
H248	H	0.164822	0.181549	0.423969
H249	H	0.498156	0.514883	0.757302
O250	O	-0.178217	0.174340	0.090798
O251	O	0.155116	0.507674	0.424132
O252	O	0.488450	0.841007	0.757465
H253	H	-0.140675	0.232597	0.090257
H254	H	0.192658	0.565930	0.423590
H255	H	0.525991	0.899264	0.756924
H256	H	-0.873165	-0.579638	-0.018613
H257	H	-0.539832	-0.246305	0.314721
H258	H	-0.206498	0.087028	0.648054
H259	H	-0.873122	-0.420482	-0.018944
H260	H	-0.539788	-0.087149	0.314389
H261	H	-0.206455	0.246184	0.647722
H262	H	-0.936000	-0.419267	0.044682
H263	H	-0.602667	-0.085934	0.378016
H264	H	-0.269333	0.247399	0.711349
H265	H	-0.713296	0.000093	0.896470
H266	H	-0.379963	0.333426	1.229804
H267	H	-0.046630	0.666759	1.563137
O268	O	-0.690079	0.000230	0.464345
O269	O	-0.356746	0.333563	0.797679
O270	O	-0.023413	0.666896	1.131012
H271	H	-0.645276	0.000225	0.432723
H272	H	-0.311943	0.333558	0.766056
H273	H	0.021391	0.666891	1.099390
H274	H	-0.707096	-0.580376	0.115749
H275	H	-0.373762	-0.247042	0.449083
H276	H	-0.040429	0.086291	0.782416
H277	H	-0.936515	-0.578913	0.044978
H278	H	-0.603182	-0.245580	0.378311
H279	H	-0.269848	0.087754	0.711644
H280	H	-0.944190	0.000182	0.865542
H281	H	-0.610857	0.333515	1.198875
H282	H	-0.277524	0.666848	1.532209
O283	O	-0.910905	-0.413389	0.182648
O284	O	-0.577572	-0.080056	0.515981
O285	O	-0.244238	0.253277	0.849314
H286	H	-0.944437	-0.473874	0.191106
H287	H	-0.611104	-0.140541	0.524439
H288	H	-0.277771	0.192793	0.857772
O289	O	-0.785829	-0.587352	0.223913
O290	O	-0.452496	-0.254018	0.557247
O291	O	-0.119163	0.079315	0.890580
H292	H	-0.747330	-0.632321	0.201387
H293	H	-0.413996	-0.298988	0.534720
H294	H	-0.080663	0.034345	0.868053
O295	O	-0.731627	-0.410798	0.009311
O296	O	-0.398294	-0.077465	0.342644
O297	O	-0.064961	0.255869	0.675978
H298	H	-0.773700	-0.364482	-0.015222
H299	H	-0.440367	-0.031148	0.318111
H300	H	-0.107033	0.302185	0.651445
H301	H	-0.937642	0.000304	0.421532
H302	H	-0.604309	0.333638	0.754865
H303	H	-0.270976	0.666971	1.088198
O304	O	-0.694390	0.000136	0.756982
O305	O	-0.361057	0.333469	1.090315
O306	O	-0.027724	0.666803	1.423648
H307	H	-0.650697	0.000129	0.800463
H308	H	-0.317363	0.333463	1.133797
H309	H	0.015970	0.666796	1.467130
