data_functionalizedCrystal
_audit_creation_method	'MofGen! by Chris Wilmer'
_symmetry_space_group_name_H-M	'P1'
_symmetry_Int_Tables_number	1
_symmetry_cell_setting	triclinic
loop_
_symmetry_equiv_pos_as_xyz
  x,y,z
_cell_length_a	14.908742
_cell_length_b	13.897447
_cell_length_c	13.897441
_cell_angle_alpha	89.970673
_cell_angle_beta	93.280977
_cell_angle_gamma	86.726005
loop_
_atom_site_label
_atom_site_type_symbol
_atom_site_fract_x
_atom_site_fract_y
_atom_site_fract_z
Zn1	Zn	1.379176	-0.469028	-0.460135
Zn2	Zn	1.712510	-0.135695	-0.126801
Zn3	Zn	2.045843	0.197639	0.206532
Zn4	Zn	1.379072	-0.630343	-0.298846
Zn5	Zn	1.712406	-0.297010	0.034487
Zn6	Zn	2.045739	0.036323	0.367820
Zn7	Zn	1.228313	-0.459768	-0.308179
Zn8	Zn	1.561647	-0.126434	0.025154
Zn9	Zn	1.894980	0.206899	0.358488
Zn10	Zn	1.228291	-0.620979	-0.469419
Zn11	Zn	1.561625	-0.287646	-0.136086
Zn12	Zn	1.894958	0.045688	0.197247
O13	O	1.303713	-0.545030	-0.384145
O14	O	1.637047	-0.211696	-0.050812
O15	O	1.970380	0.121637	0.282522
O16	O	1.505402	-0.498222	-0.430948
O17	O	1.838735	-0.164888	-0.097615
O18	O	2.172068	0.168445	0.235719
O19	O	1.359040	-0.607760	-0.165105
O20	O	1.692373	-0.274426	0.168229
O21	O	2.025706	0.058907	0.501562
O22	O	1.248378	-0.326018	-0.328356
O23	O	1.581712	0.007316	0.004977
O24	O	1.915045	0.340649	0.338310
O25	O	1.505325	-0.616739	-0.312450
O26	O	1.838658	-0.283406	0.020883
O27	O	2.171992	0.049927	0.354217
O28	O	1.359217	-0.332821	-0.439998
O29	O	1.692550	0.000512	-0.106664
O30	O	2.025883	0.333845	0.226669
O31	O	1.248278	-0.482439	-0.171961
O32	O	1.581611	-0.149105	0.161372
O33	O	1.914944	0.184228	0.494705
O34	O	1.102071	-0.473358	-0.337359
O35	O	1.435405	-0.140025	-0.004026
O36	O	1.768738	0.193308	0.329307
O37	O	1.248341	-0.600779	-0.603167
O38	O	1.581674	-0.267445	-0.269834
O39	O	1.915008	0.065888	0.063499
O40	O	1.102055	-0.591799	-0.455822
O41	O	1.435389	-0.258466	-0.122489
O42	O	1.768722	0.074867	0.210845
O43	O	1.359195	-0.489141	-0.596346
O44	O	1.692529	-0.155808	-0.263013
O45	O	2.025862	0.177526	0.070321
O46	O	1.359018	-0.764080	-0.321453
O47	O	1.692352	-0.430746	0.011880
O48	O	2.025685	-0.097413	0.345214
O49	O	1.248240	-0.757199	-0.446772
O50	O	1.581573	-0.423866	-0.113439
O51	O	1.914907	-0.090533	0.219894
C52	C	1.069331	-0.530558	-0.398611
C53	C	1.402664	-0.197225	-0.065278
C54	C	1.735998	0.136108	0.268055
C55	C	0.969061	-0.524391	-0.404823
C56	C	1.302395	-0.191057	-0.071490
C57	C	1.635728	0.142276	0.261844
C58	C	0.827771	-0.454101	-0.475363
C59	C	1.161105	-0.120768	-0.142029
C60	C	1.494438	0.212565	0.191304
C61	C	0.921984	-0.459888	-0.469531
C62	C	1.255317	-0.126555	-0.136198
C63	C	1.588650	0.206779	0.197136
C64	C	0.921920	-0.583113	-0.345944
C65	C	1.255253	-0.249780	-0.012611
C66	C	1.588586	0.083553	0.320722
C67	C	0.827707	-0.577327	-0.351776
C68	C	1.161041	-0.243993	-0.018443
C69	C	1.494374	0.089340	0.314891
C70	C	0.780636	-0.512817	-0.416486
C71	C	1.113970	-0.179484	-0.083153
C72	C	1.447303	0.153849	0.250180
C73	C	0.686422	-0.507027	-0.422312
C74	C	1.019756	-0.173693	-0.088979
C75	C	1.353089	0.159640	0.244354
C76	C	0.686360	-0.630256	-0.298731
C77	C	1.019693	-0.296923	0.034602
C78	C	1.353027	0.036411	0.367935
C79	C	0.780572	-0.636043	-0.292900
C80	C	1.113906	-0.302709	0.040434
C81	C	1.447239	0.030624	0.373767
C82	C	1.303640	-0.795639	-0.384127
C83	C	1.636973	-0.462306	-0.050794
C84	C	1.970307	-0.128973	0.282540
C85	C	1.303691	-0.902856	-0.384147
C86	C	1.637025	-0.569523	-0.050813
C87	C	1.970358	-0.236190	0.282520
C88	C	1.303735	-0.989929	-0.384166
C89	C	1.637068	-0.656596	-0.050832
C90	C	1.970401	-0.323262	0.282501
C91	C	1.303798	-1.099165	-0.384187
C92	C	1.637131	-0.765832	-0.050853
C93	C	1.970465	-0.432499	0.282480
C94	C	1.539011	-0.559558	-0.369622
C95	C	1.872344	-0.226225	-0.036289
C96	C	2.205678	0.107109	0.297044
C97	C	1.639281	-0.565749	-0.363434
C98	C	1.972614	-0.232416	-0.030100
C99	C	2.305947	0.100918	0.303233
C100	C	1.303777	-0.544948	-0.635734
C101	C	1.637111	-0.211615	-0.302401
C102	C	1.970444	0.121718	0.030933
C103	C	1.303805	-0.544914	-0.742946
C104	C	1.637138	-0.211580	-0.409613
C105	C	1.970471	0.121753	-0.076280
C106	C	1.303812	-0.293443	-0.384182
C107	C	1.637145	0.039891	-0.050849
C108	C	1.970478	0.373224	0.282484
C109	C	1.303853	-0.186231	-0.384198
C110	C	1.637187	0.147102	-0.050865
C111	C	1.970520	0.480435	0.282468
C112	C	1.303829	-0.544850	-0.939240
C113	C	1.637162	-0.211517	-0.605907
C114	C	1.970496	0.121817	-0.272573
C115	C	1.303813	-0.544888	-0.830009
C116	C	1.637146	-0.211554	-0.496675
C117	C	1.970479	0.121779	-0.163342
C118	C	1.303702	-0.545044	-0.133531
C119	C	1.637035	-0.211711	0.199802
C120	C	1.970368	0.121623	0.533135
C121	C	1.303849	-0.544818	-0.026309
C122	C	1.637182	-0.211485	0.307025
C123	C	1.970516	0.121849	0.640358
H124	H	0.960261	-0.635636	-0.293263
H125	H	1.293594	-0.302303	0.040070
H126	H	1.626928	0.031031	0.373403
H127	H	0.648099	-0.454496	-0.474999
H128	H	0.981432	-0.121162	-0.141665
H129	H	1.314765	0.212171	0.191668
C130	C	0.775987	-0.383142	-0.546531
C131	C	1.109320	-0.049809	-0.213197
C132	C	1.442653	0.283524	0.120136
H133	H	0.713126	-0.388101	-0.541566
H134	H	1.046460	-0.054767	-0.208232
H135	H	1.379793	0.278566	0.125101
H136	H	0.791450	-0.398277	-0.610361
H137	H	1.124783	-0.064944	-0.277028
H138	H	1.458116	0.268389	0.056305
H139	H	0.791428	-0.319262	-0.531556
H140	H	1.124761	0.014072	-0.198222
H141	H	1.458095	0.347405	0.135111
H142	H	0.818910	-0.688566	-0.240217
H143	H	1.152244	-0.355233	0.093116
H144	H	1.485577	-0.021900	0.426450
H145	H	0.960358	-0.412075	-0.517474
H146	H	1.293691	-0.078742	-0.184141
H147	H	1.627024	0.254591	0.149192
C148	C	0.634510	-0.694853	-0.233972
C149	C	0.967843	-0.361520	0.099362
C150	C	1.301177	-0.028187	0.432695
H151	H	0.571658	-0.682175	-0.246715
H152	H	0.904992	-0.348842	0.086618
H153	H	1.238325	-0.015508	0.419951
H154	H	0.649925	-0.681612	-0.168231
H155	H	0.983258	-0.348278	0.165103
H156	H	1.316592	-0.014945	0.498436
H157	H	0.649949	-0.760631	-0.247033
H158	H	0.983282	-0.427297	0.086300
H159	H	1.316616	-0.093964	0.419633
