data_functionalizedCrystal
_audit_creation_method	'MofGen! by Chris Wilmer'
_symmetry_space_group_name_H-M	'P1'
_symmetry_Int_Tables_number	1
_symmetry_cell_setting	triclinic
loop_
_symmetry_equiv_pos_as_xyz
  x,y,z
_cell_length_a	19.121063
_cell_length_b	18.050591
_cell_length_c	18.050582
_cell_angle_alpha	89.977259
_cell_angle_beta	87.584968
_cell_angle_gamma	87.537236
loop_
_atom_site_label
_atom_site_type_symbol
_atom_site_fract_x
_atom_site_fract_y
_atom_site_fract_z
Zn1	Zn	-0.279781	-1.122674	0.432668
Zn2	Zn	-0.397225	-1.117288	0.313767
Zn3	Zn	-0.279779	-0.998493	0.308475
Zn4	Zn	-0.397183	-0.993146	0.437896
O5	O	-0.338492	-1.057900	0.373201
O6	O	-0.295379	-1.225883	0.416922
O7	O	-0.381662	-1.101513	0.209141
O8	O	-0.181495	-1.019458	0.320546
O9	O	-0.381665	-1.221926	0.329566
O10	O	-0.181497	-1.110693	0.411790
O11	O	-0.295375	-1.014235	0.205253
O12	O	-0.295334	-0.893860	0.325616
O13	O	-0.381593	-1.010345	0.541127
O14	O	-0.381590	-0.889932	0.420702
O15	O	-0.295338	-1.105508	0.537285
O16	O	-0.495504	-1.096328	0.334636
O17	O	-0.495473	-1.005122	0.425833
C18	C	-0.338458	-0.864950	0.373153
C19	C	-0.338460	-0.782404	0.373150
C20	C	-0.520973	-1.049581	0.381392
C21	C	-0.599039	-1.046090	0.384921
C22	C	-0.291493	-0.535696	0.321544
C23	C	-0.274396	-0.585899	0.388553
C24	C	-0.338481	-0.485283	0.373196
C25	C	-0.355535	-0.582163	0.306167
C26	C	-0.338469	-0.631268	0.373170
C27	C	-0.321351	-0.534400	0.440240
C28	C	-0.402520	-0.530659	0.357810
C29	C	-0.385447	-0.580838	0.424866
C30	C	-0.338486	-0.401184	0.373210
C31	C	-0.338464	-0.715365	0.373163
C32	C	-0.635707	-1.091972	0.339137
C33	C	-0.709058	-1.088693	0.342460
C34	C	-0.745740	-1.039527	0.391565
C35	C	-0.709066	-0.993642	0.437354
C36	C	-0.635716	-0.996926	0.434034
C37	C	-0.967210	-1.027239	0.403966
C38	C	-1.040565	-1.023958	0.407282
C39	C	-1.040552	-1.119010	0.312388
C40	C	-0.967200	-1.122286	0.309069
C41	C	-0.930533	-1.076404	0.354861
C42	C	-0.820717	-1.036172	0.394961
C43	C	-0.855558	-1.079763	0.351468
C44	C	-0.155299	-1.066273	0.364994
C45	C	-0.077233	-1.069841	0.361497
C46	C	-0.338461	-1.057931	0.566906
C47	C	-0.338448	-1.057944	0.649451
C48	C	-0.338515	-0.251605	0.373237
C49	C	-0.338492	-0.334152	0.373217
C50	C	-0.338473	-1.057915	0.180248
C51	C	-0.338288	-1.058055	0.097695
C52	C	-0.385289	-1.006235	0.850988
C53	C	-0.402464	-1.073216	0.901162
C54	C	-0.338394	-1.057983	0.800579
C55	C	-0.321199	-0.991041	0.897486
C56	C	-0.338344	-1.058015	0.946562
C57	C	-0.355603	-1.124998	0.849667
C58	C	-0.274308	-1.042778	0.845985
C59	C	-0.291459	-1.109807	0.896136
C60	C	-0.338425	-1.057964	0.716482
C61	C	-0.338313	-1.058042	1.030657
H62	H	-0.251732	-0.515809	0.277925
C63	C	-1.080913	-0.969879	0.461305
H64	H	-1.048571	-0.943029	0.488108
H65	H	-1.109565	-0.936255	0.434163
H66	H	-1.109489	-0.996998	0.494984
C67	C	-0.926856	-1.176374	0.255059
H68	H	-0.959200	-1.203236	0.228271
H69	H	-0.898278	-1.149268	0.221378
H70	H	-0.898206	-1.209997	0.282212
C71	C	-0.201147	-1.025352	0.813345
H72	H	-0.189015	-0.977734	0.829671
H73	H	-0.167699	-1.061637	0.829479
H74	H	-0.201595	-1.025917	0.760741
C75	C	-0.439117	-0.607536	0.483918
H76	H	-0.473420	-0.634937	0.460646
H77	H	-0.415832	-0.638248	0.518724
H78	H	-0.461218	-0.565890	0.508808
H79	H	-0.306858	-0.513486	0.496928
C80	C	-0.375311	-1.201513	0.821392
H81	H	-0.383494	-1.233463	0.862396
H82	H	-0.416538	-1.196199	0.793951
H83	H	-0.338048	-1.222086	0.790392
H84	H	-0.605862	-0.959564	0.471317
H85	H	-1.070414	-1.156366	0.275108
H86	H	-0.424998	-0.962510	0.831098
C87	C	-0.475662	-0.497980	0.340208
H88	H	-0.487716	-0.514286	0.292549
H89	H	-0.509155	-0.514111	0.376403
H90	H	-0.475235	-0.445375	0.340795
C91	C	-0.926885	-0.976758	0.454323
H92	H	-0.959238	-0.946999	0.484033
H93	H	-0.898230	-1.006418	0.485419
H94	H	-0.898313	-0.945697	0.424576
C95	C	-0.237860	-1.169004	0.922832
H96	H	-0.250171	-1.216520	0.906391
H97	H	-0.192490	-1.158597	0.903125
H98	H	-0.237863	-1.168426	0.975459
H99	H	-0.220232	-0.610054	0.401570
C100	C	-0.375035	-0.610538	0.229607
H101	H	-0.341608	-0.595127	0.192979
H102	H	-0.375313	-0.663146	0.230269
H103	H	-0.420211	-0.590828	0.218334
H104	H	-0.738938	-0.953613	0.477339
H105	H	-0.605846	-1.132006	0.299148
C106	C	-0.749391	-1.139161	0.292094
H107	H	-0.717039	-1.168905	0.262367
H108	H	-0.777967	-1.170225	0.321826
H109	H	-0.778042	-1.109484	0.261002
H110	H	-0.306676	-0.934415	0.918518
C111	C	-0.475645	-1.090614	0.933781
H112	H	-0.508930	-1.053790	0.918380
H113	H	-0.488167	-1.137824	0.916717
H114	H	-0.474989	-1.090943	0.986377
H115	H	-0.825690	-1.119797	0.311490
H116	H	-0.850591	-0.996140	0.434941
