data_functionalizedCrystal
_audit_creation_method	'MofGen! by Chris Wilmer'
_symmetry_space_group_name_H-M	'P1'
_symmetry_Int_Tables_number	1
_symmetry_cell_setting	triclinic
loop_
_symmetry_equiv_pos_as_xyz
  x,y,z
_cell_length_a	11.792254
_cell_length_b	7.681208
_cell_length_c	8.559649
_cell_angle_alpha	85.076566
_cell_angle_beta	103.011369
_cell_angle_gamma	84.227994
loop_
_atom_site_label
_atom_site_type_symbol
_atom_site_fract_x
_atom_site_fract_y
_atom_site_fract_z
O1	O	1.498899	-0.146424	-0.203917
O2	O	1.166497	-0.146427	-0.226449
O3	O	1.361983	-0.146424	0.017163
O4	O	1.303413	-0.146428	-0.447529
O5	O	1.337888	0.146446	-0.012868
O6	O	1.142403	0.146443	-0.256480
O7	O	1.474804	0.146446	-0.233948
Zn8	Zn	1.304778	0.192943	-0.249982
Zn9	Zn	1.336523	-0.192925	-0.210415
O10	O	1.279319	0.146442	-0.477560
C11	C	1.112289	0.000007	-0.240045
C12	C	0.986665	0.000006	-0.235796
N13	N	1.283121	0.456289	-0.276985
C14	C	0.884645	-0.000002	-0.232344
C15	C	0.756654	-0.000003	-0.228027
C16	C	1.529012	0.000007	-0.220351
C17	C	1.654637	-0.000003	-0.224599
C18	C	1.354374	0.000008	0.061639
C19	C	1.367587	-0.000002	0.238905
N20	N	1.358180	0.543730	-0.183412
C21	C	1.286927	0.000006	-0.522036
C22	C	1.273716	0.000005	-0.699300
H23	H	1.206528	0.531524	-0.372477
H24	H	1.458066	0.000013	0.321620
H25	H	1.434771	0.468485	-0.087902
H26	H	1.183241	0.000009	0.217992
