data_functionalizedCrystal
_audit_creation_method	'MofGen! by Chris Wilmer'
_symmetry_space_group_name_H-M	'P1'
_symmetry_Int_Tables_number	1
_symmetry_cell_setting	triclinic
loop_
_symmetry_equiv_pos_as_xyz
  x,y,z
_cell_length_a	11.792241
_cell_length_b	10.868271
_cell_length_c	11.792254
_cell_angle_alpha	90.001586
_cell_angle_beta	84.196007
_cell_angle_gamma	90.000156
loop_
_atom_site_label
_atom_site_type_symbol
_atom_site_fract_x
_atom_site_fract_y
_atom_site_fract_z
O1	O	1.506916	0.102203	0.155561
O2	O	1.756916	0.352203	0.405561
O3	O	2.006916	0.602203	0.655561
O4	O	2.256916	0.852203	0.905561
O5	O	1.176576	0.102232	0.171594
O6	O	1.426576	0.352232	0.421594
O7	O	1.676576	0.602232	0.671594
O8	O	1.926576	0.852232	0.921594
O9	O	1.349755	0.102208	-0.001592
O10	O	1.599755	0.352208	0.248408
O11	O	1.849755	0.602208	0.498408
O12	O	2.099755	0.852208	0.748408
O13	O	1.333737	0.102227	0.328747
O14	O	1.583737	0.352227	0.578747
O15	O	1.833737	0.602227	0.828747
O16	O	2.083737	0.852227	1.078747
O17	O	1.349739	-0.102436	-0.001586
O18	O	1.599739	0.147564	0.248414
O19	O	1.849739	0.397564	0.498414
O20	O	2.099739	0.647564	0.748414
O21	O	1.176560	-0.102413	0.171600
O22	O	1.426560	0.147587	0.421600
O23	O	1.676560	0.397587	0.671600
O24	O	1.926560	0.647587	0.921600
O25	O	1.506900	-0.102441	0.155567
O26	O	1.756900	0.147559	0.405567
O27	O	2.006900	0.397559	0.655567
O28	O	2.256900	0.647559	0.905567
Zn29	Zn	1.341728	-0.134919	0.163584
Zn30	Zn	1.591728	0.115081	0.413584
Zn31	Zn	1.841728	0.365081	0.663584
Zn32	Zn	2.091728	0.615081	0.913584
Zn33	Zn	1.341748	0.134709	0.163577
Zn34	Zn	1.591748	0.384709	0.413577
Zn35	Zn	1.841748	0.634709	0.663577
Zn36	Zn	2.091748	0.884709	0.913577
O37	O	1.333721	-0.102418	0.328753
O38	O	1.583721	0.147582	0.578753
O39	O	1.833721	0.397582	0.828753
O40	O	2.083721	0.647582	1.078753
C41	C	1.134277	-0.000087	0.170590
C42	C	1.384277	0.249913	0.420590
C43	C	1.634277	0.499913	0.670590
C44	C	1.884277	0.749913	0.920590
C45	C	1.008263	-0.000076	0.167576
C46	C	1.258263	0.249924	0.417576
C47	C	1.508263	0.499924	0.667576
C48	C	1.758263	0.749924	0.917576
N49	N	1.341722	-0.318933	0.163589
N50	N	1.591722	-0.068933	0.413589
N51	N	1.841722	0.181067	0.663589
N52	N	2.091722	0.431067	0.913589
C53	C	0.777551	-0.000112	0.162033
C54	C	1.027551	0.249888	0.412033
C55	C	1.277551	0.499888	0.662033
C56	C	1.527551	0.749888	0.912033
C57	C	0.905936	-0.000092	0.165112
C58	C	1.155936	0.249908	0.415112
C59	C	1.405936	0.499908	0.665112
C60	C	1.655936	0.749908	0.915112
C61	C	1.341731	-0.430270	0.163589
C62	C	1.591731	-0.180270	0.413589
C63	C	1.841731	0.069730	0.663589
C64	C	2.091731	0.319730	0.913589
C65	C	1.341745	-0.569948	0.163579
C66	C	1.591745	-0.319948	0.413579
C67	C	1.841745	-0.069948	0.663579
C68	C	2.091745	0.180052	0.913579
C69	C	1.549199	-0.000120	0.156571
C70	C	1.799199	0.249880	0.406571
C71	C	2.049199	0.499880	0.656571
C72	C	2.299199	0.749880	0.906571
C73	C	1.675213	-0.000123	0.159586
C74	C	1.925213	0.249877	0.409586
C75	C	2.175213	0.499877	0.659586
C76	C	2.425213	0.749877	0.909586
C77	C	1.348738	-0.000114	-0.043880
C78	C	1.598738	0.249886	0.206120
C79	C	1.848738	0.499886	0.456120
C80	C	2.098738	0.749886	0.706120
C81	C	1.345718	-0.000112	-0.169893
C82	C	1.595718	0.249888	0.080107
C83	C	1.845718	0.499888	0.330107
C84	C	2.095718	0.749888	0.580107
N85	N	1.341763	0.318724	0.163564
N86	N	1.591763	0.568724	0.413564
N87	N	1.841763	0.818724	0.663564
N88	N	2.091763	1.068724	0.913564
C89	C	1.343264	-0.000108	-0.272229
C90	C	1.593264	0.249892	-0.022229
C91	C	1.843264	0.499892	0.227771
C92	C	2.093264	0.749892	0.477771
C93	C	1.340196	-0.000096	-0.400616
C94	C	1.590196	0.249904	-0.150616
C95	C	1.840196	0.499904	0.099384
C96	C	2.090196	0.749904	0.349384
C97	C	1.334738	-0.000093	0.371041
C98	C	1.584738	0.249907	0.621041
C99	C	1.834738	0.499907	0.871041
C100	C	2.084738	0.749907	1.121041
C101	C	1.337758	-0.000086	0.497054
C102	C	1.587758	0.249914	0.747054
C103	C	1.837758	0.499914	0.997054
C104	C	2.087758	0.749914	1.247054
