data_functionalizedCrystal
_audit_creation_method	'MofGen! by Chris Wilmer'
_symmetry_space_group_name_H-M	'P1'
_symmetry_Int_Tables_number	1
_symmetry_cell_setting	triclinic
loop_
_symmetry_equiv_pos_as_xyz
  x,y,z
_cell_length_a	12.811438
_cell_length_b	17.019294
_cell_length_c	11.892052
_cell_angle_alpha	81.754797
_cell_angle_beta	80.231060
_cell_angle_gamma	83.350268
loop_
_atom_site_label
_atom_site_type_symbol
_atom_site_fract_x
_atom_site_fract_y
_atom_site_fract_z
O1	O	1.408413	0.118275	-0.249890
O2	O	1.100868	0.128358	-0.219348
O3	O	1.262503	0.008010	-0.224195
O4	O	1.246778	0.238623	-0.245043
O5	O	1.250395	-0.001141	-0.034054
O6	O	1.088761	0.119206	-0.029207
O7	O	1.396306	0.109123	-0.059749
Zn8	Zn	1.240611	0.112712	-0.014289
Zn9	Zn	1.256563	0.124769	-0.264808
O10	O	1.234671	0.229471	-0.054901
C11	C	1.055449	0.122937	-0.120160
C12	C	0.938154	0.120408	-0.107891
C13	C	0.766232	0.111855	0.013042
C14	C	0.876441	0.114231	0.001519
C15	C	0.889649	0.124210	-0.205785
C16	C	0.779440	0.121833	-0.194262
C17	C	0.717735	0.115654	-0.084845
C18	C	0.607525	0.113272	-0.073322
C19	C	0.620734	0.123256	-0.280625
C20	C	0.730944	0.125632	-0.292148
C21	C	1.255614	-0.026099	-0.126165
C22	C	1.253114	-0.114101	-0.117346
C23	C	1.258541	-0.150451	-0.216848
C24	C	1.256185	-0.233137	-0.208557
C25	C	1.248408	-0.279472	-0.100763
C26	C	1.242977	-0.243116	-0.001254
C27	C	1.245326	-0.160431	-0.009545
C28	C	1.240979	-0.529377	-0.070543
C29	C	1.238633	-0.612068	-0.062259
C30	C	1.251839	-0.602083	-0.269563
C31	C	1.254194	-0.519397	-0.277846
C32	C	1.248757	-0.483048	-0.178335
C33	C	1.246003	-0.363990	-0.092286
C34	C	1.251155	-0.398530	-0.186813
C35	C	1.441725	0.114545	-0.158940
C36	C	1.559021	0.117074	-0.171216
C37	C	1.241560	0.263581	-0.152934
C38	C	1.244061	0.351582	-0.161761
N39	N	1.229732	0.104483	0.156683
N40	N	1.267450	0.132992	-0.435781
C41	C	1.154038	0.047230	0.347564
C42	C	1.161633	0.052980	0.227882
C43	C	1.290241	0.150237	0.205173
C44	C	1.282646	0.144487	0.324855
C45	C	1.214541	0.092983	0.396046
C46	C	1.206941	0.087238	0.515730
C47	C	1.335554	0.184491	0.493018
C48	C	1.343149	0.190241	0.373337
H49	H	0.715989	0.106829	0.102133
Cl50	Cl	1.411617	0.242014	0.553974
H51	H	1.151482	0.045303	0.573693
H52	H	0.915922	0.111140	0.081228
H53	H	1.260527	-0.481676	-0.365623
Cl54	Cl	0.967239	0.131975	-0.343325
H55	H	0.557285	0.108246	0.015770
Cl56	Cl	1.068412	-0.017509	0.437065
H57	H	1.345699	0.192163	0.147189
H58	H	0.781198	0.130666	-0.381233
Cl59	Cl	1.258671	-0.647783	-0.394653
H60	H	0.581237	0.126352	-0.360332
H61	H	1.264879	-0.112731	-0.304626
H62	H	1.260609	-0.262729	-0.289583
H63	H	1.257479	-0.360800	-0.274577
H64	H	1.232295	-0.649792	0.025524
H65	H	1.236573	-0.499793	0.010484
Cl66	Cl	1.233188	-0.301365	0.134261
Cl67	Cl	1.238501	-0.114733	0.115549
H68	H	1.239675	-0.401726	-0.004521
Cl69	Cl	1.085571	-0.004543	0.166937
Cl70	Cl	1.428764	0.254984	0.283829
