data_functionalizedCrystal
_audit_creation_method	'MofGen! by Chris Wilmer'
_symmetry_space_group_name_H-M	'P1'
_symmetry_Int_Tables_number	1
_symmetry_cell_setting	triclinic
loop_
_symmetry_equiv_pos_as_xyz
  x,y,z
_cell_length_a	16.109296
_cell_length_b	10.723024
_cell_length_c	9.798715
_cell_angle_alpha	89.997785
_cell_angle_beta	90.001425
_cell_angle_gamma	96.036421
loop_
_atom_site_label
_atom_site_type_symbol
_atom_site_fract_x
_atom_site_fract_y
_atom_site_fract_z
O1	O	-1.104077	0.160358	-0.113423
O2	O	-0.862132	0.180325	-0.113440
O3	O	-0.988685	-0.011309	-0.113426
O4	O	-0.977524	0.351992	-0.113437
O5	O	-0.988677	-0.011310	0.113556
O6	O	-0.862123	0.180324	0.113543
O7	O	-1.104068	0.160357	0.113559
Zn8	Zn	-0.983094	0.170340	0.149589
Zn9	Zn	-0.983106	0.170342	-0.149470
O10	O	-0.977515	0.351991	0.113545
C11	C	-0.831148	0.179517	0.000049
C12	C	-0.738838	0.177096	0.000043
C13	C	-0.987869	-0.057798	0.000064
C14	C	-0.985439	-0.196320	0.000059
C15	C	-0.430462	0.282890	0.000067
C16	C	-0.517195	0.285177	0.000058
C17	C	-0.535731	0.057813	0.000046
C18	C	-0.448999	0.055528	0.000045
C19	C	-0.396366	0.168070	0.000063
C20	C	-0.569832	0.172642	0.000055
C21	C	-0.663873	0.175121	0.000045
C22	C	-0.302319	0.165592	0.000070
C23	C	-1.056251	-0.272243	0.000061
C24	C	-1.053741	-0.415413	0.000056
C25	C	-0.135052	0.161173	0.000070
C26	C	-0.227360	0.163617	0.000074
C27	C	-0.978332	0.398480	0.000053
C28	C	-0.980762	0.537002	0.000049
N29	N	-0.983092	0.170338	0.353689
N30	N	-0.983114	0.170334	-0.353569
C31	C	-1.036360	0.089702	0.578626
C32	C	-1.036349	0.089703	0.421464
H33	H	-0.387610	0.374529	0.000080
H34	H	-0.920137	-0.397767	0.000056
O35	O	-1.090830	0.007283	0.647956
C36	C	-1.140317	-0.067717	0.554397
H37	H	-1.141618	-0.016643	0.452505
H38	H	-1.112774	-0.160414	0.539254
C39	C	-1.228225	-0.156143	0.735441
C40	C	-1.229829	-0.093410	0.610298
H41	H	-1.283440	-0.171998	0.769924
H42	H	-1.194884	-0.105618	0.798474
H43	H	-1.205269	-0.233384	0.722804
H44	H	-1.252775	-0.016164	0.622940
H45	H	-1.263176	-0.143922	0.547268
O46	O	-0.910871	-0.245151	-0.000192
C47	C	-0.865371	-0.204327	-0.117732
H48	H	-0.910239	-0.177171	-0.199892
H49	H	-0.819454	-0.119564	-0.091153
C50	C	-0.761977	-0.344271	-0.070137
C51	C	-0.817086	-0.310927	-0.171051
H52	H	-0.732190	-0.410024	-0.103025
H53	H	-0.792630	-0.371772	0.009055
H54	H	-0.723721	-0.273626	-0.047997
H55	H	-0.855347	-0.381567	-0.193178
H56	H	-0.786438	-0.283441	-0.250249
H57	H	-0.937501	0.239370	0.411989
H58	H	-0.421238	-0.037978	0.000038
O59	O	-0.928801	0.252868	0.576952
C60	C	-0.943010	0.376419	0.611789
H61	H	-1.009557	0.377062	0.651143
H62	H	-0.897100	0.413139	0.694632
C63	C	-0.848918	0.460118	0.436437
C64	C	-0.930655	0.460909	0.484763
H65	H	-0.841294	0.512238	0.358084
H66	H	-0.839343	0.376880	0.412969
H67	H	-0.810670	0.490715	0.505485
H68	H	-0.968901	0.430297	0.415722
H69	H	-0.940236	0.544144	0.508216
O70	O	-0.550178	0.396822	0.000127
C71	C	-0.485122	0.495656	0.000105
H72	H	-0.426014	0.460694	0.043079
H73	H	-0.473045	0.530378	-0.108787
C74	C	-0.582812	0.646885	0.036344
C75	C	-0.510217	0.603946	0.089136
H76	H	-0.598292	0.713686	0.091257
H77	H	-0.626642	0.580299	0.036354
H78	H	-0.572739	0.675810	-0.054398
H79	H	-0.520293	0.575007	0.179870
H80	H	-0.466388	0.670529	0.089144
H81	H	-1.081932	0.020666	0.363155
H82	H	-1.118735	-0.231251	0.000074
O83	O	-1.125988	-0.493409	-0.000003
C84	C	-1.107398	-0.618993	0.000028
H85	H	-1.042055	-0.623831	-0.042947
H86	H	-1.110303	-0.656641	0.108922
C87	C	-1.251693	-0.692840	-0.036205
C88	C	-1.171439	-0.698783	-0.088998
H89	H	-1.291198	-0.742061	-0.091114
H90	H	-1.264218	-0.608233	-0.036220
H91	H	-1.254101	-0.724211	0.054539
H92	H	-1.169029	-0.667398	-0.179733
H93	H	-1.158915	-0.783388	-0.089000
H94	H	-0.578595	-0.033814	0.000036
