data_functionalizedCrystal
_audit_creation_method	'MofGen! by Chris Wilmer'
_symmetry_space_group_name_H-M	'P1'
_symmetry_Int_Tables_number	1
_symmetry_cell_setting	triclinic
loop_
_symmetry_equiv_pos_as_xyz
  x,y,z
_cell_length_a	18.215407
_cell_length_b	19.121063
_cell_length_c	18.215399
_cell_angle_alpha	92.407307
_cell_angle_beta	89.983176
_cell_angle_gamma	92.469446
loop_
_atom_site_label
_atom_site_type_symbol
_atom_site_fract_x
_atom_site_fract_y
_atom_site_fract_z
Zn1	Zn	1.112538	-0.279596	-0.428595
Zn2	Zn	1.362538	-0.029596	-0.178595
Zn3	Zn	1.612538	0.220404	0.071405
Zn4	Zn	1.862538	0.470404	0.321405
Zn5	Zn	1.107196	-0.397056	-0.310772
Zn6	Zn	1.357196	-0.147056	-0.060772
Zn7	Zn	1.607196	0.102944	0.189228
Zn8	Zn	1.857196	0.352944	0.439228
Zn9	Zn	0.989475	-0.279624	-0.305544
Zn10	Zn	1.239475	-0.029624	-0.055544
Zn11	Zn	1.489475	0.220376	0.194456
Zn12	Zn	1.739475	0.470376	0.444456
Zn13	Zn	0.984181	-0.397012	-0.433795
Zn14	Zn	1.234181	-0.147012	-0.183795
Zn15	Zn	1.484181	0.102988	0.066205
Zn16	Zn	1.734181	0.352988	0.316205
O17	O	1.048347	-0.338322	-0.369676
O18	O	1.298347	-0.088322	-0.119676
O19	O	1.548347	0.161678	0.130324
O20	O	1.798347	0.411678	0.380324
O21	O	1.214813	-0.295184	-0.412978
O22	O	1.464813	-0.045184	-0.162978
O23	O	1.714813	0.204816	0.087022
O24	O	1.964813	0.454816	0.337022
O25	O	1.091560	-0.381508	-0.207095
O26	O	1.341560	-0.131508	0.042905
O27	O	1.591560	0.118492	0.292905
O28	O	1.841560	0.368492	0.542905
O29	O	1.010251	-0.181336	-0.317503
O30	O	1.260251	0.068664	-0.067503
O31	O	1.510251	0.318664	0.182497
O32	O	1.760251	0.568664	0.432497
O33	O	1.210888	-0.381481	-0.326413
O34	O	1.460888	-0.131481	-0.076413
O35	O	1.710888	0.118519	0.173587
O36	O	1.960888	0.368519	0.423587
O37	O	1.100664	-0.181315	-0.407908
O38	O	1.350664	0.068685	-0.157908
O39	O	1.600664	0.318685	0.092092
O40	O	1.850664	0.568685	0.342092
O41	O	1.005071	-0.295231	-0.203254
O42	O	1.255071	-0.045231	0.046746
O43	O	1.505071	0.204769	0.296746
O44	O	1.755071	0.454769	0.546746
O45	O	0.885789	-0.295189	-0.322545
O46	O	1.135789	-0.045189	-0.072545
O47	O	1.385789	0.204811	0.177455
O48	O	1.635789	0.454811	0.427455
O49	O	1.001228	-0.381406	-0.536088
O50	O	1.251228	-0.131406	-0.286088
O51	O	1.501228	0.118594	-0.036088
O52	O	1.751228	0.368594	0.213912
O53	O	0.881900	-0.381433	-0.416770
O54	O	1.131900	-0.131433	-0.166770
O55	O	1.381900	0.118567	0.083230
O56	O	1.631900	0.368567	0.333230
O57	O	1.095531	-0.295141	-0.532268
O58	O	1.345531	-0.045141	-0.282268
O59	O	1.595531	0.204859	-0.032268
O60	O	1.845531	0.454859	0.217732
O61	O	1.086427	-0.495334	-0.331455
O62	O	1.336427	-0.245334	-0.081455
O63	O	1.586427	0.004666	0.168545
O64	O	1.836427	0.254666	0.418545
O65	O	0.996048	-0.495302	-0.421839
O66	O	1.246048	-0.245302	-0.171839
O67	O	1.496048	0.004698	0.078161
O68	O	1.746048	0.254698	0.328161
C69	C	0.857142	-0.338310	-0.369655
C70	C	1.107142	-0.088310	-0.119655
C71	C	1.357142	0.161690	0.130345
C72	C	1.607142	0.411690	0.380345
C73	C	0.775342	-0.338321	-0.369664
C74	C	1.025342	-0.088321	-0.119664
C75	C	1.275342	0.161679	0.130336
C76	C	1.525342	0.411679	0.380336
C77	C	0.585139	-0.383299	-0.418671
C78	C	0.835139	-0.133299	-0.168671
C79	C	1.085139	0.116701	0.081329
C80	C	1.335139	0.366701	0.331329
C81	C	0.508280	-0.383302	-0.418680
C82	C	0.758280	-0.133302	-0.168680
C83	C	1.008280	0.116698	0.081320
C84	C	1.258280	0.366698	0.331320
C85	C	0.512307	-0.293357	-0.320698
C86	C	0.762307	-0.043357	-0.070698
C87	C	1.012307	0.206643	0.179302
C88	C	1.262307	0.456643	0.429302
C89	C	0.589165	-0.293351	-0.320693
C90	C	0.839165	-0.043351	-0.070693
C91	C	1.089165	0.206649	0.179307
C92	C	1.339165	0.456649	0.429307
C93	C	0.625579	-0.338327	-0.369679
C94	C	0.875579	-0.088327	-0.119679
C95	C	1.125579	0.161673	0.130321
C96	C	1.375579	0.411673	0.380321
C97	C	0.471862	-0.338334	-0.369693
C98	C	0.721862	-0.088334	-0.119693
C99	C	0.971862	0.161666	0.130307
C100	C	1.221862	0.411666	0.380307
C101	C	0.388528	-0.338336	-0.369703
C102	C	0.638528	-0.088336	-0.119703
C103	C	0.888528	0.161664	0.130297
C104	C	1.138528	0.411664	0.380297
C105	C	0.708918	-0.338324	-0.369670
C106	C	0.958918	-0.088324	-0.119670
C107	C	1.208918	0.161676	0.130330
C108	C	1.458918	0.411676	0.380330
C109	C	1.040103	-0.520802	-0.377794
C110	C	1.290103	-0.270802	-0.127794
C111	C	1.540103	-0.020802	0.122206
C112	C	1.790103	0.229198	0.372206
C113	C	1.036644	-0.598868	-0.381292
C114	C	1.286644	-0.348868	-0.131292
C115	C	1.536644	-0.098868	0.118708
C116	C	1.786644	0.151132	0.368708
C117	C	1.082110	-0.635537	-0.335916
C118	C	1.332110	-0.385537	-0.085916
C119	C	1.582110	-0.135537	0.164084
C120	C	1.832110	0.114463	0.414084
C121	C	1.078861	-0.708888	-0.339209
C122	C	1.328861	-0.458888	-0.089209
C123	C	1.578861	-0.208888	0.160791
C124	C	1.828861	0.041112	0.410791
C125	C	1.030141	-0.745569	-0.387876
C126	C	1.280141	-0.495569	-0.137876
C127	C	1.530141	-0.245569	0.112124
C128	C	1.780141	0.004431	0.362124
C129	C	0.984673	-0.708895	-0.433257
C130	C	1.234673	-0.458895	-0.183257
C131	C	1.484673	-0.208895	0.066743
C132	C	1.734673	0.041105	0.316743
C133	C	0.987926	-0.635545	-0.429967
C134	C	1.237926	-0.385545	-0.179967
C135	C	1.487926	-0.135545	0.070033
C136	C	1.737926	0.114455	0.320033
C137	C	1.017965	-0.967039	-0.400167
C138	C	1.267965	-0.717039	-0.150167
C139	C	1.517965	-0.467039	0.099833
C140	C	1.767965	-0.217039	0.349833
C141	C	1.014713	-1.040394	-0.403453
C142	C	1.264713	-0.790394	-0.153453
C143	C	1.514713	-0.540394	0.096547
C144	C	1.764713	-0.290394	0.346547
C145	C	1.108902	-1.040382	-0.309405
C146	C	1.358902	-0.790382	-0.059405
C147	C	1.608902	-0.540382	0.190595
C148	C	1.858902	-0.290382	0.440595
C149	C	1.112149	-0.967031	-0.306116
C150	C	1.362149	-0.717031	-0.056116
C151	C	1.612149	-0.467031	0.193884
C152	C	1.862149	-0.217031	0.443884
C153	C	1.066683	-0.930363	-0.351500
C154	C	1.316683	-0.680363	-0.101500
C155	C	1.566683	-0.430363	0.148500
C156	C	1.816683	-0.180363	0.398500
C157	C	1.026817	-0.820546	-0.391242
C158	C	1.276817	-0.570546	-0.141242
C159	C	1.526817	-0.320546	0.108758
C160	C	1.776817	-0.070546	0.358758
C161	C	1.070012	-0.855387	-0.348137
C162	C	1.320012	-0.605387	-0.098137
C163	C	1.570012	-0.355387	0.151863
C164	C	1.820012	-0.105387	0.401863
C165	C	1.240300	-0.338334	-0.369698
C166	C	1.490300	-0.088334	-0.119698
C167	C	1.740300	0.161666	0.130302
C168	C	1.990300	0.411666	0.380302
C169	C	1.322098	-0.338340	-0.369708
C170	C	1.572098	-0.088340	-0.119708
C171	C	1.822098	0.161660	0.130292
C172	C	2.072098	0.411660	0.380292
C173	C	1.048385	-0.338266	-0.561627
C174	C	1.298385	-0.088266	-0.311627
C175	C	1.548385	0.161734	-0.061627
C176	C	1.798385	0.411734	0.188373
C177	C	1.048401	-0.338242	-0.643425
C178	C	1.298401	-0.088242	-0.393425
C179	C	1.548401	0.161758	-0.143425
C180	C	1.798401	0.411758	0.106575
C181	C	1.056644	-0.155129	-0.361543
C182	C	1.306644	0.094871	-0.111543
C183	C	1.556644	0.344871	0.138457
C184	C	1.806644	0.594871	0.388457
C185	C	1.060179	-0.077063	-0.358077
C186	C	1.310179	0.172937	-0.108077
C187	C	1.560179	0.422937	0.141923
C188	C	1.810179	0.672937	0.391923
C189	C	1.003407	-0.293287	-0.829618
C190	C	1.253407	-0.043287	-0.579618
C191	C	1.503407	0.206713	-0.329618
C192	C	1.753407	0.456713	-0.079618
C193	C	1.003420	-0.293273	-0.906476
C194	C	1.253420	-0.043273	-0.656476
C195	C	1.503420	0.206727	-0.406476
C196	C	1.753420	0.456727	-0.156476
C197	C	1.093486	-0.383112	-0.910465
C198	C	1.343486	-0.133112	-0.660465
C199	C	1.593486	0.116888	-0.410465
C200	C	1.843486	0.366888	-0.160465
C201	C	1.093468	-0.383130	-0.833609
C202	C	1.343468	-0.133130	-0.583609
C203	C	1.593468	0.116870	-0.333609
C204	C	1.843468	0.366870	-0.083609
C205	C	1.048430	-0.338213	-0.793187
C206	C	1.298430	-0.088213	-0.543187
C207	C	1.548430	0.161787	-0.293187
C208	C	1.798430	0.411787	-0.043187
C209	C	1.048461	-0.338182	-0.946902
C210	C	1.298461	-0.088182	-0.696902
C211	C	1.548461	0.161818	-0.446902
C212	C	1.798461	0.411818	-0.196902
C213	C	1.048476	-0.338167	-1.030235
C214	C	1.298476	-0.088167	-0.780235
C215	C	1.548476	0.161833	-0.530235
C216	C	1.798476	0.411833	-0.280235
C217	C	1.048414	-0.338229	-0.709849
C218	C	1.298414	-0.088229	-0.459849
C219	C	1.548414	0.161771	-0.209849
C220	C	1.798414	0.411771	0.040151
C221	C	1.048355	-0.338327	-0.178470
C222	C	1.298355	-0.088327	0.071530
C223	C	1.548355	0.161673	0.321530
C224	C	1.798355	0.411673	0.571530
C225	C	1.048491	-0.338153	-0.096664
C226	C	1.298491	-0.088153	0.153336
C227	C	1.548491	0.161847	0.403336
C228	C	1.798491	0.411847	0.653336
H229	H	0.482649	-0.256740	-0.280815
H230	H	0.732649	-0.006740	-0.030815
H231	H	0.982649	0.243260	0.219185
H232	H	1.232649	0.493260	0.469185
H233	H	0.975048	-1.070257	-0.443096
H234	H	1.225048	-0.820257	-0.193096
H235	H	1.475048	-0.570257	0.056904
H236	H	1.725048	-0.320257	0.306904
H237	H	1.109682	-0.825520	-0.308515
H238	H	1.359682	-0.575520	-0.058515
H239	H	1.609682	-0.325520	0.191485
H240	H	1.859682	-0.075520	0.441485
Cl241	Cl	0.946807	-0.236801	-0.952273
Cl242	Cl	1.196807	0.013199	-0.702273
Cl243	Cl	1.446807	0.263199	-0.452273
Cl244	Cl	1.696807	0.513199	-0.202273
H245	H	1.130133	-0.419716	-0.803946
H246	H	1.380133	-0.169716	-0.553946
H247	H	1.630133	0.080284	-0.303946
H248	H	1.880133	0.330284	-0.053946
Cl249	Cl	1.150104	-0.439574	-0.961286
Cl250	Cl	1.400104	-0.189574	-0.711286
Cl251	Cl	1.650104	0.060426	-0.461286
Cl252	Cl	1.900104	0.310426	-0.211286
H253	H	0.614785	-0.419920	-0.458559
H254	H	0.864785	-0.169920	-0.208559
H255	H	1.114785	0.080080	0.041441
H256	H	1.364785	0.330080	0.291441
H257	H	0.475358	-0.419922	-0.458575
H258	H	0.725358	-0.169922	-0.208575
H259	H	0.975358	0.080078	0.041425
H260	H	1.225358	0.330078	0.291425
H261	H	0.987147	-0.850419	-0.430866
H262	H	1.237147	-0.600419	-0.180866
H263	H	1.487147	-0.350419	0.069134
H264	H	1.737147	-0.100419	0.319134
H265	H	0.966734	-0.256713	-0.796709
H266	H	1.216734	-0.006713	-0.546709
H267	H	1.466734	0.243287	-0.296709
H268	H	1.716734	0.493287	-0.046709
H269	H	1.121780	-0.605676	-0.296283
H270	H	1.371780	-0.355676	-0.046283
H271	H	1.621780	-0.105676	0.203717
H272	H	1.871780	0.144324	0.453717
Cl273	Cl	0.640007	-0.236805	-0.259102
Cl274	Cl	0.890007	0.013195	-0.009102
Cl275	Cl	1.140007	0.263195	0.240898
Cl276	Cl	1.390007	0.513195	0.490898
H277	H	0.980943	-0.937189	-0.437119
H278	H	1.230943	-0.687189	-0.187119
H279	H	1.480943	-0.437189	0.062881
H280	H	1.730943	-0.187189	0.312881
Cl281	Cl	0.923429	-0.755008	-0.494443
Cl282	Cl	1.173429	-0.505008	-0.244443
Cl283	Cl	1.423429	-0.255008	0.005557
Cl284	Cl	1.673429	-0.005008	0.255557
H285	H	1.115884	-0.738741	-0.302259
H286	H	1.365884	-0.488741	-0.052259
H287	H	1.615884	-0.238741	0.197741
H288	H	1.865884	0.011259	0.447741
H289	H	1.145919	-1.070245	-0.272458
H290	H	1.395919	-0.820245	-0.022458
H291	H	1.645919	-0.570245	0.227542
H292	H	1.895919	-0.320245	0.477542
Cl293	Cl	0.930768	-0.589447	-0.487016
Cl294	Cl	1.180768	-0.339447	-0.237016
Cl295	Cl	1.430768	-0.089447	0.012984
Cl296	Cl	1.680768	0.160553	0.262984
Cl297	Cl	1.173409	-0.920923	-0.244943
Cl298	Cl	1.423409	-0.670923	0.005057
Cl299	Cl	1.673409	-0.420923	0.255057
Cl300	Cl	1.923409	-0.170923	0.505057
