data_functionalizedCrystal
_audit_creation_method	'MofGen! by Chris Wilmer'
_symmetry_space_group_name_H-M	'P1'
_symmetry_Int_Tables_number	1
_symmetry_cell_setting	triclinic
loop_
_symmetry_equiv_pos_as_xyz
  x,y,z
_cell_length_a	6.817900
_cell_length_b	8.749629
_cell_length_c	12.200875
_cell_angle_alpha	93.118192
_cell_angle_beta	107.143593
_cell_angle_gamma	105.181975
loop_
_atom_site_label
_atom_site_type_symbol
_atom_site_fract_x
_atom_site_fract_y
_atom_site_fract_z
V1	V	-4.075834	-0.219162	-0.356170
O2	O	-4.054691	0.010162	-0.350922
O3	O	-4.034442	-0.434207	-0.352261
O4	O	-4.045447	-0.215953	-0.512180
O5	O	-4.043610	-0.209602	-0.189895
V6	V	-4.556219	-0.191713	-0.336461
O7	O	-4.343974	-0.279374	-0.399403
O8	O	-4.738276	-0.131502	-0.293228
O9	O	-4.374405	0.023331	-0.340370
O10	O	-4.694759	-0.421038	-0.341709
O11	O	-4.705840	-0.201274	-0.502736
O12	O	-4.363400	-0.194922	-0.180451
C13	C	-3.880564	-0.486625	-0.346262
C14	C	-3.928128	-0.662427	-0.344105
C15	C	-3.894601	-0.208219	-0.550253
C16	C	-3.951086	-0.207018	-0.677783
C17	C	-4.054463	-0.204822	-0.911272
C18	C	-3.996928	-0.206043	-0.781342
C19	C	-4.191624	0.075741	-0.346366
C20	C	-4.123299	0.251542	-0.348530
C21	C	-4.177587	-0.202662	-0.142371
C22	C	-4.100340	-0.203855	-0.014841
H23	H	-3.797423	-0.723267	-0.338670
H24	H	-4.254017	-0.687613	-0.353978
