data_functionalizedCrystal
_audit_creation_method	'MofGen! by Chris Wilmer'
_symmetry_space_group_name_H-M	'P1'
_symmetry_Int_Tables_number	1
_symmetry_cell_setting	triclinic
loop_
_symmetry_equiv_pos_as_xyz
  x,y,z
_cell_length_a	12.837943
_cell_length_b	16.109301
_cell_length_c	14.586319
_cell_angle_alpha	89.986216
_cell_angle_beta	89.993677
_cell_angle_gamma	89.145210
loop_
_atom_site_label
_atom_site_type_symbol
_atom_site_fract_x
_atom_site_fract_y
_atom_site_fract_z
O1	O	-1.375385	-0.216139	0.076230
O2	O	-1.073583	-0.205463	0.076235
O3	O	-1.232775	-0.090429	0.076223
O4	O	-1.216193	-0.331174	0.076242
O5	O	-1.232752	-0.090406	-0.076257
O6	O	-1.073561	-0.205440	-0.076245
O7	O	-1.375363	-0.216116	-0.076251
Cu8	Cu	-1.224460	-0.210776	-0.090171
Cu9	Cu	-1.224486	-0.210803	0.090156
O10	O	-1.216171	-0.331150	-0.076239
C11	C	-1.232092	-0.059389	-0.000018
C12	C	-1.230078	0.033066	-0.000019
C13	C	-1.034953	-0.201845	-0.000005
C14	C	-0.919879	-0.191088	-0.000003
C15	C	-1.413993	-0.219735	-0.000009
C16	C	-1.529067	-0.230491	-0.000004
C17	C	-0.678877	-0.320405	-0.000006
C18	C	-0.570755	-0.310302	-0.000005
C19	C	-0.595510	-0.160779	-0.000007
C20	C	-0.703632	-0.170882	-0.000008
C21	C	-0.745312	-0.250698	-0.000006
C22	C	-0.853436	-0.260800	-0.000000
C23	C	-0.878189	-0.111278	-0.000009
C24	C	-0.770067	-0.101175	-0.000008
C25	C	-1.216854	-0.362190	0.000004
C26	C	-1.218868	-0.454645	0.000012
N27	N	-1.224448	-0.210757	-0.217002
C28	C	-1.319857	0.248206	-0.000006
C29	C	-1.317957	0.335078	0.000002
C30	C	-1.129081	0.330208	0.000001
C31	C	-1.130983	0.243338	0.000000
C32	C	-1.226374	0.202340	-0.000008
C33	C	-1.222572	0.376081	0.000001
C34	C	-1.220511	0.470271	0.000009
C35	C	-1.228435	0.108144	-0.000014
C36	C	-1.161632	-0.155362	-0.548034
C37	C	-1.161623	-0.155349	-0.452053
C38	C	-1.287330	-0.266214	-0.451987
C39	C	-1.287343	-0.266222	-0.547967
C40	C	-1.224488	-0.210796	-0.595988
C41	C	-1.224466	-0.210777	-0.404027
C42	C	-1.224458	-0.210764	-0.299960
C43	C	-1.224497	-0.210808	-0.700062
N44	N	-1.224506	-0.210817	0.216987
H45	H	-0.887369	-0.325790	-0.000000
H46	H	-1.054852	0.205992	0.000001
Br47	Br	-0.735448	-0.428722	0.000014
H48	H	-1.110452	-0.110230	-0.587130
H49	H	-0.516666	-0.367065	-0.000007
Br50	Br	-1.076311	-0.080116	-0.386977
Br51	Br	-0.713492	0.007140	-0.000016
H52	H	-1.338502	-0.311341	-0.412877
Br53	Br	-1.372662	-0.341455	-0.613053
Br54	Br	-0.999629	0.385854	0.000015
Br55	Br	-0.538926	-0.052467	-0.000026
Br56	Br	-0.968357	-0.016670	0.000010
Br57	Br	-1.449315	0.192568	-0.000018
Br58	Br	-1.444833	0.397323	0.000010
