data_functionalizedCrystal
_audit_creation_method	'MofGen! by Chris Wilmer'
_symmetry_space_group_name_H-M	'P1'
_symmetry_Int_Tables_number	1
_symmetry_cell_setting	triclinic
loop_
_symmetry_equiv_pos_as_xyz
  x,y,z
_cell_length_a	10.654550
_cell_length_b	10.723023
_cell_length_c	9.130313
_cell_angle_alpha	89.999732
_cell_angle_beta	89.996220
_cell_angle_gamma	84.476225
loop_
_atom_site_label
_atom_site_type_symbol
_atom_site_fract_x
_atom_site_fract_y
_atom_site_fract_z
O1	O	1.667807	0.175269	-0.121916
O2	O	1.302326	0.191968	-0.121893
O3	O	1.493498	0.002044	-0.121899
O4	O	1.476636	0.365194	-0.121910
O5	O	1.493495	0.002049	0.121700
O6	O	1.302324	0.191973	0.121706
O7	O	1.667805	0.175274	0.121682
Cu8	Cu	1.485064	0.183624	0.143937
Cu9	Cu	1.485067	0.183618	-0.144147
O10	O	1.476633	0.365199	0.121689
C11	C	1.255527	0.190745	-0.000090
C12	C	1.116085	0.187076	-0.000081
C13	C	1.036582	0.298901	-0.000106
C14	C	0.905561	0.295446	-0.000131
C15	C	0.933560	0.068333	-0.000113
C16	C	1.064577	0.071789	-0.000077
C17	C	1.020416	0.430023	-0.000123
C18	C	0.889396	0.426569	-0.000148
C19	C	1.492270	-0.044454	-0.000101
C20	C	1.488599	-0.183008	-0.000106
C21	C	1.486964	-0.244777	-0.126299
C22	C	1.483170	-0.387981	-0.126306
C23	C	1.714604	0.176498	-0.000123
C24	C	1.854047	0.180166	-0.000142
C25	C	1.477861	0.411696	-0.000112
C26	C	1.481532	0.550251	-0.000117
N27	N	1.485071	0.183628	0.346560
N28	N	1.485070	0.183605	-0.346770
C29	C	1.569744	0.099558	0.423209
C30	C	1.569741	0.099543	0.576545
C31	C	1.400388	0.267679	0.576571
C32	C	1.400386	0.267687	0.423236
C33	C	1.667522	0.002490	0.423195
C34	C	1.667519	0.002475	0.576532
H35	H	0.891606	-0.025530	-0.000132
H36	H	1.482945	-0.396638	0.107927
H37	H	1.129305	-0.019270	-0.000036
H38	H	1.331439	0.336116	0.639017
H39	H	1.637020	-0.088166	0.624084
H40	H	1.646094	-0.093428	0.381580
H41	H	1.049738	0.481307	0.101827
O42	O	1.318253	0.349520	0.348850
C43	C	1.246439	0.565830	0.302038
C44	C	1.339551	0.473288	0.386342
H45	H	1.263608	0.665916	0.332343
H46	H	1.260974	0.551512	0.179256
H47	H	1.145729	0.548557	0.332182
H48	H	1.440298	0.490504	0.356321
H49	H	1.324906	0.487627	0.509104
O50	O	1.776288	0.038935	0.366635
C51	C	1.915610	0.202574	0.350160
C52	C	1.792419	0.161434	0.414324
H53	H	1.928678	0.301628	0.388666
H54	H	1.998704	0.135722	0.388749
H55	H	1.910602	0.200852	0.225462
H56	H	1.797303	0.163163	0.539023
H57	H	1.709375	0.228295	0.375620
O58	O	1.486694	-0.246299	0.128826
C59	C	1.377050	-0.273123	0.355803
C60	C	1.379039	-0.201379	0.209821
H61	H	1.290034	-0.236814	0.421343
H62	H	1.374206	-0.377330	0.332928
H63	H	1.465505	-0.258279	0.421259
H64	H	1.290603	-0.216120	0.144292
H65	H	1.381949	-0.097197	0.232799
O66	O	0.834696	0.473732	0.125255
C67	C	0.641472	0.520971	0.259964
C68	C	0.703259	0.467521	0.117884
H69	H	0.535193	0.515992	0.254039
H70	H	0.681451	0.463863	0.357523
H71	H	0.662032	0.622720	0.273474
H72	H	0.682722	0.365782	0.104233
H73	H	0.663275	0.524720	0.020397
O74	O	1.062740	0.479913	-0.125648
C75	C	1.008078	0.569950	-0.361657
C76	C	0.959971	0.513507	-0.219558
H77	H	0.925018	0.597103	-0.437635
H78	H	1.057579	0.656683	-0.334359
H79	H	1.077280	0.497759	-0.418219
H80	H	0.890724	0.585605	-0.162926
H81	H	0.910546	0.426750	-0.246950
H82	H	1.764027	0.023856	0.618142
H83	H	1.481770	-0.441101	-0.234345
H84	H	0.847656	0.475971	-0.102103
H85	H	1.488367	-0.191641	-0.234332
