data_functionalizedCrystal
_audit_creation_method	'MofGen! by Chris Wilmer'
_symmetry_space_group_name_H-M	'P1'
_symmetry_Int_Tables_number	1
_symmetry_cell_setting	triclinic
loop_
_symmetry_equiv_pos_as_xyz
  x,y,z
_cell_length_a	10.654550
_cell_length_b	10.065875
_cell_length_c	10.654550
_cell_angle_alpha	98.874771
_cell_angle_beta	95.515069
_cell_angle_gamma	98.829657
loop_
_atom_site_label
_atom_site_type_symbol
_atom_site_fract_x
_atom_site_fract_y
_atom_site_fract_z
O1	O	1.686040	0.113390	-0.158115
O2	O	1.320565	0.113415	-0.174917
O3	O	1.511704	0.113393	0.016222
O4	O	1.494901	0.113412	-0.349254
O5	O	1.475258	-0.113591	-0.020373
O6	O	1.284119	-0.113570	-0.211512
O7	O	1.649593	-0.113595	-0.194710
Zn8	Zn	1.461069	-0.149621	-0.208921
Zn9	Zn	1.509089	0.149441	-0.160706
O10	O	1.458454	-0.113573	-0.385849
C11	C	1.255544	-0.000074	-0.191980
C12	C	1.116103	-0.000065	-0.188287
N13	N	1.428306	-0.353723	-0.241827
C14	C	1.036617	-0.000063	-0.300828
C15	C	0.905593	-0.000087	-0.297355
C16	C	0.933552	-0.000109	-0.068789
C17	C	1.064573	-0.000095	-0.072265
C18	C	1.497682	-0.421509	-0.172146
C19	C	1.472476	-0.578674	-0.197481
C20	C	1.714614	-0.000102	-0.177646
C21	C	1.854058	-0.000103	-0.181338
C22	C	1.492247	-0.000098	0.044722
C23	C	1.488555	-0.000096	0.184166
N24	N	1.541862	0.353543	-0.127791
C25	C	1.477912	-0.000078	-0.414349
C26	C	1.481605	-0.000072	-0.553791
C27	C	1.601096	-0.000103	0.263650
C28	C	1.597622	-0.000086	0.394674
C29	C	1.369057	-0.000061	0.366715
C30	C	1.372533	-0.000068	0.235695
H31	H	1.078567	-0.000049	-0.395302
H32	H	0.891579	-0.000141	0.025671
H33	H	0.840880	-0.000088	-0.388998
C34	C	1.150684	-0.000026	0.050080
C35	C	1.077524	-0.000007	0.152439
C36	C	1.156807	0.000069	0.265157
H37	H	1.189706	-0.079154	0.040890
H38	H	1.215062	0.079165	0.066310
H39	H	1.013169	-0.079189	0.136211
H40	H	1.038503	0.079116	0.161669
H41	H	1.221185	0.079260	0.281387
H42	H	1.195826	-0.079061	0.255954
H43	H	1.107182	0.000095	0.334622
C44	C	1.601612	-0.343800	-0.067421
C45	C	1.574318	-0.378399	0.050563
C46	C	1.670025	-0.306815	0.147059
H47	H	1.681951	-0.367064	-0.085171
H48	H	1.604692	-0.248494	-0.064234
H49	H	1.571251	-0.473683	0.047374
H50	H	1.493996	-0.355131	0.068354
H51	H	1.673106	-0.211510	0.150246
H52	H	1.750358	-0.330085	0.129296
H53	H	1.651514	-0.330271	0.227124
C54	C	1.368196	-0.656344	-0.301884
C55	C	1.250039	-0.621730	-0.275148
C56	C	1.153947	-0.693268	-0.371282
H57	H	1.386343	-0.633051	-0.382089
H58	H	1.365001	-0.751656	-0.305008
H59	H	1.253236	-0.526439	-0.272037
H60	H	1.231851	-0.645026	-0.194960
H61	H	1.150752	-0.788580	-0.374407
H62	H	1.172107	-0.669969	-0.451482
H63	H	1.073765	-0.669801	-0.353150
H64	H	1.619918	-0.588145	-0.049369
C65	C	1.324031	-0.431399	-0.346224
C66	C	1.205875	-0.396784	-0.319489
C67	C	1.109782	-0.468322	-0.415623
H68	H	1.342179	-0.408106	-0.426430
H69	H	1.320836	-0.526710	-0.349349
H70	H	1.209071	-0.301493	-0.316378
H71	H	1.187686	-0.420081	-0.239300
H72	H	1.106587	-0.563634	-0.418748
H73	H	1.127942	-0.445023	-0.495822
H74	H	1.029601	-0.444856	-0.397490
H75	H	1.695569	-0.000123	0.221700
H76	H	1.689264	-0.000089	0.459386
H77	H	1.274595	-0.000040	0.408686
H78	H	1.280884	-0.000058	0.170976
