data_functionalizedCrystal
_audit_creation_method	'MofGen! by Chris Wilmer'
_symmetry_space_group_name_H-M	'P1'
_symmetry_Int_Tables_number	1
_symmetry_cell_setting	triclinic
loop_
_symmetry_equiv_pos_as_xyz
  x,y,z
_cell_length_a	10.654545
_cell_length_b	16.974813
_cell_length_c	9.730223
_cell_angle_alpha	93.660789
_cell_angle_beta	90.003812
_cell_angle_gamma	83.938073
loop_
_atom_site_label
_atom_site_type_symbol
_atom_site_fract_x
_atom_site_fract_y
_atom_site_fract_z
O1	O	1.666116	0.111041	0.126624
O2	O	1.300472	0.121625	0.127807
O3	O	1.493487	0.001285	0.114413
O4	O	1.473101	0.231381	0.140018
O5	O	1.493472	0.001278	-0.114168
O6	O	1.300457	0.121618	-0.100774
O7	O	1.666101	0.111034	-0.101957
Zn8	Zn	1.483276	0.116325	-0.137658
Zn9	Zn	1.483297	0.116334	0.163507
O10	O	1.473086	0.231374	-0.088563
C11	C	1.253679	0.120845	0.013431
C12	C	1.114271	0.118522	0.013174
C13	C	1.048775	0.117425	-0.111548
C14	C	0.917790	0.115229	-0.111792
C15	C	0.917807	0.115232	0.137419
C16	C	1.048791	0.117422	0.137661
C17	C	1.492704	-0.028181	-0.003153
C18	C	1.490378	-0.115971	-0.012913
C19	C	1.489297	-0.157206	0.107100
C20	C	1.487103	-0.239693	0.097925
C21	C	1.486000	-0.280945	-0.031265
C22	C	1.487078	-0.239703	-0.151287
C23	C	1.489262	-0.157217	-0.142110
C24	C	1.479457	-0.527642	-0.072070
C25	C	1.477276	-0.610135	-0.081238
C26	C	1.477299	-0.610119	0.167975
C27	C	1.479491	-0.527632	0.177140
C28	C	1.480562	-0.486397	0.057118
N29	N	1.483762	-0.365260	-0.040646
N30	N	1.482792	-0.402083	0.066501
C31	C	1.712894	0.111814	0.012422
C32	C	1.852302	0.114137	0.012688
C33	C	1.473869	0.260840	0.029006
C34	C	1.476195	0.348630	0.038775
N35	N	1.483272	0.116318	-0.343195
C36	C	1.407227	0.067930	-0.564441
C37	C	1.407211	0.067919	-0.420559
C38	C	1.559364	0.164725	-0.409720
C39	C	1.559387	0.164731	-0.553599
N40	N	1.483311	0.116335	0.369044
H41	H	1.102085	0.118321	-0.212913
O42	O	1.476056	-0.650081	0.284646
C43	C	1.367854	-0.621569	0.363577
H44	H	1.333221	-0.558889	0.335123
H45	H	1.290494	-0.662131	0.341755
C46	C	1.443482	-0.697289	0.552656
C47	C	1.400951	-0.620301	0.517717
H48	H	1.463894	-0.696509	0.647738
H49	H	1.516377	-0.716500	0.499478
H50	H	1.379007	-0.731082	0.534461
H51	H	1.465430	-0.586511	0.535896
H52	H	1.328067	-0.601084	0.570902
H53	H	1.490125	-0.123643	-0.239838
H54	H	0.864469	0.114336	-0.213353
H55	H	0.864477	0.114337	0.238771
O56	O	1.112221	0.118521	0.258950
C57	C	1.026345	0.117067	0.368772
H58	H	0.927726	0.140495	0.334860
H59	H	1.025710	0.053513	0.400009
C60	C	1.187743	0.140909	0.534001
C61	C	1.066618	0.169690	0.492353
H62	H	1.212587	0.173366	0.610235
H63	H	1.245601	0.141885	0.460013
H64	H	1.187198	0.087947	0.560022
H65	H	1.067169	0.222647	0.466317
H66	H	1.008761	0.168724	0.566340
O67	O	1.490310	-0.117256	0.232706
C68	C	1.488914	-0.171347	0.336663
H69	H	1.447616	-0.227091	0.293930
H70	H	1.589383	-0.187861	0.373138
C71	C	1.458181	-0.064355	0.511158
C72	C	1.407448	-0.132818	0.458676
H73	H	1.407935	-0.040589	0.586425
H74	H	1.459126	-0.027913	0.441122
H75	H	1.541904	-0.078127	0.541543
H76	H	1.323733	-0.119044	0.428276
H77	H	1.406487	-0.169257	0.528711
H78	H	1.621301	0.204128	-0.346718
O79	O	1.485847	-0.279757	0.214481
C80	C	1.375895	-0.319129	0.217595
H81	H	1.300551	-0.288444	0.150306
H82	H	1.398812	-0.383540	0.176979
C83	C	1.419149	-0.354266	0.449402
C84	C	1.326606	-0.316574	0.366766
H85	H	1.388747	-0.352694	0.541418
H86	H	1.493228	-0.327743	0.447304
H87	H	1.438238	-0.407938	0.415540
H88	H	1.307530	-0.262901	0.400619
H89	H	1.252522	-0.343088	0.368874
H90	H	1.621350	0.204149	-0.607757
O91	O	1.480583	-0.487467	0.302548
C92	C	1.590435	-0.447999	0.314510
H93	H	1.665940	-0.478717	0.240621
H94	H	1.567453	-0.383638	0.287980
C95	C	1.546747	-0.412605	0.553977
C96	C	1.639487	-0.450338	0.463233
H97	H	1.577002	-0.414043	0.645717
H98	H	1.472735	-0.439192	0.545918
H99	H	1.527604	-0.358974	0.531852
H100	H	1.658617	-0.503970	0.485348
H101	H	1.713503	-0.423759	0.471299
O102	O	1.333214	0.021017	-0.355790
C103	C	1.247410	0.068734	-0.267296
H104	H	1.286395	0.127624	-0.239149
H105	H	1.153011	0.080301	-0.321492
C106	C	1.180658	-0.046651	-0.170010
C107	C	1.228545	0.025677	-0.135430
H108	H	1.169016	-0.073210	-0.088671
H109	H	1.238462	-0.078799	-0.229633
H110	H	1.101997	-0.037001	-0.215176
H111	H	1.307212	0.016026	-0.090281
H112	H	1.170754	0.057823	-0.075795
O113	O	1.333517	0.020870	-0.639742
C114	C	1.410200	-0.032645	-0.728893
H115	H	1.503330	-0.007490	-0.747622
H116	H	1.429528	-0.091971	-0.680053
C117	C	1.227666	-0.075837	-0.843947
C118	C	1.342047	-0.044938	-0.866960
H119	H	1.185626	-0.083424	-0.929112
H120	H	1.176003	-0.039785	-0.783882
H121	H	1.243789	-0.125272	-0.803244
H122	H	1.325921	0.004500	-0.907646
H123	H	1.393706	-0.080983	-0.927036
H124	H	1.476372	-0.643719	-0.186445
H125	H	1.480355	-0.494081	-0.169801
H126	H	1.486172	-0.273296	-0.256476
