data_functionalizedCrystal
_audit_creation_method	'MofGen! by Chris Wilmer'
_symmetry_space_group_name_H-M	'P1'
_symmetry_Int_Tables_number	1
_symmetry_cell_setting	triclinic
loop_
_symmetry_equiv_pos_as_xyz
  x,y,z
_cell_length_a	12.594517
_cell_length_b	12.594516
_cell_length_c	13.897441
_cell_angle_alpha	90.026377
_cell_angle_beta	90.023088
_cell_angle_gamma	90.015485
loop_
_atom_site_label
_atom_site_type_symbol
_atom_site_fract_x
_atom_site_fract_y
_atom_site_fract_z
Zn1	Zn	1.627276	-0.423724	0.545470
Zn2	Zn	1.960610	-0.090391	0.878803
Zn3	Zn	2.293943	0.242942	1.212137
Zn4	Zn	1.627164	-0.601735	0.384183
Zn5	Zn	1.960498	-0.268402	0.717517
Zn6	Zn	2.293831	0.064932	1.050850
Zn7	Zn	1.449277	-0.423769	0.384182
Zn8	Zn	1.782611	-0.090436	0.717515
Zn9	Zn	2.115944	0.242897	1.050848
Zn10	Zn	1.449262	-0.601659	0.545429
Zn11	Zn	1.782596	-0.268326	0.878763
Zn12	Zn	2.115929	0.065007	1.212096
O13	O	1.538245	-0.512722	0.464816
O14	O	1.871578	-0.179389	0.798149
O15	O	2.204912	0.153945	1.131483
O16	O	1.776207	-0.447351	0.524093
O17	O	2.109540	-0.114017	0.857426
O18	O	2.442874	0.219316	1.190759
O19	O	1.603527	-0.578178	0.249201
O20	O	1.936860	-0.244845	0.582535
O21	O	2.270193	0.088489	0.915868
O22	O	1.472942	-0.274817	0.405593
O23	O	1.806276	0.058516	0.738927
O24	O	2.139609	0.391849	1.072260
O25	O	1.776125	-0.578134	0.405596
O26	O	2.109458	-0.244801	0.738929
O27	O	2.442792	0.088532	1.072263
O28	O	1.603717	-0.274784	0.524091
O29	O	1.937051	0.058549	0.857425
O30	O	2.270384	0.391882	1.190758
O31	O	1.472834	-0.447427	0.249200
O32	O	1.806167	-0.114094	0.582534
O33	O	2.139501	0.219239	0.915867
O34	O	1.300330	-0.447354	0.405554
O35	O	1.633663	-0.114021	0.738887
O36	O	1.966996	0.219313	1.072221
O37	O	1.472917	-0.578005	0.680416
O38	O	1.806250	-0.244672	1.013750
O39	O	2.139583	0.088661	1.347083
O40	O	1.300318	-0.578049	0.524022
O41	O	1.633652	-0.244716	0.857355
O42	O	1.966985	0.088618	1.190688
O43	O	1.603703	-0.447277	0.680446
O44	O	1.937036	-0.113944	1.013780
O45	O	2.270369	0.219389	1.347113
O46	O	1.603512	-0.750671	0.405557
O47	O	1.936845	-0.417337	0.738890
O48	O	2.270179	-0.084004	1.072223
O49	O	1.472808	-0.750615	0.524023
O50	O	1.806142	-0.417282	0.857357
O51	O	2.139475	-0.083949	1.190690
C52	C	1.261704	-0.512699	0.464784
C53	C	1.595037	-0.179366	0.798117
C54	C	1.928371	0.153968	1.131451
C55	C	1.143399	-0.512715	0.464793
C56	C	1.476732	-0.179381	0.798126
C57	C	1.810065	0.153952	1.131460
C58	C	1.003357	-0.441551	0.400506
C59	C	1.336690	-0.108218	0.733839
C60	C	1.670024	0.225115	1.067172
C61	C	1.074217	-0.415618	0.488525
C62	C	1.407551	-0.082285	0.821858
C63	C	1.740884	0.251049	1.155192
C64	C	1.074110	-0.538600	0.376783
C65	C	1.407443	-0.205267	0.710116
C66	C	1.740777	0.128066	1.043450
C67	C	1.003473	-0.486773	0.552929
C68	C	1.336807	-0.153439	0.886263
C69	C	1.670140	0.179894	1.219596
C70	C	1.003360	-0.609800	0.441128
C71	C	1.336693	-0.276467	0.774462
C72	C	1.670027	0.056866	1.107795
C73	C	1.074188	-0.583904	0.529208
C74	C	1.407521	-0.250570	0.862542
C75	C	1.740855	0.082763	1.195875
C76	C	1.538175	-0.789263	0.464807
C77	C	1.871509	-0.455930	0.798140
C78	C	2.204842	-0.122596	1.131473
C79	C	1.538243	-0.907568	0.464835
C80	C	1.871576	-0.574235	0.798168
C81	C	2.204909	-0.240902	1.131502
C82	C	1.467146	-0.976830	0.529224
C83	C	1.800479	-0.643497	0.862557
C84	C	2.133813	-0.310163	1.195890
C85	C	1.441211	-1.047695	0.441206
C86	C	1.774545	-0.714362	0.774539
C87	C	2.107878	-0.381029	1.107872
C88	C	1.564275	-1.047502	0.552868
C89	C	1.897608	-0.714169	0.886201
C90	C	2.230941	-0.380835	1.219535
C91	C	1.512257	-0.976876	0.376770
C92	C	1.845590	-0.643542	0.710104
C93	C	2.178923	-0.310209	1.043437
C94	C	1.635365	-0.976676	0.488492
C95	C	1.968699	-0.643343	0.821825
C96	C	2.302032	-0.310009	1.155159
C97	C	1.609467	-1.047509	0.400413
C98	C	1.942801	-0.714176	0.733747
C99	C	2.276134	-0.380843	1.067080
C100	C	1.815866	-0.512746	0.464849
C101	C	2.149199	-0.179413	0.798182
C102	C	2.482532	0.153921	1.131516
C103	C	1.934171	-0.512756	0.464863
C104	C	2.267505	-0.179423	0.798197
C105	C	2.600838	0.153911	1.131530
C106	C	1.538321	-0.512628	0.716409
C107	C	1.871654	-0.179295	1.049743
C108	C	2.204987	0.154039	1.383076
C109	C	1.538353	-0.512588	0.823623
C110	C	1.871686	-0.179254	1.156957
C111	C	2.205019	0.154079	1.490290
C112	C	1.538344	-0.235101	0.464847
C113	C	1.871677	0.098232	0.798180
C114	C	2.205011	0.431566	1.131513
C115	C	1.538386	-0.116796	0.464860
C116	C	1.871720	0.216538	0.798193
C117	C	2.205053	0.549871	1.131526
C118	C	1.538231	-0.512739	0.214202
C119	C	1.871564	-0.179406	0.547535
C120	C	2.204898	0.153928	0.880868
C121	C	1.538405	-0.512479	0.106988
C122	C	1.871738	-0.179146	0.440322
C123	C	2.205072	0.154188	0.773655
C124	C	1.538382	-0.512516	1.019919
C125	C	1.871715	-0.179182	1.353252
C126	C	2.205048	0.154151	1.686585
C127	C	1.538362	-0.512559	0.910686
C128	C	1.871696	-0.179225	1.244019
C129	C	2.205029	0.154108	1.577353
H130	H	1.406914	-0.945795	0.583596
H131	H	1.740248	-0.612461	0.916929
H132	H	2.073581	-0.279128	1.250263
N133	N	1.483041	-0.935956	0.278142
N134	N	1.816374	-0.602623	0.611475
N135	N	2.149707	-0.269289	0.944808
H136	H	1.409975	-0.962421	0.260138
H137	H	1.743308	-0.629087	0.593471
H138	H	2.076641	-0.295754	0.926805
H139	H	1.536501	-0.962277	0.229525
H140	H	1.869835	-0.628944	0.562859
H141	H	2.203168	-0.295611	0.896192
H142	H	0.972573	-0.464800	0.627410
H143	H	1.305907	-0.131467	0.960743
H144	H	1.639240	0.201866	1.294076
N145	N	1.332503	-1.089030	0.414711
N146	N	1.665837	-0.755697	0.748044
N147	N	1.999170	-0.422363	1.081378
H148	H	1.337657	-1.133190	0.354212
H149	H	1.670991	-0.799857	0.687545
H150	H	2.004324	-0.466523	1.020879
H151	H	1.282962	-1.027250	0.403337
H152	H	1.616295	-0.693917	0.736670
H153	H	1.949629	-0.360583	1.070004
H154	H	0.972213	-0.691863	0.421051
H155	H	1.305547	-0.358529	0.754384
H156	H	1.638880	-0.025196	1.087718
N157	N	1.115120	-0.663643	0.601342
N158	N	1.448454	-0.330310	0.934676
N159	N	1.781787	0.003023	1.268009
H160	H	1.160328	-0.626153	0.650868
H161	H	1.493661	-0.292819	0.984201
H162	H	1.826994	0.040514	1.317534
H163	H	1.159194	-0.718914	0.567043
H164	H	1.492527	-0.385581	0.900376
H165	H	1.825861	-0.052247	1.233710
H166	H	1.105142	-0.560476	0.302324
H167	H	1.438475	-0.227143	0.635658
H168	H	1.771808	0.106190	0.968991
N169	N	1.689196	-1.088363	0.328227
N170	N	2.022529	-0.755030	0.661560
N171	N	2.355863	-0.421697	0.994894
H172	H	1.669452	-1.062533	0.261798
H173	H	2.002785	-0.729200	0.595131
H174	H	2.336119	-0.395866	0.928464
H175	H	1.689224	-1.168547	0.329106
H176	H	2.022558	-0.835214	0.662440
H177	H	2.355891	-0.501881	0.995773
N178	N	1.744049	-0.935325	0.515023
N179	N	2.077382	-0.601992	0.848356
N180	N	2.410716	-0.268659	1.181689
H181	H	1.738625	-0.890020	0.574803
H182	H	2.071958	-0.556687	0.908136
H183	H	2.405292	-0.223353	1.241470
H184	H	1.772988	-0.891259	0.460286
H185	H	2.106322	-0.557926	0.793620
H186	H	2.439655	-0.224593	1.126953
N187	N	0.962159	-0.361763	0.328538
N188	N	1.295493	-0.028430	0.661871
N189	N	1.628826	0.304903	0.995204
H190	H	0.987938	-0.288461	0.346570
H191	H	1.321271	0.044873	0.679903
H192	H	1.654605	0.378206	1.013237
H193	H	0.881977	-0.362910	0.328666
H194	H	1.215310	-0.029577	0.661999
H195	H	1.548644	0.303756	0.995332
N196	N	1.115446	-0.306891	0.515095
N197	N	1.448779	0.026442	0.848428
N198	N	1.782113	0.359776	1.181762
H199	H	1.089686	-0.253167	0.466470
H200	H	1.423019	0.080166	0.799804
H201	H	1.756352	0.413499	1.133137
H202	H	1.195628	-0.307953	0.515500
H203	H	1.528961	0.025381	0.848834
H204	H	1.862295	0.358714	1.182167
H205	H	1.586235	-1.078526	0.627306
H206	H	1.919568	-0.745192	0.960640
H207	H	2.252901	-0.411859	1.293973
