data_functionalizedCrystal
_audit_creation_method	'MofGen! by Chris Wilmer'
_symmetry_space_group_name_H-M	'P1'
_symmetry_Int_Tables_number	1
_symmetry_cell_setting	triclinic
loop_
_symmetry_equiv_pos_as_xyz
  x,y,z
_cell_length_a	16.992694
_cell_length_b	17.699083
_cell_length_c	16.776229
_cell_angle_alpha	90.007545
_cell_angle_beta	90.001346
_cell_angle_gamma	86.975619
loop_
_atom_site_label
_atom_site_type_symbol
_atom_site_fract_x
_atom_site_fract_y
_atom_site_fract_z
O1	O	-1.040088	-0.160469	-0.066191
O2	O	-0.811806	-0.158709	-0.066215
O3	O	-0.932397	-0.049801	-0.066195
O4	O	-0.919498	-0.269377	-0.066211
O5	O	-0.932381	-0.049793	0.066381
O6	O	-0.811790	-0.158701	0.066362
O7	O	-1.040072	-0.160461	0.066385
Zn8	Zn	-0.925929	-0.159580	0.087423
Zn9	Zn	-0.925950	-0.159590	-0.087252
O10	O	-0.919482	-0.269369	0.066366
C11	C	-0.782590	-0.156440	0.000071
C12	C	-0.695559	-0.149683	0.000062
C13	C	-0.931927	-0.021572	0.000093
C14	C	-0.930540	0.062533	0.000093
C15	C	-1.069289	-0.162730	0.000098
C16	C	-1.156320	-0.169487	0.000102
C17	C	-0.645194	-0.214881	0.000058
C18	C	-0.563420	-0.208527	0.000069
C19	C	-0.532012	-0.136975	0.000079
C20	C	-0.582383	-0.071772	0.000085
C21	C	-0.664156	-0.078127	0.000080
C22	C	-0.288464	-0.110639	0.000102
C23	C	-0.206685	-0.104290	0.000106
C24	C	-0.187727	-0.241045	0.000091
C25	C	-0.269503	-0.247393	0.000081
C26	C	-0.319867	-0.182190	0.000091
N27	N	-0.448425	-0.130479	0.000088
N28	N	-0.403451	-0.188687	0.000088
C29	C	-0.919952	-0.297598	0.000076
C30	C	-0.921339	-0.381703	0.000070
N31	N	-0.925920	-0.159572	0.206634
C32	C	-1.001324	0.106747	0.000102
C33	C	-1.000017	0.185771	0.000094
C34	C	-0.927924	0.220581	0.000085
C35	C	-0.857135	0.176361	0.000074
C36	C	-0.858443	0.097338	0.000075
C37	C	-0.851857	0.495053	0.000067
C38	C	-0.850554	0.574082	0.000068
C39	C	-0.993430	0.583486	0.000086
C40	C	-0.994739	0.504463	0.000087
C41	C	-0.923950	0.460250	0.000072
C42	C	-0.925368	0.374563	0.000079
C43	C	-0.926505	0.306267	0.000084
N44	N	-0.925965	-0.159592	-0.206464
C45	C	-0.979334	-0.111370	0.248360
C46	C	-0.979338	-0.111370	0.331812
C47	C	-0.925932	-0.159576	0.373537
C48	C	-0.872513	-0.207780	0.331806
C49	C	-0.872505	-0.207776	0.248355
C50	C	-0.872541	-0.207797	0.668353
C51	C	-0.872554	-0.207799	0.751809
C52	C	-0.979374	-0.111390	0.751810
C53	C	-0.979367	-0.111386	0.668359
C54	C	-0.925945	-0.159587	0.626635
C55	C	-0.925940	-0.159586	0.536147
C56	C	-0.925940	-0.159582	0.464024
H57	H	-0.670760	-0.273146	0.000050
H58	H	-0.829045	-0.247045	0.634387
H59	H	-0.705162	-0.025036	0.000082
N60	N	-0.814943	-0.259787	0.796818
H61	H	-0.823853	-0.314052	0.782285
H62	H	-0.759346	-0.247599	0.782289
H63	H	-0.791844	0.602420	0.000061
H64	H	-0.295069	-0.305658	0.000063
N65	N	-1.079082	0.069205	0.000120
H66	H	-1.123724	0.109209	0.000123
H67	H	-1.082744	0.036615	-0.049026
N68	N	-0.782103	0.049639	0.000083
H69	H	-0.779465	0.016633	-0.049061
H70	H	-0.736272	0.083724	0.000112
H71	H	-0.146713	-0.294129	0.000084
N72	N	-1.036924	-0.059360	0.203362
H73	H	-1.028814	-0.066667	0.144164
H74	H	-1.092528	-0.071487	0.217935
N75	N	-0.779380	0.213908	0.000066
H76	H	-0.748370	0.198102	0.049208
H77	H	-0.748443	0.198083	-0.049116
N78	N	-1.076361	0.233461	0.000111
H79	H	-1.107834	0.221757	-0.049027
H80	H	-1.107745	0.221750	0.049298
N81	N	-0.342785	-0.040321	0.000099
H82	H	-0.377137	-0.039904	0.049243
H83	H	-0.310428	0.005933	0.000071
N84	N	-1.069783	0.631176	0.000087
H85	H	-1.115650	0.597132	0.000097
H86	H	-1.072346	0.664176	0.049233
H87	H	-0.522415	-0.261618	0.000065
N88	N	-0.775509	0.447372	0.000054
H89	H	-0.729643	0.481417	0.000052
H90	H	-0.772933	0.414385	0.049201
N91	N	-0.814914	-0.259773	0.376812
H92	H	-0.823834	-0.314035	0.362276
H93	H	-0.759313	-0.247595	0.362285
H94	H	-0.829009	-0.247026	0.214383
N95	N	-0.172806	-0.027112	0.000111
H96	H	-0.217119	0.013230	0.000117
H97	H	-0.139288	-0.021498	0.049259
N98	N	-1.072495	0.466919	0.000105
H99	H	-1.117139	0.506920	0.000108
H100	H	-1.076155	0.434329	-0.049042
N101	N	-0.548511	0.005403	0.000109
H102	H	-0.489066	-0.000463	0.000111
H103	H	-0.566943	0.034154	-0.049034
H104	H	-1.022857	-0.072135	0.634389
N105	N	-1.036975	-0.059408	0.376817
H106	H	-1.070819	-0.028883	0.337722
H107	H	-1.071564	-0.090529	0.411416
N108	N	-1.036995	-0.059399	0.796812
H109	H	-1.028897	-0.066711	0.856009
H110	H	-1.028047	-0.005158	0.782234
