data_functionalizedCrystal
_audit_creation_method	'MofGen! by Chris Wilmer'
_symmetry_space_group_name_H-M	'P1'
_symmetry_Int_Tables_number	1
_symmetry_cell_setting	triclinic
loop_
_symmetry_equiv_pos_as_xyz
  x,y,z
_cell_length_a	19.805407
_cell_length_b	19.805405
_cell_length_c	19.805399
_cell_angle_alpha	90.027486
_cell_angle_beta	89.980427
_cell_angle_gamma	89.972273
loop_
_atom_site_label
_atom_site_type_symbol
_atom_site_fract_x
_atom_site_fract_y
_atom_site_fract_z
Zn1	Zn	1.034729	0.269479	-0.382720
Zn2	Zn	1.034642	0.382667	-0.269532
Zn3	Zn	0.921544	0.269498	-0.269545
Zn4	Zn	0.921505	0.382631	-0.382679
O5	O	0.978105	0.326069	-0.326119
O6	O	1.129434	0.284501	-0.367717
O7	O	1.019619	0.367678	-0.174817
O8	O	0.936611	0.174778	-0.284580
O9	O	1.129370	0.367660	-0.284559
O10	O	1.019768	0.174765	-0.367730
O11	O	0.936526	0.284533	-0.174826
O12	O	0.826822	0.284498	-0.284540
O13	O	0.936545	0.367598	-0.477401
O14	O	0.826794	0.367617	-0.367659
O15	O	1.019730	0.284466	-0.477431
O16	O	1.019581	0.477379	-0.284519
O17	O	0.936460	0.477353	-0.367647
C18	C	0.802249	0.326056	-0.326097
C19	C	0.727017	0.326067	-0.326104
C20	C	0.691676	0.369412	-0.369314
C21	C	0.620987	0.369413	-0.369323
C22	C	0.585642	0.326072	-0.326119
C23	C	0.620988	0.282722	-0.282907
C24	C	0.691675	0.282718	-0.282901
C25	C	0.335915	0.282737	-0.282929
C26	C	0.265222	0.282746	-0.282937
C27	C	0.265227	0.369432	-0.369351
C28	C	0.335914	0.369428	-0.369346
C29	C	0.371254	0.326076	-0.326137
C30	C	0.447903	0.326074	-0.326128
C31	C	0.508994	0.326076	-0.326124
C32	C	0.978025	0.501925	-0.326092
C33	C	0.978053	0.577157	-0.326103
C34	C	1.021375	0.612492	-0.282864
C35	C	1.021402	0.683181	-0.282881
C36	C	0.978103	0.718532	-0.326134
C37	C	0.934779	0.683192	-0.369378
C38	C	0.934755	0.612505	-0.369363
C39	C	0.934872	0.968265	-0.369437
C40	C	0.934897	1.038957	-0.369446
C41	C	1.021518	1.038941	-0.282955
C42	C	1.021495	0.968254	-0.282941
C43	C	0.978174	0.932920	-0.326186
C44	C	0.978146	0.856271	-0.326168
C45	C	0.978127	0.795179	-0.326150
C46	C	1.154648	0.326082	-0.326141
C47	C	1.229880	0.326088	-0.326151
C48	C	0.978143	0.326026	-0.502662
C49	C	0.978159	0.326008	-0.577894
C50	C	0.978198	1.149526	-0.326169
C51	C	0.978223	1.074294	-0.326211
C52	C	1.021475	0.282719	-0.613255
C53	C	1.021482	0.282699	-0.683943
C54	C	0.978176	0.325973	-0.719269
C55	C	0.934856	0.369264	-0.683903
C56	C	0.934846	0.369279	-0.613216
C57	C	0.934894	0.369201	-0.968977
C58	C	0.934908	0.369183	-1.039669
C59	C	1.021530	0.282620	-1.039704
C60	C	1.021520	0.282636	-0.969017
C61	C	0.978197	0.325924	-0.933657
C62	C	0.978189	0.325944	-0.857008
C63	C	0.978187	0.325957	-0.795917
C64	C	0.978106	0.326062	-0.150263
C65	C	0.978221	0.325890	-0.075031
H66	H	0.720449	0.247418	-0.247719
O67	O	0.892815	0.934025	-0.411530
C68	C	0.907576	0.951231	-0.479009
H69	H	0.933619	1.002529	-0.480446
H70	H	0.942338	0.911400	-0.501839
C71	C	0.809576	0.891532	-0.518171
C72	C	0.841557	0.954539	-0.519937
H73	H	0.768853	0.893570	-0.543419
H74	H	0.799632	0.879938	-0.472710
H75	H	0.838551	0.858346	-0.537196
H76	H	0.812585	0.987722	-0.500905
H77	H	0.851495	0.966140	-0.565396
H78	H	0.899567	0.404523	-0.584426
O79	O	0.892725	0.411322	-0.718112
C80	C	0.854502	0.449546	-0.671741
H81	H	0.852165	0.421832	-0.621360
H82	H	0.879260	0.500954	-0.664213
C83	C	0.785335	0.493331	-0.761192
C84	C	0.782460	0.459289	-0.699315
H85	H	0.740897	0.499345	-0.778201
H86	H	0.811087	0.467582	-0.792434
H87	H	0.805969	0.536168	-0.754910
H88	H	0.761834	0.416451	-0.705599
H89	H	0.756702	0.485032	-0.668075
O90	O	0.230860	0.240739	-0.240889
C91	C	0.189932	0.279224	-0.197116
H92	H	0.211214	0.332525	-0.192843
H93	H	0.136366	0.281589	-0.218037
C94	C	0.162698	0.180604	-0.132058
C95	C	0.188840	0.246067	-0.126805
H96	H	0.162021	0.160150	-0.088688
H97	H	0.190269	0.154675	-0.161550
H98	H	0.118061	0.182583	-0.149495
H99	H	0.233478	0.244086	-0.109377
H100	H	0.161275	0.271995	-0.097309
O101	O	1.063555	0.240654	-0.934597
C102	C	1.054240	0.249933	-0.864624
H103	H	1.032057	0.302174	-0.854949
H104	H	1.018201	0.209796	-0.844577
C105	C	1.149961	0.179556	-0.840221
C106	C	1.122721	0.243721	-0.828338
H107	H	1.192202	0.175721	-0.817837
H108	H	1.156236	0.173302	-0.887363
H109	H	1.119922	0.146115	-0.823515
H110	H	1.152756	0.277160	-0.845052
H111	H	1.116453	0.249981	-0.781198
O112	O	0.725903	0.411535	-0.411348
C113	C	0.679548	0.449803	-0.449477
H114	H	0.629173	0.422085	-0.451872
H115	H	0.671998	0.501178	-0.424601
C116	C	0.769031	0.493693	-0.518553
C117	C	0.707161	0.459647	-0.521500
H118	H	0.786065	0.499768	-0.562980
H119	H	0.800263	0.467914	-0.492864
H120	H	0.762731	0.536502	-0.497820
H121	H	0.713464	0.416836	-0.542225
H122	H	0.675932	0.485419	-0.547195
O123	O	0.586630	0.411426	-0.411368
C124	C	0.545766	0.372960	-0.455154
H125	H	0.567089	0.319654	-0.459432
H126	H	0.492183	0.370605	-0.434240
C127	C	0.518515	0.471598	-0.520199
C128	C	0.544708	0.406129	-0.525458
H129	H	0.517859	0.492059	-0.563565
H130	H	0.546044	0.497515	-0.490698
H131	H	0.473865	0.469627	-0.502768
H132	H	0.589359	0.408101	-0.542880
H133	H	0.517186	0.380213	-0.554964
O134	O	1.063448	0.240646	-0.578869
C135	C	1.024928	0.196925	-0.537999
H136	H	0.973621	0.220798	-0.527390
H137	H	1.017519	0.146761	-0.565255
C138	C	1.125183	0.155359	-0.483895
C139	C	1.062169	0.184683	-0.470860
H140	H	1.148156	0.147805	-0.442482
H141	H	1.151135	0.184813	-0.511432
H142	H	1.119000	0.113559	-0.506611
H143	H	1.068353	0.226486	-0.448153
H144	H	1.036219	0.155236	-0.443318
O145	O	0.892771	0.411240	-1.073881
C146	C	0.854542	0.449462	-1.027515
H147	H	0.852205	0.421751	-0.977133
H148	H	0.879292	0.500874	-1.019989
C149	C	0.785375	0.493233	-1.116973
C150	C	0.782500	0.459195	-1.055094
H151	H	0.740936	0.499239	-1.133985
H152	H	0.811132	0.467484	-1.148212
H153	H	0.806003	0.536072	-1.110693
H154	H	0.761880	0.416353	-1.061377
H155	H	0.756737	0.484937	-1.023857
H156	H	0.364680	0.247442	-0.247741
O157	O	0.586551	0.240680	-0.240963
C158	C	0.516581	0.249965	-0.250244
H159	H	0.506913	0.302231	-0.272314
H160	H	0.496555	0.209869	-0.286366
C161	C	0.492137	0.179473	-0.154669
C162	C	0.480262	0.243670	-0.181770
H163	H	0.469733	0.175587	-0.112432
H164	H	0.539277	0.173215	-0.148417
H165	H	0.475449	0.146067	-0.184777
H166	H	0.496958	0.277074	-0.151667
H167	H	0.433125	0.249933	-0.188016
H168	H	0.364689	0.404723	-0.404525
H169	H	0.236444	0.404729	-0.404537
H170	H	0.899628	0.404459	-0.940195
H171	H	1.056631	0.583713	-0.247640
H172	H	1.056755	0.247450	-0.712731
H173	H	1.056679	0.711948	-0.247672
H174	H	1.056751	0.939473	-0.247718
H175	H	0.899638	1.067739	-0.404673
O176	O	0.892697	0.717426	-0.411459
C177	C	0.854444	0.671077	-0.449609
H178	H	0.882150	0.620665	-0.451968
H179	H	0.803050	0.663617	-0.424774
C180	C	0.810627	0.760541	-0.518745
C181	C	0.844659	0.698625	-0.521647
H182	H	0.804588	0.777535	-0.563181
H183	H	0.836396	0.791768	-0.493042
H184	H	0.767802	0.754316	-0.498047
H185	H	0.887485	0.704853	-0.542337
H186	H	0.818896	0.667400	-0.547356
H187	H	1.056803	0.247370	-1.068502
H188	H	1.056795	1.067719	-0.247745
H189	H	0.899479	0.583735	-0.404573
