data_functionalizedCrystal
_audit_creation_method	'MofGen! by Chris Wilmer'
_symmetry_space_group_name_H-M	'P1'
_symmetry_Int_Tables_number	1
_symmetry_cell_setting	triclinic
loop_
_symmetry_equiv_pos_as_xyz
  x,y,z
_cell_length_a	21.395364
_cell_length_b	21.395362
_cell_length_c	21.395355
_cell_angle_alpha	89.979451
_cell_angle_beta	89.975448
_cell_angle_gamma	90.044742
loop_
_atom_site_label
_atom_site_type_symbol
_atom_site_fract_x
_atom_site_fract_y
_atom_site_fract_z
Zn1	Zn	0.957863	-0.249261	-0.354253
Zn2	Zn	0.957767	-0.354021	-0.249471
Zn3	Zn	0.853078	-0.249289	-0.249489
Zn4	Zn	0.853049	-0.354032	-0.354212
O5	O	0.905439	-0.301651	-0.301856
O6	O	1.045528	-0.263142	-0.340363
O7	O	0.943852	-0.340135	-0.161796
O8	O	0.867030	-0.161607	-0.263411
O9	O	1.045458	-0.340108	-0.263381
O10	O	0.944016	-0.161587	-0.340380
O11	O	0.866938	-0.263188	-0.161809
O12	O	0.765396	-0.263199	-0.263371
O13	O	0.866981	-0.340127	-0.441895
O14	O	0.765375	-0.340154	-0.340310
O15	O	0.943987	-0.263152	-0.441925
O16	O	0.943824	-0.441700	-0.263341
O17	O	0.866888	-0.441709	-0.340293
C18	C	0.742652	-0.301681	-0.301839
C19	C	0.673011	-0.301709	-0.301846
C20	C	0.640356	-0.261698	-0.341993
C21	C	0.574921	-0.261682	-0.341995
C22	C	0.542142	-0.301687	-0.301857
C23	C	0.574804	-0.341701	-0.261703
C24	C	0.640238	-0.341712	-0.261697
C25	C	0.438419	-0.358112	-0.296818
C26	C	0.372986	-0.358102	-0.296828
C27	C	0.340322	-0.301653	-0.301871
C28	C	0.373098	-0.245212	-0.306918
C29	C	0.438532	-0.245223	-0.306912
C30	C	0.471190	-0.301679	-0.301859
C31	C	0.236715	-0.261620	-0.342023
C32	C	0.171278	-0.261603	-0.342021
C33	C	0.171163	-0.341627	-0.261732
C34	C	0.236598	-0.341640	-0.261731
C35	C	0.269370	-0.301637	-0.301879
C36	C	0.905359	-0.464438	-0.301824
C37	C	0.905382	-0.534080	-0.301831
C38	C	0.945446	-0.566725	-0.341938
C39	C	0.945468	-0.632161	-0.341953
C40	C	0.905433	-0.664948	-0.301851
C41	C	0.865362	-0.632294	-0.261742
C42	C	0.865337	-0.566860	-0.261732
C43	C	0.900556	-0.768649	-0.245412
C44	C	0.900586	-0.834082	-0.245421
C45	C	0.905507	-0.866769	-0.301881
C46	C	0.910413	-0.834014	-0.358334
C47	C	0.910387	-0.768580	-0.358325
C48	C	0.905456	-0.735900	-0.301857
C49	C	0.945597	-0.970367	-0.342007
C50	C	0.945614	-1.035803	-0.342024
C51	C	0.865512	-1.035936	-0.261807
C52	C	0.865491	-0.970500	-0.261796
C53	C	0.905537	-0.937720	-0.301895
C54	C	1.068863	-0.301621	-0.301874
C55	C	1.138504	-0.301608	-0.301882
C56	C	0.905491	-0.301638	-0.465280
C57	C	0.905514	-0.301633	-0.534921
C58	C	0.905537	-0.138227	-0.301902
C59	C	0.905578	-0.068586	-0.301922
C60	C	0.945609	-0.261550	-0.567651
C61	C	0.945608	-0.261523	-0.633086
C62	C	0.905519	-0.301590	-0.665789
C63	C	0.865415	-0.341675	-0.633052
C64	C	0.865413	-0.341697	-0.567617
C65	C	0.900543	-0.358007	-0.769453
C66	C	0.900550	-0.357986	-0.834886
C67	C	0.905522	-0.301524	-0.867610
C68	C	0.910501	-0.245080	-0.834893
C69	C	0.910498	-0.245101	-0.769459
C70	C	0.905516	-0.301571	-0.736742
C71	C	0.945619	-0.261409	-0.971293
C72	C	0.945614	-0.261381	-1.036729
C73	C	0.865424	-0.341538	-1.036693
C74	C	0.865426	-0.341561	-0.971258
C75	C	0.905527	-0.301497	-0.938561
C76	C	0.905424	-0.301618	-0.139069
C77	C	0.905523	-0.301447	-0.069428
H78	H	0.263185	-0.374223	-0.229041
C79	C	0.821260	-0.530949	-0.217612
N80	N	0.788060	-0.503899	-0.184381
C81	C	0.676159	-0.385732	-0.217534
N82	N	0.703215	-0.418890	-0.184271
C83	C	0.895189	-0.870106	-0.183321
N84	N	0.891123	-0.897238	-0.136546
H85	H	0.896500	-0.403946	-0.861519
H86	H	0.465216	-0.199267	-0.311019
H87	H	0.144692	-0.229017	-0.374712
H88	H	0.978051	-0.540037	-0.374591
C89	C	0.895154	-0.732701	-0.183296
N90	N	0.891089	-0.705626	-0.136511
H91	H	0.914421	-0.860625	-0.404310
C92	C	0.676402	-0.217686	-0.386150
N93	N	0.703553	-0.184533	-0.419406
H94	H	0.978087	-0.658746	-0.374620
C95	C	0.915778	-0.732552	-0.420423
N96	N	0.919835	-0.705416	-0.467196
H97	H	0.978264	-0.228737	-1.063377
H98	H	0.978202	-0.943676	-0.374661
C99	C	0.989692	-1.071714	-0.386143
N100	N	1.022895	-1.098762	-0.419373
C101	C	0.895086	-0.420125	-0.733463
N102	N	0.890979	-0.466912	-0.706356
C103	C	0.821325	-0.385613	-1.072663
N104	N	0.788108	-0.418811	-1.099759
H105	H	0.263399	-0.229044	-0.374710
H106	H	0.832911	-1.062630	-0.229159
C107	C	0.821414	-0.934589	-0.217679
N108	N	0.788209	-0.907540	-0.184451
C109	C	0.989713	-0.217470	-0.531688
N110	N	1.022930	-0.184266	-0.504601
H111	H	0.832764	-0.658994	-0.229091
C112	C	0.336938	-0.420187	-0.291270
N113	N	0.309788	-0.466951	-0.287079
H114	H	0.978258	-0.228880	-0.659740
H115	H	0.144475	-0.374200	-0.229051
H116	H	0.548329	-0.229097	-0.374686
C117	C	0.337172	-0.183112	-0.312460
N118	N	0.310110	-0.136340	-0.316633
C119	C	0.915969	-0.182966	-0.870885
N120	N	0.920088	-0.136183	-0.897997
C121	C	0.474343	-0.420215	-0.291273
N122	N	0.501400	-0.466989	-0.287098
H123	H	0.914550	-0.199143	-0.742824
H124	H	0.832759	-0.374336	-0.540969
H125	H	0.978268	-0.228783	-0.944670
C126	C	0.821313	-0.385746	-0.669026
N127	N	0.788092	-0.418939	-0.696122
C128	C	0.538746	-0.385707	-0.217552
N129	N	0.511587	-0.418853	-0.184295
C130	C	0.821320	-0.385658	-0.935254
N131	N	0.788095	-0.418872	-0.908136
