data_functionalizedCrystal
_audit_creation_method	'MofGen! by Chris Wilmer'
_symmetry_space_group_name_H-M	'P1'
_symmetry_Int_Tables_number	1
_symmetry_cell_setting	triclinic
loop_
_symmetry_equiv_pos_as_xyz
  x,y,z
_cell_length_a	10.967926
_cell_length_b	14.971486
_cell_length_c	14.048226
_cell_angle_alpha	89.998499
_cell_angle_beta	102.133279
_cell_angle_gamma	95.824564
loop_
_atom_site_label
_atom_site_type_symbol
_atom_site_fract_x
_atom_site_fract_y
_atom_site_fract_z
O1	O	-0.162618	1.187823	-0.105723
O2	O	-0.182091	0.927527	-0.108943
O3	O	0.009286	1.063676	-0.077534
O4	O	-0.353995	1.051674	-0.137131
O5	O	0.009297	1.063660	0.080789
O6	O	-0.182080	0.927511	0.049381
O7	O	-0.162606	1.187806	0.052600
Zn8	Zn	-0.172341	1.057656	0.076128
Zn9	Zn	-0.172356	1.057678	-0.132470
O10	O	-0.353984	1.051657	0.021192
C11	C	-0.181215	0.894190	-0.029641
C12	C	-0.178605	0.794878	-0.029223
C13	C	-0.291034	0.738259	-0.047666
C14	C	-0.288574	0.644946	-0.047248
C15	C	-0.173684	0.608255	-0.028394
C16	C	-0.061247	0.664882	-0.009947
C17	C	-0.063708	0.758193	-0.010358
C18	C	-0.056125	0.470392	-0.009094
C19	C	-0.053664	0.377075	-0.008684
C20	C	-0.280992	0.357145	-0.045984
C21	C	-0.283453	0.450456	-0.046395
C22	C	-0.171015	0.507077	-0.027950
C23	C	-0.400480	1.052540	-0.065596
C24	C	-0.539008	1.055156	-0.088322
C25	C	-0.600763	1.056314	-0.016437
C26	C	-0.743938	1.059019	-0.039923
C27	C	0.055782	1.062793	0.009252
C28	C	0.194310	1.060177	0.031971
C29	C	-0.163483	1.221144	-0.026703
C30	C	-0.166093	1.320455	-0.027127
N31	N	-0.172331	1.057647	0.218490
N32	N	-0.172357	1.057693	-0.274831
C33	C	-0.087624	1.117953	0.282210
C34	C	-0.087623	1.117959	0.381868
C35	C	-0.172336	1.057663	0.417803
C36	C	-0.257047	0.997351	0.354075
C37	C	-0.257041	0.997341	0.254420
C38	C	-0.257056	0.997376	0.561788
C39	C	-0.257064	0.997387	0.661449
C40	C	-0.087638	1.117995	0.689236
C41	C	-0.087632	1.117985	0.589581
C42	C	-0.172345	1.057674	0.525860
H43	H	0.027844	0.804293	0.004659
O44	O	0.050467	0.629391	0.008425
C45	C	0.275685	0.659015	0.045309
C46	C	0.149254	0.699324	0.024545
H47	H	0.355587	0.715536	0.058327
H48	H	0.282614	0.615860	0.112719
H49	H	0.282443	0.615797	-0.019824
H50	H	0.142410	0.742583	0.089618
H51	H	0.142379	0.742427	-0.042900
O52	O	-0.339449	0.938729	0.192647
C53	C	-0.507446	0.819068	0.175606
C54	C	-0.414209	0.885417	0.245666
H55	H	-0.567897	0.775935	0.218447
H56	H	-0.569959	0.858013	0.118708
H57	H	-0.453437	0.774093	0.137796
H58	H	-0.468116	0.930407	0.283544
H59	H	-0.351698	0.846416	0.302504
O60	O	-0.005177	1.176513	0.443682
C61	C	0.211674	1.227599	0.509790
C62	C	0.118439	1.161243	0.439737
H63	H	0.311637	1.215264	0.506639
H64	H	0.195330	1.299348	0.487477
H65	H	0.197066	1.217269	0.587176
H66	H	0.132992	1.171492	0.362329
H67	H	0.134806	1.089519	0.462133
H68	H	-0.547636	1.055299	0.062493
H69	H	-0.377006	0.480326	-0.061757
H70	H	0.035434	0.516491	0.005928
H71	H	-0.018659	1.167087	0.560323
H72	H	-0.752570	1.059160	0.110907
O73	O	-0.807447	1.060082	-0.134066
C74	C	-0.968497	0.985426	-0.260547
C75	C	-0.896700	0.984140	-0.153907
H76	H	-1.040656	0.924025	-0.276628
H77	H	-1.018230	1.049013	-0.273004
H78	H	-0.899683	0.984166	-0.310980
H79	H	-0.965430	0.985367	-0.103406
H80	H	-0.846948	0.920559	-0.141529
H81	H	-0.018662	1.167102	0.741123
H82	H	-0.372543	0.311039	-0.060999
O83	O	-0.339382	0.938717	0.696206
C84	C	-0.507438	0.819096	0.658134
C85	C	-0.414269	0.885482	0.618645
H86	H	-0.568026	0.776051	0.595443
H87	H	-0.453498	0.774042	0.713620
H88	H	-0.569824	0.858100	0.694576
H89	H	-0.351859	0.846551	0.582155
H90	H	-0.468287	0.930536	0.563206
H91	H	-0.384591	0.768124	-0.063020
O92	O	-0.602568	1.056371	-0.182434
C93	C	-0.803245	1.060032	-0.291655
C94	C	-0.731416	1.058703	-0.185027
H95	H	-0.907434	1.061899	-0.293787
H96	H	-0.766523	1.122044	-0.328256
H97	H	-0.788951	0.997065	-0.331867
H98	H	-0.745678	1.121627	-0.144733
H99	H	-0.768151	0.996650	-0.148500
H100	H	-0.380125	0.598849	-0.062268
H101	H	0.039889	0.347204	0.006669
H102	H	-0.326034	0.948261	0.509909
H103	H	-0.018646	1.167057	0.252959
H104	H	-0.326018	0.948252	0.383339
