data_functionalizedCrystal
_audit_creation_method	'MofGen! by Chris Wilmer'
_symmetry_space_group_name_H-M	'P1'
_symmetry_Int_Tables_number	1
_symmetry_cell_setting	triclinic
loop_
_symmetry_equiv_pos_as_xyz
  x,y,z
_cell_length_a	16.625548
_cell_length_b	16.120484
_cell_length_c	16.120339
_cell_angle_alpha	89.785998
_cell_angle_beta	92.864476
_cell_angle_gamma	92.926626
loop_
_atom_site_label
_atom_site_type_symbol
_atom_site_fract_x
_atom_site_fract_y
_atom_site_fract_z
Zn1	Zn	1.193860	-0.306880	-0.486962
Zn2	Zn	1.193026	-0.453082	-0.354948
Zn3	Zn	1.065453	-0.314050	-0.347919
Zn4	Zn	1.051827	-0.445897	-0.493959
O5	O	1.126042	-0.379977	-0.420947
O6	O	1.306581	-0.326280	-0.469463
O7	O	1.181457	-0.440647	-0.237649
O8	O	1.088538	-0.196735	-0.360494
O9	O	1.305968	-0.433694	-0.372473
O10	O	1.182879	-0.191466	-0.462648
O11	O	1.087729	-0.338501	-0.232485
O12	O	0.950814	-0.331534	-0.367279
O13	O	1.065314	-0.421448	-0.609397
O14	O	0.940803	-0.428401	-0.474573
O15	O	1.169666	-0.319312	-0.604256
O16	O	1.168244	-0.568494	-0.379258
O17	O	1.064506	-0.563215	-0.481388
C18	C	0.916553	-0.379967	-0.420923
C19	C	0.826930	-0.379981	-0.420934
C20	C	0.498753	-0.379985	-0.420969
C21	C	0.590062	-0.379981	-0.420957
C22	C	0.662838	-0.379983	-0.420951
C23	C	0.754154	-0.379979	-0.420939
C24	C	1.114827	-0.596025	-0.431863
C25	C	1.110102	-0.688450	-0.436561
C26	C	1.101478	-0.857670	-0.445155
C27	C	1.150749	-0.901443	-0.396752
C28	C	1.145951	-0.995603	-0.401534
C29	C	1.106275	-0.763502	-0.440374
C30	C	1.336349	-0.379989	-0.420971
C31	C	1.425969	-0.379993	-0.420982
C32	C	1.116063	-0.368779	-0.637843
C33	C	1.111811	-0.364007	-0.730271
C34	C	1.137321	-0.163085	-0.410006
C35	C	1.142128	-0.070658	-0.405344
C36	C	1.136031	-0.391072	-0.204892
C37	C	1.140451	-0.395610	-0.112453
C38	C	1.103737	-0.355727	0.100481
C39	C	1.148523	-0.403887	0.056790
C40	C	1.144031	-0.399280	-0.037385
C41	C	1.108228	-0.360333	0.194665
H42	H	1.055696	-0.890910	-0.490181
C43	C	1.204877	-0.464268	0.101797
H44	H	1.232390	-0.493876	0.061999
H45	H	1.173983	-0.502356	0.134000
H46	H	1.243036	-0.433813	0.137154
C47	C	1.212579	-0.856543	-0.335896
H48	H	1.207721	-0.798230	-0.340610
H49	H	1.265487	-0.870028	-0.348795
H50	H	1.202654	-0.873661	-0.280727
C51	C	1.047377	-0.295364	0.055470
H52	H	1.051709	-0.300158	-0.002839
H53	H	1.062339	-0.240074	0.072306
H54	H	0.993302	-0.308635	0.069157
