data_functionalizedCrystal
_audit_creation_method	'MofGen! by Chris Wilmer'
_symmetry_space_group_name_H-M	'P1'
_symmetry_Int_Tables_number	1
_symmetry_cell_setting	triclinic
loop_
_symmetry_equiv_pos_as_xyz
  x,y,z
_cell_length_a	11.026607
_cell_length_b	14.519709
_cell_length_c	9.482900
_cell_angle_alpha	99.350820
_cell_angle_beta	78.636152
_cell_angle_gamma	96.133081
loop_
_atom_site_label
_atom_site_type_symbol
_atom_site_fract_x
_atom_site_fract_y
_atom_site_fract_z
O1	O	1.629894	0.375017	-0.120915
O2	O	2.129894	0.875017	0.379085
O3	O	1.276492	0.331026	-0.120914
O4	O	1.776492	0.831026	0.379086
O5	O	1.462561	0.220328	-0.120901
O6	O	1.962561	0.720328	0.379099
O7	O	1.443825	0.485715	-0.120927
O8	O	1.943825	0.985715	0.379073
O9	O	1.424766	0.242929	0.120889
O10	O	1.924766	0.742929	0.620889
O11	O	1.238698	0.353627	0.120876
O12	O	1.738698	0.853627	0.620876
O13	O	1.592099	0.397617	0.120875
O14	O	2.092099	0.897617	0.620875
Cu15	Cu	1.411948	0.377686	0.142953
Cu16	Cu	1.911948	0.877686	0.642953
Cu17	Cu	1.456644	0.350958	-0.142992
Cu18	Cu	1.956644	0.850958	0.357008
O19	O	1.406031	0.508316	0.120862
O20	O	1.906031	1.008316	0.620862
C21	C	1.212367	0.334211	-0.000019
C22	C	1.712367	0.834211	0.499981
C23	C	1.077600	0.310019	-0.000019
C24	C	1.577600	0.810019	0.499981
C25	C	1.003940	0.376817	-0.000026
C26	C	1.503940	0.876817	0.499974
C27	C	0.864652	0.351815	-0.000026
C28	C	1.364652	0.851815	0.499974
C29	C	1.442790	0.197125	-0.000006
C30	C	1.942790	0.697125	0.499994
C31	C	1.440173	0.094312	-0.000005
C32	C	1.940173	0.594312	0.499995
C33	C	1.430544	-0.282175	-0.000043
C34	C	1.930544	0.217825	0.499957
C35	C	1.433218	-0.177425	-0.000032
C36	C	1.933218	0.322575	0.499968
C37	C	1.435358	-0.093934	-0.000023
C38	C	1.935358	0.406066	0.499977
C39	C	1.438033	0.010822	-0.000015
C40	C	1.938033	0.510822	0.499985
C41	C	1.656226	0.394432	-0.000023
C42	C	2.156226	0.894432	0.499977
C43	C	1.790994	0.418624	-0.000033
C44	C	2.290994	0.918624	0.499967
C45	C	1.425802	0.531518	-0.000036
C46	C	1.925802	1.031518	0.499964
C47	C	1.428421	0.634330	-0.000046
C48	C	1.928421	1.134330	0.499954
N49	N	1.380519	0.396486	0.344071
N50	N	1.880519	0.896486	0.844071
N51	N	1.488082	0.332152	-0.344110
N52	N	1.988082	0.832152	0.155890
C53	C	1.447366	0.356497	0.416275
C54	C	1.947366	0.856497	0.916275
C55	C	1.421226	0.372147	0.583690
C56	C	1.921226	0.872147	1.083690
H57	H	1.043996	0.452517	-0.000025
H58	H	1.543996	0.952517	0.499975
H59	H	1.564664	0.286322	0.593771
H60	H	2.064664	0.786322	1.093771
C61	C	0.683077	0.244627	-0.000028
C62	C	1.183077	0.744627	0.499972
C63	C	0.810597	0.249615	-0.000023
C64	C	1.310597	0.749615	0.499977
H65	H	0.649709	0.181533	-0.000037
H66	H	1.149709	0.681533	0.499963
H67	H	0.643339	0.282351	0.084283
H68	H	1.143339	0.782351	0.584283
H69	H	0.669703	0.266602	-0.084352
H70	H	1.169703	0.766602	0.415648
H71	H	0.823970	0.227647	0.084307
H72	H	1.323970	0.727647	0.584307
H73	H	0.850347	0.211878	-0.084344
H74	H	1.350347	0.711878	0.415656
H75	H	0.831042	0.494329	-0.000031
H76	H	1.331042	0.994329	0.499969
C77	C	1.664587	0.332489	0.369165
C78	C	2.164587	0.832489	0.869165
C79	C	1.550774	0.294643	0.332464
C80	C	2.050774	0.794643	0.832464
H81	H	1.728432	0.294300	0.317443
H82	H	2.228432	0.794300	0.817443
H83	H	1.681982	0.393919	0.344260
H84	H	2.181982	0.893919	0.844260
H85	H	1.660538	0.334900	0.470681
H86	H	2.160538	0.834900	0.970681
H87	H	1.554820	0.292238	0.230949
H88	H	2.054820	0.792238	0.730949
H89	H	1.533376	0.233197	0.357359
H90	H	2.033376	0.733197	0.857359
H91	H	1.037549	0.234316	-0.000048
H92	H	1.537549	0.734316	0.499952
C93	C	1.271253	0.461879	0.577542
C94	C	1.771253	0.961879	1.077542
C95	C	1.277135	0.458348	0.427924
C96	C	1.777135	0.958348	0.927924
H97	H	1.207430	0.500076	0.629303
H98	H	1.707430	1.000076	1.129303
H99	H	1.253840	0.400442	0.602413
H100	H	1.753840	0.900442	1.102413
H101	H	1.348496	0.487529	0.602379
H102	H	1.848496	0.987529	1.102379
H103	H	1.199894	0.432691	0.403084
H104	H	1.699894	0.932691	0.903084
H105	H	1.294539	0.519797	0.403042
H106	H	1.794539	1.019797	0.903042
H107	H	1.344635	0.417969	0.645809
H108	H	1.844635	0.917969	1.145809
