data_functionalizedCrystal
_audit_creation_method	'MofGen! by Chris Wilmer'
_symmetry_space_group_name_H-M	'P1'
_symmetry_Int_Tables_number	1
_symmetry_cell_setting	triclinic
loop_
_symmetry_equiv_pos_as_xyz
  x,y,z
_cell_length_a	10.654541
_cell_length_b	10.540539
_cell_length_c	9.730217
_cell_angle_alpha	89.998866
_cell_angle_beta	89.999932
_cell_angle_gamma	84.504710
loop_
_atom_site_label
_atom_site_type_symbol
_atom_site_fract_x
_atom_site_fract_y
_atom_site_fract_z
O1	O	1.667901	0.178284	-0.114241
O2	O	1.302428	0.195274	-0.114252
O3	O	1.493503	0.002070	-0.114244
O4	O	1.476827	0.371489	-0.114248
O5	O	1.493497	0.002068	0.114336
O6	O	1.302422	0.195273	0.114328
O7	O	1.667895	0.178282	0.114339
Zn8	Zn	1.485158	0.186777	0.150626
Zn9	Zn	1.485166	0.186779	-0.150538
O10	O	1.476821	0.371487	0.114332
C11	C	1.255627	0.194027	0.000036
C12	C	1.116182	0.190296	0.000032
C13	C	1.088292	0.421325	0.000012
C14	C	1.008838	0.535081	-0.000003
C15	C	0.877819	0.531569	-0.000004
C16	C	0.826252	0.414286	0.000014
C17	C	0.905707	0.300530	0.000029
C18	C	1.036727	0.304055	0.000026
C19	C	0.933596	0.069504	0.000059
C20	C	1.064615	0.073014	0.000050
C21	C	0.882029	-0.047778	0.000077
C22	C	0.961484	-0.161538	0.000082
C23	C	1.092511	-0.158020	0.000082
C24	C	1.144070	-0.040742	0.000065
C25	C	1.492249	-0.045234	0.000043
C26	C	1.488508	-0.186180	0.000036
C27	C	1.345136	-0.369555	-0.000482
C28	C	1.348929	-0.222938	0.000033
C29	C	1.555676	-0.247864	0.130568
C30	C	1.550912	-0.394407	0.130678
C31	C	1.553758	-0.394924	-0.129260
C32	C	1.555043	-0.247942	-0.130986
C33	C	1.714697	0.179530	0.000048
C34	C	1.854142	0.183260	0.000043
C35	C	1.478074	0.418790	0.000041
C36	C	1.481816	0.559737	0.000040
N37	N	1.485162	0.186775	0.356162
N38	N	1.485172	0.186772	-0.356075
C39	C	1.654428	0.015742	0.356160
C40	C	1.739070	-0.069770	0.428098
C41	C	1.739082	-0.069771	0.571978
C42	C	1.654442	0.015747	0.643922
C43	C	1.569800	0.101260	0.571984
C44	C	1.569799	0.101254	0.428101
C45	C	1.400530	0.272284	0.571986
C46	C	1.400521	0.272293	0.428107
C47	C	1.315890	0.357803	0.643931
C48	C	1.231252	0.443324	0.571992
C49	C	1.231244	0.443322	0.428104
C50	C	1.315880	0.357806	0.356168
H51	H	1.250751	-0.037867	0.000049
H52	H	1.194974	0.424197	-0.000017
C53	C	1.270961	-0.410296	0.125293
N54	N	1.215102	-0.440973	0.220039
H55	H	1.654437	0.015745	0.239005
C56	C	0.682127	0.410429	0.000027
N57	N	0.573570	0.407522	0.000036
H58	H	0.919487	-0.257019	0.000096
C59	C	1.832150	-0.163856	0.348949
N60	N	1.902250	-0.234730	0.289337
H61	H	1.157196	-0.250655	0.000100
H62	H	1.508585	-0.426459	-0.228195
H63	H	1.654575	-0.442187	-0.130135
C64	C	1.277518	-0.165351	-0.126371
N65	N	1.223722	-0.121982	-0.221580
C66	C	1.488713	-0.192646	-0.261446
N67	N	1.438740	-0.151000	-0.359706
C68	C	1.492630	-0.190303	0.261796
N69	N	1.445135	-0.146951	0.360634
C70	C	1.315877	0.357794	0.197896
N71	N	1.315875	0.357777	0.078684
H72	H	1.290002	-0.398134	-0.094089
H73	H	1.656807	-0.223758	-0.138865
C74	C	1.832191	-0.163839	0.651112
N75	N	1.902322	-0.234690	0.710716
C76	C	1.654438	0.015718	0.802194
N77	N	1.654430	0.015692	0.921406
C78	C	0.790417	0.656705	-0.000021
N79	N	0.724585	0.750959	-0.000036
H80	H	0.775346	-0.050630	0.000083
C81	C	1.315890	0.357783	0.802203
N82	N	1.315887	0.357768	0.921415
H83	H	1.162338	0.512941	0.630578
H84	H	1.050838	0.630571	-0.000014
C85	C	1.138150	0.537415	0.348983
N86	N	1.068038	0.608298	0.289394
C87	C	1.277026	-0.166497	0.126653
N88	N	1.222867	-0.123986	0.222031
C89	C	1.686521	-0.459263	0.138703
N90	N	1.788661	-0.508107	0.144757
C91	C	1.483829	-0.432481	0.262486
N92	N	1.433296	-0.461151	0.361764
H93	H	1.658178	-0.225548	0.135424
