data_functionalizedCrystal
_audit_creation_method	'MofGen! by Chris Wilmer'
_symmetry_space_group_name_H-M	'P1'
_symmetry_Int_Tables_number	1
_symmetry_cell_setting	triclinic
loop_
_symmetry_equiv_pos_as_xyz
  x,y,z
_cell_length_a	27.732066
_cell_length_b	26.809956
_cell_length_c	27.732048
_cell_angle_alpha	90.011154
_cell_angle_beta	97.353621
_cell_angle_gamma	89.984750
loop_
_atom_site_label
_atom_site_type_symbol
_atom_site_fract_x
_atom_site_fract_y
_atom_site_fract_z
O1	O	-0.640935	0.041384	0.057558
O2	O	-0.500143	0.041408	0.066295
O3	O	-0.574912	0.041386	-0.008470
O4	O	-0.566166	0.041406	0.132323
O5	O	-0.574878	-0.041573	-0.008471
O6	O	-0.500109	-0.041551	0.066294
O7	O	-0.640901	-0.041575	0.057557
Zn8	Zn	-0.570500	-0.054735	0.061925
Zn9	Zn	-0.570544	0.054568	0.061927
O10	O	-0.566132	-0.041553	0.132322
C11	C	-0.482119	-0.000069	0.066109
C12	C	-0.428465	-0.000060	0.065553
C13	C	-0.051392	-0.000088	0.017584
C14	C	-0.253052	-0.000079	0.019631
O15	O	-0.284305	-0.000103	-0.017590
N16	N	-0.272180	-0.000071	0.063965
C17	C	-0.240889	-0.000068	0.107791
O18	O	-0.261785	-0.000066	0.145547
C19	C	-0.039230	-0.000081	0.105743
C20	C	-0.020105	-0.000084	0.061406
C21	C	-0.032267	-0.000092	-0.026750
C22	C	0.018145	-0.000092	-0.027261
C23	C	0.049432	-0.000088	0.016561
C24	C	0.030307	-0.000084	0.060895
C25	C	-0.007940	-0.000082	0.149568
C26	C	0.042478	-0.000087	0.149052
C27	C	0.061602	-0.000090	0.104715
C28	C	0.112006	-0.000080	0.104205
N29	N	0.131133	-0.000088	0.059871
C30	C	0.099846	-0.000092	0.016049
C31	C	-0.346763	-0.000060	0.108863
C32	C	-0.397178	-0.000056	0.109375
C33	C	-0.409338	-0.000068	0.021215
C34	C	-0.358922	-0.000068	0.020703
C35	C	-0.327636	-0.000068	0.064529
C36	C	0.205716	-0.000091	0.014978
C37	C	0.256133	-0.000088	0.014471
C38	C	0.268289	-0.000079	0.102631
C39	C	0.217876	-0.000079	0.103138
C40	C	0.186590	-0.000087	0.059308
O41	O	0.143287	-0.000061	0.141406
O42	O	0.120752	-0.000105	-0.021702
C43	C	-0.101804	-0.000089	0.018095
C44	C	-0.120929	-0.000085	0.062429
C45	C	-0.089642	-0.000081	0.106251
C46	C	-0.171344	-0.000081	0.062941
C47	C	-0.202631	-0.000085	0.019119
C48	C	-0.183504	-0.000093	-0.025216
C49	C	-0.133091	-0.000093	-0.025727
C50	C	-0.108770	-0.000073	0.150585
C51	C	-0.159182	-0.000072	0.151093
C52	C	-0.190469	-0.000076	0.107271
N53	N	-0.570473	-0.129331	0.061924
C54	C	0.341075	-0.000093	0.057741
C55	C	0.287420	-0.000084	0.058293
C56	C	-0.537403	-0.526204	0.095017
C57	C	-0.537378	-0.317326	0.095017
O58	O	-0.509200	-0.290317	0.123148
N59	N	-0.570490	-0.291209	0.061923
C60	C	-0.603608	-0.317315	0.028824
O61	O	-0.631768	-0.290307	0.000672
C62	C	-0.603631	-0.526191	0.028822
C63	C	-0.570520	-0.552306	0.061922
C64	C	-0.504295	-0.552319	0.128113
C65	C	-0.504304	-0.604535	0.128114
C66	C	-0.537420	-0.630637	0.095019
C67	C	-0.570528	-0.604522	0.061923
C68	C	-0.636746	-0.552296	-0.004278
C69	C	-0.636748	-0.604518	-0.004277
C70	C	-0.603638	-0.630633	0.028823
C71	C	-0.603654	-0.682840	0.028829
N72	N	-0.570542	-0.708957	0.061923
C73	C	-0.537425	-0.682856	0.095018
C74	C	-0.603595	-0.207651	0.028828
C75	C	-0.603590	-0.155432	0.028829
C76	C	-0.537359	-0.155448	0.095022
C77	C	-0.537367	-0.207668	0.095022
C78	C	-0.570483	-0.233768	0.061922
C79	C	-0.537446	-0.792514	0.095019
C80	C	-0.537458	-0.844735	0.095019
C81	C	-0.603687	-0.844714	0.028825
C82	C	-0.603676	-0.792498	0.028827
C83	C	-0.570551	-0.766399	0.061926
O84	O	-0.631813	-0.709881	0.000709
O85	O	-0.509263	-0.709872	0.123159
C86	C	-0.537395	-0.473988	0.095015
C87	C	-0.570503	-0.447873	0.061919
C88	C	-0.603620	-0.473975	0.028824
C89	C	-0.570498	-0.395654	0.061920
C90	C	-0.537382	-0.369553	0.095015
C91	C	-0.504270	-0.395670	0.128109
C92	C	-0.504278	-0.447886	0.128110
C93	C	-0.636732	-0.447858	-0.004270
C94	C	-0.636721	-0.395641	-0.004269
C95	C	-0.603604	-0.369540	0.028827
C96	C	-0.574711	-0.000095	-0.026477
C97	C	-0.574158	-0.000099	-0.080132
N98	N	-0.570575	0.129164	0.061924
C99	C	-0.614862	-0.000080	-0.418945
C100	C	-0.612811	-0.000073	-0.620604
O101	O	-0.650031	-0.000057	-0.651858
N102	N	-0.568476	-0.000066	-0.639731
C103	C	-0.524651	-0.000057	-0.608439
O104	O	-0.486894	-0.000046	-0.629335
C105	C	-0.526702	-0.000061	-0.406781
C106	C	-0.571040	-0.000073	-0.387657
C107	C	-0.659196	-0.000092	-0.399821
C108	C	-0.659708	-0.000096	-0.349409
C109	C	-0.615886	-0.000089	-0.318121
C110	C	-0.571552	-0.000078	-0.337245
C111	C	-0.482878	-0.000049	-0.375490
C112	C	-0.483394	-0.000049	-0.325072
C113	C	-0.527732	-0.000061	-0.305949
C114	C	-0.528243	-0.000075	-0.255545
N115	N	-0.572578	-0.000082	-0.236419
C116	C	-0.616399	-0.000089	-0.267706
C117	C	-0.523577	-0.000056	-0.714314
C118	C	-0.523064	-0.000056	-0.764728
C119	C	-0.611224	-0.000071	-0.776890
C120	C	-0.611737	-0.000075	-0.726474
C121	C	-0.567912	-0.000064	-0.695187
C122	C	-0.617472	-0.000099	-0.161837
C123	C	-0.617980	-0.000106	-0.111420
C124	C	-0.529820	-0.000089	-0.099263
C125	C	-0.529312	-0.000085	-0.149675
C126	C	-0.573141	-0.000088	-0.180962
O127	O	-0.491042	-0.000085	-0.224264
O128	O	-0.654150	-0.000090	-0.246801
C129	C	-0.614349	-0.000076	-0.469357
C130	C	-0.570015	-0.000064	-0.488481
C131	C	-0.526194	-0.000057	-0.457193
C132	C	-0.569502	-0.000064	-0.538895
C133	C	-0.613324	-0.000071	-0.570183
C134	C	-0.657659	-0.000078	-0.551056
C135	C	-0.658171	-0.000083	-0.500644
C136	C	-0.481859	-0.000050	-0.476320
C137	C	-0.481350	-0.000046	-0.526732
C138	C	-0.525172	-0.000053	-0.558020
C139	C	-0.566333	-0.000071	0.150329
C140	C	-0.566886	-0.000063	0.203984
H141	H	0.293771	-0.000073	0.138310
H142	H	-0.117525	-0.000096	-0.061831
N143	N	-0.639328	-0.235796	-0.006865
H144	H	-0.634027	-0.226715	-0.041138
H145	H	-0.673568	-0.226671	-0.001476
H146	H	-0.663708	-0.531040	-0.031231
N147	N	-0.707531	-0.000095	-0.328788
H148	H	-0.701213	-0.000093	-0.292102
H149	H	-0.726682	-0.030849	-0.340262
N150	N	-0.658491	-0.000073	-0.810639
H151	H	-0.677843	-0.030828	-0.804534
H152	H	-0.651395	-0.000052	-0.845463
N153	N	-0.672438	-0.367478	-0.039968
H154	H	-0.693416	-0.391942	-0.060933
H155	H	-0.654089	-0.345827	-0.061213
H156	H	-0.630652	-0.865975	0.001881
H157	H	-0.208987	-0.000094	-0.060897
N158	N	-0.468562	-0.476049	0.163807
H159	H	-0.447583	-0.451583	0.184767
H160	H	-0.447334	-0.497725	0.145445
H161	H	-0.446773	-0.000036	-0.391051
H162	H	0.202304	-0.000076	0.139241
H163	H	-0.174748	-0.000066	0.187201
N164	N	-0.468550	-0.367507	0.163801
H165	H	-0.434288	-0.376609	0.158467
H166	H	-0.473899	-0.376590	0.198058
N167	N	-0.672471	-0.632670	-0.039974
H168	H	-0.654166	-0.654349	-0.061252
H169	H	-0.693435	-0.608168	-0.060906
N170	N	-0.417796	-0.000047	0.157199
H171	H	-0.438436	-0.030798	0.159378
H172	H	-0.438423	0.030728	0.159354
H173	H	-0.510472	-0.771270	0.121970
N174	N	-0.501636	-0.127294	0.130717
H175	H	-0.519941	-0.105615	0.151995
H176	H	-0.480383	-0.105671	0.112351
N177	N	-0.468582	-0.632696	0.163806
H178	H	-0.473883	-0.623598	0.198078
H179	H	-0.434338	-0.623603	0.158421
N180	N	-0.705992	-0.000090	-0.480020
H181	H	-0.708161	-0.030845	-0.459381
H182	H	-0.733644	-0.000074	-0.507522
N183	N	-0.443089	-0.000082	-0.026050
H184	H	-0.423328	-0.000091	-0.054218
H185	H	-0.464281	0.030671	-0.027761
H186	H	-0.510496	-0.865995	0.121974
H187	H	-0.663699	-0.469106	-0.031221
H188	H	-0.083300	-0.000070	0.186272
N189	N	-0.338293	-0.000076	-0.027115
H190	H	-0.349731	0.030675	-0.046295
H191	H	-0.349728	-0.030851	-0.046258
H192	H	-0.654087	-0.000117	-0.095853
N193	N	-0.664744	-0.000103	-0.195577
H194	H	-0.692903	-0.000112	-0.175806
H195	H	-0.666440	-0.030857	-0.216765
H196	H	-0.694883	-0.000096	-0.425291
N197	N	-0.475242	-0.000045	-0.785350
H198	H	-0.481561	-0.000046	-0.822035
H199	H	-0.456070	-0.030795	-0.773884
H200	H	-0.446173	-0.000043	-0.450849
N201	N	-0.476307	-0.000048	-0.680569
H202	H	-0.456959	0.030707	-0.686682
H203	H	-0.456977	-0.030820	-0.686707
N204	N	-0.481492	-0.000074	-0.170306
H205	H	-0.479300	-0.030823	-0.190961
H206	H	-0.453838	-0.000053	-0.142807
N207	N	-0.468571	-0.524171	0.163809
H208	H	-0.447601	-0.548646	0.184771
H209	H	-0.486911	-0.502495	0.185056
H210	H	-0.321293	-0.000059	0.144553
H211	H	0.067950	-0.000089	0.184741
H212	H	-0.510405	-0.228927	0.121975
H213	H	0.033711	-0.000097	-0.063365
H214	H	-0.447706	-0.000039	-0.299600
H215	H	0.271701	-0.000090	-0.021636
N216	N	-0.659557	-0.000088	-0.705850
H217	H	-0.687238	-0.000094	-0.733325
H218	H	-0.661706	0.030666	-0.685194
N219	N	-0.639308	-0.127269	-0.006864
H220	H	-0.660285	-0.151733	-0.027829
H221	H	-0.620962	-0.105614	-0.028109
H222	H	-0.494142	-0.000085	-0.073779
N223	N	-0.704925	-0.000090	-0.584808
H224	H	-0.697867	-0.000086	-0.619645
H225	H	-0.724277	0.030660	-0.578649
H226	H	-0.445242	-0.000041	-0.542297
H227	H	0.180248	-0.000097	-0.020713
N228	N	-0.639383	-0.764318	-0.006867
H229	H	-0.673652	-0.773380	-0.001540
H230	H	-0.634031	-0.773427	-0.041121
N231	N	-0.066008	-0.000100	-0.074019
H232	H	-0.046235	-0.000104	-0.102178
H233	H	-0.087196	0.030655	-0.075730
H234	H	-0.023501	-0.000077	0.185672
