data_functionalizedCrystal
_audit_creation_method	'MofGen! by Chris Wilmer'
_symmetry_space_group_name_H-M	'P1'
_symmetry_Int_Tables_number	1
_symmetry_cell_setting	triclinic
loop_
_symmetry_equiv_pos_as_xyz
  x,y,z
_cell_length_a	13.262390
_cell_length_b	15.538191
_cell_length_c	11.804917
_cell_angle_alpha	97.088839
_cell_angle_beta	93.592271
_cell_angle_gamma	66.622425
loop_
_atom_site_label
_atom_site_type_symbol
_atom_site_fract_x
_atom_site_fract_y
_atom_site_fract_z
O1	O	1.204166	0.220034	0.488983
O2	O	0.919750	0.216227	0.396874
O3	O	1.117321	0.084662	0.460863
O4	O	1.006596	0.351599	0.424993
O5	O	1.169288	0.050068	0.279657
O6	O	0.971717	0.181633	0.215667
O7	O	1.256134	0.185441	0.307776
Cu8	Cu	1.118671	0.180378	0.245176
Cu9	Cu	1.057213	0.221290	0.459474
O10	O	1.058563	0.317006	0.243787
C11	C	0.910222	0.195963	0.294770
C12	C	0.804412	0.187110	0.260504
C13	C	0.392850	0.237575	0.559034
C14	C	0.492265	0.245888	0.591231
C15	C	0.570306	0.231195	0.508552
C16	C	0.548923	0.208186	0.393670
C17	C	0.449502	0.199864	0.361471
C18	C	0.626958	0.193484	0.310989
C19	C	0.605575	0.170475	0.196107
C20	C	0.506162	0.162155	0.163913
C21	C	0.428121	0.176849	0.246593
C22	C	0.726380	0.201806	0.343188
C23	C	0.783032	0.164095	0.145625
C24	C	0.683616	0.155782	0.113428
C25	C	1.154888	0.033036	0.374015
C26	C	1.189394	-0.069254	0.385202
C27	C	0.846571	-0.379712	0.274152
C28	C	0.879022	-0.475833	0.284659
C29	C	1.061544	-0.486210	0.343770
C30	C	1.029107	-0.390087	0.333273
C31	C	0.921620	-0.336845	0.298463
C32	C	1.104156	-0.347220	0.357584
C33	C	1.071723	-0.251107	0.347083
C34	C	0.964242	-0.197859	0.312271
C35	C	0.889187	-0.240732	0.287962
C36	C	1.211645	-0.400465	0.392387
C37	C	1.286694	-0.357599	0.416697
C38	C	1.254259	-0.261482	0.406204
C39	C	1.146778	-0.208234	0.371392
C40	C	1.329314	-0.218610	0.430513
C41	C	1.296881	-0.122496	0.420012
C42	C	1.114345	-0.112121	0.360891
C43	C	1.265661	0.205705	0.409882
C44	C	1.371469	0.214559	0.444156
C45	C	1.020995	0.368632	0.330637
C46	C	0.986488	0.470924	0.319458
N47	N	1.161904	0.151604	0.094453
C48	C	0.910136	0.319179	-0.361127
C49	C	0.877404	0.340957	-0.247078
C50	C	0.948526	0.293621	-0.161690
C51	C	1.052386	0.224502	-0.190361
C52	C	1.085118	0.202717	-0.304422
C53	C	1.123508	0.177159	-0.104986
C54	C	1.227368	0.108040	-0.133657
C55	C	1.260095	0.086259	-0.247708
C56	C	1.188972	0.133595	-0.333096
C57	C	1.090776	0.198944	0.009076
C58	C	1.265758	0.082482	0.065780
C59	C	1.298491	0.060704	-0.048269
N60	N	1.013990	0.250058	0.610200
H61	H	0.743778	0.220542	0.436726
Cl62	Cl	1.391234	-0.068606	0.450554
H63	H	0.852234	0.357710	-0.430656
Cl64	Cl	0.711438	-0.312770	0.230401
H65	H	1.238046	-0.478725	0.400946
Cl66	Cl	1.196669	-0.553152	0.387521
Cl67	Cl	0.746845	0.427844	-0.211034
H68	H	0.488766	0.143403	0.070372
H69	H	1.374212	-0.400962	0.445036
H70	H	0.347165	0.170084	0.220383
Cl71	Cl	0.881138	0.145614	0.041680
Cl72	Cl	1.230126	0.106220	-0.476477
H73	H	1.006213	0.255220	0.032409
Cl74	Cl	1.390653	-0.000644	-0.283757
H75	H	0.921871	0.311356	-0.068827
H76	H	1.383056	0.004425	-0.071628
Cl77	Cl	0.519142	0.274809	0.735647
H78	H	0.937838	-0.119599	0.303715
H79	H	1.323672	0.043934	0.135303
H80	H	0.329307	0.249527	0.626340
Cl81	Cl	0.695284	0.241651	0.549031
Cl82	Cl	0.979212	-0.045179	0.317140
H83	H	1.416833	-0.261975	0.458845
Cl84	Cl	0.656721	0.126856	-0.030990
H85	H	0.801658	-0.197377	0.259624
H86	H	0.817904	-0.510734	0.264844
