data_functionalizedCrystal
_audit_creation_method	'MofGen! by Chris Wilmer'
_symmetry_space_group_name_H-M	'P1'
_symmetry_Int_Tables_number	1
_symmetry_cell_setting	triclinic
loop_
_symmetry_equiv_pos_as_xyz
  x,y,z
_cell_length_a	17.699083
_cell_length_b	18.366186
_cell_length_c	19.288865
_cell_angle_alpha	89.988521
_cell_angle_beta	83.209632
_cell_angle_gamma	89.996982
loop_
_atom_site_label
_atom_site_type_symbol
_atom_site_fract_x
_atom_site_fract_y
_atom_site_fract_z
O1	O	1.003957	-0.060456	0.087837
O2	O	1.337291	0.272877	0.421170
O3	O	1.670624	0.606211	0.754504
O4	O	0.783563	-0.060481	0.099265
O5	O	1.116896	0.272852	0.432598
O6	O	1.450229	0.606186	0.765932
O7	O	0.900128	-0.060453	-0.007572
O8	O	1.233462	0.272880	0.325762
O9	O	1.566795	0.606213	0.659095
O10	O	0.887392	-0.060484	0.194674
O11	O	1.220725	0.272850	0.528007
O12	O	1.554058	0.606183	0.861340
O13	O	0.900109	0.060646	-0.007577
O14	O	1.233442	0.393979	0.325756
O15	O	1.566775	0.727313	0.659090
O16	O	0.783543	0.060618	0.099260
O17	O	1.116876	0.393952	0.432593
O18	O	1.450210	0.727285	0.765926
O19	O	1.003937	0.060643	0.087832
O20	O	1.337271	0.393977	0.421165
O21	O	1.670604	0.727310	0.754498
Zn22	Zn	0.893737	0.079858	0.093545
Zn23	Zn	1.227070	0.413191	0.426878
Zn24	Zn	1.560404	0.746525	0.760212
Zn25	Zn	0.893763	-0.079696	0.093552
Zn26	Zn	1.227096	0.253638	0.426885
Zn27	Zn	1.560430	0.586971	0.760218
O28	O	0.887372	0.060616	0.194668
O29	O	1.220705	0.393949	0.528002
O30	O	1.554039	0.727282	0.861335
C31	C	0.755356	0.000066	0.098853
C32	C	1.088690	0.333399	0.432186
C33	C	1.422023	0.666732	0.765519
C34	C	0.671340	0.000057	0.097624
C35	C	1.004673	0.333390	0.430958
C36	C	1.338007	0.666724	0.764291
N37	N	0.893725	0.188749	0.093540
N38	N	1.227058	0.522083	0.426873
N39	N	1.560392	0.855416	0.760206
N40	N	0.893781	-0.188587	0.093551
N41	N	1.227115	0.144747	0.426885
N42	N	1.560448	0.478080	0.760218
C43	C	0.622631	0.000048	0.160335
C44	C	0.955964	0.333381	0.493669
C45	C	1.289298	0.666714	0.827002
C46	C	0.543689	0.000057	0.159177
C47	C	0.877023	0.333391	0.492510
C48	C	1.210356	0.666724	0.825843
C49	C	0.513458	0.000071	0.095307
C50	C	0.846792	0.333404	0.428640
C51	C	1.180125	0.666738	0.761973
C52	C	0.562174	0.000082	0.032591
C53	C	0.895507	0.333416	0.365924
C54	C	1.228840	0.666749	0.699258
C55	C	0.641114	0.000078	0.033750
C56	C	0.974447	0.333411	0.367084
C57	C	1.307780	0.666745	0.700417
C58	C	0.243817	0.000101	0.027915
C59	C	0.577150	0.333434	0.361248
C60	C	0.910484	0.666768	0.694582
C61	C	0.164871	0.000103	0.026761
C62	C	0.498204	0.333436	0.360094
C63	C	0.831537	0.666770	0.693427
C64	C	0.146393	0.000080	0.153342
C65	C	0.479726	0.333414	0.486675
C66	C	0.813059	0.666747	0.820008
C67	C	0.225333	0.000076	0.154501
C68	C	0.558666	0.333409	0.487834
C69	C	0.892000	0.666743	0.821167
C70	C	0.274041	0.000091	0.091785
C71	C	0.607375	0.333425	0.425119
C72	C	0.940708	0.666758	0.758452
C73	C	0.359639	0.000082	0.093042
C74	C	0.692972	0.333415	0.426376
C75	C	1.026305	0.666749	0.759709
C76	C	0.427862	0.000075	0.094049
C77	C	0.761196	0.333408	0.427383
C78	C	1.094529	0.666741	0.760716
C79	C	1.032144	0.000095	0.088244
C80	C	1.365477	0.333428	0.421577
C81	C	1.698810	0.666762	0.754911
C82	C	1.116160	0.000099	0.089472
C83	C	1.449493	0.333432	0.422806
C84	C	1.782827	0.666766	0.756139
C85	C	0.899709	0.000098	-0.033451
C86	C	1.233042	0.333432	0.299882
C87	C	1.566375	0.666765	0.633215
C88	C	0.898478	0.000105	-0.110556
C89	C	1.231812	0.333438	0.222777
C90	C	1.565145	0.666771	0.556110
C91	C	0.945357	0.226862	0.046256
C92	C	1.278690	0.560195	0.379589
C93	C	1.612024	0.893528	0.712922
C94	C	0.945362	0.303090	0.046253
C95	C	1.278695	0.636423	0.379586
C96	C	1.612028	0.969756	0.712919
C97	C	0.893742	0.341202	0.093545
C98	C	1.227075	0.674535	0.426879
C99	C	1.560408	1.007869	0.760212
C100	C	0.842100	0.303080	0.140833
C101	C	1.175433	0.636413	0.474166
C102	C	1.508767	0.969747	0.807500
C103	C	0.842092	0.226854	0.140830
C104	C	1.175425	0.560187	0.474164
C105	C	1.508758	0.893520	0.807497
C106	C	0.883610	0.461952	0.156821
C107	C	1.216943	0.795285	0.490155
C108	C	1.550277	1.128619	0.823488
C109	C	0.883624	0.538177	0.156825
C110	C	1.216957	0.871510	0.490158
C111	C	1.550290	1.204844	0.823492
C112	C	0.893763	0.576309	0.093554
C113	C	1.227096	0.909643	0.426888
C114	C	1.560430	1.242976	0.760221
C115	C	0.903905	0.538207	0.030277
C116	C	1.237239	0.871541	0.363610
C117	C	1.570572	1.204874	0.696943
C118	C	0.903897	0.461981	0.030274
C119	C	1.237230	0.795314	0.363607
C120	C	1.570564	1.128648	0.696941
C121	C	0.893745	0.423857	0.093554
C122	C	1.227078	0.757190	0.426887
C123	C	1.560411	1.090523	0.760220
C124	C	0.945403	0.697077	0.046263
C125	C	1.278737	1.030410	0.379596
C126	C	1.612070	1.363744	0.712929
C127	C	0.945403	0.773306	0.046259
C128	C	1.278736	1.106640	0.379592
C129	C	1.612069	1.439973	0.712925
C130	C	0.842145	0.773295	0.140845
C131	C	1.175478	1.106629	0.474179
C132	C	1.508811	1.439962	0.807512
C133	C	0.842141	0.697067	0.140843
C134	C	1.175475	1.030401	0.474177
C135	C	1.508808	1.363734	0.807510
C136	C	0.893775	0.658963	0.093553
C137	C	1.227108	0.992296	0.426886
C138	C	1.560441	1.325630	0.760220
C139	C	0.966874	0.000116	-0.155172
C140	C	1.300207	0.333449	0.178162
C141	C	1.633540	0.666783	0.511495
C142	C	0.965718	0.000104	-0.227620
C143	C	1.299051	0.333438	0.105713
C144	C	1.632385	0.666771	0.439046
C145	C	0.896163	0.000096	-0.255450
C146	C	1.229496	0.333429	0.077883
C147	C	1.562830	0.666763	0.411217
C148	C	0.827759	0.000081	-0.210825
C149	C	1.161092	0.333414	0.122508
C150	C	1.494425	0.666747	0.455842
C151	C	0.828916	0.000085	-0.138378
C152	C	1.162250	0.333418	0.194955
C153	C	1.495583	0.666752	0.528289
C154	C	0.841478	0.042508	-0.363804
C155	C	1.174811	0.375842	-0.030471
C156	C	1.508144	0.709175	0.302863
C157	C	0.840323	0.042509	-0.436250
C158	C	1.173656	0.375842	-0.102917
C159	C	1.506989	0.709175	0.230417
C160	C	0.892589	0.000079	-0.478900
C161	C	1.225923	0.333413	-0.145567
C162	C	1.559256	0.666746	0.187767
C163	C	0.946024	-0.042341	-0.449097
C164	C	1.279357	0.290993	-0.115763
C165	C	1.612690	0.624326	0.217570
C166	C	0.947181	-0.042336	-0.376650
C167	C	1.280515	0.290997	-0.043317
C168	C	1.613848	0.624330	0.290017
C169	C	0.894900	0.000091	-0.334006
C170	C	1.228233	0.333424	-0.000672
C171	C	1.561567	0.666758	0.332661
C172	C	0.959736	0.000077	-0.602073
C173	C	1.293070	0.333410	-0.268739
C174	C	1.626403	0.666744	0.064594
C175	C	0.958578	0.000061	-0.674522
C176	C	1.291911	0.333394	-0.341189
C177	C	1.625244	0.666728	-0.007855
C178	C	0.820616	0.000044	-0.657725
C179	C	1.153949	0.333378	-0.324392
C180	C	1.487283	0.666711	0.008941
C181	C	0.821777	0.000053	-0.585277
C182	C	1.155110	0.333387	-0.251944
C183	C	1.488443	0.666720	0.081389
C184	C	0.891339	0.000073	-0.557456
C185	C	1.224672	0.333406	-0.224122
C186	C	1.558006	0.666740	0.109211
C187	C	0.887792	0.000062	0.220548
C188	C	1.221125	0.333396	0.553881
C189	C	1.554458	0.666729	0.887215
C190	C	0.889022	0.000051	0.297653
C191	C	1.222355	0.333385	0.630986
C192	C	1.555688	0.666718	0.964320
H193	H	0.647238	0.000036	0.212346
H194	H	0.980572	0.333369	0.545679
H195	H	1.313905	0.666703	0.879012
Br196	Br	0.477586	0.000042	0.244288
Br197	Br	0.810919	0.333376	0.577622
Br198	Br	1.144253	0.666709	0.910955
H199	H	0.987444	0.666051	0.007754
H200	H	1.320777	0.999384	0.341087
H201	H	1.654111	1.332718	0.674420
Br202	Br	0.869924	0.410209	0.242699
Br203	Br	1.203257	0.743542	0.576032
Br204	Br	1.536590	1.076875	0.909366
Br205	Br	1.015474	0.825035	-0.017923
Br206	Br	1.348807	1.158368	0.315410
Br207	Br	1.682140	1.491702	0.648743
Br208	Br	0.772069	0.645337	0.205020
Br209	Br	1.105402	0.978670	0.538353
Br210	Br	1.438735	1.312004	0.871686
H211	H	0.680773	0.000085	-0.017316
H212	H	1.014106	0.333418	0.316018
H213	H	1.347439	0.666752	0.649351
Br214	Br	0.266357	0.000051	0.241184
Br215	Br	0.599690	0.333384	0.574518
Br216	Br	0.933023	0.666717	0.907851
Br217	Br	0.123844	0.000119	-0.059926
Br218	Br	0.457177	0.333453	0.273407
Br219	Br	0.790510	0.666786	0.606741
H220	H	0.800112	0.804326	0.179350
H221	H	1.133445	1.137659	0.512683
H222	H	1.466778	1.470992	0.846016
H223	H	0.987398	0.195839	0.007747
H224	H	1.320731	0.529173	0.341081
H225	H	1.654065	0.862506	0.674414
H226	H	0.800069	0.334115	0.179339
H227	H	1.133402	0.667448	0.512672
H228	H	1.466735	1.000782	0.846005
H229	H	0.990688	-0.076877	-0.352387
H230	H	1.324021	0.256456	-0.019054
H231	H	1.657354	0.589789	0.314280
Br232	Br	0.767811	0.100082	-0.476690
Br233	Br	1.101144	0.433416	-0.143357
Br234	Br	1.434478	0.766749	0.189976
Br235	Br	0.917676	0.589948	-0.055597
Br236	Br	1.251010	0.923282	0.277736
Br237	Br	1.584343	1.256615	0.611069
Br238	Br	1.016963	-0.099927	-0.506970
Br239	Br	1.350296	0.233407	-0.173637
Br240	Br	1.683630	0.566740	0.159697
Br241	Br	1.015439	0.354823	-0.017925
Br242	Br	1.348772	0.688157	0.315408
Br243	Br	1.682105	1.021490	0.648742
H244	H	0.912153	0.430962	-0.021249
H245	H	1.245486	0.764295	0.312085
H246	H	1.578819	1.097628	0.645418
Br247	Br	0.309912	0.000123	-0.057199
Br248	Br	0.643245	0.333457	0.276134
Br249	Br	0.976578	0.666790	0.609468
H250	H	0.875370	0.569194	0.208349
H251	H	1.208703	0.902527	0.541683
H252	H	1.542037	1.235860	0.875016
Br253	Br	0.736087	0.000068	-0.077824
Br254	Br	1.069420	0.333401	0.255509
Br255	Br	1.402753	0.666734	0.588843
Br256	Br	0.733362	0.000060	-0.248592
Br257	Br	1.066695	0.333393	0.084742
Br258	Br	1.400028	0.666727	0.418075
Br259	Br	1.054139	0.000111	-0.564310
Br260	Br	1.387472	0.333445	-0.230977
Br261	Br	1.720806	0.666778	0.102357
Br262	Br	0.772013	0.175125	0.205006
Br263	Br	1.105347	0.508458	0.538339
Br264	Br	1.438680	0.841791	0.871672
Br265	Br	1.061279	0.000123	-0.117417
Br266	Br	1.394612	0.333456	0.215917
Br267	Br	1.727945	0.666789	0.549250
H268	H	0.106724	0.000072	0.204407
H269	H	0.440058	0.333405	0.537741
H270	H	0.773391	0.666739	0.871074
Br271	Br	0.728949	0.000039	-0.524724
Br272	Br	1.062282	0.333372	-0.191390
Br273	Br	1.395616	0.666705	0.141943
H274	H	0.763983	0.000034	-0.680383
H275	H	1.097316	0.333367	-0.347050
H276	H	1.430650	0.666701	-0.013717
H277	H	1.021416	0.000111	-0.263953
H278	H	1.354749	0.333444	0.069380
H279	H	1.688082	0.666777	0.402714
Br280	Br	0.770538	0.100096	-0.305929
Br281	Br	1.103871	0.433430	0.027405
Br282	Br	1.437205	0.766763	0.360738
Br283	Br	0.521147	0.000108	-0.054091
Br284	Br	0.854480	0.333441	0.279242
Br285	Br	1.187814	0.666775	0.612576
Br286	Br	1.051408	0.000068	-0.735074
Br287	Br	1.384742	0.333402	-0.401741
Br288	Br	1.718075	0.666735	-0.068408
