data_functionalizedCrystal
_audit_creation_method	'MofGen! by Chris Wilmer'
_symmetry_space_group_name_H-M	'P1'
_symmetry_Int_Tables_number	1
_symmetry_cell_setting	triclinic
loop_
_symmetry_equiv_pos_as_xyz
  x,y,z
_cell_length_a	12.645331
_cell_length_b	12.645330
_cell_length_c	12.645323
_cell_angle_alpha	89.975130
_cell_angle_beta	89.977324
_cell_angle_gamma	90.016671
loop_
_atom_site_label
_atom_site_type_symbol
_atom_site_fract_x
_atom_site_fract_y
_atom_site_fract_z
Zn1	Zn	1.620731	-0.422060	-0.599446
Zn2	Zn	1.620613	-0.599348	-0.422186
Zn3	Zn	1.443446	-0.422096	-0.422191
Zn4	Zn	1.443428	-0.599279	-0.599402
O5	O	1.532054	-0.510695	-0.510806
O6	O	1.769063	-0.445591	-0.575949
O7	O	1.597069	-0.575879	-0.273840
O8	O	1.467020	-0.273744	-0.445724
O9	O	1.768976	-0.575844	-0.445717
O10	O	1.597271	-0.273717	-0.575953
O11	O	1.466906	-0.445653	-0.273843
O12	O	1.295096	-0.445585	-0.445681
O13	O	1.466989	-0.575726	-0.747755
O14	O	1.295083	-0.575761	-0.575877
O15	O	1.597253	-0.445524	-0.747788
O16	O	1.597052	-0.747686	-0.445674
O17	O	1.466874	-0.747635	-0.575873
C18	C	1.256625	-0.510670	-0.510776
C19	C	1.138795	-0.510685	-0.510788
C20	C	1.531977	-0.786125	-0.510791
C21	C	1.532041	-0.903955	-0.510821
C22	C	0.971204	-0.428415	-0.429333
C23	C	1.093763	-0.428628	-0.428974
C24	C	1.094274	-0.622359	-0.480273
C25	C	0.971676	-0.621910	-0.479717
C26	C	0.971645	-0.482344	-0.623072
C27	C	1.094251	-0.479849	-0.622448
C28	C	1.450484	-1.071531	-0.592982
C29	C	1.450067	-0.948972	-0.592717
C30	C	1.501796	-0.948549	-0.399099
C31	C	1.501298	-1.071147	-0.399597
C32	C	1.644342	-1.071047	-0.539475
C33	C	1.643654	-0.948440	-0.541918
C34	C	1.808560	-0.510722	-0.510838
C35	C	1.926390	-0.510733	-0.510851
C36	C	1.532132	-0.510614	-0.787312
C37	C	1.532166	-0.510579	-0.905142
C38	C	1.532161	-0.234190	-0.510844
C39	C	1.532206	-0.116360	-0.510861
C40	C	1.449964	-0.592103	-1.072685
C41	C	1.450179	-0.592506	-0.950125
C42	C	1.643865	-0.540899	-0.949662
C43	C	1.643414	-0.541410	-1.072260
C44	C	1.503724	-0.398278	-1.072340
C45	C	1.501232	-0.398951	-0.949733
C46	C	1.532038	-0.510701	-0.235377
C47	C	1.532210	-0.510437	-0.117547
H48	H	1.123864	-0.345817	-0.448100
N49	N	1.727350	-0.466061	-1.111581
H50	H	1.798842	-0.489459	-1.084769
H51	H	1.727618	-0.465841	-1.191448
N52	N	1.394338	-0.908021	-0.366412
H53	H	1.375580	-0.937157	-0.294427
H54	H	1.395862	-0.828228	-0.363331
N55	N	0.933266	-0.561741	-0.703549
H56	H	0.958031	-0.634798	-0.682846
H57	H	0.853454	-0.560438	-0.706197
N58	N	1.680907	-1.111927	-0.645537
H59	H	1.753000	-1.081883	-0.662332
H60	H	1.685109	-1.191651	-0.643230
H61	H	1.668424	-0.622030	-0.918973
N62	N	1.475124	-0.909019	-0.702447
H63	H	1.486541	-0.971048	-0.751426
H64	H	1.414230	-0.864809	-0.729176
H65	H	1.124909	-0.535432	-0.686433
N66	N	1.475304	-1.110493	-0.703078
H67	H	1.539762	-1.157584	-0.700795
H68	H	1.413066	-1.151851	-0.731255
N69	N	1.727208	-0.464593	-0.911076
H70	H	1.730014	-0.466347	-0.831274
H71	H	1.798320	-0.485633	-0.940734
H72	H	1.423691	-0.370640	-1.103244
H73	H	1.563628	-0.337434	-1.101353
N74	N	1.673889	-0.909803	-0.650815
H75	H	1.745744	-0.938664	-0.670376
H76	H	1.619744	-0.934889	-0.703875
H77	H	1.419031	-0.376085	-0.920634
N78	N	0.929961	-0.452692	-0.319903
H79	H	0.882418	-0.516814	-0.322895
H80	H	0.991290	-0.467273	-0.270886
H81	H	0.942031	-0.685319	-0.536502
N82	N	1.392715	-1.109150	-0.367496
H83	H	1.361315	-1.152970	-0.426406
H84	H	1.398534	-1.153630	-0.301399
H85	H	1.367871	-1.102431	-0.574266
N86	N	1.475098	-0.702649	-0.911312
H87	H	1.546925	-0.724795	-0.938329
H88	H	1.475273	-0.703319	-0.831446
H89	H	1.123041	-0.447391	-0.345814
H90	H	1.366935	-0.919736	-0.573760
N91	N	1.576712	-1.110444	-0.315786
H92	H	1.610129	-1.048123	-0.278677
H93	H	1.536722	-1.154797	-0.262708
N94	N	1.578133	-0.909935	-0.315827
H95	H	1.633188	-0.863049	-0.349805
H96	H	1.538277	-0.868445	-0.260439
N97	N	1.574780	-0.314085	-0.909180
H98	H	1.629442	-0.346943	-0.861116
H99	H	1.611280	-0.278791	-0.970868
H100	H	1.707747	-0.917790	-0.486462
N101	N	1.132895	-0.705756	-0.556478
H102	H	1.212697	-0.708562	-0.554761
H103	H	1.103236	-0.776854	-0.535327
N104	N	0.932166	-0.318390	-0.454375
H105	H	0.885050	-0.320833	-0.518804
H106	H	0.890816	-0.290099	-0.392177
H107	H	1.667560	-0.623400	-1.100871
H108	H	0.943030	-0.645984	-0.397678
H109	H	1.124930	-0.646847	-0.399115
H110	H	1.123355	-0.397670	-0.645458
N111	N	0.930720	-0.376365	-0.659843
H112	H	0.882421	-0.345681	-0.604121
H113	H	0.992224	-0.326865	-0.672043
N114	N	1.724997	-1.109438	-0.460252
H115	H	1.689134	-1.155954	-0.406085
H116	H	1.781562	-1.151263	-0.498054
H117	H	1.367350	-0.573532	-0.920023
H118	H	1.366889	-0.573311	-1.102159
H119	H	1.468585	-0.674731	-1.103504
