data_functionalizedCrystal
_audit_creation_method	'MofGen! by Chris Wilmer'
_symmetry_space_group_name_H-M	'P1'
_symmetry_Int_Tables_number	1
_symmetry_cell_setting	triclinic
loop_
_symmetry_equiv_pos_as_xyz
  x,y,z
_cell_length_a	20.299480
_cell_length_b	20.298645
_cell_length_c	20.294903
_cell_angle_alpha	60.007695
_cell_angle_beta	60.015306
_cell_angle_gamma	59.991039
loop_
_atom_site_label
_atom_site_type_symbol
_atom_site_fract_x
_atom_site_fract_y
_atom_site_fract_z
O1	O	0.091305	-0.962534	0.804873
O2	O	0.034397	-0.749399	0.648508
O3	O	0.169355	-0.884263	0.648401
O4	O	-0.043654	-0.827670	0.804979
O5	O	0.214132	-0.839502	0.693072
O6	O	0.079173	-0.704639	0.693178
O7	O	0.136081	-0.917774	0.849544
Zn8	Zn	0.114736	-0.804099	0.778453
Zn9	Zn	0.055742	-0.863073	0.719598
O10	O	0.001122	-0.782910	0.849650
N11	N	0.155000	-0.763857	0.818624
N12	N	0.015485	-0.903322	0.679427
C13	C	0.179343	-0.615641	0.842971
C14	C	0.179443	-0.739552	0.966834
C15	C	0.303264	-0.739536	0.842917
C16	C	0.179356	-0.739528	0.842952
C17	C	0.210353	-0.708565	0.873918
C18	C	-0.132622	-0.927446	0.654695
C19	C	-0.008595	-0.927622	0.530981
C20	C	-0.008820	-1.051459	0.654914
C21	C	-0.008800	-0.927618	0.654995
C22	C	-0.039709	-0.958538	0.623897
N23	N	0.376268	-0.763873	0.818558
O24	O	0.652281	-0.777347	0.619856
O25	O	0.652556	-0.934198	0.832777
O26	O	0.652445	-0.933836	0.697731
O27	O	0.652392	-0.777709	0.754902
O28	O	0.518259	-0.889182	0.742556
O29	O	0.518369	-0.889544	0.877602
O30	O	0.518095	-0.732693	0.664680
Zn31	Zn	0.496927	-0.804029	0.778258
Zn32	Zn	0.673724	-0.862862	0.719200
O33	O	0.518205	-0.733055	0.799726
N34	N	0.794383	-0.903019	0.678891
N35	N	0.154981	-0.542636	0.818657
O36	O	-0.043628	-0.266455	0.805024
O37	O	0.169291	-0.266451	0.648191
O38	O	0.034217	-0.266468	0.648577
O39	O	0.091446	-0.266438	0.804638
O40	O	0.078998	-0.400670	0.693303
O41	O	0.214071	-0.400653	0.692918
O42	O	0.001152	-0.400657	0.849750
Zn43	Zn	0.114722	-0.421963	0.778435
Zn44	Zn	0.055722	-0.245145	0.719506
O45	O	0.136226	-0.400640	0.849364
N46	N	0.015453	-0.124472	0.679286
N47	N	0.155155	-0.763898	1.039838
O48	O	0.141555	-0.962488	1.315987
O49	O	-0.015254	-0.749480	1.316022
O50	O	-0.014890	-0.884527	1.315962
O51	O	0.141192	-0.827441	1.316047
O52	O	0.029815	-0.839777	1.181768
O53	O	0.029452	-0.704730	1.181828
O54	O	0.186261	-0.917739	1.181793
Zn55	Zn	0.114954	-0.804130	1.160504
Zn56	Zn	0.056053	-0.863089	1.337311
O57	O	0.185897	-0.782692	1.181853
N58	N	0.015850	-0.903330	1.457977
C59	C	0.051451	-0.700162	0.649301
C60	C	0.218580	-0.867175	0.649169
C61	C	0.119026	-0.967011	0.848750
C62	C	-0.048103	-0.799998	0.848882
C63	C	0.585495	-0.933471	0.882014
C64	C	0.585361	-0.933023	0.714775
C65	C	0.585151	-0.733419	0.615444
C66	C	0.585291	-0.733869	0.782682
C67	C	0.218449	-0.333386	0.648902
C68	C	0.051232	-0.333573	0.649435
C69	C	-0.048061	-0.333556	0.848984
C70	C	0.119212	-0.333537	0.848507
C71	C	-0.014496	-0.700269	1.248929
C72	C	-0.014037	-0.867500	1.248828
C73	C	0.185503	-0.966949	1.248886
C74	C	0.185054	-0.799709	1.248957
H75	H	0.279759	-0.879241	0.599998
C76	C	-0.130666	-0.333554	0.915504
C77	C	-0.146755	-0.333543	0.998128
C78	C	-0.229360	-0.333542	1.064648
C79	C	-0.295876	-0.333551	1.048543
C80	C	-0.279789	-0.333563	0.965916
C81	C	-0.197184	-0.333564	0.899396
H82	H	-0.097515	-0.333536	1.010053
H83	H	-0.241269	-0.333533	1.125815
H84	H	-0.357025	-0.333550	1.097785
H85	H	-0.329029	-0.333570	0.953991
H86	H	-0.185275	-0.333572	0.838229
C87	C	-0.130752	-0.783710	0.915310
C88	C	-0.182775	-0.836078	0.950066
C89	C	-0.265424	-0.819790	1.016494
C90	C	-0.296050	-0.751134	1.048167
C91	C	-0.244027	-0.698762	1.013411
C92	C	-0.161378	-0.715050	0.946983
H93	H	-0.160104	-0.886905	0.926620
H94	H	-0.303934	-0.858559	1.042222
H95	H	-0.357232	-0.739076	1.097341
H96	H	-0.266697	-0.647934	1.036857
H97	H	-0.122867	-0.676280	0.921255
C98	C	0.585596	-0.999998	0.964624
C99	C	0.585636	-0.983875	1.031122
C100	C	0.585737	-1.050401	1.113732
C101	C	0.585799	-1.133051	1.129843
C102	C	0.585759	-1.149178	1.063343
C103	C	0.585658	-1.082651	0.980733
H104	H	0.585590	-0.922689	1.019197
H105	H	0.585766	-1.038463	1.162960
H106	H	0.585873	-1.182298	1.190996
H107	H	0.585805	-1.210363	1.075268
H108	H	0.585629	-1.094589	0.931506
H109	H	0.234089	-0.787495	1.248972
C110	C	0.034685	-0.333583	0.583197
C111	C	0.100893	-0.333586	0.500429
C112	C	0.084346	-0.333596	0.434191
C113	C	0.001592	-0.333603	0.450721
C114	C	-0.064621	-0.333601	0.533493
C115	C	-0.048074	-0.333590	0.599731
H116	H	0.162157	-0.333580	0.488189
H117	H	0.133362	-0.333598	0.372918
H118	H	-0.010657	-0.333611	0.401688
H119	H	-0.125885	-0.333606	0.545733
H120	H	-0.097090	-0.333588	0.661004
C121	C	0.585388	-0.999286	0.698253
C122	C	0.585308	-0.982763	0.615512
C123	C	0.585335	-1.049026	0.598989
C124	C	0.585441	-1.131812	0.665208
C125	C	0.585521	-1.148338	0.747955
C126	C	0.585494	-1.082075	0.764477
H127	H	0.585230	-0.921477	0.566488
H128	H	0.585277	-1.036792	0.537734
H129	H	0.585461	-1.180864	0.652977
H130	H	0.585599	-1.209624	0.796979
H131	H	0.585552	-1.094309	0.825732
C132	C	0.135441	-1.049720	0.915099
C133	C	0.218151	-1.116076	0.898719
C134	C	0.234566	-1.198785	0.965068
C135	C	0.168271	-1.215139	1.047796
C136	C	0.085554	-1.148782	1.064179
C137	C	0.069140	-1.066072	0.997830
H138	H	0.267232	-1.103971	0.837476
H139	H	0.295798	-1.247907	0.952939
H140	H	0.180422	-1.276366	1.096911
H141	H	0.036473	-1.160886	1.125422
H142	H	0.007907	-1.016950	1.009959
C143	C	0.135760	-0.333530	0.914746
C144	C	0.083541	-0.263840	0.949468
C145	C	0.100088	-0.263834	1.015707
C146	C	0.168855	-0.333517	1.047224
C147	C	0.221079	-0.403212	1.012502
C148	C	0.204531	-0.403219	0.946264
H149	H	0.032631	-0.212252	0.926137
H150	H	0.061429	-0.212240	1.041410
H151	H	0.181105	-0.333512	1.096258
H152	H	0.271988	-0.454800	1.035833
H153	H	0.243191	-0.454812	0.920560
H154	H	0.039295	-0.638935	0.600193
C155	C	0.585037	-0.666888	0.532839
C156	C	0.584991	-0.683008	0.466343
C157	C	0.584877	-0.616477	0.383738
C158	C	0.584809	-0.533825	0.367628
C159	C	0.584855	-0.517701	0.434127
C160	C	0.584969	-0.584232	0.516732
H161	H	0.585041	-0.744196	0.478266
H162	H	0.584843	-0.628414	0.334511
H163	H	0.584724	-0.484575	0.306479
H164	H	0.584804	-0.456514	0.422203
H165	H	0.585003	-0.572295	0.565958
C166	C	-0.081008	-0.617626	1.248942
C167	C	-0.064891	-0.551138	1.248978
C168	C	-0.131404	-0.468495	1.248990
C169	C	-0.214032	-0.452340	1.248966
C170	C	-0.230152	-0.518830	1.248930
C171	C	-0.163640	-0.601473	1.248918
H172	H	-0.003722	-0.563095	1.248995
H173	H	-0.119470	-0.419275	1.249017
H174	H	-0.263268	-0.391163	1.248976
H175	H	-0.291322	-0.506873	1.248913
H176	H	-0.175574	-0.650694	1.248891
H177	H	0.585279	-0.684826	0.794916
C178	C	0.300882	-0.332876	0.582213
C179	C	0.367311	-0.332610	0.598233
C180	C	0.449744	-0.332100	0.531543
C181	C	0.465747	-0.331855	0.448834
C182	C	0.399316	-0.332121	0.432811
C183	C	0.316883	-0.332631	0.499500
H184	H	0.355466	-0.332792	0.659462
H185	H	0.498921	-0.331903	0.543405
H186	H	0.526769	-0.331478	0.399467
H187	H	0.411161	-0.331940	0.371582
H188	H	0.267706	-0.332828	0.487638
H189	H	-0.063051	-0.879692	1.248749
H190	H	0.234736	-1.028122	1.248866
