data_functionalizedCrystal
_audit_creation_method	'MofGen! by Chris Wilmer'
_symmetry_space_group_name_H-M	'P1'
_symmetry_Int_Tables_number	1
_symmetry_cell_setting	triclinic
loop_
_symmetry_equiv_pos_as_xyz
  x,y,z
_cell_length_a	23.532407
_cell_length_b	23.532361
_cell_length_c	16.176319
_cell_angle_alpha	90.003144
_cell_angle_beta	89.988536
_cell_angle_gamma	97.160827
loop_
_atom_site_label
_atom_site_type_symbol
_atom_site_fract_x
_atom_site_fract_y
_atom_site_fract_z
O1	O	0.069010	-0.755279	-0.068672
O2	O	0.569010	-0.255279	0.431328
O3	O	0.079041	-0.589412	-0.068693
O4	O	0.579041	-0.089412	0.431307
O5	O	-0.008907	-0.677347	-0.068667
O6	O	0.491093	-0.177347	0.431333
O7	O	0.156958	-0.667344	-0.068698
O8	O	0.656958	-0.167344	0.431302
O9	O	-0.008913	-0.677335	0.068826
O10	O	0.491087	-0.177335	0.568826
O11	O	0.079035	-0.589400	0.068800
O12	O	0.579035	-0.089400	0.568800
O13	O	0.069004	-0.755267	0.068821
O14	O	0.569004	-0.255267	0.568821
Cu15	Cu	0.074019	-0.672332	0.081365
Cu16	Cu	0.574019	-0.172332	0.581365
Cu17	Cu	0.074026	-0.672346	-0.081237
Cu18	Cu	0.574026	-0.172346	0.418763
O19	O	0.156952	-0.667332	0.068795
O20	O	0.656952	-0.167332	0.568795
C21	C	-0.030126	-0.677086	0.000082
C22	C	0.469874	-0.177086	0.500082
C23	C	-0.093343	-0.676320	0.000088
C24	C	0.406657	-0.176320	0.500088
C25	C	0.078787	-0.568189	0.000051
C26	C	0.578787	-0.068189	0.500051
C27	C	0.078032	-0.504971	0.000044
C28	C	0.578032	-0.004971	0.500044
C29	C	0.069258	-0.776489	0.000075
C30	C	0.569258	-0.276489	0.500075
C31	C	0.070014	-0.839708	0.000077
C32	C	0.570014	-0.339708	0.500077
C33	C	-0.492454	-0.723555	0.000049
C34	C	0.007546	-0.223555	0.500049
C35	C	-0.551854	-0.722844	0.000043
C36	C	-0.051854	-0.222844	0.500043
O37	O	-0.588606	-0.766630	0.000018
O38	O	-0.088606	-0.266630	0.500018
N39	N	-0.574471	-0.670566	0.000037
N40	N	-0.074471	-0.170566	0.500037
C41	C	-0.537685	-0.618997	0.000028
C42	C	-0.037685	-0.118997	0.500028
O43	O	-0.562377	-0.574465	0.000022
O44	O	-0.062377	-0.074465	0.500022
C45	C	-0.478286	-0.619709	0.000029
C46	C	0.021714	-0.119709	0.500029
C47	C	-0.455672	-0.671990	0.000043
C48	C	0.044328	-0.171990	0.500043
C49	C	-0.469839	-0.775832	0.000062
C50	C	0.030161	-0.275832	0.500062
C51	C	-0.410443	-0.776543	0.000070
C52	C	0.089557	-0.276543	0.500070
C53	C	-0.373662	-0.724977	0.000065
C54	C	0.126338	-0.224977	0.500065
C55	C	-0.396276	-0.672701	0.000051
C56	C	0.103724	-0.172701	0.500051
C57	C	-0.441501	-0.568140	0.000015
C58	C	0.058499	-0.068140	0.500015
C59	C	-0.382099	-0.568857	0.000015
C60	C	0.117901	-0.068857	0.500015
C61	C	-0.359485	-0.621137	0.000029
C62	C	0.140515	-0.121137	0.500029
C63	C	-0.300099	-0.621847	0.000054
C64	C	0.199901	-0.121847	0.500054
N65	N	-0.277481	-0.674124	0.000060
N66	N	0.222519	-0.174124	0.500060
C67	C	-0.314263	-0.725690	0.000065
C68	C	0.185737	-0.225690	0.500065
C69	C	-0.662427	-0.617505	0.000026
C70	C	-0.162427	-0.117505	0.500026
C71	C	-0.721825	-0.616793	0.000032
C72	C	-0.221825	-0.116793	0.500032
C73	C	-0.735990	-0.720640	0.000044
C74	C	-0.235990	-0.220640	0.500044
C75	C	-0.676591	-0.721352	0.000045
C76	C	-0.176591	-0.221352	0.500045
C77	C	-0.639810	-0.669783	0.000032
C78	C	-0.139810	-0.169783	0.500032
C79	C	-0.189526	-0.727179	0.000082
C80	C	0.310474	-0.227179	0.500082
C81	C	-0.130124	-0.727886	0.000094
C82	C	0.369876	-0.227886	0.500094
C83	C	-0.115965	-0.624039	0.000077
C84	C	0.384035	-0.124039	0.500077
C85	C	-0.175361	-0.623332	0.000070
C86	C	0.324639	-0.123332	0.500070
C87	C	-0.212141	-0.674907	0.000070
C88	C	0.287859	-0.174907	0.500070
O89	O	-0.263312	-0.578083	0.000075
O90	O	0.236688	-0.078083	0.500075
O91	O	-0.289562	-0.770214	0.000061
O92	O	0.210438	-0.270214	0.500061
C93	C	0.178171	-0.667592	0.000044
C94	C	0.678171	-0.167592	0.500044
C95	C	0.241388	-0.668358	0.000033
C96	C	0.741388	-0.168358	0.500033
C97	C	0.074731	-0.231734	-0.074898
C98	C	0.574731	0.268266	0.425102
C99	C	0.075446	-0.291133	-0.074900
C100	C	0.575446	0.208867	0.425100
O101	O	0.075799	-0.321865	-0.138639
O102	O	0.575799	0.178135	0.361361
N103	N	0.075804	-0.320832	0.000047
N104	N	0.575804	0.179168	0.500047
C105	C	0.075442	-0.291130	0.075002
C106	C	0.575442	0.208870	0.575002
O107	O	0.075811	-0.321845	0.138751
O108	O	0.575811	0.178155	0.638751
C109	C	0.074723	-0.231731	0.075004
C110	C	0.574723	0.268269	0.575004
C111	C	0.074370	-0.202035	0.000051
C112	C	0.574370	0.297965	0.500051
C113	C	0.074378	-0.202037	-0.149845
C114	C	0.574378	0.297963	0.350155
C115	C	0.073664	-0.142641	-0.149842
C116	C	0.573664	0.357359	0.350158
C117	C	0.073304	-0.112942	-0.074893
C118	C	0.573304	0.387058	0.425107
C119	C	0.073657	-0.142639	0.000053
C120	C	0.573657	0.357361	0.500053
C121	C	0.074356	-0.202030	0.149958
C122	C	0.574356	0.297970	0.649958
C123	C	0.073636	-0.142628	0.149952
C124	C	0.573636	0.357372	0.649952
C125	C	0.073284	-0.112931	0.075000
C126	C	0.573284	0.387069	0.575000
C127	C	0.072582	-0.053544	0.075005
C128	C	0.572582	0.446456	0.575005
N129	N	0.072224	-0.023845	0.000057
N130	N	0.572224	0.476155	0.500057
C131	C	0.072585	-0.053544	-0.074892
C132	C	0.572585	0.446456	0.425108
C133	C	0.076951	-0.415870	0.074994
C134	C	0.576951	0.084130	0.574994
C135	C	0.077674	-0.475266	0.074993
C136	C	0.577674	0.024734	0.574993
C137	C	0.077677	-0.475266	-0.074910
C138	C	0.577677	0.024734	0.425090
C139	C	0.076958	-0.415868	-0.074908
C140	C	0.576958	0.084132	0.425092
C141	C	0.076593	-0.386171	0.000046
C142	C	0.576593	0.113829	0.500046
C143	C	0.071086	0.071192	-0.074881
C144	C	0.571086	0.571192	0.425119
C145	C	0.070375	0.130593	-0.074872
C146	C	0.570375	0.630593	0.425128
C147	C	0.070368	0.130587	0.075031
C148	C	0.570368	0.630587	0.575031
C149	C	0.071083	0.071192	0.075022
C150	C	0.571083	0.571192	0.575022
C151	C	0.071440	0.041495	0.000059
C152	C	0.571440	0.541495	0.500059
O153	O	0.072226	-0.022775	0.138711
O154	O	0.572226	0.477225	0.638711
O155	O	0.072207	-0.022822	-0.138630
O156	O	0.572207	0.477178	0.361370
N157	N	0.074014	-0.672326	0.195730
N158	N	0.574014	-0.172326	0.695730
N159	N	0.074026	-0.672357	-0.195602
N160	N	0.574026	-0.172357	0.304398
C161	C	0.035087	-0.711276	0.239006
C162	C	0.535087	-0.211276	0.739006
C163	C	0.035086	-0.711279	0.325553
C164	C	0.535086	-0.211279	0.825553
C165	C	0.074016	-0.672334	0.368823
C166	C	0.574016	-0.172334	0.868823
C167	C	0.112946	-0.633381	0.325541
C168	C	0.612946	-0.133381	0.825541
C169	C	0.112943	-0.633376	0.238995
C170	C	0.612943	-0.133376	0.738995
C171	C	0.112956	-0.633400	0.674569
C172	C	0.612956	-0.133400	1.174569
C173	C	0.112957	-0.633410	0.761121
C174	C	0.612957	-0.133410	1.261121
C175	C	0.035099	-0.711303	0.761127
C176	C	0.535099	-0.211303	1.261127
C177	C	0.035097	-0.711298	0.674581
C178	C	0.535097	-0.211298	1.174581
C179	C	0.074024	-0.672343	0.631307
C180	C	0.574024	-0.172343	1.131307
C181	C	0.074023	-0.672340	0.537463
C182	C	0.574023	-0.172340	1.037463
C183	C	0.074020	-0.672340	0.462665
C184	C	0.574020	-0.172340	0.962665
H185	H	-0.219466	-0.769176	0.000079
H186	H	0.280534	-0.269176	0.500079
O187	O	0.074832	-0.230841	-0.222678
O188	O	0.574832	0.269159	0.277322
C189	C	0.124395	-0.242231	-0.350831
C190	C	0.624395	0.257769	0.149169
C191	C	0.123952	-0.209582	-0.268362
C192	C	0.623952	0.290418	0.231638
H193	H	0.164098	-0.225047	-0.387797
H194	H	0.664098	0.274953	0.112203
H195	H	0.125008	-0.289789	-0.338024
H196	H	0.625008	0.210211	0.161976
H197	H	0.084377	-0.236001	-0.387749
H198	H	0.584377	0.263999	0.112251
H199	H	0.163963	-0.215765	-0.231402
H200	H	0.663963	0.284235	0.268598
H201	H	0.123309	-0.162035	-0.281227
H202	H	0.623309	0.337965	0.218773
H203	H	-0.459902	-0.525567	-0.000002
H204	H	0.040098	-0.025567	0.499998
H205	H	0.071377	0.047020	-0.135923
H206	H	0.571377	0.547020	0.364077
H207	H	0.003388	-0.742994	0.360788
H208	H	0.503388	-0.242994	0.860788
H209	H	-0.111716	-0.770461	0.000108
H210	H	0.388284	-0.270461	0.500108
H211	H	-0.499782	-0.817825	0.000064
H212	H	0.000218	-0.317825	0.500064
O213	O	0.070041	0.159358	0.147907
O214	O	0.570041	0.659358	0.647907
C215	C	0.070062	0.153099	0.296591
C216	C	0.570062	0.653099	0.796591
C217	C	0.070453	0.120447	0.214119
C218	C	0.570453	0.620447	0.714119
H219	H	0.070383	0.121652	0.350144
H220	H	0.570383	0.621652	0.850144
H221	H	0.109596	0.186337	0.300391
H222	H	0.609596	0.686337	0.800391
H223	H	0.029872	0.175481	0.300288
H224	H	0.529872	0.675481	0.800288
H225	H	0.110617	0.098030	0.210366
H226	H	0.610617	0.598030	0.710366
H227	H	0.030892	0.087241	0.210353
H228	H	0.530892	0.587241	0.710353
H229	H	0.003401	-0.743021	0.796370
H230	H	0.503401	-0.243021	1.296370
O231	O	-0.002826	-0.749008	0.632527
O232	O	0.497174	-0.249008	1.132527
C233	C	-0.080835	-0.761412	0.535099
C234	C	0.419165	-0.261412	1.035099
C235	C	-0.037853	-0.718672	0.582612
C236	C	0.462147	-0.218672	1.082612
H237	H	-0.109173	-0.736902	0.494744
H238	H	0.390827	-0.236902	0.994744
H239	H	-0.056553	-0.789781	0.494440
H240	H	0.443447	-0.289781	0.994440
H241	H	-0.108626	-0.789199	0.580991
H242	H	0.391374	-0.289199	1.080991
H243	H	-0.010051	-0.690847	0.536779
H244	H	0.489949	-0.190847	1.036779
H245	H	-0.062171	-0.690342	0.623283
H246	H	0.437829	-0.190342	1.123283
H247	H	0.144660	-0.601695	0.796349
H248	H	0.644660	-0.101695	1.296349
H249	H	0.077970	-0.499439	0.136027
H250	H	0.577970	0.000561	0.636027
O251	O	-0.002786	-0.749129	0.197106
O252	O	0.497214	-0.249129	0.697106
C253	C	-0.079992	-0.826412	0.206256
C254	C	0.420008	-0.326412	0.706256
C255	C	-0.037139	-0.783567	0.253808
C256	C	0.462861	-0.283567	0.753808
H257	H	-0.107770	-0.854274	0.252079
H258	H	0.392230	-0.354274	0.752079
H259	H	-0.108356	-0.802015	0.165776
H260	H	0.391644	-0.302015	0.665776
H261	H	-0.055542	-0.854695	0.165701
H262	H	0.444458	-0.354695	0.665701
H263	H	-0.061541	-0.755273	0.294408
H264	H	0.438459	-0.255273	0.794408
H265	H	-0.008776	-0.808000	0.294236
H266	H	0.491224	-0.308000	0.794236
H267	H	0.144642	-0.601669	0.360776
H268	H	0.644642	-0.101669	0.860776
H269	H	-0.352154	-0.526862	0.000003
H270	H	0.147846	-0.026862	0.500003
H271	H	0.076660	-0.391693	0.136034
H272	H	0.576660	0.108307	0.636034
O273	O	0.078124	-0.504083	-0.147740
O274	O	0.578124	-0.004083	0.352260
C275	C	0.127668	-0.515513	-0.275896
C276	C	0.627668	-0.015513	0.224104
C277	C	0.127240	-0.482841	-0.193444
C278	C	0.627240	0.017159	0.306556
H279	H	0.167368	-0.498344	-0.312879
H280	H	0.667368	0.001656	0.187121
H281	H	0.128277	-0.563069	-0.263064
H282	H	0.628277	-0.063069	0.236936
H283	H	0.087647	-0.509288	-0.312810
H284	H	0.587647	-0.009288	0.187190
H285	H	0.167254	-0.489020	-0.156488
H286	H	0.667254	0.010980	0.343512
H287	H	0.126601	-0.435298	-0.206334
H288	H	0.626601	0.064702	0.293666
O289	O	0.071532	0.042331	0.147809
O290	O	0.571532	0.542331	0.647809
C291	C	0.121657	-0.018024	0.234780
C292	C	0.621657	0.481976	0.734780
C293	C	0.121234	0.014639	0.152327
C294	C	0.621234	0.514639	0.652327
H295	H	0.161831	-0.040432	0.238453
H296	H	0.661831	0.459568	0.738453
H297	H	0.121316	0.013390	0.288379
H298	H	0.621316	0.513390	0.788379
H299	H	0.082108	-0.051247	0.238527
H300	H	0.582108	0.448753	0.738527
H301	H	0.160776	0.047862	0.148500
H302	H	0.660776	0.547862	0.648500
H303	H	0.121545	-0.016810	0.098768
H304	H	0.621545	0.483190	0.598768
H305	H	0.144653	-0.601683	0.639342
H306	H	0.644653	-0.101683	1.139342
H307	H	0.074641	-0.226199	0.210992
H308	H	0.574641	0.273801	0.710992
H309	H	-0.392037	-0.819115	0.000079
H310	H	0.107963	-0.319115	0.500079
O311	O	-0.654721	-0.772187	0.000013
O312	O	-0.154721	-0.272187	0.500013
C313	C	-0.675056	-0.875113	0.000073
C314	C	-0.175056	-0.375113	0.500073
C315	C	-0.699895	-0.817580	0.000093
C316	C	-0.199895	-0.317580	0.500093
H317	H	-0.711567	-0.911828	0.000155
H318	H	-0.211567	-0.411828	0.500155
H319	H	-0.647618	-0.878088	-0.057483
H320	H	-0.147618	-0.378088	0.442517
H321	H	-0.647587	-0.878010	0.057598
H322	H	-0.147587	-0.378010	0.557598
H323	H	-0.727390	-0.814644	-0.057393
H324	H	-0.227390	-0.314644	0.442607
H325	H	-0.727301	-0.814629	0.057687
H326	H	-0.227301	-0.314629	0.557687
H327	H	-0.632483	-0.575509	0.000023
H328	H	-0.132483	-0.075509	0.500023
O329	O	0.073417	-0.113761	-0.222632
O330	O	0.573417	0.386239	0.277368
C331	C	0.121930	-0.039952	-0.309644
C332	C	0.621930	0.460048	0.190356
C333	C	0.122291	-0.072616	-0.227184
C334	C	0.622291	0.427384	0.272816
H335	H	0.161434	-0.006671	-0.313343
H336	H	0.661434	0.493329	0.186657
H337	H	0.122345	-0.071361	-0.363236
H338	H	0.622345	0.428639	0.136764
H339	H	0.081713	-0.017615	-0.313374
H340	H	0.581713	0.482385	0.186626
H341	H	0.162501	-0.094954	-0.223372
H342	H	0.662501	0.405046	0.276628
H343	H	0.121846	-0.041180	-0.173631
H344	H	0.621846	0.458820	0.326369
H345	H	0.144641	-0.601659	0.203761
H346	H	0.644641	-0.101659	0.703761
O347	O	-0.771748	-0.770718	-0.000106
O348	O	-0.271748	-0.270718	0.499894
C349	C	-0.847049	-0.830160	-0.071323
C350	C	-0.347049	-0.330160	0.428677
C351	C	-0.806576	-0.773437	-0.071264
C352	C	-0.306576	-0.273437	0.428736
H353	H	-0.875226	-0.832372	-0.128838
H354	H	-0.375226	-0.332372	0.371162
H355	H	-0.820715	-0.867673	-0.071371
H356	H	-0.320715	-0.367673	0.428629
H357	H	-0.875198	-0.832412	-0.013760
H358	H	-0.375198	-0.332412	0.486240
H359	H	-0.778419	-0.771130	-0.128817
H360	H	-0.278419	-0.271130	0.371183
H361	H	-0.832945	-0.735951	-0.071172
H362	H	-0.332945	-0.235951	0.428828
H363	H	-0.740232	-0.574220	0.000034
H364	H	-0.240232	-0.074220	0.500034
H365	H	-0.193774	-0.580761	0.000081
H366	H	0.306226	-0.080761	0.500081
H367	H	-0.086007	-0.582056	0.000075
H368	H	0.413993	-0.082056	0.500075
H369	H	0.070089	0.154770	-0.135910
H370	H	0.570089	0.654770	0.364090
H371	H	0.076671	-0.391693	-0.135941
H372	H	0.576671	0.108307	0.364059
O373	O	0.073309	-0.113865	0.222840
O374	O	0.573309	0.386135	0.722840
C375	C	0.073339	-0.120146	0.371522
C376	C	0.573339	0.379854	0.871522
C377	C	0.073722	-0.152786	0.289039
C378	C	0.573722	0.347214	0.789039
H379	H	0.073661	-0.151601	0.425065
H380	H	0.573661	0.348399	0.925065
H381	H	0.112875	-0.086911	0.375325
H382	H	0.612875	0.413089	0.875325
H383	H	0.033151	-0.097761	0.375232
H384	H	0.533151	0.402239	0.875232
H385	H	0.113884	-0.175206	0.285273
H386	H	0.613884	0.324794	0.785273
H387	H	0.034159	-0.185989	0.285270
H388	H	0.534159	0.314011	0.785270
