data_functionalizedCrystal
_audit_creation_method	'MofGen! by Chris Wilmer'
_symmetry_space_group_name_H-M	'P1'
_symmetry_Int_Tables_number	1
_symmetry_cell_setting	triclinic
loop_
_symmetry_equiv_pos_as_xyz
  x,y,z
_cell_length_a	12.759394
_cell_length_b	21.395364
_cell_length_c	21.395356
_cell_angle_alpha	89.976411
_cell_angle_beta	89.976253
_cell_angle_gamma	90.029788
loop_
_atom_site_label
_atom_site_type_symbol
_atom_site_fract_x
_atom_site_fract_y
_atom_site_fract_z
Zn1	Zn	-0.417874	0.957922	-0.354279
Zn2	Zn	0.082126	1.457922	0.145721
Zn3	Zn	-0.593567	0.957856	-0.249508
Zn4	Zn	-0.093567	1.457856	0.250492
Zn5	Zn	-0.417948	0.853139	-0.249515
Zn6	Zn	0.082052	1.353139	0.250485
Zn7	Zn	-0.593557	0.853136	-0.354249
Zn8	Zn	-0.093557	1.353136	0.145751
O9	O	-0.505737	0.905513	-0.301888
O10	O	-0.005737	1.405513	0.198112
O11	O	-0.441153	1.045591	-0.340390
O12	O	0.058847	1.545591	0.159610
O13	O	-0.570305	0.943938	-0.161831
O14	O	-0.070305	1.443938	0.338169
O15	O	-0.270917	0.867068	-0.263428
O16	O	0.229083	1.367068	0.236572
O17	O	-0.570234	1.045542	-0.263416
O18	O	-0.070234	1.545542	0.236584
O19	O	-0.270863	0.944052	-0.340397
O20	O	0.229137	1.444052	0.159603
O21	O	-0.441279	0.867004	-0.161837
O22	O	0.058721	1.367004	0.338163
O23	O	-0.441270	0.765461	-0.263399
O24	O	0.058730	1.265461	0.236601
O25	O	-0.570218	0.867062	-0.441930
O26	O	-0.070218	1.367062	0.058070
O27	O	-0.570290	0.765458	-0.340346
O28	O	-0.070290	1.265458	0.159654
O29	O	-0.441144	0.944049	-0.441953
O30	O	0.058856	1.444049	0.058047
O31	O	-0.740587	0.943935	-0.263387
O32	O	-0.240587	1.443935	0.236613
O33	O	-0.740580	0.866997	-0.340339
O34	O	-0.240580	1.366997	0.159661
C35	C	-0.505788	0.742726	-0.301870
C36	C	-0.005788	1.242726	0.198130
C37	C	-0.505835	0.673084	-0.301877
C38	C	-0.005835	1.173084	0.198123
C39	C	-0.438733	0.640419	-0.342020
C40	C	0.061267	1.140419	0.157980
C41	C	-0.438705	0.574984	-0.342022
C42	C	0.061295	1.074984	0.157978
C43	C	-0.505798	0.542216	-0.301889
C44	C	-0.005798	1.042216	0.198111
C45	C	-0.572905	0.574889	-0.261739
C46	C	-0.072905	1.074889	0.238261
C47	C	-0.572923	0.640323	-0.261733
C48	C	-0.072923	1.140323	0.238267
C49	C	-0.600414	0.438507	-0.296855
C50	C	-0.100414	0.938507	0.203145
C51	C	-0.600397	0.373074	-0.296865
C52	C	-0.100397	0.873074	0.203135
C53	C	-0.505740	0.340395	-0.301903
C54	C	-0.005740	0.840395	0.198097
C55	C	-0.411097	0.373157	-0.306943
C56	C	0.088903	0.873157	0.193057
C57	C	-0.411115	0.438591	-0.306938
C58	C	0.088885	0.938591	0.193062
C59	C	-0.505785	0.471264	-0.301890
C60	C	-0.005785	0.971264	0.198110
C61	C	-0.438602	0.236777	-0.342050
C62	C	0.061398	0.736777	0.157950
C63	C	-0.438572	0.171341	-0.342048
C64	C	0.061428	0.671341	0.157952
C65	C	-0.572781	0.171248	-0.261768
C66	C	-0.072781	0.671248	0.238232
C67	C	-0.572802	0.236683	-0.261766
C68	C	-0.072802	0.736683	0.238234
C69	C	-0.505713	0.269444	-0.301911
C70	C	-0.005713	0.769444	0.198089
C71	C	-0.778704	0.905476	-0.301873
C72	C	-0.278704	1.405476	0.198127
C73	C	-0.895481	0.905517	-0.301887
C74	C	-0.395481	1.405517	0.198113
C75	C	-0.895435	0.985692	-0.221817
C76	C	-0.395435	1.485692	0.278183
C77	C	-0.950272	1.025796	-0.181789
C78	C	-0.450272	1.525796	0.318211
C79	C	-1.059994	1.025832	-0.181806
C80	C	-0.559994	1.525832	0.318194
C81	C	-1.114880	0.985762	-0.221857
C82	C	-0.614880	1.485762	0.278143
C83	C	-1.060042	0.945658	-0.261884
C84	C	-0.560042	1.445658	0.238116
C85	C	-0.950318	0.945625	-0.261862
C86	C	-0.450318	1.445625	0.238138
C87	C	-1.060089	0.865487	-0.341957
C88	C	-0.560089	1.365487	0.158043
C89	C	-0.950367	0.865447	-0.341937
C90	C	-0.450367	1.365447	0.158063
C91	C	-1.114975	0.825417	-0.382007
C92	C	-0.614975	1.325417	0.117993
C93	C	-1.060137	0.785309	-0.422033
C94	C	-0.560137	1.285309	0.077967
C95	C	-0.950409	0.785274	-0.422013
C96	C	-0.450409	1.285274	0.077987
C97	C	-0.895529	0.825343	-0.381965
C98	C	-0.395529	1.325343	0.118035
C99	C	-0.231703	0.905568	-0.301917
C100	C	0.268297	1.405568	0.198083
C101	C	-0.114926	0.905591	-0.301929
C102	C	0.385074	1.405591	0.198071
C103	C	-0.505671	0.905562	-0.465311
C104	C	-0.005671	1.405562	0.034689
C105	C	-0.505644	0.905583	-0.534952
C106	C	-0.005644	1.405583	-0.034952
C107	C	-0.505686	1.068936	-0.301906
C108	C	-0.005686	1.568936	0.198094
C109	C	-0.505664	1.138578	-0.301913
C110	C	-0.005664	1.638578	0.198087
C111	C	-0.438452	0.865534	-0.567658
C112	C	0.061548	1.365534	-0.067658
C113	C	-0.438433	0.865532	-0.633094
C114	C	0.061567	1.365532	-0.133094
C115	C	-0.505594	0.905590	-0.665821
C116	C	-0.005594	1.405590	-0.165821
C117	C	-0.572798	0.945642	-0.633107
C118	C	-0.072798	1.445642	-0.133107
C119	C	-0.572823	0.945639	-0.567673
C120	C	-0.072823	1.445639	-0.067673
C121	C	-0.513829	0.962044	-0.769507
C122	C	-0.013829	1.462044	-0.269507
C123	C	-0.513797	0.962048	-0.834940
C124	C	-0.013797	1.462048	-0.334940
C125	C	-0.505523	0.905601	-0.867642
C126	C	-0.005523	1.405601	-0.367642
C127	C	-0.497259	0.849147	-0.834902
C128	C	0.002741	1.349147	-0.334902
C129	C	-0.497284	0.849143	-0.769468
C130	C	0.002716	1.349143	-0.269468
C131	C	-0.505575	0.905598	-0.736773
C132	C	-0.005575	1.405598	-0.236773
C133	C	-0.438307	0.865546	-0.971300
C134	C	0.061693	1.365546	-0.471300
C135	C	-0.438294	0.865543	-1.036737
C136	C	0.061706	1.365543	-0.536737
C137	C	-0.572654	0.945658	-1.036749
C138	C	-0.072654	1.445658	-0.536749
C139	C	-0.572672	0.945656	-0.971313
C140	C	-0.072672	1.445656	-0.471313
C141	C	-0.505493	0.905601	-0.938593
C142	C	-0.005493	1.405601	-0.438593
C143	C	-0.505726	0.905500	-0.139100
C144	C	-0.005726	1.405500	0.360900
C145	C	-0.505457	0.905600	-0.069459
C146	C	-0.005457	1.405600	0.430541
H147	H	-0.334054	0.465263	-0.311040
H148	H	0.165946	0.965263	0.188960
H149	H	-0.520558	1.008014	-0.742887
H150	H	-0.020558	1.508014	-0.242887
Cl151	Cl	-0.657234	0.995998	-0.674248
Cl152	Cl	-0.157234	1.495998	-0.174248
H153	H	-0.905574	1.058422	-0.149181
H154	H	-0.405574	1.558422	0.350819
Cl155	Cl	-1.129142	0.734946	-0.472380
Cl156	Cl	-0.629142	1.234946	0.027620
Cl157	Cl	-0.354340	0.533910	-0.392490
Cl158	Cl	0.145660	1.033910	0.107510
Cl159	Cl	-0.657246	0.533696	-0.211282
Cl160	Cl	-0.157246	1.033696	0.288718
Cl161	Cl	-0.657121	0.130060	-0.211309
Cl162	Cl	-0.157121	0.630060	0.288691
H163	H	-0.677461	0.346405	-0.292764
H164	H	-0.177461	0.846405	0.207236
H165	H	-0.627538	0.978255	-0.541044
H166	H	-0.127538	1.478255	-0.041044
Cl167	Cl	-1.252911	0.825199	-0.381763
Cl168	Cl	-0.752911	1.325199	0.118237
Cl169	Cl	-0.292090	0.332082	-0.313276
Cl170	Cl	0.207910	0.832082	0.186724
H171	H	-0.490515	0.803182	-0.861526
H172	H	0.009485	1.303182	-0.361526
H173	H	-0.806188	0.825314	-0.381942
H174	H	-0.306188	1.325314	0.118058
Cl175	Cl	-0.354390	0.681601	-0.392486
Cl176	Cl	0.145610	1.181601	0.107514
Cl177	Cl	-0.657285	0.681390	-0.211262
Cl178	Cl	-0.157285	1.181390	0.288738
H179	H	-0.905766	0.752619	-0.454611
H180	H	-0.405766	1.252619	0.045389
Cl181	Cl	-0.757498	0.985825	-0.221968
Cl182	Cl	-0.257498	1.485825	0.278032
H183	H	-1.104642	1.058491	-0.149215
H184	H	-0.604642	1.558491	0.350785
Cl185	Cl	-0.719422	0.479583	-0.290513
Cl186	Cl	-0.219422	0.979583	0.209487
H187	H	-0.383753	0.832915	-0.541021
H188	H	0.116247	1.332915	-0.041021
Cl189	Cl	-0.353934	0.815194	-0.674219
Cl190	Cl	0.146066	1.315194	-0.174219
H191	H	-0.383967	0.263453	-0.374734
H192	H	0.116033	0.763453	0.125266
Cl193	Cl	-0.486904	0.778176	-0.728311
Cl194	Cl	0.013096	1.278176	-0.228311
H195	H	-0.383606	0.832930	-0.944658
H196	H	0.116394	1.332930	-0.444658
Cl197	Cl	-0.353847	0.815172	-1.077854
Cl198	Cl	0.146153	1.315172	-0.577854
H199	H	-1.204221	0.985801	-0.221872
H200	H	-0.704221	1.485801	0.278128
Cl201	Cl	-0.657139	0.996011	-0.930195
Cl202	Cl	-0.157139	1.496011	-0.430195
Cl203	Cl	-0.354202	0.130275	-0.392515
Cl204	Cl	0.145798	0.630275	0.107485
Cl205	Cl	-0.657093	0.996014	-1.077885
Cl206	Cl	-0.157093	1.496014	-0.577885
H207	H	-0.520520	1.008016	-0.861592
H208	H	-0.020520	1.508016	-0.361592
H209	H	-0.627448	0.263279	-0.229080
H210	H	-0.127448	0.763279	0.270920
