data_functionalizedCrystal
_audit_creation_method	'MofGen! by Chris Wilmer'
_symmetry_space_group_name_H-M	'P1'
_symmetry_Int_Tables_number	1
_symmetry_cell_setting	triclinic
loop_
_symmetry_equiv_pos_as_xyz
  x,y,z
_cell_length_a	10.654550
_cell_length_b	9.065218
_cell_length_c	7.540329
_cell_angle_alpha	90.001757
_cell_angle_beta	90.000281
_cell_angle_gamma	95.249592
loop_
_atom_site_label
_atom_site_type_symbol
_atom_site_fract_x
_atom_site_fract_y
_atom_site_fract_z
O1	O	1.668659	-0.207233	-0.147342
O2	O	2.168659	0.292767	0.352658
O3	O	1.303259	-0.226977	-0.147374
O4	O	1.803259	0.273023	0.352626
O5	O	1.493512	-0.002421	-0.147354
O6	O	1.993512	0.497579	0.352646
O7	O	1.478406	-0.431789	-0.147362
O8	O	1.978406	0.068211	0.352638
O9	O	1.493500	-0.002418	0.147611
O10	O	1.993500	0.497582	0.647611
O11	O	1.303248	-0.226974	0.147591
O12	O	1.803248	0.273026	0.647591
O13	O	1.668648	-0.207230	0.147623
O14	O	2.168648	0.292770	0.647623
Cu15	Cu	1.485947	-0.217102	0.174540
Cu16	Cu	1.985947	0.282898	0.674540
Cu17	Cu	1.485960	-0.217105	-0.174291
Cu18	Cu	1.985960	0.282895	0.325709
O19	O	1.478395	-0.431786	0.147603
O20	O	1.978395	0.068214	0.647603
C21	C	1.256450	-0.225526	0.000104
C22	C	1.756450	0.274474	0.500104
C23	C	1.116989	-0.221188	0.000092
C24	C	1.616989	0.278812	0.500092
N25	N	1.485946	-0.217099	0.419888
N26	N	1.985946	0.282901	0.919888
C27	C	1.492055	0.052559	0.000126
C28	C	1.992055	0.552559	0.500126
C29	C	1.487714	0.216378	0.000117
C30	C	1.987714	0.716378	0.500117
C31	C	1.038027	-0.353403	0.000095
C32	C	1.538027	0.146597	0.500095
C33	C	0.906990	-0.349319	0.000125
C34	C	1.406990	0.150681	0.500125
C35	C	0.933890	-0.080794	0.000144
C36	C	1.433890	0.419206	0.500144
C37	C	1.064924	-0.084879	0.000126
C38	C	1.564924	0.415121	0.500126
C39	C	0.711763	-0.505036	0.103484
C40	C	1.211763	-0.005036	0.603484
C41	C	0.632796	-0.637258	0.103456
C42	C	1.132796	-0.137258	0.603456
C43	C	0.663442	-0.757121	0.000083
C44	C	1.163442	-0.257121	0.500083
C45	C	0.773052	-0.744769	-0.103305
C46	C	1.273052	-0.244769	0.396695
C47	C	0.852013	-0.612544	-0.103293
C48	C	1.352013	-0.112544	0.396707
C49	C	0.821368	-0.492686	0.000122
C50	C	1.321368	0.007314	0.500122
C51	C	1.260153	0.070828	-0.103248
C52	C	1.760153	0.570828	0.396752
C53	C	1.339116	0.203053	-0.103248
C54	C	1.839116	0.703053	0.396752
C55	C	1.308474	0.322930	0.000114
C56	C	1.808474	0.822930	0.500114
C57	C	1.198861	0.310592	0.103476
C58	C	1.698861	0.810592	0.603476
C59	C	1.119898	0.178366	0.103476
C60	C	1.619898	0.678366	0.603476
C61	C	1.150549	0.058489	0.000117
C62	C	1.650549	0.558489	0.500117
C63	C	1.715457	-0.208681	0.000141
C64	C	2.215457	0.291319	0.500141
C65	C	1.854918	-0.213019	0.000141
C66	C	2.354918	0.286981	0.500141
C67	C	1.479852	-0.486766	0.000119
C68	C	1.979852	0.013234	0.500119
C69	C	1.484193	-0.650585	0.000116
C70	C	1.984193	-0.150585	0.500116
N71	N	1.485970	-0.217097	-0.419639
N72	N	1.985970	0.282903	0.080361
H73	H	1.080414	-0.464395	0.000080
H74	H	1.580414	0.035605	0.500080
H75	H	0.941246	-0.602480	-0.187488
H76	H	1.441246	-0.102480	0.312512
H77	H	0.686811	-0.407450	0.187689
H78	H	1.186811	0.092550	0.687689
H79	H	0.543552	-0.647306	0.187646
H80	H	1.043552	-0.147306	0.687646
C81	C	1.459685	0.216628	-0.216973
C82	C	1.959685	0.716628	0.283027
N83	N	1.550496	0.226853	-0.302630
N84	N	2.050496	0.726853	0.197370
C85	C	0.876606	0.069139	0.000165
C86	C	1.376606	0.569139	0.500165
N87	N	0.833461	0.182071	0.000173
N88	N	1.333461	0.682071	0.500173
H89	H	1.030646	0.168326	0.187647
H90	H	1.530646	0.668326	0.687647
H91	H	0.599138	-0.864779	0.000064
H92	H	1.099138	-0.364779	0.500064
H93	H	0.797989	-0.842375	-0.187487
H94	H	1.297989	-0.342375	0.312513
C95	C	1.165152	0.442460	0.217184
C96	C	1.665152	0.942460	0.717184
N97	N	1.139766	0.541789	0.302827
N98	N	1.639766	1.041789	0.802827
C99	C	1.293868	-0.061040	-0.216961
C100	C	1.793868	0.438960	0.283039
N101	N	1.319262	-0.160357	-0.302619
N102	N	1.819262	0.339643	0.197381
H103	H	1.372770	0.430600	0.000085
H104	H	1.872770	0.930600	0.500085
