data_functionalizedCrystal
_audit_creation_method	'MofGen! by Chris Wilmer'
_symmetry_space_group_name_H-M	'P1'
_symmetry_Int_Tables_number	1
_symmetry_cell_setting	triclinic
loop_
_symmetry_equiv_pos_as_xyz
  x,y,z
_cell_length_a	34.490303
_cell_length_b	34.489386
_cell_length_c	34.485816
_cell_angle_alpha	60.004462
_cell_angle_beta	60.008900
_cell_angle_gamma	59.994399
loop_
_atom_site_label
_atom_site_type_symbol
_atom_site_fract_x
_atom_site_fract_y
_atom_site_fract_z
O1	O	0.053846	-0.566517	0.473678
O2	O	0.020329	-0.441078	0.381663
O3	O	0.099768	-0.520436	0.381578
O4	O	-0.025592	-0.487159	0.473762
O5	O	0.126127	-0.494082	0.407849
O6	O	0.046689	-0.414724	0.407933
O7	O	0.080206	-0.540163	0.499949
Zn8	Zn	0.067632	-0.473259	0.458112
Zn9	Zn	0.032903	-0.507982	0.423499
O10	O	0.000767	-0.460805	0.500033
N11	N	0.091336	-0.449565	0.481736
N12	N	0.009203	-0.531680	0.399875
C13	C	0.142510	-0.268211	0.532817
C14	C	0.142641	-0.398441	0.662987
C15	C	0.142524	-0.398421	0.532817
C16	C	0.272762	-0.398394	0.532723
C17	C	0.156853	-0.311177	0.547124
C18	C	0.156928	-0.384109	0.620020
C19	C	0.229794	-0.384081	0.547073
C20	C	0.156863	-0.384097	0.547124
C21	C	0.124253	-0.213522	0.514606
C22	C	0.124277	-0.416652	0.514606
C23	C	0.175110	-0.365866	0.565335
C24	C	0.352285	-0.384669	0.490824
C25	C	0.401998	-0.401229	0.474223
C26	C	0.402027	-0.481671	0.504898
C27	C	0.352316	-0.465109	0.521500
C28	C	0.136220	-0.188652	0.465734
C29	C	0.119621	-0.138936	0.449181
C30	C	0.079092	-0.138961	0.530374
C31	C	0.095691	-0.188678	0.546927
C32	C	0.075398	-0.404656	0.526651
C33	C	0.058814	-0.421229	0.510091
C34	C	0.139984	-0.461794	0.469452
C35	C	0.156570	-0.445221	0.486007
C36	C	0.075593	-0.404694	0.742565
C37	C	0.059066	-0.421281	0.792280
C38	C	0.140274	-0.461856	0.792215
C39	C	0.156800	-0.445269	0.742499
C40	C	0.124458	-0.416687	0.717675
C41	C	0.327446	-0.416608	0.514460
C42	C	-0.023585	-0.564792	0.161919
C43	C	-0.023910	-0.769260	0.366530
C44	C	-0.023880	-0.564780	0.366623
C45	C	-0.228325	-0.564561	0.366222
C46	C	-0.129610	-0.597564	0.333467
C47	C	-0.056729	-0.597644	0.333613
C48	C	-0.074925	-0.615849	0.315324
C49	C	-0.088689	-0.695351	0.357144
C50	C	-0.072155	-0.745068	0.373736
C51	C	0.008283	-0.745150	0.343188
C52	C	-0.008252	-0.695435	0.326596
C53	C	-0.154529	-0.609541	0.382326
C54	C	-0.204241	-0.592916	0.398818
C55	C	-0.204114	-0.552341	0.317588
C56	C	-0.154401	-0.568966	0.301096
C57	C	-0.068707	-0.548770	0.321590
C58	C	-0.052166	-0.532225	0.338221
C59	C	-0.011669	-0.613425	0.378886
C60	C	-0.028210	-0.629972	0.362261
C61	C	-0.068581	-0.548777	0.235758
C62	C	-0.051939	-0.532234	0.186043
C63	C	-0.011379	-0.613438	0.186090
C64	C	-0.028020	-0.629981	0.235806
C65	C	-0.056622	-0.597649	0.260639
C66	C	-0.056739	-0.670537	0.333576
C67	C	-0.005614	-0.545951	0.107238
C68	C	-0.006360	-0.823943	0.385033
C69	C	-0.005995	-0.545937	0.384582
C70	C	-0.283006	-0.545971	0.383725
N71	N	0.426163	-0.449489	0.481488
O72	O	0.588601	-0.457377	0.364497
O73	O	0.588789	-0.549696	0.489801
O74	O	0.588709	-0.549485	0.410335
O75	O	0.588681	-0.457588	0.443963
O76	O	0.509731	-0.523223	0.436741
O77	O	0.509811	-0.523434	0.516207
O78	O	0.509624	-0.431115	0.390903
Zn79	Zn	0.497178	-0.473105	0.457747
Zn80	Zn	0.601234	-0.507706	0.422956
O81	O	0.509704	-0.431326	0.470368
N82	N	0.672250	-0.531322	0.399211
N83	N	0.091303	-0.114798	0.481730
O84	O	-0.025603	0.047729	0.473733
O85	O	0.099703	0.047764	0.381394
O86	O	0.020199	0.047731	0.381655
O87	O	0.053901	0.047761	0.473472
O88	O	0.046564	-0.031252	0.407974
O89	O	0.126068	-0.031219	0.407713
O90	O	0.000762	-0.031254	0.500052
Zn91	Zn	0.067601	-0.043777	0.458061
Zn92	Zn	0.032864	0.060287	0.423385
O93	O	0.080266	-0.031222	0.499791
N94	N	0.009156	0.131307	0.399717
N95	N	0.091635	-0.449614	0.816396
O96	O	0.083664	-0.566502	0.978913
O97	O	-0.008637	-0.441152	0.978954
O98	O	-0.008421	-0.520640	0.978930
O99	O	0.083448	-0.487013	0.978936
O100	O	0.017877	-0.494296	0.899950
O101	O	0.017661	-0.414807	0.899974
O102	O	0.109961	-0.540157	0.899933
Zn103	Zn	0.067986	-0.473299	0.887414
Zn104	Zn	0.033338	-0.508010	0.991473
O105	O	0.109746	-0.460669	0.899956
N106	N	0.009689	-0.531700	1.062491
C107	C	0.030367	-0.412095	0.382120
C108	C	0.128741	-0.510370	0.382016
C109	C	0.070168	-0.569147	0.499490
C110	C	-0.028207	-0.470871	0.499595
C111	C	0.549323	-0.549278	0.518791
C112	C	0.549225	-0.549017	0.420381
C113	C	0.549087	-0.431532	0.361914
C114	C	0.549188	-0.431794	0.460322
C115	C	0.128638	0.008374	0.381806
C116	C	0.030215	0.008236	0.382161
C117	C	-0.028206	0.008233	0.499608
C118	C	0.070250	0.008272	0.499285
C119	C	-0.008199	-0.412187	0.939469
C120	C	-0.007927	-0.510619	0.939425
C121	C	0.109523	-0.569121	0.939417
C122	C	0.109257	-0.470684	0.939444
H123	H	0.019274	-0.411508	0.812539
O124	O	-0.042362	-0.519107	0.939320
C125	C	-0.055118	-0.486546	0.898402
H126	H	-0.045661	-0.453637	0.884796
H127	H	-0.035059	-0.503751	0.869744
C128	C	-0.120541	-0.512608	0.927508
C129	C	-0.108929	-0.472187	0.910799
H130	H	-0.153733	-0.503752	0.935155
H131	H	-0.111946	-0.534547	0.955075
H132	H	-0.103821	-0.526942	0.903624
H133	H	-0.125644	-0.457858	0.934686
H134	H	-0.117528	-0.450246	0.883237
H135	H	0.023205	-0.376060	0.353221
H136	H	0.422223	-0.375220	0.454977
H137	H	0.022995	0.008233	0.353314
O138	O	-0.071102	0.008141	0.534232
C139	C	-0.064814	-0.032755	0.574248
H140	H	-0.030041	-0.061343	0.562798
H141	H	-0.063704	-0.023498	0.601041
C142	C	-0.149127	-0.016205	0.611298
C143	C	-0.106420	-0.051318	0.597233
H144	H	-0.174792	-0.027655	0.625478
H145	H	-0.153364	0.011349	0.584339
H146	H	-0.148195	-0.008494	0.633623
H147	H	-0.107350	-0.059024	0.574904
H148	H	-0.102185	-0.078873	0.624189
H149	H	0.077468	0.008281	0.528131
O150	O	0.204266	-0.456976	0.718302
C151	C	0.216260	-0.481987	0.689534
H152	H	0.188242	-0.498819	0.704533
H153	H	0.217878	-0.456416	0.651865
C154	C	0.299438	-0.500440	0.670313
C155	C	0.265027	-0.521117	0.688737
H156	H	0.329521	-0.524576	0.669819
H157	H	0.291358	-0.483588	0.689693
H158	H	0.300780	-0.479132	0.638924
H159	H	0.263681	-0.542421	0.720128
H160	H	0.273108	-0.537973	0.669363
O161	O	-0.071138	-0.462366	0.534145
C162	C	-0.079635	-0.423925	0.545100
H163	H	-0.044374	-0.420104	0.534586
H164	H	-0.102561	-0.389883	0.524719
C165	C	-0.148888	-0.437774	0.611717
C166	C	-0.105579	-0.433083	0.598807
H167	H	-0.164893	-0.443421	0.644846
H168	H	-0.143165	-0.463671	0.604336
H169	H	-0.167987	-0.409404	0.594729
H170	H	-0.086479	-0.461454	0.615791
H171	H	-0.111300	-0.407190	0.606193
O172	O	0.078779	-0.612168	0.533911
C173	C	0.125452	-0.641614	0.516675
H174	H	0.137969	-0.628670	0.476225
H175	H	0.150025	-0.640302	0.528680
C176	C	0.110958	-0.708935	0.585951
C177	C	0.126330	-0.693039	0.536270
H178	H	0.111501	-0.740657	0.598040
H179	H	0.079514	-0.689097	0.597564
H180	H	0.131438	-0.707838	0.595949
H181	H	0.105847	-0.694131	0.526273
H182	H	0.157771	-0.712879	0.524656
H183	H	0.549371	-0.578259	0.554780
H184	H	0.549237	-0.577886	0.413185
O185	O	0.549262	-0.397366	0.468852
C186	C	0.590124	-0.384542	0.436260
H187	H	0.618720	-0.414950	0.422313
H188	H	0.580822	-0.351468	0.405367
C189	C	0.573575	-0.336785	0.478362
C190	C	0.608698	-0.374134	0.461234
H191	H	0.585032	-0.330363	0.493766
H192	H	0.546045	-0.345423	0.500319
H193	H	0.565827	-0.309228	0.452614
H194	H	0.616442	-0.401692	0.486983
H195	H	0.636231	-0.365500	0.439283
H196	H	0.138503	-0.605120	0.939399
H197	H	0.549027	-0.402547	0.325928
O198	O	0.143705	-0.462052	0.939355
C199	C	0.154583	-0.423583	0.898462
H200	H	0.144140	-0.419841	0.869875
H201	H	0.134093	-0.389534	0.907722
C202	C	0.221079	-0.437207	0.915013
C203	C	0.208256	-0.432613	0.879900
H204	H	0.254187	-0.442776	0.903563
H205	H	0.213749	-0.463123	0.942564
H206	H	0.204000	-0.408832	0.922725
H207	H	0.225331	-0.460990	0.872192
H208	H	0.215590	-0.406702	0.852347
O209	O	-0.042726	-0.369221	0.939504
C210	C	-0.025629	-0.339664	0.939499
H211	H	0.004863	-0.362499	0.954444
H212	H	-0.012457	-0.315676	0.901611
C213	C	-0.103388	-0.280888	0.952129
C214	C	-0.065939	-0.308934	0.970489
H215	H	-0.128253	-0.261930	0.971243
H216	H	-0.114906	-0.300800	0.952131
H217	H	-0.092404	-0.260902	0.920556
H218	H	-0.076921	-0.328923	1.002059
H219	H	-0.054423	-0.289024	0.970493
H220	H	0.049253	-0.381417	0.722357
H221	H	0.164551	0.008603	0.352745
H222	H	0.166612	-0.485121	0.812425
H223	H	0.049100	-0.381393	0.549936
H224	H	0.019013	-0.411451	0.519888
H225	H	0.196371	-0.454985	0.476195
O226	O	0.171420	-0.489528	0.441661
C227	C	0.218118	-0.496573	0.434595
H228	H	0.218032	-0.466601	0.440148
H229	H	0.232390	-0.531992	0.461039
C230	C	0.250072	-0.533723	0.376832
C231	C	0.249966	-0.496908	0.383649
H232	H	0.269718	-0.533932	0.345407
H233	H	0.218611	-0.528978	0.381593
H234	H	0.261964	-0.563235	0.398872
H235	H	0.238068	-0.467397	0.361614
H236	H	0.281426	-0.501648	0.378883
H237	H	0.422274	-0.521162	0.510626
O238	O	0.328262	-0.496198	0.544433
C239	C	0.360877	-0.542558	0.547092
H240	H	0.396297	-0.540655	0.517712
H241	H	0.366199	-0.561537	0.583109
C242	C	0.297965	-0.572467	0.577116
C243	C	0.341468	-0.570130	0.541029
H244	H	0.285992	-0.589476	0.573378
H245	H	0.275991	-0.541234	0.575327
H246	H	0.302405	-0.588282	0.607126
H247	H	0.337025	-0.554310	0.511020
H248	H	0.363440	-0.601361	0.542813
H249	H	0.332037	-0.345175	0.485091
H250	H	0.085944	-0.208923	0.586721
H251	H	0.129365	-0.118686	0.409385
O252	O	0.163942	-0.212710	0.434273
C253	C	0.170950	-0.180098	0.387586
H254	H	0.140967	-0.144666	0.387697
H255	H	0.206360	-0.174796	0.373318
C256	C	0.208102	-0.243015	0.355577
C257	C	0.171273	-0.199498	0.355713
H258	H	0.208303	-0.254982	0.335915
H259	H	0.203382	-0.264987	0.387031
H260	H	0.237606	-0.238591	0.343688
H261	H	0.141770	-0.203923	0.367608
H262	H	0.175988	-0.177527	0.324261
O263	O	0.051338	-0.114900	0.561834
C264	C	0.044352	-0.147513	0.608520
H265	H	0.049912	-0.182952	0.608430
H266	H	0.070834	-0.152793	0.622734
C267	C	-0.013391	-0.084602	0.640548
C268	C	-0.006567	-0.128129	0.640438
H269	H	-0.044799	-0.072645	0.660237
H270	H	-0.008683	-0.062630	0.609094
H271	H	0.008681	-0.089009	0.652392
H272	H	-0.028634	-0.123721	0.628588
H273	H	-0.011280	-0.150100	0.671890
H274	H	-0.061683	-0.492436	0.165791
H275	H	-0.091873	-0.522445	0.255974
H276	H	0.011902	-0.639768	0.165877
H277	H	-0.091926	-0.522444	0.298262
O278	O	-0.016376	-0.677473	0.259901
C279	C	0.012443	-0.702460	0.227321
H280	H	0.006158	-0.678750	0.191851
H281	H	0.051372	-0.713220	0.222103
C282	C	0.007548	-0.776368	0.290257
C283	C	-0.000175	-0.747248	0.246694
H284	H	-0.000233	-0.803996	0.302208
H285	H	-0.011866	-0.759534	0.312208
H286	H	0.039989	-0.785330	0.285903
H287	H	-0.032616	-0.738282	0.251050
H288	H	0.019234	-0.764081	0.224745
H289	H	0.011557	-0.639751	0.402207
O290	O	-0.063815	-0.484732	0.326472
C291	C	-0.092536	-0.459746	0.297623
H292	H	-0.086180	-0.483463	0.279548
H293	H	-0.131492	-0.448967	0.320494
C294	C	-0.087678	-0.385844	0.281831
C295	C	-0.079869	-0.414972	0.259627
H296	H	-0.079867	-0.358224	0.258395
H297	H	-0.068330	-0.402677	0.301268
H298	H	-0.120141	-0.376867	0.300889
H299	H	-0.047405	-0.423954	0.240574
H300	H	-0.099212	-0.398139	0.240186
O301	O	0.171691	-0.518904	0.347495
C302	C	0.180175	-0.557329	0.336523
H303	H	0.157990	-0.580150	0.367931
H304	H	0.169963	-0.543219	0.303957
C305	C	0.260456	-0.559505	0.287525
C306	C	0.233211	-0.587537	0.326103
H307	H	0.293171	-0.578138	0.281095
H308	H	0.254740	-0.533617	0.294916
H309	H	0.251941	-0.547749	0.260392
H310	H	0.241722	-0.599288	0.353236
H311	H	0.238930	-0.613428	0.318716
H312	H	0.017768	-0.675232	0.307405
O313	O	-0.016595	-0.677457	0.374003
C314	C	-0.033672	-0.698098	0.423791
H315	H	-0.038561	-0.674548	0.441225
H316	H	-0.069200	-0.701750	0.434965
C317	C	0.008279	-0.776449	0.418117
C318	C	0.002277	-0.747526	0.439530
H319	H	0.030452	-0.806940	0.427826
H320	H	0.019782	-0.762543	0.384574
H321	H	-0.021331	-0.779487	0.427431
H322	H	0.031885	-0.744484	0.430211
H323	H	-0.009220	-0.761433	0.473072
O324	O	0.055399	-0.769319	0.336327
C325	C	0.081107	-0.757195	0.287257
H326	H	0.056720	-0.743505	0.266663
H327	H	0.095396	-0.728363	0.276179
C328	C	0.152785	-0.818203	0.301733
C329	C	0.122833	-0.801393	0.276439
H330	H	0.178525	-0.845465	0.295060
H331	H	0.135465	-0.826370	0.334793
H332	H	0.164687	-0.794172	0.292499
H333	H	0.110926	-0.825421	0.285678
H334	H	0.140151	-0.793230	0.243381
O335	O	-0.103266	-0.769100	0.396695
C336	C	-0.149611	-0.736464	0.399317
H337	H	-0.151511	-0.701019	0.396006
H338	H	-0.158898	-0.731208	0.369210
C339	C	-0.182788	-0.799328	0.451392
C340	C	-0.185123	-0.755794	0.447329
H341	H	-0.204695	-0.811252	0.481006
H342	H	-0.151565	-0.821316	0.449623
H343	H	-0.190527	-0.794942	0.426300
H344	H	-0.177379	-0.760182	0.472417
H345	H	-0.216346	-0.733807	0.449102
H346	H	-0.134345	-0.632833	0.408685
O347	O	-0.228431	-0.604633	0.446287
C348	C	-0.216319	-0.654425	0.466947
H349	H	-0.202614	-0.670457	0.438634
H350	H	-0.187505	-0.669176	0.482708
C351	C	-0.277355	-0.647539	0.541246
C352	C	-0.260527	-0.667230	0.506472
H353	H	-0.304624	-0.655438	0.565629
H354	H	-0.285515	-0.613993	0.527328
H355	H	-0.253340	-0.659833	0.554375
H356	H	-0.284540	-0.654931	0.493341
H357	H	-0.252373	-0.700774	0.520390
O358	O	-0.228149	-0.524619	0.286101
C359	C	-0.215985	-0.549735	0.257362
H360	H	-0.179910	-0.578705	0.256928
H361	H	-0.243979	-0.566571	0.272271
C362	C	-0.257919	-0.479714	0.206946
C363	C	-0.213610	-0.515293	0.206410
H364	H	-0.256457	-0.458469	0.175517
H365	H	-0.266116	-0.462793	0.226309
H366	H	-0.281243	-0.493750	0.219373
H367	H	-0.190288	-0.501258	0.193989
H368	H	-0.205410	-0.532211	0.187044
H369	H	-0.128170	-0.675084	0.362831
H370	H	-0.134111	-0.559208	0.261309
