data_functionalizedCrystal
_audit_creation_method	'MofGen! by Chris Wilmer'
_symmetry_space_group_name_H-M	'P1'
_symmetry_Int_Tables_number	1
_symmetry_cell_setting	triclinic
loop_
_symmetry_equiv_pos_as_xyz
  x,y,z
_cell_length_a	16.974800
_cell_length_b	13.339070
_cell_length_c	15.455313
_cell_angle_alpha	93.394339
_cell_angle_beta	90.973911
_cell_angle_gamma	99.476486
loop_
_atom_site_label
_atom_site_type_symbol
_atom_site_fract_x
_atom_site_fract_y
_atom_site_fract_z
O1	O	1.077288	0.129038	0.003523
O2	O	0.851236	0.144496	-0.012353
O3	O	0.938318	-0.010570	-0.006234
O4	O	0.990206	0.284104	-0.002595
O5	O	0.933331	-0.001739	0.137677
O6	O	0.846248	0.153327	0.131559
O7	O	1.072301	0.137869	0.147435
Cu8	Cu	0.958819	0.146404	0.152637
Cu9	Cu	0.964718	0.135961	-0.017555
O10	O	0.985218	0.292935	0.141316
C11	C	0.819219	0.148162	0.057530
C12	C	0.731246	0.145916	0.051351
C13	C	0.687201	0.149672	0.126897
C14	C	0.604540	0.147545	0.121094
C15	C	0.565925	0.141670	0.039745
C16	C	0.609975	0.137911	-0.035806
C17	C	0.692634	0.140030	-0.030003
C18	C	0.319000	0.134809	0.013975
C19	C	0.236335	0.132693	0.008177
C20	C	0.230906	0.142326	0.165079
C21	C	0.313567	0.144451	0.170875
C22	C	0.357610	0.140686	0.095324
N23	N	0.481432	0.139499	0.033811
N24	N	0.442100	0.142849	0.101258
C25	C	0.927060	-0.043869	0.065105
C26	C	0.900934	-0.156245	0.063267
C27	C	1.104073	-0.520460	0.077533
C28	C	1.128622	-0.414877	0.079266
C29	C	1.071702	-0.350214	0.075266
C30	C	0.990230	-0.391144	0.069534
C31	C	0.965678	-0.496737	0.067808
C32	C	0.933307	-0.326491	0.065541
C33	C	0.851835	-0.367422	0.059809
C34	C	0.827288	-0.473005	0.058083
C35	C	0.884207	-0.537667	0.062083
C36	C	0.957858	-0.220898	0.067266
C37	C	0.819463	-0.197176	0.057541
C38	C	0.794915	-0.302759	0.055809
C39	C	1.104318	0.134203	0.077550
C40	C	1.192291	0.136449	0.083723
C41	C	0.996477	0.326234	0.069975
C42	C	1.022602	0.438610	0.071808
N43	N	0.954676	0.153749	0.272342
N44	N	0.968865	0.128608	-0.137259
C45	C	0.991695	0.087896	0.320337
C46	C	0.988571	0.093459	0.410925
C47	C	0.948432	0.164882	0.453517
C48	C	0.911408	0.230739	0.405515
C49	C	0.914528	0.225169	0.314928
C50	C	0.934961	0.188895	0.724152
C51	C	0.931846	0.194461	0.814746
C52	C	1.009008	0.057180	0.820149
C53	C	1.012128	0.051621	0.729560
C54	C	0.975100	0.117474	0.681566
N55	N	0.945240	0.170573	0.546113
N56	N	0.978288	0.111777	0.588972
H57	H	0.568680	0.150587	0.182611
H58	H	1.150408	-0.573116	0.080797
O59	O	0.724782	0.155242	0.205871
C60	C	0.762195	0.069156	0.213213
H61	H	0.773532	0.036095	0.145732
H62	H	0.821469	0.092381	0.250659
H63	H	0.721839	0.009382	0.249186
O64	O	0.892784	0.263707	0.856216
C65	C	0.830472	0.212530	0.904373
H66	H	0.844106	0.134267	0.918925
H67	H	0.825044	0.258644	0.967849
H68	H	0.771881	0.203294	0.865287
H69	H	1.194956	-0.381559	0.083934
O70	O	0.860225	-0.640213	0.060348
C71	C	0.776110	-0.662476	0.054459
H72	H	0.752017	-0.596577	0.025465
H73	H	0.756934	-0.734949	0.011219
H74	H	0.751363	-0.673906	0.121928
O75	O	1.095504	-0.247635	0.077098
C76	C	1.063145	-0.201279	0.149526
H77	H	1.048403	-0.259142	0.200710
H78	H	1.108515	-0.134221	0.177799
H79	H	1.006351	-0.172987	0.128639
H80	H	0.345001	0.149230	0.237118
O81	O	0.188066	0.145790	0.238438
C82	C	0.129857	0.057276	0.239048
H83	H	0.149165	-0.006033	0.195775
H84	H	0.123087	0.032107	0.308124
H85	H	0.070251	0.074179	0.213738
H86	H	0.760947	-0.506326	0.053422
H87	H	0.728579	-0.336099	0.051142
O88	O	0.198925	0.127122	-0.070896
C89	C	0.230984	0.212309	-0.116480
H90	H	0.293640	0.244408	-0.089732
H91	H	0.233987	0.188280	-0.188211
H92	H	0.191250	0.273123	-0.108360
H93	H	0.578527	0.133120	-0.102043
H94	H	0.884382	0.278793	0.275851
H95	H	0.773114	-0.144526	0.054288
O96	O	0.361875	0.131303	-0.059352
C97	C	0.420059	0.219838	-0.059989
H98	H	0.433500	0.253533	0.009231
H99	H	0.477032	0.199592	-0.089282
H100	H	0.396696	0.277981	-0.100431
H101	H	1.024384	0.029740	0.285665
H102	H	0.728495	0.136973	-0.091520
H103	H	1.018714	0.039836	0.450002
H104	H	0.904814	0.242517	0.685082
O105	O	1.051119	-0.017852	0.688324
C106	C	1.083141	-0.074768	0.750113
H107	H	1.048335	-0.072060	0.812407
H108	H	1.078401	-0.157173	0.723548
H109	H	1.148579	-0.041097	0.764347
O110	O	0.872351	0.299985	0.446979
C111	C	0.810032	0.248818	0.495134
H112	H	0.823660	0.170555	0.509694
H113	H	0.804602	0.294940	0.558606
H114	H	0.751445	0.239585	0.456041
O115	O	1.037009	-0.181202	0.072674
C116	C	1.075691	-0.218816	0.000687
H117	H	1.030261	-0.244093	-0.054725
H118	H	1.124092	-0.156296	-0.020993
H119	H	1.104000	-0.286471	0.019568
H120	H	1.039152	0.003565	0.859234
