data_functionalizedCrystal
_audit_creation_method	'MofGen! by Chris Wilmer'
_symmetry_space_group_name_H-M	'P1'
_symmetry_Int_Tables_number	1
_symmetry_cell_setting	triclinic
loop_
_symmetry_equiv_pos_as_xyz
  x,y,z
_cell_length_a	16.625547
_cell_length_b	16.625545
_cell_length_c	16.625539
_cell_angle_alpha	90.028234
_cell_angle_beta	90.027058
_cell_angle_gamma	90.023223
loop_
_atom_site_label
_atom_site_type_symbol
_atom_site_fract_x
_atom_site_fract_y
_atom_site_fract_z
Zn1	Zn	-1.232672	0.321018	-0.456049
Zn2	Zn	-0.899338	0.654351	-0.122716
Zn3	Zn	-0.566005	0.987684	0.210617
Zn4	Zn	-1.232571	0.455861	-0.321217
Zn5	Zn	-0.899238	0.789194	0.012117
Zn6	Zn	-0.565905	1.122527	0.345450
Zn7	Zn	-1.097834	0.321044	-0.321215
Zn8	Zn	-0.764500	0.654377	0.012119
Zn9	Zn	-0.431167	0.987711	0.345452
Zn10	Zn	-1.097800	0.455810	-0.455991
Zn11	Zn	-0.764467	0.789143	-0.122658
Zn12	Zn	-0.431134	1.122477	0.210675
O13	O	-1.165219	0.388433	-0.388618
O14	O	-0.831886	0.721766	-0.055285
O15	O	-0.498553	1.055100	0.278049
O16	O	-1.345491	0.338915	-0.438189
O17	O	-1.012157	0.672248	-0.104855
O18	O	-0.678824	1.005582	0.228478
O19	O	-1.214670	0.438009	-0.208384
O20	O	-0.881337	0.771343	0.124949
O21	O	-0.548003	1.104676	0.458283
O22	O	-1.115776	0.208208	-0.339124
O23	O	-0.782443	0.541541	-0.005791
O24	O	-0.449109	0.874875	0.327543
O25	O	-1.345417	0.437984	-0.339128
O26	O	-1.012084	0.771317	-0.005794
O27	O	-0.678750	1.104650	0.327539
O28	O	-1.214841	0.208189	-0.438187
O29	O	-0.881508	0.541522	-0.104853
O30	O	-0.548174	0.874855	0.228480
O31	O	-1.115679	0.338960	-0.208382
O32	O	-0.782345	0.672293	0.124951
O33	O	-0.449012	1.005627	0.458284
O34	O	-0.984997	0.338911	-0.339068
O35	O	-0.651663	0.672244	-0.005735
O36	O	-0.318330	1.005577	0.327599
O37	O	-1.115719	0.437897	-0.568831
O38	O	-0.782386	0.771231	-0.235498
O39	O	-0.449053	1.104564	0.097835
O40	O	-0.984972	0.437923	-0.438088
O41	O	-0.651639	0.771256	-0.104754
O42	O	-0.318306	1.104589	0.228579
O43	O	-1.214809	0.338866	-0.568874
O44	O	-0.881476	0.672199	-0.235541
O45	O	-0.548142	1.005533	0.097793
O46	O	-1.214638	0.568686	-0.339071
O47	O	-0.881304	0.902020	-0.005738
O48	O	-0.547971	1.235353	0.327595
O49	O	-1.115622	0.568649	-0.438090
O50	O	-0.782289	0.901982	-0.104756
O51	O	-0.448955	1.235316	0.228577
C52	C	-0.955728	0.388415	-0.388572
C53	C	-0.622395	0.721748	-0.055238
C54	C	-0.289062	1.055081	0.278095
C55	C	-0.866107	0.388426	-0.388571
C56	C	-0.532774	0.721760	-0.055238
C57	C	-0.199441	1.055093	0.278096
C58	C	-0.793325	0.388427	-0.388578
C59	C	-0.459991	0.721760	-0.055245
C60	C	-0.126658	1.055093	0.278088
C61	C	-0.702016	0.388430	-0.388595
C62	C	-0.368683	0.721763	-0.055261
C63	C	-0.035350	1.055097	0.278072
C64	C	-0.629240	0.388436	-0.388612
C65	C	-0.295907	0.721770	-0.055279
C66	C	0.037427	1.055103	0.278054
C67	C	-0.537926	0.388441	-0.388628
C68	C	-0.204592	0.721774	-0.055295
C69	C	0.128741	1.055107	0.278038
C70	C	-1.165137	0.597924	-0.388592
C71	C	-0.831804	0.931257	-0.055259
C72	C	-0.498470	1.264591	0.278075
C73	C	-1.165176	0.687545	-0.388608
C74	C	-0.831842	1.020878	-0.055275
C75	C	-0.498509	1.354212	0.278059
C76	C	-0.375528	0.388449	-0.388655
C77	C	-0.042195	0.721782	-0.055322
C78	C	0.291139	1.055116	0.278012
C79	C	-0.465149	0.388447	-0.388646
C80	C	-0.131816	0.721780	-0.055313
C81	C	0.201517	1.055114	0.278021
C82	C	-1.165308	1.015721	-0.388704
C83	C	-0.831974	1.349054	-0.055371
C84	C	-0.498641	1.682387	0.277962
C85	C	-1.165268	0.924412	-0.388680
C86	C	-0.831935	1.257746	-0.055347
C87	C	-0.498602	1.591079	0.277987
C88	C	-1.165241	0.851636	-0.388656
C89	C	-0.831908	1.184969	-0.055322
C90	C	-0.498574	1.518302	0.278011
C91	C	-1.165203	0.760321	-0.388632
C92	C	-0.831870	1.093655	-0.055299
C93	C	-0.498536	1.426988	0.278035
C94	C	-1.165272	0.388373	-0.598927
C95	C	-0.831938	0.721706	-0.265594
C96	C	-0.498605	1.055040	0.067740
C97	C	-1.165294	0.388347	-0.688548
C98	C	-0.831961	0.721681	-0.355215
C99	C	-0.498627	1.055014	-0.021882
C100	C	-1.165317	1.178124	-0.388671
C101	C	-0.831983	1.511457	-0.055338
C102	C	-0.498650	1.844791	0.277996
C103	C	-1.165341	1.088503	-0.388718
C104	C	-0.832007	1.421836	-0.055385
C105	C	-0.498674	1.755170	0.277949
C106	C	-1.165331	0.388257	-1.016724
C107	C	-0.831998	0.721590	-0.683391
C108	C	-0.498664	1.054924	-0.350057
C109	C	-1.165319	0.388285	-0.925416
C110	C	-0.831985	0.721618	-0.592082
C111	C	-0.498652	1.054951	-0.258749
C112	C	-1.165313	0.388303	-0.852639
C113	C	-0.831980	0.721636	-0.519306
C114	C	-0.498646	1.054970	-0.185972
C115	C	-1.165300	0.388329	-0.761325
C116	C	-0.831966	0.721663	-0.427991
C117	C	-0.498633	1.054996	-0.094658
C118	C	-1.165213	0.388435	-0.179127
C119	C	-0.831880	0.721768	0.154206
C120	C	-0.498547	1.055101	0.487539
C121	C	-1.165347	0.388233	-0.089507
C122	C	-0.832014	0.721567	0.243827
C123	C	-0.498681	1.054900	0.577160
