data_functionalizedCrystal
_audit_creation_method	'MofGen! by Chris Wilmer'
_symmetry_space_group_name_H-M	'P1'
_symmetry_Int_Tables_number	1
_symmetry_cell_setting	triclinic
loop_
_symmetry_equiv_pos_as_xyz
  x,y,z
_cell_length_a	10.654550
_cell_length_b	27.732048
_cell_length_c	9.130313
_cell_angle_alpha	89.990549
_cell_angle_beta	89.999724
_cell_angle_gamma	83.563793
loop_
_atom_site_label
_atom_site_type_symbol
_atom_site_fract_x
_atom_site_fract_y
_atom_site_fract_z
O1	O	1.664986	0.067886	-0.121708
O2	O	1.299235	0.074354	-0.121737
O3	O	1.493470	0.000794	-0.121693
O4	O	1.470751	0.141446	-0.121751
O5	O	1.493457	0.000792	0.121905
O6	O	1.299222	0.074351	0.121862
O7	O	1.664973	0.067884	0.121891
Cu8	Cu	1.482096	0.071117	0.144119
Cu9	Cu	1.482112	0.071120	-0.143965
O10	O	1.470738	0.141444	0.121848
C11	C	1.252451	0.073878	0.000060
C12	C	1.113067	0.072457	0.000050
C13	C	1.031761	0.115768	0.000036
C14	C	0.900796	0.114430	0.000063
C15	C	0.932457	0.026466	0.000110
C16	C	1.063419	0.027805	0.000094
C17	C	1.492986	-0.017217	0.000110
C18	C	1.491550	-0.070881	0.000122
C19	C	1.597290	-0.409038	0.000055
C20	C	1.591962	-0.610730	0.000034
O21	O	1.688653	-0.641384	-0.000022
N22	N	1.476789	-0.630571	0.000027
C23	C	1.362940	-0.599986	0.000015
O24	O	1.264855	-0.621490	-0.000008
C25	C	1.368269	-0.398294	0.000025
C26	C	1.483449	-0.378456	0.000047
C27	C	1.712461	-0.389199	0.000076
C28	C	1.713792	-0.338779	0.000089
C29	C	1.599951	-0.308197	0.000081
C30	C	1.484780	-0.328036	0.000061
C31	C	1.254421	-0.367709	0.000002
C32	C	1.255764	-0.317284	0.000001
C33	C	1.370944	-0.297446	0.000024
C34	C	1.372271	-0.247034	0.000066
N35	N	1.487444	-0.227193	0.000074
C36	C	1.601284	-0.257774	0.000081
C37	C	1.360150	-0.705877	0.000012
C38	C	1.358817	-0.756300	0.000012
C39	C	1.587840	-0.767041	0.000029
C40	C	1.589171	-0.716617	0.000039
C41	C	1.475323	-0.686036	0.000020
C42	C	1.604070	-0.151888	0.000110
C43	C	1.605391	-0.101463	0.000130
C44	C	1.376369	-0.090726	0.000105
C45	C	1.375047	-0.141147	0.000093
C46	C	1.488908	-0.171727	0.000091
O47	O	1.275631	-0.216352	0.000106
O48	O	1.699354	-0.236261	0.000071
C49	C	1.595959	-0.459458	0.000042
C50	C	1.480788	-0.479296	0.000021
C51	C	1.366947	-0.448715	0.000013
C52	C	1.479455	-0.529719	0.000021
C53	C	1.593296	-0.560301	0.000029
C54	C	1.708469	-0.540460	0.000036
C55	C	1.709799	-0.490040	0.000049
C56	C	1.251774	-0.468556	0.000006
C57	C	1.250453	-0.518976	-0.000006
C58	C	1.364293	-0.549558	0.000002
C59	C	1.711757	0.068360	0.000092
C60	C	1.851141	0.069781	0.000092
C61	C	1.471221	0.159455	0.000041
C62	C	1.472657	0.213118	0.000020
N63	N	1.482094	0.071115	0.346742
N64	N	1.482123	0.071118	-0.346587
C65	C	1.568130	0.038557	0.423413
C66	C	1.568142	0.038557	0.576750
C67	C	1.396079	0.103678	0.576731
C68	C	1.396062	0.103675	0.423397
H69	H	1.129623	-0.007466	0.000109
C70	C	1.130527	-0.283647	-0.000015
H71	H	1.061747	-0.302687	-0.000018
H72	H	1.126289	-0.263747	-0.084958
H73	H	1.126275	-0.263761	0.084949
H74	H	1.156652	-0.535123	-0.000011
C75	C	1.301421	0.139481	0.661049
H76	H	1.250160	0.158864	0.593422
H77	H	1.346164	0.159771	0.720866
H78	H	1.249510	0.121891	0.720862
C79	C	1.126543	-0.434922	0.000013
H80	H	1.057768	-0.453965	0.000018
H81	H	1.122287	-0.415019	-0.084925
H82	H	1.122299	-0.415039	0.084982
H83	H	1.281258	-0.157299	0.000116
C84	C	1.301421	0.139493	0.339053
H85	H	1.250198	0.158889	0.406664
H86	H	1.249489	0.121917	0.279257
H87	H	1.346201	0.159775	0.279218
H88	H	1.696787	-0.176781	0.000103
C89	C	1.086371	0.164883	0.000004
H90	H	1.019186	0.190485	0.000013
H91	H	1.136794	0.167235	-0.084951
H92	H	1.136806	0.167232	0.084957
H93	H	1.638198	0.012044	0.639171
C94	C	0.811364	0.162072	0.000037
H95	H	0.859694	0.188855	-0.000002
H96	H	0.759624	0.163381	0.084990
H97	H	0.759613	0.163376	-0.084917
C98	C	0.877846	-0.022648	0.000140
H99	H	0.945029	-0.048251	0.000158
H100	H	0.827410	-0.024998	-0.084803
H101	H	0.827422	-0.024999	0.085105
H102	H	1.699189	-0.085314	0.000152
C103	C	1.840491	-0.316963	0.000086
H104	H	1.908090	-0.342404	0.000072
H105	H	1.845788	-0.297521	0.085030
H106	H	1.845773	-0.297515	-0.084877
C107	C	1.837697	-0.422832	0.000096
H108	H	1.906468	-0.403788	0.000120
H109	H	1.841965	-0.442724	-0.084846
H110	H	1.841934	-0.442726	0.085062
H111	H	1.682961	-0.700469	0.000056
C112	C	1.713061	-0.800687	0.000014
H113	H	1.695761	-0.833557	-0.000004
H114	H	1.760348	-0.794642	0.084955
H115	H	1.760316	-0.794625	-0.084953
C116	C	1.232119	-0.778116	-0.000001
H117	H	1.164517	-0.752677	-0.000021
H118	H	1.226822	-0.797569	0.084942
H119	H	1.226844	-0.797556	-0.084965
H120	H	1.160629	-0.383852	-0.000025
C121	C	1.234908	-0.672244	0.000010
H122	H	1.166134	-0.691286	0.000022
H123	H	1.230653	-0.652344	-0.084934
H124	H	1.230663	-0.652357	0.084973
H125	H	1.801162	-0.565368	0.000049
C126	C	1.251154	-0.057080	0.000088
H127	H	1.268453	-0.024210	0.000081
H128	H	1.203867	-0.063138	0.085023
H129	H	1.203901	-0.063130	-0.084884
H130	H	1.803591	-0.473892	0.000067
C131	C	1.662750	0.002738	0.339096
H132	H	1.713982	-0.016655	0.406726
H133	H	1.714675	0.020309	0.279257
H134	H	1.617957	-0.017546	0.279307
