data_functionalizedCrystal
_audit_creation_method	'MofGen! by Chris Wilmer'
_symmetry_space_group_name_H-M	'P1'
_symmetry_Int_Tables_number	1
_symmetry_cell_setting	triclinic
loop_
_symmetry_equiv_pos_as_xyz
  x,y,z
_cell_length_a	17.917603
_cell_length_b	16.704494
_cell_length_c	16.704495
_cell_angle_alpha	85.847280
_cell_angle_beta	65.623869
_cell_angle_gamma	119.459359
loop_
_atom_site_label
_atom_site_type_symbol
_atom_site_fract_x
_atom_site_fract_y
_atom_site_fract_z
Zr1	Zr	0.810834	0.081363	0.817104
O2	O	0.953772	0.217808	0.702958
O3	O	0.659264	0.034901	0.846583
O4	O	0.799492	0.199622	0.861923
O5	O	0.825502	-0.071577	0.681789
O6	O	0.800363	0.190548	0.993587
O7	O	0.813545	0.053086	0.687619
O8	O	0.549522	-0.104108	0.966147
O9	O	1.076343	0.223079	0.709228
O10	O	0.725455	0.013913	0.964075
O11	O	0.733728	-0.072350	0.861465
O12	O	0.898827	0.121588	0.879525
O13	O	0.907100	0.035324	0.776914
Zr14	Zr	0.831295	-0.131931	1.017794
Zr15	Zr	0.812225	0.066892	1.027092
Zr16	Zr	0.829905	-0.117460	0.807805
Zr17	Zr	1.006321	0.089771	0.827103
Zr18	Zr	0.635808	-0.140339	1.007794
O19	O	0.982865	-0.085469	0.988314
O20	O	0.955749	0.197232	1.001535
O21	O	0.980888	-0.064893	0.689737
O22	O	0.688357	-0.268376	1.131939
O23	O	0.661241	0.014325	1.145160
O24	O	0.686380	-0.247800	0.833363
O25	O	0.816627	0.021008	1.153109
O26	O	0.842638	-0.250190	0.972975
O27	O	0.841766	-0.241117	0.841311
O28	O	0.828584	-0.103655	1.147279
O29	O	1.077448	0.211577	0.876141
O30	O	0.564681	-0.262145	0.958757
O31	O	0.565786	-0.273648	1.125670
O32	O	0.550627	-0.115610	1.133061
O33	O	1.091502	0.065042	0.701837
O34	O	1.092607	0.053539	0.868750
O35	O	0.743302	-0.172156	0.955373
O36	O	0.735029	-0.085893	1.057983
O37	O	0.908402	0.021782	0.973433
O38	O	0.916674	-0.064481	0.870823
C39	C	0.576541	-0.035801	0.904941
C40	C	0.493551	-0.039371	0.900696
C41	C	0.797210	0.223413	0.929079
C42	C	0.789114	0.307819	0.933027
C43	C	0.844919	-0.273981	0.905818
C44	C	0.853015	-0.358387	0.901871
C45	C	0.341607	-0.045889	0.892940
C46	C	0.300518	-0.004681	0.941955
C47	C	0.215971	-0.008308	0.937640
C48	C	0.426162	-0.042263	0.897254
C49	C	1.065589	-0.014767	0.929957
C50	C	1.148578	-0.011197	0.934202
C51	C	0.819325	-0.007183	0.654785
C52	C	0.818735	-0.001040	0.565639
C53	C	0.954919	0.578849	0.852181
C54	C	0.947316	0.658158	0.855888
C55	C	0.766309	0.545749	0.944152
C56	C	0.773911	0.466439	0.940446
C57	C	0.868219	0.482994	0.894457
C58	C	0.875820	0.403683	0.890745
C59	C	0.694814	0.291275	0.979015
C60	C	0.687212	0.370585	0.982722
C61	C	0.830820	-0.126857	0.391690
C62	C	0.830266	-0.121088	0.307929
C63	C	0.817079	0.016270	0.314353
C64	C	0.817634	0.010501	0.398113
C65	C	0.824503	-0.061066	0.436779
C66	C	0.825050	-0.066838	0.520545
C67	C	0.811871	0.070524	0.526963
C68	C	0.811316	0.076292	0.443203
C69	C	0.822804	-0.043385	1.180113
C70	C	0.823394	-0.049528	1.269258
C71	C	0.578280	-0.053902	1.167605
C72	C	0.495881	-0.063615	1.252505
C73	C	0.600395	-0.284499	0.893310
C74	C	0.525501	-0.372474	0.885118
C75	C	0.602134	-0.302600	1.155974
C76	C	0.527831	-0.396718	1.236927
C77	C	1.039995	0.252031	0.678924
C78	C	1.114298	0.346150	0.597970
C79	C	1.063849	0.003334	0.667293
C80	C	1.146248	0.013047	0.582392
C81	C	1.041734	0.233930	0.941588
C82	C	1.116628	0.321905	0.949780
C83	C	0.452187	-0.016070	1.243357
C84	C	0.374773	-0.025177	1.323123
C85	C	0.341050	-0.081834	1.412037
C86	C	0.384752	-0.129380	1.421184
C87	C	0.462169	-0.120267	1.341419
C88	C	0.495329	-0.465894	0.930289
C89	C	0.424971	-0.548562	0.922588
C90	C	0.384780	-0.537810	0.869720
C91	C	0.414959	-0.444380	0.824543
C92	C	0.485322	-0.361712	0.832239
C93	C	0.488619	-0.395889	1.328514
C94	C	0.418814	-0.484316	1.404587
C95	C	0.388216	-0.573570	1.389071
C96	C	0.427436	-0.574396	1.297475
C97	C	0.497245	-0.485971	1.221404
C98	C	1.153519	0.345321	0.506384
C99	C	1.223349	0.433749	0.430312
C100	C	1.253951	0.523004	0.445828
C101	C	1.214726	0.523830	0.537424
C102	C	1.144903	0.435403	0.613494
C103	C	1.189950	-0.034489	0.591542
C104	C	1.267383	-0.025360	0.511777
C105	C	1.301108	0.031300	0.422864
C106	C	1.257403	0.078842	0.413717
C107	C	1.179976	0.069718	0.493481
C108	C	1.156796	0.311121	1.002655
C109	C	1.227157	0.393774	1.010371
C110	C	1.257353	0.487210	0.965206
C111	C	1.217177	0.497992	0.912329
C112	C	1.146812	0.415340	0.904619
H113	H	0.328838	0.033322	0.987160
H114	H	0.528045	-0.474667	0.973339
H115	H	0.624216	0.213218	1.013434
O116	O	0.509276	-0.171569	1.351298
H117	H	0.568778	-0.155720	1.280902
O118	O	0.539513	-0.486885	1.122624
H119	H	0.622018	-0.446592	1.087969
H120	H	0.835412	-0.174661	0.271219
H121	H	0.509878	-0.285649	0.795457
H122	H	0.382226	-0.435639	0.781498
O123	O	0.488559	0.045057	1.147465
H124	H	0.478022	-0.001806	1.103784
H125	H	1.310805	0.594999	0.383879
H126	H	1.239651	0.596512	0.550047
O127	O	0.257548	-0.091664	1.498069
H128	H	0.189415	-0.125106	1.492950
H129	H	0.610429	0.357119	1.020168
O130	O	0.521623	-0.299630	1.345267
H131	H	0.455664	-0.297181	1.382985
H132	H	0.830639	-0.125113	0.552028
O133	O	1.132844	0.120990	0.483598
H134	H	1.073341	0.105140	0.553995
O135	O	1.124224	0.210347	1.051385
H136	H	1.163973	0.216748	1.089457
H137	H	1.364155	0.038722	0.357923
O138	O	1.293782	0.139954	0.317815
H139	H	1.354957	0.138297	0.263895
H140	H	0.805727	0.134563	0.411709
H141	H	0.386888	-0.483626	1.479162
O142	O	0.394416	-0.670667	1.280744
H143	H	0.339274	-0.732008	1.349033
O144	O	0.392411	-0.649329	0.971334
H145	H	0.432165	-0.642911	1.009405
O146	O	0.308871	-0.626978	0.861440
H147	H	0.294636	-0.693744	0.901748
H148	H	1.255274	0.433057	0.355738
O149	O	0.304115	-0.096214	0.833050
H150	H	0.242639	-0.091185	0.839010
O151	O	0.312910	-0.668943	1.471122
H152	H	0.290779	-0.653362	1.537412
H153	H	1.128607	0.272654	0.493732
O154	O	0.977532	0.421529	0.841148
H155	H	1.036541	0.501509	0.812383
H156	H	1.112969	0.436089	0.688066
O157	O	1.270486	0.382135	1.067401
H158	H	1.237675	0.303277	1.097495
H159	H	0.806722	0.124093	0.563687
H160	H	1.314650	0.554503	0.971491
O161	O	1.153596	-0.095588	0.687438
H162	H	1.197015	-0.127089	0.680386
O163	O	1.314502	-0.076654	0.521652
H164	H	1.278022	-0.117601	0.596879
H165	H	1.241774	0.574079	0.875558
O166	O	1.103492	0.426972	0.847581
H167	H	1.164745	0.473729	0.773902
O168	O	1.056628	0.596691	0.802579
H169	H	1.115641	0.676671	0.773805
O170	O	0.327638	0.026099	1.313247
H171	H	0.364086	0.067008	1.238016
O172	O	1.040824	0.761548	0.810293
H173	H	1.085324	0.777024	0.734179
O174	O	0.664597	0.527902	0.993754
H175	H	0.673882	0.599157	0.989224
H176	H	0.836403	-0.185135	0.423177
H177	H	0.811496	0.074543	0.282855
H178	H	0.357283	-0.175510	1.493588
