data_functionalizedCrystal
_audit_creation_method	'MofGen! by Chris Wilmer'
_symmetry_space_group_name_H-M	'P1'
_symmetry_Int_Tables_number	1
_symmetry_cell_setting	triclinic
loop_
_symmetry_equiv_pos_as_xyz
  x,y,z
_cell_length_a	12.759400
_cell_length_b	12.827893
_cell_length_c	12.759393
_cell_angle_alpha	90.020760
_cell_angle_beta	90.029261
_cell_angle_gamma	90.014000
loop_
_atom_site_label
_atom_site_type_symbol
_atom_site_fract_x
_atom_site_fract_y
_atom_site_fract_z
Zn1	Zn	-0.418216	1.597695	0.594024
Zn2	Zn	-0.593932	1.597589	0.418348
Zn3	Zn	-0.418267	1.422932	0.418360
Zn4	Zn	-0.593854	1.422926	0.593986
O5	O	-0.506067	1.510285	0.506179
O6	O	-0.441537	1.743917	0.570731
O7	O	-0.570684	1.574378	0.271328
O8	O	-0.271240	1.446161	0.441683
O9	O	-0.570634	1.743839	0.441663
O10	O	-0.271202	1.574559	0.570743
O11	O	-0.441624	1.446058	0.271337
O12	O	-0.441548	1.276695	0.441646
O13	O	-0.570501	1.446151	0.741012
O14	O	-0.570550	1.276690	0.570678
O15	O	-0.441461	1.574553	0.741040
O16	O	-0.740943	1.574372	0.441626
O17	O	-0.740885	1.446048	0.570666
C18	C	-0.506047	1.238775	0.506159
C19	C	-0.506064	1.122622	0.506176
C20	C	-0.779035	1.510226	0.506163
C21	C	-0.895811	1.510297	0.506192
C22	C	-1.060301	1.577176	0.573473
C23	C	-0.950577	1.577122	0.573449
C24	C	-0.950776	1.443528	0.438946
C25	C	-1.060498	1.443588	0.438966
C26	C	-0.569998	1.070863	0.569926
C27	C	-0.570017	0.950813	0.569945
C28	C	-0.232034	1.510373	0.506219
C29	C	-0.115257	1.510410	0.506235
C30	C	-0.505966	1.510363	0.780213
C31	C	-0.505923	1.510397	0.896990
C32	C	-0.506088	1.782855	0.506200
C33	C	-0.506097	1.899008	0.506209
C34	C	-0.506092	1.510267	0.233212
C35	C	-0.505839	1.510437	0.116436
C36	C	-0.438722	1.577261	0.951868
C37	C	-0.438676	1.577278	1.061592
C38	C	-0.573044	1.443565	1.061550
C39	C	-0.573083	1.443543	0.951828
H40	H	-1.104883	1.631583	0.628253
O41	O	-0.373573	1.642155	0.898435
C42	C	-0.314022	1.701326	0.729423
C43	C	-0.387880	1.627803	0.789801
H44	H	-0.325547	1.689733	0.641582
H45	H	-0.332464	1.785614	0.750927
H46	H	-0.229311	1.683010	0.751074
H47	H	-0.472616	1.646025	0.768182
H48	H	-0.369347	1.543537	0.768292
O49	O	-0.897530	1.378502	0.373764
C50	C	-0.773724	1.237394	0.359493
C51	C	-0.833976	1.310959	0.433429
H52	H	-0.722309	1.182782	0.407702
H53	H	-0.831804	1.189607	0.311454
H54	H	-0.722398	1.285393	0.304572
H55	H	-0.885304	1.263041	0.488414
H56	H	-0.775840	1.358750	0.481394
H57	H	-0.627725	1.389138	1.106213
H58	H	-0.451362	0.943514	0.451623
O59	O	-0.638468	1.378556	0.898674
C60	C	-0.771696	1.245890	0.910202
C61	C	-0.697726	1.319449	0.970528
H62	H	-0.819609	1.198067	0.968270
H63	H	-0.826722	1.293790	0.858860
H64	H	-0.723453	1.191301	0.858803
H65	H	-0.745884	1.374053	1.021984
H66	H	-0.642697	1.271484	1.021805
O67	O	-0.897354	1.642009	0.638866
C68	C	-0.908744	1.774562	0.772237
C69	C	-0.969147	1.701109	0.698221
H70	H	-0.966761	1.822379	0.820229
H71	H	-0.857401	1.726578	0.827189
H72	H	-0.857339	1.829160	0.724025
H73	H	-1.020609	1.646496	0.746348
H74	H	-1.020423	1.749158	0.643267
H75	H	-0.624717	1.115427	0.624495
O76	O	-1.113727	1.378628	0.373614
C77	C	-1.102355	1.246160	0.240157
C78	C	-1.041943	1.319647	0.314130
H79	H	-1.044344	1.198470	0.192029
H80	H	-1.153708	1.191453	0.288302
H81	H	-1.153751	1.294216	0.185321
H82	H	-0.990490	1.271675	0.368981
H83	H	-0.990656	1.374357	0.265919
H84	H	-0.624756	0.906301	0.624521
H85	H	-0.451337	1.078059	0.451615
H86	H	-0.383952	1.631724	1.106269
