data_functionalizedCrystal
_audit_creation_method	'MofGen! by Chris Wilmer'
_symmetry_space_group_name_H-M	'P1'
_symmetry_Int_Tables_number	1
_symmetry_cell_setting	triclinic
loop_
_symmetry_equiv_pos_as_xyz
  x,y,z
_cell_length_a	21.295417
_cell_length_b	21.295418
_cell_length_c	21.295412
_cell_angle_alpha	90.042690
_cell_angle_beta	89.969332
_cell_angle_gamma	89.953681
loop_
_atom_site_label
_atom_site_type_symbol
_atom_site_fract_x
_atom_site_fract_y
_atom_site_fract_z
Zn1	Zn	-0.250359	-0.962349	-0.356234
Zn2	Zn	-0.355628	-0.962254	-0.250959
Zn3	Zn	-0.250405	-0.857074	-0.250943
Zn4	Zn	-0.355623	-0.857042	-0.356155
O5	O	-0.303004	-0.909680	-0.303573
O6	O	-0.264306	-1.050426	-0.342308
O7	O	-0.341691	-0.948275	-0.162868
O8	O	-0.162310	-0.871093	-0.264937
O9	O	-0.341646	-1.050356	-0.264963
O10	O	-0.162276	-0.948438	-0.342293
O11	O	-0.264384	-0.871000	-0.162856
O12	O	-0.264380	-0.768981	-0.264861
O13	O	-0.341639	-0.871038	-0.444255
O14	O	-0.341684	-0.768957	-0.342160
O15	O	-0.264302	-0.948406	-0.444313
O16	O	-0.443716	-0.948243	-0.264887
O17	O	-0.443713	-0.870945	-0.342175
C18	C	-0.303037	-0.746128	-0.303500
C19	C	-0.303066	-0.676160	-0.303484
C20	C	-0.466556	-0.909597	-0.303538
C21	C	-0.536524	-0.909620	-0.303544
C22	C	-0.302965	-0.909729	-0.467763
C23	C	-0.302948	-0.909750	-0.537731
C24	C	-0.569371	-0.949905	-0.263342
C25	C	-0.635113	-0.949934	-0.263356
C26	C	-0.668006	-0.909667	-0.303566
C27	C	-0.635151	-0.869379	-0.343776
C28	C	-0.569410	-0.869355	-0.343765
N29	N	-0.771287	-0.854600	-0.308340
N30	N	-0.833739	-0.854625	-0.308347
C31	C	-0.866081	-0.909738	-0.303602
N32	N	-0.833612	-0.964827	-0.298838
N33	N	-0.771155	-0.964802	-0.298828
C34	C	-0.739291	-0.909689	-0.303582
C35	C	-0.970214	-0.950058	-0.263413
C36	C	-1.035957	-0.950089	-0.263431
C37	C	-1.035993	-0.869528	-0.343848
C38	C	-0.970251	-0.869504	-0.343833
C39	C	-0.937365	-0.909768	-0.303612
C40	C	-0.138814	-0.909780	-0.303622
C41	C	-0.068845	-0.909822	-0.303642
C42	C	-0.302971	-1.073870	-0.303646
C43	C	-0.302957	-1.143838	-0.303677
C44	C	-0.343371	-0.643297	-0.343674
C45	C	-0.343356	-0.577555	-0.343702
C46	C	-0.303042	-0.544678	-0.303530
C47	C	-0.262729	-0.577548	-0.263337
C48	C	-0.262741	-0.643289	-0.263315
N49	N	-0.298123	-0.441403	-0.248472
N50	N	-0.298116	-0.378951	-0.248495
C51	C	-0.303002	-0.346603	-0.303596
N52	N	-0.307908	-0.379065	-0.358675
N53	N	-0.307920	-0.441522	-0.358650
C54	C	-0.303024	-0.473392	-0.303550
C55	C	-0.343292	-0.242455	-0.343820
C56	C	-0.343272	-0.176711	-0.343849
C57	C	-0.262649	-0.176706	-0.263479
C58	C	-0.262665	-0.242448	-0.263455
C59	C	-0.302990	-0.275319	-0.303625
C60	C	-0.262690	-0.869524	-0.570582
C61	C	-0.262678	-0.869522	-0.636325
C62	C	-0.302918	-0.909757	-0.669214
C63	C	-0.343184	-0.949986	-0.636355
C64	C	-0.343199	-0.949983	-0.570614
N65	N	-0.307710	-0.964861	-0.772471
N66	N	-0.307692	-0.964863	-0.834922
C67	C	-0.302876	-0.909768	-0.867289
N68	N	-0.298066	-0.854671	-0.834845
N69	N	-0.298081	-0.854671	-0.772387
C70	C	-0.302906	-0.909765	-0.740499
C71	C	-0.262603	-0.869536	-0.971425
C72	C	-0.262596	-0.869533	-1.037169
C73	C	-0.343098	-0.950003	-1.037198
C74	C	-0.343109	-0.950001	-0.971456
C75	C	-0.302858	-0.909768	-0.938573
C76	C	-0.302997	-0.909667	-0.140021
C77	C	-0.302837	-0.909768	-0.070054
H78	H	-0.661863	-0.982741	-0.230619
H79	H	-0.229829	-0.836776	-0.944651
O80	O	-0.223462	-0.830539	-1.069155
C81	C	-0.138445	-0.822122	-1.143383
C82	C	-0.182731	-0.866356	-1.107207
H83	H	-0.105494	-0.851063	-1.174147
H84	H	-0.167317	-0.789201	-1.174167
H85	H	-0.109710	-0.793351	-1.108578
H86	H	-0.211476	-0.895168	-1.141968
H87	H	-0.153823	-0.899236	-1.076414
O88	O	-0.667169	-0.830351	-0.382866
C89	C	-0.741317	-0.821869	-0.467880
C90	C	-0.705108	-0.866137	-0.423636
H91	H	-0.771988	-0.850785	-0.500862
H92	H	-0.772195	-0.788988	-0.438977
H93	H	-0.706532	-0.793056	-0.496584
H94	H	-0.739846	-0.894991	-0.394922
H95	H	-0.674220	-0.898976	-0.452575
H96	H	-0.542665	-0.836550	-0.376503
H97	H	-1.062774	-0.836745	-0.376591
O98	O	-0.382524	-0.274417	-0.382754
C99	C	-0.467516	-0.348589	-0.391043
C100	C	-0.423136	-0.312424	-0.346879
H101	H	-0.500354	-0.379336	-0.362057
H102	H	-0.496363	-0.313832	-0.419767
H103	H	-0.438652	-0.379406	-0.424012
H104	H	-0.451952	-0.281605	-0.313872
H105	H	-0.394287	-0.347214	-0.318200
O106	O	-1.067770	-0.989337	-0.224410
C107	C	-1.087715	-1.096464	-0.194041
C108	C	-1.051656	-1.052070	-0.238262
H109	H	-1.074710	-1.147194	-0.205233
H110	H	-1.074816	-1.085488	-0.143257
H111	H	-1.140356	-1.089572	-0.200924
H112	H	-0.999006	-1.058938	-0.231435
H113	H	-1.064608	-1.063057	-0.289029
H114	H	-0.229904	-0.550775	-0.230630
H115	H	-0.229821	-0.149937	-0.230773
O116	O	-0.382487	-0.144883	-0.382910
C117	C	-0.462440	-0.151830	-0.462637
C118	C	-0.418070	-0.187953	-0.418423
H119	H	-0.491211	-0.186636	-0.491370
H120	H	-0.495349	-0.121003	-0.433713
H121	H	-0.433570	-0.121100	-0.495594
H122	H	-0.446889	-0.218717	-0.385457
H123	H	-0.385160	-0.218740	-0.447387
H124	H	-0.943437	-0.982846	-0.230664
H125	H	-0.229892	-0.836766	-0.663077
O126	O	-0.537356	-0.989050	-0.224365
C127	C	-0.463068	-1.074043	-0.215993
C128	C	-0.499277	-1.029740	-0.260203
H129	H	-0.432283	-1.106961	-0.244951
H130	H	-0.432303	-1.045182	-0.183048
H131	H	-0.497853	-1.102814	-0.187247
H132	H	-0.464538	-1.000960	-0.288990
H133	H	-0.530052	-1.058637	-0.293107
O134	O	-0.223684	-0.830406	-0.538574
C135	C	-0.215252	-0.745386	-0.464331
C136	C	-0.259494	-0.789659	-0.500531
H137	H	-0.244186	-0.712422	-0.433574
H138	H	-0.182346	-0.774267	-0.433538
H139	H	-0.186464	-0.716663	-0.499122
H140	H	-0.288322	-0.818390	-0.465785
H141	H	-0.292358	-0.760741	-0.531333
O142	O	-0.382157	-0.989178	-1.069066
C143	C	-0.412662	-1.096242	-1.089266
C144	C	-0.368394	-1.051947	-1.053124
H145	H	-0.401541	-1.147000	-1.076400
H146	H	-0.463435	-1.085208	-1.076301
H147	H	-0.405751	-1.089305	-1.141894
H148	H	-0.375248	-1.058859	-1.000487
H149	H	-0.317637	-1.062991	-1.066141
O150	O	-0.938437	-0.830304	-0.382900
C151	C	-0.945413	-0.750427	-0.462685
C152	C	-0.981520	-0.794779	-0.418461
H153	H	-0.980229	-0.721703	-0.491458
H154	H	-0.914712	-0.717474	-0.433766
H155	H	-0.914559	-0.779308	-0.495605
H156	H	-1.012408	-0.765948	-0.385532
H157	H	-1.012181	-0.827733	-0.447419
H158	H	-0.375890	-0.982759	-0.944708
H159	H	-0.376207	-0.670057	-0.376384
H160	H	-0.376177	-0.550793	-0.376431
H161	H	-0.229847	-0.269205	-0.230726
O162	O	-0.223570	-0.675118	-0.224210
C163	C	-0.143575	-0.668175	-0.144525
C164	C	-0.187913	-0.632050	-0.188770
H165	H	-0.114726	-0.633370	-0.115869
H166	H	-0.172411	-0.698868	-0.111503
H167	H	-0.110733	-0.699038	-0.173485
H168	H	-0.220764	-0.601152	-0.159861
H169	H	-0.159039	-0.601396	-0.221794
H170	H	-0.375947	-0.982746	-0.663138
O171	O	-0.382392	-0.989032	-0.538769
C172	C	-0.489469	-1.019495	-0.518606
C173	C	-0.445155	-0.975242	-0.554723
H174	H	-0.540223	-1.008353	-0.531482
H175	H	-0.478456	-1.070272	-0.531585
H176	H	-0.482533	-1.012594	-0.465974
H177	H	-0.452067	-0.982087	-0.607363
H178	H	-0.456180	-0.924482	-0.541692
