data_functionalizedCrystal
_audit_creation_method	'MofGen! by Chris Wilmer'
_symmetry_space_group_name_H-M	'P1'
_symmetry_Int_Tables_number	1
_symmetry_cell_setting	triclinic
loop_
_symmetry_equiv_pos_as_xyz
  x,y,z
_cell_length_a	13.635800
_cell_length_b	27.923327
_cell_length_c	11.102300
_cell_angle_alpha	84.493675
_cell_angle_beta	108.605850
_cell_angle_gamma	81.039279
loop_
_atom_site_label
_atom_site_type_symbol
_atom_site_fract_x
_atom_site_fract_y
_atom_site_fract_z
V1	V	2.031704	-0.067125	0.397053
O2	O	2.036438	0.003226	0.388675
O3	O	1.996444	-0.133097	0.395125
O4	O	2.020464	-0.066092	0.569862
O5	O	2.012251	-0.064243	0.212729
V6	V	2.273271	-0.058710	0.374910
O7	O	2.162758	-0.085583	0.445624
O8	O	2.367316	-0.040252	0.326339
O9	O	2.196928	0.007262	0.376838
O10	O	2.327236	-0.129060	0.383288
O11	O	2.351423	-0.061592	0.559234
O12	O	2.172907	-0.059743	0.202102
V13	V	2.531704	-0.067125	0.397053
O14	O	2.536438	0.003226	0.388675
O15	O	2.496444	-0.133097	0.395125
O16	O	2.520464	-0.066092	0.569862
O17	O	2.512251	-0.064243	0.212729
V18	V	2.773271	-0.058710	0.374910
O19	O	2.662758	-0.085583	0.445624
O20	O	2.867316	-0.040252	0.326339
O21	O	2.696928	0.007262	0.376838
O22	O	2.827236	-0.129060	0.383288
O23	O	2.851423	-0.061592	0.559234
O24	O	2.672907	-0.059743	0.202102
C25	C	1.915834	-0.149180	0.389065
C26	C	1.927735	-0.203113	0.388641
C27	C	1.921812	-0.585802	0.379446
C28	C	1.876972	-0.383092	0.380936
O29	O	1.793693	-0.354785	0.375761
N30	N	1.962486	-0.360213	0.387494
C31	C	2.059220	-0.388015	0.393688
O32	O	2.130930	-0.363905	0.399314
C33	C	2.104061	-0.590725	0.392207
C34	C	2.018537	-0.613601	0.385636
C35	C	1.836295	-0.608678	0.372877
C36	C	1.847504	-0.659352	0.372497
C37	C	1.944229	-0.687151	0.378687
C38	C	2.029745	-0.664275	0.385256
C39	C	2.200796	-0.618527	0.398410
C40	C	2.211999	-0.669208	0.398043
C41	C	2.126475	-0.692083	0.391471
C42	C	2.137679	-0.742747	0.391067
N43	N	2.052165	-0.765626	0.384509
C44	C	1.955440	-0.737828	0.378319
C45	C	2.035671	-0.281589	0.394463
C46	C	2.024460	-0.230912	0.394831
C47	C	1.842213	-0.225992	0.382081
C48	C	1.853422	-0.276669	0.381704
C49	C	1.950156	-0.304468	0.387905
C50	C	1.978985	-0.844248	0.377521
C51	C	1.990202	-0.894926	0.377137
C52	C	2.172449	-0.899842	0.389894
C53	C	2.161233	-0.849167	0.390271
C54	C	2.064494	-0.821372	0.384089
O55	O	2.220927	-0.771085	0.396253
O56	O	1.883750	-0.761949	0.372723
C57	C	1.910603	-0.535128	0.379825
C58	C	1.996120	-0.512252	0.386395
C59	C	2.092845	-0.540051	0.392585
C60	C	1.984909	-0.461575	0.386763
C61	C	1.888184	-0.433776	0.380573
C62	C	1.802669	-0.456655	0.374015
C63	C	1.813878	-0.507329	0.373636
C64	C	2.178359	-0.517172	0.399142
C65	C	2.167143	-0.466497	0.399520
C66	C	2.070418	-0.438699	0.393330
C67	C	1.946474	-0.063708	0.611957
C68	C	1.977854	-0.063300	0.753234
C69	C	2.109208	0.023343	0.382895
C70	C	2.086927	0.077275	0.383327
C71	C	2.078568	-0.062129	0.160000
C72	C	2.036808	-0.062534	0.018721
C73	C	2.415834	-0.149180	0.389065
C74	C	2.427735	-0.203113	0.388641
C75	C	2.446474	-0.063708	0.611957
C76	C	2.477854	-0.063300	0.753234
C77	C	2.083732	-0.065531	0.826109
C78	C	2.113210	-0.065147	0.958853
C79	C	1.930920	-0.060301	0.945835
C80	C	1.901443	-0.060682	0.813092
C81	C	2.609208	0.023343	0.382895
C82	C	2.586927	0.077275	0.383327
C83	C	2.578568	-0.062129	0.160000
C84	C	2.536808	-0.062534	0.018721
C85	C	2.524454	-0.230914	0.394821
C86	C	2.535655	-0.281592	0.394442
C87	C	2.450133	-0.304467	0.387874
C88	C	2.353407	-0.276662	0.381697
C89	C	2.342210	-0.225986	0.382085
C90	C	2.662701	0.105076	0.377150
C91	C	2.641773	0.155754	0.377535
C92	C	2.545072	0.178628	0.384106
C93	C	2.469291	0.150824	0.390280
C94	C	2.490217	0.100148	0.389885
C95	C	2.583732	-0.065531	0.826109
C96	C	2.613210	-0.065147	0.958853
C97	C	2.430920	-0.060301	0.945835
C98	C	2.401443	-0.060682	0.813092
H99	H	1.920553	-0.913549	0.371787
H100	H	2.699424	-0.066963	1.018183
O101	O	2.157837	-0.068004	0.767788
C102	C	2.216932	-0.029005	0.607781
C103	C	2.132920	-0.026150	0.673696
H104	H	2.196829	0.004834	0.531713
H105	H	2.218550	-0.063393	0.560204
H106	H	2.297666	-0.030556	0.682707
H107	H	2.052144	-0.024580	0.598850
H108	H	2.131396	0.008232	0.721300
H109	H	2.368713	-0.058170	0.994589
H110	H	1.900214	-0.821622	0.372492
H111	H	2.283779	-0.295294	0.376350
O112	O	2.715290	0.182791	0.371325
C113	C	2.756300	0.249461	0.253738
C114	C	2.672953	0.218876	0.260596
H115	H	2.722095	0.278650	0.164236
H116	H	2.829013	0.224431	0.248905
H117	H	2.779479	0.267967	0.343063
H118	H	2.649687	0.200365	0.171293
H119	H	2.600297	0.243929	0.265493
H120	H	1.777859	-0.677972	0.367142
H121	H	1.783782	-0.295292	0.376364
H122	H	2.270443	-0.599911	0.403766
O123	O	2.248258	-0.198920	0.375895
C124	C	2.103570	-0.132293	0.258165
C125	C	2.209979	-0.162894	0.265038
H126	H	2.072579	-0.103166	0.168530
H127	H	2.114902	-0.113720	0.347376
H128	H	2.044411	-0.157365	0.253461
H129	H	2.269192	-0.137856	0.269700
H130	H	2.198563	-0.181472	0.175828
O131	O	1.748263	-0.198923	0.375905
C132	C	1.603585	-0.132287	0.258205
C133	C	1.709977	-0.162898	0.265048
H134	H	1.572588	-0.103161	0.168570
H135	H	1.614945	-0.113714	0.347418
H136	H	1.544417	-0.157353	0.253524
H137	H	1.769198	-0.137866	0.269688
H138	H	1.698532	-0.181476	0.175836
O139	O	2.461020	-0.353706	0.387716
C140	C	2.453282	-0.431660	0.494300
C141	C	2.440933	-0.375907	0.494653
H142	H	2.437025	-0.449625	0.580733
H143	H	2.537111	-0.447628	0.499923
H144	H	2.394773	-0.438997	0.401911
H145	H	2.499382	-0.368527	0.587023
H146	H	2.357072	-0.359968	0.488960
H147	H	2.428511	0.077515	0.394926
H148	H	2.094099	-0.212290	0.400160
H149	H	2.594100	-0.212296	0.400162
O150	O	1.730707	-0.529473	0.367312
C151	C	1.548740	-0.519221	0.354629
C152	C	1.642858	-0.494088	0.361814
H153	H	1.477684	-0.490622	0.350155
H154	H	1.570544	-0.548122	0.443570
H155	H	1.528298	-0.537527	0.264743
H156	H	1.663347	-0.475754	0.451645
H157	H	1.621004	-0.465213	0.272811
H158	H	2.199424	-0.066963	1.018183
H159	H	2.236792	-0.447876	0.404861
O160	O	1.856777	-0.057698	1.004106
C161	C	1.770769	-0.012217	1.128615
C162	C	1.854789	-0.015108	1.062708
H163	H	1.769119	0.022219	1.175988
H164	H	1.790880	-0.046005	1.204846
H165	H	1.690048	-0.010711	1.053712
H166	H	1.935542	-0.016599	1.137515
H167	H	1.834587	0.018679	0.986452
H168	H	2.741446	0.086459	0.371801
H169	H	2.528046	0.219892	0.384426
O170	O	2.657941	-0.068156	0.767938
C171	C	2.743871	-0.113608	0.643308
C172	C	2.659809	-0.110703	0.709152
H173	H	2.745393	-0.147999	0.595741
H174	H	2.824646	-0.115168	0.718160
H175	H	2.723751	-0.079781	0.567198
H176	H	2.679829	-0.144521	0.785255
H177	H	2.579058	-0.109119	0.634224
H178	H	1.757529	-0.586050	0.367840
H179	H	2.390556	0.169456	0.395628
H180	H	2.290773	-0.691839	0.403096
O181	O	2.129548	-0.308626	0.400285
C182	C	2.221757	-0.362077	0.296491
C183	C	2.115374	-0.331493	0.289768
H184	H	2.210338	-0.380565	0.207138
H185	H	2.252786	-0.391271	0.385989
H186	H	2.280926	-0.337005	0.301290
H187	H	2.056129	-0.356527	0.284920
H188	H	2.084432	-0.302295	0.200285
O189	O	2.244216	-0.826904	0.396411
C190	C	2.311071	-0.765940	0.293593
C191	C	2.217019	-0.791117	0.286450
H192	H	2.289108	-0.736994	0.204715
H193	H	2.382147	-0.794486	0.297865
H194	H	2.331567	-0.747678	0.383551
H195	H	2.196428	-0.809377	0.196500
H196	H	2.146001	-0.762549	0.282248
H197	H	2.251202	-0.922484	0.394931
H198	H	1.815219	-0.058861	0.753753
O199	O	2.629644	-0.308630	0.400646
C200	C	2.774276	-0.375303	0.518217
C201	C	2.667861	-0.344716	0.511373
H202	H	2.805195	-0.404492	0.607718
H203	H	2.833533	-0.350275	0.523042
H204	H	2.762840	-0.393809	0.428889
H205	H	2.679195	-0.326206	0.600679
H206	H	2.608641	-0.369768	0.506484
O207	O	1.708720	-0.429585	0.367836
C208	C	1.564051	-0.362946	0.250135
C209	C	1.670442	-0.393558	0.256982
H210	H	1.533061	-0.333818	0.160503
H211	H	1.575409	-0.344375	0.339350
H212	H	1.504879	-0.388010	0.245443
H213	H	1.729668	-0.368528	0.261633
H214	H	1.659000	-0.412135	0.167769
O215	O	2.272289	-0.544133	0.404919
C216	C	2.405272	-0.557223	0.305020
C217	C	2.298871	-0.526663	0.298319
H218	H	2.426807	-0.543104	0.218860
H219	H	2.398659	-0.597378	0.303541
H220	H	2.469162	-0.553790	0.397689
H221	H	2.234926	-0.530055	0.205662
H222	H	2.305572	-0.486521	0.299870
H223	H	2.315219	-0.058861	0.753753
