data_functionalizedCrystal
_audit_creation_method	'MofGen! by Chris Wilmer'
_symmetry_space_group_name_H-M	'P1'
_symmetry_Int_Tables_number	1
_symmetry_cell_setting	triclinic
loop_
_symmetry_equiv_pos_as_xyz
  x,y,z
_cell_length_a	13.897449
_cell_length_b	14.908520
_cell_length_c	14.908308
_cell_angle_alpha	96.360765
_cell_angle_beta	93.279088
_cell_angle_gamma	93.321930
loop_
_atom_site_label
_atom_site_type_symbol
_atom_site_fract_x
_atom_site_fract_y
_atom_site_fract_z
Zn1	Zn	-1.417722	0.389845	0.532545
Zn2	Zn	-1.417612	0.532490	0.389916
Zn3	Zn	-1.266296	0.381150	0.381205
Zn4	Zn	-1.246507	0.541167	0.541227
O5	O	-1.337034	0.461163	0.461223
O6	O	-1.552688	0.408775	0.513637
O7	O	-1.405776	0.505145	0.262099
O8	O	-1.294711	0.255639	0.394002
O9	O	-1.552607	0.513575	0.408847
O10	O	-1.405963	0.262027	0.505191
O11	O	-1.294604	0.393956	0.255700
O12	O	-1.128691	0.402369	0.402421
O13	O	-1.260983	0.528363	0.666736
O14	O	-1.114152	0.519933	0.519988
O15	O	-1.386774	0.417188	0.660358
O16	O	-1.386587	0.660306	0.417266
O17	O	-1.260877	0.666681	0.528434
C18	C	-1.321598	0.696337	0.474757
C19	C	-1.315080	0.796947	0.480577
C20	C	-1.086422	0.461150	0.461202
C21	C	-0.979206	0.461167	0.461216
C22	C	-1.588625	0.461177	0.461245
C23	C	-1.695838	0.461183	0.461255
C24	C	-0.782909	0.461172	0.461240
C25	C	-0.892143	0.461166	0.461224
C26	C	-1.321683	0.474713	0.697307
C27	C	-1.315141	0.480488	0.797912
C28	C	-1.352556	0.225072	0.447657
C29	C	-1.359171	0.124464	0.441875
C30	C	-1.433856	0.979311	0.375848
C31	C	-1.427735	1.073843	0.381313
C32	C	-1.296724	1.080546	0.496978
C33	C	-1.302844	0.986014	0.491512
C34	C	-1.371412	0.935399	0.430944
C35	C	-1.377527	0.840865	0.425475
C36	C	-1.246521	0.847570	0.541143
C37	C	-1.240400	0.942102	0.546609
C38	C	-1.352385	0.447600	0.226054
C39	C	-1.359131	0.441571	0.125436
C40	C	-1.433834	0.375550	0.980317
C41	C	-1.427690	0.380972	1.074844
C42	C	-1.296708	0.496749	1.081494
C43	C	-1.302851	0.491327	0.986967
C44	C	-1.371417	0.430726	0.936382
C45	C	-1.377564	0.425309	0.841853
C46	C	-1.246578	0.541081	0.848505
C47	C	-1.240435	0.546503	0.943032
H48	H	-1.433355	0.799656	0.376155
N49	N	-1.507809	0.924717	0.310528
H50	H	-1.502211	0.858168	0.315427
H51	H	-1.495986	0.937563	0.246828
N52	N	-1.179257	0.600604	0.801119
H53	H	-1.193553	0.587978	0.733560
H54	H	-1.110218	0.587467	0.816824
N55	N	-1.451517	0.359955	0.787290
H56	H	-1.490123	0.325822	0.829470
H57	H	-1.417554	0.315817	0.745658
N58	N	-1.507791	0.310203	0.925751
H59	H	-1.546405	0.276074	0.967928
H60	H	-1.473833	0.266061	0.884119
H61	H	-1.478585	1.109592	0.336450
H62	H	-1.240906	1.121772	0.546295
N63	N	-1.495002	0.321454	1.122233
H64	H	-1.539365	0.282241	1.075841
H65	H	-1.534675	0.360542	1.163577
N66	N	-1.166466	0.611844	0.997592
H67	H	-1.172038	0.606902	1.064141
H68	H	-1.178293	0.675547	0.984797
N69	N	-1.166450	0.996695	0.611933
H70	H	-1.172047	1.063244	0.607037
H71	H	-1.099561	0.979422	0.596826
N72	N	-1.179159	0.800209	0.600568
H73	H	-1.193436	0.732642	0.587915
H74	H	-1.188837	0.820405	0.666180
N75	N	-1.222761	0.562090	1.136083
H76	H	-1.234548	0.625828	1.123373
H77	H	-1.155866	0.547007	1.118802
