data_functionalizedCrystal
_audit_creation_method	'MofGen! by Chris Wilmer'
_symmetry_space_group_name_H-M	'P1'
_symmetry_Int_Tables_number	1
_symmetry_cell_setting	triclinic
loop_
_symmetry_equiv_pos_as_xyz
  x,y,z
_cell_length_a	21.295418
_cell_length_b	21.295417
_cell_length_c	21.295411
_cell_angle_alpha	89.978356
_cell_angle_beta	90.043738
_cell_angle_gamma	89.953681
loop_
_atom_site_label
_atom_site_type_symbol
_atom_site_fract_x
_atom_site_fract_y
_atom_site_fract_z
Zn1	Zn	0.962356	0.250415	0.356234
Zn2	Zn	0.962258	0.355667	0.250959
Zn3	Zn	0.857079	0.250445	0.250943
Zn4	Zn	0.857048	0.355680	0.356155
O5	O	0.909685	0.303052	0.303573
O6	O	1.050432	0.264360	0.342308
O7	O	0.948278	0.341716	0.162867
O8	O	0.871098	0.162351	0.264937
O9	O	1.050361	0.341688	0.264963
O10	O	0.948444	0.162330	0.342293
O11	O	0.871003	0.264410	0.162856
O12	O	0.768985	0.264422	0.264861
O13	O	0.871046	0.341709	0.444255
O14	O	0.768963	0.341738	0.342160
O15	O	0.948415	0.264372	0.444313
O16	O	0.948248	0.443758	0.264887
O17	O	0.870951	0.443767	0.342175
C18	C	0.746134	0.303085	0.303500
C19	C	0.676166	0.303114	0.303484
C20	C	0.909603	0.466603	0.303538
C21	C	0.909625	0.536571	0.303544
C22	C	0.643304	0.343426	0.343674
C23	C	0.577561	0.343410	0.343702
C24	C	0.544683	0.303090	0.303530
C25	C	0.577553	0.262770	0.263337
C26	C	0.643294	0.262783	0.263315
N27	N	0.441407	0.298163	0.248472
N28	N	0.378956	0.298155	0.248495
C29	C	0.346608	0.303050	0.303596
N30	N	0.379072	0.307965	0.358675
N31	N	0.441529	0.307976	0.358650
C32	C	0.473398	0.303072	0.303550
C33	C	0.242461	0.343346	0.343820
C34	C	0.176717	0.343326	0.343849
C35	C	0.176710	0.262690	0.263479
C36	C	0.242453	0.262707	0.263455
C37	C	0.275324	0.303038	0.303625
C38	C	0.909738	0.303038	0.467763
C39	C	0.909760	0.303033	0.537731
C40	C	1.073876	0.303019	0.303646
C41	C	1.143844	0.303005	0.303677
C42	C	0.909785	0.138861	0.303622
C43	C	0.909828	0.068893	0.303642
C44	C	0.949910	0.569412	0.263342
C45	C	0.949939	0.635155	0.263356
C46	C	0.909673	0.668054	0.303566
C47	C	0.869386	0.635205	0.343776
C48	C	0.869362	0.569464	0.343765
N49	N	0.854606	0.771336	0.308340
N50	N	0.854630	0.833787	0.308347
C51	C	0.909743	0.866129	0.303602
N52	N	0.964832	0.833659	0.298838
N53	N	0.964807	0.771202	0.298828
C54	C	0.909695	0.739339	0.303582
C55	C	0.950063	0.970255	0.263413
C56	C	0.950094	1.035999	0.263431
C57	C	0.869535	1.036048	0.343848
C58	C	0.869510	0.970305	0.343833
C59	C	0.909773	0.937413	0.303612
C60	C	0.909670	0.303019	0.140021
C61	C	0.909769	0.302848	0.070054
C62	C	0.950044	0.262761	0.570629
C63	C	0.950043	0.262734	0.636371
C64	C	0.909765	0.302989	0.669214
C65	C	0.869473	0.343263	0.636308
C66	C	0.869470	0.343285	0.570567
N67	N	0.904908	0.358058	0.772428
N68	N	0.904914	0.358036	0.834879
C69	C	0.909769	0.302926	0.867289
N70	N	0.914629	0.247837	0.834888
N71	N	0.914627	0.247860	0.772430
C72	C	0.909763	0.302970	0.740499
C73	C	0.950054	0.262621	0.971472
C74	C	0.950049	0.262593	1.037216
C75	C	0.869482	0.343128	1.037151
C76	C	0.869484	0.343151	0.971409
C77	C	0.909773	0.302898	0.938573
H78	H	0.670063	0.376266	0.376384
H79	H	0.982846	0.229937	0.663162
N80	N	0.543975	0.384584	0.384754
N81	N	0.507354	0.362492	0.424920
H82	H	0.483634	0.391570	0.453913
H83	H	0.982696	0.542633	0.230593
N84	N	0.991090	0.668701	0.222280
N85	N	1.027033	0.639325	0.186371
H86	H	1.056094	0.663015	0.157359
N87	N	0.828253	0.668797	0.384856
N88	N	0.832397	0.661418	0.442946
H89	H	0.803347	0.685141	0.471963
N90	N	0.828208	0.535924	0.384839
N91	N	0.792262	0.565302	0.420743
H92	H	0.763196	0.541614	0.449752
N93	N	0.991257	1.069538	0.222367
N94	N	1.027204	1.040158	0.186464
H95	H	1.056278	1.063845	0.157462
H96	H	0.836704	0.943564	0.376567
H97	H	0.982850	0.943473	0.230664
N98	N	0.991191	0.221649	0.537077
N99	N	1.031286	0.243800	0.500417
H100	H	1.060345	0.214764	0.476718
H101	H	0.550779	0.229940	0.230630
H102	H	0.836680	0.375898	1.063891
H103	H	0.836676	0.376038	0.663053
N104	N	0.991202	0.221509	0.937917
N105	N	1.031302	0.243661	0.901263
H106	H	1.060362	0.214625	0.877566
H107	H	0.982852	0.229795	1.064000
H108	H	0.836663	0.376078	0.543782
N109	N	0.828331	0.384292	0.937811
N110	N	0.792368	0.420230	0.967139
H111	H	0.763299	0.449288	0.943411
N112	N	0.143133	0.221512	0.222435
N113	N	0.150404	0.225605	0.164339
H114	H	0.126687	0.196522	0.135351
N115	N	0.676855	0.221597	0.222259
N116	N	0.647496	0.185594	0.186397
H117	H	0.671199	0.156505	0.157400
N118	N	0.828395	1.069635	0.384922
N119	N	0.792424	1.040301	0.420811
H120	H	0.763369	1.064024	0.449823
H121	H	0.269226	0.376183	0.376531
H122	H	0.149962	0.376152	0.376580
N123	N	0.276014	0.221526	0.222397
N124	N	0.246654	0.185527	0.186532
H125	H	0.270357	0.156439	0.157533
