data_functionalizedCrystal
_audit_creation_method	'MofGen! by Chris Wilmer'
_symmetry_space_group_name_H-M	'P1'
_symmetry_Int_Tables_number	1
_symmetry_cell_setting	triclinic
loop_
_symmetry_equiv_pos_as_xyz
  x,y,z
_cell_length_a	12.759401
_cell_length_b	19.805405
_cell_length_c	12.759393
_cell_angle_alpha	89.962372
_cell_angle_beta	89.981504
_cell_angle_gamma	90.026572
loop_
_atom_site_label
_atom_site_type_symbol
_atom_site_fract_x
_atom_site_fract_y
_atom_site_fract_z
Zn1	Zn	1.606170	-0.269420	-0.593937
Zn2	Zn	1.606028	-0.382625	-0.418239
Zn3	Zn	1.430472	-0.269456	-0.418276
Zn4	Zn	1.430425	-0.382573	-0.593880
O5	O	1.518274	-0.326019	-0.506083
O6	O	1.753172	-0.284444	-0.570638
O7	O	1.582701	-0.367650	-0.271222
O8	O	1.453858	-0.174735	-0.441618
O9	O	1.753068	-0.367615	-0.441553
O10	O	1.582942	-0.174708	-0.570675
O11	O	1.453720	-0.284505	-0.271250
O12	O	1.283445	-0.284454	-0.441563
O13	O	1.453777	-0.367527	-0.740909
O14	O	1.283410	-0.367561	-0.570578
O15	O	1.582896	-0.284394	-0.740951
O16	O	1.582655	-0.477335	-0.441498
O17	O	1.453640	-0.477297	-0.570541
C18	C	1.245306	-0.326006	-0.506069
C19	C	1.128530	-0.326017	-0.506088
C20	C	1.073677	-0.369360	-0.573155
C21	C	0.963953	-0.369369	-0.573166
C22	C	0.963944	-0.282689	-0.439034
C23	C	1.073666	-0.282678	-0.439029
C24	C	1.073681	-0.419406	-0.650592
C25	C	0.963957	-0.419414	-0.650603
C26	C	1.518155	-0.501875	-0.506032
C27	C	1.518201	-0.577107	-0.506046
C28	C	1.585444	-0.612448	-0.438923
C29	C	1.585489	-0.683137	-0.438946
C30	C	1.518284	-0.718482	-0.506088
C31	C	1.451038	-0.683136	-0.573217
C32	C	1.450999	-0.612449	-0.573199
C33	C	1.451193	-0.968209	-0.573295
C34	C	1.451234	-1.038901	-0.573306
C35	C	1.585683	-1.038897	-0.439043
C36	C	1.585644	-0.968210	-0.439024
C37	C	1.518402	-0.932870	-0.506157
C38	C	1.518356	-0.856221	-0.506133
C39	C	1.518324	-0.795129	-0.506108
C40	C	1.792307	-0.326032	-0.506098
C41	C	1.909084	-0.326037	-0.506104
C42	C	1.518347	-0.325950	-0.780117
C43	C	1.518379	-0.325921	-0.896893
C44	C	1.518421	-0.149476	-0.506157
C45	C	1.518484	-0.074244	-0.506189
C46	C	1.585620	-0.282630	-0.951779
C47	C	1.585645	-0.282605	-1.061503
C48	C	1.451184	-0.369170	-1.061446
C49	C	1.451154	-0.369190	-0.951724
C50	C	1.663254	-0.232655	-0.951812
C51	C	1.663279	-0.232630	-1.061537
C52	C	1.518261	-0.326038	-0.233116
C53	C	1.518433	-0.325876	-0.116340
H54	H	1.640245	-0.711909	-0.384288
H55	H	1.640166	-0.583675	-0.384245
C56	C	1.378011	-0.416072	-0.892072
C57	C	1.310681	-0.377745	-0.829122
C58	C	1.243274	-0.420908	-0.774163
H59	H	1.418035	-0.445589	-0.849166
H60	H	1.337917	-0.441827	-0.940406
H61	H	1.350770	-0.352001	-0.780793
H62	H	1.270634	-0.348230	-0.872001
H63	H	1.203181	-0.446663	-0.822498
H64	H	1.283307	-0.450423	-0.731264
H65	H	1.197577	-0.394910	-0.731453
H66	H	1.634181	-0.182825	-1.095593
H67	H	1.744645	-0.246670	-1.091313
C68	C	0.924051	-0.489231	-0.621193
C69	C	0.863073	-0.484768	-0.530213
C70	C	0.826285	-0.549065	-0.503098
H71	H	0.981842	-0.518396	-0.608909
H72	H	0.882649	-0.506704	-0.676800
H73	H	0.904474	-0.467305	-0.474619
H74	H	0.805268	-0.455616	-0.542473
H75	H	0.784883	-0.566538	-0.558704
H76	H	0.884081	-0.578225	-0.490818
H77	H	0.784900	-0.546045	-0.441371
C78	C	1.658552	-0.929923	-0.365958
C79	C	1.635763	-0.947196	-0.261993
C80	C	1.702917	-0.911947	-0.194658
H81	H	1.648965	-0.882752	-0.375417
H82	H	1.729157	-0.941477	-0.381338
H83	H	1.565174	-0.935637	-0.246618
H84	H	1.645356	-0.994361	-0.252501
H85	H	1.773523	-0.923502	-0.210039
H86	H	1.693325	-0.864778	-0.204126
H87	H	1.687471	-0.923667	-0.124111
C88	C	1.133032	-0.235586	-0.366110
C89	C	1.061497	-0.197648	-0.307369
C90	C	1.116146	-0.154263	-0.240176
H91	H	1.175864	-0.206064	-0.406274
H92	H	1.175785	-0.261417	-0.320194
H93	H	1.018761	-0.171819	-0.353279
H94	H	1.018662	-0.227151	-0.267184
H95	H	1.158899	-0.180094	-0.194260
H96	H	1.158977	-0.124746	-0.280348
H97	H	1.067618	-0.128521	-0.200306
C98	C	1.378312	-1.077400	-0.646100
C99	C	1.392721	-1.146868	-0.631723
C100	C	1.325558	-1.182355	-0.698747
H101	H	1.393585	-1.065855	-0.716744
H102	H	1.307698	-1.065901	-0.630660
H103	H	1.463319	-1.158363	-0.647170
H104	H	1.377440	-1.158434	-0.561093
H105	H	1.254944	-1.170856	-0.683307
H106	H	1.340836	-1.170804	-0.769386
H107	H	1.335318	-1.229492	-0.688994
H108	H	1.396244	-0.583674	-0.627858
H109	H	1.396450	-0.404396	-1.106103
H110	H	1.640438	-1.067680	-0.384384
H111	H	0.929966	-0.400703	-0.727958
C112	C	1.766278	-0.257815	-0.906559
C113	C	1.784466	-0.323977	-0.940583
C114	C	1.879367	-0.347174	-0.898929
H115	H	1.762822	-0.257030	-0.832203
H116	H	1.821778	-0.229458	-0.929599
H117	H	1.728980	-0.352326	-0.917537
H118	H	1.787942	-0.324779	-1.014934
H119	H	1.934868	-0.318817	-0.921969
H120	H	1.875902	-0.346386	-0.824574
H121	H	1.891725	-0.392065	-0.922015
C122	C	1.119088	-0.485702	-0.611351
C123	C	1.180745	-0.473586	-0.522574
C124	C	1.222580	-0.534642	-0.486388
H125	H	1.161073	-0.505379	-0.664687
H126	H	1.063649	-0.515659	-0.593670
H127	H	1.236176	-0.443641	-0.540259
H128	H	1.138783	-0.453919	-0.469217
H129	H	1.167141	-0.564599	-0.468707
H130	H	1.264561	-0.554314	-0.539731
H131	H	1.264411	-0.526431	-0.426144
C132	C	0.904323	-0.235755	-0.366090
C133	C	0.841308	-0.274036	-0.298627
C134	C	0.786385	-0.230824	-0.231402
H135	H	0.861463	-0.206283	-0.406239
H136	H	0.952678	-0.209954	-0.326084
H137	H	0.792958	-0.299825	-0.338629
H138	H	0.884141	-0.303506	-0.258455
H139	H	0.834741	-0.205023	-0.191396
H140	H	0.743532	-0.201354	-0.271561
H141	H	0.743631	-0.256792	-0.185615
C142	C	1.378056	-0.929967	-0.646202
C143	C	1.319184	-0.976054	-0.704974
C144	C	1.251781	-0.940848	-0.772134
H145	H	1.418075	-0.902342	-0.692107
H146	H	1.332233	-0.902455	-0.605980
H147	H	1.365002	-1.003554	-0.745193
H148	H	1.279144	-1.003681	-0.659096
H149	H	1.205958	-0.913336	-0.731911
H150	H	1.291809	-0.913223	-0.818032
H151	H	1.211822	-0.972112	-0.812011
C152	C	1.378110	-0.721631	-0.646000
C153	C	1.392512	-0.791100	-0.631630
C154	C	1.325335	-0.826581	-0.698647
H155	H	1.393373	-0.710084	-0.716644
H156	H	1.307499	-0.710129	-0.630548
H157	H	1.463106	-0.802598	-0.647089
H158	H	1.377241	-0.802667	-0.560999
H159	H	1.254724	-0.815079	-0.683196
H160	H	1.340604	-0.815029	-0.769287
H161	H	1.335091	-0.873720	-0.688899
H162	H	1.641502	-0.180237	-0.922065
H163	H	1.103494	-0.405426	-0.732001
