data_functionalizedCrystal
_audit_creation_method	'MofGen! by Chris Wilmer'
_symmetry_space_group_name_H-M	'P1'
_symmetry_Int_Tables_number	1
_symmetry_cell_setting	triclinic
loop_
_symmetry_equiv_pos_as_xyz
  x,y,z
_cell_length_a	18.050591
_cell_length_b	14.908520
_cell_length_c	18.050583
_cell_angle_alpha	86.735202
_cell_angle_beta	89.975765
_cell_angle_gamma	86.682923
loop_
_atom_site_label
_atom_site_type_symbol
_atom_site_fract_x
_atom_site_fract_y
_atom_site_fract_z
Zn1	Zn	1.118282	0.359222	-0.437089
Zn2	Zn	1.111031	0.510102	-0.320063
Zn3	Zn	0.994093	0.359252	-0.312901
Zn4	Zn	0.986898	0.510028	-0.444195
O5	O	1.052576	0.434651	-0.378562
O6	O	1.221244	0.379255	-0.421588
O7	O	1.095495	0.490134	-0.215190
O8	O	1.016612	0.233004	-0.323404
O9	O	1.215916	0.490105	-0.335610
O10	O	1.107854	0.232982	-0.414644
O11	O	1.009581	0.379305	-0.209928
O12	O	0.889215	0.379234	-0.330294
O13	O	1.004350	0.489980	-0.547175
O14	O	0.883928	0.490009	-0.426755
O15	O	1.100877	0.379183	-0.541954
O16	O	1.088518	0.636336	-0.342500
O17	O	0.997318	0.636282	-0.433700
C18	C	1.041371	0.669042	-0.389665
C19	C	1.036645	0.769316	-0.394439
C20	C	0.859625	0.434617	-0.378519
C21	C	0.777079	0.434625	-0.378520
C22	C	1.052620	0.434570	-0.572264
C23	C	1.052639	0.434536	-0.654808
C24	C	0.580485	0.374315	-0.326175
C25	C	0.527162	0.456602	-0.311806
C26	C	0.625947	0.434652	-0.378554
C27	C	0.532187	0.352393	-0.392923
C28	C	0.479961	0.434671	-0.378586
C29	C	0.573710	0.516982	-0.364152
C30	C	0.578742	0.412718	-0.445298
C31	C	0.525439	0.495062	-0.430957
C32	C	0.710046	0.434640	-0.378534
C33	C	0.395864	0.434693	-0.378607
C34	C	1.246280	0.434685	-0.378605
C35	C	1.328825	0.434700	-0.378624
C36	C	1.063845	0.199344	-0.367432
C37	C	1.068647	0.099070	-0.362689
C38	C	1.122830	0.957736	-0.308522
C39	C	1.118392	1.051952	-0.313006
C40	C	1.023337	1.051966	-0.407894
C41	C	1.027775	0.957750	-0.403410
C42	C	1.077522	0.910638	-0.353722
C43	C	1.081955	0.816420	-0.349235
C44	C	0.986904	0.816436	-0.444126
C45	C	0.982467	0.910652	-0.448610
C46	C	1.105180	0.374224	-0.900792
C47	C	1.119398	0.456542	-0.855288
C48	C	1.052689	0.434478	-0.951926
C49	C	1.038481	0.352194	-0.850349
C50	C	1.052666	0.434502	-0.805942
C51	C	1.066941	0.516840	-0.907512
C52	C	0.985995	0.412436	-0.902574
C53	C	1.000185	0.494811	-0.857096
C54	C	1.052704	0.434463	-1.036023
C55	C	1.052651	0.434526	-0.721846
C56	C	1.052578	0.434666	-0.185610
C57	C	1.052715	0.434446	-0.103055
H58	H	0.604557	0.323346	-0.281837
H59	H	1.122460	0.778063	-0.308774
H60	H	1.163331	0.919377	-0.268059
Br61	Br	1.087065	0.632874	-0.948992
H62	H	0.504540	0.475169	-0.255377
Br63	Br	1.179888	1.115869	-0.251665
H64	H	0.955783	0.545835	-0.837956
Br65	Br	1.018466	0.236197	-0.808708
Br66	Br	0.501562	0.236438	-0.413154
Br67	Br	1.213386	0.487648	-0.820613
H68	H	0.591987	0.586576	-0.351950
Br69	Br	0.485531	0.580212	-0.504816
Br70	Br	0.914960	0.974597	-0.516044
H71	H	0.929621	0.393751	-0.923395
Br72	Br	0.955841	1.115918	-0.475335
H73	H	1.149608	0.323322	-0.920073
Br74	Br	0.616476	0.381734	-0.539324
H75	H	0.950009	0.778078	-0.480928
