data_functionalizedCrystal
_audit_creation_method	'MofGen! by Chris Wilmer'
_symmetry_space_group_name_H-M	'P1'
_symmetry_Int_Tables_number	1
_symmetry_cell_setting	triclinic
loop_
_symmetry_equiv_pos_as_xyz
  x,y,z
_cell_length_a	12.759401
_cell_length_b	13.897447
_cell_length_c	12.759393
_cell_angle_alpha	90.032415
_cell_angle_beta	90.018335
_cell_angle_gamma	90.019691
loop_
_atom_site_label
_atom_site_type_symbol
_atom_site_fract_x
_atom_site_fract_y
_atom_site_fract_z
Zn1	Zn	1.606218	-0.383951	0.593978
Zn2	Zn	1.606098	-0.545281	0.418296
Zn3	Zn	1.430521	-0.384002	0.418317
Zn4	Zn	1.430494	-0.545206	0.593938
O5	O	1.518333	-0.464610	0.506132
O6	O	1.753224	-0.405361	0.570681
O7	O	1.582769	-0.523940	0.271278
O8	O	1.453889	-0.249014	0.441644
O9	O	1.753135	-0.523890	0.441609
O10	O	1.582973	-0.248976	0.570701
O11	O	1.453773	-0.405449	0.271293
O12	O	1.283496	-0.405376	0.441605
O13	O	1.453844	-0.523762	0.740964
O14	O	1.283477	-0.523812	0.570633
O15	O	1.582947	-0.405288	0.740993
O16	O	1.582743	-0.680253	0.441570
O17	O	1.453727	-0.680197	0.570613
C18	C	1.245366	-0.464592	0.506118
C19	C	1.128589	-0.464608	0.506137
C20	C	1.073744	-0.526376	0.573210
C21	C	0.964020	-0.526388	0.573222
C22	C	0.963995	-0.402861	0.439077
C23	C	1.073717	-0.402845	0.439072
C24	C	1.073758	-0.597696	0.650655
C25	C	0.964034	-0.597708	0.650666
C26	C	1.518248	-0.715224	0.506108
C27	C	1.518307	-0.822438	0.506132
C28	C	1.518358	-0.909508	0.506156
C29	C	1.518432	-1.018740	0.506183
C30	C	1.792366	-0.464628	0.506147
C31	C	1.909143	-0.464636	0.506153
C32	C	1.518406	-0.464511	0.780166
C33	C	1.518437	-0.464469	0.896942
C34	C	1.518447	-0.213017	0.506180
C35	C	1.518496	-0.105803	0.506200
C36	C	1.518321	-0.464639	0.233165
C37	C	1.518493	-0.464409	0.116389
C38	C	1.451317	-0.402735	1.061545
C39	C	1.451290	-0.402762	0.951821
C40	C	1.585621	-0.526146	0.951794
C41	C	1.585652	-0.526113	1.061516
C42	C	1.373758	-0.331503	1.061559
C43	C	1.373732	-0.331530	0.951835
H44	H	1.103568	-0.577773	0.732062
H45	H	0.919305	-0.352575	0.384476
H46	H	1.296464	-0.358250	1.095582
Cl47	Cl	0.918013	-0.713007	0.616768
H48	H	1.402899	-0.260574	0.917826
Cl49	Cl	1.126272	-0.707233	0.605542
Cl50	Cl	1.670116	-0.603641	1.130460
Cl51	Cl	1.142662	-0.325173	0.354766
H52	H	1.640300	-0.576382	0.907103
Cl53	Cl	1.407489	-0.216159	1.107571
H54	H	1.292343	-0.351536	0.922047
H55	H	0.930038	-0.571042	0.728018
