data_functionalizedCrystal
_audit_creation_method	'MofGen! by Chris Wilmer'
_symmetry_space_group_name_H-M	'P1'
_symmetry_Int_Tables_number	1
_symmetry_cell_setting	triclinic
loop_
_symmetry_equiv_pos_as_xyz
  x,y,z
_cell_length_a	13.032831
_cell_length_b	18.050589
_cell_length_c	13.032268
_cell_angle_alpha	97.149417
_cell_angle_beta	90.886977
_cell_angle_gamma	82.833186
loop_
_atom_site_label
_atom_site_type_symbol
_atom_site_fract_x
_atom_site_fract_y
_atom_site_fract_z
Zn1	Zn	1.498351	-0.501530	-0.780835
Zn2	Zn	1.520065	-0.612177	-0.608855
Zn3	Zn	1.348217	-0.470507	-0.587076
Zn4	Zn	1.326314	-0.608161	-0.758980
O5	O	1.423237	-0.548094	-0.683937
O6	O	1.645148	-0.530872	-0.776283
O7	O	1.515523	-0.582081	-0.462049
O8	O	1.368212	-0.370708	-0.612810
O9	O	1.661101	-0.612163	-0.649930
O10	O	1.478515	-0.393501	-0.755164
O11	O	1.389267	-0.477997	-0.446048
O12	O	1.201395	-0.474104	-0.591619
O13	O	1.330881	-0.605320	-0.905796
O14	O	1.185303	-0.575238	-0.717916
O15	O	1.457276	-0.526978	-0.921853
O16	O	1.494284	-0.715559	-0.628738
O17	O	1.351936	-0.712609	-0.739034
C18	C	1.156033	-0.520869	-0.650033
C19	C	1.041718	-0.509242	-0.635553
C20	C	1.423115	-0.741032	-0.683904
C21	C	1.423152	-0.823584	-0.683936
C22	C	0.982831	-0.554162	-0.691494
C23	C	0.864681	-0.542146	-0.676530
C24	C	1.345814	-1.021463	-0.743900
C25	C	1.332669	-1.060964	-0.646879
C26	C	1.423252	-0.974726	-0.683962
C27	C	1.436446	-1.082312	-0.781001
C28	C	1.423345	-1.120722	-0.683996
C29	C	1.410063	-1.013131	-0.586886
C30	C	1.513876	-1.034484	-0.721076
C31	C	1.500775	-1.073962	-0.623995
C32	C	1.423195	-0.890621	-0.683944
C33	C	1.423402	-1.204825	-0.684003
C34	C	1.691484	-0.575426	-0.717973
C35	C	1.805795	-0.587073	-0.732478
C36	C	1.389213	-0.569162	-0.952184
C37	C	1.374714	-0.578139	-1.066495
C38	C	1.423384	-0.354407	-0.683996
C39	C	1.423447	-0.271869	-0.684021
C40	C	1.430788	-0.543380	-1.125403
C41	C	1.415804	-0.552658	-1.243549
C42	C	1.457187	-0.527061	-0.416741
C43	C	1.471885	-0.517894	-0.302456
H44	H	0.827631	-0.494786	-0.617559
H45	H	1.256073	-1.072993	-0.615515
H46	H	1.004664	-0.461885	-0.576587
C47	C	1.361418	-0.675892	-1.270422
C48	C	1.336013	-0.602110	-1.293523
H49	H	1.312155	-0.706419	-1.301269
H50	H	1.428289	-0.695162	-1.296748
H51	H	1.361021	-0.676134	-1.197580
H52	H	1.336418	-0.601868	-1.366365
H53	H	1.269125	-0.582835	-1.267202
C54	C	1.394957	-0.895191	-0.477067
C55	C	1.394916	-0.972668	-0.476073
H56	H	1.385596	-0.870211	-0.408658
H57	H	1.459074	-0.885996	-0.503493
H58	H	1.340215	-0.876821	-0.519712
H59	H	1.449663	-0.991039	-0.433433
H60	H	1.330791	-0.981868	-0.449633
C61	C	1.320332	-0.701371	-1.093372
C62	C	1.294928	-0.627589	-1.116473
H63	H	1.271070	-0.731898	-1.124219
H64	H	1.387204	-0.720641	-1.119698
H65	H	1.319936	-0.701612	-1.020530
H66	H	1.295332	-0.627347	-1.189315
H67	H	1.228039	-0.608314	-1.090152
C68	C	1.202227	-1.048982	-0.853608
C69	C	1.257314	-0.990388	-0.812199
H70	H	1.147587	-1.029794	-0.895763
H71	H	1.247362	-1.086346	-0.894164
H72	H	1.174359	-1.070534	-0.798975
H73	H	1.285188	-0.968840	-0.866833
H74	H	1.212171	-0.953011	-0.771641
C75	C	1.589085	-1.182500	-0.556738
C76	C	1.589241	-1.104835	-0.555504
H77	H	1.643701	-1.201559	-0.514456
H78	H	1.524876	-1.192082	-0.530978
H79	H	1.598591	-1.206530	-0.625617
H80	H	1.579728	-1.080804	-0.486625
H81	H	1.653466	-1.095247	-0.581259
C82	C	0.909214	-0.620624	-0.886007
C83	C	0.855798	-0.651004	-0.812097
H84	H	0.940087	-0.660093	-0.935156
H85	H	0.862326	-0.587184	-0.920149
H86	H	0.961469	-0.594002	-0.852840
H87	H	0.803538	-0.677622	-0.845263
H88	H	0.902690	-0.684457	-0.777952
C89	C	1.459762	-1.069967	-0.960209
C90	C	1.451476	-1.122888	-0.891764
H91	H	1.469041	-1.095017	-1.028588
H92	H	1.398479	-1.035244	-0.957096
H93	H	1.517399	-1.043758	-0.941370
H94	H	1.393834	-1.149094	-0.910599
H95	H	1.512766	-1.157625	-0.894881
H96	H	1.489884	-0.506750	-1.088368
H97	H	1.530984	-0.481259	-1.265427
C98	C	1.680754	-1.086157	-0.790562
C99	C	1.617244	-1.018244	-0.763475
H100	H	1.744564	-1.076129	-0.816752
H101	H	1.693334	-1.111658	-0.731245
H102	H	1.647440	-1.116737	-0.842073
H103	H	1.650555	-0.987666	-0.711958
H104	H	1.604666	-0.992731	-0.822799
H105	H	1.019885	-0.601514	-0.750468
