data_functionalizedCrystal
_audit_creation_method	'MofGen! by Chris Wilmer'
_symmetry_space_group_name_H-M	'P1'
_symmetry_Int_Tables_number	1
_symmetry_cell_setting	triclinic
loop_
_symmetry_equiv_pos_as_xyz
  x,y,z
_cell_length_a	6.817900
_cell_length_b	17.982783
_cell_length_c	10.943881
_cell_angle_alpha	94.169009
_cell_angle_beta	108.843448
_cell_angle_gamma	102.448572
loop_
_atom_site_label
_atom_site_type_symbol
_atom_site_fract_x
_atom_site_fract_y
_atom_site_fract_z
V1	V	-4.083197	-0.105390	-0.403088
O2	O	-4.074818	0.005087	-0.394864
O3	O	-4.029344	-0.208993	-0.400862
O4	O	-4.061684	-0.103759	-0.578647
O5	O	-4.042255	-0.100875	-0.215848
V6	V	-4.564048	-0.092177	-0.380628
O7	O	-4.350318	-0.134374	-0.452356
O8	O	-4.747125	-0.063193	-0.331361
O9	O	-4.394694	0.011425	-0.382855
O10	O	-4.689824	-0.202654	-0.388853
O11	O	-4.722387	-0.096692	-0.567869
O12	O	-4.362355	-0.093808	-0.205070
C13	C	-3.872149	-0.234249	-0.394640
C14	C	-3.909584	-0.318945	-0.393990
C15	C	-3.869388	-0.347861	-0.275395
C16	C	-3.904583	-0.427443	-0.274789
C17	C	-3.979959	-0.478107	-0.392778
C18	C	-4.020162	-0.449186	-0.511382
C19	C	-3.984982	-0.369606	-0.511987
C20	C	-4.162044	-0.770124	-0.508942
C21	C	-4.197217	-0.849709	-0.508327
C22	C	-4.081645	-0.827962	-0.271744
C23	C	-4.046465	-0.748381	-0.272349
C24	C	-4.086682	-0.719468	-0.390953
C25	C	-4.048523	-0.633176	-0.391609
C26	C	-4.018103	-0.564397	-0.392122
C27	C	-3.913400	-0.100012	-0.621421
C28	C	-3.977058	-0.099365	-0.764944
C29	C	-4.205399	-0.102953	-0.855846
C30	C	-4.112048	-0.037462	-0.921249
C31	C	-4.183789	-0.163654	-0.955261
C32	C	-3.882837	-0.033831	-0.828443
C33	C	-3.954635	-0.160080	-0.862464
C34	C	-3.861118	-0.094571	-0.927819
C35	C	-4.215231	0.036678	-0.389073
C36	C	-4.157035	0.121373	-0.389732
C37	C	-4.173980	-0.097557	-0.162289
C38	C	-4.089560	-0.098201	-0.018764
H39	H	-4.194767	-0.746592	-0.605515
H40	H	-4.017736	-0.346065	-0.608560
C41	C	-3.665053	-0.089750	-0.970495
N42	N	-3.517378	-0.086114	-1.002640
H43	H	-3.807995	-0.306615	-0.179314
C44	C	-3.860352	-0.459247	-0.144324
N45	N	-3.827033	-0.483200	-0.046053
C46	C	-4.037461	-0.859775	-0.141278
N47	N	-4.004190	-0.883735	-0.043014
H48	H	-4.350243	-0.106422	-0.823995
C49	C	-3.963544	-0.692655	-0.142552
N50	N	-3.901095	-0.650682	-0.044786
C51	C	-4.202730	0.032592	-0.956715
N52	N	-4.271035	0.085357	-0.983416
H53	H	-4.258598	-0.890959	-0.604414
H54	H	-3.887551	-0.211934	-0.836173
H55	H	-4.081551	-0.490443	-0.607451
H56	H	-3.755087	0.021083	-0.773564
H57	H	-4.311667	-0.218510	-1.010286
