data_functionalizedCrystal
_audit_creation_method	'MofGen! by Chris Wilmer'
_symmetry_space_group_name_H-M	'P1'
_symmetry_Int_Tables_number	1
_symmetry_cell_setting	triclinic
loop_
_symmetry_equiv_pos_as_xyz
  x,y,z
_cell_length_a	8.559649
_cell_length_b	10.540539
_cell_length_c	7.088929
_cell_angle_alpha	83.715612
_cell_angle_beta	95.325015
_cell_angle_gamma	77.152078
loop_
_atom_site_label
_atom_site_type_symbol
_atom_site_fract_x
_atom_site_fract_y
_atom_site_fract_z
O1	O	2.103404	-0.028386	-0.158958
O2	O	1.638947	0.037097	-0.158965
O3	O	1.881772	-0.181461	-0.158959
O4	O	1.860579	0.190172	-0.158964
O5	O	1.914223	-0.210727	0.159017
O6	O	1.671397	0.007830	0.159011
O7	O	2.135855	-0.057653	0.159018
Cu8	Cu	1.906589	-0.027584	0.188048
Cu9	Cu	1.868213	0.007028	-0.187995
O10	O	1.893030	0.160905	0.159012
C11	C	1.595699	0.027426	0.000022
C12	C	1.418487	0.042198	0.000019
C13	C	1.896408	-0.243230	0.000025
C14	C	1.891652	-0.383680	0.000015
C15	C	1.709377	-0.547965	-0.000701
C16	C	1.714270	-0.401917	0.000014
C17	C	1.995547	-0.470987	0.181596
C18	C	1.989509	-0.616912	0.181749
C19	C	1.956214	-0.584526	-0.179849
C20	C	1.957603	-0.437494	-0.182250
C21	C	2.179103	-0.047981	0.000027
C22	C	2.356313	-0.062752	0.000017
C23	C	1.878394	0.222675	0.000023
C24	C	1.883148	0.363125	0.000021
N25	N	1.933593	-0.051929	0.452537
N26	N	1.841222	0.031362	-0.452484
H27	H	1.438655	-0.163903	0.000009
Cl28	Cl	1.621669	-0.602179	0.198620
H29	H	1.336134	0.143358	0.000007
Cl30	Cl	1.590055	-0.306781	-0.200948
H31	H	1.745490	0.117677	0.465867
H32	H	1.626018	-0.557244	-0.130916
H33	H	1.659936	-0.365080	0.130394
H34	H	1.940273	-0.651000	0.317483
Cl35	Cl	2.187761	-0.712771	0.194498
H36	H	2.029343	-0.138242	0.534195
H37	H	2.126500	-0.462893	0.188350
H38	H	1.950038	-0.434617	0.316721
H39	H	1.884759	-0.597401	-0.317476
Cl40	Cl	1.840807	-0.344560	-0.389678
H41	H	2.085809	-0.425804	-0.193212
H42	H	2.084212	-0.645054	-0.181068
