data_functionalizedCrystal
_audit_creation_method	'MofGen! by Chris Wilmer'
_symmetry_space_group_name_H-M	'P1'
_symmetry_Int_Tables_number	1
_symmetry_cell_setting	triclinic
loop_
_symmetry_equiv_pos_as_xyz
  x,y,z
_cell_length_a	14.044191
_cell_length_b	15.944551
_cell_length_c	15.021413
_cell_angle_alpha	90.009504
_cell_angle_beta	90.002216
_cell_angle_gamma	88.345257
loop_
_atom_site_label
_atom_site_type_symbol
_atom_site_fract_x
_atom_site_fract_y
_atom_site_fract_z
O1	O	1.257721	0.202539	0.073992
O2	O	1.757721	0.702539	0.573992
O3	O	0.981751	0.195225	0.074004
O4	O	1.481751	0.695225	0.574004
O5	O	1.127272	0.077171	0.073990
O6	O	1.627272	0.577171	0.573990
O7	O	1.112200	0.320592	0.074006
O8	O	1.612200	0.820592	0.574006
O9	O	1.127260	0.077157	-0.074075
O10	O	1.627260	0.577157	0.425925
O11	O	0.981739	0.195211	-0.074061
O12	O	1.481739	0.695211	0.425939
O13	O	1.257709	0.202524	-0.074072
O14	O	1.757709	0.702524	0.425928
Zn15	Zn	1.119722	0.198865	-0.097575
Zn16	Zn	1.619722	0.698865	0.402425
Zn17	Zn	1.119738	0.198884	0.097506
Zn18	Zn	1.619738	0.698884	0.597506
O19	O	1.112187	0.320578	-0.074058
O20	O	1.612187	0.820578	0.425942
C21	C	0.946430	0.192018	-0.000027
C22	C	1.446430	0.692018	0.499973
C23	C	0.841204	0.182475	-0.000023
C24	C	1.341204	0.682475	0.499977
C25	C	0.590920	0.232713	-0.000029
C26	C	1.090920	0.732713	0.499971
C27	C	0.648545	0.165040	-0.000032
C28	C	1.148545	0.665040	0.499968
C29	C	0.755750	0.174743	-0.000027
C30	C	1.255750	0.674743	0.499973
C31	C	0.483705	0.223011	-0.000033
C32	C	0.983705	0.723011	0.499967
C33	C	1.126640	0.045824	-0.000043
C34	C	1.626640	0.545824	0.499957
C35	C	1.124764	-0.047563	-0.000043
C36	C	1.624764	0.452437	0.499957
C37	C	1.030080	-0.269512	-0.000027
C38	C	1.530080	0.230488	0.499973
C39	C	1.074042	-0.327243	-0.073033
C40	C	1.574042	0.172757	0.426967
C41	C	1.121371	-0.218543	-0.000036
C42	C	1.621371	0.281457	0.499964
C43	C	1.074076	-0.327210	0.072946
C44	C	1.574076	0.172790	0.572946
C45	C	1.118086	-0.383702	-0.000025
C46	C	1.618086	0.116298	0.499975
C47	C	1.165358	-0.275044	-0.073103
C48	C	1.665358	0.224956	0.426897
C49	C	1.165379	-0.275007	0.072943
C50	C	1.665379	0.224993	0.572943
C51	C	1.209408	-0.332715	-0.000082
C52	C	1.709408	0.167285	0.499918
C53	C	1.123261	-0.123399	-0.000043
C54	C	1.623261	0.376601	0.499957
C55	C	1.116203	-0.478844	-0.000025
C56	C	1.616203	0.021156	0.499975
C57	C	1.293030	0.205731	-0.000039
C58	C	1.793030	0.705731	0.499961
C59	C	1.398256	0.215275	-0.000037
C60	C	1.898256	0.715275	0.499963
C61	C	1.112820	0.351926	-0.000024
C62	C	1.612820	0.851926	0.499976
C63	C	1.114695	0.445312	-0.000017
C64	C	1.614695	0.945312	0.499983
N65	N	1.119717	0.198853	-0.230712
N66	N	1.619717	0.698853	0.269288
C67	C	1.186502	0.143753	-0.529710
C68	C	1.686502	0.643753	-0.029710
C69	C	1.205672	0.220859	-0.470339
C70	C	1.705672	0.720859	0.029661
C71	C	1.119739	0.198880	-0.587749
C72	C	1.619739	0.698880	-0.087749
C73	C	1.100603	0.121766	-0.470378
C74	C	1.600603	0.621766	0.029622
C75	C	1.119731	0.198862	-0.412325
C76	C	1.619731	0.698862	0.087675
C77	C	1.138952	0.276027	-0.529684
C78	C	1.638952	0.776027	-0.029684
C79	C	1.033846	0.176881	-0.529729
C80	C	1.533846	0.676881	-0.029729
C81	C	1.052980	0.254039	-0.470385
C82	C	1.552980	0.754039	0.029615
C83	C	1.119747	0.198889	-0.688806
C84	C	1.619747	0.698889	-0.188806
C85	C	1.119723	0.198862	-0.311270
C86	C	1.619723	0.698862	0.188730
N87	N	1.119750	0.198891	0.230644
N88	N	1.619750	0.698891	0.730644
H89	H	0.954304	-0.241879	-0.000097
H90	H	1.454304	0.258121	0.499903
H91	H	1.285250	-0.360193	-0.000126
H92	H	1.785250	0.139807	0.499874
H93	H	0.617366	0.099817	0.000026
H94	H	1.117366	0.599817	0.500026
H95	H	1.203933	-0.252170	-0.134892
H96	H	1.703933	0.247830	0.365108
C97	C	1.169529	-0.270116	0.232641
C98	C	1.669529	0.229884	0.732641
C99	C	1.217466	-0.243911	0.156261
C100	C	1.717466	0.256089	0.656261
H101	H	1.201677	-0.250912	0.284082
H102	H	1.701677	0.249088	0.784082
H103	H	1.168218	-0.329636	0.233536
H104	H	1.668218	0.170364	0.733536
H105	H	1.106183	-0.247560	0.232109
H106	H	1.606183	0.252440	0.732109
H107	H	1.280810	-0.266472	0.156789
H108	H	1.780810	0.233528	0.656789
H109	H	1.218787	-0.184379	0.155366
H110	H	1.718787	0.315621	0.655366
C111	C	0.928062	-0.326173	0.156123
C112	C	1.428062	0.173827	0.656123
C113	C	1.021945	-0.358222	0.156270
C114	C	1.521945	0.141778	0.656270
H115	H	0.895878	-0.345312	0.207564
H116	H	1.395878	0.154688	0.707564
H117	H	0.896254	-0.344865	0.104291
H118	H	1.396254	0.155135	0.604291
H119	H	0.928387	-0.266605	0.156429
H120	H	1.428387	0.233395	0.656429
H121	H	1.021620	-0.417790	0.155957
H122	H	1.521620	0.082210	0.655957
H123	H	1.053761	-0.339534	0.208115
H124	H	1.553761	0.160466	0.708115
C125	C	0.995490	0.037968	-0.383930
C126	C	1.495490	0.537968	0.116070
C127	C	1.078750	0.033741	-0.435207
C128	C	1.578750	0.533741	0.064793
H129	H	0.982009	-0.016375	-0.362215
H130	H	1.482009	0.483625	0.137785
H131	H	0.943932	0.058193	-0.419614
H132	H	1.443932	0.558193	0.080386
H133	H	1.004069	0.074943	-0.335175
H134	H	1.504069	0.574943	0.164825
H135	H	1.070168	-0.003229	-0.483966
H136	H	1.570168	0.496771	0.016034
H137	H	1.130319	0.013504	-0.399521
H138	H	1.630319	0.513504	0.100479
H139	H	1.278306	0.239464	-0.444252
H140	H	1.778306	0.739464	0.055748
H141	H	1.155212	0.341256	-0.555627
H142	H	1.655212	0.841256	-0.055627
H143	H	0.622098	0.297931	-0.000022
H144	H	1.122098	0.797931	0.499978
C145	C	0.997021	0.397688	-0.465532
C146	C	1.497021	0.897688	0.034468
C147	C	0.976755	0.317032	-0.435431
C148	C	1.476755	0.817032	0.064569
H149	H	0.949969	0.436577	-0.443946
H150	H	1.449969	0.936577	0.056054
H151	H	0.996961	0.398358	-0.528759
H152	H	1.496961	0.898358	-0.028759
H153	H	1.057875	0.412833	-0.444291
H154	H	1.557875	0.912833	0.055709
H155	H	0.915904	0.301884	-0.456678
H156	H	1.415904	0.801884	0.043322
H157	H	0.976806	0.316360	-0.372191
H158	H	1.476806	0.816360	0.127809
C159	C	1.352657	0.104149	-0.534902
C160	C	1.852657	0.604149	-0.034902
C161	C	1.262770	0.080913	-0.564885
C162	C	1.762770	0.580913	-0.064885
H163	H	1.399741	0.065359	-0.556624
H164	H	1.899741	0.565359	-0.056624
H165	H	1.353556	0.104069	-0.471676
H166	H	1.853556	0.604069	0.028324
H167	H	1.365639	0.158776	-0.556085
H168	H	1.865639	0.658776	-0.056085
H169	H	1.249784	0.026288	-0.543696
H170	H	1.749784	0.526288	-0.043696
H171	H	1.261869	0.080985	-0.628124
H172	H	1.761869	0.580985	-0.128124
H173	H	0.961234	0.158254	-0.555836
H174	H	1.461234	0.658254	-0.055836
H175	H	1.035424	-0.350249	-0.134751
H176	H	1.535424	0.149751	0.365249
