data_functionalizedCrystal
_audit_creation_method	'MofGen! by Chris Wilmer'
_symmetry_space_group_name_H-M	'P1'
_symmetry_Int_Tables_number	1
_symmetry_cell_setting	triclinic
loop_
_symmetry_equiv_pos_as_xyz
  x,y,z
_cell_length_a	12.645330
_cell_length_b	12.827893
_cell_length_c	12.827885
_cell_angle_alpha	90.019272
_cell_angle_beta	90.028978
_cell_angle_gamma	90.017853
loop_
_atom_site_label
_atom_site_type_symbol
_atom_site_fract_x
_atom_site_fract_y
_atom_site_fract_z
Zn1	Zn	-0.421983	1.597653	0.590855
Zn2	Zn	-0.599284	1.597540	0.416117
Zn3	Zn	-0.422036	1.422894	0.416128
Zn4	Zn	-0.599206	1.422873	0.590817
O5	O	-0.510627	1.510240	0.503479
O6	O	-0.445514	1.743874	0.567686
O7	O	-0.575826	1.574335	0.269883
O8	O	-0.273681	1.446133	0.439326
O9	O	-0.575776	1.743791	0.439308
O10	O	-0.273643	1.574527	0.567697
O11	O	-0.445603	1.446023	0.269891
O12	O	-0.445527	1.276655	0.439290
O13	O	-0.575642	1.446096	0.737058
O14	O	-0.575693	1.276639	0.567633
O15	O	-0.445438	1.574506	0.737086
O16	O	-0.747621	1.574314	0.439271
O17	O	-0.747564	1.445986	0.567623
C18	C	-0.510608	1.238730	0.503459
C19	C	-0.510625	1.122577	0.503476
C20	C	-0.575000	0.950707	0.439884
C21	C	-0.574984	1.070757	0.439866
C22	C	-0.786057	1.510164	0.503465
C23	C	-0.903887	1.510227	0.503493
C24	C	-1.071459	1.429829	0.584488
C25	C	-0.948900	1.429418	0.584228
C26	C	-0.948489	1.480414	0.393362
C27	C	-1.071088	1.479923	0.393854
C28	C	-1.070974	1.620929	0.531736
C29	C	-0.948367	1.620251	0.534144
C30	C	-0.234122	1.510345	0.503517
C31	C	-0.116292	1.510390	0.503533
C32	C	-0.510525	1.510311	0.776050
C33	C	-0.510482	1.510341	0.892203
C34	C	-0.510648	1.782810	0.503500
C35	C	-0.510656	1.898963	0.503509
C36	C	-0.510652	1.510229	0.231969
C37	C	-0.510397	1.510401	0.115817
C38	C	-0.446040	1.573890	0.944001
C39	C	-0.445994	1.573923	1.064052
H40	H	-0.455539	1.078085	0.557953
H41	H	-0.565575	1.455996	1.071278
H42	H	-0.565612	1.455953	0.936733
C43	C	-1.109854	1.370758	0.361583
N44	N	-1.139047	1.288530	0.337280
C45	C	-0.436216	0.959179	0.577081
N46	N	-0.380146	1.004533	0.632498
H47	H	-0.630094	0.906130	0.385421
C48	C	-0.649405	1.130870	0.366272
N49	N	-0.705459	1.176149	0.310837
H50	H	-0.919210	1.642733	0.615195
C51	C	-1.111193	1.454787	0.695173
N52	N	-1.141131	1.473586	0.778543
C53	C	-0.908152	1.454612	0.694550
N54	N	-0.877466	1.473585	0.777651
C55	C	-1.111162	1.555741	0.309580
N56	N	-1.141341	1.612839	0.246099
H57	H	-1.099966	1.680949	0.472773
C58	C	-1.113192	1.319807	0.559561
N59	N	-1.144622	1.236939	0.540780
H60	H	-0.390900	1.628268	0.899471
H61	H	-0.919666	1.347469	0.565543
H62	H	-0.919335	1.537231	0.331396
C63	C	-0.907149	1.372382	0.360504
N64	N	-0.876015	1.291010	0.335761
H65	H	-1.101812	1.648124	0.610678
C66	C	-0.906969	1.705610	0.460285
N67	N	-0.875791	1.769900	0.404644
C68	C	-0.371454	1.647423	1.124227
N69	N	-0.315307	1.702784	1.169554
