data_functionalizedCrystal
_audit_creation_method	'MofGen! by Chris Wilmer'
_symmetry_space_group_name_H-M	'P1'
_symmetry_Int_Tables_number	1
_symmetry_cell_setting	triclinic
loop_
_symmetry_equiv_pos_as_xyz
  x,y,z
_cell_length_a	23.096457
_cell_length_b	23.096457
_cell_length_c	16.704493
_cell_angle_alpha	62.458969
_cell_angle_beta	94.161640
_cell_angle_gamma	60.000612
loop_
_atom_site_label
_atom_site_type_symbol
_atom_site_fract_x
_atom_site_fract_y
_atom_site_fract_z
Zr1	Zr	0.552249	0.633748	-0.105349
O2	O	0.453073	0.754535	-0.233505
O3	O	0.582649	0.512961	-0.066064
O4	O	0.573859	0.633750	-0.233514
O5	O	0.468800	0.633745	0.066035
O6	O	0.669139	0.633751	-0.233518
O7	O	0.461863	0.633746	-0.066055
O8	O	0.684863	0.417682	0.066019
O9	O	0.453076	0.849814	-0.233503
O10	O	0.666723	0.562644	-0.049310
O11	O	0.600793	0.562642	0.049270
O12	O	0.590444	0.704855	-0.147881
O13	O	0.524514	0.704853	-0.049300
Zr14	Zr	0.715272	0.633749	0.105311
Zr15	Zr	0.704209	0.633751	-0.105356
Zr16	Zr	0.563311	0.633746	0.105319
Zr17	Zr	0.552252	0.785707	-0.105345
Zr18	Zr	0.715268	0.481789	0.105308
O19	O	0.684871	0.754536	0.066026
O20	O	0.669142	0.754539	-0.233516
O21	O	0.468803	0.754533	0.066037
O22	O	0.814447	0.512962	0.233468
O23	O	0.798718	0.512964	-0.066075
O24	O	0.598378	0.512958	0.233479
O25	O	0.798721	0.633752	-0.066072
O26	O	0.693661	0.633747	0.233476
O27	O	0.598381	0.633746	0.233481
O28	O	0.805657	0.633751	0.066018
O29	O	0.573864	0.849816	-0.233509
O30	O	0.693656	0.417681	0.233472
O31	O	0.814444	0.417683	0.233466
O32	O	0.805651	0.417684	0.066013
O33	O	0.461869	0.849813	-0.066050
O34	O	0.582658	0.849815	-0.066056
O35	O	0.677076	0.562642	0.147843
O36	O	0.743006	0.562644	0.049263
O37	O	0.666727	0.704855	-0.049307
O38	O	0.600797	0.704853	0.049273
C39	C	0.633755	0.443670	-0.000023
C40	C	0.633753	0.379160	-0.000024
C41	C	0.577461	-0.028872	-0.072785
C42	C	0.577455	0.031747	-0.072785
C43	C	0.633765	0.009570	-0.000019
C44	C	0.690077	-0.073236	0.072765
C45	C	0.690077	-0.133852	0.072768
N46	N	0.697169	0.065672	0.022010
N47	N	0.697166	0.123259	0.022001
C48	C	0.633766	0.192200	-0.000023
N49	N	0.570365	0.201387	-0.022056
N50	N	0.570369	0.143797	-0.022052
C51	C	0.633771	0.075292	-0.000014
C52	C	0.577449	0.340724	-0.072798
C53	C	0.577443	0.401342	-0.072791
C54	C	0.690070	0.296356	0.072755
C55	C	0.690071	0.235741	0.072752
C56	C	0.633760	0.257930	-0.000030
C57	C	0.443680	0.633745	-0.000009
C58	C	0.379169	0.633744	-0.000006
C59	C	0.388680	0.559514	0.051438
C60	C	0.328064	0.559512	0.051442
C61	C	0.257938	0.633746	-0.000016
C62	C	0.248429	0.707986	-0.051462
C63	C	0.309045	0.707986	-0.051457
N64	N	0.130746	0.689003	-0.083763
N65	N	0.073166	0.688998	-0.083767
C66	C	0.075304	0.633753	-0.000034
N67	N	0.137203	0.578500	0.083701
N68	N	0.194789	0.578502	0.083702
C69	C	0.192206	0.633755	-0.000027
C70	C	0.019092	0.559516	0.051419
C71	C	-0.041526	0.559518	0.051426
C72	C	-0.121161	0.707995	-0.051488
C73	C	-0.060543	0.707991	-0.051485
C74	C	0.009581	0.633749	-0.000034
C75	C	0.823840	0.633752	-0.000028
C76	C	0.888351	0.633753	-0.000032
C77	C	0.619923	0.633751	-0.263532
C78	C	0.615226	0.633751	-0.352966
C79	C	0.633765	0.823827	-0.000015
C80	C	0.633767	0.888337	-0.000013
C81	C	0.711404	0.633740	-0.521018
C82	C	0.706994	0.633740	-0.605049
C83	C	0.602001	0.633747	-0.605056
C84	C	0.606411	0.633747	-0.521025
C85	C	0.661113	0.633744	-0.479010
C86	C	0.665519	0.633749	-0.394981
C87	C	0.560530	0.633751	-0.394986
C88	C	0.556120	0.633751	-0.479017
C89	C	0.647598	0.633746	0.263494
C90	C	0.652294	0.633745	0.352928
C91	C	0.823835	0.443674	-0.000032
C92	C	0.888345	0.379164	-0.000037
C93	C	0.647593	0.443668	0.263490
C94	C	0.652287	0.379157	0.352923
C95	C	0.837672	0.443671	0.263481
C96	C	0.906878	0.379161	0.352910
C97	C	0.429848	0.823826	-0.263518
C98	C	0.360642	0.888336	-0.352947
C99	C	0.443685	0.823823	-0.000005
C100	C	0.379176	0.888333	-0.000000
C101	C	0.619928	0.823829	-0.263528
C102	C	0.615233	0.888340	-0.352960
C103	C	0.878820	0.348869	-0.051502
C104	C	0.939427	0.288264	-0.051526
C105	C	1.009558	0.257950	-0.000079
C106	C	1.019082	0.288251	0.051388
C107	C	0.958475	0.348859	0.051406
C108	C	0.694311	0.348862	0.446384
C109	C	0.698720	0.288255	0.530424
C110	C	0.661108	0.257940	0.521000
C111	C	0.619079	0.288241	0.427528
C112	C	0.614667	0.348851	0.343491
C113	C	0.973799	0.348867	0.343449
C114	C	1.038831	0.288261	0.427469
C115	C	1.036940	0.257946	0.520949
C116	C	0.970012	0.288246	0.530409
C117	C	0.904982	0.348855	0.446389
C118	C	0.293721	0.918637	-0.343486
C119	C	0.228689	0.979262	-0.427506
C120	C	0.230580	1.009580	-0.520987
C121	C	0.297508	0.979277	-0.530446
C122	C	0.362539	0.918657	-0.446427
C123	C	0.388700	0.918634	0.051456
C124	C	0.328092	0.979256	0.051457
C125	C	0.257960	1.009572	0.000007
C126	C	0.248437	0.979268	-0.051456
C127	C	0.309044	0.918652	-0.051462
C128	C	0.652854	0.918636	-0.343504
C129	C	0.648457	0.979243	-0.427528
C130	C	0.606435	1.009558	-0.521006
C131	C	0.568814	0.979256	-0.530460
C132	C	0.573215	0.918646	-0.446437
H133	H	0.735924	-0.091289	0.132013
C134	C	0.465840	0.885302	0.108055
N135	N	0.523939	0.860204	0.150682
C136	C	0.338585	1.012572	0.108081
N137	N	0.346490	1.037662	0.150733
H138	H	0.177623	1.058940	-0.589393
H139	H	0.208616	1.058930	0.000019
H140	H	-0.068291	0.768437	-0.093383
H141	H	1.093320	0.263597	0.419750
C142	C	0.171286	1.012613	-0.108032
N143	N	0.113175	1.037724	-0.150636
H144	H	0.602857	1.058911	-0.589414
C145	C	0.299576	1.012629	-0.633284
N146	N	0.301131	1.037746	-0.710744
C147	C	1.076220	0.191273	-0.000100
N148	N	1.126428	0.141049	-0.000116
H149	H	0.301279	0.893982	-0.093362
C150	C	0.689842	1.012568	-0.417106
N151	N	0.721013	1.037667	-0.409254
H152	H	0.966241	0.373517	0.093321
H153	H	0.821720	0.373550	-0.093409
H154	H	0.735924	0.168327	0.132007
C155	C	0.522621	1.012583	-0.633295
N156	N	0.487837	1.037678	-0.710754
H157	H	0.417026	0.893987	-0.454142
H158	H	0.588458	0.263549	0.419869
H159	H	0.687072	0.893963	-0.267397
H160	H	0.664707	0.208587	0.589436
C161	C	0.096231	0.477850	0.108027
N162	N	0.154331	0.416338	0.150668
H163	H	-0.033775	0.499068	0.093324
H164	H	0.755940	0.633746	-0.486814
H165	H	0.335809	0.499063	0.093334
H166	H	0.531594	0.099168	-0.132034
H167	H	0.542576	0.893986	-0.454150
C168	C	0.735686	0.382201	0.456775
N169	N	0.766849	0.407313	0.464610
H170	H	0.531606	-0.010797	-0.132047
H171	H	0.519578	0.633758	-0.360776
C172	C	0.752012	0.271957	0.152800
N173	N	0.798667	0.253580	0.213094
H174	H	0.968483	0.263554	0.606532
C175	C	0.465814	0.477846	0.108043
N176	N	0.523913	0.416332	0.150681
C177	C	0.928935	0.254937	-0.108136
N178	N	0.921031	0.229835	-0.150772
C179	C	0.752028	-0.224930	0.152816
N180	N	0.798694	-0.293531	0.213105
C181	C	-0.198298	0.789653	-0.108090
N182	N	-0.256401	0.851160	-0.150723
C183	C	0.541849	0.633721	-0.651268
N184	N	0.496546	0.633694	-0.686069
C185	C	0.515503	0.365131	-0.152853
N186	N	0.468844	0.383516	-0.213151
H187	H	0.710059	0.633750	-0.360775
C188	C	1.108482	0.191268	0.613364
N189	N	1.162370	0.141043	0.682968
C190	C	0.495955	0.633746	-0.525238
N191	N	0.450638	0.633741	-0.560050
C192	C	0.975897	0.382207	0.240628
N193	N	0.977483	0.407319	0.163185
H194	H	1.076191	0.263561	0.093275
H195	H	0.191328	0.768428	-0.093359
H196	H	0.850495	0.373512	0.454106
H197	H	0.292167	0.893955	-0.267377
H198	H	0.301296	0.768435	-0.093346
C199	C	0.155076	1.012583	-0.417079
N200	N	0.099633	1.037679	-0.409223
H201	H	0.580449	0.373509	0.267393
H202	H	0.531589	0.468757	-0.132052
C203	C	0.762319	0.633731	-0.651252
N204	N	0.803994	0.633723	-0.686050
C205	C	0.744964	0.254927	0.633233
N206	N	0.779797	0.229824	0.710666
