data_functionalizedCrystal
_audit_creation_method	'MofGen! by Chris Wilmer'
_symmetry_space_group_name_H-M	'P1'
_symmetry_Int_Tables_number	1
_symmetry_cell_setting	triclinic
loop_
_symmetry_equiv_pos_as_xyz
  x,y,z
_cell_length_a	8.597213
_cell_length_b	11.792241
_cell_length_c	7.088929
_cell_angle_alpha	83.733449
_cell_angle_beta	88.663806
_cell_angle_gamma	84.765068
loop_
_atom_site_label
_atom_site_type_symbol
_atom_site_fract_x
_atom_site_fract_y
_atom_site_fract_z
O1	O	2.034151	0.205124	-0.494056
O2	O	2.534151	0.705124	0.005944
O3	O	1.584775	0.212771	-0.420039
O4	O	2.084775	0.712771	0.079961
O5	O	1.820370	0.043980	-0.458830
O6	O	2.320370	0.543980	0.041170
O7	O	1.798557	0.373916	-0.455264
O8	O	2.298557	0.873916	0.044736
O9	O	1.851854	0.021370	-0.146039
O10	O	2.351854	0.521370	0.353961
O11	O	1.616260	0.190161	-0.107247
O12	O	2.116260	0.690161	0.392753
O13	O	2.065635	0.182514	-0.181265
O14	O	2.565635	0.682514	0.318735
Cu15	Cu	1.843822	0.184273	-0.115696
Cu16	Cu	2.343822	0.684273	0.384304
Cu17	Cu	1.806588	0.211012	-0.485608
Cu18	Cu	2.306588	0.711012	0.014392
O19	O	1.830041	0.351306	-0.142473
O20	O	2.330041	0.851306	0.357527
C21	C	1.542988	0.199386	-0.254167
C22	C	2.042988	0.699386	0.245833
C23	C	1.371566	0.193172	-0.225932
C24	C	1.871566	0.693172	0.274068
C25	C	1.834742	-0.009642	-0.302210
C26	C	2.334742	0.490358	0.197790
C27	C	1.830641	-0.135732	-0.301536
C28	C	2.330641	0.364268	0.198464
C29	C	1.823097	-0.366582	-0.300326
C30	C	2.323097	0.133418	0.199674
C31	C	1.827289	-0.238120	-0.300999
C32	C	2.327289	0.261880	0.199001
C33	C	2.107423	0.195900	-0.347141
C34	C	2.607423	0.695900	0.152859
C35	C	2.278843	0.202114	-0.375388
C36	C	2.778843	0.702114	0.124612
C37	C	1.815669	0.404928	-0.299098
C38	C	2.315669	0.904928	0.200902
C39	C	1.819768	0.531018	-0.299784
C40	C	2.319768	1.031018	0.200216
N41	N	1.870022	0.165466	0.144478
N42	N	2.370022	0.665466	0.644478
N43	N	1.780401	0.229811	-0.745784
N44	N	2.280401	0.729811	-0.245784
H45	H	1.319801	0.180767	-0.076371
H46	H	1.819801	0.680767	0.423629
F47	F	1.991449	0.078316	0.231209
F48	F	2.491449	0.578316	0.731209
F49	F	1.658996	0.316967	0.167490
F50	F	2.158996	0.816967	0.667490
H51	H	1.330599	0.214532	-0.524939
H52	H	1.830599	0.714532	-0.024939
