data_functionalizedCrystal
_audit_creation_method	'MofGen! by Chris Wilmer'
_symmetry_space_group_name_H-M	'P1'
_symmetry_Int_Tables_number	1
_symmetry_cell_setting	triclinic
loop_
_symmetry_equiv_pos_as_xyz
  x,y,z
_cell_length_a	6.817900
_cell_length_b	12.200722
_cell_length_c	19.453114
_cell_angle_alpha	94.897945
_cell_angle_beta	101.709288
_cell_angle_gamma	107.140920
loop_
_atom_site_label
_atom_site_type_symbol
_atom_site_fract_x
_atom_site_fract_y
_atom_site_fract_z
V1	V	-4.025490	-0.159908	-0.219074
O2	O	-3.993988	0.006455	-0.214827
O3	O	-3.995328	-0.315888	-0.217650
O4	O	-3.968181	-0.157987	-0.314586
O5	O	-4.021323	-0.152539	-0.117219
V6	V	-4.507910	-0.139945	-0.206883
O7	O	-4.289170	-0.203697	-0.245817
O8	O	-4.694427	-0.096155	-0.180139
O9	O	-4.314866	0.016035	-0.208307
O10	O	-4.656809	-0.306308	-0.211130
O11	O	-4.629474	-0.147314	-0.308737
O12	O	-4.342013	-0.141865	-0.111370
C13	C	-3.845054	-0.353896	-0.214213
C14	C	-3.901620	-0.481415	-0.213685
C15	C	-3.947552	-0.584974	-0.213249
C16	C	-4.005195	-0.714893	-0.212707
C17	C	-3.810424	-0.152476	-0.337864
C18	C	-3.844971	-0.151938	-0.415946
C19	C	-4.043657	-0.157443	-0.456206
C20	C	-4.076118	-0.156938	-0.529572
C21	C	-3.909894	-0.150950	-0.562678
C22	C	-3.711177	-0.145438	-0.522409
C23	C	-3.678716	-0.145932	-0.449043
N24	N	-3.857234	-0.211530	-0.681496
N25	N	-3.888084	-0.211064	-0.751191
C26	C	-4.007686	-0.149459	-0.783726
N27	N	-4.095309	-0.088354	-0.743935
N28	N	-4.064464	-0.088825	-0.674234
C29	C	-3.945072	-0.150413	-0.642231
C30	C	-4.241582	-0.154415	-0.903538
C31	C	-4.274032	-0.153902	-0.976905
C32	C	-3.909091	-0.142414	-0.969741
C33	C	-3.876640	-0.142915	-0.896375
C34	C	-4.042896	-0.148921	-0.863278
C35	C	-4.128483	0.054037	-0.211742
C36	C	-4.051155	0.181555	-0.212275
C37	C	-4.163112	-0.147380	-0.088089
C38	C	-4.107803	-0.147912	-0.010006
H39	H	-4.179036	-0.162330	-0.429263
H40	H	-4.435826	-0.158377	-1.009683
H41	H	-3.714856	-0.138444	-0.863596
H42	H	-3.773742	-0.137528	-0.996694
H43	H	-3.575836	-0.140559	-0.549368
H44	H	-4.237920	-0.161427	-0.562359
H45	H	-4.376955	-0.159302	-0.876589
C46	C	-3.460158	-0.139888	-0.404756
H47	H	-3.365806	-0.136255	-0.434978
H48	H	-3.406936	-0.072607	-0.369538
H49	H	-3.472898	-0.207096	-0.382439
