data_functionalizedCrystal
_audit_creation_method	'MofGen! by Chris Wilmer'
_symmetry_space_group_name_H-M	'P1'
_symmetry_Int_Tables_number	1
_symmetry_cell_setting	triclinic
loop_
_symmetry_equiv_pos_as_xyz
  x,y,z
_cell_length_a	17.699104
_cell_length_b	17.699083
_cell_length_c	16.776229
_cell_angle_alpha	90.001567
_cell_angle_beta	90.008015
_cell_angle_gamma	83.287266
loop_
_atom_site_label
_atom_site_type_symbol
_atom_site_fract_x
_atom_site_fract_y
_atom_site_fract_z
O1	O	1.004069	0.095781	0.066306
O2	O	0.783693	0.108217	0.066304
O3	O	0.900107	-0.008189	0.066298
O4	O	0.887655	0.212188	0.066312
O5	O	0.900090	-0.008183	-0.066278
O6	O	0.783676	0.108224	-0.066272
O7	O	1.004052	0.095788	-0.066271
Zn8	Zn	0.893862	0.102006	-0.087321
Zn9	Zn	0.893884	0.101998	0.087354
O10	O	0.887638	0.212194	-0.066264
C11	C	0.755488	0.107772	0.000016
C12	C	0.671471	0.106427	0.000015
C13	C	0.899653	-0.036383	0.000010
C14	C	0.898314	-0.120402	0.000009
C15	C	0.146600	0.167171	0.000027
C16	C	0.225543	0.168430	0.000029
C17	C	0.274161	0.100095	0.000025
C18	C	0.243831	0.030496	0.000026
C19	C	0.164889	0.029238	0.000029
C20	C	0.562197	0.035569	0.000014
C21	C	0.641144	0.036833	0.000008
C22	C	0.622852	0.174762	0.000014
C23	C	0.543909	0.173503	0.000017
C24	C	0.513587	0.103905	0.000022
C25	C	0.427987	0.102541	0.000021
C26	C	0.359759	0.101459	0.000020
C27	C	0.966647	-0.169017	0.000009
C28	C	0.965385	-0.247961	0.000016
C29	C	0.895789	-0.278287	0.000018
C30	C	0.827451	-0.229665	0.000021
C31	C	0.828714	-0.150723	0.000019
C32	C	0.822356	-0.548028	0.000027
C33	C	0.821098	-0.626976	0.000026
C34	C	0.959026	-0.645266	0.000024
C35	C	0.960289	-0.566324	0.000022
C36	C	0.891952	-0.517709	0.000029
C37	C	0.893321	-0.432110	0.000023
C38	C	0.894419	-0.363885	0.000018
C39	C	1.032258	0.096233	0.000020
C40	C	1.116275	0.097578	0.000026
C41	C	0.888093	0.240388	0.000026
C42	C	0.889431	0.324406	0.000031
N43	N	0.893852	0.102012	-0.206532
C44	C	0.945454	0.050461	-0.751700
C45	C	0.945450	0.050466	-0.668247
C46	C	0.893888	0.101995	-0.626531
C47	C	0.842331	0.153527	-0.668272
C48	C	0.842339	0.153524	-0.751723
C49	C	0.842299	0.153538	-0.331725
C50	C	0.842293	0.153535	-0.248268
C51	C	0.945410	0.050480	-0.248249
C52	C	0.945418	0.050478	-0.331700
C53	C	0.893864	0.102012	-0.373434
C54	C	0.893870	0.102006	-0.463922
C55	C	0.893878	0.101997	-0.536045
N56	N	0.893900	0.101987	0.206566
H57	H	0.250230	0.225100	0.000038
H58	H	1.021028	-0.287541	0.000014
H59	H	0.537518	-0.021102	0.000016
H60	H	0.800359	0.195483	-0.785703
H61	H	1.014670	-0.684858	0.000022
H62	H	0.647550	0.231432	0.000013
H63	H	0.283422	-0.025143	0.000027
H64	H	0.773070	-0.111140	0.000020
C65	C	1.047370	-0.051411	-0.676611
C66	C	1.002117	-0.006177	-0.622373
H67	H	1.082351	-0.086385	-0.648288
H68	H	1.074538	-0.019942	-0.709151
H69	H	1.015909	-0.078595	-0.709168
H70	H	1.033577	0.021011	-0.589819
H71	H	0.974947	-0.037651	-0.589818
H72	H	0.140200	-0.027432	0.000030
C73	C	0.047204	0.245786	-0.068120
C74	C	0.093164	0.242289	0.000031
H75	H	0.014221	0.292165	-0.068115
H76	H	0.017845	0.204165	-0.068116
H77	H	0.078381	0.243411	-0.114348
H78	H	0.061987	0.244658	0.046260
H79	H	0.122525	0.283921	0.000035
C80	C	0.711229	0.198135	-0.642618
C81	C	0.785651	0.210171	-0.622423
H82	H	0.676237	0.233108	-0.614318
H83	H	0.703108	0.147638	-0.628940
H84	H	0.703868	0.205508	-0.698293
H85	H	0.793014	0.202792	-0.566749
H86	H	0.793776	0.260680	-0.636096
H87	H	0.680728	-0.018817	0.000006
C88	C	0.684876	-0.600971	0.000051
C89	C	0.744592	-0.660312	0.000039
H90	H	0.637649	-0.621553	0.000063
H91	H	0.688222	-0.570562	-0.046179
H92	H	0.688253	-0.570560	0.046286
H93	H	0.741218	-0.690719	-0.046200
H94	H	0.741245	-0.690733	0.046273
H95	H	1.023320	-0.144333	0.000002
C96	C	0.504025	0.290675	0.068183
C97	C	0.490469	0.248619	0.000026
H98	H	0.471030	0.337046	0.068192
H99	H	0.555374	0.301383	0.068175
H100	H	0.494852	0.262118	0.114408
H101	H	0.499648	0.277173	-0.046198
H102	H	0.439108	0.237912	0.000028
C103	C	1.096504	-0.592335	0.000030
C104	C	1.036791	-0.532991	0.000024
H105	H	1.143733	-0.571755	0.000038
H106	H	1.093141	-0.622743	-0.046200
H107	H	1.093141	-0.622745	0.046265
H108	H	1.040151	-0.502584	-0.046214
H109	H	1.040156	-0.502570	0.046259
H110	H	0.766711	-0.508455	0.000033
C111	C	0.764268	-0.342554	0.000015
C112	C	0.750949	-0.262997	0.000020
H113	H	0.717037	-0.363129	0.000007
H114	H	0.792398	-0.359246	0.046245
H115	H	0.792394	-0.359241	-0.046220
H116	H	0.722828	-0.246309	0.046258
H117	H	0.722808	-0.246299	-0.046215
H118	H	0.987439	0.008497	-0.785659
H119	H	0.987402	0.008516	-0.365663
H120	H	0.800320	0.195497	-0.365698
C121	C	0.961983	-0.052575	-0.154440
C122	C	1.002069	-0.006197	-0.202393
H123	H	0.996956	-0.087571	-0.126135
H124	H	0.930520	-0.079726	-0.187016
H125	H	0.931297	-0.021879	-0.117639
H126	H	1.032752	-0.036892	-0.239198
H127	H	1.033546	0.020957	-0.169814
C128	C	0.740372	0.255423	-0.256665
C129	C	0.785618	0.210186	-0.202412
H130	H	0.705389	0.290396	-0.228353
H131	H	0.713206	0.223955	-0.289220
H132	H	0.771837	0.282606	-0.289207
H133	H	0.754152	0.182998	-0.169874
H134	H	0.812785	0.241657	-0.169844
