data_functionalizedCrystal
_audit_creation_method	'MofGen! by Chris Wilmer'
_symmetry_space_group_name_H-M	'P1'
_symmetry_Int_Tables_number	1
_symmetry_cell_setting	triclinic
loop_
_symmetry_equiv_pos_as_xyz
  x,y,z
_cell_length_a	21.295419
_cell_length_b	29.839132
_cell_length_c	21.295412
_cell_angle_alpha	90.031603
_cell_angle_beta	89.976510
_cell_angle_gamma	89.939935
loop_
_atom_site_label
_atom_site_type_symbol
_atom_site_fract_x
_atom_site_fract_y
_atom_site_fract_z
Zn1	Zn	0.962285	0.178687	-0.355907
Zn2	Zn	0.962162	0.253815	-0.250631
Zn3	Zn	0.857010	0.178719	-0.250652
Zn4	Zn	0.856950	0.253810	-0.355862
O5	O	0.909602	0.216258	-0.303263
O6	O	1.050358	0.188641	-0.341952
O7	O	0.948187	0.243868	-0.162544
O8	O	0.871051	0.115847	-0.264642
O9	O	1.050267	0.243837	-0.264606
O10	O	0.948396	0.115824	-0.341972
O11	O	0.870932	0.188695	-0.162560
O12	O	0.768912	0.188691	-0.264599
O13	O	0.870949	0.243830	-0.443958
O14	O	0.768869	0.243861	-0.341896
O15	O	0.948338	0.188637	-0.443991
O16	O	0.948129	0.316681	-0.264562
O17	O	0.870830	0.316678	-0.341876
C18	C	0.746050	0.216279	-0.303245
C19	C	0.676082	0.216299	-0.303253
C20	C	0.643285	0.187606	-0.343589
C21	C	0.577542	0.187594	-0.343592
C22	C	0.544599	0.216283	-0.303264
C23	C	0.577404	0.244979	-0.262920
C24	C	0.643146	0.244987	-0.262914
N25	N	0.441310	0.255591	-0.298344
N26	N	0.378858	0.255582	-0.298353
C27	C	0.346525	0.216260	-0.303278
N28	N	0.379002	0.176946	-0.308206
N29	N	0.441459	0.176956	-0.308201
C30	C	0.473314	0.216277	-0.303266
C31	C	0.242442	0.187551	-0.343619
C32	C	0.176698	0.187538	-0.343617
C33	C	0.176562	0.244927	-0.262949
C34	C	0.242304	0.244936	-0.262948
C35	C	0.275240	0.216248	-0.303286
C36	C	0.909477	0.332980	-0.303226
C37	C	0.909481	0.382915	-0.303231
C38	C	0.949879	0.692547	-0.263039
C39	C	0.949939	0.880220	-0.263053
O40	O	0.984220	0.904475	-0.228870
N41	N	0.909667	0.903700	-0.303273
C42	C	0.869380	0.880258	-0.343495
O43	O	0.835133	0.904535	-0.377710
C44	C	0.869324	0.692586	-0.343484
C45	C	0.909594	0.669109	-0.303257
C46	C	0.990147	0.669070	-0.222816
C47	C	0.990129	0.622154	-0.222810
C48	C	0.949844	0.598716	-0.263028
C49	C	0.909576	0.622193	-0.303251
C50	C	0.829041	0.669145	-0.383709
C51	C	0.829031	0.622224	-0.383704
C52	C	0.869301	0.598747	-0.343476
C53	C	0.869273	0.551840	-0.343463
N54	N	0.909545	0.528360	-0.303243
C55	C	0.949830	0.551798	-0.263026
C56	C	0.869412	0.978789	-0.343498
C57	C	0.869425	1.025707	-0.343500
C58	C	0.949985	1.025665	-0.263059
C59	C	0.949968	0.978747	-0.263054
C60	C	0.909684	0.955309	-0.303278
C61	C	0.949790	0.453272	-0.263017
C62	C	0.949766	0.406353	-0.263013
C63	C	0.869209	0.406398	-0.343456
C64	C	0.869230	0.453314	-0.343458
C65	C	0.909525	0.476750	-0.303236
O66	O	0.835016	0.527555	-0.377634
O67	O	0.984083	0.527513	-0.228826
C68	C	0.949897	0.739462	-0.263045
C69	C	0.909630	0.762940	-0.303268
C70	C	0.869345	0.739502	-0.343486
C71	C	0.909643	0.809858	-0.303270
C72	C	0.949928	0.833296	-0.263052
C73	C	0.990200	0.809816	-0.222832
C74	C	0.990182	0.762901	-0.222827
C75	C	0.829073	0.762981	-0.383706
C76	C	0.829093	0.809897	-0.383708
C77	C	0.869379	0.833335	-0.343490
C78	C	1.073792	0.216236	-0.303281
C79	C	1.143760	0.216227	-0.303289
C80	C	0.909651	0.216230	-0.467453
C81	C	0.909672	0.216218	-0.537422
C82	C	0.909720	1.099079	-0.303301
C83	C	0.909710	1.049145	-0.303282
C84	C	0.869456	0.187486	-0.570286
C85	C	0.869454	0.187478	-0.636029
C86	C	0.909679	0.216196	-0.668904
C87	C	0.949897	0.244934	-0.636031
C88	C	0.949894	0.244944	-0.570290
N89	N	0.964782	0.219617	-0.772142
N90	N	0.964783	0.219604	-0.834594
C91	C	0.909690	0.216166	-0.866979
N92	N	0.854594	0.212733	-0.834553
N93	N	0.854594	0.212743	-0.772096
C94	C	0.909686	0.216188	-0.740190
C95	C	0.869468	0.187424	-0.971129
C96	C	0.869465	0.187419	-1.036873
C97	C	0.949914	0.244872	-1.036874
C98	C	0.949912	0.244880	-0.971132
C99	C	0.909690	0.216153	-0.938263
C100	C	0.909589	0.216253	-0.139712
C101	C	0.909690	0.216138	-0.069744
H102	H	0.149740	0.268286	-0.230114
H103	H	0.982787	1.044757	-0.230312
H104	H	0.982648	0.268316	-0.662802
H105	H	0.982668	0.268255	-1.063640
H106	H	0.269008	0.268303	-0.230104
H107	H	0.836706	0.164079	-0.662793
N108	N	0.828390	0.158087	-0.937537
N109	N	0.850576	0.129463	-0.900876
H110	H	0.821566	0.108743	-0.877150
N111	N	0.676660	0.274300	-0.221721
N112	N	0.735357	0.274306	-0.221726
H113	H	0.759029	0.295009	-0.192634
H114	H	0.796268	0.743901	-0.416457
N115	N	0.143207	0.158223	-0.384828
N116	N	0.150573	0.161259	-0.442906
H117	H	0.126921	0.140554	-0.472012
N118	N	1.031343	0.833770	-0.181750
N119	N	1.031345	0.875660	-0.181766
H120	H	1.060401	0.892580	-0.152755
N121	N	0.991006	0.274214	-0.937547
N122	N	0.991004	0.274215	-0.878851
H123	H	1.020029	0.294932	-0.855130
H124	H	0.670097	0.164246	-0.376435
N125	N	0.990936	0.477208	-0.221919
N126	N	0.968814	0.503423	-0.181785
H127	H	0.997869	0.520328	-0.152756
H128	H	0.982645	0.268341	-0.543532
N129	N	0.543758	0.274278	-0.221718
N130	N	0.507081	0.258428	-0.181650
H131	H	0.483319	0.279120	-0.152546
H132	H	0.550833	0.164226	-0.376437
N133	N	0.990904	0.382379	-0.221912
N134	N	1.026869	0.403315	-0.186008
H135	H	1.055922	0.386386	-0.156981
H136	H	0.982760	0.959634	-0.230298
H137	H	0.269260	0.164189	-0.376461
N138	N	0.787963	0.833875	-0.424810
N139	N	0.810104	0.860013	-0.464950
H140	H	0.781061	0.876947	-0.493981
H141	H	1.022955	0.688148	-0.190065
H142	H	1.022922	0.603042	-0.190056
H143	H	0.836440	0.472430	-0.376216
H144	H	0.836712	0.164024	-1.063631
H145	H	0.836606	0.959709	-0.376254
N146	N	0.828276	1.049678	-0.384585
N147	N	0.792312	1.028740	-0.420488
H148	H	0.763250	1.045668	-0.449508
H149	H	0.836407	0.387308	-0.376199
N150	N	0.787901	0.693112	-0.424804
N151	N	0.751943	0.672170	-0.460710
H152	H	0.722885	0.689096	-0.489737
H153	H	0.836702	0.164096	-0.543529
H154	H	0.796228	0.603144	-0.416461
N155	N	1.031320	0.738930	-0.181730
N156	N	1.067282	0.759870	-0.145827
H157	H	1.096338	0.742944	-0.116799
