data_functionalizedCrystal
_audit_creation_method	'MofGen! by Chris Wilmer'
_symmetry_space_group_name_H-M	'P1'
_symmetry_Int_Tables_number	1
_symmetry_cell_setting	triclinic
loop_
_symmetry_equiv_pos_as_xyz
  x,y,z
_cell_length_a	12.759395
_cell_length_b	19.121063
_cell_length_c	12.759387
_cell_angle_alpha	92.403868
_cell_angle_beta	89.980929
_cell_angle_gamma	92.470426
loop_
_atom_site_label
_atom_site_type_symbol
_atom_site_fract_x
_atom_site_fract_y
_atom_site_fract_z
Zn1	Zn	1.588321	-0.279550	-0.611793
Zn2	Zn	1.580680	-0.397017	-0.443588
Zn3	Zn	1.412621	-0.279587	-0.436132
Zn4	Zn	1.405079	-0.396967	-0.619224
O5	O	1.496675	-0.338280	-0.527684
O6	O	1.734328	-0.295137	-0.589490
O7	O	1.558346	-0.381476	-0.295580
O8	O	1.442282	-0.181298	-0.453204
O9	O	1.728715	-0.381439	-0.465911
O10	O	1.571368	-0.181270	-0.582261
O11	O	1.434873	-0.295201	-0.290102
O12	O	1.264600	-0.295153	-0.460409
O13	O	1.429428	-0.381355	-0.765257
O14	O	1.259059	-0.381392	-0.594926
O15	O	1.564055	-0.295089	-0.759797
O16	O	1.551033	-0.495294	-0.473116
O17	O	1.422019	-0.495258	-0.602155
C18	C	1.223708	-0.338272	-0.527665
C19	C	1.106931	-0.338285	-0.527683
C20	C	1.101190	-0.428230	-0.667547
C21	C	1.043459	-0.473209	-0.737483
C22	C	0.933737	-0.473217	-0.737496
C23	C	0.881744	-0.428241	-0.667569
C24	C	0.939475	-0.383263	-0.597633
C25	C	1.049199	-0.383261	-0.597625
C26	C	0.945216	-0.293315	-0.457776
C27	C	1.054938	-0.293309	-0.457756
C28	C	0.893223	-0.248339	-0.387849
C29	C	0.950954	-0.203363	-0.317907
C30	C	1.060683	-0.203357	-0.317895
C31	C	1.112669	-0.248330	-0.387821
C32	C	1.484907	-0.520760	-0.539274
C33	C	1.479968	-0.598826	-0.544267
C34	C	1.544871	-0.635497	-0.479485
C35	C	1.540233	-0.708848	-0.484187
C36	C	1.470686	-0.745527	-0.553667
C37	C	1.405780	-0.708851	-0.618457
C38	C	1.410425	-0.635501	-0.613759
C39	C	1.453304	-0.966996	-0.571215
C40	C	1.448663	-1.040351	-0.575906
C41	C	1.583117	-1.040343	-0.441637
C42	C	1.587750	-0.966992	-0.436941
C43	C	1.522849	-0.930322	-0.501734
C44	C	1.465940	-0.820503	-0.558473
C45	C	1.527600	-0.855347	-0.496933
C46	C	1.770708	-0.338289	-0.527703
C47	C	1.887485	-0.338293	-0.527712
C48	C	1.496752	-0.338212	-0.801713
C49	C	1.496785	-0.338184	-0.918488
C50	C	1.508518	-0.155088	-0.516072
C51	C	1.513565	-0.077022	-0.511123
C52	C	1.637042	-0.248305	-1.132244
C53	C	1.707121	-0.203404	-1.074540
C54	C	1.707090	-0.203427	-0.964820
C55	C	1.636974	-0.248358	-0.912801
C56	C	1.566895	-0.293259	-0.970505
C57	C	1.566932	-0.293229	-1.080227
C58	C	1.426706	-0.383085	-0.976192
C59	C	1.426730	-0.383059	-1.085912
C60	C	1.356590	-0.428015	-0.924173
C61	C	1.286505	-0.472914	-0.981877
C62	C	1.286538	-0.472888	-1.091603
C63	C	1.356651	-0.427960	-1.143615
C64	C	1.496662	-0.338297	-0.254718
C65	C	1.496846	-0.338128	-0.137931
H66	H	1.085804	-0.509826	-0.794418
C67	C	0.870230	-0.522696	-0.814427
N68	N	0.822397	-0.559964	-0.872370
C69	C	1.381964	-0.926669	-0.642544
N70	N	1.328247	-0.896292	-0.696292
C71	C	1.621376	-0.595157	-0.403048
N72	N	1.679005	-0.564775	-0.345477
H73	H	1.635957	-1.070207	-0.388888
H74	H	1.356679	-0.427930	-1.232955
C75	C	1.209444	-0.522284	-1.155069
N76	N	1.151373	-0.559489	-1.202867
C77	C	1.124179	-0.153876	-0.240960
N78	N	1.172001	-0.116606	-0.183009
H79	H	0.792402	-0.428246	-0.667595
C80	C	1.637075	-0.248270	-1.252938
N81	N	1.637102	-0.248242	-1.343847
H82	H	1.357576	-0.605644	-0.666513
C83	C	1.221887	-0.428226	-0.667538
N84	N	1.312798	-0.428222	-0.667536
C85	C	1.636949	-0.248384	-0.792106
N86	N	1.636928	-0.248404	-0.701197
H87	H	0.803882	-0.248346	-0.387869
C88	C	1.329274	-0.749200	-0.694882
N89	N	1.271644	-0.779590	-0.752443
C90	C	1.784236	-0.153976	-1.131768
N91	N	1.842317	-0.116746	-1.174870
C92	C	1.233366	-0.248333	-0.387808
N93	N	1.324276	-0.248336	-0.387803
C94	C	1.664231	-0.926651	-0.360481
N95	N	1.721824	-0.896266	-0.302877
C96	C	1.611624	-0.749183	-0.412915
N97	N	1.665399	-0.779563	-0.359227
H98	H	0.908613	-0.166744	-0.260982
H99	H	1.392042	-1.070213	-0.632503
H100	H	1.584230	-0.825481	-0.440366
H101	H	1.409313	-0.850375	-0.615042
C102	C	1.784179	-0.154034	-0.901344
N103	N	1.842241	-0.116829	-0.853534
C104	C	1.209385	-0.522332	-0.924649
N105	N	1.151296	-0.559553	-0.881541
H106	H	1.356574	-0.428034	-0.834833
