data_functionalizedCrystal
_audit_creation_method	'MofGen! by Chris Wilmer'
_symmetry_space_group_name_H-M	'P1'
_symmetry_Int_Tables_number	1
_symmetry_cell_setting	triclinic
loop_
_symmetry_equiv_pos_as_xyz
  x,y,z
_cell_length_a	33.510554
_cell_length_b	33.509711
_cell_length_c	33.506470
_cell_angle_alpha	60.004186
_cell_angle_beta	60.008358
_cell_angle_gamma	59.994760
loop_
_atom_site_label
_atom_site_type_symbol
_atom_site_fract_x
_atom_site_fract_y
_atom_site_fract_z
O1	O	0.055430	-0.583081	0.487524
O2	O	0.555430	-0.083081	0.987524
O3	O	0.020931	-0.453975	0.392819
O4	O	0.520931	0.046025	0.892819
O5	O	0.102693	-0.535652	0.392731
O6	O	0.602693	-0.035652	0.892731
O7	O	-0.026332	-0.501404	0.487613
O8	O	0.473668	-0.001404	0.987613
O9	O	0.129823	-0.508526	0.419767
O10	O	0.629823	-0.008526	0.919767
O11	O	0.048062	-0.426850	0.419856
O12	O	0.548062	0.073150	0.919856
O13	O	0.082561	-0.555956	0.514561
O14	O	0.582561	-0.055956	1.014561
Cu15	Cu	0.067789	-0.488926	0.469677
Cu16	Cu	0.567789	0.011074	0.969677
Cu17	Cu	0.035703	-0.521005	0.437703
Cu18	Cu	0.535703	-0.021005	0.937703
O19	O	0.000799	-0.474279	0.514649
O20	O	0.500799	0.025721	1.014649
N21	N	0.090357	-0.466366	0.492168
N22	N	0.590357	0.033634	0.992168
N23	N	0.013139	-0.543569	0.415212
N24	N	0.513139	-0.043569	0.915212
C25	C	0.143028	-0.279707	0.544737
C26	C	0.643028	0.220293	1.044737
C27	C	0.143165	-0.413746	0.678712
C28	C	0.643165	0.086254	1.178712
C29	C	0.143043	-0.413725	0.544739
C30	C	0.643043	0.086275	1.044739
C31	C	0.277090	-0.413694	0.544637
C32	C	0.777090	0.086306	1.044637
C33	C	0.157791	-0.323929	0.559462
C34	C	0.657791	0.176071	1.059462
C35	C	0.157869	-0.398994	0.634489
C36	C	0.657869	0.101006	1.134489
C37	C	0.232865	-0.398963	0.559407
C38	C	0.732865	0.101037	1.059407
C39	C	0.157801	-0.398982	0.559463
C40	C	0.657801	0.101018	1.059463
C41	C	0.124237	-0.223419	0.525994
C42	C	0.624237	0.276581	1.025994
C43	C	0.124262	-0.432490	0.525997
C44	C	0.624262	0.067510	1.025997
C45	C	0.176583	-0.380217	0.578205
C46	C	0.676583	0.119783	1.078205
C47	C	0.358938	-0.399566	0.501510
C48	C	0.858938	0.100434	1.001510
C49	C	0.410104	-0.416609	0.484423
C50	C	0.910104	0.083391	0.984423
C51	C	0.410135	-0.499402	0.515995
C52	C	0.910135	0.000598	1.015995
C53	C	0.358969	-0.482358	0.533084
C54	C	0.858969	0.017642	1.033084
C55	C	0.136554	-0.197822	0.475693
C56	C	0.636554	0.302178	0.975693
C57	C	0.119469	-0.146653	0.458657
C58	C	0.619469	0.353347	0.958657
C59	C	0.077755	-0.146680	0.542223
C60	C	0.577755	0.353320	1.042223
C61	C	0.094840	-0.197850	0.559260
C62	C	0.594840	0.302150	1.059260
C63	C	0.073954	-0.420144	0.538396
C64	C	0.573954	0.079856	1.038396
C65	C	0.056884	-0.437203	0.521352
C66	C	0.556884	0.062797	1.021352
C67	C	0.140427	-0.478952	0.479524
C68	C	0.640427	0.021048	0.979524
C69	C	0.157498	-0.461894	0.496561
C70	C	0.657498	0.038106	0.996561
C71	C	0.074158	-0.420182	0.760618
C72	C	0.574158	0.079818	1.260618
C73	C	0.057149	-0.437256	0.811786
C74	C	0.557149	0.062744	1.311786
C75	C	0.140732	-0.479014	0.811717
C76	C	0.640732	0.020986	1.311717
C77	C	0.157740	-0.461942	0.760547
C78	C	0.657740	0.038058	1.260547
C79	C	0.124452	-0.432525	0.734999
C80	C	0.624452	0.067475	1.234999
C81	C	0.333372	-0.432439	0.525839
C82	C	0.833372	0.067561	1.025839
C83	C	-0.020612	-0.577650	0.170305
C84	C	0.479388	-0.077650	0.670305
C85	C	-0.020943	-0.788098	0.380897
C86	C	0.479057	-0.288098	0.880897
C87	C	-0.020912	-0.577638	0.380991
C88	C	0.479088	-0.077638	0.880991
C89	C	-0.231336	-0.577418	0.380585
C90	C	0.268664	-0.077418	0.880585
C91	C	-0.129735	-0.611383	0.346870
C92	C	0.370265	-0.111383	0.846870
C93	C	-0.054722	-0.611464	0.347017
C94	C	0.445278	-0.111464	0.847017
C95	C	-0.073450	-0.630202	0.328195
C96	C	0.426550	-0.130202	0.828195
C97	C	-0.087616	-0.712029	0.371239
C98	C	0.412384	-0.212029	0.871239
C99	C	-0.070599	-0.763199	0.388315
C100	C	0.429401	-0.263199	0.888315
C101	C	0.012191	-0.763282	0.356872
C102	C	0.512191	-0.263282	0.856872
C103	C	-0.004828	-0.712113	0.339795
C104	C	0.495172	-0.212113	0.839795
C105	C	-0.155381	-0.623711	0.397158
C106	C	0.344619	-0.123711	0.897158
C107	C	-0.206547	-0.606601	0.414133
C108	C	0.293453	-0.106601	0.914133
C109	C	-0.206417	-0.564839	0.330529
C110	C	0.293583	-0.064839	0.830529
C111	C	-0.155251	-0.581949	0.313554
C112	C	0.344749	-0.081949	0.813554
C113	C	-0.067051	-0.561160	0.334643
C114	C	0.432949	-0.061160	0.834643
C115	C	-0.050026	-0.544131	0.351759
C116	C	0.449974	-0.044131	0.851759
C117	C	-0.008343	-0.627704	0.393612
C118	C	0.491657	-0.127704	0.893612
C119	C	-0.025368	-0.644736	0.376502
C120	C	0.474632	-0.144736	0.876502
C121	C	-0.066922	-0.561168	0.246303
C122	C	0.433078	-0.061168	0.746303
C123	C	-0.049794	-0.544141	0.195134
C124	C	0.450206	-0.044141	0.695134
C125	C	-0.008048	-0.627719	0.195183
C126	C	0.491952	-0.127719	0.695183
C127	C	-0.025175	-0.644745	0.246352
C128	C	0.474825	-0.144745	0.746352
C129	C	-0.054614	-0.611468	0.271911
C130	C	0.445386	-0.111468	0.771911
C131	C	-0.054732	-0.686488	0.346980
C132	C	0.445268	-0.186488	0.846980
C133	C	-0.002117	-0.558258	0.114025
C134	C	0.497883	-0.058258	0.614025
C135	C	-0.002879	-0.844379	0.399940
C136	C	0.497121	-0.344379	0.899940
C137	C	-0.002504	-0.558243	0.399473
C138	C	0.497496	-0.058243	0.899473
C139	C	-0.287615	-0.558285	0.398601
C140	C	0.212385	-0.058285	0.898601
N141	N	0.434975	-0.466279	0.491900
N142	N	0.934975	0.033721	0.991900
O143	O	0.591199	-0.470749	0.375150
O144	O	1.091199	0.029251	0.875150
O145	O	0.591395	-0.565767	0.504116
O146	O	1.091395	-0.065767	1.004116
O147	O	0.591311	-0.565550	0.422329
O148	O	1.091311	-0.065550	0.922329
O149	O	0.591283	-0.470966	0.456937
O150	O	1.091283	0.029034	0.956937
O151	O	0.510024	-0.538522	0.449509
O152	O	1.010024	-0.038522	0.949509
O153	O	0.510108	-0.538739	0.531297
O154	O	1.010108	-0.038739	1.031297
O155	O	0.509913	-0.443721	0.402330
O156	O	1.009913	0.056279	0.902330
Cu157	Cu	0.502588	-0.488762	0.469295
Cu158	Cu	1.002588	0.011238	0.969295
Cu159	Cu	0.598719	-0.520726	0.437151
Cu160	Cu	1.098719	-0.020726	0.937151
O161	O	0.509997	-0.443938	0.484117
O162	O	1.009997	0.056062	0.984117
N163	N	0.666332	-0.543209	0.414541
N164	N	1.166332	-0.043209	0.914541
N165	N	0.090323	-0.121809	0.492157
N166	N	0.590323	0.378191	0.992157
O167	O	-0.026342	0.034503	0.487582
O168	O	0.473658	0.534503	0.987582
O169	O	0.102626	0.034543	0.392540
O170	O	0.602626	0.534543	0.892540
O171	O	0.020797	0.034507	0.392812
O172	O	0.520797	0.534507	0.892812
O173	O	0.055487	0.034539	0.487310
O174	O	0.555487	0.534539	0.987310
O175	O	0.047933	-0.046785	0.419900
O176	O	0.547933	0.453215	0.919900
O177	O	0.129763	-0.046749	0.419628
O178	O	0.629763	0.453251	0.919628
O179	O	0.000794	-0.046789	0.514670
O180	O	0.500794	0.453211	1.014670
Cu181	Cu	0.067756	-0.054192	0.469623
Cu182	Cu	0.567756	0.445808	0.969623
Cu183	Cu	0.035664	0.041946	0.437588
Cu184	Cu	0.535664	0.541946	0.937588
O185	O	0.082623	-0.046753	0.514399
O186	O	0.582623	0.453247	1.014399
N187	N	0.013091	0.109564	0.415054
N188	N	0.513091	0.609564	0.915054
N189	N	0.090671	-0.466416	0.836606
N190	N	0.590671	0.033584	1.336606
O191	O	0.086120	-0.583065	0.992910
O192	O	0.586120	-0.083065	1.492910
O193	O	-0.008880	-0.454051	0.992954
O194	O	0.491120	0.045949	1.492954
O195	O	-0.008658	-0.535864	0.992931
O196	O	0.491342	-0.035864	1.492931
O197	O	0.085897	-0.501252	0.992933
O198	O	0.585897	-0.001252	1.492933
O199	O	0.018407	-0.508749	0.911642
O200	O	0.518407	-0.008749	1.411642
O201	O	0.018185	-0.426936	0.911665
O202	O	0.518185	0.073064	1.411665
O203	O	0.113185	-0.555949	0.911621
O204	O	0.613185	-0.055949	1.411621
Cu205	Cu	0.068156	-0.488967	0.904221
Cu206	Cu	0.568156	0.011033	1.404221
Cu207	Cu	0.036148	-0.521034	1.000355
Cu208	Cu	0.536148	-0.021034	1.500355
O209	O	0.112963	-0.474136	0.911644
O210	O	0.612963	0.025864	1.411644
N211	N	0.013633	-0.543590	1.067970
N212	N	0.513633	-0.043590	1.567970
C213	C	0.031262	-0.424144	0.393290
C214	C	0.531262	0.075856	0.893290
C215	C	0.132513	-0.525291	0.393180
C216	C	0.632513	-0.025291	0.893180
C217	C	0.072229	-0.585787	0.514090
C218	C	0.572229	-0.085787	1.014090
C219	C	-0.029022	-0.484640	0.514200
C220	C	0.470978	0.015360	1.014200
C221	C	0.550775	-0.565338	0.533954
C222	C	1.050775	-0.065338	1.033954
C223	C	0.550672	-0.565070	0.432670
C224	C	1.050672	-0.065070	0.932670
C225	C	0.550530	-0.444149	0.372492
C226	C	1.050530	0.055851	0.872492
C227	C	0.550635	-0.444418	0.473776
C228	C	1.050635	0.055582	0.973776
C229	C	0.132408	-0.005998	0.392963
C230	C	0.632408	0.494002	0.892963
C231	C	0.031106	-0.006142	0.393333
C232	C	0.531106	0.493858	0.893333
C233	C	-0.029021	-0.006147	0.514213
C234	C	0.470979	0.493853	1.014213
C235	C	0.072314	-0.006104	0.513878
C236	C	0.572314	0.493896	1.013878
C237	C	-0.008430	-0.424240	0.952316
C238	C	0.491570	0.075760	1.452316
C239	C	-0.008150	-0.525550	0.952271
C240	C	0.491850	-0.025550	1.452271
C241	C	0.112735	-0.585760	0.952260
C242	C	0.612735	-0.085760	1.452260
C243	C	0.112461	-0.484444	0.952286
C244	C	0.612461	0.015556	1.452286
H245	H	0.016194	-0.427197	0.832639
H246	H	0.516194	0.072803	1.332639
C247	C	0.592437	-0.420930	0.495158
C248	C	1.092437	0.079070	0.995158
C249	C	0.550622	-0.404306	0.483771
C250	C	1.050622	0.095694	0.983771
H251	H	0.592427	-0.396167	0.501331
H252	H	1.092427	0.103833	1.001331
H253	H	0.620758	-0.428507	0.468475
H254	H	1.120758	0.071493	0.968475
H255	H	0.592480	-0.449387	0.523396
H256	H	1.092480	0.050613	1.023396
H257	H	0.550582	-0.375852	0.455530
H258	H	1.050582	0.124148	0.955530
H259	H	0.522294	-0.396723	0.510456
H260	H	1.022294	0.103277	1.010456
C261	C	0.054338	-0.047944	0.340129
C262	C	0.554338	0.452056	0.840129
C263	C	0.021091	-0.006157	0.353246
C264	C	0.521091	0.493843	0.853246
H265	H	0.048158	-0.047952	0.315379
H266	H	0.548158	0.452048	0.815379
H267	H	0.050708	-0.076288	0.367927
H268	H	0.550708	0.423712	0.867927
H269	H	0.086695	-0.047926	0.328179
H270	H	0.586695	0.452074	0.828179
H271	H	-0.011267	-0.006177	0.365201
H272	H	0.488733	0.493823	0.865201
H273	H	0.024716	0.022194	0.325444
H274	H	0.524716	0.522194	0.825444
C275	C	0.076991	-0.047892	0.594933
C276	C	0.576991	0.452108	1.094933
C277	C	0.082336	-0.006098	0.553964
C278	C	0.582336	0.493902	1.053964
H279	H	0.083175	-0.047885	0.619681
H280	H	0.583175	0.452115	1.119681
H281	H	0.099540	-0.076231	0.586023
H282	H	0.599540	0.423769	1.086023
H283	H	0.044630	-0.047898	0.606883
H284	H	0.544630	0.452102	1.106883
H285	H	0.114699	-0.006093	0.542012
H286	H	0.614699	0.493907	1.042012
H287	H	0.059786	0.022249	0.562875
H288	H	0.559786	0.522249	1.062875
C289	C	-0.089624	-0.380546	0.994122
C290	C	0.410376	0.119454	1.494122
C291	C	-0.048697	-0.374222	0.952332
C292	C	0.451303	0.125778	1.452332
H293	H	-0.114484	-0.349667	0.994129
H294	H	0.385516	0.150333	1.494129
H295	H	-0.080732	-0.395168	1.022461
H296	H	0.419268	0.104832	1.522461
H297	H	-0.101419	-0.401087	0.994113
H298	H	0.398581	0.098913	1.494113
H299	H	-0.036901	-0.353684	0.952342
H300	H	0.463099	0.146316	1.452342
H301	H	-0.057590	-0.359594	0.923985
H302	H	0.442410	0.140406	1.423985
H303	H	0.550467	-0.414317	0.335455
H304	H	1.050467	0.085683	0.835455
C305	C	0.048904	-0.657483	0.567387
C306	C	0.548904	-0.157483	1.067387
C307	C	0.082174	-0.635853	0.554248
C308	C	0.582174	-0.135853	1.054248
H309	H	0.055042	-0.688390	0.592181
H310	H	0.555042	-0.188390	1.092181
H311	H	0.052553	-0.661719	0.539612
H312	H	0.552553	-0.161719	1.039612
H313	H	0.016552	-0.637012	0.579287
H314	H	0.516552	-0.137012	1.079287
H315	H	0.114526	-0.656322	0.542344
H316	H	0.614526	-0.156322	1.042344
H317	H	0.078529	-0.631619	0.582029
H318	H	0.578529	-0.131619	1.082029
C319	C	0.193927	-0.629451	0.910448
C320	C	0.693927	-0.129451	1.410448
C321	C	0.153002	-0.635777	0.952241
C322	C	0.653002	-0.135777	1.452241
H323	H	0.218784	-0.660330	0.910435
H324	H	0.718784	-0.160330	1.410435
H325	H	0.205723	-0.608916	0.910458
H326	H	0.705723	-0.108916	1.410458
H327	H	0.185029	-0.614822	0.882107
H328	H	0.685029	-0.114822	1.382107
H329	H	0.161899	-0.650403	0.980581
H330	H	0.661899	-0.150403	1.480581
H331	H	0.141204	-0.656320	0.952235
H332	H	0.641204	-0.156320	1.452235
C333	C	-0.072675	-0.047945	0.595425
C334	C	0.427325	0.452055	1.095425
C335	C	-0.079022	-0.006159	0.554490
C336	C	0.420978	0.493841	1.054490
H337	H	-0.103545	-0.047952	0.620288
H338	H	0.396455	0.452048	1.120288
H339	H	-0.052131	-0.047930	0.607209
H340	H	0.447869	0.452070	1.107209
H341	H	-0.058052	-0.076292	0.586541
H342	H	0.441948	0.423708	1.086541
H343	H	-0.093642	0.022189	0.563373
H344	H	0.406358	0.522189	1.063373
H345	H	-0.099574	-0.006169	0.542705
H346	H	0.400426	0.493831	1.042705
C347	C	0.212557	-0.005563	0.369925
C348	C	0.712557	0.494437	0.869925
C349	C	0.182302	-0.005674	0.352580
C350	C	0.682302	0.494326	0.852580
H351	H	0.243358	-0.005360	0.344992
H352	H	0.743358	0.494640	0.844992
H353	H	0.217020	-0.033972	0.397602
H354	H	0.717020	0.466028	0.897602
H355	H	0.197813	0.022724	0.378937
H356	H	0.697813	0.522724	0.878937
H357	H	0.197044	-0.033963	0.343572
H358	H	0.697044	0.466037	0.843572
H359	H	0.177840	0.022738	0.324895
H360	H	0.677840	0.522738	0.824895
C361	C	-0.030618	-0.583227	0.952192
C362	C	0.469382	-0.083227	1.452192
C363	C	-0.048236	-0.535527	0.952222
C364	C	0.451764	-0.035527	1.452222
H365	H	-0.055366	-0.589384	0.952159
H366	H	0.444634	-0.089384	1.452159
H367	H	-0.021730	-0.605781	0.980543
H368	H	0.478270	-0.105781	1.480543
H369	H	-0.002814	-0.586862	0.923848
H370	H	0.497186	-0.086862	1.423848
H371	H	-0.076038	-0.531894	0.980568
H372	H	0.423962	-0.031894	1.480568
H373	H	-0.057131	-0.512966	0.923868
H374	H	0.442869	-0.012966	1.423868
H375	H	0.142166	-0.477036	0.952281
H376	H	0.642166	0.022964	1.452281
H377	H	0.047048	-0.396226	0.739820
H378	H	0.547048	0.103774	1.239820
H379	H	0.198696	-0.471996	0.739692
H380	H	0.698696	0.028004	1.239692
C381	C	0.225060	-0.518579	0.806509
C382	C	0.725060	-0.018579	1.306509
C383	C	0.177323	-0.511349	0.839800
C384	C	0.677323	-0.011349	1.339800
H385	H	0.247649	-0.538547	0.823847
H386	H	0.747649	-0.038547	1.323847
H387	H	0.229955	-0.487907	0.786558
H388	H	0.729955	0.012093	1.286558
H389	H	0.229954	-0.534193	0.786548
H390	H	0.729954	-0.034193	1.286548
H391	H	0.172429	-0.495732	0.859758
H392	H	0.672429	0.004268	1.359758
H393	H	0.172426	-0.542026	0.859759
H394	H	0.672426	-0.042026	1.359759
C395	C	0.204121	-0.501830	0.339822
C396	C	0.704121	-0.001830	0.839822
C397	C	0.182537	-0.535137	0.352954
C398	C	0.682537	-0.035137	0.852954
H399	H	0.235002	-0.507908	0.314986
H400	H	0.735002	-0.007908	0.814986
H401	H	0.208400	-0.505509	0.367586
H402	H	0.708400	-0.005509	0.867586
H403	H	0.183603	-0.469485	0.327979
H404	H	0.683603	0.030515	0.827979
H405	H	0.203054	-0.567483	0.364800
H406	H	0.703054	-0.067483	0.864800
H407	H	0.178261	-0.531462	0.325184
H408	H	0.678261	-0.031462	0.825184
C409	C	0.031147	-0.712027	0.433261
C410	C	0.531147	-0.212027	0.933261
C411	C	0.023924	-0.664279	0.426019
C412	C	0.523924	-0.164279	0.926019
H413	H	0.051065	-0.734607	0.453271
H414	H	0.551065	-0.234607	0.953271
H415	H	0.046808	-0.716955	0.402598
H416	H	0.546808	-0.216955	0.902598
H417	H	0.000467	-0.716902	0.448832
H418	H	0.500467	-0.216902	0.948832
H419	H	0.054604	-0.659403	0.410444
H420	H	0.554604	-0.159403	0.910444
H421	H	0.008264	-0.659349	0.456687
H422	H	0.508264	-0.159349	0.956687
H423	H	0.550826	-0.595166	0.570996
H424	H	1.050826	-0.095166	1.070996
C425	C	-0.010342	-0.380581	0.578022
C426	C	0.489658	0.119419	1.078022
C427	C	0.037419	-0.387819	0.570746
C428	C	0.537419	0.112181	1.070746
H429	H	-0.032897	-0.360622	0.597991
H430	H	0.467103	0.139378	1.097991
H431	H	-0.015242	-0.411251	0.593645
H432	H	0.484758	0.088749	1.093645
H433	H	-0.015281	-0.364954	0.547361
H434	H	0.484719	0.135046	1.047361
H435	H	0.042359	-0.403450	0.601406
H436	H	0.542359	0.096550	1.101406
H437	H	0.042321	-0.357143	0.555123
H438	H	0.542321	0.142857	1.055123
C439	C	-0.109277	-0.427109	0.536958
C440	C	0.390723	0.072891	1.036958
C441	C	-0.079046	-0.474792	0.554425
C442	C	0.420954	0.025208	1.054425
H443	H	-0.140157	-0.421029	0.561793
H444	H	0.359843	0.078971	1.061793
H445	H	-0.113554	-0.423439	0.509197
H446	H	0.386446	0.076561	1.009197
H447	H	-0.094622	-0.404521	0.528045
H448	H	0.405378	0.095479	1.028045
H449	H	-0.093698	-0.497381	0.563334
H450	H	0.406302	0.002619	1.063334
H451	H	-0.074770	-0.478467	0.582194
H452	H	0.425230	0.021533	1.082194
H453	H	0.015920	-0.427139	0.531437
H454	H	0.515920	0.072861	1.031437
H455	H	0.430973	-0.540048	0.521891
H456	H	0.930973	-0.040048	1.021891
H457	H	0.167497	-0.502899	0.455559
H458	H	0.667497	-0.002899	0.955559
H459	H	0.023891	-0.387055	0.363546
H460	H	0.523891	0.112945	0.863546
H461	H	0.338156	-0.509129	0.552896
H462	H	0.838156	-0.009129	1.052896
C463	C	0.238366	-0.504863	0.453489
C464	C	0.738366	-0.004863	0.953489
C465	C	0.212798	-0.475455	0.482927
C466	C	0.712798	0.024545	0.982927
H467	H	0.272505	-0.513236	0.445073
H468	H	0.772505	-0.013236	0.945073
H469	H	0.229940	-0.487499	0.424580
H470	H	0.729940	0.012501	0.924580
H471	H	0.229997	-0.533805	0.470855
H472	H	0.729997	-0.033805	0.970855
H473	H	0.221164	-0.446512	0.465560
H474	H	0.721164	0.053488	0.965560
H475	H	0.221228	-0.492820	0.511842
H476	H	0.721228	0.007180	1.011842
H477	H	0.430920	-0.389838	0.464614
H478	H	0.930920	0.110162	0.964614
H479	H	0.550685	-0.594783	0.425263
H480	H	1.050685	-0.094783	0.925263
H481	H	0.160490	-0.218637	0.448603
H482	H	0.660490	0.281363	0.948603
C483	C	0.364049	-0.319440	0.468589
C484	C	0.864049	0.180560	0.968589
C485	C	0.330800	-0.344693	0.493549
C486	C	0.830800	0.155307	0.993549
H487	H	0.346678	-0.285565	0.463676
H488	H	0.846678	0.214435	0.963676
H489	H	0.383984	-0.324182	0.437845
H490	H	0.883984	0.175818	0.937845
H491	H	0.384028	-0.331444	0.487323
H492	H	0.884028	0.168556	0.987323
H493	H	0.310823	-0.332691	0.474814
H494	H	0.810823	0.167309	0.974814
H495	H	0.310857	-0.339948	0.524298
H496	H	0.810857	0.160052	1.024298
C497	C	0.162416	-0.151762	0.377764
C498	C	0.662416	0.348238	0.877764
C499	C	0.133004	-0.118512	0.403364
C500	C	0.633004	0.381488	0.903364
H501	H	0.170773	-0.134390	0.343628
H502	H	0.670773	0.365610	0.843628
H503	H	0.145064	-0.171729	0.386166
H504	H	0.645064	0.328271	0.886166
H505	H	0.191364	-0.171713	0.386131
H506	H	0.691364	0.328287	0.886131
H507	H	0.104055	-0.098564	0.394999
H508	H	0.604055	0.401436	0.894999
H509	H	0.150357	-0.098538	0.394958
H510	H	0.650357	0.401462	0.894958
H511	H	0.015913	-0.654818	0.174378
H512	H	0.515913	-0.154818	0.674378
H513	H	0.053825	-0.125861	0.569312
H514	H	0.553825	0.374139	1.069312
H515	H	0.084809	-0.218687	0.600218
H516	H	0.584809	0.281313	1.100218
H517	H	-0.059824	-0.503179	0.174290
H518	H	0.440176	-0.003179	0.674290
H519	H	-0.090896	-0.534066	0.267110
H520	H	0.409104	-0.034066	0.767110
H521	H	-0.015148	-0.685706	0.267200
H522	H	0.484852	-0.185706	0.767200
H523	H	-0.090949	-0.534065	0.310634
H524	H	0.409051	-0.034065	0.810634
H525	H	-0.015331	-0.685697	0.386578
H526	H	0.484669	-0.185697	0.886578
C527	C	-0.046126	-0.467701	0.287266
C528	C	0.453874	0.032299	0.787266
C529	C	-0.063559	-0.488838	0.338153
C530	C	0.436441	0.011162	0.838153
H531	H	-0.054475	-0.433567	0.278866
H532	H	0.445525	0.066433	0.778866
H533	H	-0.060475	-0.473073	0.272858
H534	H	0.439525	0.026927	0.772858
H535	H	-0.011605	-0.482125	0.275564
H536	H	0.488395	0.017875	0.775564
H537	H	-0.098081	-0.474417	0.349855
H538	H	0.401919	0.025583	0.849855
H539	H	-0.049212	-0.483462	0.352566
H540	H	0.450788	0.016538	0.852566
C541	C	0.065896	-0.696440	0.271245
C542	C	0.565896	-0.196440	0.771245
C543	C	0.031322	-0.684037	0.313130
C544	C	0.531322	-0.184037	0.813130
H545	H	0.088215	-0.679109	0.254785
H546	H	0.588215	-0.179109	0.754785
H547	H	0.049758	-0.688040	0.250152
H548	H	0.549758	-0.188040	0.750152
H549	H	0.083170	-0.730583	0.280395
H550	H	0.583170	-0.230583	0.780395
H551	H	0.014046	-0.649894	0.303980
H552	H	0.514046	-0.149894	0.803980
H553	H	0.047462	-0.692434	0.334227
H554	H	0.547462	-0.192434	0.834227
C555	C	0.075040	-0.841760	0.369094
C556	C	0.575040	-0.341760	0.869094
C557	C	0.067047	-0.791453	0.348980
C558	C	0.567047	-0.291453	0.848980
H559	H	0.108905	-0.859150	0.364224
H560	H	0.608905	-0.359150	0.864224
H561	H	0.064482	-0.850130	0.353593
H562	H	0.564482	-0.350130	0.853593
H563	H	0.057157	-0.850118	0.403109
H564	H	0.557157	-0.350118	0.903109
H565	H	0.084927	-0.783095	0.314964
H566	H	0.584927	-0.283095	0.814964
H567	H	0.077610	-0.783080	0.364480
H568	H	0.577610	-0.283080	0.864480
C569	C	-0.130610	-0.778866	0.383972
C570	C	0.369390	-0.278866	0.883972
C571	C	-0.106779	-0.791246	0.415030
C572	C	0.393221	-0.291246	0.915030
H573	H	-0.152958	-0.796172	0.400481
H574	H	0.347042	-0.296172	0.900481
H575	H	-0.107182	-0.787313	0.355572
H576	H	0.392818	-0.287313	0.855572
H577	H	-0.147858	-0.744718	0.374806
H578	H	0.352142	-0.244718	0.874806
H579	H	-0.089528	-0.825394	0.424193
H580	H	0.410472	-0.325394	0.924193
H581	H	-0.130210	-0.782802	0.443439
H582	H	0.369790	-0.282802	0.943439
C583	C	-0.149378	-0.654439	0.333768
C584	C	0.350622	-0.154439	0.833768
C585	C	-0.142469	-0.683855	0.379127
C586	C	0.357531	-0.183855	0.879127
H587	H	-0.183241	-0.637041	0.338637
H588	H	0.316759	-0.137041	0.838637
H589	H	-0.137362	-0.674410	0.315028
H590	H	0.362638	-0.174410	0.815028
H591	H	-0.132220	-0.631911	0.316882
H592	H	0.367780	-0.131911	0.816882
H593	H	-0.159624	-0.706386	0.396012
H594	H	0.340376	-0.206386	0.896012
H595	H	-0.154491	-0.663882	0.397875
H596	H	0.345509	-0.163882	0.897875
H597	H	-0.134607	-0.647683	0.424287
H598	H	0.365393	-0.147683	0.924287
H599	H	-0.227194	-0.540877	0.303400
H600	H	0.272806	-0.040877	0.803400
C601	C	-0.201540	-0.649609	0.495071
C602	C	0.298460	-0.149609	0.995071
C603	C	-0.234742	-0.620157	0.469414
C604	C	0.265258	-0.120157	0.969414
H605	H	-0.218946	-0.657982	0.529199
H606	H	0.281054	-0.157982	1.029199
H607	H	-0.181581	-0.632275	0.486729
H608	H	0.318419	-0.132275	0.986729
H609	H	-0.181580	-0.678548	0.486691
H610	H	0.318420	-0.178548	0.986691
H611	H	-0.254699	-0.591216	0.477791
H612	H	0.245301	-0.091216	0.977791
H613	H	-0.254709	-0.637490	0.477760
H614	H	0.245291	-0.137490	0.977760
H615	H	-0.134369	-0.571905	0.272603
H616	H	0.365631	-0.071905	0.772603
