data_functionalizedCrystal
_audit_creation_method	'MofGen! by Chris Wilmer'
_symmetry_space_group_name_H-M	'P1'
_symmetry_Int_Tables_number	1
_symmetry_cell_setting	triclinic
loop_
_symmetry_equiv_pos_as_xyz
  x,y,z
_cell_length_a	6.817900
_cell_length_b	9.582860
_cell_length_c	11.102228
_cell_angle_alpha	90.975045
_cell_angle_beta	108.604565
_cell_angle_gamma	111.206767
loop_
_atom_site_label
_atom_site_type_symbol
_atom_site_fract_x
_atom_site_fract_y
_atom_site_fract_z
V1	V	-4.125313	-0.207059	-0.396024
O2	O	-4.069887	0.009947	-0.388724
O3	O	-4.115650	-0.410560	-0.393084
O4	O	-4.101876	-0.203875	-0.568848
O5	O	-4.083756	-0.198168	-0.211744
V6	V	-4.600687	-0.181102	-0.374010
O7	O	-4.404447	-0.263997	-0.444311
O8	O	-4.771750	-0.124164	-0.325722
O9	O	-4.387144	0.022399	-0.376949
O10	O	-4.773511	-0.398108	-0.381309
O11	O	-4.759642	-0.189993	-0.558290
O12	O	-4.400918	-0.184286	-0.201186
C13	C	-3.969267	-0.460169	-0.386778
C14	C	-4.042819	-0.626533	-0.385527
C15	C	-3.951695	-0.196520	-0.610980
C16	C	-4.014073	-0.195264	-0.752264
C17	C	-4.112674	-0.331720	-0.836635
C18	C	-4.171296	-0.330537	-0.969385
C19	C	-4.032696	-0.056428	-0.933381
C20	C	-3.974090	-0.057614	-0.800633
C21	C	-4.453238	-0.498371	-1.176586
C22	C	-4.551810	-0.634834	-1.260961
C23	C	-4.475362	-0.751419	-1.229616
C24	C	-4.300297	-0.731546	-1.113896
C25	C	-4.201709	-0.595081	-1.029527
C26	C	-4.278206	-0.478503	-1.060873
C27	C	-3.692135	0.110212	-0.593431
C28	C	-3.593530	0.246680	-0.509059
C29	C	-3.669958	0.363279	-0.540399
C30	C	-3.844986	0.343422	-0.656120
C31	C	-3.943591	0.206954	-0.740492
C32	C	-3.867163	0.090355	-0.709143
C33	C	-4.196870	0.072000	-0.383253
C34	C	-4.102558	0.238363	-0.384512
C35	C	-4.214441	-0.191646	-0.159047
C36	C	-4.131300	-0.192894	-0.017762
H37	H	-4.145235	-0.443804	-0.797257
H38	H	-4.238041	-0.826480	-1.088393
O39	O	-4.740618	-0.656271	-1.385771
H40	H	-4.883227	-0.644567	-1.365018
O41	O	-4.535704	-0.372625	-1.210400
H42	H	-4.716144	-0.413281	-1.222049
O43	O	-3.989526	0.092037	-0.985547
H44	H	-4.150858	0.093558	-1.050012
H45	H	-4.555627	-0.862529	-1.298324
O46	O	-4.012914	-0.573631	-0.904717
H47	H	-3.976310	-0.677629	-0.897090
O48	O	-4.132388	0.185520	-0.865306
H49	H	-4.168986	0.289520	-0.872927
O50	O	-3.563601	0.510482	-0.449408
H51	H	-3.584538	0.487959	-0.355595
O52	O	-3.927444	0.469173	-0.689938
H53	H	-3.829491	0.567396	-0.611823
H54	H	-3.450986	0.262849	-0.414841
O55	O	-3.609689	-0.015552	-0.559634
H56	H	-3.631652	-0.050189	-0.468352
