data_functionalizedCrystal
_audit_creation_method	'MofGen! by Chris Wilmer'
_symmetry_space_group_name_H-M	'P1'
_symmetry_Int_Tables_number	1
_symmetry_cell_setting	triclinic
loop_
_symmetry_equiv_pos_as_xyz
  x,y,z
_cell_length_a	19.288864
_cell_length_b	9.616153
_cell_length_c	19.288874
_cell_angle_alpha	90.002784
_cell_angle_beta	83.138236
_cell_angle_gamma	90.020701
loop_
_atom_site_label
_atom_site_type_symbol
_atom_site_fract_x
_atom_site_fract_y
_atom_site_fract_z
O1	O	0.921354	0.116093	0.086644
O2	O	0.719094	0.115998	0.098333
O3	O	0.826065	0.116037	-0.008641
O4	O	0.814383	0.116054	0.193619
O5	O	0.826050	-0.115254	-0.008639
O6	O	0.719079	-0.115293	0.098335
O7	O	0.921339	-0.115198	0.086647
Zn8	Zn	0.820207	-0.151968	0.092492
Zn9	Zn	0.820226	0.152768	0.092488
O10	O	0.814368	-0.115238	0.193621
C11	C	0.693210	0.000340	0.097958
C12	C	0.616106	0.000304	0.096829
N13	N	0.820199	-0.359943	0.092493
C14	C	0.571412	0.000331	0.159597
C15	C	0.498965	0.000346	0.158536
C16	C	0.471215	0.000362	0.094704
C17	C	0.515919	0.000327	0.031928
C18	C	0.588365	0.000298	0.032991
C19	C	0.362957	0.081437	0.044525
C20	C	0.290512	0.081474	0.043465
C21	C	0.247770	0.000446	0.091425
C22	C	0.277479	-0.080602	0.140456
C23	C	0.349925	-0.080631	0.141519
C24	C	0.392661	0.000393	0.093545
C25	C	0.124520	0.000488	0.153046
C26	C	0.052072	0.000494	0.151983
C27	C	0.069027	0.000490	0.025374
C28	C	0.141474	0.000469	0.026439
C29	C	0.169215	0.000475	0.090277
C30	C	0.762806	-0.580334	0.149530
C31	C	0.762928	-0.419166	0.149739
C32	C	0.892627	-0.418356	0.108097
C33	C	0.892313	-0.579574	0.108500
C34	C	0.805889	-0.579869	0.019659
C35	C	0.804217	-0.418643	0.020153
C36	C	0.947223	0.000463	0.087022
C37	C	1.024327	0.000508	0.088151
C38	C	0.825680	0.000392	-0.034516
C39	C	0.824549	0.000392	-0.111619
N40	N	0.820240	0.360743	0.092481
C41	C	0.816415	-0.125655	-0.667187
C42	C	0.817471	-0.125662	-0.594740
C43	C	0.818010	0.000414	-0.558510
C44	C	0.817475	0.126506	-0.594731
C45	C	0.816413	0.126509	-0.667177
C46	C	0.860381	0.097021	-0.449179
C47	C	0.861449	0.097012	-0.376736
C48	C	0.821285	0.000408	-0.335064
C49	C	0.780063	-0.096210	-0.365845
C50	C	0.779000	-0.096207	-0.438290
C51	C	0.819162	0.000424	-0.479955
C52	C	0.822959	-0.125683	-0.220294
C53	C	0.824011	-0.125685	-0.147844
C54	C	0.824022	0.126486	-0.147838
C55	C	0.822964	0.126484	-0.220286
C56	C	0.822436	0.000396	-0.256510
C57	C	0.814753	0.000411	0.219496
C58	C	0.815884	0.000420	0.296599
H59	H	0.593994	0.000338	0.211579
H60	H	0.822523	-0.228352	-0.249788
Br61	Br	0.723056	-0.227319	-0.480063
Br62	Br	0.672771	-0.645024	0.134337
Br63	Br	0.725557	-0.227336	-0.309300
Br64	Br	0.031375	0.000489	-0.061257
H65	H	0.177865	0.000455	-0.024674
Br66	Br	0.815692	-0.296774	-0.716345
Br67	Br	0.673171	-0.353342	0.134348
H68	H	0.266329	0.147474	0.003543
Br69	Br	0.875701	-0.643369	-0.051095
H70	H	0.843344	-0.378334	-0.024270
Br71	Br	0.420958	0.191410	-0.020572
H72	H	0.493321	0.000360	-0.020044
H73	H	0.904992	-0.617150	0.161601
H74	H	0.771819	-0.620822	0.203270
H75	H	0.815980	0.229178	-0.696661
H76	H	0.624756	0.000277	-0.018124
Br77	Br	0.824714	-0.296803	-0.098694
Br78	Br	0.719787	-0.647760	-0.005431
H79	H	0.462568	0.000364	0.209651
H80	H	0.895017	0.175678	-0.351680
H81	H	0.374111	-0.146628	0.181440
H82	H	0.824453	0.229140	-0.118340
Br83	Br	0.822248	0.297597	-0.269436
Br84	Br	0.914876	0.228169	-0.505725
H85	H	0.242679	-0.146584	0.179510
Br86	Br	0.162173	0.000485	0.239682
Br87	Br	0.778123	-0.354834	0.239829
H88	H	0.905611	-0.377954	0.160593
H89	H	0.936373	-0.618546	0.068575
H90	H	0.817912	0.229157	-0.565228
H91	H	0.015682	0.000508	0.203098
H92	H	0.750939	-0.380469	0.008306
Br93	Br	0.965542	-0.354420	0.040670
Br94	Br	0.818197	-0.296777	-0.545583
