data_functionalizedCrystal
_audit_creation_method	'MofGen! by Chris Wilmer'
_symmetry_space_group_name_H-M	'P1'
_symmetry_Int_Tables_number	1
_symmetry_cell_setting	triclinic
loop_
_symmetry_equiv_pos_as_xyz
  x,y,z
_cell_length_a	11.792254
_cell_length_b	10.489763
_cell_length_c	10.868271
_cell_angle_alpha	89.997533
_cell_angle_beta	90.001586
_cell_angle_gamma	95.626521
loop_
_atom_site_label
_atom_site_type_symbol
_atom_site_fract_x
_atom_site_fract_y
_atom_site_fract_z
O1	O	0.160252	-1.693500	0.102269
O2	O	0.175256	-1.322257	0.102284
O3	O	0.002609	-1.516879	0.102267
O4	O	0.332899	-1.498878	0.102286
O5	O	0.002615	-1.516861	-0.102377
O6	O	0.175262	-1.322239	-0.102361
O7	O	0.160257	-1.693482	-0.102375
Zn8	Zn	0.167760	-1.507858	-0.134860
Zn9	Zn	0.167753	-1.507881	0.134768
O10	O	0.332904	-1.498860	-0.102359
C11	C	0.174120	-1.274721	-0.000037
C12	C	0.170714	-1.133104	-0.000032
C13	C	0.060850	-1.065334	-0.000050
C14	C	0.112737	-0.973042	0.100849
C15	C	0.112768	-0.973059	-0.100914
C16	C	0.222646	-1.042678	0.100951
C17	C	0.222662	-1.042704	-0.100903
C18	C	0.274629	-0.950440	0.000021
C19	C	-0.039682	-1.515736	-0.000054
C20	C	-0.165704	-1.512342	-0.000053
C21	C	-0.268048	-1.509584	-0.000049
C22	C	-0.396445	-1.506136	-0.000037
C23	C	0.375195	-1.500003	-0.000034
C24	C	0.501218	-1.503397	-0.000028
N25	N	0.167765	-1.507851	-0.318874
C26	C	0.161375	-0.741021	-0.000055
C27	C	0.164728	-0.882645	-0.000062
C28	C	0.167765	-1.507861	-0.430212
C29	C	0.167755	-1.507878	-0.569889
N30	N	0.167740	-1.507898	0.318782
H31	H	-0.029458	-1.115326	0.000072
H32	H	0.066248	-0.942192	0.186150
F33	F	0.283356	-1.082773	0.212577
H34	H	0.365032	-0.900713	0.000081
H35	H	0.269113	-1.073587	-0.186207
F36	F	0.051988	-0.932765	-0.212416
