data_functionalizedCrystal
_audit_creation_method	'MofGen! by Chris Wilmer'
_symmetry_space_group_name_H-M	'P1'
_symmetry_Int_Tables_number	1
_symmetry_cell_setting	triclinic
loop_
_symmetry_equiv_pos_as_xyz
  x,y,z
_cell_length_a	14.519731
_cell_length_b	13.596369
_cell_length_c	14.853567
_cell_angle_alpha	90.003405
_cell_angle_beta	96.338108
_cell_angle_gamma	90.006024
loop_
_atom_site_label
_atom_site_type_symbol
_atom_site_fract_x
_atom_site_fract_y
_atom_site_fract_z
O1	O	1.223810	0.081785	-0.118265
O2	O	1.723810	0.581785	0.381735
O3	O	0.955330	0.081785	-0.132162
O4	O	1.455330	0.581785	0.367838
O5	O	1.096742	0.081788	0.006013
O6	O	1.596742	0.581788	0.506013
O7	O	1.082399	0.081782	-0.256440
O8	O	1.582399	0.581782	0.243560
O9	O	1.096724	-0.081795	0.006006
O10	O	1.596724	0.418205	0.506006
O11	O	0.955313	-0.081797	-0.132169
O12	O	1.455313	0.418203	0.367831
O13	O	1.223793	-0.081798	-0.118272
O14	O	1.723793	0.418202	0.381728
Zn15	Zn	1.089550	-0.107770	-0.125222
Zn16	Zn	1.589550	0.392230	0.374778
Zn17	Zn	1.089573	0.107758	-0.125212
Zn18	Zn	1.589573	0.607758	0.374788
O19	O	1.082381	-0.081801	-0.256447
O20	O	1.582381	0.418199	0.243553
C21	C	0.920962	-0.000006	-0.131514
C22	C	1.420962	0.499994	0.368486
C23	C	0.818583	-0.000005	-0.129563
C24	C	1.318583	0.499995	0.370437
N25	N	1.089541	-0.254862	-0.125228
N26	N	1.589541	0.245138	0.374772
C27	C	0.735439	-0.000001	-0.127978
C28	C	1.235439	0.499999	0.372022
C29	C	0.631131	-0.000001	-0.125996
C30	C	1.131131	0.499999	0.374004
C31	C	0.547993	-0.000001	-0.124424
C32	C	1.047993	0.499999	0.375576
C33	C	0.443678	0.000001	-0.122443
C34	C	0.943678	0.500001	0.377557
C35	C	1.089546	-0.343860	-0.125230
C36	C	1.589546	0.156140	0.374770
C37	C	1.089555	-0.455511	-0.125224
C38	C	1.589555	0.044489	0.374776
C39	C	1.089567	-0.544502	-0.125214
C40	C	1.589567	-0.044502	0.374786
C41	C	1.089577	-0.656160	-0.125209
C42	C	1.589577	-0.156160	0.374791
C43	C	1.258160	-0.000005	-0.118920
C44	C	1.758160	0.499995	0.381080
C45	C	1.360540	0.000001	-0.120871
C46	C	1.860540	0.500001	0.379129
C47	C	1.096083	-0.000000	0.039598
C48	C	1.596083	0.500000	0.539598
C49	C	1.094135	0.000008	0.139683
C50	C	1.594135	0.500008	0.639683
N51	N	1.089589	0.254849	-0.125199
N52	N	1.589589	0.754849	0.374801
C53	C	1.083040	-0.000010	-0.290032
C54	C	1.583040	0.499990	0.209968
C55	C	1.084987	-0.000012	-0.390117
C56	C	1.584987	0.499988	0.109883
C57	C	1.001901	-0.000010	0.552260
C58	C	1.501901	0.499990	1.052260
C59	C	1.169902	-0.000011	0.573463
C60	C	1.669902	0.499989	1.073463
C61	C	1.171733	-0.000005	0.479428
C62	C	1.671733	0.499995	0.979428
C63	C	1.088647	-0.000003	0.421805
C64	C	1.588647	0.499997	0.921805
C65	C	1.003730	-0.000008	0.458216
C66	C	1.503730	0.499992	0.958216
C67	C	1.256648	-0.000011	0.443010
C68	C	1.756648	0.499989	0.943010
C69	C	1.258483	-0.000006	0.348970
C70	C	1.758483	0.499994	0.848970
C71	C	1.175396	0.000003	0.291345
C72	C	1.675396	0.500003	0.791345
C73	C	1.090476	-0.000000	0.327761
C74	C	1.590476	0.500000	0.827761
C75	C	1.007390	0.000001	0.270138
C76	C	1.507390	0.500001	0.770138
C77	C	0.922469	0.000005	0.306552
C78	C	1.422469	0.500005	0.806552
C79	C	0.920643	0.000001	0.400591
C80	C	1.420643	0.500001	0.900591
C81	C	1.177221	0.000007	0.197306
C82	C	1.677221	0.500007	0.697306
C83	C	1.009219	0.000004	0.176094
C84	C	1.509219	0.500004	0.676094
H85	H	0.941559	0.000009	0.129182
H86	H	1.441559	0.500009	0.629182
H87	H	1.246363	-0.000003	0.167662
H88	H	1.746363	0.499997	0.667662
H89	H	0.851505	0.000003	0.430248
H90	H	1.351505	0.500003	0.930248
F91	F	0.834046	-0.000001	0.245215
F92	F	1.334046	0.499999	0.745215
F93	F	0.911527	0.000002	0.591014
F94	F	1.411527	0.500002	1.091014
F95	F	1.258322	-0.000026	0.634791
F96	F	1.758322	0.499974	1.134791
H97	H	1.324292	-0.000021	0.489933
H98	H	1.824292	0.499979	0.989933
F99	F	1.348862	0.000002	0.310223
F100	F	1.848862	0.500002	0.810223
