data_functionalizedCrystal
_audit_creation_method	'MofGen! by Chris Wilmer'
_symmetry_space_group_name_H-M	'P1'
_symmetry_Int_Tables_number	1
_symmetry_cell_setting	triclinic
loop_
_symmetry_equiv_pos_as_xyz
  x,y,z
_cell_length_a	13.339070
_cell_length_b	14.044220
_cell_length_c	12.376457
_cell_angle_alpha	102.319698
_cell_angle_beta	75.589755
_cell_angle_gamma	104.409086
loop_
_atom_site_label
_atom_site_type_symbol
_atom_site_fract_x
_atom_site_fract_y
_atom_site_fract_z
O1	O	1.404410	0.473359	-0.094060
O2	O	1.104116	0.409471	-0.094052
O3	O	1.249753	0.302247	-0.094045
O4	O	1.258772	0.580583	-0.094067
O5	O	1.213353	0.329006	0.093966
O6	O	1.067716	0.436230	0.093959
O7	O	1.368010	0.500118	0.093950
Zn8	Zn	1.212084	0.472423	0.123805
Zn9	Zn	1.260042	0.437166	-0.123907
O10	O	1.222373	0.607343	0.093943
C11	C	1.047253	0.412059	-0.000045
C12	C	0.932047	0.379891	-0.000042
C13	C	0.589833	0.630012	-0.000080
C14	C	0.698075	0.660238	-0.000087
C15	C	0.756573	0.590154	-0.000075
C16	C	0.706819	0.489838	-0.000057
C17	C	0.598569	0.459608	-0.000059
C18	C	0.765309	0.419750	-0.000054
C19	C	0.715555	0.319434	-0.000037
C20	C	0.607315	0.289209	-0.000038
C21	C	0.548816	0.359293	-0.000049
C22	C	0.873559	0.449980	-0.000053
C23	C	0.882295	0.279576	-0.000032
C24	C	0.774053	0.249350	-0.000025
C25	C	1.227607	0.279274	-0.000039
C26	C	1.215836	0.170953	-0.000037
C27	C	1.194321	-0.027370	-0.000053
C28	C	1.277803	-0.063049	-0.000059
C29	C	1.265831	-0.173403	-0.000068
C30	C	1.206291	0.082993	-0.000044
C31	C	1.424874	0.497530	-0.000059
C32	C	1.540081	0.529697	-0.000070
C33	C	1.244519	0.630315	-0.000065
C34	C	1.256291	0.738635	-0.000074
N35	N	1.179361	0.496486	0.292862
N36	N	1.292772	0.413098	-0.292964
C37	C	1.368731	0.357221	0.647856
C38	C	1.391627	0.340378	0.529517
C39	C	1.338563	0.379403	0.470347
C40	C	1.262597	0.435275	0.529528
C41	C	1.239704	0.452127	0.647878
C42	C	1.209536	0.474309	0.470370
C43	C	1.133571	0.530180	0.529551
C44	C	1.110681	0.547029	0.647889
C45	C	1.163746	0.508003	0.707059
C46	C	1.232429	0.457457	0.352020
C47	C	1.103403	0.552362	0.352042
C48	C	1.080506	0.569206	0.470381
H49	H	0.460676	0.334688	-0.000043
O50	O	1.373856	-0.000691	-0.000247
C51	C	1.555677	0.039453	-0.097590
C52	C	1.446957	-0.031231	-0.097538
H53	H	1.614815	0.014775	-0.176229
H54	H	1.548436	0.118630	-0.097652
H55	H	1.584284	0.037244	-0.018869
H56	H	1.418287	-0.029109	-0.176245
H57	H	1.454261	-0.110376	-0.097417
O58	O	1.420231	0.319152	0.705213
C59	C	1.458647	0.171482	0.741510
C60	C	1.400288	0.214470	0.676458
H61	H	1.442526	0.086840	0.718303
H62	H	1.547309	0.202607	0.718209
H63	H	1.429248	0.193181	0.836250
H64	H	1.429598	0.192788	0.581703
H65	H	1.311634	0.183348	0.699852
H66	H	1.294281	0.411966	0.303845
O67	O	1.036815	0.601181	0.705501
C68	C	0.871278	0.603558	0.839091
C69	C	0.954860	0.542127	0.773941
H70	H	0.804986	0.555833	0.894422
H71	H	0.909600	0.671724	0.894556
H72	H	0.837335	0.628583	0.776454
H73	H	0.988832	0.517032	0.836497
H74	H	0.916484	0.474010	0.718458
H75	H	1.113864	-0.079699	-0.000053
O76	O	0.861698	0.619688	-0.000024
C77	C	1.012251	0.756556	-0.000101
C78	C	0.893183	0.723241	-0.000140
H79	H	1.037748	0.840278	-0.000218
H80	H	1.028385	0.738282	0.078609
H81	H	1.058789	0.715748	-0.078755
H82	H	0.846567	0.764030	0.078461
H83	H	0.877131	0.741497	-0.078902
H84	H	0.738578	0.741913	-0.000110
O85	O	0.533176	0.698203	-0.000148
C86	C	0.535906	0.870413	-0.000114
C87	C	0.600200	0.793281	-0.000059
H88	H	0.590063	0.947305	-0.000018
H89	H	0.500282	0.849384	-0.078820
H90	H	0.469747	0.871658	0.078544
H91	H	0.666408	0.791997	-0.078664
H92	H	0.635747	0.814339	0.078699
O93	O	1.360607	0.362998	0.355394
C94	C	1.293297	0.293092	0.185592
C95	C	1.268181	0.311631	0.315781
H96	H	1.218592	0.251542	0.153525
H97	H	1.323183	0.367450	0.153388
H98	H	1.356742	0.246496	0.153481
H99	H	1.204716	0.358194	0.347988
H100	H	1.238355	0.237237	0.347908
H101	H	1.453478	0.294889	0.481336
O102	O	1.006783	0.623498	0.528050
C103	C	0.914294	0.691459	0.710380
C104	C	0.997825	0.629976	0.645211
H105	H	0.907008	0.696698	0.805116
H106	H	0.939294	0.769504	0.687190
H107	H	0.834679	0.653627	0.687067
H108	H	1.077469	0.667721	0.668489
H109	H	0.972735	0.551932	0.668407
H110	H	1.060194	0.584143	0.303867
O111	O	0.725864	0.151856	-0.000168
C112	C	0.719019	-0.016893	-0.097592
C113	C	0.773702	0.093478	-0.097557
H114	H	0.757659	-0.064121	-0.176334
H115	H	0.727251	-0.041837	-0.018959
H116	H	0.631601	-0.026420	-0.097540
H117	H	0.861137	0.103089	-0.097649
H118	H	0.765385	0.118370	-0.176182
O119	O	0.938969	0.211419	0.000132
C120	C	0.960744	0.088933	0.097582
C121	C	0.896448	0.166064	0.097529
H122	H	0.926405	0.052258	0.176331
H123	H	0.956829	0.029713	0.018956
H124	H	1.046659	0.127785	0.097529
H125	H	0.810508	0.127300	0.097622
H126	H	0.900452	0.225278	0.176148
H127	H	0.914057	0.531658	-0.000063
H128	H	1.145101	0.521713	0.803420
H129	H	0.566811	0.207524	-0.000036
