data_functionalizedCrystal
_audit_creation_method	'MofGen! by Chris Wilmer'
_symmetry_space_group_name_H-M	'P1'
_symmetry_Int_Tables_number	1
_symmetry_cell_setting	triclinic
loop_
_symmetry_equiv_pos_as_xyz
  x,y,z
_cell_length_a	16.120530
_cell_length_b	16.959454
_cell_length_c	16.959447
_cell_angle_alpha	89.973182
_cell_angle_beta	87.084811
_cell_angle_gamma	87.115788
loop_
_atom_site_label
_atom_site_type_symbol
_atom_site_fract_x
_atom_site_fract_y
_atom_site_fract_z
Zn1	Zn	1.274555	-0.376020	-0.508157
Zn2	Zn	1.774555	0.123980	-0.008157
Zn3	Zn	1.274467	-0.508209	-0.375982
Zn4	Zn	1.774467	-0.008209	0.124018
Zn5	Zn	1.135142	-0.369341	-0.369297
Zn6	Zn	1.635142	0.130659	0.130703
Zn7	Zn	1.135111	-0.501448	-0.501426
Zn8	Zn	1.635111	-0.001448	-0.001426
O9	O	1.204818	-0.438755	-0.438716
O10	O	1.704818	0.061245	0.061284
O11	O	1.391209	-0.399180	-0.496238
O12	O	1.891209	0.100820	0.003762
O13	O	1.255961	-0.489822	-0.264483
O14	O	1.755961	0.010178	0.235517
O15	O	1.153685	-0.259619	-0.387736
O16	O	1.653685	0.240381	0.112264
O17	O	1.391144	-0.496298	-0.399130
O18	O	1.891144	0.003702	0.100870
O19	O	1.256111	-0.264526	-0.489756
O20	O	1.756111	0.235474	0.010244
O21	O	1.153599	-0.387796	-0.259572
O22	O	1.653599	0.112204	0.240428
O23	O	1.018472	-0.381241	-0.381210
O24	O	1.518472	0.118759	0.118790
O25	O	1.153632	-0.484776	-0.612931
O26	O	1.653632	0.015224	-0.112931
O27	O	1.018449	-0.478299	-0.478285
O28	O	1.518449	0.021701	0.021715
O29	O	1.256081	-0.392624	-0.617876
O30	O	1.756081	0.107376	-0.117876
O31	O	1.255931	-0.617920	-0.392604
O32	O	1.755931	-0.117920	0.107396
O33	O	1.153547	-0.612953	-0.484767
O34	O	1.653547	-0.112953	0.015233
C35	C	1.204749	-0.644118	-0.438699
C36	C	1.704749	-0.144118	0.061301
C37	C	1.204795	-0.731976	-0.438722
C38	C	1.704795	-0.231976	0.061278
C39	C	0.988210	-0.428312	-0.428292
C40	C	1.488210	0.071688	0.071708
C41	C	0.895544	-0.423864	-0.423851
C42	C	1.395544	0.076136	0.076149
C43	C	1.151584	-1.100900	-0.486703
C44	C	1.651584	-0.600900	0.013297
C45	C	1.258285	-1.106017	-0.390820
C46	C	1.758285	-0.606017	0.109180
C47	C	1.258256	-1.023470	-0.390811
C48	C	1.758256	-0.523470	0.109189
C49	C	1.204889	-0.979634	-0.438748
C50	C	1.704889	-0.479634	0.061252
C51	C	1.151552	-1.018345	-0.486694
C52	C	1.651552	-0.518345	0.013306
C53	C	1.311586	-0.984751	-0.342860
C54	C	1.811586	-0.484751	0.157140
C55	C	1.311558	-0.902199	-0.342849
C56	C	1.811558	-0.402199	0.157151
C57	C	1.258196	-0.858362	-0.390791
C58	C	1.758196	-0.358362	0.109209
C59	C	1.204857	-0.897079	-0.438739
C60	C	1.704857	-0.397079	0.061261
C61	C	1.151490	-0.853243	-0.486677
C62	C	1.651490	-0.353243	0.013323
C63	C	1.098155	-0.891958	-0.534630
C64	C	1.598155	-0.391958	-0.034630
C65	C	1.098189	-0.974508	-0.534637
C66	C	1.598189	-0.474508	-0.034637
C67	C	1.258162	-0.775812	-0.390784
C68	C	1.758162	-0.275812	0.109216
C69	C	1.151458	-0.770688	-0.486668
C70	C	1.651458	-0.270688	0.013332
C71	C	0.725882	-0.415724	-0.415751
C72	C	1.225882	0.084276	0.084249
C73	C	0.684595	-0.461843	-0.461738
C74	C	1.184595	0.038157	0.038262
C75	C	0.590190	-0.457314	-0.457231
C76	C	1.090190	0.042686	0.042769
C77	C	0.820296	-0.420252	-0.420257
C78	C	1.320296	0.079748	0.079743
C79	C	1.422273	-0.449238	-0.449181
C80	C	1.922273	0.050762	0.050819
C81	C	1.514939	-0.453706	-0.453640
C82	C	2.014939	0.046294	0.046360
C83	C	1.204863	-0.438691	-0.644886
C84	C	1.704863	0.061309	-0.144886
C85	C	1.204882	-0.438664	-0.732744
C86	C	1.704882	0.061336	-0.232744
C87	C	1.204911	-0.232591	-0.438751
C88	C	1.704911	0.267409	0.061249
C89	C	1.204951	-0.144736	-0.438766
C90	C	1.704951	0.355264	0.061234
C91	C	1.151661	-0.385464	-1.101672
C92	C	1.651661	0.114536	-0.601672
C93	C	1.258250	-0.491704	-1.106774
C94	C	1.758250	0.008296	-0.606774
C95	C	1.258236	-0.491722	-1.024227
C96	C	1.758236	0.008278	-0.524227
C97	C	1.204932	-0.438611	-0.980399
C98	C	1.704932	0.061389	-0.480399
C99	C	1.151643	-0.385482	-1.019118
C100	C	1.651643	0.114518	-0.519118
C101	C	1.311519	-0.544855	-0.985502
C102	C	1.811519	-0.044855	-0.485502
C103	C	1.311506	-0.544876	-0.902951
C104	C	1.811506	-0.044876	-0.402951
C105	C	1.258205	-0.491760	-0.859121
C106	C	1.758205	0.008240	-0.359121
C107	C	1.204914	-0.438629	-0.897845
C108	C	1.704914	0.061371	-0.397845
C109	C	1.151611	-0.385517	-0.854016
C110	C	1.651611	0.114483	-0.354016
C111	C	1.098323	-0.332381	-0.892739
C112	C	1.598323	0.167619	-0.392739
C113	C	1.098342	-0.332366	-0.975288
C114	C	1.598342	0.167634	-0.475288
C115	C	1.258186	-0.491775	-0.776572
C116	C	1.758186	0.008225	-0.276572
C117	C	1.151593	-0.385535	-0.771462
C118	C	1.651593	0.114465	-0.271462
C119	C	1.204822	-0.438763	-0.233350
C120	C	1.704822	0.061237	0.266650
C121	C	1.204964	-0.438575	-0.145500
C122	C	1.704964	0.061425	0.354500
H123	H	1.054700	-0.856257	-0.573657
H124	H	1.554700	-0.356257	-0.073657
H125	H	1.108162	-1.132426	-0.525748
H126	H	1.608162	-0.632426	-0.025748
H127	H	1.054765	-1.006038	-0.573677
H128	H	1.554765	-0.506038	-0.073677
C129	C	1.370146	-0.603272	-1.033712
C130	C	1.870146	-0.103272	-0.533712
H131	H	1.362531	-0.595644	-1.088422
H132	H	1.862531	-0.095644	-0.588422
H133	H	1.357918	-0.655795	-1.019587
H134	H	1.857918	-0.155795	-0.519587
H135	H	1.426168	-0.594405	-1.022882
H136	H	1.926168	-0.094405	-0.522882
C137	C	1.039683	-0.273969	-0.844526
C138	C	1.539683	0.226031	-0.344526
H139	H	1.007943	-0.242325	-0.879405
H140	H	1.507943	0.257675	-0.379405
H141	H	1.071577	-0.241077	-0.813857
H142	H	1.571577	0.258923	-0.313857
H143	H	1.003336	-0.302476	-0.810576
H144	H	1.503336	0.197524	-0.310576
C145	C	1.092754	-0.722475	-0.539401
C146	C	1.592754	-0.222475	-0.039401
H147	H	1.060995	-0.757356	-0.567955
H148	H	1.560995	-0.257356	-0.067955
H149	H	1.124611	-0.691762	-0.575393
H150	H	1.624611	-0.191762	-0.075393
H151	H	1.056429	-0.688569	-0.507382
H152	H	1.556429	-0.188569	-0.007382
H153	H	1.301642	-0.534951	-1.142463
H154	H	1.801642	-0.034951	-0.642463
H155	H	1.354895	-0.588143	-0.871430
H156	H	1.854895	-0.088143	-0.371430
H157	H	1.301577	-0.535032	-0.745048
H158	H	1.801577	-0.035032	-0.245048
C159	C	0.732616	-0.519783	-0.519495
C160	C	1.232616	-0.019783	-0.019495
H161	H	0.694296	-0.548122	-0.547759
H162	H	1.194296	-0.048122	-0.047759
H163	H	0.766560	-0.555779	-0.490786
H164	H	1.266560	-0.055779	0.009214
H165	H	0.766614	-0.491187	-0.555584
H166	H	1.266614	0.008813	-0.055584
H167	H	1.301728	-1.141712	-0.351786
H168	H	1.801728	-0.641712	0.148214
H169	H	0.690330	-0.372843	-0.372997
H170	H	1.190330	0.127157	0.127003
H171	H	1.108189	-0.342281	-0.735783
H172	H	1.608189	0.157719	-0.235783
C173	C	1.370294	-1.032970	-0.290145
C174	C	1.870294	-0.532970	0.209855
H175	H	1.362684	-1.087679	-0.297030
H176	H	1.862684	-0.587679	0.202970
H177	H	1.358133	-1.018905	-0.236436
H178	H	1.858133	-0.518905	0.263564
H179	H	1.426297	-1.022086	-0.304464
H180	H	1.926297	-0.522086	0.195536
H181	H	1.054958	-0.289107	-1.006823
H182	H	1.554958	0.210893	-0.506823
C183	C	1.093047	-0.327022	-1.144261
C184	C	1.593047	0.172978	-0.644261
H185	H	1.100685	-0.334617	-1.199702
H186	H	1.600685	0.165383	-0.699702
H187	H	1.105266	-0.274506	-1.131330
H188	H	1.605266	0.225494	-0.631330
H189	H	1.037020	-0.335899	-1.128033
H190	H	1.537020	0.164101	-0.628033
H191	H	1.354987	-0.870683	-0.303804
H192	H	1.854987	-0.370683	0.196196
H193	H	1.301582	-0.744294	-0.351738
H194	H	1.801582	-0.244294	0.148262
