data_functionalizedCrystal
_audit_creation_method	'MofGen! by Chris Wilmer'
_symmetry_space_group_name_H-M	'P1'
_symmetry_Int_Tables_number	1
_symmetry_cell_setting	triclinic
loop_
_symmetry_equiv_pos_as_xyz
  x,y,z
_cell_length_a	11.026607
_cell_length_b	9.130313
_cell_length_c	11.026607
_cell_angle_alpha	89.999963
_cell_angle_beta	108.586017
_cell_angle_gamma	90.000251
loop_
_atom_site_label
_atom_site_type_symbol
_atom_site_fract_x
_atom_site_fract_y
_atom_site_fract_z
O1	O	1.726725	0.121796	0.533616
O2	O	1.360145	0.121798	0.472853
O3	O	1.513053	0.121792	0.319945
O4	O	1.573817	0.121802	0.686525
O5	O	1.513052	-0.121807	0.319949
O6	O	1.360144	-0.121801	0.472857
O7	O	1.726724	-0.121803	0.533621
Cu8	Cu	1.543434	-0.144044	0.503240
Cu9	Cu	1.543435	0.144039	0.503234
O10	O	1.573815	-0.121797	0.686529
C11	C	1.312485	-0.000001	0.461645
C12	C	1.170471	-0.000000	0.428228
C13	C	1.116821	0.000003	0.520498
C14	C	0.970043	0.000004	0.485962
N15	N	1.543442	-0.346667	0.503245
C16	C	1.611178	-0.423322	0.435571
C17	C	1.611171	-0.576659	0.435555
C18	C	1.475690	-0.576672	0.570897
C19	C	1.475690	-0.423338	0.570905
C20	C	1.678929	-0.346650	0.367911
C21	C	1.746672	-0.423305	0.300233
C22	C	1.746665	-0.576642	0.300217
C23	C	1.678915	-0.653324	0.367879
C24	C	1.774384	-0.000001	0.544828
C25	C	1.916398	0.000008	0.578245
C26	C	1.501843	-0.000006	0.272287
C27	C	1.468426	-0.000000	0.130273
N28	N	1.543435	0.346662	0.503221
C29	C	1.560695	0.000001	0.076624
C30	C	1.526160	0.000007	-0.070155
C31	C	1.585026	0.000004	0.734187
C32	C	1.618443	0.000008	0.876200
H33	H	0.979125	0.000001	0.682816
C34	C	1.804631	-0.127012	0.419941
C35	C	1.678940	-0.178102	0.367922
H36	H	1.804638	-0.022958	0.419941
H37	H	1.839834	-0.161706	0.505197
H38	H	1.854658	-0.161708	0.369945
H39	H	1.628916	-0.143415	0.417923
H40	H	1.643720	-0.143393	0.282652
H41	H	1.179555	-0.000002	0.625061
H42	H	1.801823	-0.360863	0.245136
C43	C	1.736448	-0.749050	0.132821
C44	C	1.821118	-0.660902	0.225821
H45	H	1.782419	-0.801058	0.086890
H46	H	1.696117	-0.816656	0.173117
H47	H	1.673398	-0.689210	0.075373
H48	H	1.884163	-0.720744	0.283275
H49	H	1.861470	-0.593289	0.185524
C50	C	1.306278	0.000019	-0.077153
C51	C	1.384991	0.000017	-0.154824
H52	H	1.219129	0.000036	-0.129427
H53	H	1.323145	-0.084929	-0.024695
H54	H	1.323165	0.084968	-0.024676
H55	H	1.368110	-0.084938	-0.207295
H56	H	1.368116	0.084974	-0.207304
H57	H	1.107738	0.000035	0.323666
C58	C	1.271406	-0.623910	0.597393
C59	C	1.401230	-0.660963	0.645271
H60	H	1.225440	-0.675956	0.643308
H61	H	1.261717	-0.521633	0.607093
H62	H	1.239011	-0.649039	0.509311
H63	H	1.433627	-0.635824	0.733351
H64	H	1.410926	-0.763263	0.635583
C65	C	1.449037	-0.376119	0.775125
C66	C	1.401243	-0.339061	0.645297
H67	H	1.403077	-0.324080	0.821048
H68	H	1.439332	-0.478397	0.784801
H69	H	1.537116	-0.350987	0.807578
H70	H	1.313167	-0.364204	0.612842
H71	H	1.410938	-0.236760	0.635614
H72	H	0.907314	0.000039	0.381393
H73	H	1.665258	-0.000009	0.139357
H74	H	1.678905	-0.778181	0.367850
H75	H	1.723013	0.000118	-0.061072
H76	H	1.363863	0.000010	0.067540
