data_functionalizedCrystal
_audit_creation_method	'MofGen! by Chris Wilmer'
_symmetry_space_group_name_H-M	'P1'
_symmetry_Int_Tables_number	1
_symmetry_cell_setting	triclinic
loop_
_symmetry_equiv_pos_as_xyz
  x,y,z
_cell_length_a	9.065218
_cell_length_b	10.268362
_cell_length_c	9.065215
_cell_angle_alpha	90.004315
_cell_angle_beta	85.015291
_cell_angle_gamma	90.004643
loop_
_atom_site_label
_atom_site_type_symbol
_atom_site_fract_x
_atom_site_fract_y
_atom_site_fract_z
O1	O	1.960399	0.108301	0.216358
O2	O	2.460399	0.608301	0.716358
O3	O	1.531114	0.108302	0.234105
O4	O	2.031114	0.608302	0.734105
O5	O	1.754632	0.108296	0.010589
O6	O	2.254632	0.608296	0.510589
O7	O	1.736881	0.108307	0.439874
O8	O	2.236881	0.608307	0.939874
O9	O	1.754613	-0.108305	0.010579
O10	O	2.254613	0.391695	0.510579
O11	O	1.531095	-0.108298	0.234095
O12	O	2.031095	0.391702	0.734095
O13	O	1.960380	-0.108300	0.216349
O14	O	2.460380	0.391700	0.716349
Cu15	Cu	1.745735	-0.128076	0.225221
Cu16	Cu	2.245735	0.371924	0.725221
Cu17	Cu	1.745759	0.128079	0.225232
Cu18	Cu	2.245759	0.628079	0.725232
O19	O	1.736862	-0.108294	0.439865
O20	O	2.236862	0.391706	0.939865
C21	C	1.476118	0.000002	0.232394
C22	C	1.976118	0.500002	0.732394
C23	C	1.312275	0.000003	0.227295
C24	C	1.812275	0.500003	0.727295
N25	N	1.745730	-0.308242	0.225212
N26	N	2.245730	0.191758	0.725212
C27	C	1.745751	-0.573913	0.225229
C28	C	2.245751	-0.073913	0.725229
C29	C	1.745734	-0.426075	0.225224
C30	C	2.245734	0.073925	0.725224
C31	C	2.015376	0.000003	0.218059
C32	C	2.515376	0.500003	0.718059
C33	C	2.179219	0.000011	0.223159
C34	C	2.679219	0.500011	0.723159
C35	C	1.752917	-0.000003	-0.044403
C36	C	2.252917	0.499997	0.455597
C37	C	1.747819	0.000001	-0.208246
C38	C	2.247819	0.500001	0.291754
N39	N	1.745776	0.308245	0.225230
N40	N	2.245776	0.808245	0.725230
C41	C	1.738576	0.000008	0.494856
C42	C	2.238576	0.500008	0.994856
C43	C	1.743674	0.000013	0.658699
C44	C	2.243674	0.500013	1.158699
