data_functionalizedCrystal
_audit_creation_method	'MofGen! by Chris Wilmer'
_symmetry_space_group_name_H-M	'P1'
_symmetry_Int_Tables_number	1
_symmetry_cell_setting	triclinic
loop_
_symmetry_equiv_pos_as_xyz
  x,y,z
_cell_length_a	19.288840
_cell_length_b	8.597304
_cell_length_c	18.366186
_cell_angle_alpha	82.293964
_cell_angle_beta	89.983729
_cell_angle_gamma	84.235515
loop_
_atom_site_label
_atom_site_type_symbol
_atom_site_fract_x
_atom_site_fract_y
_atom_site_fract_z
O1	O	0.922964	0.195588	-0.072939
O2	O	0.720918	0.222039	-0.074572
O3	O	0.825916	-0.019683	-0.059420
O4	O	0.817966	0.437310	-0.088091
O5	O	0.825897	-0.019695	0.061680
O6	O	0.720899	0.222027	0.046528
O7	O	0.922946	0.195576	0.048162
Zn8	Zn	0.821920	0.208800	0.066572
Zn9	Zn	0.821944	0.208816	-0.092983
O10	O	0.817948	0.437299	0.033009
C11	C	0.695025	0.221189	-0.013966
C12	C	0.617900	0.218653	-0.013797
C13	C	0.825052	-0.078155	0.004797
C14	C	0.822498	-0.252364	0.015722
C15	C	0.581696	0.217442	-0.079734
C16	C	0.509229	0.215042	-0.079593
C17	C	0.472971	0.213823	-0.013508
C18	C	0.509183	0.215043	0.052437
C19	C	0.581647	0.217459	0.052292
C20	C	0.362852	0.118069	0.043060
C21	C	0.290390	0.115644	0.043203
C22	C	0.249466	0.206380	-0.013060
C23	C	0.281016	0.299521	-0.069477
C24	C	0.353480	0.301937	-0.069621
C25	C	0.394395	0.211205	-0.013344
C26	C	0.134686	0.202569	-0.078849
C27	C	0.062218	0.200179	-0.078705
C28	C	0.062173	0.200164	0.053328
C29	C	0.134639	0.202570	0.053181
C30	C	0.170892	0.203765	-0.012909
C31	C	0.948839	0.196427	-0.012446
C32	C	1.025964	0.198962	-0.012620
C33	C	0.818812	0.495770	-0.031209
C34	C	0.821366	0.669979	-0.042139
N35	N	0.821908	0.208788	0.175464
N36	N	0.821961	0.208815	-0.201874
C37	C	0.868417	0.101806	0.220270
C38	C	0.868422	0.101799	0.296499
C39	C	0.821924	0.208801	0.327916
C40	C	0.775406	0.315792	0.283099
C41	C	0.775398	0.315785	0.206873
C42	C	0.813796	0.351797	0.439705
C43	C	0.813808	0.351805	0.515930
C44	C	0.821944	0.208821	0.563022
C45	C	0.830082	0.065822	0.533881
C46	C	0.830074	0.065815	0.457655
C47	C	0.821927	0.208820	0.410569
C48	C	0.868460	0.101822	0.690484
C49	C	0.868460	0.101813	0.766714
C50	C	0.775447	0.315819	0.753313
C51	C	0.775444	0.315815	0.677085
C52	C	0.821955	0.208818	0.645676
H53	H	0.611208	0.218415	-0.133550
H54	H	0.807187	0.468244	0.539650
H55	H	0.807159	0.468240	0.401368
O56	O	0.474162	0.213800	-0.143708
C57	C	0.521696	0.215423	-0.202073
H58	H	0.575888	0.167470	-0.179710
H59	H	0.522967	0.341557	-0.230286
C60	C	0.432140	0.170480	-0.285393
C61	C	0.498698	0.111571	-0.257926
H62	H	0.417953	0.106426	-0.319848
H63	H	0.400114	0.169393	-0.246072
H64	H	0.433207	0.275591	-0.308898
H65	H	0.497627	0.006470	-0.234413
H66	H	0.530723	0.112638	-0.297245
H67	H	0.032652	0.199181	0.107134
O68	O	0.730209	0.419520	0.313709
C69	C	0.686788	0.335726	0.363070
H70	H	0.713621	0.212757	0.382198
H71	H	0.635382	0.325362	0.334367
C72	C	0.639596	0.575336	0.406427
C73	C	0.672555	0.424308	0.429926
H74	H	0.630813	0.629980	0.447666
H75	H	0.668847	0.631792	0.373170
H76	H	0.596761	0.566679	0.382507
H77	H	0.715393	0.432968	0.453836
H78	H	0.643311	0.367856	0.463189
O79	O	0.821291	-0.331785	0.084854
C80	C	0.822876	-0.224613	0.136455
H81	H	0.802663	-0.101221	0.109430
H82	H	0.878702	-0.224139	0.156725
C83	C	0.801323	-0.426421	0.235139
C84	C	0.776492	-0.274870	0.201948
H85	H	0.772714	-0.457423	0.275540
H86	H	0.800258	-0.498627	0.200375
H87	H	0.847845	-0.426006	0.252024
H88	H	0.729974	-0.275291	0.185056
H89	H	0.777548	-0.202665	0.236711
H90	H	0.906287	0.014680	0.194699
H91	H	0.906296	0.014678	0.332987
H92	H	0.836698	-0.050619	0.433931
H93	H	0.836706	-0.050610	0.572222
H94	H	0.906329	0.014694	0.664910
O95	O	0.913709	-0.002173	0.810133
C96	C	0.954744	-0.096627	0.766061
H97	H	0.955956	-0.032289	0.707685
H98	H	0.931411	-0.213089	0.765275
C99	C	1.027964	-0.208416	0.869538
C100	C	1.029457	-0.129389	0.797840
H101	H	1.074050	-0.228633	0.889142
H102	H	1.000317	-0.144786	0.899231
H103	H	1.008516	-0.305459	0.868873
H104	H	1.048897	-0.032340	0.798507
H105	H	1.057110	-0.193004	0.768148
O106	O	0.730344	0.419700	0.783939
C107	C	0.740308	0.396735	0.860829
H108	H	0.795130	0.337756	0.874922
H109	H	0.700466	0.318251	0.887402
C110	C	0.663622	0.629780	0.872576
C111	C	0.730958	0.557353	0.889885
H112	H	0.657852	0.728855	0.890501
H113	H	0.656907	0.645250	0.820774
H114	H	0.630429	0.564361	0.894721
H115	H	0.764149	0.622763	0.867733
H116	H	0.737678	0.541898	0.941684
O117	O	0.730246	0.419903	0.633659
C118	C	0.689193	0.514321	0.677732
H119	H	0.717685	0.515928	0.731957
H120	H	0.637254	0.463670	0.689040
C121	C	0.641028	0.681733	0.570752
C122	C	0.676025	0.683718	0.637350
H123	H	0.632903	0.786223	0.545842
H124	H	0.668684	0.618119	0.541059
H125	H	0.597750	0.639516	0.580185
H126	H	0.719306	0.725914	0.627916
H127	H	0.648376	0.747343	0.667041
O128	O	0.822630	-0.250532	-0.111247
C129	C	0.882051	-0.308572	-0.147800
H130	H	0.900311	-0.433551	-0.121277
H131	H	0.925411	-0.229227	-0.143573
C132	C	0.841296	-0.156828	-0.261844
C133	C	0.863719	-0.310335	-0.229272
H134	H	0.829990	-0.157910	-0.312100
H135	H	0.801264	-0.117720	-0.237217
H136	H	0.877433	-0.090724	-0.258314
H137	H	0.827580	-0.376432	-0.232793
H138	H	0.903745	-0.349455	-0.253901
H139	H	0.737524	0.402904	0.170390
H140	H	0.379164	0.377779	-0.115556
H141	H	0.247697	0.373414	-0.115290
H142	H	0.164204	0.203558	-0.132664
H143	H	0.164117	0.203546	0.106875
O144	O	0.027003	0.199283	-0.142759
C145	C	-0.021875	0.333761	-0.155150
H146	H	-0.004910	0.429469	-0.123694
H147	H	-0.075230	0.301217	-0.135378
C148	C	-0.046946	0.277782	-0.276516
C149	C	-0.026106	0.395338	-0.237887
H150	H	-0.049559	0.315763	-0.327553
H151	H	-0.014018	0.187179	-0.268168
H152	H	-0.091407	0.250673	-0.260032
H153	H	0.018358	0.422431	-0.254365
H154	H	-0.059026	0.485948	-0.246240
O155	O	0.259855	0.025138	0.098075
C156	C	0.311512	-0.054441	0.147700
H157	H	0.359839	0.012289	0.143427
H158	H	0.325610	-0.178885	0.133721
C159	C	0.224255	-0.145363	0.231811
C160	C	0.283610	-0.063397	0.226568
H161	H	0.207044	-0.150896	0.280460
H162	H	0.189452	-0.091755	0.198377
H163	H	0.236011	-0.249058	0.220158
H164	H	0.271851	0.040301	0.238212
H165	H	0.318410	-0.116989	0.260006
O166	O	0.402685	0.029826	0.097625
C167	C	0.450211	-0.078394	0.067126
H168	H	0.458775	-0.032905	0.006927
H169	H	0.428339	-0.197589	0.071327
C170	C	0.509587	-0.152912	0.183395
C171	C	0.520109	-0.097035	0.109458
H172	H	0.552702	-0.164418	0.209508
H173	H	0.477566	-0.080007	0.203943
H174	H	0.491358	-0.252236	0.186885
H175	H	0.538329	0.002295	0.105968
H176	H	0.552134	-0.169924	0.088910
O177	O	0.474069	0.213926	0.116692
C178	C	0.521568	0.215470	0.174865
H179	H	0.570687	0.266874	0.152293
H180	H	0.535712	0.089848	0.203044
C181	C	0.427669	0.254280	0.258558
C182	C	0.487995	0.317427	0.230836
H183	H	0.406959	0.317165	0.293086
H184	H	0.395667	0.253233	0.219368
H185	H	0.439464	0.149596	0.282036
H186	H	0.476198	0.422100	0.207351
H187	H	0.519994	0.318493	0.270024
H188	H	0.611124	0.218447	0.105988
