data_functionalizedCrystal
_audit_creation_method	'MofGen! by Chris Wilmer'
_symmetry_space_group_name_H-M	'P1'
_symmetry_Int_Tables_number	1
_symmetry_cell_setting	triclinic
loop_
_symmetry_equiv_pos_as_xyz
  x,y,z
_cell_length_a	15.995300
_cell_length_b	14.519731
_cell_length_c	15.072220
_cell_angle_alpha	89.997664
_cell_angle_beta	90.007385
_cell_angle_gamma	83.580330
loop_
_atom_site_label
_atom_site_type_symbol
_atom_site_fract_x
_atom_site_fract_y
_atom_site_fract_z
O1	O	1.111200	0.118640	0.073817
O2	O	1.611200	0.618640	0.573817
O3	O	0.867442	0.133367	0.073812
O4	O	1.367442	0.633367	0.573812
O5	O	0.995775	-0.008247	0.073807
O6	O	1.495775	0.491753	0.573807
O7	O	0.982868	0.260254	0.073822
O8	O	1.482868	0.760254	0.573822
O9	O	0.995758	-0.008229	-0.073759
O10	O	1.495758	0.491771	0.426241
O11	O	0.867426	0.133385	-0.073753
O12	O	1.367426	0.633385	0.426247
O13	O	1.111184	0.118658	-0.073748
O14	O	1.611184	0.618658	0.426252
Zn15	Zn	0.989302	0.126024	-0.097180
Zn16	Zn	1.489302	0.626024	0.402820
Zn17	Zn	0.989324	0.126001	0.097244
Zn18	Zn	1.489324	0.626001	0.597244
O19	O	0.982851	0.260272	-0.073743
O20	O	1.482851	0.760272	0.426257
C21	C	0.836238	0.132776	0.000029
C22	C	1.336238	0.632776	0.500029
C23	C	0.743282	0.130975	0.000026
C24	C	1.243282	0.630975	0.500026
C25	C	0.573094	0.127649	0.000033
C26	C	1.073094	0.627649	0.500033
C27	C	0.525786	0.228481	0.000037
C28	C	1.025786	0.728481	0.500037
C29	C	0.429096	0.226642	0.000374
C30	C	0.929096	0.726642	0.500374
C31	C	0.405532	0.124376	0.000039
C32	C	0.905532	0.624376	0.500039
C33	C	0.446596	0.074339	0.084136
C34	C	0.946596	0.574339	0.584136
C35	C	0.543233	0.076891	0.084205
C36	C	1.043233	0.576891	0.584205
C37	C	0.543491	0.075418	-0.083610
C38	C	1.043491	0.575418	0.416390
C39	C	0.446547	0.075428	-0.084713
C40	C	0.946547	0.575428	0.415287
C41	C	0.310834	0.122521	0.000045
C42	C	0.810834	0.622521	0.500045
C43	C	0.667793	0.129501	0.000033
C44	C	1.167793	0.629501	0.500033
C45	C	0.995162	-0.042596	0.000024
C46	C	1.495162	0.457404	0.500024
C47	C	0.993350	-0.144972	0.000023
C48	C	1.493350	0.355028	0.500023
C49	C	1.142389	0.119249	0.000037
C50	C	1.642389	0.619249	0.500037
C51	C	1.235344	0.121050	0.000045
C52	C	1.735344	0.621050	0.500045
C53	C	0.991877	-0.228114	0.000025
C54	C	1.491877	0.271886	0.500025
C55	C	0.990037	-0.332419	0.000032
C56	C	1.490037	0.167581	0.500032
C57	C	0.988577	-0.415555	0.000038
C58	C	1.488577	0.084445	0.500038
C59	C	0.986737	-0.519866	0.000043
C60	C	1.486737	-0.019866	0.500043
C61	C	0.983464	0.294621	0.000042
C62	C	1.483464	0.794621	0.500042
C63	C	0.985277	0.396997	0.000048
C64	C	1.485277	0.896997	0.500048
N65	N	0.989294	0.126040	-0.229869
N66	N	1.489294	0.626040	0.270131
C67	C	0.989309	0.126018	-0.410866
C68	C	1.489309	0.626018	0.089134
C69	C	0.920630	0.201766	-0.448532
C70	C	1.420630	0.701766	0.051468
C71	C	0.920394	0.201559	-0.551358
C72	C	1.420394	0.701559	-0.051358
C73	C	0.989324	0.125999	-0.589070
C74	C	1.489324	0.625999	-0.089070
C75	C	0.970448	0.029661	-0.551734
C76	C	1.470448	0.529661	-0.051734
C77	C	0.969946	0.030117	-0.448876
C78	C	1.469946	0.530117	0.051124
C79	C	1.077075	0.145740	-0.448751
C80	C	1.577075	0.645740	0.051249
C81	C	1.076499	0.147915	-0.551616
C82	C	1.576499	0.647915	-0.051616
C83	C	0.989334	0.125982	-0.689784
C84	C	1.489334	0.625982	-0.189784
C85	C	0.989297	0.126029	-0.310153
C86	C	1.489297	0.626029	0.189847
N87	N	0.989339	0.125978	0.229932
N88	N	1.489339	0.625978	0.729932
H89	H	0.401316	0.265774	0.061015
H90	H	0.901316	0.765774	0.561015
F91	F	0.584891	-0.021746	-0.084684
F92	F	1.084891	0.478254	0.415316
F93	F	1.100841	0.235631	-0.414847
F94	F	1.600841	0.735631	0.085153
F95	F	0.567264	0.124004	0.166690
F96	F	1.067264	0.624004	0.666690
F97	F	0.835974	0.185485	-0.414773
F98	F	1.335974	0.685485	0.085227
F99	F	0.835268	0.185033	-0.583550
F100	F	1.335268	0.685033	-0.083550
F101	F	1.095228	0.240551	-0.583508
F102	F	1.595228	0.740551	-0.083508
F103	F	0.585268	-0.019886	0.088891
F104	F	1.085268	0.480114	0.588891
F105	F	0.935031	0.295673	-0.416207
F106	F	1.435031	0.795673	0.083793
F107	F	0.550442	0.281654	-0.078469
F108	F	1.050442	0.781654	0.421531
F109	F	0.886291	0.007478	-0.417540
F110	F	1.386291	0.507478	0.082460
F111	F	1.146423	0.080509	-0.585167
F112	F	1.646423	0.580509	-0.085167
F113	F	0.391960	0.278036	-0.078400
F114	F	0.891960	0.778036	0.421600
F115	F	0.426341	-0.022025	-0.091688
F116	F	0.926341	0.477975	0.408312
F117	F	1.143877	0.073548	-0.416905
F118	F	1.643877	0.573548	0.083095
F119	F	0.428014	-0.023878	0.087913
F120	F	0.928014	0.476122	0.587913
H121	H	0.545464	0.268392	0.060258
H122	H	1.045464	0.768392	0.560258
F123	F	0.935046	0.295146	-0.584358
F124	F	1.435046	0.795146	-0.084358
F125	F	1.032854	-0.045796	-0.416303
F126	F	1.532854	0.454204	0.083697
H127	H	1.019155	-0.028083	-0.576159
H128	H	1.519155	0.471917	-0.076159
H129	H	0.907189	0.011912	-0.577519
H130	H	1.407189	0.511912	-0.077519
F131	F	0.570345	0.118818	-0.166953
F132	F	1.070345	0.618818	0.333047
F133	F	0.410878	0.123185	-0.166037
F134	F	0.910878	0.623185	0.333963
F135	F	0.409641	0.119219	0.166256
F136	F	0.909641	0.619219	0.666256
