data_functionalizedCrystal
_audit_creation_method	'MofGen! by Chris Wilmer'
_symmetry_space_group_name_H-M	'P1'
_symmetry_Int_Tables_number	1
_symmetry_cell_setting	triclinic
loop_
_symmetry_equiv_pos_as_xyz
  x,y,z
_cell_length_a	16.625546
_cell_length_b	21.395362
_cell_length_c	21.395355
_cell_angle_alpha	89.956060
_cell_angle_beta	90.018476
_cell_angle_gamma	89.961654
loop_
_atom_site_label
_atom_site_type_symbol
_atom_site_fract_x
_atom_site_fract_y
_atom_site_fract_z
Zn1	Zn	-0.320753	-0.957895	0.354586
Zn2	Zn	-0.455568	-0.957813	0.249808
Zn3	Zn	-0.320791	-0.853110	0.249787
Zn4	Zn	-0.455585	-0.853095	0.354513
O5	O	-0.388174	-0.905478	0.302174
O6	O	-0.338614	-1.045562	0.340726
O7	O	-0.437699	-0.943896	0.162128
O8	O	-0.207953	-0.867051	0.263710
O9	O	-0.437662	-1.045502	0.263747
O10	O	-0.207926	-0.944036	0.340706
O11	O	-0.338678	-0.866971	0.162112
O12	O	-0.338694	-0.765430	0.263640
O13	O	-0.437690	-0.867024	0.442201
O14	O	-0.437727	-0.765419	0.340582
O15	O	-0.338630	-0.944021	0.442254
O16	O	-0.568403	-0.943881	0.263676
O17	O	-0.568415	-0.866945	0.340602
C18	C	-0.388217	-0.742691	0.302101
C19	C	-0.388255	-0.673049	0.302085
C20	C	-0.597665	-0.905419	0.302147
C21	C	-0.687286	-0.905451	0.302157
C22	C	-0.388158	-0.905530	0.465597
C23	C	-0.388151	-0.905552	0.535238
C24	C	-1.015462	-0.905560	0.302222
C25	C	-0.924153	-0.905528	0.302206
C26	C	-0.851377	-0.905505	0.302189
C27	C	-0.760063	-0.905474	0.302174
C28	C	-0.177865	-0.905555	0.302214
C29	C	-0.088244	-0.905588	0.302231
C30	C	-0.388132	-1.068902	0.302247
C31	C	-0.388114	-1.138543	0.302278
C32	C	-0.439889	-0.640347	0.342088
C33	C	-0.439870	-0.574911	0.342116
C34	C	-0.388224	-0.542181	0.302129
C35	C	-0.336579	-0.574892	0.262123
C36	C	-0.336594	-0.640326	0.262101
C37	C	-0.381728	-0.438456	0.245724
C38	C	-0.381718	-0.373023	0.245745
C39	C	-0.388171	-0.340360	0.302198
C40	C	-0.394651	-0.373139	0.358632
C41	C	-0.394666	-0.438573	0.358610
C42	C	-0.388201	-0.471229	0.302149
C43	C	-0.439787	-0.236705	0.342236
C44	C	-0.439762	-0.171268	0.342265
C45	C	-0.336475	-0.171250	0.262266
C46	C	-0.336496	-0.236686	0.262242
C47	C	-0.388157	-0.269409	0.302227
C48	C	-0.388132	-0.905463	0.139386
C49	C	-0.387912	-0.905562	0.069745
C50	C	-0.336568	-0.945643	0.567980
C51	C	-0.336534	-0.945642	0.633416
C52	C	-0.388096	-0.905557	0.666107
C53	C	-0.439683	-0.865459	0.633357
C54	C	-0.439710	-0.865457	0.567923
C55	C	-0.460699	-0.900589	0.769771
C56	C	-0.460672	-0.900596	0.835204
C57	C	-0.388011	-0.905561	0.867927
C58	C	-0.315373	-0.910532	0.835210
C59	C	-0.315401	-0.910530	0.769776
C60	C	-0.388072	-0.905555	0.737059
C61	C	-0.336386	-0.945653	0.971622
C62	C	-0.336350	-0.945648	1.037059
C63	C	-0.439506	-0.865468	1.036999
C64	C	-0.439535	-0.865470	0.971563
C65	C	-0.387976	-0.905566	0.938879
H66	H	-0.481954	-0.666986	0.374647
H67	H	-0.294545	-0.666952	0.229525
N68	N	-0.492620	-0.541487	0.382969
N69	N	-0.492599	-0.483064	0.382979
H70	H	-0.529855	-0.459459	0.411830
H71	H	-0.294454	-0.263312	0.229664
H72	H	-0.294584	-0.978291	0.541373
N73	N	-0.492180	-0.824514	1.070371
N74	N	-0.486853	-0.766701	1.063017
H75	H	-0.524055	-0.737774	1.086587
N76	N	-0.283707	-0.137837	0.221420
N77	N	-0.209316	-0.145204	0.225678
H78	H	-0.172043	-0.121605	0.196831
N79	N	-0.492520	-0.137873	0.383130
N80	N	-0.566915	-0.145129	0.378861
H81	H	-0.604178	-0.121544	0.407723
H82	H	-0.519853	-0.896379	0.743132
N83	N	-0.492356	-0.824508	0.666737
N84	N	-0.538407	-0.788711	0.637492
H85	H	-0.575604	-0.759783	0.661065
H86	H	-0.399904	-0.346547	0.404602
H87	H	-0.294524	-0.978287	0.660079
N88	N	-0.241203	-0.915608	0.736366
N89	N	-0.176329	-0.920043	0.765584
H90	H	-0.123924	-0.923628	0.741989
N91	N	-0.401285	-0.472046	0.416256
N92	N	-0.407050	-0.442883	0.466659
H93	H	-0.411722	-0.466523	0.507373
H94	H	-0.481714	-0.832807	0.541264
H95	H	-0.294399	-0.978298	0.945009
N96	N	-0.534850	-0.895495	0.868637
N97	N	-0.546096	-0.850730	0.905117
H98	H	-0.598480	-0.847121	0.928736
N99	N	-0.283825	-0.541472	0.221268
N100	N	-0.237727	-0.570682	0.185550
H101	H	-0.200465	-0.547080	0.156696
N102	N	-0.492559	-0.270126	0.383080
N103	N	-0.538655	-0.240916	0.418799
H104	H	-0.575927	-0.264518	0.447646
H105	H	-0.376447	-0.346339	0.199794
H106	H	-0.376470	-0.465044	0.199750
H107	H	-0.256205	-0.914576	0.861853
H108	H	-0.294340	-0.978293	1.063716
N109	N	-0.492233	-0.824515	0.938124
N110	N	-0.538265	-0.788725	0.967317
H111	H	-0.575484	-0.759796	0.943701
