data_functionalizedCrystal
_audit_creation_method	'MofGen! by Chris Wilmer'
_symmetry_space_group_name_H-M	'P1'
_symmetry_Int_Tables_number	1
_symmetry_cell_setting	triclinic
loop_
_symmetry_equiv_pos_as_xyz
  x,y,z
_cell_length_a	11.792241
_cell_length_b	14.971486
_cell_length_c	14.048226
_cell_angle_alpha	90.006640
_cell_angle_beta	90.002244
_cell_angle_gamma	83.903772
loop_
_atom_site_label
_atom_site_type_symbol
_atom_site_fract_x
_atom_site_fract_y
_atom_site_fract_z
O1	O	-1.506121	-0.122599	-0.079069
O2	O	-1.175698	-0.135234	-0.079091
O3	O	-1.349766	0.001248	-0.079072
O4	O	-1.332053	-0.259081	-0.079087
O5	O	-1.349745	0.001256	0.079249
O6	O	-1.175677	-0.135226	0.079230
O7	O	-1.506100	-0.122591	0.079253
Zn8	Zn	-1.340885	-0.128907	0.104378
Zn9	Zn	-1.340913	-0.128918	-0.104217
O10	O	-1.332032	-0.259073	0.079234
C11	C	-1.133402	-0.134436	0.000067
C12	C	-1.007404	-0.132061	0.000059
C13	C	-1.548396	-0.123389	0.000093
C14	C	-1.674395	-0.125764	0.000095
C15	C	-0.776720	-0.127692	0.000086
C16	C	-0.905089	-0.130120	0.000071
C17	C	-1.348963	0.034580	0.000088
C18	C	-1.346589	0.133887	0.000087
C19	C	-1.332835	-0.292405	0.000072
C20	C	-1.335209	-0.391711	0.000066
N21	N	-1.340875	-0.128899	0.246739
C22	C	-1.448849	0.190702	0.000094
C23	C	-1.446612	0.284011	0.000085
C24	C	-1.342114	0.320502	0.000074
C25	C	-1.239846	0.263679	0.000064
C26	C	-1.242084	0.170372	0.000067
C27	C	-1.235188	0.458160	0.000060
C28	C	-1.232949	0.551473	0.000059
C29	C	-1.439715	0.571798	0.000078
C30	C	-1.441954	0.478492	0.000081
C31	C	-1.339685	0.421675	0.000072
N32	N	-1.340932	-0.128919	-0.246577
C33	C	-1.417976	-0.068490	0.296565
C34	C	-1.417984	-0.068490	0.396223
C35	C	-1.340895	-0.128903	0.446053
C36	C	-1.263785	-0.189315	0.396219
C37	C	-1.263773	-0.189311	0.296564
C38	C	-1.263818	-0.189322	0.603934
C39	C	-1.263831	-0.189328	0.703596
C40	C	-1.418029	-0.068501	0.703593
C41	C	-1.418016	-0.068496	0.603937
C42	C	-1.340908	-0.128910	0.554111
H43	H	-1.529883	0.330267	0.000093
O44	O	-1.189072	-0.248045	0.555425
C45	C	-1.165066	-0.370107	0.442934
C46	C	-1.249830	-0.303640	0.497794
H47	H	-1.214155	-0.415085	0.396341
H48	H	-1.108329	-0.331234	0.396226
H49	H	-1.109949	-0.413250	0.495681
H50	H	-1.305022	-0.260480	0.445115
H51	H	-1.306488	-0.342566	0.544516
O52	O	-1.492943	-0.009727	0.555678
C53	C	-1.645932	0.110082	0.566186
C54	C	-1.561124	0.043586	0.620957
H55	H	-1.701094	0.153190	0.618940
H56	H	-1.596926	0.155089	0.519570
H57	H	-1.702616	0.071144	0.519489
H58	H	-1.504418	0.082451	0.667706
H59	H	-1.610201	-0.001421	0.667513
H60	H	-1.527045	0.448784	0.000096
H61	H	-1.201012	-0.238502	0.436796
H62	H	-1.480812	-0.019310	0.744167
O63	O	-1.188992	-0.248118	0.248202
C64	C	-1.122635	-0.403294	0.217730
C65	C	-1.207411	-0.336796	0.272540
H66	H	-1.137481	-0.475003	0.237402
H67	H	-1.135864	-0.392990	0.137933
H68	H	-1.031732	-0.391108	0.237327
H69	H	-1.298347	-0.348941	0.253022
H70	H	-1.194083	-0.347115	0.352323
H71	H	-1.147857	0.581181	0.000066
O72	O	-1.135877	0.402929	-0.000115
C73	C	-1.018448	0.285731	-0.082106
C74	C	-1.130941	0.348243	-0.082044
H75	H	-1.014431	0.241489	-0.148328
H76	H	-0.943328	0.327791	-0.082171
H77	H	-1.014338	0.241590	-0.015817
H78	H	-1.135162	0.392397	-0.148322
H79	H	-1.206008	0.306130	-0.081929
H80	H	-1.154761	0.293397	0.000049
H81	H	-1.533944	0.160999	0.000109
H82	H	-1.201056	-0.238522	0.744163
H83	H	-1.522986	0.618063	0.000082
H84	H	-1.158814	0.124113	0.000060
O85	O	-1.492905	-0.009717	0.248313
C86	C	-1.645889	0.110093	0.258839
C87	C	-1.561077	0.043592	0.313600
H88	H	-1.701044	0.153198	0.311600
H89	H	-1.596886	0.155103	0.212223
H90	H	-1.702579	0.071160	0.212143
H91	H	-1.504365	0.082452	0.360348
H92	H	-1.610150	-0.001417	0.360156
H93	H	-1.480765	-0.019299	0.436791
