data_functionalizedCrystal
_audit_creation_method	'MofGen! by Chris Wilmer'
_symmetry_space_group_name_H-M	'P1'
_symmetry_Int_Tables_number	1
_symmetry_cell_setting	triclinic
loop_
_symmetry_equiv_pos_as_xyz
  x,y,z
_cell_length_a	22.863218
_cell_length_b	22.862586
_cell_length_c	22.858745
_cell_angle_alpha	60.006856
_cell_angle_beta	60.013818
_cell_angle_gamma	59.991795
loop_
_atom_site_label
_atom_site_type_symbol
_atom_site_fract_x
_atom_site_fract_y
_atom_site_fract_z
O1	O	0.081006	-0.854581	0.714630
O2	O	0.030492	-0.665350	0.575795
O3	O	0.150314	-0.785089	0.575706
O4	O	-0.038816	-0.734841	0.714718
O5	O	0.190066	-0.745348	0.615369
O6	O	0.070244	-0.625609	0.615458
O7	O	0.120758	-0.814840	0.754293
Zn8	Zn	0.101812	-0.713914	0.691173
Zn9	Zn	0.049438	-0.766275	0.638915
O10	O	0.000936	-0.695100	0.754381
N11	N	0.137558	-0.678184	0.726840
N12	N	0.013698	-0.802011	0.603247
C13	C	0.187224	-0.518558	0.776483
C14	C	0.187235	-0.628552	0.776467
C15	C	0.214753	-0.601061	0.803961
C16	C	0.334724	-0.580392	0.740801
C17	C	0.409718	-0.605392	0.715784
C18	C	0.409746	-0.726732	0.762051
C19	C	0.334754	-0.701730	0.787070
C20	C	0.205297	-0.481049	0.702756
C21	C	0.180267	-0.406048	0.677779
C22	C	0.119099	-0.406071	0.800259
C23	C	0.144128	-0.481071	0.825236
C24	C	0.113501	-0.610437	0.794610
C25	C	0.088492	-0.635428	0.769607
C26	C	0.210943	-0.696652	0.708337
C27	C	0.235956	-0.671660	0.733331
C28	C	0.113585	-0.610461	0.923980
C29	C	0.088635	-0.635476	0.998978
C30	C	0.211128	-0.696714	0.998930
C31	C	0.236077	-0.671700	0.923930
C32	C	0.187303	-0.628571	0.886457
C33	C	0.297246	-0.628559	0.776441
C34	C	-0.117796	-0.823430	0.581283
C35	C	-0.007671	-0.823587	0.471446
C36	C	-0.007879	-0.933535	0.581483
C37	C	-0.007861	-0.823583	0.581554
C38	C	-0.035301	-0.851035	0.553942
N39	N	0.446162	-0.678198	0.726752
O40	O	0.691234	-0.690164	0.550341
O41	O	0.691462	-0.829422	0.739388
O42	O	0.691373	-0.829102	0.619485
O43	O	0.691323	-0.690484	0.670244
O44	O	0.572233	-0.789455	0.659278
O45	O	0.572322	-0.789775	0.779181
O46	O	0.572094	-0.650517	0.590134
Zn47	Zn	0.553292	-0.713851	0.690976
Zn48	Zn	0.710264	-0.766088	0.638547
O49	O	0.572183	-0.650837	0.710037
N50	N	0.817394	-0.801741	0.602763
N51	N	0.137538	-0.369628	0.726874
O52	O	-0.038795	-0.124419	0.714761
O53	O	0.150256	-0.124417	0.575522
O54	O	0.030331	-0.124432	0.575860
O55	O	0.081131	-0.124404	0.714423
O56	O	0.070086	-0.243584	0.615573
O57	O	0.190011	-0.243569	0.615236
O58	O	0.000960	-0.243571	0.754474
Zn59	Zn	0.101797	-0.262488	0.691160
Zn60	Zn	0.049419	-0.105500	0.638836
O61	O	0.120885	-0.243556	0.754137
N62	N	0.013669	0.001640	0.603123
N63	N	0.137749	-0.678230	1.035381
O64	O	0.125655	-0.854547	1.280566
O65	O	-0.013567	-0.665426	1.280590
O66	O	-0.013245	-0.785328	1.280537
O67	O	0.125333	-0.734644	1.280618
O68	O	0.026456	-0.745599	1.161392
O69	O	0.026134	-0.625697	1.161444
O70	O	0.165355	-0.814817	1.161420
Zn71	Zn	0.102048	-0.713949	1.142516
Zn72	Zn	0.049740	-0.766294	1.299495
O73	O	0.165033	-0.694915	1.161473
N74	N	0.014038	-0.802020	1.406629
C75	C	0.045634	-0.621635	0.576499
C76	C	0.194019	-0.769918	0.576389
C77	C	0.105616	-0.858555	0.753588
C78	C	-0.042769	-0.710272	0.753698
C79	C	0.631920	-0.828776	0.783102
C80	C	0.631811	-0.828380	0.634616
C81	C	0.631633	-0.651162	0.546422
C82	C	0.631745	-0.651559	0.694907
C83	C	0.193900	-0.183846	0.576155
C84	C	0.045437	-0.184012	0.576622
C85	C	-0.042734	-0.183994	0.753792
C86	C	0.105780	-0.183977	0.753375
C87	C	-0.012889	-0.621735	1.221020
C88	C	-0.012483	-0.770211	1.220931
C89	C	0.164678	-0.858508	1.220991
C90	C	0.164280	-0.710023	1.221052
H91	H	0.028603	-0.620718	1.029520
C92	C	0.105479	-0.321723	0.843197
C93	C	0.071727	-0.364855	0.853842
H94	H	0.076231	-0.296282	0.876280
H95	H	0.112651	-0.288657	0.795716
H96	H	0.150441	-0.350982	0.850390
H97	H	0.026767	-0.335595	0.846645
H98	H	0.064546	-0.397925	0.901335
C99	C	-0.116272	-0.756954	0.873988
C100	C	-0.116101	-0.695821	0.812632
H101	H	-0.161547	-0.748032	0.910368
H102	H	-0.079841	-0.768283	0.890437
H103	H	-0.107558	-0.796003	0.862770
H104	H	-0.124810	-0.656773	0.823849
H105	H	-0.152543	-0.684483	0.796180
C106	C	0.632021	-0.862287	0.900761
C107	C	0.632006	-0.887799	0.856396
H108	H	0.632079	-0.898728	0.946008
H109	H	0.590455	-0.821596	0.907061
H110	H	0.673549	-0.849246	0.879307
H111	H	0.590475	-0.900835	0.877847
H112	H	0.673576	-0.928502	0.850098
C113	C	-0.045414	-0.854730	1.220785
C114	C	-0.071232	-0.784815	1.220827
H115	H	-0.081683	-0.863743	1.220716
H116	H	-0.032401	-0.887790	1.262349
H117	H	-0.004654	-0.860069	1.179252
H118	H	-0.111989	-0.779478	1.262364
H119	H	-0.084255	-0.751746	1.179259
H120	H	0.034845	-0.567275	0.532897
C121	C	0.631762	-0.861351	0.550049
C122	C	0.631833	-0.887169	0.619958
H123	H	0.631770	-0.897644	0.541003
H124	H	0.673277	-0.848284	0.516992
H125	H	0.590183	-0.820622	0.544746
H126	H	0.673415	-0.927895	0.625259
H127	H	0.590314	-0.900246	0.653024
C128	C	0.631517	-0.617646	0.428767
C129	C	0.631535	-0.592135	0.473132
H130	H	0.631461	-0.581206	0.383521
H131	H	0.589997	-0.630688	0.450220
H132	H	0.673091	-0.658341	0.422465
H133	H	0.589959	-0.551444	0.479439
H134	H	0.673060	-0.579083	0.451675
C135	C	0.631789	-0.618587	0.779475
C136	C	0.631721	-0.592770	0.709566
H137	H	0.631770	-0.582290	0.788525
H138	H	0.673365	-0.659307	0.784779
H139	H	0.590271	-0.631660	0.812534
H140	H	0.673242	-0.579701	0.676507
H141	H	0.590141	-0.552036	0.704255
C142	C	0.311372	-0.183245	0.542440
C143	C	0.267040	-0.183393	0.516990
H144	H	0.356523	-0.182960	0.505911
H145	H	0.317901	-0.224883	0.583011
H146	H	0.289762	-0.141782	0.555647
H147	H	0.288647	-0.224858	0.503787
H148	H	0.260513	-0.141750	0.476406
C149	C	0.311646	-0.854268	0.543073
C150	C	0.267349	-0.784372	0.517454
H151	H	0.356917	-0.863188	0.506690
H152	H	0.290173	-0.887364	0.556117
H153	H	0.317896	-0.859648	0.583783
H154	H	0.261094	-0.778992	0.476748
H155	H	0.288826	-0.751266	0.504401
H156	H	0.034558	-0.184014	0.533090
C157	C	0.178070	-0.245235	0.828564
C158	C	0.120454	-0.183981	0.812152
H159	H	0.187124	-0.245241	0.864856
H160	H	0.219455	-0.245226	0.786873
H161	H	0.166699	-0.286780	0.845107
H162	H	0.131827	-0.142436	0.795605
H163	H	0.079060	-0.183984	0.853852
H164	H	0.116407	-0.912913	0.797192
C165	C	-0.160414	-0.183977	0.787302
C166	C	-0.116032	-0.183976	0.812801
H167	H	-0.205667	-0.183957	0.823730
H168	H	-0.138992	-0.225535	0.774305
H169	H	-0.166691	-0.142432	0.746583
H170	H	-0.109750	-0.225523	0.853517
H171	H	-0.137459	-0.142414	0.825808
H172	H	-0.056598	-0.567419	1.221026
C173	C	0.198185	-0.976181	1.220950
C174	C	0.223688	-0.931830	1.220981
H175	H	0.234615	-1.021448	1.220947
H176	H	0.185170	-0.954738	1.179396
H177	H	0.157478	-0.982446	1.262494
H178	H	0.264391	-0.925561	1.179434
H179	H	0.236712	-0.953279	1.262539
H180	H	0.207816	-0.699179	1.221068
H181	H	0.073862	-0.575336	0.893474
H182	H	0.250848	-0.731818	1.029432
H183	H	0.073825	-0.575337	0.829731
C184	C	0.348172	-0.766205	0.900797
C185	C	0.317115	-0.691612	0.882687
H186	H	0.398201	-0.778497	0.875340
H187	H	0.327100	-0.783442	0.888508
H188	H	0.340285	-0.787264	0.950827
H189	H	0.324998	-0.670554	0.832658
H190	H	0.338193	-0.674368	0.894972
C191	C	-0.023544	-0.640981	0.864139
C192	C	0.007443	-0.615529	0.789548
H193	H	-0.073578	-0.628701	0.876447
H194	H	-0.015629	-0.619922	0.885195
H195	H	-0.002447	-0.691585	0.881358
H196	H	-0.013651	-0.564925	0.772329
H197	H	-0.000478	-0.636586	0.768483
C198	C	0.334499	-0.754657	0.650289
C199	C	0.264502	-0.744037	0.660926
H200	H	0.367564	-0.783907	0.621014
H201	H	0.341729	-0.777564	0.695229
H202	H	0.341679	-0.709700	0.627398
H203	H	0.257320	-0.788995	0.683822
H204	H	0.257269	-0.721131	0.615977
H205	H	0.295996	-0.686402	0.718551
H206	H	0.440287	-0.786313	0.770693
C207	C	0.402158	-0.482940	0.672554
C208	C	0.450918	-0.552445	0.676603
H209	H	0.427595	-0.450253	0.648360
H210	H	0.372931	-0.481027	0.719535
H211	H	0.372885	-0.470398	0.647008
H212	H	0.480186	-0.564989	0.702153
H213	H	0.480156	-0.554360	0.629613
C214	C	0.342318	-0.824182	0.830278
C215	C	0.293555	-0.754680	0.826242
H216	H	0.316882	-0.856869	0.854459
H217	H	0.371587	-0.836731	0.855823
H218	H	0.371546	-0.826083	0.783287
H219	H	0.264329	-0.752777	0.873234
H220	H	0.264273	-0.742127	0.800699
C221	C	0.250406	-0.489719	0.795549
C222	C	0.293496	-0.499961	0.729119
H223	H	0.224950	-0.440064	0.788335
H224	H	0.279685	-0.507310	0.823009
H225	H	0.217352	-0.514829	0.820351
H226	H	0.326554	-0.474856	0.704320
H227	H	0.264215	-0.482362	0.701649
H228	H	0.240384	-0.511568	0.663058
H229	H	0.194981	-0.375507	0.617742
H230	H	0.129402	-0.511613	0.885274
