data_functionalizedCrystal
_audit_creation_method	'MofGen! by Chris Wilmer'
_symmetry_space_group_name_H-M	'P1'
_symmetry_Int_Tables_number	1
_symmetry_cell_setting	triclinic
loop_
_symmetry_equiv_pos_as_xyz
  x,y,z
_cell_length_a	19.805407
_cell_length_b	19.121063
_cell_length_c	19.805399
_cell_angle_alpha	92.411105
_cell_angle_beta	89.980427
_cell_angle_gamma	92.469032
loop_
_atom_site_label
_atom_site_type_symbol
_atom_site_fract_x
_atom_site_fract_y
_atom_site_fract_z
Zn1	Zn	1.023234	-0.279631	-0.394203
Zn2	Zn	1.018317	-0.397083	-0.285838
Zn3	Zn	0.910048	-0.279650	-0.281028
Zn4	Zn	0.905182	-0.397046	-0.398983
O5	O	0.964195	-0.338352	-0.340013
O6	O	1.117298	-0.295218	-0.379840
O7	O	1.003934	-0.381529	-0.190484
O8	O	0.929156	-0.181363	-0.292028
O9	O	1.113686	-0.381510	-0.300225
O10	O	1.012313	-0.181348	-0.375177
O11	O	0.924388	-0.295251	-0.186951
O12	O	0.814686	-0.295215	-0.296663
O13	O	0.920863	-0.381447	-0.493065
O14	O	0.811111	-0.381465	-0.383324
O15	O	1.007595	-0.295182	-0.489553
O16	O	0.999216	-0.495363	-0.304860
O17	O	0.916096	-0.495335	-0.387987
C18	C	0.788340	-0.338339	-0.339991
C19	C	0.713107	-0.338350	-0.339998
C20	C	0.675917	-0.383328	-0.385055
C21	C	0.605228	-0.383329	-0.385064
C22	C	0.571732	-0.338356	-0.340013
C23	C	0.608927	-0.293373	-0.294954
C24	C	0.679614	-0.293368	-0.294948
C25	C	0.323853	-0.293388	-0.294977
C26	C	0.253161	-0.293397	-0.294985
C27	C	0.249467	-0.383349	-0.385093
C28	C	0.320154	-0.383345	-0.385087
C29	C	0.357344	-0.338360	-0.340031
C30	C	0.433992	-0.338358	-0.340022
C31	C	0.495084	-0.338360	-0.340018
C32	C	0.956613	-0.520833	-0.347479
C33	C	0.953431	-0.598899	-0.350696
C34	C	0.995246	-0.635566	-0.308963
C35	C	0.992258	-0.708917	-0.311992
C36	C	0.947451	-0.745601	-0.356752
C37	C	0.905634	-0.708929	-0.398489
C38	C	0.908626	-0.635579	-0.395463
C39	C	0.936252	-0.967071	-0.368056
C40	C	0.933262	-1.040426	-0.371078
C41	C	1.019887	-1.040409	-0.284581
C42	C	1.022872	-0.967058	-0.281556
C43	C	0.981058	-0.930393	-0.323296
C44	C	0.944394	-0.820578	-0.359848
C45	C	0.984119	-0.855417	-0.320203
C46	C	1.140737	-0.338366	-0.340036
C47	C	1.215969	-0.338372	-0.340046
C48	C	0.964235	-0.338308	-0.516554
C49	C	0.964252	-0.338289	-0.591785
C50	C	0.971825	-0.155159	-0.332532
C51	C	0.975077	-0.077093	-0.329345
C52	C	1.009414	-0.293369	-0.625302
C53	C	1.009422	-0.293349	-0.695989
C54	C	0.964270	-0.338253	-0.733159
C55	C	0.919103	-0.383175	-0.699638
C56	C	0.919093	-0.383191	-0.628952
C57	C	0.919144	-0.383109	-0.984709
C58	C	0.919159	-0.383091	-1.055400
C59	C	1.009474	-0.293267	-1.051747
C60	C	1.009463	-0.293283	-0.981060
C61	C	0.964294	-0.338202	-0.947545
C62	C	0.964285	-0.338223	-0.870897
C63	C	0.964282	-0.338236	-0.809806
C64	C	0.964197	-0.338346	-0.164157
C65	C	0.964319	-0.338167	-0.088918
H66	H	0.219179	-0.419976	-0.421783
C67	C	0.881184	-0.502127	-0.612026
C68	C	0.869460	-0.432575	-0.592101
H69	H	0.850545	-0.532614	-0.589272
H70	H	0.874720	-0.508542	-0.659437
H71	H	0.926236	-0.512396	-0.600872
H72	H	0.824409	-0.422305	-0.603260
H73	H	0.875918	-0.426157	-0.544680
C74	C	0.403710	-0.283494	-0.203534
C75	C	0.364724	-0.243945	-0.245446
H76	H	0.428945	-0.252967	-0.172957
H77	H	0.374855	-0.314059	-0.178853
H78	H	0.433778	-0.310270	-0.230370
H79	H	0.334653	-0.217173	-0.218611
H80	H	0.393582	-0.213369	-0.270129
H81	H	0.882374	-0.419695	-0.957430
H82	H	0.581649	-0.256751	-0.258275
H83	H	0.225890	-0.256770	-0.258298
C84	C	0.676170	-0.204463	-0.205868
C85	C	0.720497	-0.243933	-0.245414
H86	H	0.701410	-0.173946	-0.175285
H87	H	0.649728	-0.177637	-0.234303
H88	H	0.647316	-0.235039	-0.181187
H89	H	0.749347	-0.213357	-0.270099
H90	H	0.746950	-0.270761	-0.216975
H91	H	0.703185	-0.419953	-0.421739
H92	H	1.031730	-0.605703	-0.272512
C93	C	1.133601	-1.062904	-0.252649
C94	C	1.065856	-1.080709	-0.238707
H95	H	1.161982	-1.087780	-0.224325
H96	H	1.142984	-1.074891	-0.298624
H97	H	1.141782	-1.013968	-0.244443
H98	H	1.057673	-1.129644	-0.246918
H99	H	1.056469	-1.068727	-0.192721
H100	H	0.882337	-0.419734	-0.729907
H101	H	0.574951	-0.419956	-0.421754
H102	H	0.347424	-0.419970	-0.421771
C103	C	0.876516	-0.612945	-0.509109
C104	C	0.862664	-0.595271	-0.441338
H105	H	0.848139	-0.588063	-0.537432
H106	H	0.922475	-0.600879	-0.518551
H107	H	0.868317	-0.661880	-0.517308
H108	H	0.870868	-0.546337	-0.433138
H109	H	0.816694	-0.607333	-0.431892
H110	H	1.026308	-0.738768	-0.278008
H111	H	1.020604	-0.825547	-0.283763
C112	C	1.056843	-0.944534	-0.166048
C113	C	1.072134	-0.926743	-0.232359
H114	H	1.087258	-0.919649	-0.135677
H115	H	1.011868	-0.932552	-0.155607
H116	H	1.061044	-0.993468	-0.161889
H117	H	1.067928	-0.877809	-0.236520
H118	H	1.117120	-0.938721	-0.242803
H119	H	0.907910	-0.850454	-0.396289
C120	C	1.047410	-0.174330	-1.068651
C121	C	1.059121	-0.243882	-1.088586
H122	H	1.078064	-0.143846	-1.091390
H123	H	1.002369	-0.164047	-1.079811
H124	H	1.053865	-0.167927	-1.021232
H125	H	1.052661	-0.250287	-1.136004
H126	H	1.104173	-0.254169	-1.077431
H127	H	0.902204	-0.937224	-0.402041
C128	C	0.847947	-1.033079	-0.456289
C129	C	0.884013	-1.080750	-0.420287
H130	H	0.817548	-1.057975	-0.486670
H131	H	0.823234	-1.004514	-0.425603
H132	H	0.878600	-1.004425	-0.481021
H133	H	0.853360	-1.109401	-0.395552
H134	H	0.908727	-1.109327	-0.450978
H135	H	0.882388	-0.419658	-1.085662
H136	H	0.869154	-0.738803	-0.434936
H137	H	1.046184	-0.256805	-0.595043
C138	C	1.098705	-0.204573	-0.685278
C139	C	1.059071	-0.243976	-0.732831
H140	H	1.129359	-0.174094	-0.708024
H141	H	1.070333	-0.177709	-0.656607
H142	H	1.123311	-0.235194	-0.658962
H143	H	1.034461	-0.213355	-0.759144
H144	H	1.087446	-0.270841	-0.761514
C145	C	1.022773	-0.198822	-0.897721
C146	C	1.059088	-0.243913	-0.940207
H147	H	1.053408	-0.168341	-0.872500
H148	H	0.994407	-0.171961	-0.924200
H149	H	0.995882	-0.225587	-0.867642
H150	H	1.085975	-0.217148	-0.970290
H151	H	1.087465	-0.270777	-0.913726
