data_functionalizedCrystal
_audit_creation_method	'MofGen! by Chris Wilmer'
_symmetry_space_group_name_H-M	'P1'
_symmetry_Int_Tables_number	1
_symmetry_cell_setting	triclinic
loop_
_symmetry_equiv_pos_as_xyz
  x,y,z
_cell_length_a	10.654550
_cell_length_b	23.532407
_cell_length_c	9.130313
_cell_angle_alpha	89.994125
_cell_angle_beta	89.996220
_cell_angle_gamma	83.666790
loop_
_atom_site_label
_atom_site_type_symbol
_atom_site_fract_x
_atom_site_fract_y
_atom_site_fract_z
O1	O	1.665300	0.079982	-0.121936
O2	O	1.299580	0.087603	-0.121914
O3	O	1.493468	0.000933	-0.121899
O4	O	1.471412	0.166652	-0.121952
O5	O	1.493466	0.000935	0.121700
O6	O	1.299578	0.087605	0.121684
O7	O	1.665298	0.079985	0.121662
Cu8	Cu	1.482437	0.083795	0.143916
Cu9	Cu	1.482440	0.083792	-0.144168
O10	O	1.471409	0.166655	0.121647
C11	C	1.252799	0.087044	-0.000112
C12	C	1.113408	0.085370	-0.000102
C13	C	1.032306	0.136400	-0.000140
C14	C	0.901335	0.134824	-0.000165
C15	C	0.932582	0.031183	-0.000121
C16	C	1.063550	0.032760	-0.000085
C17	C	1.014265	0.196236	-0.000172
C18	C	0.883294	0.194660	-0.000196
C19	C	1.492905	-0.020286	-0.000096
C20	C	1.491217	-0.083514	-0.000085
C21	C	1.595364	-0.481938	-0.000171
C22	C	1.593795	-0.541349	-0.000182
O23	O	1.690341	-0.577464	-0.000242
N24	N	1.478529	-0.564726	-0.000174
C25	C	1.364824	-0.528689	-0.000170
O26	O	1.266636	-0.554029	-0.000166
C27	C	1.366394	-0.469280	-0.000170
C28	C	1.481668	-0.445906	-0.000163
C29	C	1.710629	-0.458564	-0.000166
C30	C	1.712197	-0.399158	-0.000152
C31	C	1.598500	-0.363126	-0.000144
C32	C	1.483236	-0.386500	-0.000149
C33	C	1.252690	-0.433244	-0.000176
C34	C	1.254270	-0.373832	-0.000177
C35	C	1.369544	-0.350458	-0.000170
C36	C	1.371107	-0.291061	-0.000127
N37	N	1.486374	-0.267684	-0.000135
C38	C	1.600070	-0.303716	-0.000143
C39	C	1.361535	-0.653453	-0.000174
C40	C	1.359964	-0.712861	-0.000164
C41	C	1.588936	-0.725517	-0.000179
C42	C	1.590506	-0.666108	-0.000178
C43	C	1.476802	-0.630076	-0.000182
C44	C	1.603355	-0.178958	-0.000113
C45	C	1.604913	-0.119546	-0.000093
C46	C	1.375942	-0.106896	-0.000086
C47	C	1.374383	-0.166303	-0.000098
C48	C	1.488100	-0.202333	-0.000117
O49	O	1.274613	-0.254911	-0.000073
O50	O	1.698241	-0.278369	-0.000167
C51	C	1.712079	0.080543	-0.000143
C52	C	1.851469	0.082217	-0.000163
C53	C	1.471972	0.187873	-0.000159
C54	C	1.473661	0.251101	-0.000180
N55	N	1.482445	0.083797	0.346539
N56	N	1.482443	0.083786	-0.346791
C57	C	1.568320	0.045432	0.423197
C58	C	1.568317	0.045425	0.576534
C59	C	1.396559	0.122152	0.576540
C60	C	1.396557	0.122156	0.423206
C61	C	1.667487	0.001136	0.423195
C62	C	1.667483	0.001129	0.576532
H63	H	1.042853	0.219639	0.101772
H64	H	1.695954	-0.208288	-0.000134
Br65	Br	0.864909	-0.040213	-0.000093
Br66	Br	0.806201	0.224801	0.175073
Br67	Br	1.864953	-0.507455	-0.000179
H68	H	1.326620	0.153390	0.360792
H69	H	1.763686	0.010887	0.618139
Br70	Br	1.743240	-0.774429	-0.000196
Br71	Br	0.812536	0.232234	-0.170128
Br72	Br	1.618795	-0.067806	0.655822
H73	H	1.129581	-0.008793	-0.000034
Br74	Br	1.634062	-0.071816	0.353836
H75	H	1.049317	0.215288	-0.105349
H76	H	1.806065	-0.380133	-0.000153
Br77	Br	1.761367	-0.087829	-0.000082
H78	H	1.758231	0.015006	0.375626
Br79	Br	1.746954	-0.634393	-0.000166
H80	H	1.326631	0.153383	0.638979
H81	H	1.266096	-0.731887	-0.000144
Br82	Br	1.207207	-0.604558	-0.000166
H83	H	1.158822	-0.452264	-0.000190
Br84	Br	1.099947	-0.324935	-0.000188
H85	H	1.280517	-0.185334	-0.000063
H86	H	1.283373	-0.077548	-0.000074
