data_functionalizedCrystal
_audit_creation_method	'MofGen! by Chris Wilmer'
_symmetry_space_group_name_H-M	'P1'
_symmetry_Int_Tables_number	1
_symmetry_cell_setting	triclinic
loop_
_symmetry_equiv_pos_as_xyz
  x,y,z
_cell_length_a	31.640172
_cell_length_b	31.640171
_cell_length_c	15.698487
_cell_angle_alpha	59.994994
_cell_angle_beta	60.006320
_cell_angle_gamma	89.984411
loop_
_atom_site_label
_atom_site_type_symbol
_atom_site_fract_x
_atom_site_fract_y
_atom_site_fract_z
Zr1	Zr	-0.055660	0.407118	0.932561
Zr2	Zr	0.444340	0.907118	1.432561
O3	O	-0.123151	0.427801	0.932553
O4	O	0.376849	0.927801	1.432553
O5	O	-0.034941	0.339640	0.932539
O6	O	0.465059	0.839640	1.432539
O7	O	-0.123111	0.339637	1.110231
O8	O	0.376889	0.839637	1.610231
O9	O	0.034535	0.497351	0.614723
O10	O	0.534535	0.997351	1.114723
O11	O	-0.123112	0.339638	1.250414
O12	O	0.376888	0.839638	1.750414
O13	O	-0.034981	0.427803	0.754861
O14	O	0.465019	0.927803	1.254861
O15	O	0.034607	0.339642	0.932556
O16	O	0.534607	0.839642	1.432556
O17	O	-0.123184	0.497346	0.932581
O18	O	0.376816	0.997346	1.432581
O19	O	-0.026141	0.384726	1.037176
O20	O	0.473859	0.884726	1.537176
O21	O	0.025740	0.436628	0.827975
O22	O	0.525740	0.936628	1.327975
O23	O	-0.078068	0.436625	1.037185
O24	O	0.421932	0.936625	1.537185
O25	O	-0.026188	0.488528	0.827984
O26	O	0.473812	0.988528	1.327984
Zr27	Zr	0.055210	0.518039	0.932632
Zr28	Zr	0.555210	1.018039	1.432632
Zr29	Zr	-0.055661	0.407119	1.156137
Zr30	Zr	0.444339	0.907119	1.656137
Zr31	Zr	0.055212	0.518038	0.709056
Zr32	Zr	0.555212	1.018038	1.209056
Zr33	Zr	-0.055712	0.518035	0.932606
Zr34	Zr	0.444288	1.018035	1.432606
Zr35	Zr	0.055262	0.407122	0.932588
Zr36	Zr	0.555262	0.907122	1.432588
O37	O	0.034491	0.585517	0.932654
O38	O	0.534491	1.085517	1.432654
O39	O	-0.123153	0.427802	1.250450
O40	O	0.376847	0.927802	1.750450
O41	O	0.034494	0.585516	0.614758
O42	O	0.534494	1.085516	1.114758
O43	O	0.122701	0.497356	0.932640
O44	O	0.622701	0.997356	1.432640
O45	O	-0.034944	0.339641	1.250436
O46	O	0.465056	0.839641	1.750436
O47	O	0.122703	0.497355	0.614744
O48	O	0.622703	0.997355	1.114744
O49	O	-0.034985	0.427806	1.250471
O50	O	0.465015	0.927806	1.750471
O51	O	0.122661	0.585520	0.754962
O52	O	0.622661	1.085520	1.254962
O53	O	0.122662	0.585519	0.614779
O54	O	0.622662	1.085519	1.114779
O55	O	0.034532	0.497353	1.110332
O56	O	0.534532	0.997353	1.610332
O57	O	-0.123185	0.497347	1.110294
O58	O	0.376815	0.997347	1.610294
O59	O	0.122735	0.427810	0.754899
O60	O	0.622735	0.927810	1.254899
O61	O	0.122734	0.427810	0.932612
O62	O	0.622734	0.927810	1.432612
O63	O	0.034606	0.339643	1.110269
O64	O	0.534606	0.839643	1.610269
O65	O	-0.035056	0.585514	0.754925
O66	O	0.464944	1.085514	1.254925
O67	O	-0.035057	0.585515	0.932638
O68	O	0.464943	1.085515	1.432638
O69	O	0.077619	0.488532	0.828009
O70	O	0.577619	0.988532	1.328009
O71	O	0.025738	0.436629	1.037210
O72	O	0.525738	0.936629	1.537210
O73	O	-0.026190	0.488529	1.037218
O74	O	0.473810	0.988529	1.537218
O75	O	0.025691	0.540431	0.828017
O76	O	0.525691	1.040431	1.328017
C77	C	-0.000160	0.323838	0.932541
C78	C	0.499840	0.823838	1.432541
C79	C	-0.000137	0.276750	0.932522
C80	C	0.499863	0.776750	1.432522
C81	C	0.026861	-0.032463	0.823387
C82	C	0.526861	0.467537	1.323387
C83	C	0.026906	0.144537	0.823350
C84	C	0.526906	0.644537	1.323350
O85	O	0.049960	0.190462	0.730476
O86	O	0.549960	0.690462	1.230476
N87	N	-0.000170	0.139578	0.932548
N88	N	0.499830	0.639578	1.432548
C89	C	-0.027256	0.090365	1.041763
C90	C	0.472744	0.590365	1.541763
O91	O	-0.050280	0.090208	1.134642
O92	O	0.449720	0.590208	1.634642
C93	C	-0.027298	-0.086633	1.041798
C94	C	0.472702	0.413367	1.541798
C95	C	-0.000225	-0.081671	0.932593
C96	C	0.499775	0.418329	1.432593
C97	C	0.053932	-0.027502	0.714190
C98	C	0.553932	0.472498	1.214190
C99	C	0.053918	-0.071750	0.714200
C100	C	0.553918	0.428250	1.214200
C101	C	0.026833	-0.120958	0.823407
C102	C	0.526833	0.379042	1.323407
C103	C	-0.000239	-0.125918	0.932603
C104	C	0.499761	0.374082	1.432603
C105	C	-0.054381	-0.135846	1.151012
C106	C	0.445619	0.364154	1.651012
C107	C	-0.054388	-0.180095	1.151011
C108	C	0.445612	0.319905	1.651011
C109	C	-0.027315	-0.175133	1.041806
C110	C	0.472685	0.324867	1.541806
C111	C	-0.027338	-0.219374	1.041820
C112	C	0.472662	0.280626	1.541820
N113	N	-0.000263	-0.214415	0.932622
N114	N	0.499737	0.285585	1.432622
C115	C	0.026823	-0.165207	0.823415
C116	C	0.526823	0.334793	1.323415
C117	C	-0.027233	0.183293	1.041737
C118	C	0.472767	0.683293	1.541737
C119	C	-0.027223	0.227542	1.041729
C120	C	0.472777	0.727542	1.541729
C121	C	0.026940	0.281711	0.823315
C122	C	0.526940	0.781711	1.323315
C123	C	0.026927	0.237461	0.823325
C124	C	0.526927	0.737461	1.323325
C125	C	-0.000157	0.188252	0.932539
C126	C	0.499843	0.688252	1.432539
C127	C	0.026791	-0.258132	0.823445
C128	C	0.526791	0.241868	1.323445
C129	C	0.026773	-0.302385	0.823465
C130	C	0.526773	0.197615	1.323465
C131	C	-0.027388	-0.356550	1.041878
C132	C	0.472612	0.143450	1.541878
C133	C	-0.027372	-0.312301	1.041858
C134	C	0.472628	0.187699	1.541858
C135	C	-0.000279	-0.263090	0.932632
C136	C	0.499721	0.236910	1.432632
O137	O	-0.050375	-0.265314	1.134645
O138	O	0.449625	0.234686	1.634645
O139	O	0.049853	-0.165062	0.730550
O140	O	0.549853	0.334938	1.230550
C141	C	0.026875	0.011785	0.823376
C142	C	0.526875	0.511785	1.323376
C143	C	-0.000197	0.006824	0.932573
C144	C	0.499803	0.506824	1.432573
C145	C	-0.027283	-0.042384	1.041779
C146	C	0.472717	0.457616	1.541779
C147	C	-0.000187	0.051073	0.932564
C148	C	0.499813	0.551073	1.432564
C149	C	0.026898	0.100281	0.823358
C150	C	0.526898	0.600281	1.323358
C151	C	0.053974	0.105240	0.714160
C152	C	0.553974	0.605240	1.214160
C153	C	0.053960	0.060993	0.714170
C154	C	0.553960	0.560993	1.214170
C155	C	-0.054358	-0.047343	1.150977
C156	C	0.445642	0.452657	1.650977
C157	C	-0.054343	-0.003093	1.150958
C158	C	0.445657	0.496907	1.650958
C159	C	-0.027257	0.046115	1.041752
C160	C	0.472743	0.546115	1.541752
C161	C	-0.138971	0.462573	0.932563
C162	C	0.361029	0.962573	1.432563
C163	C	-0.186060	0.462571	0.932552
C164	C	0.313940	0.962571	1.432552
C165	C	-0.478115	0.500891	0.932633
C166	C	0.021885	1.000891	1.432633
C167	C	-0.655110	0.500895	0.932652
C168	C	-0.155110	1.000895	1.432652
O169	O	-0.678024	0.533466	0.932719
O170	O	-0.178024	1.033466	1.432719
N171	N	-0.677222	0.462582	0.932635
N172	N	-0.177222	0.962582	1.432635
C173	C	-0.655084	0.424263	0.932621
C174	C	-0.155084	0.924263	1.432621
O175	O	-0.677956	0.391673	0.932619
O176	O	-0.177956	0.891673	1.432619
C177	C	-0.478092	0.424258	0.932611
C178	C	0.021908	0.924258	1.432611
C179	C	-0.455980	0.462576	0.932616
C180	C	0.044020	0.962576	1.432616
C181	C	-0.456002	0.539206	0.932640
C182	C	0.043998	1.039206	1.432640
C183	C	-0.411755	0.539206	0.932629
C184	C	0.088245	1.039206	1.432629
C185	C	-0.389619	0.500891	0.932611
C186	C	0.110381	1.000891	1.432611
C187	C	-0.411732	0.462576	0.932604
C188	C	0.088268	0.962576	1.432604
C189	C	-0.455958	0.385938	0.932605
C190	C	0.044042	0.885938	1.432605
C191	C	-0.411708	0.385939	0.932606
C192	C	0.088292	0.885939	1.432606
C193	C	-0.389595	0.424257	0.932611
C194	C	0.110405	0.924257	1.432611
C195	C	-0.345349	0.424262	0.932576
C196	C	0.154651	0.924262	1.432576
N197	N	-0.323237	0.462575	0.932593
N198	N	0.176763	0.962575	1.432593
C199	C	-0.345372	0.500890	0.932611
C200	C	0.154628	1.000890	1.432611
C201	C	-0.748007	0.424269	0.932623
C202	C	-0.248007	0.924269	1.432623
C203	C	-0.792254	0.424271	0.932624
C204	C	-0.292254	0.924271	1.432624
C205	C	-0.792277	0.500902	0.932657
C206	C	-0.292277	1.000902	1.432657
C207	C	-0.748027	0.500902	0.932649
C208	C	-0.248027	1.000902	1.432649
C209	C	-0.725895	0.462582	0.932641
C210	C	-0.225895	0.962582	1.432641
C211	C	-0.252449	0.500888	0.932586
C212	C	0.247551	1.000888	1.432586
C213	C	-0.208196	0.500886	0.932570
C214	C	0.291804	1.000886	1.432570
C215	C	-0.208178	0.424254	0.932542
C216	C	0.291822	0.924254	1.432542
C217	C	-0.252426	0.424257	0.932552
C218	C	0.247574	0.924257	1.432552
C219	C	-0.274561	0.462576	0.932578
C220	C	0.225439	0.962576	1.432578
O221	O	-0.322411	0.391705	0.932522
O222	O	0.177589	0.891705	1.432522
O223	O	-0.322499	0.533468	0.932639
O224	O	0.177501	1.033468	1.432639
C225	C	-0.522363	0.500890	0.932645
C226	C	-0.022363	1.000890	1.432645
C227	C	-0.544475	0.462576	0.932638
C228	C	-0.044475	0.962576	1.432638
C229	C	-0.522340	0.424261	0.932620
C230	C	-0.022340	0.924261	1.432620
C231	C	-0.588722	0.462577	0.932638
C232	C	-0.088722	0.962577	1.432638
C233	C	-0.610857	0.500892	0.932656
C234	C	-0.110857	1.000892	1.432656
C235	C	-0.588745	0.539205	0.932674
C236	C	-0.088745	1.039205	1.432674
C237	C	-0.544498	0.539205	0.932662
C238	C	-0.044498	1.039205	1.432662
C239	C	-0.544452	0.385948	0.932603
C240	C	-0.044452	0.885948	1.432603
C241	C	-0.588699	0.385951	0.932613
C242	C	-0.088699	0.885951	1.432613
C243	C	-0.610834	0.424266	0.932631
C244	C	-0.110834	0.924266	1.432631
C245	C	0.138521	0.462584	0.932630
C246	C	0.638521	0.962584	1.432630
C247	C	0.185611	0.462586	0.932641
C248	C	0.685611	0.962586	1.432641
C249	C	-0.000223	0.462577	0.652937
C250	C	0.499777	0.962577	1.152937
C251	C	-0.000222	0.462577	0.558023
C252	C	0.499778	0.962577	1.058023
C253	C	-0.000290	0.601319	0.932652
C254	C	0.499710	1.101319	1.432652
C255	C	-0.000312	0.648407	0.932671
C256	C	0.499688	1.148407	1.432671
C257	C	-0.000227	0.462582	0.384248
C258	C	0.499773	0.962582	0.884248
C259	C	-0.000225	0.462581	0.480949
C260	C	0.499775	0.962581	0.980949
C261	C	-0.000227	0.462580	1.212256
C262	C	0.499773	0.962580	1.712256
C263	C	-0.000228	0.462580	1.307170
C264	C	0.499772	0.962580	1.807170
C265	C	-0.138908	0.323833	1.212167
C266	C	0.361092	0.823833	1.712167
C267	C	-0.185976	0.276745	1.307051
C268	C	0.314024	0.776745	1.807051
C269	C	-0.000162	0.323839	1.212201
C270	C	0.499838	0.823839	1.712201
C271	C	-0.000140	0.276752	1.307096
C272	C	0.499860	0.776752	1.807096
C273	C	0.138523	0.462583	0.652970
C274	C	0.638523	0.962583	1.152970
C275	C	0.185613	0.462584	0.558068
C276	C	0.685613	0.962584	1.058068
C277	C	-0.000288	0.601318	0.652993
C278	C	0.499712	1.101318	1.152993
C279	C	-0.000310	0.648405	0.558098
C280	C	0.499690	1.148405	1.058098
C281	C	0.138458	0.601324	0.653026
C282	C	0.638458	1.101324	1.153026
C283	C	0.185526	0.648412	0.558142
C284	C	0.685526	1.148412	1.058142
C285	C	-0.138973	0.462574	1.212223
C286	C	0.361027	0.962574	1.712223
C287	C	-0.186063	0.462573	1.307126
C288	C	0.313937	0.962573	1.807126
C289	C	-0.235190	0.281722	1.351623
C290	C	0.264810	0.781722	1.851623
C291	C	-0.279419	0.237481	1.440790
C292	C	0.220581	0.737481	1.940790
C293	C	-0.274434	0.188264	1.485376
C294	C	0.225566	0.688264	1.985376
C295	C	-0.225214	0.183287	1.440800
C296	C	0.274786	0.683287	1.940800
C297	C	-0.180986	0.227528	1.351641
C298	C	0.319014	0.727528	1.851641
C299	C	-0.027215	0.227542	1.351651
C300	C	0.472785	0.727542	1.851651
C301	C	-0.027205	0.183294	1.440828
C302	C	0.472795	0.683294	1.940828
C303	C	-0.000117	0.188258	1.485441
C304	C	0.499883	0.688258	1.985441
C305	C	0.026958	0.237474	1.440881
C306	C	0.526958	0.737474	1.940881
C307	C	0.026945	0.281720	1.351713
C308	C	0.526945	0.781720	1.851713
C309	C	0.234812	0.489683	0.513509
C310	C	0.734812	0.989683	1.013509
C311	C	0.279062	0.489694	0.424325
C312	C	0.779062	0.989694	0.924325
C313	C	0.274113	0.462605	0.379708
C314	C	0.774113	0.962605	0.879708
C315	C	0.224909	0.435505	0.424271
C316	C	0.724909	0.935505	0.924271
C317	C	0.180660	0.435497	0.513447
C318	C	0.680660	0.935497	1.013447
C319	C	0.026761	0.697615	0.513551
C320	C	0.526761	1.197615	1.013551
C321	C	0.026739	0.741863	0.424400
C322	C	0.526739	1.241863	0.924400
C323	C	-0.000351	0.736899	0.379790
C324	C	0.499649	1.236899	0.879790
C325	C	-0.027424	0.687683	0.424345
C326	C	0.472576	1.187683	0.924345
C327	C	-0.027405	0.643437	0.513501
C328	C	0.472595	1.143437	1.013501
C329	C	0.180524	0.697621	0.513579
C330	C	0.680524	1.197621	1.013579
C331	C	0.224745	0.741870	0.424413
C332	C	0.724745	1.241870	0.924413
C333	C	0.273967	0.736910	0.379818
C334	C	0.773967	1.236910	0.879818
C335	C	0.278968	0.687696	0.424385
C336	C	0.778968	1.187696	0.924385
C337	C	0.234748	0.643447	0.513544
C338	C	0.734748	1.143447	1.013544
C339	C	-0.181097	0.489665	1.351719
C340	C	0.318903	0.989665	1.851719
C341	C	-0.225339	0.489662	1.440902
C342	C	0.274661	0.989662	1.940902
C343	C	-0.274546	0.462569	1.485484
C344	C	0.225454	0.962569	1.985484
C345	C	-0.279512	0.435474	1.440886
C346	C	0.220488	0.935474	1.940886
C347	C	-0.235270	0.435474	1.351711
C348	C	0.264730	0.935474	1.851711
H349	H	0.048852	-0.218067	0.734503
H350	H	0.548852	0.281933	1.234503
H351	H	-0.319491	0.241543	1.477068
H352	H	0.180509	0.741543	1.977068
H353	H	-0.474021	0.570407	0.932658
H354	H	0.025979	1.070407	1.432658
H355	H	-0.239259	0.321794	1.315329
H356	H	0.260741	0.821794	1.815329
H357	H	0.309970	0.772943	0.307219
H358	H	0.809970	1.272943	0.807219
H359	H	0.319051	0.683664	0.388063
H360	H	0.819051	1.183664	0.888063
H361	H	-0.310566	0.462574	1.558096
H362	H	0.189434	0.962574	2.058096
H363	H	-0.606773	0.570404	0.932679
H364	H	-0.106773	1.070404	1.432679
H365	H	0.140448	0.701670	0.549877
H366	H	0.640448	1.201670	1.049877
H367	H	0.140601	0.413427	0.549725
H368	H	0.640601	0.913427	1.049725
H369	H	0.076026	0.145314	0.625240
H370	H	0.576026	0.645314	1.125240
H371	H	0.238852	0.511744	0.549822
H372	H	0.738852	1.011744	1.049822
H373	H	-0.310451	0.152245	1.557975
H374	H	0.189549	0.652245	2.057975
H375	H	-0.049424	-0.316343	1.130783
H376	H	0.450576	0.183657	1.630783
H377	H	0.048823	0.701667	0.549856
H378	H	0.548823	1.201667	1.049856
H379	H	-0.141034	0.511729	1.315431
H380	H	0.358966	1.011729	1.815431
H381	H	0.220886	0.413450	0.387931
H382	H	0.720886	0.913450	0.887931
H383	H	0.049012	0.241508	1.477219
H384	H	0.549012	0.741508	1.977219
H385	H	0.048993	0.321785	0.734395
H386	H	0.548993	0.821785	1.234395
H387	H	-0.319582	0.413416	1.477198
H388	H	0.180418	0.913416	1.977198
H389	H	-0.393756	0.570407	0.932640
H390	H	0.106244	1.070407	1.432640
H391	H	0.310148	0.462616	0.307096
H392	H	0.810148	0.962616	0.807096
H393	H	-0.000110	0.152226	1.558046
H394	H	0.499890	0.652226	2.058046
H395	H	-0.473954	0.354735	0.932601
H396	H	0.026046	0.854735	1.432601
H397	H	-0.270466	0.532091	0.932608
H398	H	0.229534	1.032091	1.432608
H399	H	-0.000362	0.772931	0.307193
H400	H	0.499638	1.272931	0.807193
H401	H	-0.076443	-0.220163	1.239948
H402	H	0.423557	0.279837	1.739948
H403	H	-0.221163	0.143208	1.477116
H404	H	0.278837	0.643208	1.977116
H405	H	-0.730025	0.532104	0.932652
H406	H	-0.230025	1.032104	1.432652
H407	H	-0.239321	0.413413	1.315407
H408	H	0.260679	0.913413	1.815407
H409	H	-0.810305	0.532102	0.932663
H410	H	-0.310305	1.032102	1.432663
H411	H	-0.221286	0.511729	1.477198
H412	H	0.278714	1.011729	1.977198
H413	H	0.238828	0.603381	0.549825
H414	H	0.738828	1.103381	1.049825
H415	H	0.048787	0.781931	0.388133
H416	H	0.548787	1.281931	0.888133
H417	H	-0.049280	0.223490	1.315350
H418	H	0.450720	0.723490	1.815350
H419	H	-0.810250	0.393073	0.932601
H420	H	-0.310250	0.893073	1.432601
H421	H	0.048819	-0.298338	0.734533
H422	H	0.548819	0.201662	1.234533
H423	H	-0.140916	0.223468	1.315352
H424	H	0.359084	0.723468	1.815352
H425	H	-0.049253	0.143226	1.477094
H426	H	0.450747	0.643226	1.977094
H427	H	0.076006	0.065040	0.625244
H428	H	0.576006	0.565040	1.125244
H429	H	0.075966	-0.067702	0.625274
H430	H	0.575966	0.432298	1.125274
H431	H	0.319122	0.511761	0.388056
H432	H	0.819122	1.011761	0.888056
H433	H	-0.076394	-0.007141	1.239892
H434	H	0.423606	0.492859	1.739892
H435	H	-0.190146	0.393060	0.932523
H436	H	0.309854	0.893060	1.432523
H437	H	0.075991	0.012563	0.625256
H438	H	0.575991	0.512563	1.125256
H439	H	-0.076414	-0.087408	1.239907
H440	H	0.423586	0.412592	1.739907
H441	H	0.048996	0.321787	1.315438
H442	H	0.548996	0.821787	1.815438
H443	H	-0.393687	0.354737	0.932587
H444	H	0.106313	0.854737	1.432587
H445	H	0.048973	0.241507	0.734400
H446	H	0.548973	0.741507	1.234400
H447	H	-0.049447	0.603370	0.549760
H448	H	0.450553	1.103370	1.049760
H449	H	-0.049275	0.223496	1.130653
H450	H	0.450725	0.723496	1.630653
H451	H	-0.049480	0.683649	0.388010
H452	H	0.450520	1.183649	0.888010
H453	H	-0.049289	0.143226	1.130676
H454	H	0.450711	0.643226	1.630676
H455	H	-0.049442	-0.396622	1.130792
H456	H	0.450558	0.103378	1.630792
H457	H	-0.190193	0.532091	0.932570
H458	H	0.309807	1.032091	1.432570
H459	H	-0.076427	-0.139895	1.239936
H460	H	0.423573	0.360105	1.739936
H461	H	-0.526435	0.354746	0.932595
H462	H	-0.026435	0.854746	1.432595
H463	H	-0.729992	0.393062	0.932622
H464	H	-0.229992	0.893062	1.432622
H465	H	-0.270427	0.393058	0.932534
H466	H	0.229573	0.893058	1.432534
H467	H	0.220662	0.781938	0.388141
H468	H	0.720662	1.281938	0.888141
H469	H	-0.526497	0.570408	0.932667
H470	H	-0.026497	1.070408	1.432667
H471	H	-0.606697	0.354748	0.932599
H472	H	-0.106697	0.854748	1.432599
