data_functionalizedCrystal
_audit_creation_method	'MofGen! by Chris Wilmer'
_symmetry_space_group_name_H-M	'P1'
_symmetry_Int_Tables_number	1
_symmetry_cell_setting	triclinic
loop_
_symmetry_equiv_pos_as_xyz
  x,y,z
_cell_length_a	13.032721
_cell_length_b	21.395364
_cell_length_c	21.395356
_cell_angle_alpha	90.017620
_cell_angle_beta	97.155355
_cell_angle_gamma	82.801232
loop_
_atom_site_label
_atom_site_type_symbol
_atom_site_fract_x
_atom_site_fract_y
_atom_site_fract_z
Zn1	Zn	-0.416226	-0.926155	-0.385974
Zn2	Zn	-0.590984	-0.912782	-0.294504
Zn3	Zn	-0.416237	-0.821384	-0.281210
Zn4	Zn	-0.590909	-0.808055	-0.399236
O5	O	-0.503589	-0.867094	-0.340231
O6	O	-0.439434	-1.012057	-0.373854
O7	O	-0.567839	-0.900640	-0.205065
O8	O	-0.269998	-0.846457	-0.283993
O9	O	-0.567828	-1.002232	-0.306651
O10	O	-0.269989	-0.923432	-0.360963
O11	O	-0.439454	-0.833490	-0.195298
O12	O	-0.439381	-0.731940	-0.296853
O13	O	-0.567701	-0.823739	-0.485152
O14	O	-0.567712	-0.722147	-0.383566
O15	O	-0.439362	-0.910507	-0.475408
O16	O	-0.737212	-0.887715	-0.319510
O17	O	-0.737157	-0.810772	-0.396457
C18	C	-0.503541	-0.704310	-0.340206
C19	C	-0.503545	-0.634669	-0.340213
C20	C	-0.436855	-0.137975	-0.375292
C21	C	-0.436850	-0.203411	-0.375293
C22	C	-0.503589	-0.231027	-0.340232
C23	C	-0.570356	-0.193200	-0.305181
C24	C	-0.570366	-0.127765	-0.305186
C25	C	-0.511702	-0.334054	-0.284385
C26	C	-0.511685	-0.399489	-0.284378
C27	C	-0.503564	-0.432850	-0.340217
C28	C	-0.495439	-0.400770	-0.396063
C29	C	-0.495449	-0.335335	-0.396068
C30	C	-0.503586	-0.301980	-0.340223
C31	C	-0.436802	-0.541621	-0.375270
C32	C	-0.436805	-0.607057	-0.375273
C33	C	-0.570305	-0.596845	-0.305155
C34	C	-0.570307	-0.531410	-0.305158
C35	C	-0.503550	-0.503802	-0.340215
C36	C	-0.775102	-0.846363	-0.360879
C37	C	-0.891256	-0.837551	-0.369733
C38	C	-0.943034	-0.871726	-0.335638
C39	C	-1.063086	-0.862620	-0.344788
C40	C	-0.231016	-0.887923	-0.319516
C41	C	-0.114861	-0.896800	-0.310688
C42	C	-0.503522	-0.867128	-0.503649
C43	C	-0.503493	-0.867143	-0.573288
C44	C	-0.503625	-0.030515	-0.340250
C45	C	-0.503609	-0.100157	-0.340242
C46	C	-0.436500	-0.912394	-1.069999
C47	C	-0.436526	-0.912388	-1.004566
C48	C	-0.503354	-0.867207	-0.976916
C49	C	-0.570181	-0.822040	-1.014707
C50	C	-0.570161	-0.822052	-1.080140
C51	C	-0.511620	-0.810109	-0.873868
C52	C	-0.511632	-0.810097	-0.808436
C53	C	-0.503421	-0.867170	-0.775100
C54	C	-0.495175	-0.924259	-0.807203
C55	C	-0.495155	-0.924271	-0.872635
C56	C	-0.503383	-0.867189	-0.905966
C57	C	-0.436630	-0.912329	-0.666367
C58	C	-0.436663	-0.912323	-0.600933
C59	C	-0.570313	-0.821970	-0.611075
C60	C	-0.570286	-0.821982	-0.676509
C61	C	-0.503439	-0.867161	-0.704150
C62	C	-0.503580	-0.867102	-0.177443
C63	C	-0.503315	-0.867231	-0.107781
H64	H	-0.488821	-0.427931	-0.441532
C65	C	-0.951435	-0.788914	-0.418321
N66	N	-0.996760	-0.752279	-0.454917
H67	H	-0.624571	-0.785273	-1.110902
C68	C	-0.643690	-0.772340	-0.984291
N69	N	-0.699060	-0.734905	-0.961382
H70	H	-0.382500	-0.115501	-0.403841
C71	C	-0.363379	-0.511249	-0.413840
N72	N	-0.308079	-0.488375	-0.442892
C73	C	-0.363364	-0.648658	-0.413831
N74	N	-0.308045	-0.679992	-0.442872
H75	H	-0.624697	-0.215689	-0.276636
C76	C	-0.643794	-0.086164	-0.266621
N77	N	-0.699098	-0.054829	-0.237571
H78	H	-0.518319	-0.306897	-0.238911
C79	C	-0.363408	-0.245019	-0.413848
N80	N	-0.308088	-0.276357	-0.442886
C81	C	-0.882856	-0.920362	-0.287049
N82	N	-0.837531	-0.956994	-0.250450
C83	C	-0.643728	-0.489809	-0.266590
N84	N	-0.699030	-0.458476	-0.237538
H85	H	-1.107631	-0.826620	-0.380758
H86	H	-1.070317	-0.932805	-0.274723
H87	H	-0.382073	-0.949185	-1.092501
H88	H	-0.488835	-0.309218	-0.441540
H89	H	-0.382114	-0.949165	-0.973798
C90	C	-0.643827	-0.772272	-0.580665
N91	N	-0.699201	-0.734838	-0.557756
C92	C	-0.643720	-0.627219	-0.266589
N93	N	-0.699021	-0.650099	-0.237541
H94	H	-0.518295	-0.425603	-0.238904
C95	C	-0.486098	-0.987067	-0.907947
N96	N	-0.479282	-1.034366	-0.934543
H97	H	-0.488485	-0.970733	-0.780062
C98	C	-0.363109	-0.962033	-0.696776
N99	N	-0.307734	-0.999470	-0.719679
H100	H	-0.382258	-0.949105	-0.570172
C101	C	-0.643776	-0.772292	-0.718070
N102	N	-0.699133	-0.734863	-0.749374
C103	C	-0.520696	-0.747299	-0.773129
N104	N	-0.527522	-0.699997	-0.746538
H105	H	-0.518308	-0.763630	-0.901005
