data_functionalizedCrystal
_audit_creation_method	'MofGen! by Chris Wilmer'
_symmetry_space_group_name_H-M	'P1'
_symmetry_Int_Tables_number	1
_symmetry_cell_setting	triclinic
loop_
_symmetry_equiv_pos_as_xyz
  x,y,z
_cell_length_a	10.654556
_cell_length_b	12.811415
_cell_length_c	9.130313
_cell_angle_alpha	84.565243
_cell_angle_beta	89.998873
_cell_angle_gamma	84.264596
loop_
_atom_site_label
_atom_site_type_symbol
_atom_site_fract_x
_atom_site_fract_y
_atom_site_fract_z
O1	O	1.667067	0.147457	-0.141327
O2	O	1.301517	0.161496	-0.143206
O3	O	1.493489	0.001752	-0.121974
O4	O	1.475096	0.307202	-0.162559
O5	O	1.493478	0.001748	0.121625
O6	O	1.301506	0.161493	0.100393
O7	O	1.667057	0.147454	0.102272
Cu8	Cu	1.484281	0.154474	0.123575
Cu9	Cu	1.484293	0.154477	-0.164509
O10	O	1.475085	0.307199	0.081040
C11	C	1.254719	0.160463	-0.021271
C12	C	1.115292	0.157374	-0.020867
C13	C	0.918775	0.153028	-0.153064
C14	C	1.049783	0.155923	-0.153458
C15	C	1.049790	0.155920	0.112128
C16	C	0.918786	0.153017	0.112521
C17	C	1.492453	-0.037362	0.005019
C18	C	1.489366	-0.153902	0.020494
C19	C	1.483555	-0.372880	-0.216030
C20	C	1.480655	-0.482381	-0.201497
C21	C	1.480657	-0.482405	0.064091
C22	C	1.483557	-0.372904	0.049558
C23	C	1.485008	-0.318146	-0.090507
C24	C	1.487917	-0.208645	-0.105038
C25	C	1.487910	-0.208670	0.160548
C26	C	1.485010	-0.318170	0.175081
C27	C	1.713855	0.148488	-0.019666
C28	C	1.853281	0.151576	-0.020080
C29	C	1.476121	0.346313	-0.045956
C30	C	1.479208	0.462853	-0.061441
N31	N	1.484281	0.154470	0.326198
N32	N	1.484303	0.154472	-0.367131
C33	C	1.569320	0.083762	0.565595
C34	C	1.569313	0.083763	0.412258
C35	C	1.399259	0.225188	0.393482
C36	C	1.399274	0.225191	0.546816
H37	H	1.103139	0.157095	0.220086
H38	H	1.638558	0.026180	0.635656
H39	H	0.865459	0.151834	0.220819
C40	C	1.662829	0.005979	0.338255
C41	C	1.759079	0.047737	0.227283
C42	C	1.852602	-0.030050	0.153280
C43	C	1.849874	-0.149596	0.190250
C44	C	1.753620	-0.191360	0.301227
C45	C	1.660098	-0.113573	0.375230
H46	H	1.761102	0.136237	0.199911
H47	H	1.923855	0.000867	0.071127
H48	H	1.919104	-0.207178	0.135468
H49	H	1.751597	-0.279860	0.328599
H50	H	1.588845	-0.144491	0.457383
H51	H	1.330029	0.282764	0.323403
C52	C	1.489509	-0.148406	-0.259104
C53	C	1.600424	-0.084249	-0.304153
C54	C	1.602011	-0.024013	-0.458223
C55	C	1.492683	-0.027934	-0.567242
C56	C	1.381759	-0.092094	-0.522195
C57	C	1.380172	-0.152330	-0.368126
H58	H	1.681363	-0.081344	-0.223448
H59	H	1.684124	0.023482	-0.491569
H60	H	1.493857	0.016656	-0.681294
H61	H	1.300820	-0.094999	-0.602900
H62	H	1.298059	-0.199825	-0.334780
H63	H	1.484748	-0.328296	-0.330076
C64	C	1.305748	0.302976	0.620830
C65	C	1.212208	0.380756	0.526186
C66	C	1.118691	0.458539	0.600202
C67	C	1.118715	0.458543	0.768863
C68	C	1.212259	0.380760	0.863517
C69	C	1.305775	0.302976	0.789501
H70	H	1.212187	0.380756	0.401324
H71	H	1.049444	0.516119	0.530132
H72	H	1.049488	0.516123	0.823654
H73	H	1.212279	0.380760	0.988379
H74	H	1.375023	0.245396	0.859572
C75	C	0.846722	0.151431	-0.298919
C76	C	0.742877	0.240420	-0.347272
C77	C	0.670829	0.238820	-0.493132
C78	C	0.702624	0.148231	-0.590638
C79	C	0.806474	0.059235	-0.542287
C80	C	0.878522	0.060835	-0.396427
H81	H	0.719336	0.307486	-0.275091
H82	H	0.593952	0.304701	-0.528924
H83	H	0.649289	0.147046	-0.698612
H84	H	0.830015	-0.007830	-0.614468
H85	H	0.955399	-0.005045	-0.360635
H86	H	1.103102	0.157103	-0.261746
C87	C	1.479063	-0.542590	-0.339573
C88	C	1.588384	-0.538647	-0.449647
C89	C	1.586790	-0.598856	-0.587731
C90	C	1.475874	-0.663008	-0.615740
C91	C	1.366544	-0.666953	-0.505663
C92	C	1.368138	-0.606744	-0.367580
H93	H	1.670498	-0.491156	-0.428916
H94	H	1.667724	-0.595935	-0.669217
H95	H	1.474693	-0.707578	-0.717958
H96	H	1.284430	-0.714444	-0.526395
H97	H	1.287205	-0.609665	-0.286094
H98	H	1.479465	-0.527007	0.178126
H99	H	1.483823	-0.362769	0.289118
H100	H	1.489097	-0.164094	0.262759
