data_functionalizedCrystal
_audit_creation_method	'MofGen! by Chris Wilmer'
_symmetry_space_group_name_H-M	'P1'
_symmetry_Int_Tables_number	1
_symmetry_cell_setting	triclinic
loop_
_symmetry_equiv_pos_as_xyz
  x,y,z
_cell_length_a	17.699083
_cell_length_b	26.809956
_cell_length_c	27.731996
_cell_angle_alpha	90.001656
_cell_angle_beta	97.047798
_cell_angle_gamma	89.997648
loop_
_atom_site_label
_atom_site_type_symbol
_atom_site_fract_x
_atom_site_fract_y
_atom_site_fract_z
O1	O	-1.003525	0.041411	0.061120
O2	O	-0.670192	0.374745	0.394454
O3	O	-0.336858	0.708078	0.727787
O4	O	-0.783074	0.041430	0.069073
O5	O	-0.449741	0.374763	0.402407
O6	O	-0.116408	0.708096	0.735740
O7	O	-0.900167	0.041409	-0.005277
O8	O	-0.566834	0.374742	0.328056
O9	O	-0.233500	0.708076	0.661390
O10	O	-0.886432	0.041432	0.135471
O11	O	-0.553099	0.374765	0.468804
O12	O	-0.219766	0.708098	0.802137
O13	O	-0.900145	-0.041550	-0.005266
O14	O	-0.566811	0.291783	0.328068
O15	O	-0.233478	0.625117	0.661401
O16	O	-0.783052	-0.041530	0.069085
O17	O	-0.449719	0.291804	0.402418
O18	O	-0.116385	0.625137	0.735751
O19	O	-1.003503	-0.041548	0.061132
O20	O	-0.670170	0.291785	0.394465
O21	O	-0.336836	0.625119	0.727798
Zn22	Zn	-0.893274	-0.054710	0.065110
Zn23	Zn	-0.559941	0.278623	0.398443
Zn24	Zn	-0.226607	0.611956	0.731777
Zn25	Zn	-0.893303	0.054592	0.065095
Zn26	Zn	-0.559970	0.387925	0.398428
Zn27	Zn	-0.226636	0.721259	0.731762
O28	O	-0.886410	-0.041527	0.135482
O29	O	-0.553077	0.291806	0.468815
O30	O	-0.219744	0.625139	0.802149
C31	C	-0.754869	-0.000048	0.068794
C32	C	-0.421535	0.333285	0.402127
C33	C	-0.088202	0.666619	0.735461
C34	C	-0.670858	-0.000041	0.067939
C35	C	-0.337525	0.333292	0.401273
C36	C	-0.004192	0.666625	0.734606
N37	N	-0.893260	-0.129306	0.065120
N38	N	-0.559926	0.204027	0.398453
N39	N	-0.226593	0.537360	0.731787
C40	C	-0.621840	-0.000034	0.111581
C41	C	-0.288507	0.333299	0.444915
C42	C	0.044827	0.666632	0.778248
C43	C	-0.542904	-0.000040	0.110775
C44	C	-0.209571	0.333293	0.444108
C45	C	0.123763	0.666626	0.777442
C46	C	-0.512988	-0.000050	0.066326
C47	C	-0.179655	0.333283	0.399660
C48	C	0.153679	0.666616	0.732993
C49	C	-0.562013	-0.000059	0.022681
C50	C	-0.228679	0.333275	0.356014
C51	C	0.104654	0.666608	0.689348
C52	C	-0.640947	-0.000056	0.023488
C53	C	-0.307614	0.333277	0.356821
C54	C	0.025719	0.666610	0.690154
C55	C	-0.243679	-0.000070	0.019427
C56	C	0.089654	0.333263	0.352760
C57	C	0.422987	0.666597	0.686093
C58	C	-0.164739	-0.000071	0.018623
C59	C	0.168595	0.333262	0.351957
C60	C	0.501928	0.666595	0.685290
C61	C	-0.145636	-0.000054	0.106714
C62	C	0.187697	0.333279	0.440048
C63	C	0.521031	0.666612	0.773381
C64	C	-0.224571	-0.000052	0.107521
C65	C	0.108763	0.333282	0.440854
C66	C	0.442096	0.666615	0.774188
C67	C	-0.273588	-0.000063	0.063876
C68	C	0.059745	0.333270	0.397209
C69	C	0.393078	0.666604	0.730542
C70	C	-0.359180	-0.000057	0.064750
C71	C	-0.025846	0.333276	0.398084
C72	C	0.307487	0.666609	0.731417
C73	C	-0.427398	-0.000052	0.065451
C74	C	-0.094065	0.333281	0.398785
C75	C	0.239268	0.666614	0.732118
C76	C	-0.945145	-0.473941	0.032181
C77	C	-0.611812	-0.140608	0.365514
C78	C	-0.278478	0.192725	0.698848
C79	C	-0.945163	-0.682819	0.032174
C80	C	-0.611830	-0.349486	0.365507
C81	C	-0.278496	-0.016153	0.698840
O82	O	-0.989247	-0.709831	0.004171
O83	O	-0.655914	-0.376497	0.337504
O84	O	-0.322580	-0.043164	0.670837
N85	N	-0.893307	-0.708933	0.065085
N86	N	-0.559974	-0.375600	0.398418
N87	N	-0.226641	-0.042267	0.731751
C88	C	-0.841440	-0.682825	0.097997
C89	C	-0.508107	-0.349492	0.431331
C90	C	-0.174773	-0.016158	0.764664
O91	O	-0.797329	-0.709830	0.125987
O92	O	-0.463995	-0.376496	0.459320
O93	O	-0.130662	-0.043163	0.792653
C94	C	-0.841419	-0.473948	0.098002
C95	C	-0.508086	-0.140615	0.431335
C96	C	-0.174752	0.192718	0.764669
C97	C	-0.893283	-0.447837	0.065092
C98	C	-0.559950	-0.114503	0.398426
C99	C	-0.226617	0.218830	0.731759
C100	C	-0.997005	-0.447830	-0.000727
C101	C	-0.663671	-0.114497	0.332607
C102	C	-0.330338	0.218837	0.665940
C103	C	-0.997002	-0.395614	-0.000723
C104	C	-0.663669	-0.062280	0.332611
C105	C	-0.330336	0.271053	0.665944
C106	C	-0.945140	-0.369509	0.032189
C107	C	-0.611807	-0.036176	0.365522
C108	C	-0.278474	0.297158	0.698855
C109	C	-0.893281	-0.395620	0.065096
C110	C	-0.559948	-0.062287	0.398430
C111	C	-0.226614	0.271046	0.731763
C112	C	-0.789549	-0.447841	0.130912
C113	C	-0.456216	-0.114508	0.464246
C114	C	-0.122882	0.218826	0.797579
C115	C	-0.789547	-0.395618	0.130910
C116	C	-0.456214	-0.062285	0.464243
C117	C	-0.122880	0.271048	0.797577
C118	C	-0.841411	-0.369507	0.098000
C119	C	-0.508078	-0.036174	0.431333
C120	C	-0.174745	0.297160	0.764667
C121	C	-0.841417	-0.317300	0.098012
C122	C	-0.508084	0.016034	0.431345
C123	C	-0.174750	0.349367	0.764678
N124	N	-0.893273	-0.291185	0.065101
N125	N	-0.559939	0.042148	0.398434
N126	N	-0.226606	0.375481	0.731767
C127	C	-0.945135	-0.317290	0.032189
C128	C	-0.611801	0.016043	0.365523
C129	C	-0.278468	0.349377	0.698856
C130	C	-0.841456	-0.792488	0.097993
C131	C	-0.508122	-0.459155	0.431327
C132	C	-0.174789	-0.125822	0.764660
C133	C	-0.841462	-0.844707	0.097993
C134	C	-0.508128	-0.511374	0.431326
C135	C	-0.174795	-0.178041	0.764660
C136	C	-0.945184	-0.844698	0.032168
C137	C	-0.611851	-0.511364	0.365502
C138	C	-0.278517	-0.178031	0.698835
C139	C	-0.945181	-0.792478	0.032171
C140	C	-0.611848	-0.459145	0.365505
C141	C	-0.278514	-0.125811	0.698838
C142	C	-0.893311	-0.766374	0.065082
C143	C	-0.559978	-0.433041	0.398416
C144	C	-0.226645	-0.099707	0.731749
C145	C	-0.945126	-0.207632	0.032200
C146	C	-0.611793	0.125701	0.365534
C147	C	-0.278460	0.459035	0.698867
C148	C	-0.945121	-0.155411	0.032209
C149	C	-0.611788	0.177922	0.365542
C150	C	-0.278455	0.511256	0.698875
C151	C	-0.841397	-0.155425	0.098031
C152	C	-0.508064	0.177908	0.431365
C153	C	-0.174730	0.511242	0.764698
C154	C	-0.841404	-0.207641	0.098025
C155	C	-0.508071	0.125692	0.431358
C156	C	-0.174737	0.459025	0.764692
C157	C	-0.893272	-0.233744	0.065106
C158	C	-0.559938	0.099590	0.398439
C159	C	-0.226605	0.432923	0.731772
O160	O	-0.797350	-0.290256	0.125996
O161	O	-0.464017	0.043078	0.459330
O162	O	-0.130684	0.376411	0.792663
O163	O	-0.989228	-0.290276	0.004197
O164	O	-0.655895	0.043057	0.337530
O165	O	-0.322561	0.376390	0.670864
C166	C	-0.945147	-0.526158	0.032177
C167	C	-0.611814	-0.192824	0.365510
C168	C	-0.278481	0.140509	0.698844
C169	C	-0.893288	-0.552269	0.065084
C170	C	-0.559955	-0.218936	0.398418
C171	C	-0.226621	0.114397	0.731751
C172	C	-0.841426	-0.526165	0.097996
C173	C	-0.508093	-0.192831	0.431329
C174	C	-0.174759	0.140502	0.764663
C175	C	-0.893294	-0.604488	0.065084
C176	C	-0.559961	-0.271155	0.398417
C177	C	-0.226627	0.062178	0.731751
C178	C	-0.945156	-0.630593	0.032173
C179	C	-0.611822	-0.297260	0.365506
C180	C	-0.278489	0.036074	0.698839
C181	C	-0.997011	-0.604479	-0.000738
C182	C	-0.663678	-0.271145	0.332595
C183	C	-0.330345	0.062188	0.665928
C184	C	-0.997009	-0.552262	-0.000734
C185	C	-0.663676	-0.218929	0.332599
C186	C	-0.330342	0.114404	0.665932
C187	C	-0.789570	-0.552279	0.130907
C188	C	-0.456237	-0.218946	0.464240
C189	C	-0.122904	0.114388	0.797573
C190	C	-0.789578	-0.604495	0.130901
C191	C	-0.456244	-0.271162	0.464234
C192	C	-0.122911	0.062171	0.797567
C193	C	-0.841439	-0.630600	0.097989
C194	C	-0.508106	-0.297267	0.431322
C195	C	-0.174773	0.036067	0.764656
C196	C	-0.031708	-0.000068	0.061411
C197	C	0.301625	0.333265	0.394744
C198	C	0.634958	0.666598	0.728078
C199	C	-0.115719	-0.000068	0.062266
C200	C	0.217615	0.333266	0.395599
C201	C	0.550948	0.666599	0.728933
C202	C	-0.899874	-0.000072	-0.023280
C203	C	-0.566540	0.333261	0.310054
C204	C	-0.233207	0.666594	0.643387
C205	C	-0.899024	-0.000077	-0.076939
C206	C	-0.565691	0.333256	0.256394
C207	C	-0.232357	0.666589	0.589728
N208	N	-0.893323	0.129188	0.065081
N209	N	-0.559990	0.462521	0.398415
N210	N	-0.226657	0.795855	0.731748
C211	C	-0.893689	0.045169	-0.409681
C212	C	-0.560356	0.378502	-0.076347
C213	C	-0.227023	0.711835	0.256986
C214	C	-0.890462	0.045178	-0.611350
C215	C	-0.557129	0.378511	-0.278017
C216	C	-0.223796	0.711844	0.055316
O217	O	-0.890023	0.083637	-0.637428
O218	O	-0.556689	0.416970	-0.304095
O219	O	-0.223356	0.750303	0.029239
N220	N	-0.890049	-0.000043	-0.636563
N221	N	-0.556716	0.333290	-0.303230
N222	N	-0.223383	0.666624	0.030104
C223	C	-0.890438	-0.045269	-0.611354
C224	C	-0.557105	0.288064	-0.278021
C225	C	-0.223772	0.621398	0.055312
O226	O	-0.890005	-0.083732	-0.637426
O227	O	-0.556672	0.249602	-0.304092
O228	O	-0.223339	0.582935	0.029241
C229	C	-0.893660	-0.045278	-0.409685
C230	C	-0.560327	0.288056	-0.076352
C231	C	-0.226993	0.621389	0.256982
C232	C	-0.894080	-0.000054	-0.384476
C233	C	-0.560747	0.333279	-0.051142
C234	C	-0.227414	0.666613	0.282191
C235	C	-0.894109	0.090389	-0.384471
C236	C	-0.560776	0.423722	-0.051138
C237	C	-0.227442	0.757055	0.282195
C238	C	-0.894920	0.090386	-0.334057
C239	C	-0.561586	0.423719	-0.000724
C240	C	-0.228253	0.757052	0.332609
C241	C	-0.895311	0.045163	-0.308852
C242	C	-0.561978	0.378497	0.024481
C243	C	-0.228644	0.711830	0.357814
C244	C	-0.894891	-0.000057	-0.334062
C245	C	-0.561558	0.333277	-0.000728
C246	C	-0.228225	0.666610	0.332605
C247	C	-0.894043	-0.090503	-0.384477
C248	C	-0.560710	0.242830	-0.051143
C249	C	-0.227377	0.576164	0.282190
C250	C	-0.894847	-0.090501	-0.334056
C251	C	-0.561514	0.242832	-0.000723
C252	C	-0.228180	0.576165	0.332611
C253	C	-0.895268	-0.045278	-0.308847
C254	C	-0.561934	0.288056	0.024486
C255	C	-0.228601	0.621389	0.357820
C256	C	-0.896093	-0.045282	-0.258443
C257	C	-0.562760	0.288051	0.074891
C258	C	-0.229427	0.621385	0.408224
N259	N	-0.896506	-0.000061	-0.233230
N260	N	-0.563173	0.333272	0.100103
N261	N	-0.229840	0.666605	0.433436
C262	C	-0.896115	0.045161	-0.258435
C263	C	-0.562782	0.378495	0.074898
C264	C	-0.229448	0.711828	0.408231
C265	C	-0.888748	-0.045261	-0.717234
C266	C	-0.555415	0.288072	-0.383900
C267	C	-0.222082	0.621405	-0.050567
C268	C	-0.887944	-0.045259	-0.767651
C269	C	-0.554611	0.288074	-0.434318
C270	C	-0.221278	0.621407	-0.100984
C271	C	-0.887967	0.045188	-0.767644
C272	C	-0.554634	0.378521	-0.434310
C273	C	-0.221300	0.711854	-0.100977
C274	C	-0.888776	0.045185	-0.717226
C275	C	-0.555443	0.378518	-0.383893
C276	C	-0.222110	0.711852	-0.050559
C277	C	-0.889161	-0.000041	-0.692021
C278	C	-0.555828	0.333293	-0.358688
C279	C	-0.222495	0.666626	-0.025355
C280	C	-0.897819	0.045152	-0.152562
C281	C	-0.564485	0.378485	0.180771
C282	C	-0.231152	0.711819	0.514105
C283	C	-0.898633	0.045145	-0.102144
C284	C	-0.565299	0.378479	0.231190
C285	C	-0.231966	0.711812	0.564523
C286	C	-0.898606	-0.045301	-0.102155
C287	C	-0.565273	0.288032	0.231178
C288	C	-0.231939	0.621365	0.564511
C289	C	-0.897796	-0.045295	-0.152569
C290	C	-0.564463	0.288039	0.180764
C291	C	-0.231129	0.621372	0.514097
C292	C	-0.897400	-0.000064	-0.177771
C293	C	-0.564066	0.333269	0.155562
C294	C	-0.230733	0.666603	0.488895
O295	O	-0.896525	-0.083721	-0.232333
O296	O	-0.563192	0.249612	0.101000
O297	O	-0.229858	0.582946	0.434333
O298	O	-0.896531	0.083618	-0.232354
O299	O	-0.563198	0.416952	0.100980
O300	O	-0.229865	0.750285	0.434313
C301	C	-0.892878	0.045171	-0.460095
C302	C	-0.559545	0.378505	-0.126761
C303	C	-0.226212	0.711838	0.206572
C304	C	-0.892459	-0.000049	-0.485304
C305	C	-0.559125	0.333285	-0.151971
C306	C	-0.225792	0.666618	0.181363
C307	C	-0.892850	-0.045271	-0.460099
C308	C	-0.559517	0.288062	-0.126766
C309	C	-0.226183	0.621396	0.206568
C310	C	-0.891655	-0.000047	-0.535721
C311	C	-0.558321	0.333287	-0.202388
C312	C	-0.224988	0.666620	0.130945
C313	C	-0.891264	0.045176	-0.560926
C314	C	-0.557930	0.378509	-0.227593
C315	C	-0.224597	0.711843	0.105741
C316	C	-0.891676	0.090397	-0.535714
C317	C	-0.558343	0.423730	-0.202380
C318	C	-0.225010	0.757063	0.130953
C319	C	-0.892487	0.090394	-0.485300
C320	C	-0.559154	0.423727	-0.151966
C321	C	-0.225821	0.757061	0.181367
C322	C	-0.892437	-0.090492	-0.485312
C323	C	-0.559104	0.242842	-0.151978
C324	C	-0.225770	0.576175	0.181355
C325	C	-0.891627	-0.090485	-0.535726
C326	C	-0.558294	0.242848	-0.202392
C327	C	-0.224960	0.576181	0.130941
C328	C	-0.891236	-0.045263	-0.560931
C329	C	-0.557903	0.288071	-0.227597
C330	C	-0.224569	0.621404	0.105736
C331	C	-0.886703	-0.000045	0.153485
C332	C	-0.553370	0.333288	0.486818
C333	C	-0.220037	0.666622	0.820152
C334	C	-0.887553	-0.000037	0.207144
C335	C	-0.554220	0.333297	0.540478
C336	C	-0.220887	0.666630	0.873811
H337	H	-0.646191	-0.000026	0.147777
H338	H	-0.312857	0.333307	0.481110
H339	H	0.020476	0.666641	0.814443
H340	H	-0.799216	-0.771238	0.124795
H341	H	-0.465883	-0.437905	0.458128
H342	H	-0.132550	-0.104572	0.791461
H343	H	-0.893702	-0.127329	-0.404994
H344	H	-0.560369	0.206004	-0.071660
H345	H	-0.227036	0.539338	0.261673
H346	H	-0.889118	0.082010	-0.696704
H347	H	-0.555784	0.415343	-0.363370
H348	H	-0.222451	0.748677	-0.030037
H349	H	-0.898928	-0.082120	-0.081625
H350	H	-0.565595	0.251213	0.251709
H351	H	-0.232261	0.584546	0.585042
H352	H	-0.502996	-0.000034	0.146313
H353	H	-0.169662	0.333299	0.479646
H354	H	0.163671	0.666633	0.812980
H355	H	-0.799179	-0.228902	0.124828
H356	H	-0.465845	0.104431	0.458161
H357	H	-0.132512	0.437765	0.791494
H358	H	-0.891361	0.127219	-0.556245
H359	H	-0.558028	0.460552	-0.222911
H360	H	-0.224695	0.793885	0.110422
H361	H	-0.799237	-0.865964	0.124796
H362	H	-0.465904	-0.532630	0.458129
H363	H	-0.132570	-0.199297	0.791463
H364	H	-0.248923	-0.000042	0.143716
H365	H	0.084410	0.333292	0.477049
H366	H	0.417743	0.666625	0.810382
H367	H	-1.039242	-0.625742	-0.027535
H368	H	-0.705909	-0.292408	0.305799
H369	H	-0.372575	0.040925	0.639132
H370	H	-0.892757	-0.127318	-0.464795
H371	H	-0.559423	0.206015	-0.131462
H372	H	-0.226090	0.539348	0.201872
H373	H	-0.897492	0.081983	-0.173075
H374	H	-0.564159	0.415317	0.160258
H375	H	-0.230825	0.748650	0.493591
H376	H	-0.747306	-0.374367	0.157710
H377	H	-0.413973	-0.041034	0.491043
H378	H	-0.080639	0.292299	0.824376
H379	H	-0.537649	-0.000074	-0.013510
H380	H	-0.204316	0.333259	0.319823
H381	H	0.129018	0.666593	0.653157
H382	H	-0.799174	-0.134163	0.124829
H383	H	-0.465840	0.199171	0.458162
H384	H	-0.132507	0.532504	0.791495
H385	H	-0.283581	-0.000080	-0.016112
H386	H	0.049753	0.333254	0.317221
H387	H	0.383086	0.666587	0.650555
H388	H	-0.987413	-0.865961	0.005371
H389	H	-0.654080	-0.532628	0.338704
H390	H	-0.320746	-0.199294	0.672038
H391	H	-0.105716	-0.000048	0.142252
H392	H	0.227617	0.333285	0.475586
H393	H	0.560951	0.666619	0.808919
H394	H	-0.680858	-0.000062	-0.012050
H395	H	-0.347525	0.333272	0.321283
H396	H	-0.014191	0.666605	0.654616
H397	H	-0.987361	-0.228878	0.005394
H398	H	-0.654027	0.104455	0.338727
H399	H	-0.320694	0.437788	0.672060
H400	H	-0.140385	-0.000080	-0.017574
H401	H	0.192948	0.333254	0.315759
H402	H	0.526282	0.666587	0.649093
H403	H	-0.987358	-0.134153	0.005409
H404	H	-0.654025	0.199181	0.338743
H405	H	-0.320691	0.532514	0.672076
H406	H	-0.898977	0.081973	-0.081621
H407	H	-0.565643	0.415307	0.251712
H408	H	-0.232310	0.748640	0.585046
H409	H	-1.039242	-0.531006	-0.027533
H410	H	-0.705908	-0.197673	0.305801
H411	H	-0.372575	0.135661	0.639134
H412	H	-0.897461	-0.082120	-0.173096
H413	H	-0.564127	0.251214	0.160237
H414	H	-0.230794	0.584547	0.493570
H415	H	-0.895259	0.127212	-0.313536
H416	H	-0.561926	0.460545	0.019797
H417	H	-0.228593	0.793878	0.353130
H418	H	-1.039237	-0.469080	-0.027529
H419	H	-0.705903	-0.135746	0.305804
H420	H	-0.372570	0.197587	0.639138
H421	H	-1.039232	-0.374357	-0.027522
H422	H	-0.705899	-0.041023	0.305811
H423	H	-0.372566	0.292310	0.639145
H424	H	-0.987413	-0.771221	0.005373
H425	H	-0.654079	-0.437888	0.338707
H426	H	-0.320746	-0.104554	0.672040
H427	H	-0.887649	0.082010	-0.788174
H428	H	-0.554316	0.415343	-0.454841
H429	H	-0.220982	0.748676	-0.121507
H430	H	-0.747345	-0.625752	0.157704
H431	H	-0.414011	-0.292418	0.491037
H432	H	-0.080678	0.040915	0.824371
H433	H	-0.747316	-0.469094	0.157710
H434	H	-0.413983	-0.135760	0.491044
H435	H	-0.080649	0.197573	0.824377
H436	H	-0.747337	-0.531029	0.157707
H437	H	-0.414004	-0.197695	0.491040
H438	H	-0.080671	0.135638	0.824373
H439	H	-0.892829	0.127220	-0.464779
H440	H	-0.559496	0.460553	-0.131445
H441	H	-0.226163	0.793886	0.201888
H442	H	-0.893788	0.127216	-0.404988
H443	H	-0.560454	0.460550	-0.071654
H444	H	-0.227121	0.793883	0.261679
H445	H	-0.887614	-0.082085	-0.788173
H446	H	-0.554280	0.251248	-0.454840
H447	H	-0.220947	0.584582	-0.121506
H448	H	-0.889066	-0.082092	-0.696717
H449	H	-0.555732	0.251242	-0.363384
H450	H	-0.222399	0.584575	-0.030050
H451	H	-0.895149	-0.127330	-0.313536
H452	H	-0.561816	0.206003	0.019797
H453	H	-0.228482	0.539336	0.353130
H454	H	-0.891291	-0.127315	-0.556247
H455	H	-0.557957	0.206019	-0.222914
H456	H	-0.224624	0.539352	0.110419
