data_functionalizedCrystal
_audit_creation_method	'MofGen! by Chris Wilmer'
_symmetry_space_group_name_H-M	'P1'
_symmetry_Int_Tables_number	1
_symmetry_cell_setting	triclinic
loop_
_symmetry_equiv_pos_as_xyz
  x,y,z
_cell_length_a	10.723024
_cell_length_b	11.792241
_cell_length_c	9.798715
_cell_angle_alpha	89.996704
_cell_angle_beta	89.996609
_cell_angle_gamma	84.330643
loop_
_atom_site_label
_atom_site_type_symbol
_atom_site_fract_x
_atom_site_fract_y
_atom_site_fract_z
O1	O	1.656766	0.159192	-0.113483
O2	O	1.293573	0.174430	-0.113488
O3	O	1.483983	0.001660	-0.113475
O4	O	1.466356	0.331962	-0.113495
O5	O	1.483969	0.001659	0.113507
O6	O	1.293559	0.174430	0.113495
O7	O	1.656752	0.159192	0.113499
Zn8	Zn	1.475153	0.166811	0.149535
Zn9	Zn	1.475172	0.166811	-0.149523
O10	O	1.466342	0.331962	0.113487
C11	C	1.247070	0.173321	0.000003
C12	C	1.108524	0.170003	0.000001
C13	C	1.033286	0.266676	-0.000005
C14	C	0.890091	0.263249	-0.000007
C15	C	1.482869	-0.040634	0.000015
C16	C	1.479555	-0.166655	0.000014
C17	C	1.473461	-0.397380	-0.000009
C18	C	1.476847	-0.268988	0.000003
C19	C	1.703256	0.160301	0.000006
C20	C	1.841801	0.163619	-0.000002
C21	C	1.467456	0.374255	-0.000006
C22	C	1.470770	0.500276	-0.000014
N23	N	1.475150	0.166809	0.353635
N24	N	1.475186	0.166803	-0.353623
C25	C	1.555098	0.093948	0.421417
C26	C	1.555118	0.093944	0.578580
H27	H	1.074882	0.351978	-0.000002
O28	O	0.813099	0.362063	0.000167
C29	C	0.748736	0.537583	0.117787
C30	C	0.836024	0.425729	0.117746
H31	H	0.767222	0.589076	0.212854
H32	H	0.767289	0.589236	0.022857
H33	H	0.647002	0.517199	0.117718
H34	H	0.937789	0.446009	0.117863
H35	H	0.817364	0.374108	0.212667
H36	H	0.906445	0.080854	-0.000005
H37	H	1.066928	0.084701	-0.000028
H38	H	1.623527	0.031567	0.363099
O39	O	1.636951	0.019632	0.648045
C40	C	1.853301	-0.045633	0.691921
C41	C	1.760764	0.038613	0.613190
H42	H	1.953423	-0.030332	0.663747
H43	H	1.838879	-0.032380	0.806300
H44	H	1.836095	-0.136620	0.663928
H45	H	1.777914	0.129634	0.641068
H46	H	1.775208	0.025261	0.498830
O47	O	1.393350	0.241181	0.577006
C48	C	1.176997	0.306343	0.532993
C49	C	1.269534	0.222064	0.611677
H50	H	1.076871	0.290900	0.560974
H51	H	1.194026	0.397366	0.561028
H52	H	1.191596	0.293103	0.418638
H53	H	1.254990	0.235199	0.726050
H54	H	1.252482	0.131071	0.583530
H55	H	1.406712	0.229182	0.411955
