data_functionalizedCrystal
_audit_creation_method	'MofGen! by Chris Wilmer'
_symmetry_space_group_name_H-M	'P1'
_symmetry_Int_Tables_number	1
_symmetry_cell_setting	triclinic
loop_
_symmetry_equiv_pos_as_xyz
  x,y,z
_cell_length_a	14.971490
_cell_length_b	13.448316
_cell_length_c	14.971486
_cell_angle_alpha	90.002892
_cell_angle_beta	96.385112
_cell_angle_gamma	89.992749
loop_
_atom_site_label
_atom_site_type_symbol
_atom_site_fract_x
_atom_site_fract_y
_atom_site_fract_z
O1	O	-1.186943	0.082746	0.116576
O2	O	-0.686943	0.582746	0.616576
O3	O	-0.926544	0.082736	0.130531
O4	O	-0.426544	0.582736	0.630531
O5	O	-1.063723	0.082734	-0.006647
O6	O	-0.563723	0.582734	0.493353
O7	O	-1.049764	0.082748	0.253753
O8	O	-0.549764	0.582748	0.753753
O9	O	-1.063709	-0.082649	-0.006645
O10	O	-0.563709	0.417351	0.493355
O11	O	-0.926530	-0.082647	0.130532
O12	O	-0.426530	0.417353	0.630532
O13	O	-1.186930	-0.082638	0.116577
O14	O	-0.686930	0.417362	0.616577
Cu15	Cu	-1.056729	-0.097743	0.123555
Cu16	Cu	-0.556729	0.402257	0.623555
Cu17	Cu	-1.056745	0.097842	0.123553
Cu18	Cu	-0.556745	0.597842	0.623553
O19	O	-1.049751	-0.082636	0.253755
O20	O	-0.549751	0.417364	0.753755
C21	C	-0.893212	0.000043	0.129907
C22	C	-0.393212	0.500043	0.629907
C23	C	-0.793915	0.000039	0.128035
C24	C	-0.293915	0.500039	0.628035
C25	C	-0.366217	0.090209	0.119956
C26	C	0.133783	0.590209	0.619956
C27	C	-0.459517	0.090206	0.121713
C28	C	0.040483	0.590206	0.621713
C29	C	-0.506156	0.000052	0.122597
C30	C	-0.006156	0.500052	0.622597
C31	C	-0.459490	-0.090105	0.121716
C32	C	0.040510	0.409895	0.621716
C33	C	-0.366192	-0.090101	0.119954
C34	C	0.133808	0.409899	0.619954
C35	C	-0.653952	-0.090106	0.125393
C36	C	-0.153952	0.409894	0.625393
C37	C	-0.747256	-0.090111	0.127157
C38	C	-0.247256	0.409889	0.627157
C39	C	-0.747277	0.090200	0.127151
C40	C	-0.247277	0.590200	0.627151
C41	C	-0.653979	0.090204	0.125389
C42	C	-0.153979	0.590204	0.625389
C43	C	-0.607320	0.000047	0.124510
C44	C	-0.107320	0.500047	0.624510
N45	N	-1.056724	-0.235308	0.123555
N46	N	-0.556724	0.264692	0.623555
C47	C	-1.063092	0.000043	-0.039971
C48	C	-0.563092	0.500043	0.460029
C49	C	-1.061221	0.000044	-0.139268
C50	C	-0.561221	0.500044	0.360732
C51	C	-0.220261	0.000055	0.117202
C52	C	0.279739	0.500055	0.617202
C53	C	-0.319558	0.000059	0.119078
C54	C	0.180442	0.500059	0.619078
C55	C	-1.002455	-0.712560	0.069205
C56	C	-0.502455	-0.212560	0.569205
C57	C	-1.002452	-0.608457	0.069202
C58	C	-0.502452	-0.108457	0.569202
C59	C	-1.056747	-0.556389	0.123546
C60	C	-0.556747	-0.056389	0.623546
C61	C	-1.111055	-0.608429	0.177889
C62	C	-0.611055	-0.108429	0.677889
C63	C	-1.111062	-0.712531	0.177886
C64	C	-0.611062	-0.212531	0.677886
C65	C	-1.111034	-0.391449	0.177892
C66	C	-0.611034	0.108551	0.677892
C67	C	-1.111026	-0.287341	0.177897
C68	C	-0.611026	0.212659	0.677897
C69	C	-1.002424	-0.287376	0.069208
C70	C	-0.502424	0.212624	0.569208
C71	C	-1.002431	-0.391477	0.069205
C72	C	-0.502431	0.108523	0.569205
C73	C	-1.056738	-0.443510	0.123550
C74	C	-0.556738	0.056490	0.623550
N75	N	-1.056757	0.235406	0.123546
N76	N	-0.556757	0.735406	0.623546
C77	C	-1.141810	0.000046	-0.196492
C78	C	-0.641810	0.500046	0.303508
C79	C	-1.140047	0.000056	-0.289791
C80	C	-0.640047	0.500056	0.210209
C81	C	-1.057694	0.000056	-0.325865
C82	C	-0.557694	0.500056	0.174135
C83	C	-0.977099	0.000057	-0.268633
C84	C	-0.477099	0.500057	0.231367
C85	C	-0.978863	0.000054	-0.175336
C86	C	-0.478863	0.500054	0.324664
C87	C	-0.973428	0.000061	-0.463096
C88	C	-0.473428	0.500061	0.036904
C89	C	-0.971663	0.000062	-0.556400
C90	C	-0.471663	0.500062	-0.056400
C91	C	-1.134612	0.000062	-0.577552
C92	C	-0.634612	0.500062	-0.077552
C93	C	-1.136376	0.000059	-0.484254
C94	C	-0.636376	0.500059	0.015746
C95	C	-1.055780	0.000058	-0.427029
C96	C	-0.555780	0.500058	0.072971
C97	C	-1.050382	0.000058	0.287079
C98	C	-0.550382	0.500058	0.787079
C99	C	-1.052252	0.000064	0.386376
C100	C	-0.552252	0.500064	0.886376
H101	H	-0.616008	0.163615	0.124675
H102	H	-0.116008	0.663615	0.624675
H103	H	-0.785226	-0.163522	0.127882
H104	H	-0.285226	0.336478	0.627882
Br105	Br	-0.928717	-0.216761	-0.004542
Br106	Br	-0.428717	0.283239	0.495458
H107	H	-1.203435	0.000052	-0.454886
H108	H	-0.703435	0.500052	0.045114
H109	H	-0.328250	0.163622	0.119242
H110	H	0.171750	0.663622	0.619242
Br111	Br	-0.810597	0.212557	0.128360
Br112	Br	-0.310597	0.712557	0.628360
H113	H	-0.615963	-0.163522	0.124688
H114	H	-0.115963	0.336478	0.624688
H115	H	-0.958215	-0.433868	0.024958
H116	H	-0.458215	0.066132	0.524958
H117	H	-0.958236	-0.566096	0.024949
H118	H	-0.458236	-0.066096	0.524949
Br119	Br	-0.522785	-0.212458	0.122912
Br120	Br	-0.022785	0.287542	0.622912
H121	H	-0.913239	0.000053	-0.128744
H122	H	-0.413239	0.500053	0.371256
H123	H	-0.328202	-0.163510	0.119248
H124	H	0.171798	0.336490	0.619248
Br125	Br	-0.522839	0.212558	0.122896
Br126	Br	-0.022839	0.712558	0.622896
H127	H	-1.208872	0.000039	-0.167129
H128	H	-0.708872	0.500039	0.332871
Br129	Br	-0.928757	-0.783214	-0.004545
Br130	Br	-0.428757	-0.283214	0.495455
Br131	Br	-1.184749	-0.216677	0.251613
Br132	Br	-0.684749	0.283323	0.751613
Br133	Br	-1.184744	-0.462066	0.251641
Br134	Br	-0.684744	0.037934	0.751641
H135	H	-1.155267	-0.566027	0.222132
H136	H	-0.655267	-0.066027	0.722132
H137	H	-1.155281	-0.754895	0.222136
H138	H	-0.655281	-0.254895	0.722136
H139	H	-1.205671	0.000056	-0.336380
H140	H	-0.705671	0.500056	0.163620
H141	H	-1.200236	0.000066	-0.624149
H142	H	-0.700236	0.500066	-0.124149
Br143	Br	-0.859897	0.000058	-0.605357
Br144	Br	-0.359897	0.500058	-0.105357
H145	H	-0.907798	0.000062	-0.416505
H146	H	-0.407798	0.500062	0.083495
Br147	Br	-0.865332	0.000074	-0.317589
Br148	Br	-0.365332	0.500074	0.182411
