data_functionalizedCrystal
_audit_creation_method	'MofGen! by Chris Wilmer'
_symmetry_space_group_name_H-M	'P1'
_symmetry_Int_Tables_number	1
_symmetry_cell_setting	triclinic
loop_
_symmetry_equiv_pos_as_xyz
  x,y,z
_cell_length_a	16.959455
_cell_length_b	12.645330
_cell_length_c	16.959447
_cell_angle_alpha	90.025171
_cell_angle_beta	89.979626
_cell_angle_gamma	89.976793
loop_
_atom_site_label
_atom_site_type_symbol
_atom_site_fract_x
_atom_site_fract_y
_atom_site_fract_z
Zn1	Zn	1.208350	0.422103	-0.447065
Zn2	Zn	1.208259	0.599394	-0.314898
Zn3	Zn	1.076179	0.422136	-0.314888
Zn4	Zn	1.076129	0.599315	-0.447023
O5	O	1.142229	0.510737	-0.380968
O6	O	1.318949	0.445640	-0.429554
O7	O	1.190720	0.575928	-0.204286
O8	O	1.093771	0.273784	-0.332435
O9	O	1.318882	0.575895	-0.332452
O10	O	1.190876	0.273760	-0.429545
O11	O	1.093682	0.445697	-0.204278
O12	O	0.965561	0.445620	-0.332394
O13	O	1.093686	0.575761	-0.557639
O14	O	0.965525	0.575793	-0.429473
O15	O	1.190829	0.445563	-0.557670
O16	O	1.190672	0.747731	-0.332411
O17	O	1.093598	0.747673	-0.429482
C18	C	0.936863	0.510703	-0.380928
C19	C	0.849006	0.510713	-0.380930
C20	C	0.477485	0.578494	-0.330381
C21	C	0.477576	0.443068	-0.431651
C22	C	0.560122	0.443051	-0.431632
C23	C	0.601353	0.510757	-0.380988
C24	C	0.560039	0.578481	-0.330362
C25	C	0.601443	0.375336	-0.482262
C26	C	0.683994	0.375317	-0.482246
C27	C	0.725227	0.443018	-0.431597
C28	C	0.683907	0.510744	-0.380969
C29	C	0.725138	0.578450	-0.330324
C30	C	0.683820	0.646171	-0.279691
C31	C	0.601271	0.646183	-0.279713
C32	C	0.807775	0.443007	-0.431575
C33	C	0.807692	0.578437	-0.330305
C34	C	1.142141	0.786167	-0.380960
C35	C	1.142176	0.903997	-0.380984
C36	C	1.081339	1.071569	-0.442241
C37	C	1.081042	0.949009	-0.442043
C38	C	1.119629	0.948592	-0.297680
C39	C	1.119245	1.071190	-0.298053
C40	C	1.225889	1.071091	-0.402358
C41	C	1.225389	0.948485	-0.404178
C42	C	1.348397	0.510773	-0.381009
C43	C	1.436254	0.510788	-0.381026
C44	C	1.142262	0.510649	-0.587137
C45	C	1.142276	0.510612	-0.674993
C46	C	1.142311	1.234232	-0.380996
C47	C	1.142276	1.116402	-0.381016
C48	C	1.091793	0.578288	-1.046455
C49	C	1.192948	0.442712	-1.046483
C50	C	1.192927	0.442735	-0.963937
C51	C	1.142339	0.510536	-0.922646
C52	C	1.091772	0.578315	-0.963902
C53	C	1.243499	0.374965	-0.922675
C54	C	1.243480	0.374986	-0.840124
C55	C	1.192888	0.442782	-0.798832
C56	C	1.142318	0.510563	-0.840093
C57	C	1.091730	0.578364	-0.798802
C58	C	1.041156	0.646140	-0.840061
C59	C	1.041180	0.646111	-0.922610
C60	C	1.192864	0.442811	-0.716284
C61	C	1.091709	0.578391	-0.716249
C62	C	1.142242	0.510748	-0.175602
C63	C	1.142381	0.510487	-0.087746
H64	H	0.567867	0.320220	-0.523499
N65	N	1.244527	0.373588	-0.674151
N66	N	1.289696	0.313064	-0.711027
H67	H	1.326185	0.264170	-0.681272
H68	H	0.443840	0.633628	-0.289155
H69	H	0.444001	0.387951	-0.472888
N70	N	1.244605	0.373443	-1.088660
N71	N	1.239389	0.275625	-1.079460
H72	H	1.275871	0.226697	-1.109251
N73	N	1.295131	0.305765	-0.797969
N74	N	1.345470	0.343081	-0.751899
H75	H	1.381946	0.294192	-0.722124
H76	H	1.284690	0.319772	-0.956300
N77	N	0.989472	0.715380	-0.797880
N78	N	0.916539	0.708325	-0.807081
H79	H	0.880037	0.757223	-0.777287
H80	H	1.050507	0.633594	-0.682636
H81	H	0.717629	0.320174	-0.523474
H82	H	1.000007	0.701294	-0.956210
H83	H	1.246450	1.101935	-0.462072
N84	N	1.043762	0.910180	-0.274594
N85	N	1.006167	0.849975	-0.319349
H86	H	0.952584	0.822845	-0.303048
N87	N	0.559077	0.715356	-0.227992
N88	N	0.568250	0.708205	-0.155061
H89	H	0.538449	0.757061	-0.118533
H90	H	0.717401	0.701303	-0.238461
N91	N	0.849793	0.647596	-0.278559
N92	N	0.812890	0.708047	-0.233357
H93	H	0.842623	0.756890	-0.196810
H94	H	0.841413	0.387872	-0.472801
H95	H	1.019740	1.102465	-0.428282
H96	H	1.095147	0.918854	-0.503812
N97	N	1.040135	0.647503	-1.088607
N98	N	1.040152	0.647468	-1.162311
H99	H	1.003667	0.696351	-1.192082
N100	N	1.246712	0.911911	-0.481088
N101	N	1.200838	0.853296	-0.518722
H102	H	1.215895	0.827461	-0.573041
H103	H	1.095309	1.100980	-0.504214
H104	H	1.273187	0.917839	-0.362832
H105	H	1.019062	0.919770	-0.427902
N106	N	1.042569	1.107170	-0.275367
N107	N	0.989712	1.041736	-0.259371
H108	H	0.935557	1.067140	-0.243349
N109	N	1.282845	1.107442	-0.346414
N110	N	1.275033	1.085467	-0.274985
H111	H	1.315253	1.111141	-0.235471
N112	N	1.172490	1.108392	-0.238857
N113	N	1.209813	1.043807	-0.197397
H114	H	1.247408	1.070075	-0.155581
H115	H	1.162613	0.919438	-0.250814
