data_functionalizedCrystal
_audit_creation_method	'MofGen! by Chris Wilmer'
_symmetry_space_group_name_H-M	'P1'
_symmetry_Int_Tables_number	1
_symmetry_cell_setting	triclinic
loop_
_symmetry_equiv_pos_as_xyz
  x,y,z
_cell_length_a	10.654550
_cell_length_b	10.654551
_cell_length_c	9.130313
_cell_angle_alpha	90.001552
_cell_angle_beta	89.996220
_cell_angle_gamma	84.485132
loop_
_atom_site_label
_atom_site_type_symbol
_atom_site_fract_x
_atom_site_fract_y
_atom_site_fract_z
O1	O	1.667835	0.176393	-0.121910
O2	O	1.302356	0.193199	-0.121885
O3	O	1.493498	0.002057	-0.121899
O4	O	1.476693	0.367535	-0.121896
O5	O	1.493496	0.002062	0.121700
O6	O	1.302354	0.193204	0.121713
O7	O	1.667832	0.176398	0.121689
Cu8	Cu	1.485093	0.184802	0.143944
Cu9	Cu	1.485096	0.184796	-0.144140
O10	O	1.476691	0.367540	0.121703
C11	C	1.255557	0.191968	-0.000083
C12	C	1.116114	0.188276	-0.000074
C13	C	1.036629	0.300817	-0.000095
C14	C	0.905608	0.297341	-0.000120
C15	C	0.933570	0.068771	-0.000110
C16	C	1.064589	0.072249	-0.000074
C17	C	1.088154	0.416844	-0.000094
C18	C	1.008667	0.529395	-0.000116
C19	C	0.877647	0.525918	-0.000142
C20	C	0.826112	0.409891	-0.000145
C21	C	1.492263	-0.044739	-0.000103
C22	C	1.488570	-0.184182	-0.000112
C23	C	1.486839	-0.249696	-0.132895
C24	C	1.483359	-0.380717	-0.132888
C25	C	1.483346	-0.380697	0.132696
C26	C	1.486817	-0.249678	0.132688
C27	C	1.488592	-0.184201	-0.265696
C28	C	1.486863	-0.249716	-0.398490
C29	C	1.483382	-0.380736	-0.398483
C30	C	1.481632	-0.446241	-0.265682
C31	C	1.714632	0.177629	-0.000117
C32	C	1.854075	0.181321	-0.000135
C33	C	1.477926	0.414336	-0.000097
C34	C	1.481619	0.553779	-0.000097
N35	N	1.485100	0.184805	0.346566
N36	N	1.485098	0.184782	-0.346763
C37	C	1.569760	0.100196	0.423212
C38	C	1.569756	0.100181	0.576549
C39	C	1.400430	0.269395	0.576581
C40	C	1.400428	0.269403	0.423246
C41	C	1.654431	0.015599	0.346532
C42	C	1.739099	-0.069016	0.423178
C43	C	1.739095	-0.069031	0.576515
C44	C	1.654425	0.015569	0.653206
H45	H	1.129308	-0.019392	-0.000062
C46	C	1.374552	-0.407899	-0.624854
C47	C	1.481475	-0.452750	-0.544445
H48	H	1.373385	-0.452352	-0.714971
H49	H	1.300883	-0.420432	-0.570295
H50	H	1.376887	-0.320494	-0.643850
H51	H	1.479134	-0.540153	-0.525440
H52	H	1.555162	-0.440227	-0.599016
C53	C	1.814220	-0.144201	0.188113
C54	C	1.832111	-0.162058	0.338886
H55	H	1.871633	-0.201655	0.136080
H56	H	1.730277	-0.158571	0.163025
H57	H	1.828637	-0.060267	0.162979
H58	H	1.817684	-0.245990	0.364022
H59	H	1.916074	-0.147698	0.363983
C60	C	0.714059	0.654625	0.125047
C61	C	0.790273	0.649629	-0.000161
H62	H	0.660126	0.731006	0.125030
H63	H	0.664623	0.585041	0.125029
H64	H	0.765745	0.651239	0.209997
H65	H	0.738587	0.653006	-0.085112
H66	H	0.839714	0.719232	-0.000157
H67	H	1.331490	0.338298	0.360841
C68	C	1.382930	-0.089136	0.286717
C69	C	1.488714	-0.177641	0.278636
H70	H	1.384094	-0.044666	0.376824
H71	H	1.384475	-0.031397	0.207626
H72	H	1.308480	-0.131329	0.281207
H73	H	1.563165	-0.135447	0.284136
H74	H	1.487180	-0.235389	0.357749
H75	H	1.194836	0.419687	-0.000080
H76	H	1.050636	0.623860	-0.000101
H77	H	1.808026	-0.137936	0.638919
H78	H	1.481921	-0.434042	0.240816
C79	C	1.628053	-0.103028	0.872837
C80	C	1.654412	0.015546	0.821757
H81	H	1.628055	-0.103040	0.976892
H82	H	1.547646	-0.120946	0.838149
H83	H	1.690599	-0.165513	0.838130
H84	H	1.591861	0.078030	0.856456
H85	H	1.734830	0.033478	0.856461
H86	H	1.488276	-0.196371	-0.506611
H87	H	0.719425	0.407069	-0.000143
C88	C	1.233051	0.436649	0.561217
C89	C	1.307367	0.362385	0.660874
H90	H	1.175593	0.494053	0.613258
H91	H	1.285713	0.482319	0.501416
H92	H	1.187430	0.383937	0.501405
H93	H	1.352995	0.415096	0.720679
H94	H	1.254698	0.316712	0.720700
C95	C	0.917101	-0.127121	-0.125345
C96	C	0.876929	-0.058761	-0.000131
H97	H	0.882139	-0.205858	-0.125355
H98	H	0.889903	-0.080734	-0.210282
H99	H	1.006507	-0.141148	-0.125302
H100	H	0.787522	-0.044725	-0.000180
H101	H	0.904119	-0.105158	0.084828
H102	H	1.478779	-0.552925	-0.265687
H103	H	1.491429	-0.077518	-0.265716
H104	H	1.654444	0.015606	0.221678
