data_functionalizedCrystal
_audit_creation_method	'MofGen! by Chris Wilmer'
_symmetry_space_group_name_H-M	'P1'
_symmetry_Int_Tables_number	1
_symmetry_cell_setting	triclinic
loop_
_symmetry_equiv_pos_as_xyz
  x,y,z
_cell_length_a	12.645331
_cell_length_b	12.645330
_cell_length_c	21.395355
_cell_angle_alpha	89.985534
_cell_angle_beta	89.982200
_cell_angle_gamma	90.011881
loop_
_atom_site_label
_atom_site_type_symbol
_atom_site_fract_x
_atom_site_fract_y
_atom_site_fract_z
Zn1	Zn	1.620790	-0.422184	-0.354166
Zn2	Zn	1.620681	-0.599433	-0.249396
Zn3	Zn	1.443498	-0.422182	-0.249415
Zn4	Zn	1.443502	-0.599403	-0.354149
O5	O	1.532118	-0.510800	-0.301782
O6	O	1.769123	-0.445710	-0.340268
O7	O	1.597130	-0.575932	-0.161721
O8	O	1.467060	-0.273835	-0.263326
O9	O	1.769042	-0.575934	-0.263293
O10	O	1.597316	-0.273836	-0.340286
O11	O	1.466955	-0.445706	-0.161735
O12	O	1.295151	-0.445677	-0.263309
O13	O	1.467067	-0.575883	-0.441829
O14	O	1.295154	-0.575881	-0.340256
O15	O	1.597319	-0.445681	-0.441842
O16	O	1.597134	-0.747776	-0.263276
O17	O	1.466961	-0.747754	-0.340238
C18	C	1.256688	-0.510776	-0.301783
C19	C	1.138858	-0.510792	-0.301799
C20	C	0.971331	-0.593152	-0.349954
C21	C	1.093891	-0.592886	-0.350155
C22	C	1.094371	-0.399144	-0.319840
C23	C	0.971773	-0.399646	-0.320179
C24	C	0.971611	-0.539180	-0.235449
C25	C	1.094217	-0.541622	-0.235807
C26	C	1.532065	-0.786230	-0.301767
C27	C	1.532139	-0.904060	-0.301781
C28	C	1.613899	-1.071594	-0.253267
C29	C	1.614165	-0.949033	-0.253386
C30	C	1.562443	-0.948467	-0.367824
C31	C	1.563092	-1.071065	-0.367566
C32	C	1.420043	-1.071380	-0.284904
C33	C	1.420580	-0.948775	-0.283423
C34	C	1.808623	-0.510825	-0.301780
C35	C	1.926453	-0.510836	-0.301780
C36	C	1.532206	-0.510779	-0.465205
C37	C	1.532243	-0.510770	-0.534846
C38	C	1.532200	-0.234295	-0.301810
C39	C	1.532235	-0.116465	-0.301822
C40	C	1.600063	-0.442971	-0.567567
C41	C	1.600061	-0.442925	-0.633002
C42	C	1.532251	-0.510698	-0.665715
C43	C	1.464418	-0.578502	-0.632986
C44	C	1.464414	-0.578538	-0.567552
C45	C	1.523862	-0.606150	-0.769385
C46	C	1.523874	-0.606115	-0.834818
C47	C	1.532258	-0.510586	-0.867535
C48	C	1.540653	-0.415087	-0.834812
C49	C	1.540648	-0.415123	-0.769378
C50	C	1.532248	-0.510665	-0.736667
C51	C	1.600080	-0.442731	-0.971209
C52	C	1.600071	-0.442684	-1.036645
C53	C	1.464433	-0.578270	-1.036628
C54	C	1.464437	-0.578308	-0.971192
C55	C	1.532266	-0.510540	-0.938487
C56	C	1.532091	-0.510745	-0.138994
C57	C	1.532259	-0.510456	-0.069353
H58	H	0.942586	-0.479221	-0.199555
H59	H	1.409183	-0.633747	-0.540911
N60	N	1.391287	-0.651594	-0.668273
H61	H	1.407721	-0.727348	-0.656893
H62	H	1.315575	-0.635036	-0.656863
H63	H	0.940695	-0.619204	-0.219051
H64	H	1.517045	-0.683876	-0.861456
N65	N	1.486059	-0.909887	-0.417033
H66	H	1.430945	-0.863139	-0.396941
H67	H	1.525864	-0.868262	-0.449755
H68	H	1.547481	-0.337365	-0.742737
N69	N	1.673190	-0.369851	-0.532294
H70	H	1.662894	-0.380154	-0.485876
H71	H	1.748903	-0.386337	-0.543739
H72	H	1.655286	-0.387709	-0.659649
H73	H	1.655296	-0.387467	-1.063286
N74	N	1.339431	-1.109817	-0.331740
H75	H	1.359966	-1.084974	-0.374941
H76	H	1.336849	-1.189634	-0.330974
N77	N	1.669852	-0.907717	-0.387124
H78	H	1.663118	-0.866039	-0.427200
H79	H	1.698972	-0.860546	-0.353151
H80	H	1.516752	-0.683922	-0.742751
H81	H	1.655304	-0.387545	-0.944579
N82	N	1.133745	-0.702552	-0.335176
H83	H	1.071672	-0.751503	-0.328384
H84	H	1.178017	-0.729435	-0.371111
N85	N	0.932435	-0.315654	-0.275734
H86	H	0.994738	-0.278463	-0.256011
H87	H	0.888165	-0.262674	-0.299458
N88	N	0.932281	-0.703191	-0.335147
H89	H	0.885116	-0.700755	-0.297069
H90	H	0.890982	-0.731530	-0.371906
N91	N	1.549706	-0.312042	-0.870090
H92	H	1.548432	-0.326505	-0.916507
H93	H	1.488419	-0.264646	-0.858638
H94	H	1.409210	-0.633441	-1.063261
H95	H	1.392486	-1.102371	-0.237585
H96	H	1.409217	-0.633524	-0.944551
H97	H	1.595204	-0.919012	-0.204416
H98	H	0.940541	-0.574638	-0.398816
H99	H	1.356451	-0.918172	-0.316196
H100	H	1.123496	-0.336146	-0.285849
N101	N	1.589099	-1.110738	-0.188215
H102	H	1.651319	-1.152078	-0.171523
H103	H	1.574640	-1.048386	-0.159990
H104	H	1.123241	-0.574130	-0.399303
N105	N	0.933912	-0.367695	-0.384390
H106	H	0.996862	-0.353429	-0.412211
H107	H	0.890047	-0.426653	-0.402873
H108	H	1.397730	-0.919760	-0.234821
H109	H	1.645099	-1.099584	-0.381898
N110	N	1.135053	-0.366701	-0.383377
H111	H	1.214848	-0.363551	-0.382494
H112	H	1.111508	-0.420085	-0.415603
H113	H	1.123306	-0.623779	-0.222200
N114	N	1.724234	-0.910080	-0.268211
H115	H	1.722395	-0.865852	-0.307510
H116	H	1.751224	-0.865787	-0.232324
H117	H	1.696550	-1.102329	-0.264331
N118	N	1.134758	-0.467956	-0.185714
H119	H	1.112155	-0.393178	-0.195542
H120	H	1.104767	-0.489776	-0.143898
N121	N	1.487732	-1.110392	-0.417121
H122	H	1.454242	-1.048084	-0.439038
H123	H	1.527783	-1.154611	-0.448501
