data_functionalizedCrystal
_audit_creation_method	'MofGen! by Chris Wilmer'
_symmetry_space_group_name_H-M	'P1'
_symmetry_Int_Tables_number	1
_symmetry_cell_setting	triclinic
loop_
_symmetry_equiv_pos_as_xyz
  x,y,z
_cell_length_a	14.853567
_cell_length_b	15.944551
_cell_length_c	13.930277
_cell_angle_alpha	89.994493
_cell_angle_beta	89.995755
_cell_angle_gamma	83.566834
loop_
_atom_site_label
_atom_site_type_symbol
_atom_site_fract_x
_atom_site_fract_y
_atom_site_fract_z
O1	O	1.196228	0.109664	-0.079767
O2	O	0.933751	0.122728	-0.079783
O3	O	1.072157	-0.006071	-0.079766
O4	O	1.057822	0.238463	-0.079784
O5	O	1.072138	-0.006073	0.079896
O6	O	0.933732	0.122725	0.079878
O7	O	1.196208	0.109662	0.079895
Zn8	Zn	1.064967	0.116193	0.105236
Zn9	Zn	1.064993	0.116197	-0.105125
O10	O	1.057803	0.238460	0.079878
C11	C	0.900154	0.122135	0.000045
C12	C	0.800072	0.120361	0.000039
C13	C	1.071552	-0.037367	0.000065
C14	C	1.069768	-0.130615	0.000065
C15	C	0.387646	0.036354	0.000067
C16	C	0.366169	0.189369	0.000055
C17	C	0.460201	0.191037	0.000051
C18	C	0.517960	0.115362	0.000055
C19	C	0.481687	0.038019	0.000061
C20	C	0.496480	0.268379	0.000035
C21	C	0.590517	0.270050	0.000031
C22	C	0.648278	0.194374	0.000041
C23	C	0.612000	0.117028	0.000049
C24	C	0.669759	0.041353	0.000052
C25	C	0.633483	-0.035994	0.000066
C26	C	0.539448	-0.037657	0.000071
C27	C	0.742313	0.196036	0.000036
C28	C	0.763800	0.043018	0.000046
C29	C	0.979713	-0.345572	0.000047
C30	C	1.021522	-0.406544	0.078772
C31	C	1.066541	-0.301344	0.000058
C32	C	1.021562	-0.406524	-0.078642
C33	C	1.063416	-0.466260	0.000046
C34	C	1.108373	-0.361088	0.078848
C35	C	1.108401	-0.361062	-0.078636
C36	C	1.150273	-0.422017	0.000109
C37	C	1.068338	-0.206340	0.000065
C38	C	1.061626	-0.561263	0.000046
C39	C	1.229806	0.110255	0.000064
C40	C	1.329887	0.112029	0.000064
C41	C	1.058407	0.269756	0.000044
C42	C	1.060191	0.363004	0.000038
N43	N	1.064957	0.116190	0.248803
N44	N	1.065010	0.116193	-0.248691
C45	C	1.003704	0.173206	0.701064
C46	C	1.126306	0.059181	0.701049
C47	C	1.126295	0.059178	0.600553
C48	C	1.064989	0.116191	0.550308
C49	C	1.003693	0.173207	0.600559
C50	C	1.187596	0.002169	0.550295
C51	C	1.187588	0.002164	0.449793
C52	C	1.126277	0.059174	0.399546
C53	C	1.064978	0.116192	0.449803
C54	C	1.003672	0.173205	0.399558
C55	C	0.942368	0.230220	0.449814
C56	C	0.942382	0.230217	0.550312
C57	C	1.126263	0.059177	0.299047
C58	C	1.003661	0.173206	0.299053
H59	H	0.680523	-0.097609	0.000062
O60	O	0.777703	0.271088	-0.000019
C61	C	0.873086	0.256333	0.000007
H62	H	0.895162	0.190807	-0.030211
H63	H	0.899256	0.260434	0.076605
C64	C	0.884990	0.403668	-0.025500
C65	C	0.912104	0.323192	-0.062622
H66	H	0.909059	0.444912	-0.064128
H67	H	0.820728	0.413610	-0.025514
H68	H	0.906800	0.407074	0.038331
H69	H	0.890284	0.319784	-0.126447
H70	H	0.976363	0.313251	-0.062620
H71	H	0.509903	-0.100629	0.000105
O72	O	1.152078	-0.337052	0.158310
C73	C	1.153216	-0.248753	0.157365
H74	H	1.095349	-0.218620	0.110706
H75	H	1.220534	-0.232924	0.126935
C76	C	1.212763	-0.251396	0.317773
C77	C	1.141685	-0.214386	0.260473
H78	H	1.205655	-0.230197	0.381375
H79	H	1.212000	-0.310885	0.318410
H80	H	1.268855	-0.238202	0.292404
H81	H	1.085596	-0.227589	0.285835
H82	H	1.142439	-0.154898	0.259843
O83	O	0.893721	-0.305963	0.000299
C84	C	0.848260	-0.329014	0.083443
H85	H	0.900007	-0.350948	0.141171
H86	H	0.806130	-0.382450	0.065478
C87	C	0.722057	-0.225440	0.049648
C88	C	0.785612	-0.252373	0.120553
H89	H	0.683409	-0.178166	0.072538
H90	H	0.752682	-0.209912	-0.006370
H91	H	0.686958	-0.269977	0.034684
H92	H	0.820717	-0.207840	0.135507
H93	H	0.754991	-0.267891	0.176574
O94	O	1.247015	-0.053292	0.599152
C95	C	1.198728	-0.105175	0.657312
H96	H	1.127637	-0.106717	0.627024
H97	H	1.193996	-0.078888	0.733473
C98	C	1.335724	-0.193385	0.696078
C99	C	1.248411	-0.195284	0.658872
H100	H	1.366372	-0.248968	0.697044
H101	H	1.368257	-0.158429	0.656897
H102	H	1.331768	-0.171476	0.759542
H103	H	1.252368	-0.217183	0.595405
H104	H	1.215880	-0.230246	0.698042
H105	H	1.145102	-0.340890	-0.145191
H106	H	0.984834	-0.426641	-0.145203
H107	H	0.620045	0.333030	0.000019
O108	O	0.977619	-0.430680	0.158066
C109	C	0.902442	-0.471477	0.129804
H110	H	0.913789	-0.497355	0.053953
H111	H	0.838720	-0.424442	0.131310
C112	C	0.877138	-0.512840	0.292519
C113	C	0.891078	-0.544630	0.199361
H114	H	0.870124	-0.557962	0.335427
H115	H	0.927784	-0.485352	0.311562
H116	H	0.824037	-0.473644	0.293761
H117	H	0.944184	-0.583817	0.198118
H118	H	0.840441	-0.572126	0.180320
H119	H	1.222407	-0.455095	0.000158
O120	O	1.185717	0.003694	0.250262
C121	C	1.171101	-0.079490	0.274837
H122	H	1.098933	-0.080042	0.302488
H123	H	1.221086	-0.104077	0.333154
C124	C	1.273736	-0.135719	0.151590
C125	C	1.185096	-0.136399	0.185544
H126	H	1.282373	-0.170825	0.096512
H127	H	1.283586	-0.079677	0.135035
H128	H	1.315381	-0.156206	0.200196
H129	H	1.143454	-0.115902	0.136943
H130	H	1.175239	-0.192439	0.202089
H131	H	0.892471	0.276637	0.591236
O132	O	0.819867	-0.030517	-0.000123
C133	C	0.803402	-0.077478	-0.082793
H134	H	0.771265	-0.033170	-0.140590
H135	H	0.755516	-0.126149	-0.064085
C136	C	0.932987	-0.177300	-0.049307
C137	C	0.893523	-0.122879	-0.120297
H138	H	0.988576	-0.205309	-0.072440
H139	H	0.944078	-0.145664	0.006392
H140	H	0.893073	-0.217851	-0.033724
H141	H	0.933432	-0.082323	-0.135870
H142	H	0.882441	-0.154509	-0.175999
O143	O	0.352264	-0.038705	0.000038
C144	C	0.256880	-0.023955	0.000072
H145	H	0.234801	0.041569	-0.030160
H146	H	0.230708	-0.028055	0.076674
C147	C	0.244987	-0.171292	-0.025398
C148	C	0.217869	-0.090818	-0.062537
H149	H	0.220921	-0.212538	-0.064013
H150	H	0.309248	-0.181231	-0.025417
H151	H	0.223174	-0.174698	0.038437
H152	H	0.239691	-0.087410	-0.126365
H153	H	0.153609	-0.080880	-0.062529
H154	H	0.953734	0.219631	0.258150
H155	H	1.237504	-0.044260	0.408882
H156	H	0.319136	0.250981	0.000044
H157	H	0.449447	0.329989	0.000023
O158	O	0.882784	0.285683	0.401150
C159	C	0.828660	0.335991	0.467048
H160	H	0.865617	0.337005	0.538686
H161	H	0.761692	0.308600	0.477742
C162	C	0.764688	0.425326	0.339826
C163	C	0.810082	0.426578	0.427811
H164	H	0.753224	0.481204	0.315622
H165	H	0.801149	0.391432	0.295428
H166	H	0.708886	0.402497	0.348750
H167	H	0.865888	0.449397	0.418884
H168	H	0.773630	0.460479	0.472207
H169	H	1.176224	0.012766	0.741962
O170	O	0.944191	0.228702	0.749767
C171	C	0.958855	0.311880	0.725218
H172	H	0.993605	0.311838	0.652246
H173	H	1.003725	0.337935	0.781775
C174	C	0.824638	0.367651	0.810199
C175	C	0.867312	0.367600	0.720570
H176	H	0.768171	0.402023	0.807336
H177	H	0.814760	0.311613	0.826742
H178	H	0.862039	0.389362	0.857320
H179	H	0.829916	0.345879	0.673453
H180	H	0.877181	0.423636	0.704019
