data_functionalizedCrystal
_audit_creation_method	'MofGen! by Chris Wilmer'
_symmetry_space_group_name_H-M	'P1'
_symmetry_Int_Tables_number	1
_symmetry_cell_setting	triclinic
loop_
_symmetry_equiv_pos_as_xyz
  x,y,z
_cell_length_a	19.805407
_cell_length_b	12.645330
_cell_length_c	19.805399
_cell_angle_alpha	90.022503
_cell_angle_beta	90.019573
_cell_angle_gamma	90.012385
loop_
_atom_site_label
_atom_site_type_symbol
_atom_site_fract_x
_atom_site_fract_y
_atom_site_fract_z
Zn1	Zn	1.034802	-0.422064	0.382744
Zn2	Zn	1.034744	-0.599342	0.269565
Zn3	Zn	0.921616	-0.422093	0.269568
Zn4	Zn	0.921608	-0.599286	0.382712
O5	O	0.978192	-0.510696	0.326147
O6	O	1.129511	-0.445592	0.367742
O7	O	1.019717	-0.575865	0.174849
O8	O	0.936658	-0.273742	0.284595
O9	O	1.129468	-0.575837	0.284591
O10	O	1.019815	-0.273720	0.367745
O11	O	0.936603	-0.445641	0.174851
O12	O	0.826899	-0.445587	0.284565
O13	O	0.936643	-0.575741	0.477433
O14	O	0.826892	-0.575769	0.367691
O15	O	1.019807	-0.445537	0.477456
O16	O	1.019709	-0.747682	0.284560
O17	O	0.936588	-0.747640	0.367689
C18	C	0.802336	-0.510676	0.326125
C19	C	0.727104	-0.510693	0.326132
C20	C	0.691775	-0.578581	0.369346
C21	C	0.621086	-0.578583	0.369355
C22	C	0.585729	-0.510701	0.326147
C23	C	0.621064	-0.442805	0.282932
C24	C	0.691751	-0.442799	0.282926
C25	C	0.335990	-0.442829	0.282954
C26	C	0.265298	-0.442843	0.282961
C27	C	0.265326	-0.578613	0.369383
C28	C	0.336013	-0.578606	0.369378
C29	C	0.371341	-0.510707	0.326165
C30	C	0.447990	-0.510705	0.326156
C31	C	0.509082	-0.510708	0.326152
C32	C	0.978159	-0.786126	0.326135
C33	C	0.978207	-0.903956	0.326153
C34	C	1.030558	-0.948819	0.273902
C35	C	1.030438	-1.071380	0.273716
C36	C	0.906880	-1.071961	0.306985
C37	C	0.907149	-0.949363	0.306586
C38	C	0.996631	-0.949042	0.397743
C39	C	0.998239	-1.071647	0.397380
C40	C	1.154735	-0.510717	0.326170
C41	C	1.229967	-0.510726	0.326179
C42	C	0.978230	-0.510629	0.502690
C43	C	0.978247	-0.510601	0.577922
C44	C	0.978244	-0.234191	0.326174
C45	C	0.978266	-0.116361	0.326185
C46	C	0.978194	-0.510686	0.150291
C47	C	0.978308	-0.510416	0.075060
C48	C	1.021551	-0.442800	0.613279
C49	C	1.021558	-0.442770	0.683968
C50	C	0.978263	-0.510546	0.719298
C51	C	0.934954	-0.578349	0.683936
C52	C	0.934945	-0.578374	0.613248
C53	C	0.934993	-0.578250	0.969009
C54	C	0.935007	-0.578223	1.039701
C55	C	1.021606	-0.442646	1.039728
C56	C	1.021596	-0.442671	0.969041
C57	C	0.978285	-0.510470	0.933685
C58	C	0.978277	-0.510501	0.857037
C59	C	0.978274	-0.510521	0.795945
H60	H	0.236553	-0.633895	0.404572
H61	H	0.899701	-0.633530	0.712707
C62	C	0.374905	-0.653274	0.416909
C63	C	0.336044	-0.727946	0.464449
C64	C	0.374935	-0.802612	0.511984
C65	C	0.452688	-0.802605	0.511979
C66	C	0.491554	-0.727931	0.464438
C67	C	0.452663	-0.653265	0.416903
H68	H	0.278482	-0.727954	0.464454
H69	H	0.346163	-0.857891	0.547177
H70	H	0.481478	-0.857877	0.547167
H71	H	0.549116	-0.727923	0.464432
H72	H	0.481434	-0.597986	0.381709
C73	C	1.101941	-1.111933	0.289915
C74	C	1.139673	-1.181770	0.238599
C75	C	1.211180	-1.222314	0.254793
C76	C	1.244956	-1.193022	0.322305
C77	C	1.207224	-1.123182	0.373626
C78	C	1.135717	-1.082637	0.357431
H79	H	1.114670	-1.203457	0.188619
H80	H	1.239112	-1.274015	0.216802
H81	H	1.297891	-1.223035	0.334293
H82	H	1.232227	-1.101494	0.423606
H83	H	1.107785	-1.030937	0.395423
C84	C	0.887345	-0.652835	0.930138
C85	C	0.810407	-0.644157	0.939870
C86	C	0.762751	-0.718747	0.901003
C87	C	0.792034	-0.802015	0.852403
C88	C	0.868976	-0.810697	0.842669
C89	C	0.916631	-0.736107	0.881536
H90	H	0.788726	-0.582513	0.975848
H91	H	0.705793	-0.712319	0.908209
H92	H	0.756756	-0.857231	0.823631
H93	H	0.890656	-0.872341	0.806690
H94	H	0.973589	-0.742535	0.874330
C95	C	0.374838	-0.368162	0.235402
C96	C	0.365127	-0.247660	0.241036
C97	C	0.403974	-0.172996	0.193474
C98	C	0.452532	-0.218834	0.140277
C99	C	0.462246	-0.339343	0.134640
C100	C	0.423399	-0.414006	0.182202
H101	H	0.329179	-0.213722	0.280418
H102	H	0.396783	-0.083787	0.197647
H103	H	0.481290	-0.163564	0.105068
H104	H	0.498194	-0.373280	0.095259
H105	H	0.430589	-0.503215	0.178029
C106	C	0.730615	-0.368121	0.235389
C107	C	0.779186	-0.413936	0.182195
C108	C	0.818049	-0.339251	0.134659
C109	C	0.808340	-0.218751	0.140316
C110	C	0.759766	-0.172930	0.193512
C111	C	0.720904	-0.247615	0.241048
H112	H	0.786375	-0.503143	0.178006
H113	H	0.854007	-0.373171	0.095280
H114	H	0.837109	-0.163464	0.105127
H115	H	0.752577	-0.083723	0.197701
H116	H	0.684946	-0.213694	0.280427
C117	C	1.069195	-0.368194	0.722864
C118	C	1.039890	-0.284940	0.771461
C119	C	1.087529	-0.210362	0.810359
C120	C	1.164471	-0.219037	0.800659
C121	C	1.193779	-0.302295	0.752061
C122	C	1.146141	-0.376873	0.713163
H123	H	0.982929	-0.278515	0.778643
H124	H	1.065832	-0.148729	0.846335
H125	H	1.199736	-0.163830	0.829454
H126	H	1.250740	-0.308720	0.744879
H127	H	1.167837	-0.438506	0.677187
C128	C	1.069244	-0.368054	1.078622
C129	C	1.069257	-0.368013	1.156375
C130	C	1.116896	-0.293426	1.195266
C131	C	1.164521	-0.218880	1.156403
C132	C	1.164509	-0.218919	1.078646
C133	C	1.116871	-0.293506	1.039755
H134	H	1.034001	-0.423199	1.185147
H135	H	1.116904	-0.293398	1.252827
H136	H	1.199786	-0.163667	1.185193
H137	H	1.199766	-0.163733	1.049874
H138	H	1.116863	-0.293534	0.982193
C139	C	0.887375	-0.652774	1.078565
C140	C	0.892862	-0.773293	1.068835
C141	C	0.845233	-0.847839	1.107700
C142	C	0.792117	-0.801866	1.156293
C143	C	0.786628	-0.681341	1.166025
C144	C	0.834257	-0.606795	1.127161
H145	H	0.932184	-0.807330	1.032862
H146	H	0.849297	-0.937060	1.100495
H147	H	0.756859	-0.857050	1.185063
H148	H	0.747307	-0.647304	1.201999
H149	H	0.830194	-0.517574	1.134366
H150	H	0.720558	-0.633862	0.404529
C151	C	0.950529	-1.112971	0.452796
C152	C	0.908696	-1.034604	0.495123
C153	C	0.860981	-1.075916	0.550541
C154	C	0.855098	-1.195596	0.563632
C155	C	0.896931	-1.273970	0.521304
C156	C	0.944647	-1.232658	0.465886
H157	H	0.913050	-0.946003	0.485433
H158	H	0.830013	-1.017898	0.581875
H159	H	0.819775	-1.226178	0.604655
H160	H	0.892577	-1.362571	0.530993
H161	H	0.975615	-1.290676	0.434552
C162	C	0.852765	-1.111326	0.356822
C163	C	0.811605	-1.031295	0.398534
C164	C	0.757492	-1.070662	0.448372
C165	C	0.744537	-1.190061	0.456496
C166	C	0.785698	-1.270100	0.414782
C167	C	0.839812	-1.230733	0.364945
H168	H	0.821194	-0.942902	0.392521
H169	H	0.727022	-1.011411	0.479251
H170	H	0.704479	-1.219204	0.493389
H171	H	0.776110	-1.358494	0.420795
H172	H	0.870282	-1.289984	0.334065
C173	C	0.945129	-0.909844	0.450338
C174	C	0.886643	-0.837289	0.428478
C175	C	0.835138	-0.798085	0.481066
C176	C	0.842120	-0.831436	0.555513
C177	C	0.900609	-0.903995	0.577376
C178	C	0.952113	-0.943198	0.524789
H179	H	0.881472	-0.812597	0.373364
H180	H	0.791841	-0.744373	0.464881
H181	H	0.803994	-0.802415	0.594442
H182	H	0.905779	-0.928686	0.632490
H183	H	0.995410	-0.996911	0.540974
H184	H	1.056808	-0.387612	0.584519
H185	H	1.083636	-0.919276	0.285754
H186	H	0.592324	-0.633865	0.404544
H187	H	1.056853	-0.387484	0.940279
C188	C	1.013935	-1.111111	0.202077
C189	C	1.000821	-1.031284	0.144859
C190	C	0.984302	-1.071015	0.073220
C191	C	0.980896	-1.190572	0.058799
C192	C	0.994010	-1.270406	0.116018
C193	C	1.010529	-1.230675	0.187657
H194	H	1.003342	-0.942774	0.155534
H195	H	0.974595	-1.011916	0.030863
H196	H	0.968668	-1.219983	0.005768
H197	H	0.991489	-1.358916	0.105344
H198	H	1.020237	-1.289774	0.230014
C199	C	1.065737	-0.907186	0.421379
C200	C	1.106324	-0.831517	0.375971
C201	C	1.175434	-0.789662	0.399598
C202	C	1.203956	-0.823477	0.468633
C203	C	1.163368	-0.899150	0.514045
C204	C	1.094259	-0.941005	0.490419
H205	H	1.085211	-0.806482	0.324863
H206	H	1.205480	-0.733644	0.365980
H207	H	1.255115	-0.792493	0.486123
H208	H	1.184482	-0.924185	0.565153
H209	H	1.064213	-0.997023	0.524036
H210	H	0.899675	-0.633573	0.584461
H211	H	1.018500	-0.918078	0.221160
H212	H	0.891560	-0.920844	0.254261
H213	H	0.236512	-0.387559	0.247776
H214	H	0.592270	-0.387530	0.247754
H215	H	0.866806	-0.919688	0.342999
H216	H	0.891038	-1.102742	0.255243
H217	H	1.050773	-1.100658	0.411861
