data_functionalizedCrystal
_audit_creation_method	'MofGen! by Chris Wilmer'
_symmetry_space_group_name_H-M	'P1'
_symmetry_Int_Tables_number	1
_symmetry_cell_setting	triclinic
loop_
_symmetry_equiv_pos_as_xyz
  x,y,z
_cell_length_a	17.077404
_cell_length_b	11.169416
_cell_length_c	17.077396
_cell_angle_alpha	90.022666
_cell_angle_beta	90.019501
_cell_angle_gamma	90.010565
loop_
_atom_site_label
_atom_site_type_symbol
_atom_site_fract_x
_atom_site_fract_y
_atom_site_fract_z
Zn1	Zn	1.200123	-0.477800	0.443874
Zn2	Zn	1.200059	-0.678512	0.312622
Zn3	Zn	1.068855	-0.477842	0.312622
Zn4	Zn	1.068852	-0.678440	0.443845
O5	O	1.134472	-0.578149	0.378241
O6	O	1.309961	-0.504437	0.426475
O7	O	1.182629	-0.651940	0.202775
O8	O	1.086296	-0.309887	0.330046
O9	O	1.309914	-0.651899	0.330045
O10	O	1.182738	-0.309856	0.426476
O11	O	1.086234	-0.504509	0.202775
O12	O	0.959008	-0.504440	0.330017
O13	O	1.086291	-0.651778	0.553696
O14	O	0.959005	-0.651818	0.426426
O15	O	1.182735	-0.504368	0.553718
O16	O	1.182626	-0.846452	0.330016
O17	O	1.086228	-0.846400	0.426426
C18	C	0.930524	-0.578127	0.378219
C19	C	0.843274	-0.578146	0.378229
C20	C	0.802304	-0.655002	0.428348
C21	C	0.720323	-0.655005	0.428361
C22	C	0.679315	-0.578157	0.378249
C23	C	0.720292	-0.501292	0.328127
C24	C	0.802271	-0.501285	0.328119
C25	C	0.549422	-0.501316	0.328146
C26	C	0.467437	-0.501325	0.328153
C27	C	0.467474	-0.655036	0.428388
C28	C	0.549453	-0.655029	0.428380
C29	C	0.590424	-0.578165	0.378257
C30	C	1.134441	-0.889973	0.378235
C31	C	1.134500	-1.023373	0.378259
C32	C	1.339216	-0.578171	0.378263
C33	C	1.426466	-0.578181	0.378273
C34	C	1.134520	-0.578060	0.582985
C35	C	1.134540	-0.578022	0.670235
C36	C	1.134525	-0.265106	0.378264
C37	C	1.134547	-0.131706	0.378274
C38	C	1.134470	-0.578150	0.174293
C39	C	1.134602	-0.577850	0.087044
C40	C	1.184760	-0.501260	0.711238
C41	C	1.184770	-0.501220	0.793218
C42	C	1.134562	-0.577949	0.834195
C43	C	1.084336	-0.654715	0.793186
C44	C	1.084323	-0.654748	0.711207
C45	C	1.084368	-0.654643	0.964057
C46	C	1.084381	-0.654612	1.046041
C47	C	1.184814	-0.501115	1.046067
C48	C	1.184801	-0.501148	0.964088
C49	C	1.134576	-0.577916	0.923086
H50	H	1.225648	-0.438781	0.677881
H51	H	0.434112	-0.717618	0.469202
H52	H	1.225666	-0.438715	0.826599
H53	H	0.835687	-0.717585	0.469153
C54	C	1.240031	-0.416746	0.919014
C55	C	1.233651	-0.280302	0.930292
C56	C	1.288879	-0.195897	0.885218
C57	C	1.350489	-0.247935	0.828867
C58	C	1.356872	-0.384386	0.817586
C59	C	1.301643	-0.468792	0.862660
H60	H	1.188041	-0.241773	0.972009
H61	H	1.284154	-0.094886	0.893569
H62	H	1.391373	-0.185453	0.795501
H63	H	1.402481	-0.422915	0.775869
H64	H	1.306369	-0.569802	0.854309
H65	H	1.225708	-0.438605	1.079456
C66	C	0.675259	-0.739559	0.483489
C67	C	0.618878	-0.833721	0.449374
C68	C	0.573815	-0.918280	0.504506
C69	C	0.585134	-0.908678	0.593752
C70	C	0.641517	-0.814512	0.627872
C71	C	0.686580	-0.729952	0.572740
H72	H	0.610497	-0.840832	0.383305
H73	H	0.532076	-0.987988	0.479248
H74	H	0.551776	-0.971274	0.634563
H75	H	0.649898	-0.807400	0.693941
H76	H	0.728319	-0.660244	0.597998
H77	H	0.582840	-0.717612	0.469181
C78	C	0.594488	-0.416765	0.273009
C79	C	0.650816	-0.468644	0.211318
C80	C	0.695881	-0.384099	0.156180
C81	C	0.684619	-0.247675	0.162732
C82	C	0.628289	-0.195789	0.224426
C83	C	0.583223	-0.280334	0.279564
H84	H	0.659155	-0.569639	0.206466
H85	H	0.737580	-0.422509	0.110510
H86	H	0.717979	-0.185090	0.121915
H87	H	0.619949	-0.094794	0.229278
H88	H	0.541524	-0.241924	0.325234
H89	H	0.434050	-0.438734	0.287357
C90	C	0.847344	-0.416742	0.272988
C91	C	0.836083	-0.280318	0.279548
C92	C	0.881156	-0.195767	0.224420
C93	C	0.937489	-0.247639	0.162732
C94	C	0.948752	-0.384070	0.156169
C95	C	0.903679	-0.468621	0.211298
H96	H	0.794380	-0.241913	0.325216
H97	H	0.872818	-0.094772	0.229278
H98	H	0.970855	-0.185049	0.121922
H99	H	0.990455	-0.422475	0.110502
H100	H	0.912017	-0.569616	0.206439
C101	C	1.029181	-0.739056	1.091118
C102	C	0.973951	-0.823522	1.046020
C103	C	0.918765	-0.907990	1.091097
C104	C	0.918809	-0.907990	1.181271
C105	C	0.974040	-0.823521	1.226373
C106	C	1.029226	-0.739053	1.181296
H107	H	0.973917	-0.823525	0.979264
H108	H	0.877879	-0.970520	1.057709
H109	H	0.877957	-0.970518	1.214639
H110	H	0.974074	-0.823518	1.293129
H111	H	1.070112	-0.676523	1.214684
C112	C	1.029127	-0.739091	0.918946
C113	C	0.939892	-0.729300	0.930192
C114	C	0.884659	-0.813750	0.885077
C115	C	0.918661	-0.907991	0.828716
C116	C	1.007901	-0.917785	0.817468
C117	C	1.063134	-0.833335	0.862582
H118	H	0.914717	-0.659534	0.971916
H119	H	0.818597	-0.806499	0.893405
H120	H	0.877775	-0.970506	0.795320
H121	H	1.033076	-0.987552	0.775744
H122	H	1.129196	-0.840587	0.854255
H123	H	1.043453	-0.717186	0.826556
H124	H	1.043421	-0.717244	0.677824
H125	H	0.686896	-0.438716	0.287329
