data_functionalizedCrystal
_audit_creation_method	'MofGen! by Chris Wilmer'
_symmetry_space_group_name_H-M	'P1'
_symmetry_Int_Tables_number	1
_symmetry_cell_setting	triclinic
loop_
_symmetry_equiv_pos_as_xyz
  x,y,z
_cell_length_a	19.121063
_cell_length_b	12.827893
_cell_length_c	12.827885
_cell_angle_alpha	90.021189
_cell_angle_beta	92.403967
_cell_angle_gamma	87.532800
loop_
_atom_site_label
_atom_site_type_symbol
_atom_site_fract_x
_atom_site_fract_y
_atom_site_fract_z
Zn1	Zn	-0.279612	-1.579833	-0.608594
Zn2	Zn	-0.397079	-1.572234	-0.441286
Zn3	Zn	-0.279643	-1.405073	-0.433864
Zn4	Zn	-0.397023	-1.397570	-0.615977
O5	O	-0.338339	-1.488678	-0.524930
O6	O	-0.295205	-1.725061	-0.586417
O7	O	-0.381537	-1.550020	-0.294068
O8	O	-0.181354	-1.434575	-0.450845
O9	O	-0.381507	-1.719478	-0.463497
O10	O	-0.181332	-1.562971	-0.579219
O11	O	-0.295257	-1.427207	-0.288614
O12	O	-0.295203	-1.257842	-0.458005
O13	O	-0.381412	-1.421789	-0.761232
O14	O	-0.381441	-1.252330	-0.591803
O15	O	-0.295151	-1.555696	-0.755807
O16	O	-0.495355	-1.542745	-0.470656
O17	O	-0.495314	-1.414420	-0.599000
C18	C	-0.338320	-1.217169	-0.524900
C19	C	-0.338329	-1.101015	-0.524913
C20	C	-0.295698	-1.051988	-0.585840
C21	C	-0.295706	-0.931937	-0.585854
C22	C	-0.520819	-1.476972	-0.536458
C23	C	-0.598884	-1.472060	-0.541424
C24	C	-0.635558	-1.536616	-0.476991
C25	C	-0.708908	-1.532003	-0.481668
C26	C	-0.745585	-1.462827	-0.550774
C27	C	-0.708906	-1.398268	-0.615214
C28	C	-0.635556	-1.402888	-0.610542
C29	C	-0.967053	-1.445538	-0.568227
C30	C	-1.040408	-1.440921	-0.572892
C31	C	-1.040405	-1.574658	-0.439347
C32	C	-0.967054	-1.579267	-0.434676
C33	C	-0.930382	-1.514712	-0.499120
C34	C	-0.820561	-1.458107	-0.555554
C35	C	-0.855407	-1.519438	-0.494345
C36	C	-0.155147	-1.500458	-0.513381
C37	C	-0.077081	-1.505477	-0.508459
C38	C	-0.338272	-1.488753	-0.797496
C39	C	-0.338243	-1.488785	-0.913648
C40	C	-0.338353	-0.761247	-0.524952
C41	C	-0.338344	-0.877401	-0.524939
C42	C	-0.295550	-1.555055	-0.962748
C43	C	-0.295519	-1.555089	-1.082796
C44	C	-0.338355	-1.488666	-0.253421
C45	C	-0.338186	-1.488849	-0.137258
H46	H	-0.374830	-1.054112	-0.472760
F47	F	-0.248003	-0.876818	-0.654042
H48	H	-0.259019	-1.611761	-0.915909
H49	H	-0.605701	-1.592942	-0.420713
F50	F	-0.385986	-1.414654	-0.974864
H51	H	-0.825543	-1.575765	-0.438082
F52	F	-0.747936	-1.600715	-0.413091
F53	F	-0.247981	-1.113289	-0.654004
H54	H	-0.374848	-0.919566	-0.472781
F55	F	-0.928026	-1.652904	-0.361135
F56	F	-1.079440	-1.367281	-0.646437
F57	F	-1.079439	-1.643361	-0.370770
H58	H	-0.937200	-1.392973	-0.620698
H59	H	-0.374742	-1.432114	-1.095030
F60	F	-0.859601	-1.384486	-0.629099
H61	H	-0.738774	-1.341948	-0.671486
F62	F	-0.247746	-1.629255	-1.137997
F63	F	-0.596526	-1.334181	-0.679124
