data_functionalizedCrystal
_audit_creation_method	'MofGen! by Chris Wilmer'
_symmetry_space_group_name_H-M	'P1'
_symmetry_Int_Tables_number	1
_symmetry_cell_setting	triclinic
loop_
_symmetry_equiv_pos_as_xyz
  x,y,z
_cell_length_a	21.395362
_cell_length_b	19.805405
_cell_length_c	21.395356
_cell_angle_alpha	89.972988
_cell_angle_beta	89.964230
_cell_angle_gamma	90.042288
loop_
_atom_site_label
_atom_site_type_symbol
_atom_site_fract_x
_atom_site_fract_y
_atom_site_fract_z
Zn1	Zn	0.957828	-0.269207	-0.354580
Zn2	Zn	1.291161	0.064126	-0.021246
Zn3	Zn	1.624494	0.397459	0.312087
Zn4	Zn	0.957753	-0.382391	-0.249799
Zn5	Zn	1.291086	-0.049058	0.083534
Zn6	Zn	1.624420	0.284276	0.416867
Zn7	Zn	0.853058	-0.269253	-0.249781
Zn8	Zn	1.186391	0.064081	0.083553
Zn9	Zn	1.519724	0.397414	0.416886
Zn10	Zn	0.853020	-0.382391	-0.354504
Zn11	Zn	1.186353	-0.049058	-0.021171
Zn12	Zn	1.519686	0.284276	0.312162
O13	O	0.905414	-0.325811	-0.302166
O14	O	1.238748	0.007523	0.031167
O15	O	1.572081	0.340856	0.364501
O16	O	1.045496	-0.284202	-0.340720
O17	O	1.378829	0.049131	-0.007386
O18	O	1.712162	0.382464	0.325947
O19	O	0.943849	-0.367402	-0.162119
O20	O	1.277183	-0.034069	0.171214
O21	O	1.610516	0.299264	0.504548
O22	O	0.867003	-0.174530	-0.263706
O23	O	1.200336	0.158803	0.069627
O24	O	1.533669	0.492137	0.402960
O25	O	1.045441	-0.367358	-0.263738
O26	O	1.378774	-0.034025	0.069595
O27	O	1.712107	0.299309	0.402929
O28	O	0.943977	-0.174497	-0.340701
O29	O	1.277310	0.158837	-0.007368
O30	O	1.610643	0.492170	0.325965
O31	O	0.866930	-0.284280	-0.162105
O32	O	1.200264	0.049053	0.171228
O33	O	1.533597	0.382387	0.504561
O34	O	0.765375	-0.284280	-0.263633
O35	O	1.098708	0.049053	0.069700
O36	O	1.432041	0.382387	0.403033
O37	O	0.866938	-0.367358	-0.442192
O38	O	1.200271	-0.034025	-0.108859
O39	O	1.533605	0.299309	0.224475
O40	O	0.765347	-0.367402	-0.340573
O41	O	1.098680	-0.034069	-0.007240
O42	O	1.432013	0.299265	0.326094
O43	O	0.943940	-0.284202	-0.442247
O44	O	1.277273	0.049131	-0.108914
O45	O	1.610607	0.382464	0.224419
O46	O	0.943813	-0.477108	-0.263665
O47	O	1.277146	-0.143774	0.069668
O48	O	1.610479	0.189559	0.403002
O49	O	0.866866	-0.477108	-0.340591
O50	O	1.200199	-0.143774	-0.007258
O51	O	1.533532	0.189559	0.326075
C52	C	0.742627	-0.325846	-0.302093
C53	C	1.075960	0.007487	0.031240
C54	C	1.409293	0.340820	0.364573
C55	C	0.672985	-0.325878	-0.302077
C56	C	1.006319	0.007455	0.031256
C57	C	1.339652	0.340789	0.364590
C58	C	0.905344	-0.501667	-0.302136
C59	C	1.238677	-0.168333	0.031198
C60	C	1.572011	0.165000	0.364531
C61	C	0.905371	-0.576899	-0.302144
C62	C	1.238704	-0.243565	0.031190
C63	C	1.572038	0.089768	0.364523
C64	C	0.640274	-0.369217	-0.342080
C65	C	0.973608	-0.035884	-0.008746
C66	C	1.306941	0.297450	0.324587
C67	C	0.574839	-0.369200	-0.342108
C68	C	0.908172	-0.035867	-0.008774
C69	C	1.241506	0.297466	0.324559
C70	C	0.542117	-0.325852	-0.302122
C71	C	0.875451	0.007481	0.031212
C72	C	1.208784	0.340815	0.364545
C73	C	0.574836	-0.282504	-0.262116
C74	C	0.908170	0.050829	0.071217
C75	C	1.241503	0.384162	0.404550
C76	C	0.640270	-0.282517	-0.262094
C77	C	0.973604	0.050816	0.071239
C78	C	1.306937	0.384149	0.404573
C79	C	0.438400	-0.320407	-0.245717
C80	C	0.771733	0.012927	0.087617
C81	C	1.105067	0.346260	0.420950
C82	C	0.372967	-0.320398	-0.245738
C83	C	0.706301	0.012935	0.087595
C84	C	1.039634	0.346268	0.420929
C85	C	0.340297	-0.325808	-0.302191
C86	C	0.673630	0.007526	0.031142
C87	C	1.006963	0.340859	0.364476
C88	C	0.373067	-0.331240	-0.358624
C89	C	0.706400	0.002094	-0.025291
C90	C	1.039734	0.335427	0.308042
C91	C	0.438501	-0.331253	-0.358602
C92	C	0.771834	0.002081	-0.025269
C93	C	1.105168	0.335414	0.308065
C94	C	0.471165	-0.325833	-0.302142
C95	C	0.804498	0.007501	0.031192
C96	C	1.137832	0.340834	0.364525
C97	C	0.236633	-0.369131	-0.342227
C98	C	0.569966	-0.035798	-0.008894
C99	C	0.903299	0.297536	0.324440
C100	C	0.171196	-0.369110	-0.342256
C101	C	0.504530	-0.035776	-0.008923
C102	C	0.837863	0.297557	0.324411
C103	C	0.171195	-0.282417	-0.262259
C104	C	0.504528	0.050916	0.071074
C105	C	0.837862	0.384249	0.404407
C106	C	0.236630	-0.282435	-0.262236
C107	C	0.569964	0.050898	0.071097
C108	C	0.903297	0.384232	0.404431
C109	C	0.269345	-0.325796	-0.302219
C110	C	0.602679	0.007538	0.031114
C111	C	0.936012	0.340871	0.364448
C112	C	0.945476	-0.612220	-0.262130
C113	C	1.278810	-0.278887	0.071203
C114	C	1.612143	0.054446	0.404536
C115	C	0.945503	-0.682909	-0.262144
C116	C	1.278836	-0.349575	0.071189
C117	C	1.612170	-0.016242	0.404523
C118	C	0.905421	-0.718274	-0.302169
C119	C	1.238754	-0.384941	0.031165
C120	C	1.572087	-0.051607	0.364498
C121	C	0.865314	-0.682947	-0.342187
C122	C	1.198647	-0.349614	-0.008853
C123	C	1.531980	-0.016281	0.324480
C124	C	0.865291	-0.612260	-0.342175
C125	C	1.198624	-0.278927	-0.008842
C126	C	1.531957	0.054406	0.324491
C127	C	0.865406	-0.968021	-0.342233
C128	C	1.198739	-0.634687	-0.008900
C129	C	1.532073	-0.301354	0.324434
C130	C	0.865431	-1.038713	-0.342240
C131	C	1.198764	-0.705379	-0.008906
C132	C	1.532098	-0.372046	0.324427
C133	C	0.945618	-1.038669	-0.262202
C134	C	1.278952	-0.705336	0.071132
C135	C	1.612285	-0.372002	0.404465
C136	C	0.945595	-0.967982	-0.262191
C137	C	1.278929	-0.634649	0.071143
C138	C	1.612262	-0.301315	0.404476
C139	C	0.905491	-0.932661	-0.302210
C140	C	1.238824	-0.599328	0.031123
C141	C	1.572158	-0.265995	0.364456
C142	C	0.905463	-0.856013	-0.302196
C143	C	1.238797	-0.522680	0.031138
C144	C	1.572130	-0.189346	0.364471
C145	C	0.905445	-0.794921	-0.302181
C146	C	1.238778	-0.461588	0.031153
C147	C	1.572111	-0.128255	0.364486
C148	C	1.068838	-0.325775	-0.302239
C149	C	1.402171	0.007558	0.031094
C150	C	1.735504	0.340892	0.364427
C151	C	1.138479	-0.325760	-0.302271
C152	C	1.471812	0.007573	0.031063
C153	C	1.805146	0.340907	0.364396
C154	C	0.905443	-0.325775	-0.465589
C155	C	1.238777	0.007558	-0.132256
C156	C	1.572110	0.340892	0.201077
C157	C	0.905455	-0.325760	-0.535231
C158	C	1.238789	0.007574	-0.201897
C159	C	1.572122	0.340907	0.131436
C160	C	0.905502	-0.149268	-0.302210
C161	C	1.238836	0.184066	0.031123
C162	C	1.572169	0.517399	0.364456
C163	C	0.905540	-0.074036	-0.302229
C164	C	1.238873	0.259298	0.031104
C165	C	1.572206	0.592631	0.364438
C166	C	0.945578	-0.368900	-1.037035
C167	C	1.278911	-0.035566	-0.703701
C168	C	1.612244	0.297767	-0.370368
C169	C	0.945566	-0.368921	-0.971599
C170	C	1.278900	-0.035588	-0.638266
C171	C	1.612233	0.297746	-0.304933
C172	C	0.905515	-0.325652	-0.938869
C173	C	1.238848	0.007681	-0.605536
C174	C	1.572182	0.341014	-0.272203
C175	C	0.865461	-0.282371	-0.971580
C176	C	1.198794	0.050962	-0.638247
C177	C	1.532127	0.384295	-0.304913
C178	C	0.865469	-0.282356	-1.037014
C179	C	1.198802	0.050977	-0.703681
C180	C	1.532135	0.384311	-0.370347
C181	C	0.900585	-0.264697	-0.835214
C182	C	1.233919	0.068636	-0.501880
C183	C	1.567252	0.401970	-0.168547
C184	C	0.900582	-0.264711	-0.769781
C185	C	1.233915	0.068622	-0.436447
C186	C	1.567248	0.401955	-0.103114
C187	C	0.905487	-0.325700	-0.737048
C188	C	1.238820	0.007633	-0.403715
C189	C	1.572154	0.340966	-0.070382
C190	C	0.910409	-0.386677	-0.769757
C191	C	1.243742	-0.053344	-0.436424
C192	C	1.577075	0.279989	-0.103090
C193	C	0.910417	-0.386662	-0.835191
C194	C	1.243750	-0.053329	-0.501858
C195	C	1.577083	0.280005	-0.168525
C196	C	0.905502	-0.325665	-0.867917
C197	C	1.238835	0.007669	-0.534583
C198	C	1.572168	0.341002	-0.201250
C199	C	0.945523	-0.369005	-0.633393
C200	C	1.278857	-0.035672	-0.300060
C201	C	1.612190	0.297661	0.033274
C202	C	0.945508	-0.369028	-0.567956
C203	C	1.278841	-0.035695	-0.234623
C204	C	1.612174	0.297639	0.098710
C205	C	0.865406	-0.282472	-0.567938
C206	C	1.198739	0.050861	-0.234605
C207	C	1.532072	0.384194	0.098729
C208	C	0.865418	-0.282456	-0.633374
C209	C	1.198751	0.050878	-0.300040
C210	C	1.532085	0.384211	0.033293
C211	C	0.905480	-0.325721	-0.666097
C212	C	1.238814	0.007612	-0.332764
C213	C	1.572147	0.340945	0.000570
C214	C	0.905422	-0.325797	-0.139378
C215	C	1.238755	0.007536	0.193955
C216	C	1.572089	0.340870	0.527288
C217	C	0.905531	-0.325622	-0.069738
C218	C	1.238864	0.007712	0.263596
C219	C	1.572198	0.341045	0.596929
H220	H	0.548200	-0.404492	-0.374685
H221	H	0.881534	-0.071159	-0.041351
H222	H	1.214867	0.262175	0.291982
N223	N	0.988829	-0.929836	-0.219025
N224	N	1.322162	-0.596503	0.114308
N225	N	1.655496	-0.263169	0.447641
H226	H	0.979136	-0.942178	-0.174247
H227	H	1.312469	-0.608845	0.159087
H228	H	1.645803	-0.275511	0.492420
H229	H	1.033575	-0.942095	-0.228873
H230	H	1.366909	-0.608762	0.104460
H231	H	1.700242	-0.275428	0.437794
N232	N	0.895291	-0.198912	-0.870515
N233	N	1.228624	0.134421	-0.537182
N234	N	1.561957	0.467755	-0.203848
H235	H	0.892177	-0.160288	-0.839867
H236	H	1.225511	0.173046	-0.506534
H237	H	1.558844	0.506379	-0.173201
H238	H	0.933472	-0.192611	-0.897685
H239	H	1.266806	0.140722	-0.564352
H240	H	1.600139	0.474055	-0.231018
N241	N	0.988756	-0.721007	-0.218984
N242	N	1.322089	-0.387673	0.114350
N243	N	1.655422	-0.054340	0.447683
H244	H	1.017788	-0.750280	-0.244486
H245	H	1.351122	-0.416947	0.088848
H246	H	1.684455	-0.083613	0.422181
H247	H	1.014099	-0.687834	-0.193633
H248	H	1.347432	-0.354500	0.139701
H249	H	1.680765	-0.021167	0.473034
H250	H	0.832681	-0.711748	-0.374778
H251	H	1.166014	-0.378414	-0.041445
H252	H	1.499347	-0.045081	0.291889
N253	N	0.915703	-0.452465	-0.734464
N254	N	1.249037	-0.119131	-0.401130
N255	N	1.582370	0.214202	-0.067797
H256	H	0.914949	-0.443225	-0.688048
H257	H	1.248282	-0.109892	-0.354715
H258	H	1.581616	0.223441	-0.021382
H259	H	0.879459	-0.482732	-0.745879
H260	H	1.212793	-0.149399	-0.412546
H261	H	1.546126	0.183935	-0.079213
N262	N	0.473843	-0.337108	-0.419466
N263	N	0.807176	-0.003775	-0.086133
N264	N	1.140509	0.329559	0.247200
H265	H	0.462517	-0.298008	-0.447575
H266	H	0.795851	0.035326	-0.114241
H267	H	1.129184	0.368659	0.219092
H268	H	0.520240	-0.336316	-0.410831
H269	H	0.853573	-0.002983	-0.077498
H270	H	1.186907	0.330351	0.255836
H271	H	0.832792	-1.067505	-0.374837
H272	H	1.166125	-0.734172	-0.041504
H273	H	1.499458	-0.400839	0.291829
H274	H	0.832751	-0.939268	-0.374817
H275	H	1.166084	-0.605935	-0.041484
H276	H	1.499417	-0.272602	0.291849
N277	N	0.988874	-1.076764	-0.219034
N278	N	1.322207	-0.743431	0.114300
N279	N	1.655541	-0.410098	0.447633
H280	H	0.982810	-1.126911	-0.225112
H281	H	1.316143	-0.793578	0.108221
H282	H	1.649476	-0.460244	0.441554
H283	H	1.033613	-1.064349	-0.228834
H284	H	1.366946	-0.731015	0.104499
H285	H	1.700279	-0.397682	0.437833
N286	N	0.988761	-0.415603	-0.936319
N287	N	1.322094	-0.082270	-0.602986
N288	N	1.655428	0.251064	-0.269652
H289	H	1.014139	-0.443008	-0.966981
H290	H	1.347472	-0.109675	-0.633647
H291	H	1.680805	0.223659	-0.300314
H292	H	1.017763	-0.388046	-0.909192
H293	H	1.351097	-0.054713	-0.575859
H294	H	1.684430	0.278621	-0.242525
N295	N	0.895272	-0.198952	-0.734499
N296	N	1.228605	0.134381	-0.401165
N297	N	1.561939	0.467715	-0.067832
H298	H	0.933441	-0.192599	-0.707373
H299	H	1.266775	0.140735	-0.374039
H300	H	1.600108	0.474068	-0.040706
H301	H	0.892137	-0.160350	-0.765196
H302	H	1.225470	0.172983	-0.431863
H303	H	1.558804	0.506316	-0.098530
N304	N	0.271924	-0.415893	-0.385351
N305	N	0.605258	-0.082560	-0.052017
N306	N	0.938591	0.250773	0.281316
H307	H	0.241270	-0.443343	-0.410701
H308	H	0.574603	-0.110010	-0.077368
H309	H	0.907936	0.223324	0.255966
H310	H	0.299128	-0.388390	-0.414381
H311	H	0.632461	-0.055057	-0.081048
H312	H	0.965794	0.278276	0.252285
N313	N	0.988778	-0.415573	-1.072327
N314	N	1.322112	-0.082239	-0.738994
N315	N	1.655445	0.251094	-0.405660
H316	H	0.982708	-0.408998	-1.118743
H317	H	1.316041	-0.075665	-0.785409
H318	H	1.649374	0.257669	-0.452076
H319	H	1.033529	-0.405028	-1.060915
H320	H	1.366863	-0.071695	-0.727581
H321	H	1.700196	0.261639	-0.394248
H322	H	0.832634	-0.583502	-0.374759
H323	H	1.165967	-0.250169	-0.041426
H324	H	1.499300	0.083165	0.291907
N325	N	0.915722	-0.452423	-0.870471
N326	N	1.249055	-0.119090	-0.537138
N327	N	1.582389	0.214244	-0.203804
H328	H	0.918828	-0.491065	-0.839811
H329	H	1.252162	-0.157732	-0.506478
H330	H	1.585495	0.175602	-0.173144
H331	H	0.877546	-0.458708	-0.897599
H332	H	1.210879	-0.125375	-0.564265
H333	H	1.544213	0.207959	-0.230932
N334	N	0.988729	-0.415669	-0.668693
N335	N	1.322062	-0.082336	-0.335360
N336	N	1.655395	0.250998	-0.002027
H337	H	1.014094	-0.443094	-0.638044
H338	H	1.347427	-0.109761	-0.304711
H339	H	1.680761	0.223573	0.028622
H340	H	0.963215	-0.446991	-0.695825
H341	H	1.296548	-0.113657	-0.362492
H342	H	1.629881	0.219676	-0.029159
H343	H	0.978115	-0.404277	-0.541331
H344	H	1.311449	-0.070943	-0.207997
H345	H	1.644782	0.262390	0.125336
H346	H	0.832794	-0.247244	-0.541290
H347	H	1.166127	0.086090	-0.207957
H348	H	1.499460	0.419423	0.125377
N349	N	0.822226	-0.235775	-0.668651
N350	N	1.155560	0.097558	-0.335318
N351	N	1.488893	0.430892	-0.001984
H352	H	0.796851	-0.208367	-0.637989
H353	H	1.130185	0.124966	-0.304656
H354	H	1.463518	0.458300	0.028677
H355	H	0.847748	-0.204439	-0.695820
H356	H	1.181081	0.128895	-0.362487
H357	H	1.514415	0.462228	-0.029154
H358	H	0.832850	-0.247143	-0.944927
H359	H	1.166183	0.086191	-0.611594
H360	H	1.499517	0.419524	-0.278260
N361	N	0.822274	-0.235673	-1.072288
N362	N	1.155607	0.097660	-0.738954
N363	N	1.488940	0.430993	-0.405621
H364	H	0.847753	-0.204293	-1.099456
H365	H	1.181086	0.129040	-0.766123
H366	H	1.514419	0.462374	-0.432790
H367	H	0.793240	-0.263232	-1.099380
H368	H	1.126573	0.070101	-0.766046
H369	H	1.459907	0.403435	-0.432713
H370	H	0.666907	-0.404524	-0.374638
H371	H	1.000240	-0.071190	-0.041305
H372	H	1.333574	0.262143	0.292029
H373	H	0.144564	-0.404400	-0.374835
H374	H	0.477897	-0.071067	-0.041502
H375	H	0.811231	0.262266	0.291832
N376	N	0.337840	-0.337078	-0.419519
N377	N	0.671174	-0.003745	-0.086185
N378	N	1.004507	0.329589	0.247148
H379	H	0.291416	-0.336243	-0.410973
H380	H	0.624749	-0.002909	-0.077639
H381	H	0.958082	0.330424	0.255694
H382	H	0.349342	-0.297981	-0.447592
H383	H	0.682675	0.035352	-0.114259
H384	H	1.016008	0.368686	0.219074
H385	H	0.263264	-0.247147	-0.229658
H386	H	0.596597	0.086186	0.103675
H387	H	0.929931	0.419520	0.437008
N388	N	0.135912	-0.235656	-0.219135
N389	N	0.469245	0.097677	0.114198
N390	N	0.802579	0.431010	0.447532
H391	H	0.089495	-0.242222	-0.225220
H392	H	0.422829	0.091111	0.108113
H393	H	0.756162	0.424445	0.441447
H394	H	0.147296	-0.246127	-0.174365
H395	H	0.480629	0.087206	0.158968
H396	H	0.813963	0.420540	0.492301
H397	H	0.346291	-0.315980	-0.199786
H398	H	0.679624	0.017354	0.133547
H399	H	1.012957	0.350687	0.466880
N400	N	0.473632	-0.314569	-0.184823
N401	N	0.806966	0.018764	0.148510
N402	N	1.140299	0.352098	0.481844
H403	H	0.462185	-0.353665	-0.156723
H404	H	0.795519	-0.020332	0.176610
H405	H	1.128852	0.313001	0.509944
H406	H	0.520045	-0.315379	-0.193425
H407	H	0.853379	0.017955	0.139908
H408	H	1.186712	0.351288	0.473242
N409	N	0.539548	-0.235757	-0.218980
N410	N	0.872882	0.097576	0.114353
N411	N	1.206215	0.430909	0.447686
H412	H	0.493132	-0.242330	-0.225059
H413	H	0.826465	0.091003	0.108274
H414	H	1.159799	0.424337	0.441607
H415	H	0.550941	-0.246239	-0.174215
H416	H	0.884274	0.087095	0.159118
H417	H	1.217608	0.420428	0.492452
H418	H	0.666904	-0.247223	-0.229519
H419	H	1.000237	0.086110	0.103814
H420	H	1.333570	0.419443	0.437148
H421	H	0.978113	-0.583430	-0.229535
H422	H	1.311447	-0.250097	0.103798
H423	H	1.644780	0.083236	0.437132
