data_functionalizedCrystal
_audit_creation_method	'MofGen! by Chris Wilmer'
_symmetry_space_group_name_H-M	'P1'
_symmetry_Int_Tables_number	1
_symmetry_cell_setting	triclinic
loop_
_symmetry_equiv_pos_as_xyz
  x,y,z
_cell_length_a	19.288840
_cell_length_b	17.038272
_cell_length_c	17.766277
_cell_angle_alpha	89.993732
_cell_angle_beta	89.983415
_cell_angle_gamma	87.118786
loop_
_atom_site_label
_atom_site_type_symbol
_atom_site_fract_x
_atom_site_fract_y
_atom_site_fract_z
O1	O	0.927392	0.097420	-0.062722
O2	O	1.427392	0.597420	0.437278
O3	O	0.725944	0.110595	-0.062696
O4	O	1.225944	0.610595	0.437304
O5	O	0.825470	-0.009804	-0.062703
O6	O	1.325470	0.490196	0.437297
O7	O	0.827865	0.217819	-0.062715
O8	O	1.327865	0.717819	0.437285
O9	O	0.825451	-0.009810	0.062486
O10	O	1.325451	0.490190	0.562486
O11	O	0.725925	0.110589	0.062493
O12	O	1.225925	0.610589	0.562493
O13	O	0.927373	0.097414	0.062467
O14	O	1.427373	0.597414	0.562467
Cu15	Cu	0.826647	0.104001	0.073911
Cu16	Cu	1.326647	0.604001	0.573911
Cu17	Cu	0.826669	0.104008	-0.074139
Cu18	Cu	1.326669	0.604008	0.425861
O19	O	0.827846	0.217813	0.062474
O20	O	1.327846	0.717813	0.562474
C21	C	0.700031	0.110171	-0.000098
C22	C	1.200031	0.610171	0.499902
C23	C	0.622849	0.108909	-0.000088
C24	C	1.122849	0.608909	0.499912
C25	C	0.586618	0.108305	-0.068330
C26	C	1.086618	0.608305	0.431670
C27	C	0.514097	0.107110	-0.068339
C28	C	1.014097	0.607110	0.431661
C29	C	0.477811	0.106502	-0.000102
C30	C	0.977811	0.606502	0.499898
C31	C	0.514050	0.107110	0.068149
C32	C	1.014050	0.607110	0.568149
C33	C	0.586569	0.108313	0.068156
C34	C	1.086569	0.608313	0.568156
C35	C	0.365524	0.058808	0.052169
C36	C	0.865524	0.558808	0.552169
C37	C	0.293007	0.057601	0.052159
C38	C	0.793007	0.557601	0.552159
C39	C	0.254138	0.102795	-0.000122
C40	C	0.754138	0.602795	0.499878
C41	C	0.287795	0.149188	-0.052405
C42	C	0.787795	0.649188	0.447595
C43	C	0.360314	0.150391	-0.052398
C44	C	0.860314	0.650391	0.447602
C45	C	0.399176	0.105198	-0.000103
C46	C	0.899176	0.605198	0.499897
C47	C	0.139272	0.100897	-0.068379
C48	C	0.639272	0.600897	0.431621
C49	C	0.066749	0.099707	-0.068385
C50	C	0.566749	0.599707	0.431615
C51	C	0.066704	0.099699	0.068105
C52	C	0.566704	0.599699	0.568105
C53	C	0.139224	0.100897	0.068109
C54	C	0.639224	0.600897	0.568109
C55	C	0.175504	0.101493	-0.000135
C56	C	0.675504	0.601493	0.499865
C57	C	0.823283	-0.038928	-0.000108
C58	C	1.323283	0.461072	0.499892
C59	C	0.816785	-0.125699	-0.000107
C60	C	1.316785	0.374301	0.499893
C61	C	0.876442	-0.176012	-0.000114
C62	C	1.376442	0.323988	0.499886
C63	C	0.870332	-0.257542	-0.000121
C64	C	1.370332	0.242458	0.499879
C65	C	0.804566	-0.288758	-0.000115
C66	C	1.304566	0.211242	0.499885
C67	C	0.744905	-0.238439	-0.000110
C68	C	1.244905	0.261561	0.499890
C69	C	0.751015	-0.156910	-0.000109
C70	C	1.251015	0.343090	0.499891
C71	C	0.782980	-0.534444	-0.000122
C72	C	1.282980	-0.034444	0.499878
C73	C	0.776875	-0.615979	-0.000121
C74	C	1.276875	-0.115979	0.499879
C75	C	0.902303	-0.635077	-0.000133
C76	C	1.402303	-0.135077	0.499867
C77	C	0.908407	-0.553546	-0.000127
C78	C	1.408407	-0.053546	0.499873
C79	C	0.848746	-0.503234	-0.000127
C80	C	1.348746	-0.003234	0.499873
C81	C	0.798320	-0.372095	-0.000119
C82	C	1.298320	0.127905	0.499881
C83	C	0.854993	-0.419899	-0.000128
C84	C	1.354993	0.080101	0.499872
C85	C	0.953285	0.097838	-0.000132
C86	C	1.453285	0.597838	0.499868
C87	C	1.030468	0.099101	-0.000147
C88	C	1.530468	0.599101	0.499853
C89	C	0.830033	0.246937	-0.000122
C90	C	1.330033	0.746937	0.499878
C91	C	0.836531	0.333708	-0.000128
C92	C	1.336531	0.833708	0.499872
N93	N	0.826636	0.103995	0.178041
N94	N	1.326636	0.603995	0.678041
N95	N	0.826685	0.104007	-0.178270
N96	N	1.326685	0.604007	0.321730
C97	C	0.870723	0.050709	0.217425
C98	C	1.370723	0.550709	0.717425
C99	C	0.870727	0.050705	0.296227
C100	C	1.370727	0.550705	0.796227
C101	C	0.826651	0.104002	0.335641
C102	C	1.326651	0.604002	0.835641
C103	C	0.782555	0.157292	0.296248
C104	C	1.282555	0.657292	0.796248
C105	C	0.782548	0.157289	0.217448
C106	C	1.282548	0.657289	0.717448
C107	C	0.821759	0.175226	0.460476
C108	C	1.321759	0.675226	0.960476
C109	C	0.821771	0.175230	0.539275
C110	C	1.321771	0.675230	1.039275
C111	C	0.826670	0.104011	0.578688
C112	C	1.326670	0.604011	1.078688
C113	C	0.831571	0.032785	0.539292
C114	C	1.331571	0.532785	1.039292
C115	C	0.831564	0.032782	0.460492
C116	C	1.331564	0.532782	0.960492
C117	C	0.826654	0.104011	0.421087
C118	C	1.326654	0.604011	0.921087
C119	C	0.870764	0.050716	0.703518
C120	C	1.370764	0.550716	1.203518
C121	C	0.870763	0.050711	0.782321
C122	C	1.370763	0.550711	1.282321
C123	C	0.782595	0.157305	0.782341
C124	C	1.282595	0.657305	1.282341
C125	C	0.782592	0.157303	0.703539
C126	C	1.282592	0.657303	1.203539
C127	C	0.826680	0.104009	0.664132
C128	C	1.326680	0.604009	1.164132
H129	H	0.037251	0.099220	-0.123958
H130	H	0.537251	0.599220	0.376042
H131	H	0.906662	0.007315	0.814388
H132	H	1.406662	0.507315	1.314388
N133	N	0.735048	0.214785	0.824841
N134	N	1.235048	0.714785	1.324841
H135	H	0.741740	0.206700	0.880738
H136	H	1.241740	0.706700	1.380738
H137	H	0.746342	0.270216	0.811056
H138	H	1.246342	0.770216	1.311056
H139	H	0.746695	0.200697	0.671471
H140	H	1.246695	0.700697	1.171471
H141	H	0.265609	0.019821	0.094727
H142	H	0.765609	0.519821	0.594727
H143	H	0.484592	0.106620	-0.123912
H144	H	0.984592	0.606620	0.376088
H145	H	0.616067	0.108805	0.123729
H146	H	1.116067	0.608805	0.623729
N147	N	0.178403	0.101549	-0.141983
N148	N	0.678403	0.601549	0.358017
H149	H	0.205720	0.150492	-0.145023
H150	H	0.705720	0.650492	0.354977
H151	H	0.211226	0.053566	-0.144977
H152	H	0.711226	0.553566	0.355023
N153	N	0.686678	-0.102632	-0.000099
N154	N	1.186678	0.397368	0.499901
H155	H	0.658203	-0.112636	-0.046502
H156	H	1.158203	0.387364	0.453498
H157	H	0.658243	-0.112671	0.046343
H158	H	1.158243	0.387329	0.546343
N159	N	0.727385	-0.405761	-0.000106
N160	N	1.227385	0.094239	0.499894
H161	H	0.722063	-0.439156	-0.046513
H162	H	1.222063	0.060844	0.453487
H163	H	0.722098	-0.439130	0.046332
H164	H	1.222098	0.060870	0.546332
N165	N	0.816481	0.252047	0.581764
N166	N	1.316481	0.752047	1.081764
H167	H	0.813365	0.297163	0.544841
H168	H	1.313365	0.797163	1.044841
H169	H	0.773600	0.253799	0.614474
H170	H	1.273600	0.753799	1.114474
H171	H	0.387715	0.188167	-0.094967
H172	H	0.887715	0.688167	0.405033
H173	H	0.906629	0.007311	0.328299
H174	H	1.406629	0.507311	0.828299
H175	H	0.817758	0.233224	0.428393
H176	H	1.317758	0.733224	0.928393
N177	N	0.407444	0.010063	0.108563
N178	N	0.907444	0.510063	0.608563
H179	H	0.375121	-0.019513	0.141677
H180	H	0.875121	0.480487	0.641677
H181	H	0.439783	-0.028544	0.081012
H182	H	0.939783	0.471456	0.581012
N183	N	0.474777	0.106073	0.141644
N184	N	0.974777	0.606073	0.641644
H185	H	0.441770	0.153888	0.144817
H186	H	0.941770	0.653888	0.644817
H187	H	0.447642	0.056971	0.144266
H188	H	0.947642	0.556971	0.644266
H189	H	0.929996	-0.150603	-0.000115
H190	H	1.429996	0.349397	0.499885
H191	H	0.906621	0.007312	0.185342
H192	H	1.406621	0.507312	0.685342
N193	N	0.934676	-0.311809	-0.000124
N194	N	1.434676	0.188191	0.499876
H195	H	0.977265	-0.279662	-0.000121
H196	H	1.477265	0.220338	0.499879
H197	H	0.934859	-0.346056	0.046285
H198	H	1.434859	0.153944	0.546285
N199	N	0.735011	0.214773	0.338754
N200	N	1.235011	0.714773	0.838754
H201	H	0.741707	0.206691	0.394651
H202	H	1.241707	0.706691	0.894651
H203	H	0.746303	0.270204	0.324966
H204	H	1.246303	0.770204	0.824966
H205	H	0.961961	-0.528136	-0.000132
H206	H	1.461961	-0.028136	0.499868
H207	H	0.037160	0.099209	0.123665
H208	H	0.537160	0.599209	0.623665
H209	H	0.950875	-0.676049	-0.000135
H210	H	1.450875	-0.176049	0.499865
H211	H	0.723317	-0.641391	-0.000104
H212	H	1.223317	-0.141391	0.499896
N213	N	0.718634	-0.480186	-0.000117
N214	N	1.218634	0.019814	0.499883
H215	H	0.690163	-0.490201	-0.046520
H216	H	1.190163	0.009799	0.453480
H217	H	0.690202	-0.490232	0.046325
H218	H	1.190202	0.009768	0.546325
N219	N	0.836864	-0.044040	0.581783
N220	N	1.336864	0.455960	1.081783
H221	H	0.794418	-0.048567	0.614494
H222	H	1.294418	0.451433	1.114494
H223	H	0.839993	-0.089106	0.544814
H224	H	1.339993	0.410894	1.044814
N225	N	0.836847	-0.044033	0.417999
N226	N	1.336847	0.455967	0.917999
H227	H	0.839953	-0.089153	0.454918
H228	H	1.339953	0.410847	0.954918
H229	H	0.794387	-0.048471	0.385323
H230	H	1.294387	0.451529	0.885323
H231	H	0.256149	0.185993	-0.094974
H232	H	0.756149	0.685993	0.405026
N233	N	0.925924	-0.386232	-0.000126
N234	N	1.425924	0.113768	0.499874
H235	H	0.962794	-0.430473	-0.000127
H236	H	1.462794	0.069527	0.499873
H237	H	0.931200	-0.352814	-0.046534
H238	H	1.431200	0.147186	0.453466
N239	N	0.673970	-0.272103	-0.000109
N240	N	1.173970	0.227897	0.499891
H241	H	0.679150	-0.331385	-0.000108
H242	H	1.179150	0.168615	0.499892
H243	H	0.647645	-0.253685	0.046303
H244	H	1.147645	0.246315	0.546303
N245	N	0.734992	0.214762	0.174964
N246	N	1.234992	0.714762	0.674964
H247	H	0.707067	0.248524	0.211887
H248	H	1.207067	0.748524	0.711887
H249	H	0.763614	0.249242	0.142253
H250	H	1.263614	0.749242	0.642253
N251	N	0.918311	-0.006763	0.661007
N252	N	1.418311	0.493237	1.161007
H253	H	0.946238	-0.040526	0.697918
H254	H	1.446238	0.459474	1.197918
H255	H	0.889683	-0.041241	0.628326
H256	H	1.389683	0.458759	1.128326
N257	N	0.625741	0.108948	-0.141938
N258	N	1.125741	0.608948	0.358062
H259	H	0.610352	0.157184	-0.171777
H260	H	1.110352	0.657184	0.328223
H261	H	0.677170	0.109770	-0.131524
H262	H	1.177170	0.609770	0.368476
N263	N	0.178307	0.101547	0.141714
N264	N	0.678307	0.601547	0.641714
H265	H	0.144318	0.100982	0.184942
H266	H	0.644318	0.600982	0.684942
H267	H	0.211172	0.053600	0.144694
H268	H	0.711172	0.553600	0.644694
