data_functionalizedCrystal
_audit_creation_method	'MofGen! by Chris Wilmer'
_symmetry_space_group_name_H-M	'P1'
_symmetry_Int_Tables_number	1
_symmetry_cell_setting	triclinic
loop_
_symmetry_equiv_pos_as_xyz
  x,y,z
_cell_length_a	21.295420
_cell_length_b	21.295417
_cell_length_c	21.295411
_cell_angle_alpha	89.979403
_cell_angle_beta	89.975408
_cell_angle_gamma	90.025484
loop_
_atom_site_label
_atom_site_type_symbol
_atom_site_fract_x
_atom_site_fract_y
_atom_site_fract_z
Zn1	Zn	0.962359	-0.250752	-0.355917
Zn2	Zn	1.462359	0.249248	0.144083
Zn3	Zn	0.962263	-0.356004	-0.250644
Zn4	Zn	1.462263	0.143996	0.249356
Zn5	Zn	0.857082	-0.250744	-0.250661
Zn6	Zn	1.357082	0.249256	0.249339
Zn7	Zn	0.857053	-0.355979	-0.355875
Zn8	Zn	1.357053	0.144021	0.144125
O9	O	0.909689	-0.303370	-0.303274
O10	O	1.409689	0.196630	0.196726
O11	O	1.050435	-0.264727	-0.341962
O12	O	1.550435	0.235273	0.158038
O13	O	0.948282	-0.342048	-0.162557
O14	O	1.448282	0.157952	0.337443
O15	O	0.871100	-0.162656	-0.264648
O16	O	1.371100	0.337344	0.235352
O17	O	1.050365	-0.342055	-0.264618
O18	O	1.550365	0.157945	0.235382
O19	O	0.948446	-0.162661	-0.341979
O20	O	1.448446	0.337339	0.158021
O21	O	0.871006	-0.264714	-0.162570
O22	O	1.371006	0.235286	0.337430
O23	O	0.768989	-0.264691	-0.264609
O24	O	1.268989	0.235309	0.235391
O25	O	0.871050	-0.342014	-0.443970
O26	O	1.371050	0.157986	0.056030
O27	O	0.768967	-0.342006	-0.341909
O28	O	1.268967	0.157994	0.158091
O29	O	0.948418	-0.264703	-0.444000
O30	O	1.448418	0.235297	0.056000
O31	O	0.948254	-0.444090	-0.264578
O32	O	1.448254	0.055910	0.235422
O33	O	0.870957	-0.444072	-0.341892
O34	O	1.370957	0.055928	0.158108
C35	C	0.746138	-0.303346	-0.303257
C36	C	1.246138	0.196654	0.196743
C37	C	0.676169	-0.303351	-0.303264
C38	C	1.176169	0.196649	0.196736
C39	C	0.176748	-0.263200	-0.343622
C40	C	0.676748	0.236800	0.156378
C41	C	0.242490	-0.263195	-0.343622
C42	C	0.742490	0.236805	0.156378
C43	C	0.275330	-0.303389	-0.303289
C44	C	0.775330	0.196611	0.196711
C45	C	0.242422	-0.343602	-0.262965
C46	C	0.742422	0.156398	0.237035
C47	C	0.176681	-0.343610	-0.262970
C48	C	0.676681	0.156390	0.237030
N49	N	0.378520	-0.308125	-0.248169
N50	N	0.878520	0.191875	0.251831
N51	N	0.440971	-0.308113	-0.248166
N52	N	0.940971	0.191887	0.251834
C53	C	0.473405	-0.303368	-0.303270
C54	C	0.973405	0.196632	0.196730
N55	N	0.441027	-0.298623	-0.358380
N56	N	0.941027	0.201377	0.141620
N57	N	0.378570	-0.298631	-0.358383
N58	N	0.878570	0.201369	0.141617
C59	C	0.346615	-0.303385	-0.303279
C60	C	0.846615	0.196615	0.196721
C61	C	0.577590	-0.263156	-0.343595
C62	C	1.077590	0.236844	0.156405
C63	C	0.643334	-0.263156	-0.343596
C64	C	1.143334	0.236844	0.156404
C65	C	0.643265	-0.343559	-0.262933
C66	C	1.143265	0.156441	0.237067
C67	C	0.577522	-0.343562	-0.262938
C68	C	1.077522	0.156438	0.237062
C69	C	0.544689	-0.303358	-0.303268
C70	C	1.044689	0.196642	0.196732
C71	C	0.909609	-0.466921	-0.303242
C72	C	1.409609	0.033079	0.196758
C73	C	0.909632	-0.536890	-0.303250
C74	C	1.409632	-0.036890	0.196750
C75	C	0.949883	-0.569702	-0.343545
C76	C	1.449883	-0.069702	0.156455
C77	C	0.949906	-0.635444	-0.343560
C78	C	1.449906	-0.135444	0.156440
C79	C	0.909683	-0.668372	-0.303270
C80	C	1.409683	-0.168372	0.196730
C81	C	0.869424	-0.635552	-0.262972
C82	C	1.369424	-0.135552	0.237028
C83	C	0.869399	-0.569811	-0.262962
C84	C	1.369399	-0.069811	0.237038
N85	N	0.904924	-0.771624	-0.248179
N86	N	1.404924	-0.271624	0.251821
N87	N	0.904952	-0.834075	-0.248190
N88	N	1.404952	-0.334075	0.251810
C89	C	0.909757	-0.866447	-0.303298
C90	C	1.409757	-0.366447	0.196702
N91	N	0.914545	-0.834007	-0.358396
N92	N	1.414545	-0.334007	0.141604
N93	N	0.914520	-0.771550	-0.358384
N94	N	1.414520	-0.271550	0.141616
C95	C	0.909706	-0.739657	-0.303276
C96	C	1.409706	-0.239657	0.196724
C97	C	0.950034	-0.970544	-0.343613
C98	C	1.450034	-0.470544	0.156387
C99	C	0.950052	-1.036288	-0.343630
C100	C	1.450052	-0.536288	0.156370
C101	C	0.869574	-1.036394	-0.263036
C102	C	1.369574	-0.536394	0.236964
C103	C	0.869553	-0.970652	-0.263025
C104	C	1.369553	-0.470652	0.236975
C105	C	0.909786	-0.937731	-0.303313
C106	C	1.409786	-0.437731	0.196687
C107	C	1.073879	-0.303394	-0.303293
C108	C	1.573879	0.196606	0.196707
C109	C	1.143847	-0.303405	-0.303300
C110	C	1.643847	0.196595	0.196700
C111	C	0.909741	-0.303357	-0.467465
C112	C	1.409741	0.196643	0.032535
C113	C	0.909764	-0.303351	-0.537433
C114	C	1.409764	0.196649	-0.037433
C115	C	0.909787	-0.139180	-0.303320
C116	C	1.409787	0.360820	0.196680
C117	C	0.909828	-0.069211	-0.303340
C118	C	1.409828	0.430789	0.196660
C119	C	0.950047	-0.263094	-0.570316
C120	C	1.450047	0.236906	-0.070316
C121	C	0.950046	-0.263066	-0.636059
C122	C	1.450046	0.236934	-0.136059
C123	C	0.909769	-0.303308	-0.668915
C124	C	1.409769	0.196692	-0.168915
C125	C	0.869477	-0.343568	-0.636024
C126	C	1.369477	0.156432	-0.136024
C127	C	0.869475	-0.343589	-0.570283
C128	C	1.369475	0.156411	-0.070283
N129	N	0.904913	-0.358375	-0.772132
N130	N	1.404913	0.141625	-0.272132
N131	N	0.904919	-0.358353	-0.834583
N132	N	1.404919	0.141647	-0.334583
C133	C	0.909773	-0.303244	-0.866990
C134	C	1.409773	0.196756	-0.366990
N135	N	0.914632	-0.248157	-0.834586
N136	N	1.414632	0.251843	-0.334586
N137	N	0.914630	-0.248180	-0.772129
N138	N	1.414630	0.251820	-0.272129
C139	C	0.909766	-0.303288	-0.740201
C140	C	1.409766	0.196712	-0.240201
C141	C	0.950057	-0.262953	-0.971159
C142	C	1.450057	0.237047	-0.471159
C143	C	0.950052	-0.262925	-1.036903
C144	C	1.450052	0.237075	-0.536903
C145	C	0.869486	-0.343432	-1.036867
C146	C	1.369486	0.156568	-0.536867
C147	C	0.869488	-0.343455	-0.971125
C148	C	1.369488	0.156545	-0.471125
C149	C	0.909777	-0.303216	-0.938275
C150	C	1.409777	0.196784	-0.438275
C151	C	0.909673	-0.303338	-0.139723
C152	C	1.409673	0.196662	0.360277
C153	C	0.909773	-0.303166	-0.069755
C154	C	1.409773	0.196834	0.430245
H155	H	0.670002	-0.376290	-0.230099
H156	H	1.170002	0.123710	0.269901
O157	O	0.144757	-0.224174	-0.382745
O158	O	0.644757	0.275826	0.117255
C159	C	0.043511	-0.188586	-0.418540
C160	C	0.543511	0.311414	0.081460
C161	C	0.079663	-0.232800	-0.374188
C162	C	0.579663	0.267200	0.125812
H163	H	-0.009124	-0.195554	-0.411647
H164	H	0.490876	0.304446	0.088353
H165	H	0.056398	-0.137794	-0.407577
H166	H	0.556398	0.362206	0.092423
H167	H	0.056502	-0.199707	-0.469269
H168	H	0.556502	0.300293	0.030731
H169	H	0.066692	-0.221736	-0.323444
H170	H	0.566692	0.278264	0.176556
H171	H	0.066773	-0.283578	-0.385205
H172	H	0.566773	0.216422	0.114795
H173	H	0.550856	-0.230419	-0.376434
H174	H	1.050856	0.269581	0.123566
H175	H	0.269164	-0.376329	-0.230127
H176	H	0.769164	0.123671	0.269873
O177	O	0.989241	-0.223941	-0.667913
O178	O	1.489241	0.276059	-0.167913
C179	C	1.069133	-0.144075	-0.661016
C180	C	1.569133	0.355925	-0.161016
C181	C	1.024788	-0.188362	-0.624865
C182	C	1.524788	0.311638	-0.124865
H183	H	1.097875	-0.115289	-0.626227
H184	H	1.597875	0.384711	-0.126227
H185	H	1.102071	-0.172947	-0.691788
H186	H	1.602071	0.327053	-0.191788
H187	H	1.040246	-0.111172	-0.691803
H188	H	1.540246	0.388828	-0.191803
H189	H	1.053625	-0.221274	-0.594044
H190	H	1.553625	0.278726	-0.094044
H191	H	0.991849	-0.159451	-0.594133
H192	H	1.491849	0.340549	-0.094133
O193	O	0.675198	-0.224039	-0.382787
O194	O	1.175198	0.275961	0.117213
C195	C	0.668326	-0.144309	-0.462809
C196	C	1.168326	0.355691	0.037191
C197	C	0.632162	-0.188567	-0.418448
C198	C	1.132162	0.311433	0.081552
H199	H	0.633547	-0.115628	-0.491662
H200	H	1.133547	0.384372	0.008338
H201	H	0.699085	-0.111311	-0.433992
H202	H	1.199085	0.388689	0.066008
H203	H	0.699127	-0.173261	-0.495647
H204	H	1.199127	0.326739	0.004353
H205	H	0.601326	-0.159666	-0.385601
H206	H	1.101326	0.340334	0.114399
H207	H	0.601442	-0.221567	-0.447304
H208	H	1.101442	0.278433	0.052696
H209	H	0.982829	-1.063003	-0.376445
H210	H	1.482829	-0.563003	0.123555
H211	H	0.149894	-0.376351	-0.230135
H212	H	0.649894	0.123649	0.269865
O213	O	0.830263	-0.382592	-0.667910
O214	O	1.330263	0.117408	-0.167910
C215	C	0.723170	-0.413152	-0.687958
C216	C	1.223170	0.086848	-0.187958
C217	C	0.767512	-0.368909	-0.651820
C218	C	1.267512	0.131091	-0.151820
H219	H	0.672428	-0.402114	-0.674952
H220	H	1.172428	0.097886	-0.174952
H221	H	0.730039	-0.406221	-0.740601
H222	H	1.230039	0.093779	-0.240601
H223	H	0.734226	-0.463913	-0.675040
H224	H	1.234226	0.036087	-0.175040
H225	H	0.756484	-0.318132	-0.664685
H226	H	1.256484	0.181868	-0.164685
H227	H	0.760635	-0.375895	-0.599185
H228	H	1.260635	0.124105	-0.099185
O229	O	0.988983	-0.537821	-0.382740
O230	O	1.488983	-0.037821	0.117260
C231	C	1.068840	-0.544656	-0.462644
C232	C	1.568840	-0.044656	0.037356
C233	C	1.024583	-0.580841	-0.418298
C234	C	1.524583	-0.080841	0.081702
H235	H	1.097643	-0.579423	-0.491395
H236	H	1.597643	-0.079423	0.008605
H237	H	1.039944	-0.513903	-0.495573
H238	H	1.539944	-0.013903	0.004427
H239	H	1.101729	-0.513848	-0.433757
H240	H	1.601729	-0.013848	0.066243
H241	H	0.991685	-0.611683	-0.447135
H242	H	1.491685	-0.111683	0.052865
H243	H	1.053517	-0.611555	-0.385368
H244	H	1.553517	-0.111555	0.114632
O245	O	0.274361	-0.224079	-0.382812
O246	O	0.774361	0.275921	0.117188
C247	C	0.267497	-0.144354	-0.462840
C248	C	0.767497	0.355646	0.037160
C249	C	0.231328	-0.188609	-0.418479
C250	C	0.731328	0.311391	0.081521
H251	H	0.232720	-0.115675	-0.491698
H252	H	0.732720	0.384325	0.008302
H253	H	0.298254	-0.111355	-0.434023
H254	H	0.798254	0.388645	0.065977
H255	H	0.298300	-0.173309	-0.495674
H256	H	0.798300	0.326691	0.004326
H257	H	0.200490	-0.159706	-0.385636
H258	H	0.700490	0.340294	0.114364
H259	H	0.200610	-0.221610	-0.447336
H260	H	0.700610	0.278390	0.052664
H261	H	0.982678	-0.662165	-0.376380
H262	H	1.482678	-0.162165	0.123620
H263	H	0.836673	-0.662366	-0.230169
H264	H	1.336673	-0.162366	0.269831
O265	O	0.830413	-0.382791	-0.538364
O266	O	1.330413	0.117209	-0.038364
C267	C	0.799771	-0.489870	-0.518262
C268	C	1.299771	0.010130	-0.018262
C269	C	0.844055	-0.445545	-0.554440
C270	C	1.344055	0.054455	-0.054440
H271	H	0.810776	-0.540615	-0.531256
H272	H	1.310776	-0.040615	-0.031256
H273	H	0.806695	-0.483030	-0.465625
H274	H	1.306695	0.016970	0.034375
H275	H	0.749022	-0.478773	-0.531156
H276	H	1.249022	0.021227	-0.031156
H277	H	0.894821	-0.456615	-0.541599
H278	H	1.394821	0.043385	-0.041599
H279	H	0.837077	-0.452393	-0.607068
H280	H	1.337077	0.047607	-0.107068
O281	O	0.830279	-0.538031	-0.223756
O282	O	1.330279	-0.038031	0.276244
C283	C	0.750430	-0.545074	-0.143851
C284	C	1.250430	-0.045074	0.356149
C285	C	0.794710	-0.581144	-0.188210
C286	C	1.294710	-0.081144	0.311790
H287	H	0.721652	-0.579915	-0.115109
H288	H	1.221652	-0.079915	0.384891
H289	H	0.779306	-0.514308	-0.110914
H290	H	1.279306	-0.014308	0.389086
H291	H	0.717518	-0.514289	-0.172727
H292	H	1.217518	-0.014289	0.327273
H293	H	0.827631	-0.611963	-0.159384
H294	H	1.327631	-0.111963	0.340616
H295	H	0.765795	-0.611870	-0.221148
H296	H	1.265795	-0.111870	0.278852
O297	O	0.830295	-0.382476	-0.939149
O298	O	1.330295	0.117524	-0.439149
C299	C	0.745327	-0.390958	-0.864859
C300	C	1.245327	0.109042	-0.364859
C301	C	0.789667	-0.346694	-0.901044
C302	C	1.289667	0.153306	-0.401044
H303	H	0.712477	-0.362047	-0.834032
H304	H	1.212477	0.137953	-0.334032
H305	H	0.716491	-0.419706	-0.899603
H306	H	1.216491	0.080294	-0.399603
H307	H	0.774222	-0.423899	-0.834119
H308	H	1.274222	0.076101	-0.334119
H309	H	0.760821	-0.313715	-0.931784
H310	H	1.260821	0.186285	-0.431784
H311	H	0.818505	-0.317991	-0.866265
H312	H	1.318505	0.182009	-0.366265
O313	O	0.989126	-0.938658	-0.382814
O314	O	1.489126	-0.438658	0.117186
C315	C	1.068966	-0.945489	-0.462736
C316	C	1.568966	-0.445489	0.037264
C317	C	1.024719	-0.981676	-0.418381
C318	C	1.524719	-0.481676	0.081619
H319	H	1.097764	-0.980254	-0.491494
H320	H	1.597764	-0.480254	0.008506
H321	H	1.040062	-0.914736	-0.495658
H322	H	1.540062	-0.414736	0.004342
H323	H	1.101860	-0.914681	-0.433856
H324	H	1.601860	-0.414681	0.066144
H325	H	0.991816	-1.012519	-0.447211
H326	H	1.491816	-0.512519	0.052789
H327	H	1.053662	-1.012390	-0.385457
H328	H	1.553662	-0.512390	0.114543
H329	H	0.836820	-1.063204	-0.230235
H330	H	1.336820	-0.563204	0.269765
H331	H	0.550735	-0.376299	-0.230101
H332	H	1.050735	0.123701	0.269899
O333	O	0.830438	-0.938872	-0.223817
O334	O	1.330438	-0.438872	0.276183
C335	C	0.750595	-0.945917	-0.143906
C336	C	1.250595	-0.445917	0.356094
C337	C	0.794874	-0.981986	-0.188268
C338	C	1.294874	-0.481986	0.311732
H339	H	0.721820	-0.980759	-0.115162
H340	H	1.221820	-0.480759	0.384838
H341	H	0.779472	-0.915150	-0.110971
H342	H	1.279472	-0.415150	0.389029
H343	H	0.717680	-0.915133	-0.172780
H344	H	1.217680	-0.415133	0.327220
H345	H	0.827797	-1.012804	-0.159444
H346	H	1.327797	-0.512804	0.340556
H347	H	0.765958	-1.012713	-0.221204
H348	H	1.265958	-0.512713	0.278796
H349	H	0.982853	-0.230328	-0.543574
H350	H	1.482853	0.269672	-0.043574
H351	H	0.982860	-0.230185	-0.944411
H352	H	1.482860	0.269815	-0.444411
O353	O	0.989122	-0.223832	-1.068945
O354	O	1.489122	0.276168	-0.568945
C355	C	1.024847	-0.188135	-1.170238
C356	C	1.524847	0.311865	-0.670238
C357	C	0.980561	-0.232432	-1.134028
C358	C	1.480561	0.267568	-0.634028
H359	H	1.017950	-0.195082	-1.222864
H360	H	1.517950	0.304918	-0.722864
H361	H	1.013821	-0.137367	-1.157350
H362	H	1.513821	0.362633	-0.657350
H363	H	1.075593	-0.199194	-1.157300
H364	H	1.575593	0.300806	-0.657300
H365	H	0.929800	-0.221430	-1.146947
H366	H	1.429800	0.278570	-0.646947
H367	H	0.991641	-0.283188	-1.146919
H368	H	1.491641	0.216812	-0.646919
H369	H	0.836685	-0.376191	-1.063618
H370	H	1.336685	0.123809	-0.563618
