data_functionalizedCrystal
_audit_creation_method	'MofGen! by Chris Wilmer'
_symmetry_space_group_name_H-M	'P1'
_symmetry_Int_Tables_number	1
_symmetry_cell_setting	triclinic
loop_
_symmetry_equiv_pos_as_xyz
  x,y,z
_cell_length_a	23.204082
_cell_length_b	23.204045
_cell_length_c	23.204116
_cell_angle_alpha	89.997053
_cell_angle_beta	59.999609
_cell_angle_gamma	60.000252
loop_
_atom_site_label
_atom_site_type_symbol
_atom_site_fract_x
_atom_site_fract_y
_atom_site_fract_z
O1	O	-0.412478	-0.491203	0.017138
O2	O	-0.294469	-0.407396	-0.017066
O3	O	-0.412476	-0.407396	0.100940
O4	O	-0.294472	-0.491204	-0.100867
O5	O	-0.508321	-0.311549	0.100932
O6	O	-0.390315	-0.311549	-0.017074
O7	O	-0.508324	-0.395356	0.017130
Cu8	Cu	-0.458071	-0.344701	0.000027
Cu9	Cu	-0.344722	-0.458052	0.000037
O10	O	-0.390317	-0.395356	-0.100875
C11	C	-0.285812	-0.206297	-0.024833
C12	C	-0.326272	-0.130277	-0.019933
C13	C	-0.320164	-0.241300	-0.025326
C14	C	-0.181448	-0.310659	-0.024841
C15	C	-0.110322	-0.346223	-0.019949
C16	C	-0.215959	-0.345504	-0.025334
C17	C	-0.285805	-0.310660	-0.024845
C18	C	-0.326258	-0.346225	-0.019957
C19	C	-0.215966	-0.241299	-0.025322
C20	C	-0.590030	-0.554192	0.035854
C21	C	-0.549572	-0.518630	0.030957
C22	C	-0.555678	-0.623548	0.036347
C23	C	-0.694388	-0.554194	0.035854
C24	C	-0.765511	-0.518633	0.030956
C25	C	-0.659878	-0.623549	0.036347
C26	C	-0.590035	-0.658549	0.035863
C27	C	-0.549583	-0.734566	0.030975
C28	C	-0.659873	-0.519351	0.036338
C29	C	-0.516900	-0.795980	0.027025
C30	C	-0.516885	-0.489900	0.026999
C31	C	-0.822970	-0.489904	0.026998
C32	C	-0.475899	-0.873027	0.022070
C33	C	-0.475879	-0.453857	0.022035
C34	C	-0.895055	-0.453862	0.022034
C35	C	-0.212778	-0.554188	-0.445760
C36	C	-0.253233	-0.518627	-0.481325
C37	C	-0.142936	-0.623544	-0.480599
C38	C	-0.212777	-0.554189	-0.341402
C39	C	-0.253231	-0.518628	-0.265386
C40	C	-0.142935	-0.623545	-0.376399
C41	C	-0.108423	-0.658545	-0.445754
C42	C	-0.037302	-0.734562	-0.481312
C43	C	-0.247131	-0.519347	-0.376406
C44	C	0.020156	-0.795976	-0.510038
C45	C	-0.285918	-0.489897	-0.510057
C46	C	-0.285915	-0.489899	-0.203972
C47	C	0.092240	-0.873023	-0.546077
C48	C	-0.326922	-0.453853	-0.546102
C49	C	-0.326918	-0.453857	-0.126925
O50	O	0.083788	-0.395359	0.017138
O51	O	-0.083831	-0.311543	-0.017055
O52	O	-0.083824	-0.311563	0.100946
O53	O	0.083780	-0.395339	-0.100863
O54	O	-0.083818	-0.407417	0.100936
O55	O	-0.083826	-0.407397	-0.017065
O56	O	0.083794	-0.491213	0.017128
Cu57	Cu	-0.000015	-0.458057	0.000030
Cu58	Cu	-0.000022	-0.344699	0.000043
O59	O	0.083786	-0.491193	-0.100873
O60	O	-0.508347	0.100918	0.017171
O61	O	-0.390333	-0.100895	-0.017043
O62	O	-0.508336	0.017094	0.100966
O63	O	-0.390345	-0.017071	-0.100839
O64	O	-0.412487	0.017096	0.100970
O65	O	-0.294485	-0.100893	-0.017040
O66	O	-0.412499	0.100920	0.017174
Cu67	Cu	-0.344740	0.000013	0.000068
Cu68	Cu	-0.458092	0.000012	0.000063
O69	O	-0.294496	-0.017069	-0.100835
O70	O	0.281001	-1.100886	-0.592525
O71	O	0.113395	-0.899078	-0.508728
O72	O	0.113389	-1.017081	-0.508721
O73	O	0.281007	-0.982883	-0.592532
O74	O	0.113387	-1.017078	-0.604570
O75	O	0.113393	-0.899076	-0.604578
O76	O	0.280999	-1.100883	-0.688375
Cu77	Cu	0.197196	-0.999979	-0.655228
Cu78	Cu	0.197198	-0.999982	-0.541875
O79	O	0.281004	-0.982881	-0.688382
O80	O	-0.412475	-0.407396	-0.688417
O81	O	-0.294475	-0.491200	-0.604602
O82	O	-0.412480	-0.491202	-0.604602
O83	O	-0.294471	-0.407395	-0.688417
O84	O	-0.508327	-0.395353	-0.508758
O85	O	-0.390322	-0.395352	-0.508758
O86	O	-0.508322	-0.311548	-0.592573
Cu87	Cu	-0.458074	-0.344698	-0.541914
Cu88	Cu	-0.344724	-0.458050	-0.655261
O89	O	-0.390318	-0.311546	-0.592573
C90	C	-0.621343	-0.206308	0.310685
C91	C	-0.692464	-0.130291	0.346242
C92	C	-0.586830	-0.241309	0.345531
C93	C	-0.516988	-0.310664	0.206334
C94	C	-0.476533	-0.346226	0.130317
C95	C	-0.482634	-0.345507	0.241338
C96	C	-0.516988	-0.310664	0.310693
C97	C	-0.476534	-0.346226	0.346258
C98	C	-0.586830	-0.241309	0.241330
C99	C	-0.285799	-0.310706	0.310685
C100	C	-0.326253	-0.346275	0.346239
C101	C	-0.320159	-0.241351	0.345532
C102	C	-0.181442	-0.310692	0.206337
C103	C	-0.110315	-0.346246	0.130322
C104	C	-0.215960	-0.241337	0.241343
C105	C	-0.285806	-0.206343	0.310696
C106	C	-0.326266	-0.130327	0.346262
C107	C	-0.215953	-0.345541	0.241331
C108	C	-0.516986	0.024844	0.310719
C109	C	-0.476527	0.019944	0.346281
C110	C	-0.586827	0.025325	0.345560
C111	C	-0.516995	0.024860	0.206365
C112	C	-0.476545	0.019979	0.130349
C113	C	-0.586836	0.025341	0.241364
C114	C	-0.621344	0.024842	0.310717
C115	C	-0.692464	0.019941	0.346276
C116	C	-0.482637	0.025343	0.241366
C117	C	0.409981	-0.658502	-0.445755
C118	C	0.450441	-0.734518	-0.481321
C119	C	0.444335	-0.623494	-0.480590
C120	C	0.305617	-0.554153	-0.341395
C121	C	0.234490	-0.518599	-0.265380
C122	C	0.340129	-0.519304	-0.376390
C123	C	0.409975	-0.554139	-0.445743
C124	C	0.450429	-0.518571	-0.481297
C125	C	0.340135	-0.623508	-0.376401
C126	C	0.483112	-0.489836	-0.510020
C127	C	0.483130	-0.795932	-0.510054
C128	C	0.177028	-0.489876	-0.203967
C129	C	0.524114	-0.453786	-0.546055
C130	C	0.524139	-0.872978	-0.546102
C131	C	0.104939	-0.453841	-0.126922
O132	O	-0.412518	0.100876	0.395394
O133	O	-0.294488	-0.100935	0.311584
O134	O	-0.412513	0.017059	0.311594
O135	O	-0.294493	-0.017119	0.395384
O136	O	-0.508344	0.017039	0.407447
O137	O	-0.390319	-0.100956	0.407437
O138	O	-0.508348	0.100855	0.491247
Cu139	Cu	-0.458083	-0.000052	0.458094
Cu140	Cu	-0.344753	-0.000028	0.344737
O141	O	-0.390323	-0.017139	0.491237
C142	C	-0.108470	-0.035723	-0.445718
C143	C	-0.037350	-0.030822	-0.481277
C144	C	-0.142987	-0.036205	-0.480560
C145	C	-0.212818	-0.035741	-0.341365
C146	C	-0.253268	-0.030860	-0.265349
C147	C	-0.247177	-0.036223	-0.376365
C148	C	-0.212828	-0.035724	-0.445719
C149	C	-0.253287	-0.030825	-0.481280
C150	C	-0.142977	-0.036222	-0.376364
C151	C	-0.285976	-0.026865	-0.510008
C152	C	0.020107	-0.026861	-0.510005
C153	C	-0.285948	-0.026914	-0.203936
C154	C	-0.326984	-0.021899	-0.546051
C155	C	0.092191	-0.021893	-0.546046
C156	C	-0.326945	-0.021966	-0.126891
H157	H	-0.376361	-0.213199	-0.026120
O158	O	-0.181377	-0.207887	-0.026310
C159	C	-0.100711	-0.245623	-0.087418
H160	H	-0.077252	-0.302892	-0.107176
H161	H	-0.060338	-0.243607	-0.074351
H162	H	-0.099314	-0.220883	-0.130139
H163	H	-0.187077	-0.213232	0.213243
H164	H	-0.615703	-0.213198	0.213223
O165	O	-0.108546	-0.657141	-0.342849
C166	C	-0.108181	-0.717974	-0.339364
H167	H	-0.157599	-0.711588	-0.343928
H168	H	-0.120465	-0.725475	-0.286831
H169	H	-0.046187	-0.766051	-0.384514
H170	H	-0.114103	-0.036982	-0.537544
H171	H	-0.187069	-0.402525	0.213229
O172	O	-0.387142	-0.207936	0.413544
C173	C	-0.368922	-0.245701	0.456445
H174	H	-0.315394	-0.302977	0.422625
H175	H	-0.424383	-0.243655	0.498875
H176	H	-0.352257	-0.221009	0.482527
O177	O	-0.694475	-0.451337	0.037366
C178	C	-0.775131	-0.408447	0.098493
H179	H	-0.798574	-0.442277	0.118212
H180	H	-0.815528	-0.366022	0.085469
H181	H	-0.776510	-0.382359	0.141228
H182	H	-0.688764	-0.651649	0.037128
O183	O	-0.314302	-0.037046	-0.342828
C184	C	-0.378640	0.023409	-0.339334
H185	H	-0.367727	0.066464	-0.343875
H186	H	-0.438663	0.043161	-0.286806
H187	H	-0.381555	0.009491	-0.384493
O188	O	0.305761	-0.657129	-0.342993
C189	C	0.351251	-0.725988	-0.388773
H190	H	0.386606	-0.728146	-0.445792
H191	H	0.308191	-0.740689	-0.380432
H192	H	0.395740	-0.764810	-0.377113
O193	O	-0.488610	-0.656981	0.037254
C194	C	-0.465551	-0.611191	0.037582
H195	H	-0.490230	-0.569262	0.014798
H196	H	-0.396238	-0.642678	0.004148
H197	H	-0.491535	-0.584606	0.094064
H198	H	-0.114046	-0.651637	-0.537589
H199	H	-0.114123	-0.036955	-0.348248
O200	O	-0.314155	-0.451354	-0.342997
C201	C	-0.337237	-0.427976	-0.388776
H202	H	-0.282382	-0.461169	-0.445796
H203	H	-0.360270	-0.370218	-0.380437
H204	H	-0.387722	-0.433637	-0.377115
H205	H	-0.426427	-0.402489	0.213234
O206	O	-0.621229	-0.207727	0.413475
C207	C	-0.621599	-0.146892	0.417355
H208	H	-0.572176	-0.153263	0.363388
H209	H	-0.609329	-0.139410	0.457620
H210	H	-0.683592	-0.098812	0.434196
H211	H	-0.187066	-0.402493	-0.026127
O212	O	-0.621357	0.026405	0.207860
C213	C	-0.644689	0.087511	0.188289
H214	H	-0.653225	0.129445	0.223513
H215	H	-0.704416	0.108561	0.194652
H216	H	-0.595294	0.073938	0.130879
H217	H	-0.615699	0.026090	0.402541
H218	H	-0.426436	0.026131	0.213269
H219	H	0.500535	-0.651590	-0.537576
H220	H	0.311239	-0.462320	-0.348282
