data_functionalizedCrystal
_audit_creation_method	'MofGen! by Chris Wilmer'
_symmetry_space_group_name_H-M	'P1'
_symmetry_Int_Tables_number	1
_symmetry_cell_setting	triclinic
loop_
_symmetry_equiv_pos_as_xyz
  x,y,z
_cell_length_a	13.897449
_cell_length_b	16.625546
_cell_length_c	13.897441
_cell_angle_alpha	90.033447
_cell_angle_beta	90.020733
_cell_angle_gamma	90.023748
loop_
_atom_site_label
_atom_site_type_symbol
_atom_site_fract_x
_atom_site_fract_y
_atom_site_fract_z
Zn1	Zn	1.474671	-0.320948	0.545362
Zn2	Zn	1.724671	-0.070948	0.795362
Zn3	Zn	1.974671	0.179052	1.045362
Zn4	Zn	2.224671	0.429052	1.295362
Zn5	Zn	1.474551	-0.455799	0.384055
Zn6	Zn	1.724551	-0.205799	0.634055
Zn7	Zn	1.974551	0.044201	0.884055
Zn8	Zn	2.224551	0.294201	1.134055
Zn9	Zn	1.313360	-0.320987	0.384080
Zn10	Zn	1.563360	-0.070987	0.634080
Zn11	Zn	1.813360	0.179013	0.884080
Zn12	Zn	2.063360	0.429013	1.134080
Zn13	Zn	1.313328	-0.455746	0.545308
Zn14	Zn	1.563328	-0.205746	0.795308
Zn15	Zn	1.813328	0.044254	1.045308
Zn16	Zn	2.063328	0.294254	1.295308
O17	O	1.393977	-0.388370	0.464702
O18	O	1.643977	-0.138370	0.714702
O19	O	1.893977	0.111630	0.964702
O20	O	2.143977	0.361630	1.214702
O21	O	1.609636	-0.338843	0.523977
O22	O	1.859636	-0.088843	0.773977
O23	O	2.109636	0.161157	1.023977
O24	O	2.359636	0.411157	1.273977
O25	O	1.453132	-0.437954	0.249077
O26	O	1.703132	-0.187954	0.499077
O27	O	1.953132	0.062046	0.749077
O28	O	2.203132	0.312046	0.999077
O29	O	1.334821	-0.208149	0.405508
O30	O	1.584821	0.041851	0.655508
O31	O	1.834821	0.291851	0.905508
O32	O	2.084821	0.541851	1.155508
O33	O	1.609549	-0.437917	0.405465
O34	O	1.859549	-0.187917	0.655465
O35	O	2.109549	0.062083	0.905465
O36	O	2.359549	0.312083	1.155465
O37	O	1.453336	-0.208121	0.524001
O38	O	1.703336	0.041879	0.774001
O39	O	1.953336	0.291879	1.024001
O40	O	2.203336	0.541879	1.274001
O41	O	1.334705	-0.338908	0.249095
O42	O	1.584705	-0.088908	0.499095
O43	O	1.834705	0.161092	0.749095
O44	O	2.084705	0.411092	0.999095
O45	O	1.178374	-0.338857	0.405455
O46	O	1.428374	-0.088857	0.655455
O47	O	1.678374	0.161143	0.905455
O48	O	1.928374	0.411143	1.155455
O49	O	1.334767	-0.437826	0.680297
O50	O	1.584767	-0.187826	0.930297
O51	O	1.834767	0.062174	1.180297
O52	O	2.084767	0.312174	1.430297
O53	O	1.178351	-0.437864	0.523909
O54	O	1.428351	-0.187864	0.773909
O55	O	1.678351	0.062136	1.023909
O56	O	1.928351	0.312136	1.273909
O57	O	1.453305	-0.338791	0.680337
O58	O	1.703305	-0.088791	0.930337
O59	O	1.953305	0.161209	1.180337
O60	O	2.203305	0.411209	1.430337
O61	O	1.453101	-0.568624	0.405413
O62	O	1.703101	-0.318624	0.655413
O63	O	1.953101	-0.068624	0.905413
O64	O	2.203101	0.181376	1.155413
O65	O	1.334651	-0.568585	0.523884
O66	O	1.584651	-0.318585	0.773884
O67	O	1.834651	-0.068585	1.023884
O68	O	2.084651	0.181415	1.273884
C69	C	1.143363	-0.388359	0.464680
C70	C	1.393363	-0.138359	0.714680
C71	C	1.643363	0.111641	0.964680
C72	C	1.893363	0.361641	1.214680
C73	C	1.036149	-0.388374	0.464693
C74	C	1.286149	-0.138374	0.714693
C75	C	1.536149	0.111626	0.964693
C76	C	1.786149	0.361626	1.214693
C77	C	0.839854	-0.388377	0.464718
C78	C	1.089854	-0.138377	0.714718
C79	C	1.339854	0.111623	0.964718
C80	C	1.589854	0.361623	1.214718
C81	C	0.949086	-0.388373	0.464702
C82	C	1.199086	-0.138373	0.714702
C83	C	1.449086	0.111627	0.964702
C84	C	1.699086	0.361627	1.214702
C85	C	1.393886	-0.597861	0.464661
C86	C	1.643886	-0.347861	0.714661
C87	C	1.893886	-0.097861	0.964661
C88	C	2.143886	0.152139	1.214661
C89	C	1.393935	-0.687482	0.464676
C90	C	1.643935	-0.437482	0.714676
C91	C	1.893935	-0.187482	0.964676
C92	C	2.143935	0.062518	1.214676
C93	C	1.394104	-1.015657	0.464777
C94	C	1.644104	-0.765657	0.714777
C95	C	1.894104	-0.515657	0.964777
C96	C	2.144104	-0.265657	1.214777
C97	C	1.394054	-0.924349	0.464751
C98	C	1.644054	-0.674349	0.714751
C99	C	1.894054	-0.424349	0.964751
C100	C	2.144054	-0.174349	1.214751
C101	C	1.394019	-0.851573	0.464726
C102	C	1.644019	-0.601573	0.714726
C103	C	1.894019	-0.351573	0.964726
C104	C	2.144019	-0.101573	1.214726
C105	C	1.393970	-0.760258	0.464702
C106	C	1.643970	-0.510258	0.714702
C107	C	1.893970	-0.260258	0.964702
C108	C	2.143970	-0.010258	1.214702
C109	C	1.645570	-0.388381	0.464724
C110	C	1.895570	-0.138381	0.714724
C111	C	2.145570	0.111619	0.964724
C112	C	2.395570	0.361619	1.214724
C113	C	1.752784	-0.388386	0.464734
C114	C	2.002784	-0.138386	0.714734
C115	C	2.252784	0.111614	0.964734
C116	C	2.502784	0.361614	1.214734
C117	C	1.394046	-0.388299	0.716295
C118	C	1.644046	-0.138299	0.966295
C119	C	1.894046	0.111701	1.216295
C120	C	2.144046	0.361701	1.466295
C121	C	1.394075	-0.388268	0.823509
C122	C	1.644075	-0.138268	1.073509
C123	C	1.894075	0.111732	1.323509
C124	C	2.144075	0.361732	1.573509
C125	C	1.394095	-0.178061	0.464763
C126	C	1.644095	0.071939	0.714763
C127	C	1.894095	0.321939	0.964763
C128	C	2.144095	0.571939	1.214763
C129	C	1.394146	-0.088440	0.464789
C130	C	1.644146	0.161560	0.714789
C131	C	1.894146	0.411560	0.964789
C132	C	2.144146	0.661560	1.214789
C133	C	1.393965	-0.388383	0.214087
C134	C	1.643965	-0.138383	0.464087
C135	C	1.893965	0.111617	0.714087
C136	C	2.143965	0.361617	0.964087
C137	C	1.394122	-0.388186	0.106874
C138	C	1.644122	-0.138186	0.356874
C139	C	1.894122	0.111814	0.606874
C140	C	2.144122	0.361814	0.856874
C141	C	1.394101	-0.388214	1.019804
C142	C	1.644101	-0.138214	1.269804
C143	C	1.894101	0.111786	1.519804
C144	C	2.144101	0.361786	1.769804
C145	C	1.394084	-0.388246	0.910571
C146	C	1.644084	-0.138246	1.160571
C147	C	1.894084	0.111754	1.410571
C148	C	2.144084	0.361754	1.660571
