data_functionalizedCrystal
_audit_creation_method	'MofGen! by Chris Wilmer'
_symmetry_space_group_name_H-M	'P1'
_symmetry_Int_Tables_number	1
_symmetry_cell_setting	triclinic
loop_
_symmetry_equiv_pos_as_xyz
  x,y,z
_cell_length_a	18.050589
_cell_length_b	18.050591
_cell_length_c	18.050582
_cell_angle_alpha	89.977259
_cell_angle_beta	90.018205
_cell_angle_gamma	89.978346
loop_
_atom_site_label
_atom_site_type_symbol
_atom_site_fract_x
_atom_site_fract_y
_atom_site_fract_z
Zn1	Zn	-0.295837	-1.135293	0.420090
Zn2	Zn	0.204163	-0.635293	0.920090
Zn3	Zn	-0.420020	-1.135203	0.295909
Zn4	Zn	0.079980	-0.635203	0.795909
Zn5	Zn	-0.295834	-1.011112	0.295897
Zn6	Zn	0.204166	-0.511112	0.795897
Zn7	Zn	-0.419975	-1.011060	0.420041
Zn8	Zn	0.080025	-0.511060	0.920041
O9	O	-0.357916	-1.073167	0.357984
O10	O	0.142084	-0.573167	0.857984
O11	O	-0.312330	-1.239205	0.403643
O12	O	0.187670	-0.739205	0.903643
O13	O	-0.403564	-1.118727	0.191983
O14	O	0.096436	-0.618727	0.691983
O15	O	-0.191910	-1.027644	0.312387
O16	O	0.308090	-0.527644	0.812387
O17	O	-0.403567	-1.239140	0.312408
O18	O	0.096433	-0.739140	0.812408
O19	O	-0.191912	-1.118879	0.403631
O20	O	0.308088	-0.618879	0.903631
O21	O	-0.312325	-1.027557	0.191974
O22	O	0.187675	-0.527557	0.691974
O23	O	-0.312282	-0.907180	0.312339
O24	O	0.187718	-0.407180	0.812339
O25	O	-0.403490	-1.027555	0.523972
O26	O	0.096510	-0.527555	1.023972
O27	O	-0.403488	-0.907142	0.403547
O28	O	0.096512	-0.407142	0.903547
O29	O	-0.312286	-1.118828	0.524008
O30	O	0.187714	-0.618828	1.024008
O31	O	-0.523939	-1.118676	0.312360
O32	O	-0.023939	-0.618676	0.812360
O33	O	-0.523906	-1.027468	0.403559
O34	O	-0.023906	-0.527468	0.903559
C35	C	-0.357880	-0.880215	0.357937
C36	C	0.142120	-0.380215	0.857937
C37	C	-0.357883	-0.797669	0.357935
C38	C	0.142117	-0.297669	0.857935
C39	C	-0.308220	-0.548843	0.308440
C40	C	0.191780	-0.048843	0.808440
C41	C	-0.290142	-0.598275	0.376217
C42	C	0.209858	-0.098275	0.876217
C43	C	-0.357905	-0.500548	0.357980
C44	C	0.142095	-0.000548	0.857980
C45	C	-0.375937	-0.598198	0.290184
C46	C	0.124063	-0.098198	0.790184
C47	C	-0.357892	-0.646534	0.357954
C48	C	0.142108	-0.146534	0.857954
C49	C	-0.339791	-0.548893	0.425793
C50	C	0.160209	-0.048893	0.925793
C51	C	-0.425618	-0.548813	0.339714
C52	C	0.074382	-0.048813	0.839714
C53	C	-0.407566	-0.598222	0.407538
C54	C	0.092434	-0.098222	0.907538
C55	C	-0.357910	-0.416450	0.357994
C56	C	0.142090	0.083550	0.857994
C57	C	-0.357887	-0.730630	0.357948
C58	C	0.142113	-0.230630	0.857948
C59	C	-0.550869	-1.073077	0.357972
C60	C	-0.050869	-0.573077	0.857972
C61	C	-0.633414	-1.073107	0.357992
C62	C	-0.133414	-0.573107	0.857992
C63	C	-0.832874	-1.023557	0.407568
C64	C	-0.332874	-0.523557	0.907568
C65	C	-0.882306	-1.005459	0.339798
C66	C	-0.382306	-0.505459	0.839798
C67	C	-0.784545	-1.073180	0.358001
C68	C	-0.284545	-0.573180	0.858001
C69	C	-0.882195	-1.091314	0.425779
C70	C	-0.382195	-0.591314	0.925779
C71	C	-0.930530	-1.073249	0.358017
C72	C	-0.430530	-0.573249	0.858017
C73	C	-0.832889	-1.055046	0.290196
C74	C	-0.332889	-0.555046	0.790196
C75	C	-0.832774	-1.140933	0.376222
C76	C	-0.332774	-0.640933	0.876222
C77	C	-0.882183	-1.122861	0.308405
C78	C	-0.382183	-0.622861	0.808405
C79	C	-0.700446	-1.073138	0.357993
C80	C	-0.200446	-0.573138	0.857993
C81	C	-1.014626	-1.073291	0.358017
C82	C	-0.514626	-0.573291	0.858017
C83	C	-0.164211	-1.073277	0.358013
C84	C	0.335789	-0.573277	0.858013
C85	C	-0.081665	-1.073324	0.358025
C86	C	0.418335	-0.573324	0.858025
C87	C	-0.357884	-1.073196	0.551690
C88	C	0.142116	-0.573196	1.051690
C89	C	-0.357870	-1.073208	0.634236
C90	C	0.142130	-0.573208	1.134236
C91	C	-0.357940	-0.266872	0.358019
C92	C	0.142060	0.233128	0.858019
C93	C	-0.357917	-0.349418	0.358001
C94	C	0.142083	0.150582	0.858001
C95	C	-0.357896	-1.073181	0.165032
C96	C	0.142104	-0.573181	0.665032
C97	C	-0.357701	-1.073312	0.082487
C98	C	0.142299	-0.573312	0.582487
C99	C	-0.407399	-1.023612	0.833667
C100	C	0.092601	-0.523612	1.333667
C101	C	-0.425560	-1.091367	0.883069
C102	C	0.074440	-0.591367	1.383069
C103	C	-0.357813	-1.073245	0.785366
C104	C	0.142187	-0.573245	1.285366
C105	C	-0.339631	-1.005527	0.883046
C106	C	0.160369	-0.505527	1.383046
C107	C	-0.357760	-1.073274	0.931352
C108	C	0.142240	-0.573274	1.431352
C109	C	-0.376010	-1.141036	0.833681
C110	C	0.123990	-0.641036	1.333681
C111	C	-0.290049	-1.055150	0.833654
C112	C	0.209951	-0.555150	1.333654
C113	C	-0.308185	-1.122952	0.883034
C114	C	0.191815	-0.622952	1.383034
C115	C	-0.357845	-1.073227	0.701268
C116	C	0.142155	-0.573227	1.201268
C117	C	-0.357727	-1.073300	1.015448
C118	C	0.142273	-0.573300	1.515448
H119	H	-0.266178	-0.527163	0.266609
H120	H	0.233822	-0.027163	0.766609
Cl121	Cl	-0.472221	-0.958870	0.800198
Cl122	Cl	0.027779	-0.458870	1.300198
Cl123	Cl	-0.799595	-1.031307	0.201684
Cl124	Cl	-0.299595	-0.531307	0.701684
Cl125	Cl	-0.201722	-0.631811	0.400067
Cl126	Cl	0.298278	-0.131811	0.900067
Cl127	Cl	-0.399495	-0.631640	0.201683
Cl128	Cl	0.100505	-0.131640	0.701683
Cl129	Cl	-0.399828	-1.229497	0.800347
Cl130	Cl	0.100172	-0.729497	1.300347
Cl131	Cl	-0.915402	-1.187699	0.243627
Cl132	Cl	-0.415402	-0.687699	0.743627
H133	H	-0.449577	-0.619766	0.449470
H134	H	0.050423	-0.119766	0.949470
H135	H	-0.811222	-0.981531	0.449426
H136	H	-0.311222	-0.481531	0.949426
Cl137	Cl	-0.316130	-0.515599	0.514322
Cl138	Cl	0.183870	-0.015599	1.014322
H139	H	-0.482871	-0.527071	0.324251
H140	H	0.017129	-0.027071	0.824251
Cl141	Cl	-0.799156	-1.229325	0.400044
Cl142	Cl	-0.299156	-0.729325	0.900044
H143	H	-0.903852	-1.106625	0.483091
H144	H	-0.403852	-0.606625	0.983091
Cl145	Cl	-0.513999	-1.115025	0.916583
Cl146	Cl	-0.013999	-0.615025	1.416583
H147	H	-0.904080	-0.948195	0.324401
H148	H	-0.404080	-0.448195	0.824401
H149	H	-0.266229	-1.164986	0.904572
H150	H	0.233771	-0.664986	1.404572
H151	H	-0.232782	-1.039807	0.811932
H152	H	0.267218	-0.539807	1.311932
Cl153	Cl	-0.315921	-0.917092	0.916526
Cl154	Cl	0.184079	-0.417092	1.416526
