data_functionalizedCrystal
_audit_creation_method	'MofGen! by Chris Wilmer'
_symmetry_space_group_name_H-M	'P1'
_symmetry_Int_Tables_number	1
_symmetry_cell_setting	triclinic
loop_
_symmetry_equiv_pos_as_xyz
  x,y,z
_cell_length_a	11.792241
_cell_length_b	10.540539
_cell_length_c	10.868271
_cell_angle_alpha	90.002250
_cell_angle_beta	90.005281
_cell_angle_gamma	84.359454
loop_
_atom_site_label
_atom_site_type_symbol
_atom_site_fract_x
_atom_site_fract_y
_atom_site_fract_z
O1	O	-0.159957	-1.685366	-0.102265
O2	O	-0.175028	-1.315904	-0.102280
O3	O	-0.002345	-1.509601	-0.102263
O4	O	-0.332639	-1.491669	-0.102281
O5	O	-0.002338	-1.509585	0.102381
O6	O	-0.175021	-1.315888	0.102365
O7	O	-0.159950	-1.685350	0.102380
Zn8	Zn	-0.167484	-1.500616	0.134864
Zn9	Zn	-0.167493	-1.500637	-0.134764
O10	O	-0.332632	-1.491653	0.102363
C11	C	-0.173894	-1.268596	0.000040
C12	C	-0.170513	-1.127659	0.000035
C13	C	0.039952	-1.508466	0.000058
C14	C	0.165975	-1.505095	0.000057
C15	C	-0.161083	-1.732657	0.000057
C16	C	-0.164465	-1.873594	0.000054
C17	C	-0.374930	-1.492787	0.000039
C18	C	-0.500952	-1.496159	0.000032
C19	C	0.396703	-1.498896	0.000036
C20	C	0.268309	-1.502340	0.000048
N21	N	-0.167477	-1.500611	0.318878
C22	C	-0.040941	-0.944655	0.000520
C23	C	-0.044369	-1.091262	0.000045
C24	C	-0.231222	-1.065798	-0.116826
C25	C	-0.226917	-0.919268	-0.116911
C26	C	-0.229475	-0.918753	0.115808
C27	C	-0.230637	-1.065731	0.117340
N28	N	-0.167491	-1.500653	-0.318778
C29	C	-0.167491	-1.500631	0.569884
C30	C	-0.167487	-1.500616	0.430207
H31	H	0.008895	-0.916225	0.084328
H32	H	-0.322604	-1.089657	0.124391
C33	C	0.026104	-0.904081	-0.112050
H34	H	0.100635	-0.947451	-0.111060
H35	H	-0.011959	-0.925051	-0.185234
H36	H	0.031011	-0.814703	-0.109291
H37	H	-0.317637	-0.871004	-0.122220
H38	H	0.003730	-1.133170	-0.083865
H39	H	-0.320588	-0.871229	0.116593
C40	C	-0.166307	-0.881351	-0.234904
H41	H	-0.163152	-0.791642	-0.236000
H42	H	-0.091129	-0.922978	-0.236722
H43	H	-0.207267	-0.906030	-0.304793
C44	C	-0.356362	-1.095593	-0.122721
H45	H	-0.372733	-1.146150	-0.053804
H46	H	-0.404947	-1.018176	-0.121636
H47	H	-0.368601	-1.140862	-0.196360
H48	H	-0.189055	-1.108531	-0.203792
H49	H	-0.188649	-0.887333	0.204388
H50	H	-0.186287	-1.106831	0.203793
H51	H	0.003399	-1.134024	0.083817
