data_functionalizedCrystal
_audit_creation_method	'MofGen! by Chris Wilmer'
_symmetry_space_group_name_H-M	'P1'
_symmetry_Int_Tables_number	1
_symmetry_cell_setting	triclinic
loop_
_symmetry_equiv_pos_as_xyz
  x,y,z
_cell_length_a	13.897448
_cell_length_b	16.959455
_cell_length_c	16.959447
_cell_angle_alpha	89.975979
_cell_angle_beta	89.971905
_cell_angle_gamma	90.014712
loop_
_atom_site_label
_atom_site_type_symbol
_atom_site_fract_x
_atom_site_fract_y
_atom_site_fract_z
Zn1	Zn	-0.384085	1.208425	-0.447042
Zn2	Zn	-0.545399	1.208345	-0.314865
Zn3	Zn	-0.384111	1.076245	-0.314865
Zn4	Zn	-0.545331	1.076224	-0.446990
O5	O	-0.464732	1.142310	-0.380940
O6	O	-0.405501	1.319026	-0.429530
O7	O	-0.524044	1.190797	-0.204254
O8	O	-0.249126	1.093822	-0.332420
O9	O	-0.524018	1.318966	-0.332420
O10	O	-0.249107	1.190934	-0.429530
O11	O	-0.405546	1.093744	-0.204254
O12	O	-0.405480	0.965632	-0.332370
O13	O	-0.523901	1.093785	-0.557608
O14	O	-0.523927	0.965616	-0.429442
O15	O	-0.405434	1.190913	-0.557646
O16	O	-0.680372	1.190776	-0.332370
O17	O	-0.680322	1.093707	-0.429442
C18	C	-0.464700	0.936944	-0.380901
C19	C	-0.464710	0.849087	-0.380902
C20	C	-0.526382	0.477570	-0.330350
C21	C	-0.403161	0.477653	-0.431627
C22	C	-0.403145	0.560199	-0.431608
C23	C	-0.464750	0.601434	-0.380960
C24	C	-0.526370	0.560124	-0.330331
C25	C	-0.341532	0.601516	-0.482242
C26	C	-0.341515	0.684066	-0.482225
C27	C	-0.403115	0.725303	-0.431572
C28	C	-0.464738	0.683988	-0.380941
C29	C	-0.526342	0.725223	-0.330292
C30	C	-0.587961	0.683909	-0.279656
C31	C	-0.587971	0.601360	-0.279678
C32	C	-0.403105	0.807852	-0.431551
C33	C	-0.526331	0.807777	-0.330273
C34	C	-0.715346	1.142252	-0.380918
C35	C	-0.822560	1.142300	-0.380934
C36	C	-1.018855	1.142383	-0.380984
C37	C	-0.909622	1.142334	-0.380959
C38	C	-0.213139	1.142389	-0.380981
C39	C	-0.105925	1.142423	-0.380998
C40	C	-0.464657	1.142356	-0.587109
C41	C	-0.464626	1.142376	-0.674965
C42	C	-0.464764	1.348478	-0.380981
C43	C	-0.464778	1.436335	-0.380998
C44	C	-0.526306	1.192917	-0.716241
C45	C	-0.402921	1.091848	-0.716243
C46	C	-0.402893	1.091862	-0.798789
C47	C	-0.464573	1.142403	-0.840065
C48	C	-0.526281	1.192930	-0.798795
C49	C	-0.341193	1.041329	-0.840066
C50	C	-0.341163	1.041340	-0.922617
C51	C	-0.402839	1.091886	-0.963894
C52	C	-0.464549	1.142416	-0.922619
C53	C	-0.526229	1.192957	-0.963894
C54	C	-0.587934	1.243492	-0.922620
C55	C	-0.587957	1.243476	-0.840072
C56	C	-0.402816	1.091902	-1.046442
C57	C	-0.526204	1.192971	-1.046448
C58	C	-0.464736	1.142310	-0.175574
C59	C	-0.464496	1.142443	-0.087718
H60	H	-0.576548	0.443928	-0.289121
H61	H	-0.352710	1.050695	-0.682632
H62	H	-0.353011	0.444074	-0.472867
N63	N	-0.650899	0.559158	-0.227953
N64	N	-0.616891	0.513063	-0.177646
H65	H	-0.661335	0.483255	-0.141116
H66	H	-0.576494	0.841345	-0.289026
H67	H	-0.290918	1.000192	-0.956215
N68	N	-0.650871	0.726035	-0.227910
N69	N	-0.644355	0.716780	-0.154983
H70	H	-0.688783	0.746535	-0.118437
N71	N	-0.278624	0.559384	-0.533976
N72	N	-0.278645	0.485680	-0.533982
H73	H	-0.234213	0.455920	-0.570521
H74	H	-0.291341	0.717697	-0.523456
N75	N	-0.340170	0.850040	-0.483276
N76	N	-0.285176	0.813214	-0.528497
H77	H	-0.240723	0.843008	-0.565031
N78	N	-0.589205	1.244613	-1.088595
N79	N	-0.644283	1.289730	-1.051732
H80	H	-0.688776	1.326205	-1.081497
H81	H	-0.290983	1.000176	-0.806453
H82	H	-0.638157	1.284640	-0.956238
H83	H	-0.638196	1.284617	-0.806459
H84	H	-0.352577	1.050756	-1.080044
N85	N	-0.589322	1.244534	-0.674074
N86	N	-0.589335	1.244523	-0.600371
H87	H	-0.633841	1.280978	-0.570588
