data_functionalizedCrystal
_audit_creation_method	'MofGen! by Chris Wilmer'
_symmetry_space_group_name_H-M	'P1'
_symmetry_Int_Tables_number	1
_symmetry_cell_setting	triclinic
loop_
_symmetry_equiv_pos_as_xyz
  x,y,z
_cell_length_a	17.077404
_cell_length_b	16.625545
_cell_length_c	17.077396
_cell_angle_alpha	89.971239
_cell_angle_beta	89.982756
_cell_angle_gamma	90.025783
loop_
_atom_site_label
_atom_site_type_symbol
_atom_site_fract_x
_atom_site_fract_y
_atom_site_fract_z
Zn1	Zn	1.200023	-0.320990	-0.443846
Zn2	Zn	1.199929	-0.455835	-0.312581
Zn3	Zn	1.068760	-0.321020	-0.312594
Zn4	Zn	1.068716	-0.455785	-0.443805
O5	O	1.134357	-0.388408	-0.378206
O6	O	1.309857	-0.338886	-0.426445
O7	O	1.182508	-0.437985	-0.202736
O8	O	1.086229	-0.208184	-0.330027
O9	O	1.309788	-0.437956	-0.330005
O10	O	1.182668	-0.208162	-0.426457
O11	O	1.086138	-0.338937	-0.202745
O12	O	0.958907	-0.338889	-0.329987
O13	O	1.086155	-0.437871	-0.553657
O14	O	0.958875	-0.437900	-0.426387
O15	O	1.182626	-0.338837	-0.553687
O16	O	1.182466	-0.568661	-0.329966
O17	O	1.086064	-0.568624	-0.426375
C18	C	0.930409	-0.388393	-0.378185
C19	C	0.843159	-0.388406	-0.378194
C20	C	1.134271	-0.597898	-0.378182
C21	C	1.134307	-0.687520	-0.378197
C22	C	0.802173	-0.440039	-0.428309
C23	C	0.720192	-0.440041	-0.428322
C24	C	0.679200	-0.388413	-0.378214
C25	C	0.720192	-0.336775	-0.328097
C26	C	0.802171	-0.336769	-0.328089
C27	C	0.549322	-0.336791	-0.328116
C28	C	0.467337	-0.336797	-0.328123
C29	C	0.467343	-0.440062	-0.428348
C30	C	0.549322	-0.440057	-0.428340
C31	C	0.590309	-0.388419	-0.378222
C32	C	1.134337	-0.760302	-0.378213
C33	C	1.134383	-0.851610	-0.378230
C34	C	1.134424	-0.924387	-0.378240
C35	C	1.134469	-1.015701	-0.378256
C36	C	1.339101	-0.388423	-0.378228
C37	C	1.426351	-0.388429	-0.378238
C38	C	1.134396	-0.388345	-0.582951
C39	C	1.134413	-0.388319	-0.670200
C40	C	1.134464	-0.178099	-0.378248
C41	C	1.134509	-0.088478	-0.378266
C42	C	1.084249	-0.336738	-0.711195
C43	C	1.084262	-0.336720	-0.793175
C44	C	1.134443	-0.388278	-0.834160
C45	C	1.184610	-0.439864	-0.793160
C46	C	1.184592	-0.439886	-0.711181
C47	C	1.184644	-0.439814	-0.964030
C48	C	1.184662	-0.439791	-1.046015
C49	C	1.084313	-0.336648	-1.046025
C50	C	1.084296	-0.336670	-0.964046
C51	C	1.134463	-0.388255	-0.923051
C52	C	1.134363	-0.388412	-0.174258
C53	C	1.134498	-0.388211	-0.087009
H54	H	0.686825	-0.482086	-0.469129
H55	H	0.582690	-0.294734	-0.287311
H56	H	0.835543	-0.482083	-0.469109
N57	N	0.846375	-0.281074	-0.274038
H58	H	0.832083	-0.293522	-0.217931
H59	H	0.904514	-0.288924	-0.281703
H60	H	0.686809	-0.294735	-0.287303
H61	H	1.043389	-0.294749	-0.677831
H62	H	0.582697	-0.482101	-0.469138
H63	H	1.043437	-0.294682	-0.930678
H64	H	0.433969	-0.482105	-0.469159
N65	N	0.423120	-0.281114	-0.274081
H66	H	0.461523	-0.248396	-0.242334
H67	H	0.389131	-0.243850	-0.306107
N68	N	1.030153	-0.281090	-0.837392
H69	H	0.998364	-0.248429	-0.798989
H70	H	1.062132	-0.243772	-0.871420
N71	N	1.030210	-0.281000	-1.090234
H72	H	1.037833	-0.288808	-1.148386
H73	H	0.974136	-0.293538	-1.075897
N74	N	1.238786	-0.495398	-1.090223
H75	H	1.270561	-0.528084	-1.051815
H76	H	1.206818	-0.532694	-1.124228
H77	H	1.225464	-0.481848	-0.826536
N78	N	1.238759	-0.495450	-0.919820
H79	H	1.275144	-0.462691	-0.885819
H80	H	1.206782	-0.532816	-0.885839
N81	N	1.238695	-0.495523	-0.666964
H82	H	1.270487	-0.528181	-0.705367
H83	H	1.275033	-0.462718	-0.632959
