data_functionalizedCrystal
_audit_creation_method	'MofGen! by Chris Wilmer'
_symmetry_space_group_name_H-M	'P1'
_symmetry_Int_Tables_number	1
_symmetry_cell_setting	triclinic
loop_
_symmetry_equiv_pos_as_xyz
  x,y,z
_cell_length_a	6.817900
_cell_length_b	11.102188
_cell_length_c	19.453114
_cell_angle_alpha	94.506017
_cell_angle_beta	101.709288
_cell_angle_gamma	108.603875
loop_
_atom_site_label
_atom_site_type_symbol
_atom_site_fract_x
_atom_site_fract_y
_atom_site_fract_z
V1	V	-4.033145	-0.177162	-0.218999
O2	O	-3.993679	0.007152	-0.214830
O3	O	-4.010448	-0.349973	-0.217501
O4	O	-3.975743	-0.175034	-0.314512
O5	O	-4.028624	-0.168998	-0.117148
V6	V	-4.514608	-0.155045	-0.206817
O7	O	-4.298920	-0.225677	-0.245722
O8	O	-4.699030	-0.106531	-0.180094
O9	O	-4.314098	0.017766	-0.208315
O10	O	-4.671471	-0.339359	-0.210986
O11	O	-4.636525	-0.163210	-0.308668
O12	O	-4.348803	-0.157173	-0.111304
C13	C	-3.861993	-0.392082	-0.214047
C14	C	-3.924663	-0.533361	-0.213459
C15	C	-3.817722	-0.168929	-0.337792
C16	C	-3.852244	-0.168333	-0.415875
C17	C	-3.916957	-0.581196	-0.148860
C18	C	-3.975865	-0.713944	-0.148311
C19	C	-4.050175	-0.751012	-0.276963
C20	C	-3.991282	-0.618266	-0.277512
C21	C	-4.129179	-0.877264	-0.072533
C22	C	-4.121438	-0.925101	-0.007930
C23	C	-3.952039	-0.861484	0.050937
C24	C	-3.790330	-0.750029	0.045205
C25	C	-3.798057	-0.702198	-0.019398
C26	C	-3.967501	-0.765814	-0.078263
C27	C	-3.837948	-0.454942	-0.353286
C28	C	-3.845659	-0.407109	-0.417889
C29	C	-4.015049	-0.470725	-0.476762
C30	C	-4.176733	-0.582185	-0.471037
C31	C	-4.169021	-0.630019	-0.406433
C32	C	-3.999631	-0.566394	-0.347560
C33	C	-4.051193	-0.174432	-0.456132
C34	C	-4.083630	-0.173872	-0.529499
C35	C	-3.917119	-0.167238	-0.562608
C36	C	-3.718139	-0.161131	-0.522341
C37	C	-3.685701	-0.161678	-0.448974
N38	N	-3.867359	-0.234355	-0.681397
N39	N	-3.898187	-0.233838	-0.751092
C40	C	-4.014840	-0.165586	-0.783656
N41	N	-4.099538	-0.097887	-0.743893
N42	N	-4.068716	-0.098410	-0.674192
C43	C	-3.952272	-0.166643	-0.642161
C44	C	-4.248973	-0.171077	-0.903466
C45	C	-4.281399	-0.170508	-0.976833
C46	C	-3.915908	-0.157780	-0.969674
C47	C	-3.883481	-0.158336	-0.896308
C48	C	-4.050024	-0.164990	-0.863208
C49	C	-4.125896	0.059868	-0.211767
C50	C	-4.042464	0.201146	-0.212360
C51	C	-4.170167	-0.163283	-0.088020
C52	C	-4.114883	-0.163873	-0.009937
H53	H	-3.666392	-0.611457	-0.024065
C54	C	-3.363275	-0.040292	-0.529381
C55	C	-3.535105	-0.153835	-0.558732
H56	H	-3.250279	-0.035782	-0.551851
H57	H	-3.315489	-0.039754	-0.479932
H58	H	-3.407523	0.031664	-0.536467
H59	H	-3.490862	-0.225793	-0.551642
H60	H	-3.582896	-0.154385	-0.608193
H61	H	-3.523685	-0.156702	-0.416196
H62	H	-4.384580	-0.176490	-0.876515
C63	C	-4.173425	-0.970960	-0.333246
C64	C	-4.123374	-0.844342	-0.347368
H65	H	-4.218596	-1.028574	-0.376713
H66	H	-4.284724	-0.989249	-0.308975
H67	H	-4.050880	-0.980931	-0.304482
H68	H	-4.245924	-0.834369	-0.376128
H69	H	-4.012065	-0.826047	-0.371651
C70	C	-4.335581	-0.586592	-0.593660
C71	C	-4.362947	-0.652118	-0.535749
H72	H	-4.450546	-0.629763	-0.633610
H73	H	-4.205080	-0.584360	-0.604666
H74	H	-4.332592	-0.501218	-0.581982
H75	H	-4.365919	-0.737491	-0.547426
H76	H	-4.493482	-0.654365	-0.524743
H77	H	-3.862714	-0.512069	-0.096703
C78	C	-4.163780	-0.180944	-0.346851
C79	C	-4.234253	-0.181744	-0.419749
H80	H	-4.276801	-0.185468	-0.324391
H81	H	-4.047220	-0.103924	-0.326946
H82	H	-4.119560	-0.252914	-0.339778
H83	H	-4.278458	-0.109769	-0.426822
H84	H	-4.350851	-0.258773	-0.439660
H85	H	-4.443406	-0.175466	-1.009609
C86	C	-3.631482	-0.745620	0.167830
C87	C	-3.604111	-0.680104	0.109915
H88	H	-3.516524	-0.702440	0.207781
H89	H	-3.634475	-0.830985	0.156159
H90	H	-3.762000	-0.747845	0.178834
H91	H	-3.473601	-0.677887	0.098908
H92	H	-3.601097	-0.594715	0.121588
C93	C	-4.121229	-1.025320	0.114549
C94	C	-3.943532	-0.914063	0.121950
H95	H	-4.115990	-1.057775	0.158390
H96	H	-4.120351	-1.088388	0.078785
H97	H	-4.247860	-1.005240	0.101463
H98	H	-3.816900	-0.934144	0.135030
H99	H	-3.944391	-0.850981	0.157725
C100	C	-4.354864	-0.855258	-0.448555
C101	C	-4.346754	-0.752535	-0.400137
H102	H	-4.464595	-0.930890	-0.444669
H103	H	-4.221832	-0.868692	-0.438382
H104	H	-4.383703	-0.835863	-0.495452
H105	H	-4.317899	-0.771926	-0.353238
H106	H	-4.479817	-0.739101	-0.410304
H107	H	-4.245647	-0.178845	-0.562283
H108	H	-4.253117	-1.015851	-0.003268
C109	C	-3.845841	-0.306881	-0.540377
C110	C	-4.023529	-0.418143	-0.547777
H111	H	-3.851095	-0.274420	-0.584216
H112	H	-3.719218	-0.326950	-0.527295
H113	H	-3.846727	-0.243809	-0.504607
H114	H	-4.022634	-0.481219	-0.583543
H115	H	-4.150184	-0.398079	-0.560868
C116	C	-3.803346	-0.151290	-1.078957
C117	C	-3.732866	-0.150485	-1.006059
H118	H	-3.690339	-0.146789	-1.101420
H119	H	-3.847543	-0.079324	-1.086031
H120	H	-3.919935	-0.228316	-1.098860
H121	H	-3.616286	-0.073454	-0.986155
H122	H	-3.688639	-0.222457	-0.998980
H123	H	-4.267144	-0.929063	-0.120460
H124	H	-3.721483	-0.153383	-0.863531
H125	H	-3.713982	-0.316359	-0.422550
H126	H	-3.700008	-0.403132	-0.305348
