data_functionalizedCrystal
_audit_creation_method	'MofGen! by Chris Wilmer'
_symmetry_space_group_name_H-M	'P1'
_symmetry_Int_Tables_number	1
_symmetry_cell_setting	triclinic
loop_
_symmetry_equiv_pos_as_xyz
  x,y,z
_cell_length_a	27.732048
_cell_length_b	23.532407
_cell_length_c	22.010155
_cell_angle_alpha	90.000423
_cell_angle_beta	90.002893
_cell_angle_gamma	82.745667
loop_
_atom_site_label
_atom_site_type_symbol
_atom_site_fract_x
_atom_site_fract_y
_atom_site_fract_z
O1	O	-0.641035	-0.067758	-0.050453
O2	O	-0.500257	-0.078062	-0.050472
O3	O	-0.574891	0.010031	-0.050451
O4	O	-0.566401	-0.155851	-0.050474
O5	O	-0.574878	0.010018	0.050599
O6	O	-0.500244	-0.078075	0.050578
O7	O	-0.641021	-0.067771	0.050597
Cu8	Cu	-0.570631	-0.072924	0.059814
Cu9	Cu	-0.570647	-0.072909	-0.059689
O10	O	-0.566387	-0.155864	0.050576
C11	C	-0.482243	-0.077852	0.000051
C12	C	-0.428587	-0.077201	0.000044
C13	C	-0.574668	0.031240	0.000076
C14	C	-0.574018	0.094455	0.000080
C15	C	-0.659035	-0.067981	0.000073
C16	C	-0.712691	-0.068632	0.000076
C17	C	-0.089846	-0.125158	0.000063
C18	C	0.111817	-0.122741	0.000069
O19	O	0.143005	-0.166594	0.000089
N20	N	0.131021	-0.070506	0.000075
C21	C	0.099806	-0.018871	0.000084
O22	O	0.120768	0.025614	0.000096
C23	C	-0.101856	-0.021288	0.000083
C24	C	-0.121057	-0.073527	0.000070
C25	C	-0.109048	-0.177392	0.000052
C26	C	-0.159461	-0.177996	0.000047
C27	C	-0.190672	-0.126365	0.000054
C28	C	-0.171470	-0.074130	0.000066
C29	C	-0.133071	0.030346	0.000096
C30	C	-0.183489	0.029737	0.000097
C31	C	-0.202690	-0.022501	0.000085
C32	C	-0.253094	-0.023103	0.000068
N33	N	-0.272298	-0.075338	0.000062
C34	C	-0.241087	-0.126969	0.000055
C35	C	0.205682	-0.017606	0.000084
C36	C	0.256097	-0.017001	0.000083
C37	C	0.268105	-0.120872	0.000069
C38	C	0.217689	-0.121476	0.000065
C39	C	0.186478	-0.069841	0.000078
C40	C	-0.346958	-0.128233	0.000044
C41	C	-0.397376	-0.128832	0.000037
C42	C	-0.409379	-0.024962	0.000054
C43	C	-0.358966	-0.024362	0.000058
C44	C	-0.327756	-0.076003	0.000055
O45	O	-0.284311	0.020727	0.000055
O46	O	-0.262058	-0.171448	0.000056
C47	C	-0.039433	-0.124554	0.000068
C48	C	-0.020232	-0.072320	0.000080
C49	C	-0.051443	-0.020689	0.000087
C50	C	0.030184	-0.071715	0.000079
C51	C	0.061395	-0.123346	0.000072
C52	C	0.042191	-0.175581	0.000066
C53	C	-0.008222	-0.176185	0.000061
C54	C	-0.032239	0.031547	0.000093
C55	C	0.018175	0.032146	0.000097
C56	C	0.049386	-0.019485	0.000090
C57	C	-0.566610	-0.177073	0.000048
C58	C	-0.567260	-0.240289	0.000039
N59	N	-0.570624	-0.072935	0.143867
C60	C	-0.614108	0.493644	0.000053
C61	C	-0.613504	0.553043	0.000048
O62	O	-0.650668	0.589867	0.000031
N63	N	-0.569134	0.575574	0.000042
C64	C	-0.525365	0.538703	0.000035
O65	O	-0.487570	0.563322	0.000029
C66	C	-0.525970	0.479306	0.000036
C67	C	-0.570342	0.456778	0.000047
C68	C	-0.658477	0.471116	0.000064
C69	C	-0.659081	0.411721	0.000070
C70	C	-0.615315	0.374854	0.000064
C71	C	-0.570946	0.397383	0.000053
C72	C	-0.482201	0.442436	0.000024
C73	C	-0.482810	0.383035	0.000024
C74	C	-0.527182	0.360507	0.000036
C75	C	-0.527784	0.301122	0.000054
N76	N	-0.572154	0.278590	0.000059
C77	C	-0.615920	0.315457	0.000065
C78	C	-0.524100	0.663443	0.000033
C79	C	-0.523495	0.722840	0.000037
C80	C	-0.611634	0.737175	0.000049
C81	C	-0.612238	0.677778	0.000049
C82	C	-0.568469	0.640912	0.000039
C83	C	-0.617184	0.190723	0.000077
C84	C	-0.617784	0.131322	0.000086
C85	C	-0.529645	0.116991	0.000071
C86	C	-0.529045	0.176387	0.000066
C87	C	-0.572818	0.213252	0.000067
O88	O	-0.490640	0.264263	0.000069
O89	O	-0.653709	0.290829	0.000062
N90	N	-0.570659	-0.072894	-0.143742
C91	C	-0.603697	-0.033907	0.563656
C92	C	-0.603699	-0.033903	0.627263
O93	O	-0.631800	-0.000727	0.660163
N94	N	-0.570647	-0.072897	0.659074
C95	C	-0.537587	-0.111893	0.627274
O96	O	-0.509474	-0.145060	0.660172
C97	C	-0.537583	-0.111894	0.563667
C98	C	-0.570641	-0.072901	0.531860
C99	C	-0.636752	0.005083	0.531848
C100	C	-0.636750	0.005078	0.468245
C101	C	-0.603694	-0.033916	0.436449
C102	C	-0.570639	-0.072906	0.468257
C103	C	-0.504521	-0.150888	0.531868
C104	C	-0.504520	-0.150885	0.468258
C105	C	-0.537577	-0.111892	0.436450
C106	C	-0.537581	-0.111906	0.372858
N107	N	-0.570633	-0.072912	0.341047
C108	C	-0.603689	-0.033917	0.372843
C109	C	-0.537598	-0.111888	0.760852
C110	C	-0.537604	-0.111891	0.824457
C111	C	-0.603716	-0.033899	0.824442
C112	C	-0.603712	-0.033900	0.760836
C113	C	-0.570650	-0.072894	0.729041
C114	C	-0.603683	-0.033930	0.239272
C115	C	-0.603680	-0.033940	0.175663
C116	C	-0.537567	-0.111929	0.175683
C117	C	-0.537572	-0.111922	0.239286
C118	C	-0.570632	-0.072918	0.271079
O119	O	-0.509493	-0.145063	0.339918
O120	O	-0.631794	-0.000751	0.339937
H121	H	-0.413007	-0.171373	0.000026
H122	H	-0.488456	0.633430	0.000030
O123	O	0.274689	0.033779	0.000007
C124	C	0.258720	0.065226	-0.052330
H125	H	0.223824	0.050017	-0.069781
H126	H	0.251496	0.112714	-0.040552
H127	H	0.287925	0.058377	-0.088978
O128	O	-0.439055	0.464215	-0.000017
C129	C	-0.400562	0.418928	-0.000011
H130	H	-0.413924	0.378692	-0.019134
H131	H	-0.369570	0.431066	-0.029359
H132	H	-0.387066	0.410405	0.048465
H133	H	-0.510690	-0.143648	0.850350
O134	O	-0.505551	-0.149800	0.729902
C135	C	-0.531265	-0.184739	0.693121
H136	H	-0.569195	-0.161747	0.683578
H137	H	-0.511041	-0.193923	0.648399
H138	H	-0.534352	-0.226800	0.717640
H139	H	-0.208899	0.071785	0.000107
O140	O	-0.505390	-0.149784	0.144858
C141	C	-0.457588	-0.140898	0.160393
H142	H	-0.457756	-0.118946	0.206577
H143	H	-0.433573	-0.183899	0.162568
H144	H	-0.442782	-0.112665	0.124597
O145	O	-0.659736	0.226470	0.000000
C146	C	-0.686696	0.216320	-0.052335
H147	H	-0.674601	0.171156	-0.069783
H148	H	-0.727029	0.220838	-0.040554
H149	H	-0.680259	0.248757	-0.088985
O150	O	-0.668787	0.042954	0.437240
C151	C	-0.698469	0.012834	0.400309
H152	H	-0.699266	-0.032044	0.419469
H153	H	-0.736939	0.036547	0.399429
H154	H	-0.683203	0.009644	0.352166
O155	O	-0.635806	0.004063	0.855268
C156	C	-0.628212	0.060378	0.839739
H157	H	-0.609581	0.060157	0.793556
H158	H	-0.664679	0.088723	0.837563
H159	H	-0.604234	0.077792	0.875538
H160	H	-0.695214	0.393385	0.000077
O161	O	-0.178028	-0.228791	0.000069
C162	C	-0.139662	-0.274226	0.000051
H163	H	-0.105486	-0.258563	0.019181
H164	H	-0.150021	-0.310727	0.029387
H165	H	-0.132455	-0.290127	-0.048429
H166	H	-0.492913	0.194730	0.000073
O167	O	-0.635700	0.004027	0.144737
C168	C	-0.609934	0.038954	0.108011
H169	H	-0.572028	0.015905	0.098447
H170	H	-0.630151	0.048229	0.063297
H171	H	-0.606788	0.080971	0.132591
H172	H	-0.630630	-0.002149	0.734942
O173	O	-0.472360	-0.188786	0.562662
C174	C	-0.443194	-0.223206	0.520946
H175	H	-0.442768	-0.199855	0.475607
H176	H	-0.404549	-0.232205	0.539320
H177	H	-0.458681	-0.265389	0.514178
O178	O	-0.654137	0.773016	-0.000060
C179	C	-0.656419	0.807808	-0.052391
H180	H	-0.631597	0.785834	-0.088969
H181	H	-0.695389	0.814827	-0.069957
H182	H	-0.644116	0.850898	-0.040564
O183	O	-0.505444	-0.149722	0.270257
C184	C	-0.475765	-0.119456	0.307034
H185	H	-0.495233	-0.074732	0.316554
H186	H	-0.468002	-0.143282	0.351767
H187	H	-0.440061	-0.115878	0.282521
H188	H	-0.447167	0.353020	0.000015
H189	H	-0.663670	0.036840	0.557731
H190	H	-0.477595	-0.182638	0.442373
O191	O	0.298360	-0.171079	0.000039
C192	C	0.270607	-0.217319	0.000054
H193	H	0.232907	-0.202532	-0.019079
H194	H	0.289377	-0.253465	-0.029282
H195	H	0.267094	-0.233352	0.048533
O196	O	-0.439771	0.025138	0.000090
C197	C	-0.488385	0.013397	0.000071
H198	H	-0.490103	-0.031325	0.019190
H199	H	-0.511382	0.046324	0.029419
H200	H	-0.502980	0.015697	-0.048407
O201	O	-0.660847	0.109344	0.000121
C202	C	-0.652000	0.049012	0.000109
H203	H	-0.614208	0.034737	0.019237
H204	H	-0.680372	0.031021	0.029451
H205	H	-0.654266	0.032494	-0.048368
O206	O	-0.480403	0.744748	0.000139
C207	C	-0.477410	0.778692	0.052462
H208	H	-0.502596	0.764866	0.089048
H209	H	-0.438425	0.773021	0.070022
H210	H	-0.488790	0.825634	0.040627
O211	O	-0.114405	0.081078	0.000003
C212	C	-0.085595	0.084551	-0.052321
H213	H	-0.097374	0.054902	-0.088909
H214	H	-0.090345	0.130495	-0.069875
H215	H	-0.045771	0.071066	-0.040490
O216	O	-0.655311	0.655828	-0.000026
C217	C	-0.658312	0.621915	-0.052369
H218	H	-0.620144	0.606788	-0.069823
H219	H	-0.677391	0.583183	-0.040599
H220	H	-0.679829	0.648349	-0.089012
H221	H	0.033803	0.074688	0.000103
O222	O	0.198981	-0.172183	0.000137
C223	C	0.170192	-0.175660	0.052479
H224	H	0.157424	-0.130663	0.069937
H225	H	0.137283	-0.198066	0.040705
H226	H	0.192590	-0.201060	0.089120
H227	H	-0.321553	-0.170283	0.000044
O228	O	0.175319	0.032519	0.000008
C229	C	0.145804	0.035294	-0.052335
H230	H	0.143457	-0.009886	-0.069785
H231	H	0.107813	0.056857	-0.040565
H232	H	0.162274	0.061152	-0.088980
H233	H	-0.494012	0.086964	0.000069
H234	H	-0.343332	0.018175	0.000059
O235	O	-0.026790	-0.226980	0.000080
C236	C	0.011577	-0.272415	0.000060
H237	H	0.045752	-0.256754	0.019193
H238	H	0.001217	-0.308918	0.029392
H239	H	0.018785	-0.288313	-0.048421
O240	O	-0.078713	-0.227535	0.000148
C241	C	-0.049175	-0.230309	0.052471
H242	H	-0.067766	-0.201026	0.089061
H243	H	-0.043297	-0.276240	0.070024
H244	H	-0.012578	-0.215904	0.040639
O245	O	0.072563	-0.225699	-0.000022
C246	C	0.102077	-0.228454	-0.052362
H247	H	0.104409	-0.183270	-0.069805
H248	H	0.140073	-0.250003	-0.040591
H249	H	0.085615	-0.254317	-0.089013
O250	O	-0.701027	0.506864	-0.000010
C251	C	-0.727986	0.496717	-0.052346
H252	H	-0.715889	0.451555	-0.069799
H253	H	-0.768319	0.501231	-0.040565
H254	H	-0.721552	0.529158	-0.088993
O255	O	-0.062485	0.081756	0.000071
C256	C	-0.034718	0.127983	0.000094
H257	H	0.002980	0.113183	-0.019034
H258	H	-0.053479	0.164136	-0.029243
H259	H	-0.031202	0.144012	0.048575
O260	O	-0.635844	0.003980	0.270055
C261	C	-0.665006	0.038398	0.228331
H262	H	-0.665433	0.015043	0.182995
H263	H	-0.703651	0.047404	0.246698
H264	H	-0.649515	0.080578	0.221561
