data_functionalizedCrystal
_audit_creation_method	'MofGen! by Chris Wilmer'
_symmetry_space_group_name_H-M	'P1'
_symmetry_Int_Tables_number	1
_symmetry_cell_setting	triclinic
loop_
_symmetry_equiv_pos_as_xyz
  x,y,z
_cell_length_a	19.077105
_cell_length_b	13.032721
_cell_length_c	19.077271
_cell_angle_alpha	94.579107
_cell_angle_beta	89.892926
_cell_angle_gamma	95.201395
loop_
_atom_site_label
_atom_site_type_symbol
_atom_site_fract_x
_atom_site_fract_y
_atom_site_fract_z
Zn1	Zn	1.018455	-0.448441	-0.477177
Zn2	Zn	1.007093	-0.628654	-0.374437
Zn3	Zn	0.905621	-0.449019	-0.355016
Zn4	Zn	0.886153	-0.614711	-0.486049
O5	O	0.954330	-0.535206	-0.423170
O6	O	1.114783	-0.477940	-0.467964
O7	O	0.997024	-0.610902	-0.274025
O8	O	0.933491	-0.304181	-0.359380
O9	O	1.106435	-0.610342	-0.392481
O10	O	1.016390	-0.303756	-0.449132
O11	O	0.922473	-0.478925	-0.259757
O12	O	0.805203	-0.465405	-0.367983
O13	O	0.900312	-0.586578	-0.582708
O14	O	0.790901	-0.587138	-0.464252
O15	O	0.997513	-0.464420	-0.576189
O16	O	0.978147	-0.771567	-0.401083
O17	O	0.889294	-0.761323	-0.483084
C18	C	0.772684	-0.524822	-0.414973
C19	C	0.694972	-0.520404	-0.411485
C20	C	0.651029	-0.581812	-0.459907
C21	C	0.578011	-0.577646	-0.456632
C22	C	0.548939	-0.512077	-0.404931
C23	C	0.592888	-0.450662	-0.356507
C24	C	0.665905	-0.454823	-0.359786
C25	C	0.331361	-0.492820	-0.389760
C26	C	0.258339	-0.488667	-0.386484
C27	C	0.243467	-0.615649	-0.486610
C28	C	0.316485	-0.619809	-0.489881
C29	C	0.360428	-0.558390	-0.441460
N30	N	0.474303	-0.507820	-0.401581
N31	N	0.435063	-0.562642	-0.444813
C32	C	0.930393	-0.803980	-0.445170
C33	C	0.920216	-0.918965	-0.454608
C34	C	0.959678	-0.975262	-0.418277
C35	C	0.949160	-1.094105	-0.428031
C36	C	1.136686	-0.545632	-0.431399
C37	C	1.214395	-0.550075	-0.434906
C38	C	0.948008	-0.523879	-0.605525
C39	C	0.945314	-0.519052	-0.683234
C40	C	0.978380	-0.265383	-0.401100
C41	C	0.988628	-0.150401	-0.391695
C42	C	0.925984	-0.484514	-1.119858
C43	C	0.928519	-0.489046	-1.046842
C44	C	0.968597	-0.560030	-1.017762
C45	C	1.006148	-0.626479	-1.061703
C46	C	1.003616	-0.621942	-1.134717
C47	C	0.980334	-0.580964	-0.800189
C48	C	0.982861	-0.585499	-0.727169
C49	C	0.905232	-0.448063	-0.712313
C50	C	0.902701	-0.443536	-0.785330
C51	C	0.940255	-0.509982	-0.829264
N52	N	0.971187	-0.564666	-0.943128
N53	N	0.937668	-0.505340	-0.903896
C54	C	0.960675	-0.546417	-0.241519
C55	C	0.963530	-0.550961	-0.163793
H56	H	0.234672	-0.435260	-0.344386
C57	C	0.560908	-0.378535	-0.299638
C58	C	0.516885	-0.292647	-0.321129
C59	C	0.484905	-0.220520	-0.264258
C60	C	0.496948	-0.234282	-0.185895
C61	C	0.540973	-0.320174	-0.164400
C62	C	0.572953	-0.392301	-0.221271
H63	H	0.507968	-0.282456	-0.379141
H64	H	0.452314	-0.156937	-0.280170
H65	H	0.473274	-0.180890	-0.143795
H66	H	0.549890	-0.330365	-0.106387
H67	H	0.605543	-0.455883	-0.205359
C68	C	0.892994	-1.147835	-0.479811
C69	C	0.897180	-1.128412	-0.558343
C70	C	0.841015	-1.182142	-0.610122
C71	C	0.780665	-1.255295	-0.583369
C72	C	0.776478	-1.274722	-0.504834
C73	C	0.832642	-1.220991	-0.453055
H74	H	0.941857	-1.074256	-0.578150
H75	H	0.844116	-1.167761	-0.668259
H76	H	0.739089	-1.295070	-0.621699
H77	H	0.731801	-1.328877	-0.485027
H78	H	0.829542	-1.235372	-0.394918
C79	C	0.714247	-0.387273	-0.306523
C80	C	0.714475	-0.268751	-0.302286
C81	C	0.762818	-0.201194	-0.249024
C82	C	0.810934	-0.252159	-0.199999
C83	C	0.810708	-0.370687	-0.204235
C84	C	0.762365	-0.438245	-0.257496
H85	H	0.678855	-0.231019	-0.338578
H86	H	0.762984	-0.113452	-0.245889
H87	H	0.846720	-0.202149	-0.160572
H88	H	0.846328	-0.408420	-0.167942
H89	H	0.762199	-0.525987	-0.260631
C90	C	1.015843	-0.921526	-0.366502
C91	C	0.994022	-0.848964	-0.304175
C92	C	1.050189	-0.795229	-0.252400
C93	C	1.128176	-0.814057	-0.262952
C94	C	1.150001	-0.886622	-0.325282
C95	C	1.093834	-0.940356	-0.377057
H96	H	0.936288	-0.835024	-0.296361
H97	H	1.034032	-0.741512	-0.206259
H98	H	1.169754	-0.774279	-0.224625
H99	H	1.207735	-0.900562	-0.333096
H100	H	1.109990	-0.994074	-0.423198
H101	H	1.030205	-1.110622	-0.353369
C102	C	0.864053	-0.972698	-0.506386
C103	C	0.803703	-1.045851	-0.479634
C104	C	0.747538	-1.099582	-0.531413
C105	C	0.751724	-1.080159	-0.609944
C106	C	0.812076	-1.007002	-0.636700
C107	C	0.868241	-0.953272	-0.584921
H108	H	0.800603	-1.060232	-0.421496
H109	H	0.702862	-1.153737	-0.511605
H110	H	0.710148	-1.119934	-0.648274
H111	H	0.815177	-0.992621	-0.694837
H112	H	0.912918	-0.899117	-0.604729
H113	H	0.367131	-0.442817	-0.350327
H114	H	0.893346	-0.426713	-1.143529
C115	C	0.887212	-0.415955	-0.998517
C116	C	0.903048	-0.298057	-0.999201
C117	C	0.861739	-0.224960	-0.950877
C118	C	0.804595	-0.269762	-0.901869
C119	C	0.788757	-0.387667	-0.901184
C120	C	0.830065	-0.460763	-0.949507
H121	H	0.945352	-0.264886	-1.035481
H122	H	0.873464	-0.137680	-0.951385
H123	H	0.774015	-0.215652	-0.866097
H124	H	0.746453	-0.420837	-0.864904
H125	H	0.818341	-0.548043	-0.948999
H126	H	1.015515	-0.643286	-0.703495
C127	C	1.021665	-0.654042	-0.848495
C128	C	1.005850	-0.771944	-0.847818
C129	C	1.047197	-0.845017	-0.896120
C130	C	1.104359	-0.800188	-0.945099
C131	C	1.120176	-0.682280	-0.945777
C132	C	1.078830	-0.609207	-0.897475
H133	H	0.963533	-0.805135	-0.811560
H134	H	1.035487	-0.932301	-0.895618
H135	H	1.134966	-0.854282	-0.980855
H136	H	1.162493	-0.649089	-0.982036
H137	H	1.090539	-0.521923	-0.897978
H138	H	0.870062	-0.385737	-0.809001
H139	H	1.038784	-0.684272	-1.038020
H140	H	1.034192	-0.676048	-1.170489
C141	C	0.683005	-0.653939	-0.516779
C142	C	0.662694	-0.771317	-0.520121
C143	C	0.694669	-0.843444	-0.576996
C144	C	0.746954	-0.798193	-0.630529
C145	C	0.767267	-0.680809	-0.627189
C146	C	0.735293	-0.608682	-0.570314
H147	H	0.623988	-0.804820	-0.480491
H148	H	0.679631	-0.930339	-0.579468
H149	H	0.770623	-0.851585	-0.672632
H150	H	0.805974	-0.647306	-0.666820
H151	H	0.750330	-0.521787	-0.567842
C152	C	0.529675	-0.645201	-0.509897
C153	C	0.529447	-0.763723	-0.514130
C154	C	0.481113	-0.831281	-0.567400
C155	C	0.433007	-0.780317	-0.616435
C156	C	0.433234	-0.661789	-0.612203
C157	C	0.481568	-0.594231	-0.558934
H158	H	0.565059	-0.801455	-0.477830
H159	H	0.480945	-0.919024	-0.570532
H160	H	0.397227	-0.830328	-0.655868
H161	H	0.397621	-0.624057	-0.648503
H162	H	0.481735	-0.506488	-0.555801
H163	H	0.874659	-0.393965	-0.676535
H164	H	0.207681	-0.665652	-0.526033
H165	H	0.340150	-0.673205	-0.531980
