data_functionalizedCrystal
_audit_creation_method	'MofGen! by Chris Wilmer'
_symmetry_space_group_name_H-M	'P1'
_symmetry_Int_Tables_number	1
_symmetry_cell_setting	triclinic
loop_
_symmetry_equiv_pos_as_xyz
  x,y,z
_cell_length_a	10.540539
_cell_length_b	23.532407
_cell_length_c	9.016244
_cell_angle_alpha	89.993097
_cell_angle_beta	89.994699
_cell_angle_gamma	83.687085
loop_
_atom_site_label
_atom_site_type_symbol
_atom_site_fract_x
_atom_site_fract_y
_atom_site_fract_z
O1	O	1.683259	0.080251	-0.123287
O2	O	1.313598	0.087813	-0.123307
O3	O	1.509576	0.001174	-0.123270
O4	O	1.487282	0.166890	-0.123325
O5	O	1.509547	0.001176	0.123411
O6	O	1.313570	0.087815	0.123373
O7	O	1.683231	0.080253	0.123393
Cu8	Cu	1.498398	0.084034	0.145907
Cu9	Cu	1.498431	0.084032	-0.145821
O10	O	1.487253	0.166892	0.123356
C11	C	1.266300	0.087246	0.000031
C12	C	1.125407	0.085550	0.000024
C13	C	1.508994	-0.020045	0.000075
C14	C	1.507287	-0.083273	0.000086
C15	C	0.944114	0.020541	0.000622
C16	C	1.090676	0.022261	0.000050
C17	C	1.062751	0.116006	-0.140847
C18	C	0.916278	0.113846	-0.140949
C19	C	0.915715	0.115136	0.139573
C20	C	1.062677	0.115719	0.141419
C21	C	1.612557	-0.481681	0.000010
C22	C	1.610971	-0.541092	-0.000001
O23	O	1.708557	-0.577192	-0.000051
N24	N	1.494462	-0.564488	-0.000006
C25	C	1.379532	-0.528469	-0.000015
O26	O	1.280287	-0.553824	-0.000022
C27	C	1.381119	-0.469060	-0.000015
C28	C	1.497635	-0.445667	0.000006
C29	C	1.729064	-0.458288	0.000029
C30	C	1.730649	-0.398882	0.000043
C31	C	1.615727	-0.362868	0.000038
C32	C	1.499220	-0.386261	0.000020
C33	C	1.266190	-0.433042	-0.000034
C34	C	1.267787	-0.373629	-0.000035
C35	C	1.384303	-0.350237	-0.000014
C36	C	1.385883	-0.290840	0.000029
N37	N	1.502392	-0.267444	0.000035
C38	C	1.617314	-0.303458	0.000039
C39	C	1.376208	-0.653234	-0.000019
C40	C	1.374620	-0.712642	-0.000010
C41	C	1.606059	-0.725261	0.000002
C42	C	1.607646	-0.665851	0.000003
C43	C	1.492717	-0.629838	-0.000014
C44	C	1.620634	-0.178700	0.000070
C45	C	1.622209	-0.119287	0.000090
C46	C	1.390770	-0.106674	0.000071
C47	C	1.389194	-0.166081	0.000059
C48	C	1.504137	-0.202093	0.000053
O49	O	1.288349	-0.254705	0.000073
O50	O	1.716543	-0.278095	0.000026
C51	C	1.730530	0.080819	0.000052
C52	C	1.871422	0.082516	0.000048
C53	C	1.487835	0.188111	0.000008
C54	C	1.489542	0.251339	-0.000013
N55	N	1.498383	0.084035	0.351093
N56	N	1.498456	0.084026	-0.351007
C57	C	1.393236	0.130226	0.586106
C58	C	1.393460	0.130399	0.414215
C59	C	1.630663	0.097553	0.413434
C60	C	1.630086	0.097880	0.585378
C61	C	1.472574	0.024176	0.585655
C62	C	1.469516	0.024564	0.413701
H63	H	1.134064	-0.001703	0.101034
C64	C	1.858814	-0.373155	0.000056
H65	H	1.843317	-0.332614	0.000072
H66	H	1.906108	-0.385483	-0.085963
H67	H	1.906083	-0.385493	0.086093
H68	H	1.295110	0.122265	0.372069
H69	H	1.654144	0.140724	0.370343
C70	C	1.338070	0.010720	0.358671
H71	H	1.300931	0.041051	0.297786
H72	H	1.284138	0.006303	0.441336
H73	H	1.348053	-0.023733	0.302908
H74	H	1.717094	-0.100245	0.000111
C75	C	1.345134	0.006807	0.644284
H76	H	1.306516	0.035898	0.707944
H77	H	1.360408	-0.028037	0.697847
H78	H	1.289838	0.001860	0.563219
H79	H	1.133225	-0.001874	-0.101092
H80	H	1.541225	-0.011468	0.370740
H81	H	0.884828	0.094655	0.246352
H82	H	1.549314	-0.010211	0.626322
C83	C	0.906584	-0.013236	0.137097
H84	H	0.846240	0.010152	0.194948
H85	H	0.980370	-0.024385	0.195098
H86	H	0.869958	-0.046311	0.105436
C87	C	1.661041	0.156866	0.639533
H88	H	1.660968	0.157585	0.744886
H89	H	1.598475	0.185626	0.603153
H90	H	1.742795	0.163774	0.603982
C91	C	0.904425	-0.013098	-0.135063
H92	H	0.843751	0.010463	-0.192064
H93	H	0.867629	-0.046029	-0.102655
H94	H	0.977415	-0.024472	-0.194200
H95	H	1.297204	-0.077341	0.000073
C96	C	1.738921	0.053343	0.358198
H97	H	1.818036	0.062320	0.397209
H98	H	1.741934	0.054161	0.252928
H99	H	1.723587	0.016270	0.390408
C100	C	1.855489	-0.497895	0.000046
H101	H	1.925092	-0.475446	0.000068
H102	H	1.859713	-0.521333	-0.085971
H103	H	1.859671	-0.521333	0.086086
C104	C	1.246452	-0.738367	-0.000020
H105	H	1.178243	-0.708405	-0.000032
H106	H	1.241002	-0.761287	0.085995
H107	H	1.241031	-0.761272	-0.086062
H108	H	0.866987	0.160849	0.140509
C109	C	1.141360	-0.334018	-0.000047
H110	H	1.071749	-0.356462	-0.000049
H111	H	1.137177	-0.310573	-0.086064
H112	H	1.137152	-0.310587	0.085993
H113	H	1.714231	-0.208014	0.000060
C114	C	0.879176	0.083431	-0.283172
H115	H	0.953588	0.072507	-0.340340
H116	H	0.821296	0.108638	-0.339498
H117	H	0.839778	0.050375	-0.257416
H118	H	1.409902	0.174802	0.373054
C119	C	0.849452	0.175331	-0.149646
H120	H	0.911861	0.201517	-0.153111
H121	H	0.797019	0.182981	-0.064711
H122	H	0.798268	0.179428	-0.236519
C123	C	1.261031	-0.191814	0.000033
H124	H	1.192816	-0.161854	0.000023
H125	H	1.255578	-0.214739	0.086039
H126	H	1.255622	-0.214715	-0.086018
H127	H	1.702524	-0.646810	0.000018
H128	H	1.083579	0.162484	-0.146104
H129	H	1.106046	0.094848	-0.245672
C130	C	1.249777	-0.613624	-0.000010
H131	H	1.180170	-0.636070	0.000001
H132	H	1.245580	-0.590179	-0.086028
H133	H	1.245575	-0.590192	0.086029
H134	H	1.710788	0.065586	0.626975
H135	H	1.104358	0.093470	0.245635
H136	H	1.171310	-0.452077	-0.000060
C137	C	1.093350	0.178053	0.152894
H138	H	1.145037	0.186534	0.071232
H139	H	1.137774	0.183055	0.242796
H140	H	1.016154	0.203030	0.151699
C141	C	1.259950	0.119416	0.642036
H142	H	1.267272	0.086633	0.704249
H143	H	1.206829	0.113248	0.559796
H144	H	1.223526	0.151698	0.696606
C145	C	1.415143	0.189873	0.644422
H146	H	1.488137	0.186743	0.706923
H147	H	1.342490	0.205432	0.699156
H148	H	1.428345	0.214239	0.563152
H149	H	1.699635	-0.754594	-0.000000
