data_functionalizedCrystal
_audit_creation_method	'MofGen! by Chris Wilmer'
_symmetry_space_group_name_H-M	'P1'
_symmetry_Int_Tables_number	1
_symmetry_cell_setting	triclinic
loop_
_symmetry_equiv_pos_as_xyz
  x,y,z
_cell_length_a	11.792241
_cell_length_b	10.868271
_cell_length_c	11.792241
_cell_angle_alpha	89.996428
_cell_angle_beta	95.806585
_cell_angle_gamma	90.000490
loop_
_atom_site_label
_atom_site_type_symbol
_atom_site_fract_x
_atom_site_fract_y
_atom_site_fract_z
O1	O	-1.506909	0.102170	0.155562
O2	O	-1.176568	0.102201	0.171595
O3	O	-1.349755	0.102192	-0.001592
O4	O	-1.333722	0.102179	0.328749
O5	O	-1.349739	-0.102453	-0.001586
O6	O	-1.176552	-0.102444	0.171601
O7	O	-1.506893	-0.102475	0.155568
Zn8	Zn	-1.341720	-0.134951	0.163585
Zn9	Zn	-1.341741	0.134677	0.163578
O10	O	-1.333706	-0.102466	0.328755
C11	C	-1.134269	-0.000117	0.170591
C12	C	-1.008255	-0.000105	0.167576
N13	N	-1.341714	-0.318965	0.163590
C14	C	-1.348740	-0.000126	-0.043880
C15	C	-1.345726	-0.000112	-0.169894
C16	C	-0.777543	-0.000137	0.162034
C17	C	-0.905928	-0.000119	0.165113
C18	C	-0.549192	-0.000151	0.156572
C19	C	-0.675206	-0.000146	0.159587
C20	C	-1.341723	-0.430303	0.163590
C21	C	-1.341738	-0.569980	0.163579
N22	N	-1.341756	0.318691	0.163565
C23	C	-1.334721	-0.000146	0.371043
C24	C	-1.337736	-0.000151	0.497057
C25	C	-1.343279	-0.000121	0.727769
C26	C	-1.340199	-0.000137	0.599384
