data_functionalizedCrystal
_audit_creation_method	'MofGen! by Chris Wilmer'
_symmetry_space_group_name_H-M	'P1'
_symmetry_Int_Tables_number	1
_symmetry_cell_setting	triclinic
loop_
_symmetry_equiv_pos_as_xyz
  x,y,z
_cell_length_a	14.853568
_cell_length_b	14.853559
_cell_length_c	10.065875
_cell_angle_alpha	98.803502
_cell_angle_beta	98.756360
_cell_angle_gamma	96.366553
loop_
_atom_site_label
_atom_site_type_symbol
_atom_site_fract_x
_atom_site_fract_y
_atom_site_fract_z
O1	O	-1.209522	0.104488	-0.113382
O2	O	-0.947065	0.118505	-0.113407
O3	O	-1.085308	-0.019734	-0.113392
O4	O	-1.071279	0.242726	-0.113397
O5	O	-1.058947	0.006733	0.113594
O6	O	-0.920704	0.144971	0.113579
O7	O	-1.183161	0.130954	0.113604
Zn8	Zn	-1.047747	0.142165	0.149630
Zn9	Zn	-1.082479	0.107294	-0.149433
O10	O	-1.044918	0.269193	0.113589
C11	C	-0.900296	0.131102	0.000083
C12	C	-0.800214	0.129197	0.000073
C13	C	-1.071494	-0.040090	0.000098
C14	C	-1.069594	-0.140175	0.000090
C15	C	-0.391397	0.106718	-0.123638
C16	C	-0.362679	0.135573	0.123831
C17	C	-0.456713	0.137361	0.123828
C18	C	-0.518094	0.123828	0.000090
C19	C	-0.485440	0.108508	-0.123645
C20	C	-0.489373	0.152690	0.247561
C21	C	-0.583412	0.154480	0.247562
C22	C	-0.644795	0.140941	0.123823
C23	C	-0.612137	0.125619	0.000083
C24	C	-0.673517	0.112086	-0.123655
C25	C	-0.640861	0.096758	-0.247396
C26	C	-0.546823	0.094969	-0.247384
C27	C	-0.738833	0.142729	0.123811
C28	C	-0.767560	0.113877	-0.123662
C29	C	-1.075899	-0.577777	-0.123641
C30	C	-1.047160	-0.548917	0.123828
C31	C	-1.048953	-0.454883	0.123829
C32	C	-1.064218	-0.422292	0.000094
C33	C	-1.077691	-0.483735	-0.123643
C34	C	-1.035472	-0.393433	0.247564
C35	C	-1.037264	-0.299393	0.247570
C36	C	-1.052536	-0.266801	0.123833
C37	C	-1.066009	-0.328250	0.000091
C38	C	-1.081275	-0.295659	-0.123644
C39	C	-1.094755	-0.357107	-0.247388
C40	C	-1.092963	-0.451143	-0.247381
C41	C	-1.054328	-0.172766	0.123826
C42	C	-1.083066	-0.201617	-0.123647
C43	C	-0.229931	0.118354	0.000108
C44	C	-0.330016	0.120250	0.000100
C45	C	-1.058733	0.289548	0.000096
C46	C	-1.060634	0.389632	0.000095
N47	N	-1.024050	0.165962	0.353734
N48	N	-1.106183	0.083490	-0.353537
C49	C	-1.074228	0.115569	0.421518
C50	C	-1.055998	0.133891	0.578683
H51	H	-0.817532	0.102854	-0.224425
H52	H	-0.765417	0.155218	0.224559
C53	C	-0.619332	0.171331	0.383665
H54	H	-0.684128	0.170463	0.365943
H55	H	-0.604827	0.124435	0.434507
H56	H	-0.591211	0.229505	0.434504
H57	H	-1.095501	-0.175090	-0.224409
C58	C	-1.150497	0.038957	0.342750
H59	H	-1.179610	0.009713	0.405657
H60	H	-1.194595	0.064876	0.286994
H61	H	-1.124331	-0.004994	0.287019
H62	H	-0.967591	0.222667	0.412054
H63	H	-1.043332	-0.122737	0.224576
C64	C	-1.022448	-0.231811	0.383679
H65	H	-1.013107	-0.264692	0.457370
H66	H	-0.970023	-0.187710	0.388826
H67	H	-1.075092	-0.201347	0.388821
H68	H	-0.999535	0.190600	0.636998
H69	H	-0.690849	0.085746	-0.348143
C70	C	-1.018674	-0.429279	0.383663
H71	H	-1.010892	-0.379216	0.457357
H72	H	-1.069907	-0.472173	0.388819
H73	H	-0.964841	-0.458552	0.388789
C74	C	-1.111548	-0.321250	-0.383489
H75	H	-1.110686	-0.256445	-0.365758
H76	H	-1.064633	-0.335779	-0.434344
H77	H	-1.169700	-0.349393	-0.434318
H78	H	-1.162640	0.026774	0.588148
H79	H	-1.103937	-0.501181	-0.348126
H80	H	-0.364804	0.094234	-0.224385
C81	C	-0.510898	0.078121	-0.383483
H82	H	-0.446100	0.079005	-0.365753
H83	H	-0.539015	0.019956	-0.434332
H84	H	-0.525399	0.125027	-0.434318
H85	H	-1.086878	-0.627812	-0.224390
C86	C	-0.421896	0.167271	0.383658
H87	H	-0.361228	0.163905	0.365936
H88	H	-0.424455	0.225964	0.434793
H89	H	-0.438379	0.120831	0.434201
H90	H	-0.312697	0.146597	0.224573
C91	C	-1.030373	-0.584766	0.259925
H92	H	-1.031241	-0.649572	0.242204
H93	H	-0.972234	-0.556616	0.310770
H94	H	-1.077304	-0.570242	0.310760
