data_functionalizedCrystal
_audit_creation_method	'MofGen! by Chris Wilmer'
_symmetry_space_group_name_H-M	'P1'
_symmetry_Int_Tables_number	1
_symmetry_cell_setting	triclinic
loop_
_symmetry_equiv_pos_as_xyz
  x,y,z
_cell_length_a	20.919320
_cell_length_b	14.446369
_cell_length_c	14.446369
_cell_angle_alpha	59.995450
_cell_angle_beta	90.001398
_cell_angle_gamma	57.444663
loop_
_atom_site_label
_atom_site_type_symbol
_atom_site_fract_x
_atom_site_fract_y
_atom_site_fract_z
Zr1	Zr	0.641765	0.940929	-0.085331
O2	O	0.535394	1.146043	-0.239148
O3	O	0.674373	0.744133	-0.038171
O4	O	0.674371	0.937262	-0.231301
O5	O	0.535397	0.952904	0.106319
O6	O	0.784000	0.924908	-0.225118
O7	O	0.535395	0.952913	-0.046019
O8	O	0.784003	0.579434	0.120356
O9	O	0.535395	1.298378	-0.239155
O10	O	0.770095	0.812777	-0.013451
O11	O	0.688282	0.821991	0.095622
O12	O	0.688280	1.049376	-0.131764
O13	O	0.606467	1.058589	-0.022690
Zr14	Zr	0.816614	0.921212	0.167491
Zr15	Zr	0.816611	0.921226	-0.075469
Zr16	Zr	0.641768	0.940915	0.157630
Zr17	Zr	0.641767	1.183886	-0.085342
Zr18	Zr	0.816612	0.678254	0.167502
O19	O	0.784006	1.118008	0.120331
O20	O	0.784002	1.118028	-0.225127
O21	O	0.535398	1.146023	0.106310
O22	O	0.922985	0.716098	0.321309
O23	O	0.922980	0.716117	-0.024150
O24	O	0.674377	0.744113	0.307287
O25	O	0.922982	0.909236	-0.024158
O26	O	0.784007	0.924878	0.313461
O27	O	0.674378	0.937232	0.307278
O28	O	0.922984	0.909228	0.128179
O29	O	0.674374	1.282717	-0.231317
O30	O	0.784005	0.579424	0.313477
O31	O	0.922984	0.563762	0.321315
O32	O	0.922981	0.563773	0.128194
O33	O	0.535397	1.298368	-0.046034
O34	O	0.674376	1.282706	-0.038196
O35	O	0.770098	0.812765	0.213924
O36	O	0.851912	0.803551	0.104851
O37	O	0.770097	1.040150	-0.013462
O38	O	0.688283	1.049363	0.095612
C39	C	0.729187	0.627167	0.041094
C40	C	0.729187	0.524025	0.041099
C41	C	0.677834	0.382798	0.110233
C42	C	0.677555	0.490450	0.109926
C43	C	0.691543	0.577270	-0.084566
C44	C	0.691157	0.470081	-0.084214
C45	C	0.818219	0.280532	0.096568
C46	C	0.818089	0.386697	0.099081
C47	C	0.510484	0.955716	0.028745
C48	C	0.436258	0.964080	0.024559
C49	C	0.014290	1.017628	-0.002189
C50	C	0.084037	1.009758	0.001747
C51	C	0.161615	0.882319	0.065466
C52	C	0.169444	0.762742	0.125264
C53	C	0.099698	0.770613	0.121334
C54	C	0.374341	0.852375	0.080427
C55	C	0.444089	0.844512	0.084349
C56	C	0.358677	1.091530	-0.039167
C57	C	0.288933	1.099389	-0.043096
C58	C	0.296768	0.979813	0.016706
C59	C	0.232909	0.874272	0.069488
C60	C	0.225475	0.987861	0.012690
C61	C	0.947894	0.906425	0.053415
C62	C	1.022121	0.898060	0.057602
C63	C	0.729185	0.931087	-0.262826
C64	C	0.729184	0.931093	-0.365969
C65	C	0.729191	1.234973	0.041066
C66	C	0.729192	1.338115	0.041062
C67	C	0.677334	1.080329	-0.587269
C68	C	0.677553	1.080401	-0.480025
C69	C	0.818084	0.849844	-0.364276
C70	C	0.817806	0.850785	-0.472060
C71	C	0.692870	0.861911	-0.477743
C72	C	0.691065	0.864817	-0.371876
C73	C	0.729193	0.931053	0.344986
C74	C	0.729195	0.931047	0.448129
C75	C	0.947893	0.602522	0.053429
C76	C	1.022118	0.491015	0.057620
C77	C	0.729191	0.627150	0.345000
C78	C	0.729192	0.524002	0.448148
C79	C	0.947896	0.602504	0.357335
C80	C	1.022124	0.490992	0.464669
C81	C	0.510482	1.259636	-0.275175
C82	C	0.436255	1.371148	-0.382509
C83	C	0.510486	1.259619	0.028731
C84	C	0.436260	1.371125	0.024540
C85	C	0.729187	1.234991	-0.262840
C86	C	0.729187	1.338138	-0.365988
C87	C	1.014268	0.443466	-0.002174
C88	C	1.084005	0.338708	0.001741
C89	C	1.161590	0.281494	0.065457
C90	C	1.169439	0.329053	0.125253
C91	C	1.099703	0.433816	0.121331
C92	C	1.099695	0.433815	0.458140
C93	C	1.169446	0.329050	0.558983
C94	C	1.161624	0.281458	0.666354
C95	C	1.084045	0.338646	0.672881
C96	C	1.014296	0.443415	0.572039
C97	C	0.358684	1.428337	-0.375980
C98	C	0.288933	1.533132	-0.476823
C99	C	0.296755	1.580730	-0.584194
C100	C	0.374334	1.523536	-0.590721
C101	C	0.444083	1.418749	-0.489879
C102	C	0.444110	1.418684	0.084324
C103	C	0.374374	1.523469	0.080383
C104	C	0.296788	1.580686	0.016663
C105	C	0.288940	1.533123	-0.043129
C106	C	0.358676	1.428347	-0.039193
C107	C	0.677342	0.383523	0.520217
C108	C	0.677561	0.490430	0.412890
C109	C	0.818092	0.387123	0.527725
C110	C	0.817814	0.279768	0.634579
C111	C	0.692880	0.468819	0.629111
C112	C	0.691074	0.577504	0.520327
H113	H	0.612552	0.425919	0.071845
H114	H	0.352300	1.389591	-0.288562
H115	H	0.611886	0.586653	0.071223
H116	H	1.077688	0.299881	0.760316
F117	F	0.608609	0.530037	0.629740
F118	F	0.526677	1.357811	0.152145
H119	H	0.625645	0.518163	-0.128324
F120	F	0.222576	1.692198	0.012486
H121	H	0.380780	1.562177	0.129077
F122	F	0.742010	0.430872	0.734127
F123	F	1.252018	0.268144	0.193064
H124	H	0.951136	0.489957	0.577371
F125	F	-0.068271	1.153268	-0.070016
H126	H	0.625571	0.924135	-0.376091
H127	H	0.232614	0.658979	0.177151
H128	H	0.702806	0.450889	0.202322
F129	F	0.854849	0.330782	0.220118
F130	F	1.108070	0.484402	0.184984
H131	H	0.628399	0.915072	-0.531404
H132	H	0.077654	1.107123	-0.046956
F133	F	0.526638	1.357887	-0.496846
F134	F	0.855820	0.156863	0.636371
F135	F	0.741918	0.718336	-0.439261
F136	F	0.868470	0.240924	0.031118
H137	H	0.846885	0.898132	-0.520768
H138	H	1.077598	0.300000	-0.046953
H139	H	0.380693	1.562303	-0.678154
F140	F	0.870791	0.410256	0.566292
H141	H	0.951100	0.490049	-0.054073
H142	H	0.847375	0.345269	0.477769
F143	F	0.206361	1.594030	-0.110938
H144	H	0.625581	0.675382	0.465206
H145	H	1.106079	0.472548	0.370723
F146	F	0.206371	1.235028	-0.110906
H147	H	0.352307	1.188882	-0.087853
F148	F	1.235803	0.169995	0.069622
H149	H	0.507258	0.740731	0.136268
H150	H	0.724921	0.605814	0.547758
H151	H	0.296080	0.770511	0.121366
F152	F	0.222514	1.692254	-0.691511
H153	H	0.726148	0.444172	-0.138854
F154	F	0.710675	0.262941	0.231298
F155	F	0.382689	0.725109	0.144079
F156	F	0.350308	1.377736	-0.102821
F157	F	0.591995	0.616865	0.337117
H158	H	0.849670	0.183236	0.187913
H159	H	0.611712	0.428158	0.514179
H160	H	0.702303	0.291044	0.520593
H161	H	0.727153	0.602046	-0.138576
F162	F	0.710491	0.437759	0.344437
H163	H	1.232608	0.282498	0.553648
F164	F	0.871069	0.234595	0.740301
F165	F	0.108035	0.643353	0.184974
F166	F	1.235865	0.169950	0.773671
H167	H	0.225772	1.579683	-0.471486
F168	F	0.142911	1.123487	-0.055117
H169	H	0.626658	0.676892	-0.128917
F170	F	0.871060	0.707234	-0.434217
H171	H	0.859578	0.403526	0.054390
H172	H	0.612089	1.143679	-0.485343
H173	H	0.611702	1.144018	-0.644925
H174	H	0.702296	1.133535	-0.640844
H175	H	0.702749	1.133805	-0.481060
H176	H	0.858399	0.739797	-0.283729
F177	F	0.856362	0.910196	-0.359330
F178	F	0.735303	0.723000	-0.265908
