data_functionalizedCrystal
_audit_creation_method	'MofGen! by Chris Wilmer'
_symmetry_space_group_name_H-M	'P1'
_symmetry_Int_Tables_number	1
_symmetry_cell_setting	triclinic
loop_
_symmetry_equiv_pos_as_xyz
  x,y,z
_cell_length_a	15.995350
_cell_length_b	17.666332
_cell_length_c	15.995343
_cell_angle_alpha	89.988805
_cell_angle_beta	96.509220
_cell_angle_gamma	90.005705
loop_
_atom_site_label
_atom_site_type_symbol
_atom_site_fract_x
_atom_site_fract_y
_atom_site_fract_z
O1	O	1.110988	0.062892	-0.107928
O2	O	0.867213	0.062909	-0.121256
O3	O	0.995768	0.062886	0.007296
O4	O	0.982433	0.062915	-0.236480
O5	O	0.995745	-0.063011	0.007303
O6	O	0.867190	-0.062988	-0.121249
O7	O	1.110966	-0.063004	-0.107922
Cu8	Cu	0.989076	-0.074492	-0.114585
Cu9	Cu	0.989102	0.074396	-0.114593
O10	O	0.982411	-0.062982	-0.236473
C11	C	0.836007	-0.000038	-0.120702
C12	C	0.743056	-0.000032	-0.119050
N13	N	0.989063	-0.179211	-0.114578
C14	C	0.405309	-0.000048	-0.113118
C15	C	0.452746	-0.000340	-0.021565
C16	C	0.549436	-0.000051	-0.023217
C17	C	0.572869	-0.000041	-0.116060
C18	C	0.531794	0.071855	-0.161221
C19	C	0.435158	0.071910	-0.158921
C20	C	0.434794	-0.071258	-0.160805
C21	C	0.531739	-0.072203	-0.160783
C22	C	0.667567	-0.000034	-0.117728
C23	C	0.310611	-0.000050	-0.111452
C24	C	1.046006	-0.218831	-0.057684
C25	C	1.046011	-0.298078	-0.057680
C26	C	0.989081	-0.337703	-0.114585
C27	C	0.932128	-0.298074	-0.171484
C28	C	0.932119	-0.218828	-0.171481
N29	N	0.978421	-0.462113	-0.188673
N30	N	0.978434	-0.537393	-0.188674
C31	C	0.989103	-0.576467	-0.114597
N32	N	0.999774	-0.537417	-0.040517
N33	N	0.999765	-0.462130	-0.040517
C34	C	0.989084	-0.423632	-0.114594
C35	C	1.046054	-0.702016	-0.057693
C36	C	1.046053	-0.781265	-0.057687
C37	C	0.932174	-0.781259	-0.171499
C38	C	0.932171	-0.702012	-0.171497
C39	C	0.989115	-0.662395	-0.114595
C40	C	1.142172	-0.000056	-0.108476
C41	C	1.235122	-0.000057	-0.110128
C42	C	0.995206	-0.000064	0.038494
C43	C	0.993557	-0.000070	0.131445
N44	N	0.989122	0.179115	-0.114592
C45	C	0.982972	-0.000030	-0.267672
C46	C	0.984621	-0.000019	-0.360622
C47	C	0.990563	-0.000053	0.301631
C48	C	0.897766	-0.000045	0.324977
C49	C	0.896021	0.000250	0.421655
C50	C	0.987615	-0.000036	0.469191
C51	C	1.034288	0.071709	0.440088
C52	C	1.035388	0.071761	0.343296
C53	C	1.036721	-0.071412	0.343408
C54	C	1.033295	-0.072347	0.439903
C55	C	0.985953	-0.000025	0.563889
C56	C	0.992228	-0.000059	0.206933
H57	H	0.577856	-0.051589	0.012281
H58	H	0.861788	-0.051488	0.296977
H59	H	1.103440	0.074814	0.328722
C60	C	0.426277	0.068910	0.027651
N61	N	0.406338	0.121069	0.064719
C62	C	0.552506	-0.078069	-0.252244
N63	N	0.568153	-0.082486	-0.321133
C64	C	1.108638	-0.175257	0.004919
N65	N	1.155811	-0.142436	0.052075
H66	H	0.885806	-0.669751	-0.217830
C67	C	1.125356	0.075042	0.483114
N68	N	1.193948	0.077551	0.515524
C69	C	1.108663	-0.341669	0.004903
N70	N	1.155856	-0.374499	0.052038
H71	H	0.862393	0.051333	0.295985
H72	H	0.859478	-0.051165	0.440681
H73	H	0.859679	0.051989	0.440084
C74	C	0.427703	-0.069993	0.027879
N75	N	0.408834	-0.122457	0.065122
C76	C	0.987381	-0.144055	0.464988
N77	N	0.952797	-0.198065	0.483887
H78	H	0.414249	-0.125753	-0.130871
H79	H	1.003462	0.125601	0.316502
C80	C	1.128995	-0.072358	0.324472
N81	N	1.198493	-0.073065	0.310204
C82	C	0.869551	-0.824842	-0.234097
N83	N	0.822381	-0.857672	-0.281247
H84	H	1.002282	0.125312	0.460170
H85	H	0.403030	-0.071737	-0.228305
H86	H	0.559047	-0.125391	-0.127816
C87	C	1.123589	-0.078499	0.484415
N88	N	1.191601	-0.083129	0.517944
H89	H	1.007434	-0.125813	0.315146
H90	H	1.092420	-0.813524	-0.011352
H91	H	0.577304	0.051569	0.012515
H92	H	0.885773	-0.330340	-0.217816
H93	H	0.885748	-0.186568	-0.217812
H94	H	0.416860	0.125646	-0.125993
H95	H	0.402908	0.075180	-0.226137
H96	H	0.545917	0.074536	-0.229430
H97	H	0.560179	0.125354	-0.129860
C98	C	1.108686	-0.658435	0.004908
N99	N	1.155859	-0.625612	0.052061
