data_functionalizedCrystal
_audit_creation_method	'MofGen! by Chris Wilmer'
_symmetry_space_group_name_H-M	'P1'
_symmetry_Int_Tables_number	1
_symmetry_cell_setting	triclinic
loop_
_symmetry_equiv_pos_as_xyz
  x,y,z
_cell_length_a	18.215407
_cell_length_b	18.215405
_cell_length_c	18.215399
_cell_angle_alpha	89.970580
_cell_angle_beta	90.020595
_cell_angle_gamma	89.976259
loop_
_atom_site_label
_atom_site_type_symbol
_atom_site_fract_x
_atom_site_fract_y
_atom_site_fract_z
Zn1	Zn	-1.125077	-0.292993	-0.416123
Zn2	Zn	-1.124988	-0.416065	-0.293054
Zn3	Zn	-1.002010	-0.293016	-0.293069
Zn4	Zn	-1.001978	-0.416023	-0.416077
O5	O	-1.063513	-0.354524	-0.354581
O6	O	-1.228050	-0.309327	-0.399811
O7	O	-1.108651	-0.399769	-0.190072
O8	O	-1.018386	-0.190029	-0.309418
O9	O	-1.227984	-0.399747	-0.309392
O10	O	-1.108803	-0.190012	-0.399826
O11	O	-1.018299	-0.309366	-0.190083
O12	O	-0.899021	-0.309325	-0.309373
O13	O	-1.018332	-0.399675	-0.519068
O14	O	-0.898998	-0.399697	-0.399747
O15	O	-1.108772	-0.309286	-0.519102
O16	O	-1.108620	-0.519043	-0.309347
O17	O	-1.018245	-0.519012	-0.399732
C18	C	-0.872307	-0.354510	-0.354557
C19	C	-0.790508	-0.354521	-0.354565
C20	C	-1.063439	-0.545731	-0.354549
C21	C	-1.063475	-0.627529	-0.354560
C22	C	-0.602321	-0.401650	-0.401560
C23	C	-0.525463	-0.401652	-0.401569
C24	C	-0.525457	-0.307402	-0.307604
C25	C	-0.602315	-0.307397	-0.307600
C26	C	-0.640745	-0.354526	-0.354577
C27	C	-0.487029	-0.354532	-0.354589
C28	C	-0.403695	-0.354533	-0.354598
C29	C	-0.724084	-0.354524	-0.354570
C30	C	-0.255466	-0.354537	-0.354602
C31	C	-0.337265	-0.354536	-0.354602
C32	C	-1.110671	-0.892579	-0.307596
C33	C	-1.110641	-0.815720	-0.307580
C34	C	-1.016447	-0.815729	-0.401615
C35	C	-1.016474	-0.892586	-0.401628
C36	C	-1.063590	-0.931009	-0.354619
C37	C	-1.063533	-0.777293	-0.354590
C38	C	-1.063500	-0.693959	-0.354572
C39	C	-1.063623	-1.014348	-0.354636
C40	C	-1.063558	-0.354473	-0.546534
C41	C	-1.063577	-0.354452	-0.628333
C42	C	-1.063608	-0.162571	-0.354629
C43	C	-1.063648	-0.080772	-0.354649
C44	C	-1.110687	-0.307342	-0.816546
C45	C	-1.110695	-0.307321	-0.893404
C46	C	-1.016520	-0.401448	-0.893358
C47	C	-1.016508	-0.401465	-0.816500
C48	C	-1.063596	-0.354413	-0.778096
C49	C	-1.063616	-0.354375	-0.931813
C50	C	-1.063625	-0.354352	-1.015146
C51	C	-1.063586	-0.354435	-0.694757
C52	C	-1.063511	-0.354522	-0.163375
C53	C	-1.063635	-0.354336	-0.081576
H54	H	-0.633609	-0.440024	-0.439814
H55	H	-0.633600	-0.269018	-0.269341
H56	H	-0.494158	-0.269033	-0.269356
H57	H	-1.149026	-0.269028	-0.785279
H58	H	-1.149035	-0.923860	-0.269319
H59	H	-1.148977	-0.784432	-0.269288
H60	H	-0.494182	-0.440025	-0.439828
H61	H	-0.978132	-0.923877	-0.439921
H62	H	-0.978087	-0.784437	-0.439889
H63	H	-1.149040	-0.268990	-0.924706
H64	H	-0.978185	-0.439757	-0.924636
H65	H	-0.978156	-0.439795	-0.785194
