data_functionalizedCrystal
_audit_creation_method	'MofGen! by Chris Wilmer'
_symmetry_space_group_name_H-M	'P1'
_symmetry_Int_Tables_number	1
_symmetry_cell_setting	triclinic
loop_
_symmetry_equiv_pos_as_xyz
  x,y,z
_cell_length_a	10.489716
_cell_length_b	13.101039
_cell_length_c	14.044190
_cell_angle_alpha	93.663707
_cell_angle_beta	91.139544
_cell_angle_gamma	93.391327
loop_
_atom_site_label
_atom_site_type_symbol
_atom_site_fract_x
_atom_site_fract_y
_atom_site_fract_z
O1	O	-1.714066	-0.085219	0.128536
O2	O	-1.214066	0.414781	0.628536
O3	O	-1.344144	-0.085224	0.141122
O4	O	-0.844144	0.414776	0.641122
O5	O	-1.523546	-0.085201	-0.003192
O6	O	-1.023546	0.414799	0.496808
O7	O	-1.534664	-0.085241	0.272850
O8	O	-1.034664	0.414759	0.772850
O9	O	-1.510676	0.085227	0.007180
O10	O	-1.010676	0.585227	0.507180
O11	O	-1.331274	0.085204	0.151494
O12	O	-0.831274	0.585204	0.651494
O13	O	-1.701196	0.085210	0.138907
O14	O	-1.201196	0.585210	0.638907
Zn15	Zn	-1.514192	0.112266	0.146847
Zn16	Zn	-1.014192	0.612266	0.646847
Zn17	Zn	-1.531148	-0.112280	0.133182
Zn18	Zn	-1.031148	0.387720	0.633182
O19	O	-1.521794	0.085187	0.283222
O20	O	-1.021794	0.585187	0.783222
C21	C	-1.290081	-0.000010	0.145362
C22	C	-0.790081	0.499990	0.645362
C23	C	-1.148163	-0.000011	0.142533
C24	C	-0.648163	0.499989	0.642533
C25	C	-1.512249	0.000016	-0.033353
C26	C	-1.012249	0.500016	0.466647
C27	C	-1.497745	0.000025	-0.138677
C28	C	-0.997745	0.500025	0.361323
C29	C	-1.755259	-0.000006	0.134667
C30	C	-1.255259	0.499994	0.634667
C31	C	-1.897178	-0.000012	0.137496
C32	C	-1.397178	0.499988	0.637496
C33	C	-1.059469	-0.000026	0.231031
C34	C	-0.559469	0.499974	0.731031
C35	C	-0.971032	0.084015	0.189381
C36	C	-0.471032	0.584015	0.689381
C37	C	-0.983725	-0.084014	0.179134
C38	C	-0.483725	0.415986	0.679134
C39	C	-1.061590	0.084100	0.100924
C40	C	-0.561590	0.584100	0.600924
C41	C	-1.074295	-0.084005	0.090686
C42	C	-0.574295	0.415995	0.590686
C43	C	-0.985899	0.000057	0.048972
C44	C	-0.485899	0.500057	0.548972
N45	N	-1.502628	0.265513	0.156173
N46	N	-1.002628	0.765513	0.656173
N47	N	-1.542721	-0.265527	0.123849
N48	N	-1.042721	0.234473	0.623849
C49	C	-1.486897	0.474554	0.168869
C50	C	-0.986897	0.974554	0.668869
C51	C	-1.558448	0.525439	0.111156
C52	C	-1.058448	1.025439	0.611156
C53	C	-1.549695	0.641756	0.118220
C54	C	-1.049695	1.141756	0.618220
C55	C	-1.495649	0.358226	0.161806
C56	C	-0.995649	0.858226	0.661806
C57	C	-1.574094	-0.000014	-0.388450
C58	C	-1.074094	0.499986	0.111550
C59	C	-1.471253	-0.000009	-0.331516
C60	C	-0.971253	0.499991	0.168484
C61	C	-1.485996	0.000010	-0.224210
C62	C	-0.985996	0.500010	0.275790
C63	C	-1.559352	-0.000033	-0.495765
C64	C	-1.059352	0.499967	0.004235
C65	C	-1.533091	-0.000032	0.313383
C66	C	-1.033091	0.499968	0.813383
C67	C	-1.547596	-0.000048	0.418706
C68	C	-1.047596	0.499952	0.918706
H69	H	-1.091944	0.000041	0.308016
H70	H	-0.591944	0.500041	0.808016
O71	O	-1.692374	-0.000180	-0.350520
O72	O	-1.192374	0.499820	0.149480
C73	C	-1.765763	-0.088432	-0.386382
C74	C	-1.265763	0.411568	0.113618
H75	H	-1.699450	-0.150136	-0.411262
H76	H	-1.199450	0.349864	0.088738
H77	H	-1.828986	-0.118042	-0.327785
H78	H	-1.328986	0.381958	0.172215
H79	H	-1.828197	-0.068481	-0.449095
H80	H	-1.328197	0.431519	0.050905
O81	O	-1.352926	0.000126	-0.369381
O82	O	-0.852926	0.500126	0.130619
C83	C	-1.279584	0.088413	-0.333547
C84	C	-0.779584	0.588413	0.166453
H85	H	-1.319804	0.117847	-0.262847
H86	H	-0.819804	0.617847	0.237153
H87	H	-1.176316	0.068570	-0.321868
H88	H	-0.676316	0.568570	0.178132
H89	H	-1.283323	0.150212	-0.386948
H90	H	-0.783323	0.650212	0.113052
O91	O	-1.639098	0.473043	0.045789
O92	O	-1.139098	0.973043	0.545789
C93	C	-1.629791	0.366888	0.053053
C94	C	-1.129791	0.866888	0.553053
H95	H	-1.592244	0.352286	0.127383
H96	H	-1.092244	0.852286	0.627383
H97	H	-1.728154	0.325914	0.040315
H98	H	-1.228154	0.825914	0.540315
H99	H	-1.561454	0.336623	-0.002666
H100	H	-1.061454	0.836623	0.497334
O101	O	-0.917406	0.168865	0.239021
O102	O	-0.417406	0.668865	0.739021
C103	C	-0.958737	0.257332	0.198564
C104	C	-0.458737	0.757332	0.698564
H105	H	-1.052867	0.237762	0.157647
H106	H	-0.552867	0.737762	0.657647
H107	H	-0.973058	0.319095	0.257658
H108	H	-0.473058	0.819095	0.757658
H109	H	-0.883709	0.286677	0.147674
H110	H	-0.383709	0.786677	0.647674
H111	H	-1.095747	0.155220	0.067915
H112	H	-0.595747	0.655220	0.567915
H113	H	-0.953648	0.000117	-0.028062
H114	H	-0.453648	0.500117	0.471938
H115	H	-0.949398	-0.155054	0.212188
H116	H	-0.449398	0.344946	0.712188
O117	O	-1.128036	-0.168858	0.041132
O118	O	-0.628036	0.331142	0.541132
C119	C	-1.088509	-0.257289	0.082665
C120	C	-0.588509	0.242711	0.582665
H121	H	-1.058320	-0.237164	0.160344
H122	H	-0.558320	0.262836	0.660344
H123	H	-1.170925	-0.318267	0.079220
H124	H	-0.670925	0.181733	0.579220
H125	H	-1.004325	-0.287943	0.042017
H126	H	-0.504325	0.212057	0.542017
H127	H	-1.419072	0.518342	0.223582
H128	H	-0.919072	1.018342	0.723582
