data_functionalizedCrystal
_audit_creation_method	'MofGen! by Chris Wilmer'
_symmetry_space_group_name_H-M	'P1'
_symmetry_Int_Tables_number	1
_symmetry_cell_setting	triclinic
loop_
_symmetry_equiv_pos_as_xyz
  x,y,z
_cell_length_a	10.654550
_cell_length_b	17.699083
_cell_length_c	9.730223
_cell_angle_alpha	89.994713
_cell_angle_beta	89.999957
_cell_angle_gamma	83.883973
loop_
_atom_site_label
_atom_site_type_symbol
_atom_site_fract_x
_atom_site_fract_y
_atom_site_fract_z
O1	O	1.665978	0.106302	-0.114190
O2	O	2.165978	0.606302	0.385810
O3	O	1.300323	0.116430	-0.114216
O4	O	1.800323	0.616430	0.385784
O5	O	1.493481	0.001243	-0.114190
O6	O	1.993481	0.501243	0.385810
O7	O	1.472820	0.221490	-0.114216
O8	O	1.972820	0.721490	0.385784
O9	O	1.493469	0.001240	0.114390
O10	O	1.993469	0.501240	0.614390
O11	O	1.300310	0.116427	0.114364
O12	O	1.800310	0.616427	0.614364
O13	O	1.665966	0.106299	0.114390
O14	O	2.165966	0.606299	0.614390
Zn15	Zn	1.483136	0.111363	0.150669
Zn16	Zn	1.983136	0.611363	0.650669
Zn17	Zn	1.483152	0.111367	-0.150495
Zn18	Zn	1.983152	0.611367	0.349505
O19	O	1.472807	0.221487	0.114364
O20	O	1.972807	0.721487	0.614364
C21	C	1.253531	0.115685	0.000071
C22	C	1.753531	0.615685	0.500071
C23	C	1.114127	0.113460	0.000061
C24	C	1.614127	0.613460	0.500061
C25	C	1.033454	0.181281	0.000058
C26	C	1.533454	0.681281	0.500058
C27	C	0.902470	0.179186	0.000082
C28	C	1.402470	0.679186	0.500082
C29	C	0.932844	0.041444	0.000108
C30	C	1.432844	0.541444	0.500108
C31	C	1.063826	0.043539	0.000094
C32	C	1.563826	0.543539	0.500094
C33	C	1.492735	-0.026960	0.000100
C34	C	1.992735	0.473040	0.500100
C35	C	1.490514	-0.110993	0.000100
C36	C	1.990514	0.389007	0.500100
C37	C	1.603894	-0.158893	0.000110
C38	C	2.103894	0.341107	0.500110
C39	C	1.601799	-0.237849	0.000098
C40	C	2.101799	0.262151	0.500098
C41	C	1.486323	-0.268904	0.000085
C42	C	1.986323	0.231096	0.500085
C43	C	1.372935	-0.220998	0.000071
C44	C	1.872935	0.279002	0.500071
C45	C	1.375030	-0.142043	0.000074
C46	C	1.875030	0.357957	0.500074
C47	C	1.364481	-0.539415	0.000060
C48	C	1.864481	-0.039415	0.500060
C49	C	1.362394	-0.618376	0.000061
C50	C	1.862394	-0.118376	0.500061
C51	C	1.591249	-0.635221	0.000083
C52	C	2.091249	-0.135221	0.500083
C53	C	1.593345	-0.556266	0.000086
C54	C	2.093345	-0.056266	0.500086
C55	C	1.479957	-0.508367	0.000065
C56	C	1.979957	-0.008367	0.500065
C57	C	1.482229	-0.422753	0.000075
C58	C	1.982229	0.077247	0.500075
C59	C	1.484050	-0.354516	0.000085
C60	C	1.984050	0.145484	0.500085
C61	C	1.712757	0.107045	0.000100
C62	C	2.212757	0.607045	0.500100
C63	C	1.852161	0.109269	0.000100
C64	C	2.352161	0.609269	0.500100
C65	C	1.473554	0.249690	0.000071
C66	C	1.973554	0.749690	0.500071
C67	C	1.475775	0.333722	0.000061
C68	C	1.975775	0.833722	0.500061
N69	N	1.483134	0.111359	0.356205
N70	N	1.983134	0.611359	0.856205
N71	N	1.483164	0.111364	-0.356032
N72	N	1.983164	0.611364	0.143968
C73	C	1.568694	0.060376	0.428142
C74	C	2.068694	0.560376	0.928142
C75	C	1.568706	0.060376	0.572025
C76	C	2.068706	0.560376	1.072025
C77	C	1.397596	0.162350	0.572021
C78	C	1.897596	0.662350	1.072021
C79	C	1.397578	0.162345	0.428141
C80	C	1.897578	0.662345	0.928141
H81	H	1.129514	-0.011692	0.000101
H82	H	1.629514	0.488308	0.500101
Cl83	Cl	1.749072	-0.119861	0.000140
Cl84	Cl	2.249072	0.380139	0.500140
H85	H	1.694125	-0.276847	0.000109
H86	H	2.194125	0.223153	0.500109
Cl87	Cl	1.738520	-0.517230	0.000097
Cl88	Cl	2.238520	-0.017230	0.500097
H89	H	1.638357	0.018859	0.369576
H90	H	2.138357	0.518859	0.869576
H91	H	1.638375	0.018860	0.630593
H92	H	2.138375	0.518860	1.130593
H93	H	1.683575	-0.674231	0.000094
H94	H	2.183575	-0.174231	0.500094
Cl95	Cl	0.801058	0.264450	0.000078
Cl96	Cl	1.301058	0.764450	0.500078
H97	H	1.268354	-0.643657	0.000054
H98	H	1.768354	-0.143657	0.500054
Cl99	Cl	0.869599	-0.046452	0.000140
Cl100	Cl	1.369599	0.453548	0.500140
Cl101	Cl	1.096686	0.269181	0.000026
Cl102	Cl	1.596686	0.769181	0.500026
Cl103	Cl	1.221935	-0.479209	0.000030
Cl104	Cl	1.721935	0.020791	0.500030
Cl105	Cl	1.227764	-0.260039	0.000039
Cl106	Cl	1.727764	0.239961	0.500039
Cl107	Cl	1.232489	-0.081825	0.000056
Cl108	Cl	1.732489	0.418175	0.500056
Cl109	Cl	1.290049	0.226447	0.662461
Cl110	Cl	1.790049	0.726447	1.162461
H111	H	1.327900	0.203862	0.369565
H112	H	1.827900	0.703862	0.869565
