data_functionalizedCrystal
_audit_creation_method	'MofGen! by Chris Wilmer'
_symmetry_space_group_name_H-M	'P1'
_symmetry_Int_Tables_number	1
_symmetry_cell_setting	triclinic
loop_
_symmetry_equiv_pos_as_xyz
  x,y,z
_cell_length_a	27.732048
_cell_length_b	10.489741
_cell_length_c	8.965430
_cell_angle_alpha	89.998489
_cell_angle_beta	89.998522
_cell_angle_gamma	83.590914
loop_
_atom_site_label
_atom_site_type_symbol
_atom_site_fract_x
_atom_site_fract_y
_atom_site_fract_z
O1	O	-0.641885	-0.151745	-0.123847
O2	O	-0.501237	-0.174819	-0.123892
O3	O	-0.574762	0.022456	-0.123859
O4	O	-0.568361	-0.349021	-0.123879
O5	O	-0.574755	0.022440	0.124220
O6	O	-0.501231	-0.174836	0.124187
O7	O	-0.641878	-0.151761	0.124232
Cu8	Cu	-0.571554	-0.163300	0.146861
Cu9	Cu	-0.571562	-0.163281	-0.146521
O10	O	-0.568354	-0.349037	0.124200
C11	C	-0.574275	0.069959	0.000179
C12	C	-0.572828	0.211525	0.000176
C13	C	-0.483224	-0.174343	0.000142
C14	C	-0.429560	-0.172885	0.000125
C15	C	-0.659892	-0.152237	0.000195
C16	C	-0.713556	-0.153696	0.000202
C17	C	-0.091423	-0.280280	0.000184
C18	C	0.110271	-0.274868	0.000198
O19	O	0.140907	-0.373073	0.000257
N20	N	0.130133	-0.157892	0.000201
C21	C	0.099568	-0.042260	0.000211
O22	O	0.121090	0.057360	0.000230
C23	C	-0.102124	-0.047673	0.000208
C24	C	-0.121984	-0.164657	0.000190
C25	C	-0.111282	-0.397254	0.000167
C26	C	-0.161703	-0.398606	0.000155
C27	C	-0.192264	-0.282983	0.000161
C28	C	-0.172404	-0.166008	0.000178
C29	C	-0.132688	0.067958	0.000229
C30	C	-0.183114	0.066594	0.000232
C31	C	-0.202973	-0.050390	0.000213
C32	C	-0.253385	-0.051737	0.000172
N33	N	-0.273247	-0.168714	0.000168
C34	C	-0.242687	-0.284336	0.000163
C35	C	0.205460	-0.039426	0.000210
C36	C	0.255883	-0.038073	0.000208
C37	C	0.266583	-0.270682	0.000197
C38	C	0.216159	-0.272034	0.000188
C39	C	0.185598	-0.156403	0.000206
C40	C	-0.348574	-0.287166	0.000137
C41	C	-0.398999	-0.288508	0.000120
C42	C	-0.409694	-0.055900	0.000138
C43	C	-0.359273	-0.054557	0.000148
C44	C	-0.328714	-0.170201	0.000153
O45	O	-0.284050	0.046415	0.000129
O46	O	-0.264218	-0.383942	0.000177
C47	C	-0.041002	-0.278928	0.000196
C48	C	-0.021143	-0.161954	0.000213
C49	C	-0.051703	-0.046331	0.000218
C50	C	0.029280	-0.160600	0.000211
C51	C	0.059841	-0.276223	0.000205
C52	C	0.039979	-0.393199	0.000202
C53	C	-0.010441	-0.394551	0.000190
C54	C	-0.031841	0.070646	0.000222
C55	C	0.018580	0.071988	0.000232
C56	C	0.049140	-0.043635	0.000226
C57	C	-0.568841	-0.396539	0.000158
C58	C	-0.570287	-0.538105	0.000151
N59	N	-0.571552	-0.163312	0.353210
C60	C	-0.526047	0.277609	0.000150
C61	C	-0.548143	0.370694	0.122473
C62	C	-0.548161	0.370686	-0.122113
C63	C	-0.594943	0.302746	0.122600
C64	C	-0.594955	0.302727	-0.122096
C65	C	-0.617084	0.395787	0.000256
N66	N	-0.571568	-0.163258	-0.352870
C67	C	-0.537832	-0.255234	0.549905
C68	C	-0.527656	-0.140537	0.450443
C69	C	-0.581706	-0.278001	0.450464
C70	C	-0.561370	-0.048503	0.549857
C71	C	-0.615439	-0.186042	0.549887
C72	C	-0.605281	-0.071261	0.450470
H73	H	-0.323698	-0.381334	0.000146
H74	H	-0.633805	0.006581	0.407087
O75	O	-0.029670	-0.508274	-0.000021
C76	C	-0.014094	-0.578664	-0.128525
H77	H	0.020991	-0.544583	-0.171354
H78	H	-0.007464	-0.685014	-0.099637
H79	H	-0.043214	-0.563316	-0.218495
H80	H	-0.590294	-0.375018	0.406833
O81	O	-0.503721	-0.347767	0.601928
C82	C	-0.457515	-0.323294	0.551219
H83	H	-0.458159	-0.217092	0.523306
H84	H	-0.429476	-0.350036	0.642175
H85	H	-0.447547	-0.382966	0.447176
O86	O	0.275229	0.075484	0.000405
C87	C	0.304064	0.083241	0.128906
H88	H	0.316268	-0.017534	0.171735
H89	H	0.337255	0.133427	0.100012
H90	H	0.281989	0.140102	0.218878
H91	H	-0.552745	0.048530	0.593334
O92	O	-0.659676	-0.209281	0.601982
C93	C	-0.670238	-0.330370	0.551400
H94	H	-0.634979	-0.392364	0.523499
H95	H	-0.690342	-0.378925	0.642427
H96	H	-0.693932	-0.317738	0.447376
O97	O	-0.483391	-0.117739	0.398140
C98	C	-0.463899	-0.222004	0.309505
H99	H	-0.494576	-0.275610	0.265908
H100	H	-0.443319	-0.184941	0.211423
H101	H	-0.438039	-0.289772	0.379507
O102	O	-0.524481	0.406792	0.245674
C103	C	-0.483963	0.467814	0.201753
H104	H	-0.489908	0.507256	0.083898
H105	H	-0.479169	0.549925	0.281756
H106	H	-0.450048	0.395609	0.204090
O107	O	-0.418209	-0.402264	0.000172
C108	C	-0.380419	-0.504021	0.000137
H109	H	-0.346047	-0.468958	0.047113
H110	H	-0.391245	-0.585760	0.072154
H111	H	-0.373407	-0.539630	-0.118879
O112	O	-0.524609	0.406790	-0.245533
C113	C	-0.556348	0.492274	-0.330870
H114	H	-0.586379	0.539895	-0.256105
H115	H	-0.535302	0.568867	-0.381841
H116	H	-0.573025	0.437189	-0.423670
H117	H	-0.177867	-0.493866	0.000140
H118	H	-0.056720	0.164802	0.000230
O119	O	-0.663007	0.456801	0.000054
C120	C	-0.670124	0.533386	-0.129015
H121	H	-0.643258	0.494856	-0.218827
H122	H	-0.708734	0.530777	-0.171608
H123	H	-0.664136	0.636452	-0.100981
O124	O	-0.480171	0.216298	0.000004
C125	C	-0.473100	0.139734	-0.129091
H126	H	-0.499913	0.178479	-0.218941
H127	H	-0.434466	0.142080	-0.171595
H128	H	-0.479203	0.036732	-0.101127
O129	O	-0.618564	0.267230	0.246163
C130	C	-0.633716	0.376700	0.332592
H131	H	-0.636595	0.465573	0.258542
H132	H	-0.670645	0.366206	0.384131
H133	H	-0.606160	0.386843	0.424989
O134	O	-0.081669	-0.509697	0.000090
C135	C	-0.110021	-0.613215	0.000116
H136	H	-0.147532	-0.580055	-0.046838
H137	H	-0.091717	-0.694163	-0.071926
H138	H	-0.113739	-0.649134	0.119126
O139	O	-0.618482	0.266758	-0.245609
C140	C	-0.593703	0.300979	-0.374332
H141	H	-0.554262	0.310467	-0.345040
H142	H	-0.595154	0.223682	-0.463091
H143	H	-0.611657	0.396458	-0.418957
H144	H	0.064871	-0.487343	0.000191
H145	H	0.199993	-0.367292	0.000182
H146	H	0.291474	-0.364826	0.000193
H147	H	0.180582	0.054740	0.000224
O148	O	-0.113347	0.181515	0.000451
C149	C	-0.084513	0.189264	0.128958
H150	H	-0.072308	0.088486	0.171776
H151	H	-0.051324	0.239458	0.100077
H152	H	-0.106591	0.246113	0.218934
H153	H	-0.207995	0.160757	0.000248
H154	H	-0.343103	0.040700	0.000142
H155	H	-0.434585	0.038237	0.000137
H156	H	0.034744	0.167257	0.000235
