data_functionalizedCrystal
_audit_creation_method	'MofGen! by Chris Wilmer'
_symmetry_space_group_name_H-M	'P1'
_symmetry_Int_Tables_number	1
_symmetry_cell_setting	triclinic
loop_
_symmetry_equiv_pos_as_xyz
  x,y,z
_cell_length_a	16.992694
_cell_length_b	14.519709
_cell_length_c	16.053802
_cell_angle_alpha	92.569364
_cell_angle_beta	87.249047
_cell_angle_gamma	87.174184
loop_
_atom_site_label
_atom_site_type_symbol
_atom_site_fract_x
_atom_site_fract_y
_atom_site_fract_z
O1	O	1.043963	0.191936	-0.069327
O2	O	0.815676	0.189789	-0.069352
O3	O	0.935872	0.057059	-0.069332
O4	O	0.923768	0.324666	-0.069348
O5	O	0.929256	0.064333	0.069526
O6	O	0.809060	0.197063	0.069506
O7	O	1.037348	0.199210	0.069530
Zn8	Zn	0.922154	0.199291	0.091565
Zn9	Zn	0.930870	0.189708	-0.091386
O10	O	0.917152	0.331940	0.069510
C11	C	0.783152	0.190666	0.000074
C12	C	0.696097	0.182430	0.000065
C13	C	0.932000	0.026296	0.000097
C14	C	0.930309	-0.076207	0.000098
C15	C	0.645968	0.261890	0.000061
C16	C	0.564170	0.254147	0.000073
C17	C	0.532503	0.166943	0.000083
C18	C	0.582638	0.087478	0.000089
C19	C	0.664434	0.095222	0.000083
C20	C	0.288859	0.134847	0.000107
C21	C	0.207056	0.127109	0.000111
C22	C	0.188594	0.293779	0.000095
C23	C	0.270393	0.301515	0.000084
C24	C	0.320520	0.222050	0.000095
N25	N	0.448892	0.159027	0.000092
N26	N	0.404129	0.229968	0.000092
C27	C	0.924087	-0.451551	0.000075
C28	C	0.925815	-0.347118	0.000082
C29	C	0.927198	-0.263882	0.000087
C30	C	0.928926	-0.159443	0.000092
C31	C	1.069872	0.198333	0.000103
C32	C	1.156927	0.206569	0.000106
C33	C	0.921024	0.362703	0.000079
C34	C	0.922715	0.465206	0.000073
N35	N	0.916210	0.205832	0.216424
N36	N	0.936820	0.183161	-0.216246
C37	C	0.967373	0.149377	0.260127
C38	C	0.963222	0.153962	0.347533
C39	C	0.907913	0.215006	0.391235
C40	C	0.856746	0.271462	0.347526
C41	C	0.860893	0.266872	0.260121
C42	C	0.889799	0.235027	0.652641
C43	C	0.885658	0.239615	0.740052
C44	C	0.992134	0.122113	0.740053
C45	C	0.996279	0.117533	0.652646
C46	C	0.945109	0.173985	0.608945
N47	N	0.903672	0.219695	0.480578
N48	N	0.949347	0.169291	0.519604
H49	H	0.671745	0.332900	0.000052
C50	C	0.298880	-0.030674	0.000117
C51	C	0.343952	0.047499	0.000113
H52	H	0.332897	-0.084601	0.000115
H53	H	0.264293	-0.027688	0.048537
H54	H	0.268892	-0.032756	-0.048309
H55	H	0.373936	0.049585	0.048542
H56	H	0.378553	0.044512	-0.048313
H57	H	0.296170	0.372525	0.000066
C58	C	0.464864	0.338380	-0.071318
C59	C	0.509070	0.341492	0.000059
H60	H	0.430845	0.392305	-0.071323
H61	H	0.499457	0.335394	-0.119733
H62	H	0.434298	0.285337	-0.071296
H63	H	0.539640	0.394533	0.000034
H64	H	0.474472	0.344488	0.048487
C65	C	1.107311	0.099679	0.553854
C66	C	1.056709	0.050165	0.604388
H67	H	1.144514	0.058010	0.524000
H68	H	1.077405	0.132874	0.515501
H69	H	1.134344	0.141722	0.587795
H70	H	1.029672	0.008126	0.570447
H71	H	1.086619	0.016954	0.642746
C72	C	1.078701	0.132075	0.161777
C73	C	1.028135	0.082249	0.212072
H74	H	1.116204	0.090621	0.132110
H75	H	1.048823	0.165055	0.123259
H76	H	1.105378	0.174330	0.195858
H77	H	1.001454	0.039999	0.177990
H78	H	1.058017	0.049254	0.250595
H79	H	1.033794	0.076151	0.775642
C80	C	0.055008	0.355917	0.000105
C81	C	0.133491	0.381124	0.000094
H82	H	0.020992	0.409845	0.000112
H83	H	0.047698	0.317881	-0.048313
H84	H	0.043106	0.322943	0.048533
H85	H	0.145396	0.414092	-0.048337
H86	H	0.140805	0.419175	0.048517
H87	H	0.556847	0.016475	0.000110
H88	H	0.181277	0.056094	0.000118
H89	H	0.705249	0.030517	0.000086
C90	C	1.068905	0.037384	0.338754
C91	C	1.019474	0.091921	0.395571
H92	H	1.103639	-0.000912	0.368413
H93	H	1.037844	-0.000021	0.304679
H94	H	1.098768	0.076103	0.304648
H95	H	0.989607	0.053202	0.429673
H96	H	1.050540	0.129329	0.429660
C97	C	0.780801	0.355280	0.731276
C98	C	0.824846	0.306705	0.788091
H99	H	0.743257	0.396690	0.760936
H100	H	0.815094	0.389106	0.697179
H101	H	0.754170	0.312984	0.697192
H102	H	0.851482	0.349001	0.822172
H103	H	0.790547	0.272877	0.822202
C104	C	0.877621	0.354132	0.554346
C105	C	0.833563	0.297096	0.604615
H106	H	0.842902	0.392452	0.524693
H107	H	0.908689	0.391514	0.588436
H108	H	0.911144	0.317110	0.515808
H109	H	0.800045	0.334119	0.643158
H110	H	0.802482	0.259711	0.570523
H111	H	0.811708	0.321162	0.383113
H112	H	0.819230	0.312842	0.224539
