data_functionalizedCrystal
_audit_creation_method	'MofGen! by Chris Wilmer'
_symmetry_space_group_name_H-M	'P1'
_symmetry_Int_Tables_number	1
_symmetry_cell_setting	triclinic
loop_
_symmetry_equiv_pos_as_xyz
  x,y,z
_cell_length_a	16.974800
_cell_length_b	16.974813
_cell_length_c	15.455313
_cell_angle_alpha	89.012317
_cell_angle_beta	90.973911
_cell_angle_gamma	83.627081
loop_
_atom_site_label
_atom_site_type_symbol
_atom_site_fract_x
_atom_site_fract_y
_atom_site_fract_z
O1	O	1.049303	0.100458	-0.005495
O2	O	0.819898	0.112492	-0.022451
O3	O	0.940611	-0.008229	-0.005496
O4	O	0.928591	0.221179	-0.022451
O5	O	0.933708	-0.001354	0.137799
O6	O	0.812995	0.119367	0.120843
O7	O	1.042400	0.107332	0.137799
Cu8	Cu	0.927068	0.113978	0.142405
Cu9	Cu	0.935231	0.105847	-0.027057
O10	O	0.921688	0.228054	0.120844
C11	C	0.787086	0.115346	0.047175
C12	C	0.699600	0.113597	0.041154
C13	C	0.654741	0.116521	0.116437
C14	C	0.572541	0.114866	0.110782
C15	C	0.535200	0.110292	0.029844
C16	C	0.580066	0.107365	-0.045445
C17	C	0.662265	0.109015	-0.039789
C18	C	0.289764	0.104950	0.004554
C19	C	0.207558	0.103303	-0.001096
C20	C	0.200039	0.110802	0.155132
C21	C	0.282240	0.112457	0.160780
C22	C	0.327098	0.109526	0.085492
N23	N	0.451178	0.108602	0.024062
N24	N	0.411120	0.111210	0.091275
C25	C	0.936574	-0.034153	0.068171
C26	C	0.934820	-0.121639	0.074186
C27	C	0.937761	-0.166483	-0.001097
C28	C	0.936108	-0.248685	0.004558
C29	C	0.931519	-0.286042	0.085496
C30	C	0.928576	-0.241192	0.160785
C31	C	0.930224	-0.158990	0.155129
C32	C	0.926183	-0.531485	0.110787
C33	C	0.924538	-0.613692	0.116437
C34	C	0.932068	-0.621180	-0.039791
C35	C	0.933720	-0.538978	-0.045439
C36	C	0.930773	-0.494134	0.029849
N37	N	0.929832	-0.370066	0.091278
N38	N	0.932454	-0.410111	0.024066
C39	C	1.075213	0.104479	0.068171
C40	C	1.162699	0.106227	0.074187
C41	C	0.925725	0.253977	0.047175
C42	C	0.927479	0.341463	0.041154
N43	N	0.921331	0.119695	0.261596
N44	N	0.940973	0.100123	-0.146247
C45	C	0.972632	0.068428	0.314194
C46	C	0.968302	0.072759	0.404393
C47	C	0.912673	0.128363	0.441994
C48	C	0.861367	0.179633	0.389389
C49	C	0.865694	0.175297	0.299192
C50	C	0.893994	0.147057	0.710950
C51	C	0.889672	0.151391	0.801155
C52	C	0.996607	0.044516	0.816153
C53	C	1.000932	0.040188	0.725953
C54	C	0.949623	0.091455	0.673356
N55	N	0.908247	0.132793	0.534192
N56	N	0.954046	0.087020	0.581160
H57	H	0.312637	0.116177	0.226689
F58	F	0.839390	0.201621	0.654980
F59	F	0.939238	-0.296409	-0.075569
F60	F	0.923684	-0.280951	0.246926
F61	F	1.022901	0.018194	0.460372
H62	H	0.937457	-0.508568	-0.111348
H63	H	0.823919	0.217044	0.256367
F64	F	1.060139	-0.018990	0.685937
F65	F	0.694474	0.121395	0.202583
H66	H	0.923799	-0.494985	0.172093
H67	H	0.816069	0.224904	0.420009
F68	F	1.051208	-0.010045	0.872135
F69	F	0.524801	0.117989	0.190909
H70	H	0.927818	-0.122477	0.216432
F71	F	0.152292	0.113919	0.235253
H72	H	0.844371	0.196673	0.831764
H73	H	0.177157	0.099580	-0.067010
H74	H	1.017934	0.023153	0.283586
H75	H	0.326278	0.102561	-0.056751
F76	F	0.540326	0.102473	-0.131584
H77	H	0.941501	-0.136074	-0.067006
F78	F	0.710008	0.105900	-0.119916
H79	H	0.934466	-0.657701	-0.101086
F80	F	0.919659	-0.653449	0.202588
