data_functionalizedCrystal
_audit_creation_method	'MofGen! by Chris Wilmer'
_symmetry_space_group_name_H-M	'P1'
_symmetry_Int_Tables_number	1
_symmetry_cell_setting	triclinic
loop_
_symmetry_equiv_pos_as_xyz
  x,y,z
_cell_length_a	19.121112
_cell_length_b	19.121063
_cell_length_c	18.101389
_cell_angle_alpha	92.419391
_cell_angle_beta	87.543370
_cell_angle_gamma	90.126867
loop_
_atom_site_label
_atom_site_type_symbol
_atom_site_fract_x
_atom_site_fract_y
_atom_site_fract_z
Zn1	Zn	1.059842	-0.324984	-0.480932
Zn2	Zn	1.559842	0.175016	0.019068
Zn3	Zn	1.054750	-0.442202	-0.362126
Zn4	Zn	1.554750	0.057798	0.137874
Zn5	Zn	0.942606	-0.319976	-0.351614
Zn6	Zn	1.442606	0.180024	0.148386
Zn7	Zn	0.937567	-0.437174	-0.480438
Zn8	Zn	1.437567	0.062826	0.019562
O9	O	0.998691	-0.381084	-0.418777
O10	O	1.498691	0.118916	0.081223
O11	O	1.157271	-0.344733	-0.469778
O12	O	1.657271	0.155267	0.030222
O13	O	1.039851	-0.425997	-0.257098
O14	O	1.539851	0.074003	0.242902
O15	O	0.962398	-0.222536	-0.364576
O16	O	1.462398	0.277464	0.135424
O17	O	1.153530	-0.430853	-0.382493
O18	O	1.653530	0.069147	0.117507
O19	O	1.048530	-0.226215	-0.459585
O20	O	1.548530	0.273785	0.040415
O21	O	0.957460	-0.336198	-0.249375
O22	O	1.457460	0.163802	0.250625
O23	O	0.843833	-0.331322	-0.364096
O24	O	1.343833	0.168678	0.135904
O25	O	0.953809	-0.422283	-0.584137
O26	O	1.453809	0.077717	-0.084137
O27	O	0.840130	-0.417427	-0.458743
O28	O	1.340130	0.082573	0.041257
O29	O	1.043644	-0.339857	-0.584500
O30	O	1.543644	0.160143	-0.084500
O31	O	1.034965	-0.539639	-0.382013
O32	O	1.534965	-0.039639	0.117987
O33	O	0.948871	-0.535945	-0.468936
O34	O	1.448871	-0.035945	0.031064
C35	C	0.816544	-0.373286	-0.410226
C36	C	1.316544	0.126714	0.089774
C37	C	0.738620	-0.369967	-0.406585
C38	C	1.238620	0.130033	0.093415
C39	C	0.990838	-0.563230	-0.426579
C40	C	1.490838	-0.063230	0.073421
C41	C	0.987542	-0.641156	-0.429944
C42	C	1.487542	-0.141156	0.070056
C43	C	0.297995	-0.348910	-0.383528
C44	C	0.797995	0.151090	0.116472
C45	C	0.371212	-0.352033	-0.386952
C46	C	0.871212	0.147967	0.113048
C47	C	0.405907	-0.398498	-0.437868
C48	C	0.905907	0.101502	0.062132
C49	C	0.367379	-0.441838	-0.485367
C50	C	0.867379	0.058162	0.014633
C51	C	0.294163	-0.438712	-0.481946
C52	C	0.794163	0.061288	0.018054
C53	C	0.626877	-0.410181	-0.450663
C54	C	1.126877	0.089819	0.049337
C55	C	0.700098	-0.413306	-0.454080
C56	C	1.200098	0.086694	0.045920
C57	C	0.703926	-0.323499	-0.355665
C58	C	1.203926	0.176501	0.144335
C59	C	0.630708	-0.320379	-0.352245
C60	C	1.130708	0.179621	0.147755
C61	C	0.592187	-0.363717	-0.399747
C62	C	1.092187	0.136283	0.100253
C63	C	0.480747	-0.401692	-0.441368
C64	C	0.980747	0.098308	0.058632
C65	C	0.517349	-0.360519	-0.396250
C66	C	1.017349	0.139481	0.103750
C67	C	1.030853	-0.679667	-0.386310
C68	C	1.530853	-0.179667	0.113690
C69	C	1.027758	-0.752887	-0.389480
C70	C	1.527758	-0.252887	0.110520
C71	C	0.981348	-0.787594	-0.436280
C72	C	1.481348	-0.287594	0.063720
C73	C	0.938035	-0.749077	-0.479919
C74	C	1.438035	-0.249077	0.020081
C75	C	0.941134	-0.675859	-0.476753
C76	C	1.441134	-0.175859	0.023247
C77	C	0.969749	-1.008570	-0.448105
C78	C	1.469749	-0.508570	0.051895
C79	C	0.966651	-1.081793	-0.451267
C80	C	1.466651	-0.581793	0.048733
C81	C	1.056375	-1.085598	-0.360828
C82	C	1.556375	-0.585598	0.139172
C83	C	1.059468	-1.012378	-0.357663
C84	C	1.559468	-0.512378	0.142337
C85	C	1.016158	-0.973868	-0.401304
C86	C	1.516158	-0.473868	0.098696
C87	C	0.978181	-0.862436	-0.439519
C88	C	1.478181	-0.362436	0.060481
C89	C	1.019328	-0.899028	-0.398069
C90	C	1.519328	-0.399028	0.101931
C91	C	1.181549	-0.388913	-0.427363
C92	C	1.681549	0.111087	0.072637
C93	C	1.259473	-0.392249	-0.431022
C94	C	1.759473	0.107751	0.068978
C95	C	0.998732	-0.381068	-0.611941
C96	C	1.498732	0.118932	-0.111941
C97	C	0.998750	-0.381061	-0.694255
C98	C	1.498750	0.118939	-0.194255
C99	C	1.006594	-0.198227	-0.410963
C100	C	1.506594	0.301773	0.089037
C101	C	1.009962	-0.120304	-0.407632
C102	C	1.509962	0.379696	0.092368
C103	C	0.998796	-0.380932	-0.993343
C104	C	1.498796	0.119068	-0.493343
C105	C	0.942095	-0.432611	-0.961773
C106	C	1.442095	0.067389	-0.461773
C107	C	0.942232	-0.432868	-0.876172
C108	C	1.442232	0.067132	-0.376172
C109	C	0.998773	-0.380996	-0.844962
C110	C	1.498773	0.119004	-0.344962
C111	C	1.071782	-0.404207	-0.880382
C112	C	1.571782	0.095793	-0.380382
C113	C	1.071464	-0.404549	-0.966028
C114	C	1.571464	0.095451	-0.466028
C115	C	0.983135	-0.305948	-0.957697
C116	C	1.483135	0.194052	-0.457697
C117	C	0.981474	-0.306306	-0.871988
C118	C	1.481474	0.193694	-0.371988
C119	C	0.998764	-0.381031	-0.761103
C120	C	1.498764	0.118969	-0.261103
C121	C	0.998810	-0.380898	-1.077201
C122	C	1.498810	0.119102	-0.577201
C123	C	0.998693	-0.381051	-0.226366
C124	C	1.498693	0.118949	0.273634
C125	C	0.998819	-0.380866	-0.144049
C126	C	1.498819	0.119134	0.355951
H127	H	0.269752	-0.311074	-0.342066
H128	H	0.769752	0.188926	0.157934
H129	H	0.735298	-0.288215	-0.316993
H130	H	1.235298	0.211785	0.183007
Br131	Br	0.423490	-0.293206	-0.322500
Br132	Br	0.923490	0.206794	0.177500
H133	H	0.940392	-0.890702	-0.477623
H134	H	1.440392	-0.390702	0.022377
H135	H	0.395633	-0.479668	-0.526827
H136	H	0.895633	0.020332	-0.026827
H137	H	1.097258	-0.984122	-0.319554
H138	H	1.597258	-0.484122	0.180446
H139	H	0.728344	-0.451144	-0.495545
H140	H	1.228344	0.048856	0.004455
Br141	Br	0.583628	-0.257314	-0.283146
Br142	Br	1.083628	0.242686	0.216854
Br143	Br	0.959080	-0.525390	-0.846937
Br144	Br	1.459080	-0.025390	-0.346937
Br145	Br	0.896219	-0.271725	-0.988240
Br146	Br	1.396219	0.228275	-0.488240
H147	H	0.905867	-0.644504	-0.512285
H148	H	1.405867	-0.144504	-0.012285
Br149	Br	0.851832	-0.408045	-0.835946
Br150	Br	1.351832	0.091955	-0.335946
Br151	Br	1.094207	-0.496064	-1.004469
Br152	Br	1.594207	0.003936	-0.504469
H153	H	0.900250	-0.777341	-0.518028
H154	H	1.400250	-0.277341	-0.018028
Br155	Br	0.241882	-0.497526	-0.546410
Br156	Br	0.741882	0.002474	-0.046410
Br157	Br	0.910971	-0.956315	-0.507334
Br158	Br	1.410971	-0.456315	-0.007334
Br159	Br	0.851405	-0.407993	-0.990904
Br160	Br	1.351405	0.092007	-0.490904
H161	H	1.057118	-0.870767	-0.359967
H162	H	1.557118	-0.370767	0.140033
Br163	Br	0.574607	-0.468999	-0.515128
Br164	Br	1.074607	0.031001	-0.015128
H165	H	0.928867	-1.110049	-0.489390
H166	H	1.428867	-0.610049	0.010610
H167	H	0.952070	-0.487785	-0.986223
H168	H	1.452070	0.012215	-0.486223
H169	H	1.114973	-0.368712	-0.987109
H170	H	1.614973	0.131288	-0.487109
Br171	Br	1.093835	-0.632572	-0.322785
Br172	Br	1.593835	-0.132572	0.177215
Br173	Br	1.143862	-0.343672	-0.846988
Br174	Br	1.643862	0.156328	-0.346988
Br175	Br	1.086544	-0.805150	-0.330264
Br176	Br	1.586544	-0.305150	0.169736
Br177	Br	1.115153	-1.137865	-0.301607
Br178	Br	1.615153	-0.637865	0.198393
Br179	Br	1.095031	-0.494782	-0.849755
Br180	Br	1.595031	0.005218	-0.349755
H181	H	0.927761	-0.288860	-0.848465
H182	H	1.427761	0.211140	-0.348465
H183	H	1.020010	-0.265504	-0.850498
H184	H	1.520010	0.234496	-0.350498
H185	H	0.489098	-0.322684	-0.354798
H186	H	0.989098	0.177316	0.145202
H187	H	0.509003	-0.439526	-0.482822
H188	H	1.009003	0.060474	0.017178
Br189	Br	1.052033	-0.241707	-0.991691
Br190	Br	1.552033	0.258293	-0.491691
