data_functionalizedCrystal
_audit_creation_method	'MofGen! by Chris Wilmer'
_symmetry_space_group_name_H-M	'P1'
_symmetry_Int_Tables_number	1
_symmetry_cell_setting	triclinic
loop_
_symmetry_equiv_pos_as_xyz
  x,y,z
_cell_length_a	19.288859
_cell_length_b	19.288859
_cell_length_c	17.766277
_cell_angle_alpha	89.993887
_cell_angle_beta	89.989768
_cell_angle_gamma	83.133726
loop_
_atom_site_label
_atom_site_type_symbol
_atom_site_fract_x
_atom_site_fract_y
_atom_site_fract_z
O1	O	0.921354	0.086629	-0.062609
O2	O	0.719092	0.098322	-0.062607
O3	O	0.826070	-0.008656	-0.062603
O4	O	0.814376	0.193606	-0.062612
O5	O	0.826051	-0.008661	0.062585
O6	O	0.719074	0.098316	0.062582
O7	O	0.921335	0.086623	0.062580
Cu8	Cu	0.820203	0.092469	0.074012
Cu9	Cu	0.820225	0.092476	-0.074038
O10	O	0.814358	0.193601	0.062576
C11	C	0.693206	0.097944	-0.000012
C12	C	0.616103	0.096816	-0.000012
C13	C	0.825685	-0.034535	-0.000010
C14	C	0.824558	-0.111639	-0.000011
C15	C	0.052061	0.151960	-0.000015
C16	C	0.124507	0.153025	-0.000019
C17	C	0.169215	0.090256	-0.000015
C18	C	0.141472	0.026416	-0.000026
C19	C	0.069026	0.025353	-0.000030
C20	C	0.290480	0.043441	0.043849
C21	C	0.362924	0.044507	0.043857
C22	C	0.392661	0.093533	-0.000007
C23	C	0.349944	0.141505	-0.043870
C24	C	0.277499	0.140442	-0.043874
C25	C	0.247771	0.091402	-0.000011
C26	C	0.498951	0.158524	-0.000006
C27	C	0.571399	0.159586	-0.000014
C28	C	0.588363	0.032976	-0.000014
C29	C	0.515916	0.031915	-0.000013
C30	C	0.471214	0.094691	-0.000005
C31	C	0.879701	-0.675680	-0.000031
C32	C	0.880766	-0.603234	-0.000024
C33	C	0.817997	-0.558526	-0.000024
C34	C	0.754157	-0.586269	-0.000011
C35	C	0.753094	-0.658715	-0.000011
C36	C	0.771190	-0.437249	-0.043882
C37	C	0.772256	-0.364806	-0.043887
C38	C	0.821274	-0.335080	-0.000023
C39	C	0.869238	-0.377809	0.043836
C40	C	0.868174	-0.450254	0.043837
C41	C	0.819143	-0.479970	-0.000025
C42	C	0.886265	-0.228790	-0.000024
C43	C	0.887328	-0.156342	-0.000012
C44	C	0.760717	-0.139378	-0.000007
C45	C	0.759656	-0.211825	-0.000011
C46	C	0.822432	-0.256527	-0.000023
C47	C	0.947221	0.087001	-0.000016
C48	C	1.024325	0.088129	-0.000022
C49	C	0.814743	0.219480	-0.000019
C50	C	0.815870	0.296584	-0.000023
N51	N	0.820192	0.092464	0.178142
N52	N	0.820241	0.092475	-0.178169
C53	C	0.867577	0.045118	0.217530
C54	C	0.867581	0.045115	0.296332
C55	C	0.820207	0.092470	0.335742
C56	C	0.772813	0.139820	0.296344
C57	C	0.772806	0.139817	0.217544
C58	C	0.810907	0.155758	0.460578
C59	C	0.810919	0.155762	0.539377
C60	C	0.820225	0.092478	0.578789
C61	C	0.829535	0.029188	0.539392
C62	C	0.829527	0.029186	0.460592
C63	C	0.820209	0.092478	0.421188
C64	C	0.867617	0.045124	0.703623
C65	C	0.867616	0.045120	0.782426
C66	C	0.772852	0.139831	0.782437
C67	C	0.772849	0.139830	0.703636
C68	C	0.820236	0.092477	0.664233
H69	H	0.015668	0.203077	-0.000012
H70	H	0.906200	0.006565	0.671541
H71	H	0.734239	0.178376	0.328436
Cl72	Cl	0.713232	0.199344	0.168024
Cl73	Cl	0.709558	-0.474609	-0.099025
H74	H	0.906201	0.006561	0.814497
H75	H	0.374154	0.181429	-0.079587
Cl76	Cl	0.159384	0.233276	-0.000008
Cl77	Cl	0.961017	-0.568357	-0.000027
Cl78	Cl	0.223801	0.200742	-0.099018
H79	H	0.462553	0.209640	-0.000001
Cl80	Cl	0.253109	-0.018233	0.098954
Cl81	Cl	0.930867	-0.340449	0.098980
H82	H	0.803316	0.207294	0.428495
H83	H	0.177878	-0.024691	-0.000025
Cl84	Cl	0.928464	-0.503967	0.098976
H85	H	0.593980	0.211567	-0.000015
Cl86	Cl	0.644561	-0.045936	-0.000020
H87	H	0.937381	-0.265188	-0.000033
Cl88	Cl	0.679406	-0.246695	-0.000007
H89	H	0.733205	-0.330022	-0.079604
Cl90	Cl	0.481046	-0.048335	-0.000024
H91	H	0.046445	-0.026628	-0.000035
Cl92	Cl	0.841222	-0.050375	0.411068
Cl93	Cl	0.416616	-0.015795	0.099005
H94	H	0.906160	0.006559	0.185451
H95	H	0.930818	-0.712073	-0.000037
Cl96	Cl	0.672842	-0.693584	-0.000001
H97	H	0.939309	-0.133762	-0.000015
H98	H	0.709609	-0.102978	-0.000000
Cl99	Cl	0.713290	0.199359	0.831976
Cl100	Cl	0.675247	-0.530066	-0.000007
H101	H	0.837113	-0.022343	0.571480
Cl102	Cl	0.713281	0.199357	0.654114
Cl103	Cl	0.927157	-0.014411	0.345857
H104	H	0.803343	0.207296	0.571447
