data_functionalizedCrystal
_audit_creation_method	'MofGen! by Chris Wilmer'
_symmetry_space_group_name_H-M	'P1'
_symmetry_Int_Tables_number	1
_symmetry_cell_setting	triclinic
loop_
_symmetry_equiv_pos_as_xyz
  x,y,z
_cell_length_a	18.101398
_cell_length_b	18.050589
_cell_length_c	18.101389
_cell_angle_alpha	89.985984
_cell_angle_beta	89.975673
_cell_angle_gamma	90.023488
loop_
_atom_site_label
_atom_site_type_symbol
_atom_site_fract_x
_atom_site_fract_y
_atom_site_fract_z
Zn1	Zn	1.132136	-0.295831	-0.418861
Zn2	Zn	1.465469	0.037502	-0.085528
Zn3	Zn	1.798803	0.370836	0.247805
Zn4	Zn	1.132038	-0.420005	-0.295029
Zn5	Zn	1.465371	-0.086672	0.038304
Zn6	Zn	1.798705	0.246661	0.371637
Zn7	Zn	1.008295	-0.295823	-0.295023
Zn8	Zn	1.341628	0.037510	0.038311
Zn9	Zn	1.674961	0.370843	0.371644
Zn10	Zn	1.008252	-0.419974	-0.418818
Zn11	Zn	1.341585	-0.086640	-0.085485
Zn12	Zn	1.674918	0.246693	0.247849
O13	O	1.070180	-0.357908	-0.356933
O14	O	1.403513	-0.024575	-0.023599
O15	O	1.736847	0.308758	0.309734
O16	O	1.235756	-0.312320	-0.402456
O17	O	1.569089	0.021014	-0.069123
O18	O	1.902422	0.354347	0.264211
O19	O	1.115600	-0.403542	-0.191396
O20	O	1.448934	-0.070209	0.141938
O21	O	1.782267	0.263124	0.475271
O22	O	1.024782	-0.191900	-0.311465
O23	O	1.358115	0.141434	0.021868
O24	O	1.691448	0.474767	0.355201
O25	O	1.235684	-0.403550	-0.311477
O26	O	1.569017	-0.070217	0.021856
O27	O	1.902350	0.263117	0.355190
O28	O	1.115767	-0.191905	-0.402449
O29	O	1.449100	0.141428	-0.069116
O30	O	1.782434	0.474761	0.264217
O31	O	1.024687	-0.312306	-0.191391
O32	O	1.358020	0.021027	0.141943
O33	O	1.691353	0.354360	0.475276
O34	O	0.904656	-0.312276	-0.311423
O35	O	1.237990	0.021058	0.021910
O36	O	1.571323	0.354391	0.355243
O37	O	1.024708	-0.403496	-0.522457
O38	O	1.358042	-0.070162	-0.189123
O39	O	1.691375	0.263171	0.144210
O40	O	0.904625	-0.403488	-0.402375
O41	O	1.237958	-0.070155	-0.069042
O42	O	1.571291	0.263178	0.264291
O43	O	1.115725	-0.312289	-0.522489
O44	O	1.449059	0.021045	-0.189155
O45	O	1.782392	0.354378	0.144178
O46	O	1.115558	-0.523926	-0.311435
O47	O	1.448892	-0.190592	0.021898
O48	O	1.782225	0.142741	0.355232
O49	O	1.024613	-0.523902	-0.402382
O50	O	1.357947	-0.190569	-0.069048
O51	O	1.691280	0.142764	0.264285
C52	C	0.877770	-0.357878	-0.356894
C53	C	1.211103	-0.024545	-0.023561
C54	C	1.544436	0.308788	0.309772
C55	C	0.795455	-0.357883	-0.356895
C56	C	1.128789	-0.024550	-0.023562
C57	C	1.462122	0.308784	0.309771
C58	C	0.496364	-0.357930	-0.356957
C59	C	0.829698	-0.024596	-0.023624
C60	C	1.163031	0.308737	0.309709
C61	C	0.527685	-0.300254	-0.300012
C62	C	0.861018	0.033079	0.033321
C63	C	1.194352	0.366412	0.366655
C64	C	0.613303	-0.300409	-0.299769
C65	C	0.946636	0.032924	0.033564
C66	C	1.279970	0.366258	0.366898
C67	C	0.644747	-0.357906	-0.356927
C68	C	0.978080	-0.024573	-0.023593
C69	C	1.311414	0.308761	0.309740
C70	C	0.613633	-0.436133	-0.335608
C71	C	0.946966	-0.102800	-0.002275
C72	C	1.280299	0.230533	0.331059
C73	C	0.527988	-0.435813	-0.335212
C74	C	0.861321	-0.102480	-0.001879
C75	C	1.194654	0.230854	0.331455
C76	C	0.527978	-0.338057	-0.435355
C77	C	0.861311	-0.004724	-0.102022
C78	C	1.194645	0.328609	0.231311
C79	C	0.613629	-0.336315	-0.434927
C80	C	0.946962	-0.002982	-0.101594
C81	C	1.280295	0.330351	0.231739
C82	C	0.728606	-0.357897	-0.356910
C83	C	1.061940	-0.024564	-0.023577
C84	C	1.395273	0.308769	0.309756
C85	C	0.412505	-0.357943	-0.356972
C86	C	0.745838	-0.024610	-0.023638
C87	C	1.079172	0.308723	0.309695
C88	C	1.070091	-0.550860	-0.356921
C89	C	1.403424	-0.217527	-0.023587
C90	C	1.736757	0.115806	0.309746
C91	C	1.070120	-0.633406	-0.356940
C92	C	1.403454	-0.300073	-0.023607
C93	C	1.736787	0.033260	0.309727
C94	C	1.020713	-0.832871	-0.406380
C95	C	1.354046	-0.499538	-0.073046
C96	C	1.687379	-0.166204	0.260287
C97	C	1.002661	-0.882299	-0.338801
C98	C	1.335994	-0.548965	-0.005468
C99	C	1.669328	-0.215632	0.327866
C100	C	1.070193	-0.784537	-0.356950
C101	C	1.403526	-0.451203	-0.023616
C102	C	1.736860	-0.117870	0.309717
C103	C	1.088281	-0.882191	-0.424536
C104	C	1.421615	-0.548857	-0.091203
C105	C	1.754948	-0.215524	0.242130
C106	C	1.070262	-0.930522	-0.356965
C107	C	1.403595	-0.597188	-0.023632
C108	C	1.736928	-0.263855	0.309702
C109	C	1.052106	-0.832877	-0.289335
C110	C	1.385439	-0.499544	0.043998
C111	C	1.718772	-0.166210	0.377332
C112	C	1.137757	-0.832765	-0.375116
C113	C	1.471091	-0.499431	-0.041783
C114	C	1.804424	-0.166098	0.291551
C115	C	1.119731	-0.882170	-0.307491
C116	C	1.453064	-0.548836	0.025843
C117	C	1.786398	-0.215503	0.359176
C118	C	1.070151	-0.700438	-0.356942
C119	C	1.403485	-0.367105	-0.023609
C120	C	1.736818	-0.033772	0.309725
C121	C	1.070304	-1.014618	-0.356965
C122	C	1.403637	-0.681285	-0.023632
C123	C	1.736970	-0.347952	0.309701
C124	C	1.263342	-0.357939	-0.356972
C125	C	1.596675	-0.024606	-0.023639
C126	C	1.930009	0.308728	0.309695
C127	C	1.345656	-0.357952	-0.356989
C128	C	1.678989	-0.024619	-0.023655
C129	C	2.012323	0.308714	0.309678
C130	C	1.070223	-0.357890	-0.550095
C131	C	1.403556	-0.024556	-0.216761
C132	C	1.736890	0.308777	0.116572
C133	C	1.070241	-0.357882	-0.632409
C134	C	1.403574	-0.024548	-0.299076
C135	C	1.736908	0.308785	0.034258
C136	C	1.070290	-0.164203	-0.356961
C137	C	1.403623	0.169131	-0.023628
C138	C	1.736957	0.502464	0.309705
C139	C	1.070337	-0.081657	-0.356974
C140	C	1.403670	0.251676	-0.023640
C141	C	1.737004	0.585010	0.309693
C142	C	1.070284	-0.357742	-0.931500
C143	C	1.403618	-0.024409	-0.598167
C144	C	1.736951	0.308924	-0.264833
C145	C	1.012822	-0.414945	-0.900155
C146	C	1.346155	-0.081611	-0.566821
C147	C	1.679488	0.251722	-0.233488
C148	C	1.012977	-0.415210	-0.814536
C149	C	1.346310	-0.081877	-0.481203
C150	C	1.679644	0.251457	-0.147870
C151	C	1.070262	-0.357811	-0.783117
C152	C	1.403596	-0.024478	-0.449784
C153	C	1.736929	0.308855	-0.116451
C154	C	1.148289	-0.379062	-0.814225
C155	C	1.481622	-0.045728	-0.480891
C156	C	1.814955	0.287605	-0.147558
C157	C	1.147969	-0.379437	-0.899870
C158	C	1.481302	-0.046104	-0.566536
C159	C	1.814635	0.287230	-0.233203
C160	C	1.050399	-0.279163	-0.899918
C161	C	1.383732	0.054171	-0.566585
C162	C	1.717066	0.387504	-0.233252
C163	C	1.048663	-0.279616	-0.814267
C164	C	1.381996	0.053717	-0.480934
C165	C	1.715330	0.387050	-0.147601
C166	C	1.070255	-0.357849	-0.699258
C167	C	1.403588	-0.024516	-0.365925
C168	C	1.736921	0.308817	-0.032591
C169	C	1.070297	-0.357706	-1.015360
C170	C	1.403630	-0.024373	-0.682026
C171	C	1.736964	0.308960	-0.348693
C172	C	1.070180	-0.357873	-0.164522
C173	C	1.403513	-0.024540	0.168811
C174	C	1.736847	0.308793	0.502144
C175	C	1.070305	-0.357672	-0.082209
C176	C	1.403639	-0.024339	0.251125
C177	C	1.736972	0.308994	0.584458
H178	H	0.634341	-0.242399	-0.313131
H179	H	0.967674	0.090934	0.020202
H180	H	1.301007	0.424267	0.353535
H181	H	0.955117	-0.401912	-0.793503
H182	H	1.288451	-0.068578	-0.460170
H183	H	1.621784	0.264755	-0.126836
Cl184	Cl	1.108573	-0.210321	-0.781259
Cl185	Cl	1.441907	0.123013	-0.447926
Cl186	Cl	1.775240	0.456346	-0.114593
H187	H	0.978808	-0.811224	-0.448122
H188	H	1.312141	-0.477890	-0.114788
H189	H	1.645474	-0.144557	0.218545
Cl190	Cl	0.914492	-0.915890	-0.315079
Cl191	Cl	1.247825	-0.582557	0.018254
Cl192	Cl	1.581158	-0.249223	0.351588
H193	H	1.192234	-0.339582	-0.920607
H194	H	1.525567	-0.006249	-0.587274
H195	H	1.858901	0.327084	-0.253940
H196	H	1.161604	-0.903680	-0.265648
H197	H	1.494938	-0.570347	0.067686
H198	H	1.828271	-0.237013	0.401019
Cl199	Cl	0.495922	-0.210415	-0.320411
Cl200	Cl	0.829255	0.122918	0.012922
Cl201	Cl	1.162589	0.456252	0.346255
Cl202	Cl	1.225903	-0.799146	-0.398867
Cl203	Cl	1.559236	-0.465813	-0.065534
Cl204	Cl	1.892570	-0.132479	0.267799
Cl205	Cl	1.216169	-0.316760	-0.782811
Cl206	Cl	1.549503	0.016574	-0.449477
Cl207	Cl	1.882836	0.349907	-0.116144
H208	H	1.036768	-0.811305	-0.232168
H209	H	1.370101	-0.477972	0.101165
H210	H	1.703434	-0.144638	0.434498
Cl211	Cl	1.111859	-0.915638	-0.512771
Cl212	Cl	1.445192	-0.582304	-0.179438
Cl213	Cl	1.778526	-0.248971	0.153896
Cl214	Cl	0.646692	-0.462609	-0.248076
Cl215	Cl	0.980025	-0.129275	0.085257
Cl216	Cl	1.313358	0.204058	0.418590
Cl217	Cl	0.496706	-0.402913	-0.500864
Cl218	Cl	0.830040	-0.069580	-0.167531
Cl219	Cl	1.163373	0.263754	0.165803
H220	H	0.506136	-0.313242	-0.242258
H221	H	0.839469	0.020092	0.091075
H222	H	1.172803	0.353425	0.424409
Cl223	Cl	0.644888	-0.320686	-0.210078
Cl224	Cl	0.978222	0.012647	0.123255
Cl225	Cl	1.311555	0.345980	0.456589
H226	H	0.994491	-0.259803	-0.921503
H227	H	1.327824	0.073530	-0.588169
H228	H	1.661157	0.406863	-0.254836
Cl229	Cl	1.032845	-0.504313	-0.933448
Cl230	Cl	1.366178	-0.170980	-0.600115
Cl231	Cl	1.699512	0.162353	-0.266782
Cl232	Cl	0.497089	-0.461831	-0.246726
Cl233	Cl	0.830422	-0.128498	0.086608
Cl234	Cl	1.163756	0.204835	0.419941
H235	H	0.954788	-0.401782	-0.920740
H236	H	1.288121	-0.068449	-0.587406
H237	H	1.621455	0.264884	-0.254073
Cl238	Cl	0.495994	-0.504407	-0.396449
Cl239	Cl	0.829328	-0.171074	-0.063116
Cl240	Cl	1.162661	0.162260	0.270217
H241	H	0.634000	-0.480257	-0.375787
H242	H	0.967333	-0.146923	-0.042453
H243	H	1.300666	0.186410	0.290880
Cl244	Cl	1.033289	-0.505128	-0.782915
Cl245	Cl	1.366622	-0.171794	-0.449581
Cl246	Cl	1.699956	0.161539	-0.116248
Cl247	Cl	0.494673	-0.251518	-0.465281
Cl248	Cl	0.828006	0.081815	-0.131948
Cl249	Cl	1.161340	0.415148	0.201385
Cl250	Cl	1.173992	-0.468124	-0.930733
Cl251	Cl	1.507326	-0.134791	-0.597399
Cl252	Cl	1.840659	0.198542	-0.264066
H253	H	0.991242	-0.263592	-0.793934
H254	H	1.324576	0.069742	-0.460601
H255	H	1.657909	0.403075	-0.127268
H256	H	1.165437	-0.435894	-0.792787
H257	H	1.498771	-0.102561	-0.459454
H258	H	1.832104	0.230773	-0.126120
H259	H	0.633970	-0.278749	-0.451002
H260	H	0.967303	0.054585	-0.117669
H261	H	1.300637	0.387918	0.215664
Cl262	Cl	0.646673	-0.396451	-0.503946
Cl263	Cl	0.980006	-0.063117	-0.170613
Cl264	Cl	1.313340	0.270216	0.162721
H265	H	1.092252	-0.236544	-0.920191
H266	H	1.425585	0.096789	-0.586858
H267	H	1.758919	0.430123	-0.253524
