data_functionalizedCrystal
_audit_creation_method	'MofGen! by Chris Wilmer'
_symmetry_space_group_name_H-M	'P1'
_symmetry_Int_Tables_number	1
_symmetry_cell_setting	triclinic
loop_
_symmetry_equiv_pos_as_xyz
  x,y,z
_cell_length_a	10.489741
_cell_length_b	17.038272
_cell_length_c	9.565339
_cell_angle_alpha	89.999972
_cell_angle_beta	89.999100
_cell_angle_gamma	87.825365
loop_
_atom_site_label
_atom_site_type_symbol
_atom_site_fract_x
_atom_site_fract_y
_atom_site_fract_z
O1	O	1.704376	0.110370	-0.116175
O2	O	1.334150	0.120730	-0.116197
O3	O	1.517063	0.001722	-0.116175
O4	O	1.521463	0.229378	-0.116197
O5	O	1.517048	0.001729	0.116345
O6	O	1.334135	0.120738	0.116323
O7	O	1.704362	0.110377	0.116345
Zn8	Zn	1.519246	0.115558	0.153252
Zn9	Zn	1.519265	0.115549	-0.153103
O10	O	1.521449	0.229385	0.116324
C11	C	1.286537	0.119951	0.000061
C12	C	1.144689	0.117610	0.000053
C13	C	1.069466	0.041889	0.000073
C14	C	0.980692	0.077655	-0.114572
C15	C	0.980714	0.077680	0.114675
C16	C	1.057783	0.153408	-0.114687
C17	C	1.057813	0.153423	0.114662
C18	C	0.969072	0.189244	-0.000011
C19	C	1.513053	-0.027426	0.000085
C20	C	1.501111	-0.114288	0.000084
C21	C	1.610749	-0.163767	0.000092
C22	C	1.599521	-0.245383	0.000078
C23	C	1.478654	-0.277518	0.000066
C24	C	1.369007	-0.228032	0.000054
C25	C	1.380237	-0.146418	0.000058
C26	C	1.438983	-0.523505	0.000044
C27	C	1.427762	-0.605126	0.000045
C28	C	1.658277	-0.622471	0.000066
C29	C	1.669495	-0.540855	0.000078
C30	C	1.559849	-0.491376	0.000059
C31	C	1.467174	-0.360942	0.000056
C32	C	1.571330	-0.407954	0.000059
C33	C	1.751974	0.111156	0.000085
C34	C	1.893822	0.113497	0.000084
C35	C	1.525458	0.258533	0.000061
C36	C	1.537400	0.345395	0.000053
N37	N	1.519242	0.115565	0.362331
N38	N	1.519279	0.115536	-0.362183
C39	C	1.434621	0.170584	0.453524
C40	C	1.551599	0.186413	0.546708
C41	C	1.402315	0.099741	0.546703
C42	C	1.636281	0.131430	0.453464
C43	C	1.486918	0.044727	0.453450
C44	C	1.603976	0.060527	0.546592
H45	H	0.946687	0.045613	-0.211492
H46	H	1.091847	0.185439	0.211587
H47	H	1.290957	-0.106132	0.000051
H48	H	1.091612	0.185419	-0.211720
C49	C	1.768097	0.149561	0.399063
C50	C	1.760021	0.217894	0.317740
C51	C	1.881418	0.234650	0.267636
H52	H	1.800140	0.106982	0.343595
H53	H	1.823879	0.157167	0.475719
H54	H	1.704258	0.210283	0.241094
H55	H	1.727999	0.260487	0.373178
H56	H	1.937201	0.242256	0.344292
H57	H	1.913452	0.192066	0.212174
H58	H	1.875957	0.281019	0.212464
C59	C	0.935587	0.034828	0.243866
C60	C	0.986738	-0.042278	0.243328
C61	C	0.945212	-0.081780	0.362316
H62	H	0.845097	0.033977	0.243507
H63	H	0.963236	0.061182	0.325315
H64	H	0.959082	-0.068626	0.161901
H65	H	1.077225	-0.041450	0.243708
H66	H	0.972861	-0.055425	0.443765
H67	H	0.854722	-0.082625	0.361946
H68	H	0.979921	-0.134097	0.361973
C69	C	0.910998	0.272346	-0.000383
C70	C	0.950163	0.311612	-0.120637
C71	C	0.896675	0.388161	-0.121044
H72	H	0.938533	0.299544	0.080187
H73	H	0.820600	0.270436	0.000319
H74	H	1.040541	0.313525	-0.121326
H75	H	0.922629	0.284437	-0.201226
H76	H	0.806278	0.386251	-0.120342
H77	H	0.924214	0.415352	-0.040469
H78	H	0.923231	0.414810	-0.202640
H79	H	1.747544	-0.662765	0.000079
H80	H	1.113334	-0.020359	-0.000064
C81	C	1.741867	-0.128731	0.000174
C82	C	1.728241	-0.046666	0.000213
C83	C	1.849001	-0.014368	0.000303
H84	H	1.787494	-0.145584	-0.080888
H85	H	1.787395	-0.145629	0.081293
H86	H	1.682733	-0.029776	-0.080897
H87	H	1.682636	-0.029792	0.081269
H88	H	1.894529	-0.031265	0.081422
H89	H	1.894619	-0.031226	-0.080760
H90	H	1.839773	0.041316	0.000343
C91	C	1.718711	-0.298972	0.000169
C92	C	1.826964	-0.253362	0.000229
C93	C	1.936789	-0.302701	0.000332
H94	H	1.719319	-0.331187	-0.080895
H95	H	1.719180	-0.331160	0.081285
H96	H	1.826495	-0.221188	-0.080879
H97	H	1.826398	-0.221149	0.081287
H98	H	1.937257	-0.334889	0.081449
H99	H	1.937383	-0.334913	-0.080733
H100	H	2.010251	-0.271762	0.000386
C101	C	1.296640	-0.640167	0.000100
C102	C	1.310280	-0.722231	0.000147
C103	C	1.189527	-0.754539	0.000222
H104	H	1.251021	-0.623320	-0.080969
H105	H	1.251097	-0.623271	0.081211
H106	H	1.355804	-0.739121	-0.080957
H107	H	1.355877	-0.739100	0.081209
H108	H	1.143984	-0.737642	0.081333
H109	H	1.143918	-0.737686	-0.080849
H110	H	1.198766	-0.810222	0.000266
H111	H	1.459519	-0.015148	0.412454
C112	C	1.270560	0.081791	0.601503
C113	C	1.278399	0.013133	0.681970
C114	C	1.157054	-0.003414	0.732484
H115	H	1.214347	0.074661	0.525080
H116	H	1.239149	0.124271	0.657637
H117	H	1.309793	-0.029336	0.625839
H118	H	1.334588	0.020246	0.758413
H119	H	1.125644	0.039066	0.788618
H120	H	1.100851	-0.010541	0.656053
H121	H	1.162359	-0.049995	0.787097
C122	C	1.319789	-0.469924	0.000116
C123	C	1.211540	-0.515538	0.000153
C124	C	1.101711	-0.466202	0.000244
H125	H	1.319192	-0.437707	-0.080944
H126	H	1.319304	-0.437739	0.081236
H127	H	1.212025	-0.547709	-0.080959
H128	H	1.212095	-0.547753	0.081207
H129	H	1.101226	-0.434018	0.081364
H130	H	1.101128	-0.433987	-0.080818
H131	H	1.028252	-0.497144	0.000281
C132	C	1.237859	-0.263027	-0.000177
C133	C	1.224700	-0.309392	-0.119785
C134	C	1.103909	-0.341648	-0.120031
H135	H	1.174049	-0.221950	-0.000255
H136	H	1.228666	-0.294548	0.080866
H137	H	1.233881	-0.277873	-0.200808
H138	H	1.288481	-0.350481	-0.119732
H139	H	1.094715	-0.373169	-0.038988
H140	H	1.040109	-0.300567	-0.120106
H141	H	1.094969	-0.373116	-0.201177
C142	C	1.339491	0.232727	0.398821
C143	C	1.403387	0.286566	0.316304
C144	C	1.315801	0.343818	0.265870
H145	H	1.299626	0.259427	0.475282
H146	H	1.276607	0.208340	0.344095
H147	H	1.466248	0.310951	0.371027
H148	H	1.443247	0.259890	0.239822
H149	H	1.252916	0.319431	0.211144
H150	H	1.275940	0.370511	0.342339
H151	H	1.359139	0.380350	0.209866
C152	C	1.587876	0.266270	0.601538
C153	C	1.488509	0.298017	0.684129
C154	C	1.521876	0.371577	0.734670
H155	H	1.602538	0.300374	0.525127
H156	H	1.663250	0.260526	0.656237
H157	H	1.413156	0.303765	0.629432
H158	H	1.473833	0.263936	0.760561
H159	H	1.597251	0.365833	0.789369
H160	H	1.536538	0.405674	0.658250
H161	H	1.454467	0.393124	0.790723
C162	C	1.699724	-0.001434	0.600676
C163	C	1.821918	0.015489	0.553204
C164	C	1.910157	-0.041562	0.603017
H165	H	1.677629	-0.051648	0.567363
H166	H	1.698800	-0.001389	0.699994
H167	H	1.822838	0.015436	0.453907
H168	H	1.844053	0.065693	0.586513
H169	H	1.909234	-0.041516	0.702335
H170	H	1.888051	-0.091772	0.569701
H171	H	1.993077	-0.030083	0.570826
H172	H	1.767918	-0.514697	0.000088
H173	H	1.669740	-0.381786	0.000038
H174	H	1.368763	-0.387115	0.000050
