data_functionalizedCrystal
_audit_creation_method	'MofGen! by Chris Wilmer'
_symmetry_space_group_name_H-M	'P1'
_symmetry_Int_Tables_number	1
_symmetry_cell_setting	triclinic
loop_
_symmetry_equiv_pos_as_xyz
  x,y,z
_cell_length_a	19.077105
_cell_length_b	19.077366
_cell_length_c	19.076919
_cell_angle_alpha	90.104828
_cell_angle_beta	90.076224
_cell_angle_gamma	90.094081
loop_
_atom_site_label
_atom_site_type_symbol
_atom_site_fract_x
_atom_site_fract_y
_atom_site_fract_z
Zn1	Zn	-1.045327	-0.339410	0.426338
Zn2	Zn	-0.711994	-0.006076	0.759672
Zn3	Zn	-0.378660	0.327257	1.093005
Zn4	Zn	-1.045665	-0.452213	0.304152
Zn5	Zn	-0.712332	-0.118880	0.637486
Zn6	Zn	-0.378999	0.214453	0.970819
Zn7	Zn	-0.932903	-0.330011	0.304522
Zn8	Zn	-0.599570	0.003322	0.637855
Zn9	Zn	-0.266237	0.336656	0.971188
Zn10	Zn	-0.923503	-0.451790	0.416922
Zn11	Zn	-0.590170	-0.118457	0.750256
Zn12	Zn	-0.256836	0.214876	1.083589
O13	O	-0.986850	-0.393356	0.362984
O14	O	-0.653516	-0.060023	0.696317
O15	O	-0.320183	0.273311	1.029650
O16	O	-1.143547	-0.358484	0.413916
O17	O	-0.810214	-0.025150	0.747250
O18	O	-0.476880	0.308183	1.080583
O19	O	-1.034783	-0.432247	0.206026
O20	O	-0.701449	-0.098913	0.539359
O21	O	-0.368116	0.234420	0.872693
O22	O	-0.951609	-0.233084	0.324776
O23	O	-0.618276	0.100249	0.658109
O24	O	-0.284942	0.433583	0.991443
O25	O	-1.143795	-0.441360	0.324147
O26	O	-0.810462	-0.108027	0.657480
O27	O	-0.477129	0.225307	0.990813
O28	O	-1.034206	-0.239989	0.414274
O29	O	-0.700873	0.093344	0.747608
O30	O	-0.367540	0.426678	1.080941
O31	O	-0.951937	-0.342465	0.206297
O32	O	-0.618604	-0.009132	0.539631
O33	O	-0.285270	0.324201	0.872964
O34	O	-0.833481	-0.342055	0.315646
O35	O	-0.500148	-0.008722	0.648979
O36	O	-0.166815	0.324612	0.982313
O37	O	-0.935588	-0.440639	0.516347
O38	O	-0.602254	-0.107306	0.849680
O39	O	-0.268921	0.226028	1.183014
O40	O	-0.826575	-0.431526	0.398226
O41	O	-0.493242	-0.098192	0.731560
O42	O	-0.159908	0.235141	1.064893
O43	O	-1.025091	-0.358073	0.523265
O44	O	-0.691758	-0.024740	0.856598
O45	O	-0.358425	0.308593	1.189932
O46	O	-1.025668	-0.550331	0.315016
O47	O	-0.692334	-0.216998	0.648350
O48	O	-0.359001	0.116336	0.981683
O49	O	-0.935916	-0.550020	0.397868
O50	O	-0.602582	-0.216687	0.731201
O51	O	-0.269249	0.116647	1.064535
C52	C	-0.979827	-0.575632	0.355396
C53	C	-0.646493	-0.242299	0.688730
C54	C	-0.313160	0.091035	1.022063
C55	C	-0.976886	-0.653614	0.352176
C56	C	-0.643552	-0.320281	0.685510
C57	C	-0.310219	0.013052	1.018843
C58	C	-0.804572	-0.385725	0.355955
C59	C	-0.471239	-0.052392	0.689288
C60	C	-0.137906	0.280942	1.022621
C61	C	-0.726592	-0.382478	0.352964
C62	C	-0.393259	-0.049145	0.686297
C63	C	-0.059925	0.284189	1.019630
C64	C	-0.979253	-0.400357	0.545973
C65	C	-0.645920	-0.067024	0.879307
C66	C	-0.312587	0.266309	1.212640
C67	C	-0.976016	-0.403341	0.623953
C68	C	-0.642683	-0.070007	0.957286
C69	C	-0.309349	0.263326	1.290619
C70	C	-1.169839	-0.401017	0.370041
C71	C	-0.836505	-0.067684	0.703374
C72	C	-0.503172	0.265649	1.036707
C73	C	-1.247818	-0.404282	0.373048
C74	C	-0.914484	-0.070949	0.706381
C75	C	-0.581151	0.262385	1.039714
C76	C	-0.686380	-0.427600	0.394480
C77	C	-0.353046	-0.094267	0.727814
C78	C	-0.019713	0.239067	1.061147
C79	C	-0.613109	-0.424540	0.391674
C80	C	-0.279776	-0.091207	0.725007
C81	C	0.053557	0.242127	1.058340
C82	C	-0.580052	-0.376361	0.347346
C83	C	-0.246719	-0.043028	0.680679
C84	C	0.086614	0.290306	1.014013
C85	C	-0.620270	-0.331234	0.305828
C86	C	-0.286937	0.002099	0.639161
C87	C	0.046397	0.335433	0.972495
C88	C	-0.693539	-0.334291	0.308639
C89	C	-0.360206	-0.000958	0.641972
C90	C	-0.026873	0.332375	0.975305
C91	C	-0.361305	-0.362212	0.334340
C92	C	-0.027971	-0.028879	0.667674
C93	C	0.305362	0.304454	1.001007
C94	C	-0.288030	-0.359160	0.331531
C95	C	0.045303	-0.025827	0.664864
C96	C	0.378637	0.307507	0.998198
C97	C	-0.280874	-0.452465	0.417378
C98	C	0.052459	-0.119132	0.750711
C99	C	0.385792	0.214201	1.084045
C100	C	-0.354145	-0.455521	0.420182
C101	C	-0.020812	-0.122188	0.753515
C102	C	0.312522	0.211145	1.086849
C103	C	-0.394356	-0.410392	0.378667
C104	C	-0.061023	-0.077059	0.712000
C105	C	0.272310	0.256275	1.045333
N106	N	-0.505158	-0.373233	0.344475
N107	N	-0.171825	-0.039900	0.677808
N108	N	0.161509	0.293433	1.011141
N109	N	-0.469249	-0.413517	0.381542
N110	N	-0.135916	-0.080183	0.714876
N111	N	0.197417	0.253150	1.048209
C112	C	-0.993919	-0.210370	0.370617
C113	C	-0.660585	0.122964	0.703950
C114	C	-0.327252	0.456297	1.037283
C115	C	-0.996931	-0.132392	0.373870
C116	C	-0.663597	0.200942	0.707203
C117	C	-0.330264	0.534275	1.040536
C118	C	-1.018474	0.306155	0.397240
C119	C	-0.685141	0.639488	0.730574
C120	C	-0.351807	0.972821	1.063907
C121	C	-1.015645	0.232886	0.394176
C122	C	-0.682311	0.566220	0.727509
C123	C	-0.348978	0.899553	1.060842
C124	C	-0.971230	0.199851	0.346043
C125	C	-0.637897	0.533184	0.679377
C126	C	-0.304564	0.866517	1.012710
C127	C	-0.929637	0.240087	0.300977
C128	C	-0.596304	0.573421	0.634311
C129	C	-0.262970	0.906754	0.967644
C130	C	-0.932463	0.313354	0.304046
C131	C	-0.599130	0.646687	0.637379
C132	C	-0.265796	0.980021	0.970712
C133	C	-0.958164	-0.018888	0.331872
C134	C	-0.624830	0.314445	0.665205
C135	C	-0.291497	0.647779	0.998539
C136	C	-0.955342	-0.092160	0.328805
C137	C	-0.622009	0.241173	0.662139
C138	C	-0.288676	0.574506	0.995472
C139	C	-1.041349	-0.099356	0.422005
C140	C	-0.708016	0.233977	0.755339
C141	C	-0.374683	0.567310	1.088672
C142	C	-1.044175	-0.026088	0.425067
C143	C	-0.710841	0.307246	0.758400
C144	C	-0.377508	0.640579	1.091733
C145	C	-1.002579	0.014143	0.380003
C146	C	-0.669245	0.347476	0.713337
C147	C	-0.335912	0.680809	1.046670
N148	N	-0.968339	0.124959	0.342908
N149	N	-0.635005	0.458292	0.676241
N150	N	-0.301672	0.791625	1.009575
N151	N	-1.005467	0.089033	0.383143
N152	N	-0.672134	0.422366	0.716476
N153	N	-0.338800	0.755700	1.049809
C154	C	-0.994459	-0.386333	0.180710
C155	C	-0.661126	-0.053000	0.514043
C156	C	-0.327792	0.280333	0.847376
C157	C	-0.997839	-0.383158	0.102744
C158	C	-0.664506	-0.049824	0.436077
C159	C	-0.331173	0.283509	0.769411
C160	C	-1.021093	-0.361757	0.664190
C161	C	-0.687759	-0.028423	0.997524
C162	C	-0.354426	0.304910	1.330857
C163	C	-1.018043	-0.364557	0.737460
C164	C	-0.684709	-0.031224	1.070793
C165	C	-0.351376	0.302110	1.404127
C166	C	-0.969919	-0.408945	0.770491
C167	C	-0.636586	-0.075612	1.103824
C168	C	-0.303252	0.257721	1.437157
C169	C	-0.924838	-0.450531	0.730248
C170	C	-0.591504	-0.117198	1.063581
C171	C	-0.258171	0.216136	1.396914
C172	C	-0.927885	-0.447726	0.656979
C173	C	-0.594551	-0.114393	0.990313
C174	C	-0.261218	0.218940	1.323646
C175	C	-0.955805	-0.421939	0.989233
C176	C	-0.622472	-0.088605	1.322566
C177	C	-0.289139	0.244728	1.655899
C178	C	-0.952763	-0.424742	1.062506
C179	C	-0.619430	-0.091408	1.395840
C180	C	-0.286096	0.241925	1.729173
C181	C	-1.045967	-0.338767	1.069714
C182	C	-0.712634	-0.005433	1.403047
C183	C	-0.379301	0.327900	1.736380
C184	C	-1.049013	-0.335969	0.996444
C185	C	-0.715680	-0.002636	1.329777
C186	C	-0.382347	0.330697	1.663110
C187	C	-1.003930	-0.377552	0.956207
C188	C	-0.670596	-0.044219	1.289541
C189	C	-0.337263	0.289115	1.622874
N190	N	-0.966801	-0.411810	0.845384
N191	N	-0.633468	-0.078477	1.178717
N192	N	-0.300135	0.254856	1.512051
N193	N	-1.007044	-0.374683	0.881315
N194	N	-0.673711	-0.041349	1.214649
N195	N	-0.340377	0.291984	1.547982
H196	H	-0.580371	-0.461284	0.425480
H197	H	-0.247038	-0.127951	0.758814
H198	H	0.086295	0.205383	1.092147
H199	H	-0.885652	-0.486670	0.757147
H200	H	-0.552318	-0.153337	1.090480
H201	H	-0.218985	0.179997	1.423814
N202	N	-1.058134	0.191781	0.440191
N203	N	-0.724801	0.525114	0.773525
N204	N	-0.391467	0.858447	1.106858
N205	N	-1.055609	0.126365	0.437445
N206	N	-0.722276	0.459698	0.770778
N207	N	-0.388943	0.793032	1.104112
H208	H	-1.085620	0.097333	0.469944
H209	H	-0.752287	0.430666	0.803277
H210	H	-0.418954	0.764000	1.136611
H211	H	-1.088203	-0.299825	0.969555
H212	H	-0.754869	0.033508	1.302889
H213	H	-0.421536	0.366841	1.636222
N214	N	-0.254260	-0.309932	0.286263
N215	N	0.079073	0.023401	0.619596
N216	N	0.412407	0.356734	0.952929
N217	N	-0.214069	-0.264513	0.311318
N218	N	0.119265	0.068820	0.644651
N219	N	0.452598	0.402153	0.977984
H220	H	-0.190217	-0.229748	0.279349
H221	H	0.143117	0.103585	0.612682
H222	H	0.476450	0.436918	0.946015
N223	N	-0.909766	-0.464420	0.948134
N224	N	-0.576433	-0.131087	1.281467
N225	N	-0.243099	0.202246	1.614801
N226	N	-0.934417	-0.508593	0.906334
N227	N	-0.601084	-0.175260	1.239667
N228	N	-0.267751	0.158073	1.573000
H229	H	-0.901900	-0.538596	0.877303
H230	H	-0.568567	-0.205263	1.210636
H231	H	-0.235233	0.128070	1.543969
H232	H	-0.381055	-0.494755	0.456276
H233	H	-0.047721	-0.161422	0.789610
H234	H	0.285612	0.171911	1.122943
H235	H	-0.394036	-0.325470	0.300530
H236	H	-0.060703	0.007863	0.633863
H237	H	0.272631	0.341197	0.967197
H238	H	-0.898597	0.346110	0.267351
H239	H	-0.565263	0.679443	0.600684
H240	H	-0.231930	1.012777	0.934018
H241	H	-0.891172	-0.481581	0.624219
H242	H	-0.557838	-0.148248	0.957552
H243	H	-0.224505	0.185086	1.290885
H244	H	-1.080340	0.000808	0.464260
H245	H	-0.747007	0.334142	0.797594
H246	H	-0.413674	0.667475	1.130927
H247	H	-1.054644	0.333047	0.436432
H248	H	-0.721311	0.666380	0.769766
H249	H	-0.387977	0.999714	1.103099
H250	H	-1.075213	-0.132119	0.458694
H251	H	-0.741880	0.201214	0.792028
H252	H	-0.408547	0.534547	1.125361
H253	H	-0.893471	0.213184	0.261789
H254	H	-0.560138	0.546517	0.595123
H255	H	-0.226804	0.879851	0.928456
H256	H	-0.924296	0.013862	0.295178
H257	H	-0.590963	0.347195	0.628512
H258	H	-0.257630	0.680528	0.961845
H259	H	-0.919171	-0.119055	0.289609
H260	H	-0.585838	0.214278	0.622943
H261	H	-0.252505	0.547611	0.956276
H262	H	-1.060282	-0.325613	0.637302
H263	H	-0.726949	0.007720	0.970636
H264	H	-0.393616	0.341053	1.303969
N265	N	-1.064092	-0.322075	0.778551
N266	N	-0.730759	0.011258	1.111884
N267	N	-0.397425	0.344592	1.445218
N268	N	-1.107060	-0.282450	0.749051
N269	N	-0.773727	0.050883	1.082384
N270	N	-0.440393	0.384217	1.415718
H271	H	-1.139585	-0.252445	0.778071
H272	H	-0.806252	0.080889	1.111404
H273	H	-0.472919	0.414222	1.444737
H274	H	-0.593349	-0.292003	0.269739
H275	H	-0.260016	0.041331	0.603072
H276	H	0.073317	0.374664	0.936405
N277	N	-1.092012	-0.296299	1.110825
N278	N	-0.758679	0.037034	1.444158
N279	N	-0.425346	0.370368	1.777492
N280	N	-1.089289	-0.298807	1.176242
N281	N	-0.755955	0.034526	1.509575
N282	N	-0.422622	0.367859	1.842909
H283	H	-1.121808	-0.268812	1.205278
H284	H	-0.788475	0.064521	1.538612
H285	H	-0.455142	0.397855	1.871945
N286	N	-0.734619	-0.288191	0.266243
N287	N	-0.401286	0.045143	0.599576
N288	N	-0.067953	0.378476	0.932909
N289	N	-0.728731	-0.223303	0.273390
N290	N	-0.395398	0.110030	0.606723
N291	N	-0.062064	0.443363	0.940056
H292	H	-0.757744	-0.190740	0.243450
H293	H	-0.424411	0.142593	0.576784
H294	H	-0.091077	0.475927	0.910117
N295	N	-0.720132	-0.476825	0.439758
N296	N	-0.386799	-0.143491	0.773091
N297	N	-0.053465	0.189842	1.106425
N298	N	-0.684216	-0.517108	0.476822
N299	N	-0.350883	-0.183775	0.810156
N300	N	-0.017549	0.149559	1.143489
H301	H	-0.708051	-0.551874	0.508802
H302	H	-0.374718	-0.218541	0.842135
H303	H	-0.041384	0.114792	1.175469
N304	N	-0.239800	-0.498567	0.459776
N305	N	0.093534	-0.165233	0.793110
N306	N	0.426867	0.168100	1.126443
N307	N	-0.198220	-0.540583	0.431592
N308	N	0.135113	-0.207250	0.764926
N309	N	0.468447	0.126083	1.098259
H310	H	-0.169211	-0.573144	0.461539
H311	H	0.164123	-0.239811	0.794872
H312	H	0.497456	0.093522	1.128205
N313	N	-0.903577	-0.470066	1.096237
N314	N	-0.570244	-0.136733	1.429570
N315	N	-0.236911	0.196601	1.762903
N316	N	-0.863313	-0.507173	1.060304
N317	N	-0.529980	-0.173840	1.393638
N318	N	-0.196646	0.159493	1.726971
H319	H	-0.828569	-0.539174	1.084126
H320	H	-0.495236	-0.205840	1.417459
H321	H	-0.161902	0.127493	1.750792
