data_functionalizedCrystal
_audit_creation_method	'MofGen! by Chris Wilmer'
_symmetry_space_group_name_H-M	'P1'
_symmetry_Int_Tables_number	1
_symmetry_cell_setting	triclinic
loop_
_symmetry_equiv_pos_as_xyz
  x,y,z
_cell_length_a	14.044220
_cell_length_b	9.730223
_cell_length_c	14.044220
_cell_angle_alpha	90.005417
_cell_angle_beta	93.188878
_cell_angle_gamma	89.998340
loop_
_atom_site_label
_atom_site_type_symbol
_atom_site_fract_x
_atom_site_fract_y
_atom_site_fract_z
O1	O	1.277166	0.114149	0.230167
O2	O	1.000495	0.114184	0.221861
O3	O	1.134678	0.114153	0.087678
O4	O	1.142983	0.114180	0.364350
O5	O	1.134668	-0.114427	0.087674
O6	O	1.000485	-0.114396	0.221857
O7	O	1.277157	-0.114431	0.230162
Zn8	Zn	1.138819	-0.150705	0.226009
Zn9	Zn	1.138832	0.150458	0.226015
O10	O	1.142974	-0.114400	0.364345
C11	C	0.964868	-0.000102	0.218223
C12	C	0.858725	-0.000089	0.207379
C13	C	1.131037	-0.000137	0.052054
C14	C	1.120193	-0.000137	-0.054088
N15	N	1.138817	-0.356242	0.226004
C16	C	0.664388	-0.000118	0.187553
C17	C	0.613258	-0.000117	0.264467
C18	C	0.505122	-0.000133	0.253435
C19	C	0.772534	-0.000102	0.198583
C20	C	1.312783	-0.000142	0.233800
C21	C	1.418926	-0.000146	0.244645
C22	C	1.198258	-0.428181	0.166617
C23	C	1.198267	-0.572064	0.166618
C24	C	1.079394	-0.572056	0.285402
C25	C	1.079380	-0.428175	0.285395
N26	N	1.138841	0.355995	0.226012
C27	C	1.100366	-0.000115	-0.248426
C28	C	1.177281	-0.000120	-0.299556
C29	C	1.166249	-0.000108	-0.407692
C30	C	1.111397	-0.000127	-0.140280
C31	C	1.146614	-0.000107	0.399969
C32	C	1.157459	-0.000098	0.506112
H33	H	0.650697	-0.000103	0.338600
O34	O	1.265773	-0.000332	-0.255006
C35	C	1.415857	-0.118847	-0.231109
C36	C	1.315682	-0.118754	-0.281645
H37	H	1.456230	-0.214596	-0.252612
H38	H	1.456384	-0.023262	-0.252644
H39	H	1.409089	-0.118792	-0.150593
H40	H	1.322362	-0.118858	-0.362169
H41	H	1.275192	-0.214331	-0.260032
O42	O	1.021524	-0.641877	0.342988
C43	C	0.860253	-0.685861	0.384828
C44	C	0.925678	-0.606730	0.319534
H45	H	0.782750	-0.657453	0.365903
H46	H	0.870392	-0.801070	0.374626
H47	H	0.879196	-0.657570	0.462351
H48	H	0.906776	-0.634907	0.241987
H49	H	0.915529	-0.491541	0.329818
O50	O	0.619581	-0.000063	0.099186
C51	C	0.469371	-0.000155	0.007489
C52	C	0.520007	-0.000193	0.107617
H53	H	0.388858	-0.000290	0.014272
H54	H	0.490819	0.095532	-0.032974
H55	H	0.490959	-0.095789	-0.032964
H56	H	0.498445	0.095376	0.148150
H57	H	0.498557	-0.095943	0.148008
O58	O	1.012000	-0.000170	-0.293233
C59	C	0.920303	-0.000083	-0.443443
C60	C	1.020431	-0.000045	-0.392807
H61	H	0.927086	0.000047	-0.523956
H62	H	0.879835	-0.095769	-0.421997
H63	H	0.879855	0.095552	-0.421852
H64	H	1.060959	-0.095615	-0.414371
H65	H	1.060827	0.095704	-0.414254
O66	O	1.256015	-0.358517	0.108832
C67	C	1.373958	-0.373718	-0.008948
C68	C	1.308581	-0.452778	0.056434
H69	H	1.416489	-0.449894	-0.051315
H70	H	1.328747	-0.306413	-0.060217
H71	H	1.425087	-0.306302	0.036342
H72	H	1.257440	-0.520269	0.011220
H73	H	1.353851	-0.519997	0.107707
O74	O	1.021743	-0.358348	0.343230
C75	C	0.979779	-0.314350	0.504466
C76	C	1.045130	-0.393489	0.439087
H77	H	0.998651	-0.342754	0.581978
H78	H	0.989982	-0.199143	0.494340
H79	H	0.902269	-0.342639	0.485465
H80	H	1.122664	-0.365315	0.458047
H81	H	1.034844	-0.508677	0.449223
H82	H	1.246668	-0.630633	0.118259
