data_functionalizedCrystal
_audit_creation_method	'MofGen! by Chris Wilmer'
_symmetry_space_group_name_H-M	'P1'
_symmetry_Int_Tables_number	1
_symmetry_cell_setting	triclinic
loop_
_symmetry_equiv_pos_as_xyz
  x,y,z
_cell_length_a	19.121102
_cell_length_b	21.395361
_cell_length_c	21.395356
_cell_angle_alpha	90.031183
_cell_angle_beta	87.544846
_cell_angle_gamma	92.415181
loop_
_atom_site_label
_atom_site_type_symbol
_atom_site_fract_x
_atom_site_fract_y
_atom_site_fract_z
Zn1	Zn	1.073670	0.290378	-0.395055
Zn2	Zn	1.573670	0.790378	0.104945
Zn3	Zn	1.073577	0.395152	-0.290268
Zn4	Zn	1.573577	0.895152	0.209732
Zn5	Zn	0.956226	0.285919	-0.285828
Zn6	Zn	1.456226	0.785919	0.214172
Zn7	Zn	0.956175	0.390643	-0.390546
Zn8	Zn	1.456175	0.890643	0.109454
O9	O	1.014912	0.340523	-0.340424
O10	O	1.514912	0.840523	0.159576
O11	O	1.171941	0.308030	-0.384900
O12	O	1.671941	0.808030	0.115100
O13	O	1.057993	0.380683	-0.202001
O14	O	1.557993	0.880683	0.297999
O15	O	0.971866	0.198835	-0.300345
O16	O	1.471866	0.698835	0.199655
O17	O	1.171873	0.385007	-0.307913
O18	O	1.671873	0.885007	0.192087
O19	O	1.058151	0.202111	-0.380594
O20	O	1.558151	0.702111	0.119406
O21	O	0.971776	0.300430	-0.198738
O22	O	1.471776	0.800430	0.301262
O23	O	0.857936	0.296058	-0.295974
O24	O	1.357936	0.796058	0.204026
O25	O	0.971779	0.377322	-0.478823
O26	O	1.471779	0.877322	0.021177
O27	O	0.857898	0.372998	-0.372910
O28	O	1.357898	0.872998	0.127090
O29	O	1.058101	0.303657	-0.482135
O30	O	1.558101	0.803657	0.017865
O31	O	1.057943	0.482229	-0.303542
O32	O	1.557943	0.982229	0.196458
O33	O	0.971689	0.478917	-0.377216
O34	O	1.471689	0.978917	0.122784
C35	C	0.832433	0.333555	-0.333471
C36	C	1.332433	0.833555	0.166529
C37	C	0.754368	0.330589	-0.330512
C38	C	1.254368	0.830589	0.169488
C39	C	1.014819	0.503307	-0.340386
C40	C	1.514819	1.003307	0.159614
C41	C	1.014844	0.572949	-0.340393
C42	C	1.514844	1.072949	0.159607
C43	C	1.014945	0.340484	-0.503849
C44	C	1.514945	0.840484	-0.003849
C45	C	1.014959	0.340467	-0.573491
C46	C	1.514959	0.840467	-0.073491
C47	C	0.717691	0.369315	-0.369115
C48	C	1.217691	0.869315	0.130885
C49	C	0.644341	0.366520	-0.366337
C50	C	1.144341	0.866520	0.133663
C51	C	0.607668	0.325002	-0.324952
C52	C	1.107668	0.825002	0.175048
C53	C	0.644349	0.286272	-0.286348
C54	C	1.144349	0.786272	0.213652
C55	C	0.717699	0.289064	-0.289129
C56	C	1.217699	0.789064	0.210871
C57	C	0.386200	0.314562	-0.314556
C58	C	0.886200	0.814562	0.185444
C59	C	0.312846	0.311774	-0.311776
C60	C	0.812846	0.811774	0.188224
C61	C	0.312842	0.392021	-0.391767
C62	C	0.812842	0.892021	0.108233
C63	C	0.386193	0.394812	-0.394542
C64	C	0.886193	0.894812	0.105458
C65	C	0.422868	0.356080	-0.355940
C66	C	0.922868	0.856080	0.144060
C67	C	0.532691	0.322146	-0.322110
C68	C	1.032691	0.822146	0.177890
C69	C	0.497843	0.358934	-0.358785
C70	C	0.997843	0.858934	0.141215
C71	C	1.198104	0.347518	-0.347405
C72	C	1.698104	0.847518	0.152595
C73	C	1.276169	0.350499	-0.350379
C74	C	1.776169	0.850499	0.149621
C75	C	1.015024	0.177104	-0.340477
C76	C	1.515024	0.677104	0.159523
C77	C	1.015072	0.107464	-0.340500
C78	C	1.515072	0.607464	0.159500
C79	C	1.059797	0.607368	-0.302073
C80	C	1.559797	1.107368	0.197927
C81	C	1.059829	0.672805	-0.302089
C82	C	1.559829	1.172805	0.197911
C83	C	1.014897	0.703820	-0.340416
C84	C	1.514897	1.203820	0.159584
C85	C	0.969941	0.669393	-0.378743
C86	C	1.469941	1.169393	0.121257
C87	C	0.969915	0.603958	-0.378732
C88	C	1.469915	1.103958	0.121268
C89	C	0.951657	0.805123	-0.342923
C90	C	1.451657	1.305123	0.157077
C91	C	0.951682	0.870557	-0.342930
C92	C	1.451682	1.370557	0.157070
C93	C	1.014979	0.905643	-0.340456
C94	C	1.514979	1.405643	0.159544
C95	C	1.078251	0.875288	-0.337962
C96	C	1.578251	1.375288	0.162038
C97	C	1.078225	0.809853	-0.337950
C98	C	1.578225	1.309853	0.162050
C99	C	1.014921	0.774773	-0.340434
C100	C	1.514921	1.274773	0.159566
C101	C	1.059970	1.011016	-0.302151
C102	C	1.559970	1.511016	0.197849
C103	C	1.060004	1.076454	-0.302171
C104	C	1.560004	1.576454	0.197829
C105	C	0.970110	1.073041	-0.378822
C106	C	1.470110	1.573041	0.121178
C107	C	0.970082	1.007604	-0.378806
C108	C	1.470082	1.507604	0.121194
C109	C	1.015012	0.976596	-0.340467
C110	C	1.515012	1.476596	0.159533
C111	C	1.059973	0.302013	-1.077015
C112	C	1.559973	0.802013	-0.577015
C113	C	1.059967	0.302028	-1.011580
C114	C	1.559967	0.802028	-0.511580
C115	C	1.015019	0.340386	-0.977131
C116	C	1.515019	0.840386	-0.477131
C117	C	0.970085	0.378744	-1.008125
C118	C	1.470085	0.878744	-0.508125
C119	C	0.970097	0.378733	-1.073559
C120	C	1.470097	0.878733	-0.573559
C121	C	0.951719	0.342935	-0.871049
C122	C	1.451719	0.842935	-0.371049
C123	C	0.951706	0.342942	-0.805616
C124	C	1.451706	0.842942	-0.305616
C125	C	1.014983	0.340425	-0.775309
C126	C	1.514983	0.840425	-0.275309
C127	C	1.078274	0.337888	-0.810444
C128	C	1.578274	0.837888	-0.310444
C129	C	1.078286	0.337876	-0.875879
C130	C	1.578286	0.837876	-0.375879
C131	C	1.015001	0.340403	-0.906178
C132	C	1.515001	0.840403	-0.406178
C133	C	1.059911	0.302089	-0.673371
C134	C	1.559911	0.802089	-0.173371
C135	C	1.059907	0.302108	-0.607934
C136	C	1.559907	0.802108	-0.107934
C137	C	0.970018	0.378821	-0.604480
C138	C	1.470018	0.878821	-0.104480
C139	C	0.970029	0.378805	-0.669916
C140	C	1.470029	0.878805	-0.169916
C141	C	1.014974	0.340435	-0.704358
C142	C	1.514974	0.840435	-0.204358
C143	C	1.014920	0.340518	-0.177637
C144	C	1.514920	0.840518	0.322363
C145	C	1.015042	0.340363	-0.108001
C146	C	1.515042	0.840363	0.391999
H147	H	0.747545	0.403126	-0.402813
H148	H	1.247545	0.903126	0.097187
H149	H	1.096382	0.582123	-0.270857
H150	H	1.596382	1.082123	0.229143
H151	H	0.282973	0.423554	-0.423196
H152	H	0.782973	0.923554	0.076804
H153	H	1.096557	0.985768	-0.270935
H154	H	1.596557	1.485768	0.229065
O155	O	0.890232	0.900072	-0.345245
O156	O	1.390232	1.400072	0.154755
C157	C	0.811597	0.971082	-0.294319
C158	C	1.311597	1.471082	0.205681
C159	C	0.881199	0.937685	-0.291609
C160	C	1.381199	1.437685	0.208391
H161	H	0.804278	1.001510	-0.250967
H162	H	1.304278	1.501510	0.249033
H163	H	0.766319	0.934797	-0.296056
H164	H	1.266319	1.434797	0.203944
H165	H	0.812689	1.001699	-0.337971
H166	H	1.312689	1.501699	0.162029
H167	H	0.880176	0.907071	-0.247961
H168	H	1.380176	1.407071	0.252039
H169	H	0.926446	0.974003	-0.289905
H170	H	1.426446	1.474003	0.210095
O171	O	0.497029	0.281904	-0.281846
O172	O	0.997029	0.781904	0.218154
C173	C	0.414124	0.270202	-0.194174
C174	C	0.914124	0.770202	0.305826
C175	C	0.454486	0.315850	-0.239715
C176	C	0.954486	0.815850	0.260285
H177	H	0.379707	0.297628	-0.160107
H178	H	0.879707	0.797628	0.339893
H179	H	0.452896	0.243005	-0.167007
H180	H	0.952896	0.743005	0.332993
H181	H	0.379851	0.236167	-0.221727
H182	H	0.879851	0.736167	0.278273
H183	H	0.488760	0.349922	-0.212210
H184	H	0.988760	0.849922	0.287790
H185	H	0.415676	0.343001	-0.266883
H186	H	0.915676	0.843001	0.233117
H187	H	0.933489	0.409977	-0.980073
H188	H	1.433489	0.909977	-0.480073
H189	H	0.614484	0.252465	-0.252654
H190	H	1.114484	0.752465	0.247346
H191	H	1.096614	1.104477	-0.270968
H192	H	1.596614	1.604477	0.229032
H193	H	1.096574	0.270773	-1.105054
H194	H	1.596574	0.770773	-0.605054
H195	H	0.933528	1.098292	-0.410032
H196	H	1.433528	1.598292	0.089968
O197	O	0.753220	0.251426	-0.251563
O198	O	1.253220	0.751426	0.248437
C199	C	0.745487	0.171516	-0.171951
C200	C	1.245487	0.671516	0.328049
C201	C	0.705173	0.214119	-0.214449
C202	C	1.205173	0.714119	0.285551
H203	H	0.706659	0.141333	-0.141944
H204	H	1.206659	0.641333	0.358056
H205	H	0.779778	0.201516	-0.140396
H206	H	1.279778	0.701516	0.359604
H207	H	0.779877	0.140127	-0.202090
H208	H	1.279877	0.640127	0.297910
H209	H	0.670745	0.245514	-0.184359
H210	H	1.170745	0.745514	0.315641
H211	H	0.670927	0.184081	-0.246008
H212	H	1.170927	0.684081	0.253992
O213	O	0.926177	0.570614	-0.415972
O214	O	1.426177	1.070614	0.084028
C215	C	0.837052	0.574135	-0.492031
C216	C	1.337052	1.074135	0.007969
C217	C	0.886538	0.611974	-0.449877
C218	C	1.386538	1.111974	0.050123
H219	H	0.805002	0.607558	-0.519464
H220	H	1.305002	1.107558	-0.019464
H221	H	0.800287	0.542168	-0.461863
H222	H	1.300287	1.042168	0.038137
H223	H	0.869274	0.544660	-0.526009
H224	H	1.369274	1.044660	-0.026009
H225	H	0.854373	0.641484	-0.415892
H226	H	1.354373	1.141484	0.084108
H227	H	0.923305	0.643901	-0.480085
H228	H	1.423305	1.143901	0.019915
O229	O	0.277288	0.271471	-0.271497
O230	O	0.777288	0.771471	0.228503
C231	C	0.254748	0.240070	-0.164130
C232	C	0.754748	0.740070	0.335870
C233	C	0.295079	0.285738	-0.209671
C234	C	0.795079	0.785738	0.290329
H235	H	0.269106	0.251597	-0.114133
H236	H	0.769106	0.751597	0.385867
H237	H	0.269206	0.190102	-0.175729
H238	H	0.769206	0.690102	0.324271
H239	H	0.196030	0.244728	-0.168816
H240	H	0.696030	0.744728	0.331184
H241	H	0.353806	0.281136	-0.205010
H242	H	0.853806	0.781136	0.294990
H243	H	0.280563	0.335688	-0.198058
H244	H	0.780563	0.835688	0.301942
H245	H	0.933423	0.410055	-0.576433
H246	H	1.433423	0.910055	-0.076433
O247	O	0.608686	0.404052	-0.403900
O248	O	1.108686	0.904052	0.096100
C249	C	0.525882	0.409456	-0.485318
C250	C	1.025882	0.909456	0.014682
C251	C	0.566227	0.366876	-0.442822
C252	C	1.066227	0.866876	0.057178
H253	H	0.491533	0.379417	-0.516788
H254	H	0.991533	0.879417	-0.016788
H255	H	0.564665	0.439599	-0.515413
H256	H	1.064665	0.939599	-0.015413
H257	H	0.491542	0.440884	-0.455175
H258	H	0.991542	0.940884	0.044825
H259	H	0.600567	0.335410	-0.472917
H260	H	1.100567	0.835410	0.027083
H261	H	0.527405	0.336776	-0.412724
H262	H	1.027405	0.836776	0.087276
H263	H	1.096438	0.700834	-0.270885
H264	H	1.596438	1.200834	0.229115
H265	H	0.933474	0.979578	-0.410007
H266	H	1.433474	1.479578	0.089993
H267	H	1.096508	0.270846	-0.701415
H268	H	1.596508	0.770846	-0.201415
H269	H	0.416052	0.283028	-0.283118
H270	H	0.916052	0.783028	0.216882
O271	O	1.103578	0.264795	-0.577931
O272	O	1.603578	0.764795	-0.077931
C273	C	1.192756	0.188726	-0.588266
C274	C	1.692756	0.688726	-0.088266
C275	C	1.143322	0.230942	-0.622324
C276	C	1.643322	0.730942	-0.122324
H277	H	1.224912	0.161354	-0.624143
H278	H	1.724912	0.661354	-0.124143
H279	H	1.160558	0.154703	-0.556430
H280	H	1.660558	0.654703	-0.056430
H281	H	1.229430	0.218905	-0.559004
H282	H	1.729430	0.718905	-0.059004
H283	H	1.106637	0.200813	-0.651619
H284	H	1.606637	0.700813	-0.151619
H285	H	1.175564	0.264967	-0.654122
H286	H	1.675564	0.764967	-0.154122
H287	H	1.129743	0.785138	-0.335921
H288	H	1.629743	1.285138	0.164079
O289	O	0.533386	0.399347	-0.398951
O290	O	1.033386	0.899347	0.101049
C291	C	0.555831	0.506820	-0.429985
C292	C	1.055831	1.006820	0.070015
C293	C	0.515515	0.461119	-0.384468
C294	C	1.015515	0.961119	0.115532
H295	H	0.541408	0.556774	-0.418284
H296	H	1.041408	1.056774	0.081716
H297	H	0.541425	0.495392	-0.479993
H298	H	1.041425	0.995392	0.020007
H299	H	0.614551	0.502127	-0.425350
H300	H	1.114551	1.002127	0.074650
H301	H	0.456785	0.465787	-0.389047
H302	H	0.956785	0.965787	0.110953
H303	H	0.529978	0.472561	-0.334479
H304	H	1.029978	0.972561	0.165521
O305	O	0.421706	0.435159	-0.434799
O306	O	0.921706	0.935159	0.065201
C307	C	0.413959	0.514487	-0.513816
C308	C	0.913959	1.014487	-0.013816
C309	C	0.373653	0.468810	-0.468267
C310	C	0.873653	0.968810	0.031733
H311	H	0.375126	0.541716	-0.540877
H312	H	0.875126	1.041716	-0.040877
H313	H	0.448312	0.487104	-0.547975
H314	H	0.948312	0.987104	-0.047975
H315	H	0.448287	0.548489	-0.486277
H316	H	0.948287	1.048489	0.013723
H317	H	0.339287	0.434798	-0.495753
H318	H	0.839287	0.934798	0.004247
H319	H	0.339345	0.496234	-0.434107
H320	H	0.839345	0.996234	0.065893
O321	O	0.890102	0.771138	-0.345308
O322	O	1.390102	1.271138	0.154692
C323	C	0.764570	0.773353	-0.350286
C324	C	1.264570	1.273353	0.149714
C325	C	0.834225	0.811915	-0.347566
C326	C	1.334225	1.311915	0.152434
H327	H	0.719377	0.806304	-0.352126
H328	H	1.219377	1.306304	0.147874
H329	H	0.757118	0.742484	-0.306897
H330	H	1.257118	1.242484	0.193103
H331	H	0.765659	0.742715	-0.393899
H332	H	1.265659	1.242715	0.106101
H333	H	0.833186	0.842589	-0.303981
H334	H	1.333186	1.342589	0.196019
H335	H	0.841650	0.842743	-0.390985
H336	H	1.341650	1.342743	0.109015
H337	H	0.933438	0.410031	-0.695145
H338	H	1.433438	0.910031	-0.195145
H339	H	1.129793	0.903854	-0.335948
H340	H	1.629793	1.403854	0.164052
O341	O	0.890168	0.345431	-0.771584
O342	O	1.390168	0.845431	-0.271584
C343	C	0.764627	0.350404	-0.773702
C344	C	1.264627	0.850404	-0.273702
C345	C	0.834271	0.347605	-0.812317
C346	C	1.334271	0.847605	-0.312317
H347	H	0.719415	0.352149	-0.806618
H348	H	1.219415	0.852149	-0.306618
H349	H	0.765633	0.394045	-0.743102
H350	H	1.265633	0.894045	-0.243102
H351	H	0.757272	0.307041	-0.742789
H352	H	1.257272	0.807041	-0.242789
H353	H	0.841670	0.390936	-0.843265
H354	H	1.341670	0.890936	-0.343265
H355	H	0.833233	0.303936	-0.842875
H356	H	1.333233	0.803936	-0.342875
H357	H	1.096555	0.270796	-0.986346
H358	H	1.596555	0.770796	-0.486346
H359	H	0.933358	0.694649	-0.409951
H360	H	1.433358	1.194649	0.090049
H361	H	1.129820	0.335812	-0.904483
H362	H	1.629820	0.835812	-0.404483
H363	H	1.129800	0.335836	-0.785770
H364	H	1.629800	0.835836	-0.285770
O365	O	0.890281	0.345290	-0.900553
O366	O	1.390281	0.845290	-0.400553
C367	C	0.811592	0.294326	-0.971411
C368	C	1.311592	0.794326	-0.471411
C369	C	0.881192	0.291590	-0.938052
C370	C	1.381192	0.791590	-0.438052
H371	H	0.804214	0.250908	-1.001726
H372	H	1.304214	0.750908	-0.501726
H373	H	0.812634	0.337916	-1.002114
H374	H	1.312634	0.837916	-0.502114
H375	H	0.766373	0.296163	-0.935047
H376	H	1.266373	0.796163	-0.435047
H377	H	0.926449	0.289729	-0.974372
H378	H	1.426449	0.789729	-0.474372
H379	H	0.880090	0.248006	-0.907337
H380	H	1.380090	0.748006	-0.407337
O381	O	0.926380	0.416003	-1.103562
O382	O	1.426380	0.916003	-0.603562
C383	C	0.837255	0.492121	-1.093233
C384	C	1.337255	0.992121	-0.593233
C385	C	0.886718	0.449934	-1.059174
C386	C	1.386718	0.949934	-0.559174
H387	H	0.805186	0.519575	-1.057360
H388	H	1.305186	1.019575	-0.557360
H389	H	0.800506	0.461976	-1.122457
H390	H	1.300506	0.961976	-0.622457
H391	H	0.869496	0.526078	-1.125104
H392	H	1.369496	1.026078	-0.625104
H393	H	0.854533	0.415971	-1.027270
H394	H	1.354533	0.915971	-0.527270
H395	H	0.923469	0.480118	-1.029989
H396	H	1.423469	0.980118	-0.529989
