data_functionalizedCrystal
_audit_creation_method	'MofGen! by Chris Wilmer'
_symmetry_space_group_name_H-M	'P1'
_symmetry_Int_Tables_number	1
_symmetry_cell_setting	triclinic
loop_
_symmetry_equiv_pos_as_xyz
  x,y,z
_cell_length_a	19.121459
_cell_length_b	19.805407
_cell_length_c	19.121256
_cell_angle_alpha	87.549788
_cell_angle_beta	90.113108
_cell_angle_gamma	92.416784
loop_
_atom_site_label
_atom_site_type_symbol
_atom_site_fract_x
_atom_site_fract_y
_atom_site_fract_z
Zn1	Zn	-0.296141	-1.062643	0.384547
Zn2	Zn	0.203859	-0.562643	0.884547
Zn3	Zn	-0.408348	-1.062173	0.262317
Zn4	Zn	0.091652	-0.562173	0.762317
Zn5	Zn	-0.291129	-0.944457	0.267320
Zn6	Zn	0.208871	-0.444457	0.767320
Zn7	Zn	-0.413336	-0.954035	0.379510
Zn8	Zn	0.086664	-0.454035	0.879510
O9	O	-0.352238	-1.005827	0.323424
O10	O	0.147762	-0.505827	0.823424
O11	O	-0.311035	-1.157298	0.368348
O12	O	0.188965	-0.657298	0.868348
O13	O	-0.388613	-1.042352	0.164876
O14	O	0.111387	-0.542352	0.664876
O15	O	-0.193692	-0.956323	0.287073
O16	O	0.306308	-0.456323	0.787073
O17	O	-0.393473	-1.156953	0.278546
O18	O	0.106527	-0.656953	0.778546
O19	O	-0.197374	-1.043154	0.373199
O20	O	0.302626	-0.543154	0.873199
O21	O	-0.302494	-0.955867	0.168551
O22	O	0.197506	-0.455867	0.668551
O23	O	-0.307330	-0.851010	0.282188
O24	O	0.192670	-0.351010	0.782188
O25	O	-0.401975	-0.972647	0.478283
O26	O	0.098025	-0.472647	0.978283
O27	O	-0.397115	-0.858046	0.364613
O28	O	0.102885	-0.358046	0.864613
O29	O	-0.315872	-1.052441	0.481984
O30	O	0.184128	-0.552441	0.981984
O31	O	-0.507112	-1.051640	0.273661
O32	O	-0.007112	-0.551640	0.773661
O33	O	-0.510777	-0.972191	0.359762
O34	O	-0.010777	-0.472191	0.859762
C35	C	-0.352221	-0.829969	0.323397
C36	C	0.147779	-0.329969	0.823397
C37	C	-0.352231	-0.754737	0.323401
C38	C	0.147769	-0.254737	0.823401
C39	C	-0.399045	-0.723075	0.366244
C40	C	0.100955	-0.223075	0.866244
C41	C	-0.399045	-0.652387	0.366252
C42	C	0.100955	-0.152387	0.866252
C43	C	-0.352234	-0.613363	0.323413
C44	C	0.147766	-0.113363	0.823413
C45	C	-0.305415	-0.645030	0.280569
C46	C	0.194585	-0.145030	0.780569
C47	C	-0.305411	-0.715717	0.280565
C48	C	0.194589	-0.215717	0.780565
C49	C	-0.305425	-0.359958	0.280584
C50	C	0.194575	0.140042	0.780584
C51	C	-0.305434	-0.289266	0.280590
C52	C	0.194566	0.210734	0.780590
C53	C	-0.399059	-0.296627	0.366271
C54	C	0.100941	0.203373	0.866271
C55	C	-0.399056	-0.367314	0.366267
C56	C	0.100944	0.132686	0.866267
C57	C	-0.352235	-0.398976	0.323426
C58	C	0.147765	0.101024	0.823426
C59	C	-0.352234	-0.475624	0.323419
C60	C	0.147766	0.024376	0.823419
C61	C	-0.352237	-0.536716	0.323416
C62	C	0.147763	-0.036716	0.823416
C63	C	-0.534382	-1.012923	0.315637
C64	C	-0.034382	-0.512923	0.815637
C65	C	-0.612304	-1.016021	0.312330
C66	C	-0.112304	-0.516021	0.812330
C67	C	-1.052922	-1.035636	0.291358
C68	C	-0.552922	-0.535636	0.791358
C69	C	-0.979705	-1.032718	0.294467
C70	C	-0.479705	-0.532718	0.794467
C71	C	-0.945032	-0.989863	0.340816
C72	C	-0.445032	-0.489863	0.840816
C73	C	-0.983578	-0.949918	0.384053
C74	C	-0.483578	-0.449918	0.884053
C75	C	-1.056793	-0.952832	0.380939
C76	C	-0.556793	-0.452832	0.880939
C77	C	-0.724066	-0.978990	0.352453
C78	C	-0.224066	-0.478990	0.852453
C79	C	-0.650846	-0.976080	0.355565
C80	C	-0.150846	-0.476080	0.855565
C81	C	-0.646978	-1.058880	0.265978
C82	C	-0.146978	-0.558880	0.765978
C83	C	-0.720195	-1.061794	0.262872
C84	C	-0.220195	-0.561794	0.762872
C85	C	-0.758735	-1.021846	0.306106
C86	C	-0.258735	-0.521846	0.806106
C87	C	-0.870193	-0.986882	0.343997
C88	C	-0.370193	-0.486882	0.843997
C89	C	-0.833572	-1.024824	0.302922
C90	C	-0.333572	-0.524824	0.802922
C91	C	-0.169385	-0.998722	0.331256
C92	C	0.330615	-0.498722	0.831256
C93	C	-0.091463	-0.995695	0.334593
C94	C	0.408537	-0.495695	0.834593
C95	C	-0.360039	-1.013665	0.506283
C96	C	0.139961	-0.513665	1.006283
C97	C	-0.363363	-1.017005	0.584206
C98	C	0.136637	-0.517005	1.084206
C99	C	-0.352252	-0.182371	0.323444
C100	C	0.147748	0.317629	0.823444
C101	C	-0.352245	-0.257602	0.323436
C102	C	0.147755	0.242398	0.823436
C103	C	-0.320087	-0.973548	0.622728
C104	C	0.179913	-0.473548	1.122728
C105	C	-0.323217	-0.976684	0.695945
C106	C	0.176783	-0.476684	1.195945
C107	C	-0.369618	-1.023281	0.730640
C108	C	0.130382	-0.523281	1.230640
C109	C	-0.412898	-1.066740	0.692113
C110	C	0.087102	-0.566740	1.192113
C111	C	-0.409772	-1.063600	0.618896
C112	C	0.090228	-0.563600	1.118896
C113	C	-0.381303	-1.035010	0.951609
C114	C	0.118697	-0.535010	1.451609
C115	C	-0.384424	-1.038148	1.024830
C116	C	0.115576	-0.538148	1.524830
C117	C	-0.294743	-0.948091	1.028658
C118	C	0.205257	-0.448091	1.528658
C119	C	-0.291618	-0.944958	0.955441
C120	C	0.208382	-0.444958	1.455441
C121	C	-0.334901	-0.988415	0.916920
C122	C	0.165099	-0.488415	1.416920
C123	C	-0.372816	-1.026489	0.805479
C124	C	0.127184	-0.526489	1.305479
C125	C	-0.331706	-0.985203	0.842081
C126	C	0.168294	-0.485203	1.342081
C127	C	-0.344481	-0.998019	1.141275
C128	C	0.155519	-0.498019	1.641275
C129	C	-0.341149	-0.994691	1.063352
C130	C	0.158851	-0.494691	1.563352
H131	H	-0.437167	-0.626610	0.401138
H132	H	0.062833	-0.126610	0.901138
H133	H	-1.081148	-1.070537	0.253620
H134	H	-0.581148	-0.570537	0.753620
Br135	Br	-0.241900	-0.236305	0.222447
Br136	Br	0.258100	0.263695	0.722447
H137	H	-0.267306	-0.385728	0.245695
H138	H	0.232694	0.114272	0.745695
Br139	Br	-0.927402	-1.086934	0.235795
Br140	Br	-0.427402	-0.586934	0.735795
Br141	Br	-0.462592	-0.420272	0.424403
Br142	Br	0.037408	0.079728	0.924403
H143	H	-0.267297	-0.613251	0.245692
H144	H	0.232703	-0.113251	0.745692
Br145	Br	-0.475879	-1.129974	0.739196
Br146	Br	0.024121	-0.629974	1.239196
H147	H	-1.088173	-0.920311	0.416150
H148	H	-0.588173	-0.420311	0.916150
H149	H	-0.437181	-0.270840	0.401157
H150	H	0.062819	0.229160	0.901157
H151	H	-0.267287	-0.741496	0.245682
H152	H	0.232713	-0.241496	0.745682
Br153	Br	-0.823130	-0.928729	0.406903
Br154	Br	-0.323130	-0.428729	0.906903
Br155	Br	-0.767247	-1.119962	0.199973
Br156	Br	-0.267247	-0.619962	0.699973
H157	H	-0.259506	-0.912710	1.060029
H158	H	0.240494	-0.412710	1.560029
Br159	Br	-0.228639	-0.881720	0.908360
Br160	Br	0.271361	-0.381720	1.408360
Br161	Br	-0.257106	-0.910310	0.575650
Br162	Br	0.242894	-0.410310	1.075650
Br163	Br	-0.594671	-1.113092	0.207306
Br164	Br	-0.094671	-0.613092	0.707306
Br165	Br	-0.462583	-0.776029	0.424380
Br166	Br	0.037417	-0.276029	0.924380
H167	H	-0.287980	-0.941294	0.727307
H168	H	0.212020	-0.441294	1.227307
Br169	Br	-0.468511	-1.122575	0.566616
Br170	Br	0.031489	-0.622575	1.066616
H171	H	-0.622618	-0.941180	0.393310
H172	H	-0.122618	-0.441180	0.893310
Br173	Br	-0.447393	-1.101399	1.071916
Br174	Br	0.052607	-0.601399	1.571916
Br175	Br	-0.936522	-0.891755	0.446954
Br176	Br	-0.436522	-0.391755	0.946954
H177	H	-0.755436	-0.946456	0.387653
H178	H	-0.255436	-0.446456	0.887653
Br179	Br	-0.440040	-1.093992	0.899340
Br180	Br	0.059960	-0.593992	1.399340
H181	H	-0.861807	-1.059714	0.265183
H182	H	-0.361807	-0.559714	0.765183
Br183	Br	-0.268734	-0.921967	0.794995
Br184	Br	0.231266	-0.421967	1.294995
H185	H	-0.410597	-1.064428	0.833736
H186	H	0.089403	-0.564428	1.333736
