data_functionalizedCrystal
_audit_creation_method	'MofGen! by Chris Wilmer'
_symmetry_space_group_name_H-M	'P1'
_symmetry_Int_Tables_number	1
_symmetry_cell_setting	triclinic
loop_
_symmetry_equiv_pos_as_xyz
  x,y,z
_cell_length_a	12.759395
_cell_length_b	12.827892
_cell_length_c	12.827885
_cell_angle_alpha	89.970214
_cell_angle_beta	89.981133
_cell_angle_gamma	90.016929
loop_
_atom_site_label
_atom_site_type_symbol
_atom_site_fract_x
_atom_site_fract_y
_atom_site_fract_z
Zn1	Zn	1.606247	-0.415940	-0.590837
Zn2	Zn	1.606140	-0.590717	-0.416098
Zn3	Zn	1.430550	-0.415995	-0.416112
Zn4	Zn	1.430535	-0.590644	-0.590799
O5	O	1.518368	-0.503324	-0.503462
O6	O	1.753254	-0.439131	-0.567668
O7	O	1.582809	-0.567594	-0.269864
O8	O	1.453907	-0.269752	-0.439312
O9	O	1.753175	-0.567540	-0.439287
O10	O	1.582991	-0.269711	-0.567682
O11	O	1.453804	-0.439226	-0.269874
O12	O	1.283527	-0.439156	-0.439275
O13	O	1.453882	-0.567415	-0.737040
O14	O	1.283516	-0.567469	-0.567616
O15	O	1.582976	-0.439061	-0.737068
O16	O	1.582795	-0.736943	-0.439250
O17	O	1.453779	-0.736890	-0.567602
C18	C	1.518302	-0.774834	-0.503443
C19	C	1.518370	-0.890987	-0.503470
C20	C	1.245400	-0.503311	-0.503444
C21	C	1.128624	-0.503331	-0.503461
C22	C	1.582287	-0.942764	-0.440028
C23	C	1.582359	-1.062814	-0.440054
C24	C	1.128651	-0.637160	-0.636887
C25	C	1.073804	-0.704083	-0.703602
C26	C	0.964082	-0.704096	-0.703615
C27	C	0.909205	-0.637176	-0.636907
C28	C	0.964052	-0.570253	-0.570191
C29	C	1.073777	-0.570250	-0.570183
C30	C	0.964025	-0.436420	-0.436772
C31	C	1.073747	-0.436411	-0.436753
C32	C	0.909148	-0.369501	-0.370064
C33	C	0.963995	-0.302582	-0.303341
C34	C	1.073724	-0.302573	-0.303331
C35	C	1.128594	-0.369489	-0.370037
C36	C	1.792401	-0.503337	-0.503480
C37	C	1.909178	-0.503343	-0.503488
C38	C	1.518439	-0.503224	-0.776032
C39	C	1.518470	-0.503181	-0.892185
C40	C	1.518463	-0.230754	-0.503503
C41	C	1.518503	-0.114601	-0.503521
C42	C	1.582357	-0.439654	-0.943984
C43	C	1.582390	-0.439609	-1.064034
C44	C	1.518357	-0.503348	-0.231952
C45	C	1.518530	-0.503097	-0.115799
H46	H	1.636961	-0.898217	-0.385696
O47	O	1.647494	-0.374607	-1.117213
C48	C	1.587661	-0.307161	-1.180375
H49	H	1.504936	-0.300689	-1.147414
H50	H	1.625683	-0.226740	-1.181731
H51	H	1.583981	-0.339514	-1.263050
O52	O	1.453295	-0.568175	-0.945182
C53	C	1.476209	-0.672364	-0.918593
H54	H	1.516504	-0.674631	-0.839322
H55	H	1.400366	-0.719225	-0.914957
H56	H	1.530284	-0.707484	-0.979999
O57	O	1.647643	-1.116086	-0.375383
C58	C	1.633192	-1.224090	-0.389817
H59	H	1.598690	-1.238852	-0.470434
H60	H	1.711893	-1.265565	-0.382900
H61	H	1.577312	-1.255187	-0.327792
H62	H	0.819807	-0.369512	-0.370084
O63	O	1.453365	-1.061448	-0.568437
C64	C	1.513163	-0.998188	-0.635893
H65	H	1.595896	-1.031068	-0.642457
H66	H	1.475122	-0.996815	-0.716281
H67	H	1.516825	-0.915530	-0.603491
O68	O	1.453002	-0.944009	-0.568245
C69	C	1.348261	-0.917547	-0.545316
H70	H	1.345983	-0.838305	-0.505195
H71	H	1.301104	-0.913909	-0.620697
H72	H	1.312998	-0.979026	-0.491518
H73	H	1.217992	-0.637164	-0.636875
O74	O	1.127274	-0.769055	-0.768299
C75	C	1.235879	-0.754682	-0.754004
H76	H	1.250838	-0.720349	-0.673418
H77	H	1.277564	-0.832964	-0.760944
H78	H	1.267055	-0.699112	-0.816088
H79	H	1.217935	-0.369491	-0.370031
O80	O	1.647439	-0.374760	-0.890753
C81	C	1.587575	-0.307324	-0.827642
H82	H	1.507920	-0.344193	-0.811390
H83	H	1.630282	-0.293426	-0.750848
H84	H	1.576114	-0.229825	-0.869650
H85	H	0.919426	-0.758585	-0.757946
O86	O	0.802622	-0.637349	-0.637021
C87	C	0.765981	-0.710741	-0.710234
H88	H	0.829204	-0.771811	-0.724754
H89	H	0.692552	-0.750361	-0.678639
H90	H	0.746556	-0.669401	-0.786508
O91	O	0.910528	-0.237682	-0.238582
C92	C	0.801924	-0.252018	-0.252926
H93	H	0.786938	-0.332708	-0.287013
H94	H	0.760184	-0.244836	-0.174671
H95	H	0.770832	-0.190103	-0.308691
O96	O	1.126836	-0.237531	-0.238420
C97	C	1.054868	-0.178457	-0.179571
H98	H	0.976643	-0.221262	-0.175890
H99	H	1.086530	-0.167203	-0.097249
H100	H	1.043237	-0.099140	-0.217983
H101	H	1.463835	-0.557491	-1.071260
