data_functionalizedCrystal
_audit_creation_method	'MofGen! by Chris Wilmer'
_symmetry_space_group_name_H-M	'P1'
_symmetry_Int_Tables_number	1
_symmetry_cell_setting	triclinic
loop_
_symmetry_equiv_pos_as_xyz
  x,y,z
_cell_length_a	12.827893
_cell_length_b	19.121063
_cell_length_c	12.827885
_cell_angle_alpha	92.403967
_cell_angle_beta	89.980728
_cell_angle_gamma	92.468878
loop_
_atom_site_label
_atom_site_type_symbol
_atom_site_fract_x
_atom_site_fract_y
_atom_site_fract_z
Zn1	Zn	1.579835	-0.279579	-0.608539
Zn2	Zn	2.079835	0.220421	-0.108539
Zn3	Zn	1.572236	-0.397046	-0.441232
Zn4	Zn	2.072236	0.102954	0.058768
Zn5	Zn	1.405075	-0.279614	-0.433815
Zn6	Zn	1.905075	0.220386	0.066185
Zn7	Zn	1.397572	-0.396994	-0.615928
Zn8	Zn	1.897572	0.103006	-0.115928
O9	O	1.488680	-0.338308	-0.524878
O10	O	1.988680	0.161692	-0.024878
O11	O	1.725063	-0.295169	-0.586357
O12	O	2.225063	0.204831	-0.086357
O13	O	1.550022	-0.381505	-0.294014
O14	O	2.050022	0.118495	0.205986
O15	O	1.434577	-0.181325	-0.450796
O16	O	1.934577	0.318675	0.049204
O17	O	1.719480	-0.381471	-0.463437
O18	O	2.219480	0.118529	0.036563
O19	O	1.562973	-0.181300	-0.579165
O20	O	2.062973	0.318700	-0.079165
O21	O	1.427209	-0.295227	-0.288565
O22	O	1.927209	0.204773	0.211435
O23	O	1.257844	-0.295177	-0.457961
O24	O	1.757844	0.204823	0.042039
O25	O	1.421790	-0.381382	-0.761182
O26	O	1.921790	0.118618	-0.261182
O27	O	1.252332	-0.381415	-0.591759
O28	O	1.752332	0.118585	-0.091759
O29	O	1.555698	-0.295118	-0.755753
O30	O	2.055698	0.204882	-0.255753
O31	O	1.542747	-0.495323	-0.470602
O32	O	2.042747	0.004677	0.029398
O33	O	1.414422	-0.495285	-0.598951
O34	O	1.914422	0.004715	-0.098951
C35	C	1.217171	-0.338295	-0.524858
C36	C	1.717171	0.161705	-0.024858
C37	C	1.101017	-0.338306	-0.524875
C38	C	1.601017	0.161694	-0.024875
C39	C	1.046528	-0.381046	-0.590989
C40	C	1.546528	0.118954	-0.090989
C41	C	0.926477	-0.381059	-0.591008
C42	C	1.426477	0.118941	-0.091008
C43	C	1.476974	-0.520788	-0.536406
C44	C	1.976974	-0.020788	-0.036406
C45	C	1.472062	-0.598854	-0.541373
C46	C	1.972062	-0.098854	-0.041373
C47	C	1.536618	-0.635526	-0.476937
C48	C	2.036618	-0.135526	0.023063
C49	C	1.532005	-0.708877	-0.481615
C50	C	2.032005	-0.208877	0.018385
C51	C	1.462829	-0.745554	-0.550723
C52	C	1.962829	-0.245554	-0.050723
C53	C	1.398270	-0.708877	-0.615166
C54	C	1.898270	-0.208877	-0.115166
C55	C	1.402890	-0.635528	-0.610493
C56	C	1.902890	-0.135528	-0.110493
C57	C	1.445540	-0.967023	-0.568177
C58	C	1.945540	-0.467023	-0.068177
C59	C	1.440923	-1.040378	-0.572842
C60	C	1.940923	-0.540378	-0.072842
C61	C	1.574660	-1.040373	-0.439292
C62	C	2.074660	-0.540373	0.060708
C63	C	1.579269	-0.967021	-0.434621
C64	C	2.079269	-0.467021	0.065379
C65	C	1.514714	-0.930351	-0.499067
C66	C	2.014714	-0.430351	0.000933
C67	C	1.458109	-0.820531	-0.555503
C68	C	1.958109	-0.320531	-0.055503
C69	C	1.519440	-0.855375	-0.494292
C70	C	2.019440	-0.355375	0.005708
C71	C	1.761249	-0.338322	-0.524900
C72	C	2.261249	0.161678	-0.024900
C73	C	1.877402	-0.338328	-0.524909
C74	C	2.377402	0.161672	-0.024909
C75	C	1.488755	-0.338241	-0.797445
C76	C	1.988755	0.161759	-0.297445
C77	C	1.488787	-0.338212	-0.913596
C78	C	1.988787	0.161788	-0.413596
C79	C	1.500460	-0.155116	-0.513328
C80	C	2.000460	0.344884	-0.013328
C81	C	1.505479	-0.077050	-0.508407
C82	C	2.005479	0.422950	-0.008407
C83	C	1.555057	-0.295518	-0.962694
C84	C	2.055057	0.204482	-0.462694
C85	C	1.555091	-0.295487	-1.082742
C86	C	2.055091	0.204513	-0.582742
C87	C	1.488668	-0.338325	-0.253370
C88	C	1.988668	0.161675	0.246630
C89	C	1.488851	-0.338156	-0.137206
C90	C	1.988851	0.161844	0.362794
H91	H	1.058790	-0.301721	-0.468290
H92	H	1.558790	0.198279	0.031710
H93	H	1.088756	-0.417626	-0.647580
H94	H	1.588756	0.082374	-0.147580
H95	H	1.432071	-0.374737	-0.960437
H96	H	1.932071	0.125263	-0.460437
N97	N	0.936175	-0.292419	-0.453910
N98	N	1.436175	0.207581	0.046090
N99	N	0.999980	-0.247727	-0.488013
N100	N	1.499980	0.252273	0.011987
H101	H	1.041497	-0.215303	-0.437871
H102	H	1.541497	0.284697	0.062129
N103	N	1.417668	-0.384023	-1.084258
N104	N	1.917668	0.115977	-0.584258
N105	N	1.420422	-0.448836	-1.100457
N106	N	1.920422	0.051164	-0.600457
H107	H	1.370148	-0.481232	-1.063057
H108	H	1.870148	0.018768	-0.563057
H109	H	1.635597	-0.937160	-0.378347
H110	H	2.135597	-0.437160	0.121653
H111	H	1.392975	-0.937171	-0.620650
H112	H	1.892975	-0.437171	-0.120650
H113	H	0.879628	-0.417652	-0.647607
H114	H	1.379628	0.082348	-0.147607
H115	H	1.592944	-0.605668	-0.420657
H116	H	2.092944	-0.105668	0.079343
N117	N	1.336929	-0.598066	-0.676296
N118	N	1.836929	-0.098066	-0.176296
N119	N	1.272931	-0.557193	-0.636866
N120	N	1.772931	-0.057193	-0.136866
H121	H	1.226346	-0.530736	-0.683343
H122	H	1.726346	-0.030736	-0.183343
H123	H	1.611763	-0.258986	-0.915852
H124	H	2.111763	0.241014	-0.415852
H125	H	1.627218	-1.070238	-0.386825
H126	H	2.127218	-0.570238	0.113175
N127	N	1.626271	-0.249639	-1.135730
N128	N	2.126271	0.250361	-0.635730
N129	N	1.626202	-0.249681	-1.233175
N130	N	2.126202	0.250319	-0.733175
H131	H	1.676475	-0.217300	-1.270602
H132	H	2.176475	0.282700	-0.770602
N133	N	1.597970	-0.746325	-0.415803
N134	N	2.097970	-0.246325	0.084197
N135	N	1.659734	-0.713570	-0.354109
N136	N	2.159734	-0.213570	0.145891
H137	H	1.706332	-0.740017	-0.307631
H138	H	2.206332	-0.240017	0.192369
H139	H	1.384604	-1.070239	-0.629137
H140	H	1.884604	-0.570239	-0.129137
N141	N	1.327623	-0.746351	-0.685762
N142	N	1.827623	-0.246351	-0.185762
N143	N	1.323507	-0.811841	-0.689927
N144	N	1.823507	-0.311841	-0.189927
H145	H	1.273610	-0.838307	-0.739787
H146	H	1.773610	-0.338307	-0.239787
H147	H	1.575767	-0.825511	-0.438028
H148	H	2.075767	-0.325511	0.061972
N149	N	1.387443	-0.858011	-0.626074
N150	N	1.887443	-0.358011	-0.126074
N151	N	1.318304	-0.899002	-0.591846
N152	N	1.818304	-0.399002	-0.091846
H153	H	1.268397	-0.925476	-0.641687
H154	H	1.768397	-0.425476	-0.141687
