data_functionalizedCrystal
_audit_creation_method	'MofGen! by Chris Wilmer'
_symmetry_space_group_name_H-M	'P1'
_symmetry_Int_Tables_number	1
_symmetry_cell_setting	triclinic
loop_
_symmetry_equiv_pos_as_xyz
  x,y,z
_cell_length_a	11.169417
_cell_length_b	14.908520
_cell_length_c	14.906780
_cell_angle_alpha	90.089039
_cell_angle_beta	86.676873
_cell_angle_gamma	93.321403
loop_
_atom_site_label
_atom_site_type_symbol
_atom_site_fract_x
_atom_site_fract_y
_atom_site_fract_z
Zn1	Zn	1.850392	-0.327930	-0.529071
Zn2	Zn	1.827113	-0.487161	-0.387359
Zn3	Zn	1.637427	-0.336833	-0.378710
Zn4	Zn	1.638769	-0.478240	-0.537703
O5	O	1.738425	-0.407541	-0.458211
O6	O	2.015254	-0.349059	-0.510280
O7	O	1.791647	-0.474678	-0.260365
O8	O	1.674858	-0.209833	-0.391423
O9	O	1.998151	-0.466046	-0.406164
O10	O	1.831322	-0.203292	-0.501893
O11	O	1.652285	-0.364233	-0.254010
O12	O	1.469655	-0.355583	-0.399794
O13	O	1.677145	-0.450842	-0.662405
O14	O	1.470641	-0.459475	-0.516606
O15	O	1.832624	-0.340410	-0.656063
O16	O	1.792948	-0.611796	-0.414534
O17	O	1.654573	-0.605242	-0.524992
C18	C	1.426601	-0.407528	-0.458198
C19	C	1.293201	-0.407543	-0.458216
C20	C	1.721414	-0.641141	-0.471658
C21	C	1.714249	-0.741074	-0.477441
C22	C	1.845041	-0.935618	-0.373381
C23	C	1.838313	-1.029514	-0.378811
C24	C	1.694071	-1.022765	-0.493737
C25	C	1.700799	-0.928869	-0.488306
C26	C	1.776286	-0.885299	-0.428125
C27	C	1.783007	-0.791401	-0.422690
C28	C	1.638772	-0.784653	-0.537620
C29	C	1.632044	-0.878550	-0.543050
C30	C	2.051467	-0.407554	-0.458224
C31	C	2.184867	-0.407560	-0.458229
C32	C	1.757631	-0.393638	-0.692777
C33	C	1.765815	-0.387713	-0.792735
C34	C	1.755537	-0.173027	-0.444731
C35	C	1.762829	-0.073092	-0.438986
C36	C	1.719368	-0.421325	-0.224553
C37	C	1.711435	-0.426996	-0.124581
C38	C	1.857436	-0.321802	0.069438
C39	C	1.849986	-0.327128	0.163371
C40	C	1.689091	-0.442978	0.157219
C41	C	1.696541	-0.437652	0.063286
C42	C	1.780715	-0.377061	0.019399
C43	C	1.788159	-0.371731	-0.074535
C44	C	1.627270	-0.487585	-0.080686
C45	C	1.619820	-0.492911	0.013247
H46	H	1.844468	-0.755927	-0.373686
H47	H	1.551291	-0.542245	0.048993
F48	F	1.911495	-1.083065	-0.320547
H49	H	1.925962	-0.272457	0.033705
H50	H	1.856692	-0.322391	-0.110266
H51	H	1.570589	-0.914037	-0.592050
F52	F	1.545605	-0.546394	-0.133947
H53	H	1.632622	-1.058256	-0.542739
H54	H	1.906496	-0.900143	-0.324373
H55	H	1.582783	-0.743673	-0.582194
H56	H	1.912461	-0.282131	0.204110
H57	H	1.620569	-0.492315	0.192968
