data_functionalizedCrystal
_audit_creation_method	'MofGen! by Chris Wilmer'
_symmetry_space_group_name_H-M	'P1'
_symmetry_Int_Tables_number	1
_symmetry_cell_setting	triclinic
loop_
_symmetry_equiv_pos_as_xyz
  x,y,z
_cell_length_a	25.993458
_cell_length_b	25.993459
_cell_length_c	25.993511
_cell_angle_alpha	59.998162
_cell_angle_beta	89.999156
_cell_angle_gamma	60.000225
loop_
_atom_site_label
_atom_site_type_symbol
_atom_site_fract_x
_atom_site_fract_y
_atom_site_fract_z
O1	O	-0.438486	-0.368218	0.015293
O2	O	-0.363675	-0.262871	-0.015241
O3	O	-0.363672	-0.368217	0.090105
O4	O	-0.438489	-0.262872	-0.090053
O5	O	-0.278107	-0.453782	0.090105
O6	O	-0.278110	-0.348435	-0.015242
O7	O	-0.352922	-0.453782	0.015293
Zn8	Zn	-0.301931	-0.414694	0.000025
Zn9	Zn	-0.414666	-0.301959	0.000026
O10	O	-0.352925	-0.348436	-0.090054
C11	C	-0.277316	-0.161982	-0.022175
C12	C	-0.309062	-0.098492	-0.017804
C13	C	-0.215401	-0.192794	-0.022608
C14	C	-0.277319	-0.255138	-0.022182
C15	C	-0.309067	-0.291250	-0.017818
C16	C	-0.215403	-0.285808	-0.022615
C17	C	-0.184156	-0.255142	-0.022175
C18	C	-0.116294	-0.291259	-0.017803
C19	C	-0.308422	-0.192790	-0.022615
C20	C	-0.621955	-0.565869	0.037072
C21	C	-0.590709	-0.628219	0.037508
C22	C	-0.528796	-0.565867	0.037069
C23	C	-0.497692	-0.628217	0.037505
C24	C	-0.528795	-0.659029	0.037072
C25	C	-0.590710	-0.535199	0.037505
C26	C	-0.722642	-0.464940	0.029513
C27	C	-0.786264	-0.430643	0.024742
C28	C	-0.818173	-0.460083	0.022351
C29	C	-0.887157	-0.422897	0.017175
C30	C	-0.786465	-0.523827	0.024735
C31	C	-0.722845	-0.558124	0.029508
C32	C	-0.690936	-0.528678	0.031894
C33	C	-0.529037	-0.752158	0.029515
C34	C	-0.499712	-0.811010	0.024744
C35	C	-0.438364	-0.840525	0.022349
C36	C	-0.406566	-0.904333	0.017173
C37	C	-0.406330	-0.811198	0.024730
C38	C	-0.435652	-0.752352	0.029503
C39	C	-0.497006	-0.722832	0.031893
C40	C	-0.529039	-0.464935	0.029505
C41	C	-0.499717	-0.430630	0.024723
C42	C	-0.438369	-0.460069	0.022328
C43	C	-0.406571	-0.422880	0.017149
C44	C	-0.406337	-0.523807	0.024709
C45	C	-0.435656	-0.558111	0.029489
C46	C	-0.497007	-0.528673	0.031887
C47	C	-0.528800	-0.150795	-0.471170
C48	C	-0.590715	-0.088445	-0.502276
C49	C	-0.528801	-0.150794	-0.378010
C50	C	-0.590716	-0.088444	-0.409257
C51	C	-0.621962	-0.057634	-0.471172
C52	C	-0.497696	-0.181464	-0.409255
C53	C	-0.435430	-0.251726	-0.470926
C54	C	-0.405903	-0.286024	-0.500250
C55	C	-0.437736	-0.256585	-0.561599
C56	C	-0.405725	-0.293773	-0.593395
C57	C	-0.499096	-0.192842	-0.593635
C58	C	-0.528620	-0.158544	-0.564313
C59	C	-0.496787	-0.187988	-0.502959
C60	C	-0.722649	0.035493	-0.564543
C61	C	-0.786272	0.094345	-0.594071
C62	C	-0.818182	0.123861	-0.562238
C63	C	-0.887167	0.187669	-0.594249
C64	C	-0.786474	0.094536	-0.500878
C65	C	-0.722854	0.035690	-0.471354
C66	C	-0.690944	0.006168	-0.503186
C67	C	-0.435431	-0.251724	-0.277321
C68	C	-0.405908	-0.286027	-0.213695
C69	C	-0.437741	-0.256588	-0.181786
C70	C	-0.405731	-0.293774	-0.112801
C71	C	-0.499099	-0.192850	-0.213493
C72	C	-0.528625	-0.158547	-0.277116
C73	C	-0.496788	-0.187987	-0.309028
O74	O	0.090091	-0.453793	0.015309
O75	O	-0.090066	-0.348444	-0.015226
O76	O	0.015273	-0.453795	0.090120
O77	O	-0.015248	-0.348442	-0.090038
O78	O	0.015276	-0.368235	0.090127
O79	O	-0.090063	-0.262884	-0.015220
O80	O	0.090094	-0.368232	0.015315
Zn81	Zn	0.000016	-0.301973	0.000049
Zn82	Zn	0.000012	-0.414703	0.000040
O83	O	-0.015245	-0.262881	-0.090031
O84	O	-0.352917	0.074778	0.015314
O85	O	-0.278103	-0.074844	-0.015220
O86	O	-0.278107	-0.074853	0.090126
O87	O	-0.352914	0.074787	-0.090033
O88	O	-0.363674	-0.074850	0.090119
O89	O	-0.363670	-0.074840	-0.015227
O90	O	-0.438484	0.074782	0.015307
Zn91	Zn	-0.414663	-0.000029	0.000039
Zn92	Zn	-0.301925	-0.000034	0.000048
O93	O	-0.438481	0.074791	-0.090039
O94	O	-1.090075	0.358185	-0.636308
O95	O	-0.909918	0.208556	-0.561490
O96	O	-1.015259	0.208553	-0.561488
O97	O	-0.984734	0.358188	-0.636310
O98	O	-1.015257	0.208552	-0.647052
O99	O	-0.909916	0.208554	-0.647054
O100	O	-1.090073	0.358183	-0.721872
Zn101	Zn	-0.999994	0.283368	-0.698048
Zn102	Zn	-0.999997	0.283371	-0.585314
O103	O	-0.984732	0.358186	-0.721874
O104	O	-0.363672	-0.368217	-0.721856
O105	O	-0.438486	-0.262875	-0.647043
O106	O	-0.438485	-0.368220	-0.647039
O107	O	-0.363673	-0.262872	-0.721860
O108	O	-0.352919	-0.453785	-0.561473
O109	O	-0.352920	-0.348441	-0.561477
O110	O	-0.278106	-0.453783	-0.636290
Zn111	Zn	-0.301928	-0.414697	-0.585298
Zn112	Zn	-0.414664	-0.301961	-0.698035
O113	O	-0.278107	-0.348438	-0.636294
C114	C	-0.184157	-0.554680	0.277358
C115	C	-0.116295	-0.618172	0.309104
C116	C	-0.215402	-0.523869	0.308461
C117	C	-0.277317	-0.461519	0.184196
C118	C	-0.309064	-0.425404	0.116335
C119	C	-0.308422	-0.430850	0.215442
C120	C	-0.277317	-0.461519	0.277356
C121	C	-0.309064	-0.425404	0.309102
C122	C	-0.215403	-0.523869	0.215443
C123	C	0.022216	-0.461546	0.277378
C124	C	0.017847	-0.425434	0.309127
C125	C	0.022649	-0.523895	0.308480
C126	C	0.022218	-0.461539	0.184215
C127	C	0.017852	-0.425421	0.116353
C128	C	0.022651	-0.523888	0.215458
C129	C	0.022213	-0.554702	0.277373
C130	C	0.017842	-0.618193	0.309116
C131	C	0.022654	-0.430874	0.215464
C132	C	-0.277320	-0.255179	0.277365
C133	C	-0.309067	-0.291295	0.309105
C134	C	-0.215404	-0.285854	0.308471
C135	C	-0.277318	-0.162008	0.184211
C136	C	-0.309065	-0.098506	0.116351
C137	C	-0.215403	-0.192825	0.215459
C138	C	-0.184157	-0.255183	0.277372
C139	C	-0.116295	-0.291304	0.309120
C140	C	-0.308424	-0.192820	0.215452
C141	C	-0.036996	-0.057627	-0.471149
C142	C	-0.037431	-0.088434	-0.502256
C143	C	-0.037001	-0.150789	-0.377991
C144	C	-0.037436	-0.181455	-0.409239
C145	C	-0.036998	-0.150783	-0.471154
C146	C	-0.037433	-0.088440	-0.409234
C147	C	-0.029433	0.035497	-0.470902
C148	C	-0.024659	0.094348	-0.500225
C149	C	-0.022263	0.123866	-0.561574
C150	C	-0.017083	0.187673	-0.593369
C151	C	-0.024646	0.094544	-0.593611
C152	C	-0.029422	0.035698	-0.564291
C153	C	-0.031813	0.006175	-0.502936
C154	C	-0.029436	-0.158096	-0.564526
C155	C	-0.024665	-0.192189	-0.594055
C156	C	-0.022273	-0.255931	-0.562224
C157	C	-0.017096	-0.292903	-0.594236
C158	C	-0.024659	-0.285585	-0.500864
C159	C	-0.029433	-0.251492	-0.471338
C160	C	-0.031819	-0.187750	-0.503169
C161	C	-0.029443	-0.158113	-0.277301
C162	C	-0.024666	-0.192218	-0.213674
C163	C	-0.022275	-0.255960	-0.181767
C164	C	-0.017101	-0.292938	-0.112782
C165	C	-0.024655	-0.285608	-0.213475
C166	C	-0.029430	-0.251509	-0.277098
C167	C	-0.031824	-0.187761	-0.309009
O168	O	-0.015283	-0.348468	0.438547
O169	O	0.015263	-0.453813	0.363734
O170	O	-0.090086	-0.348466	0.363721
O171	O	0.090067	-0.453815	0.438560
O172	O	-0.090076	-0.262903	0.278160
O173	O	0.015274	-0.368250	0.278173
O174	O	-0.015273	-0.262904	0.352986
Zn175	Zn	0.000002	-0.301992	0.301995
Zn176	Zn	-0.000011	-0.414726	0.414725
O177	O	0.090077	-0.368251	0.352999
C178	C	-0.621954	0.434195	-0.471145
C179	C	-0.590708	0.464866	-0.502245
C180	C	-0.528793	0.341020	-0.377984
C181	C	-0.497688	0.371833	-0.409225
C182	C	-0.528792	0.434191	-0.471138
C183	C	-0.590709	0.371836	-0.409233
C184	C	-0.722643	0.441515	-0.470910
C185	C	-0.786267	0.475617	-0.500237
C186	C	-0.818176	0.539368	-0.561584
C187	C	-0.887162	0.576348	-0.593384
C188	C	-0.786467	0.569022	-0.593614
C189	C	-0.722846	0.534920	-0.564289
C190	C	-0.690937	0.471170	-0.502938
C191	C	-0.529033	0.535130	-0.564499
C192	C	-0.499707	0.569430	-0.594020
C193	C	-0.438357	0.539984	-0.562184
C194	C	-0.406558	0.577173	-0.594188
C195	C	-0.406323	0.476234	-0.500827
C196	C	-0.435646	0.441934	-0.471308
C197	C	-0.497001	0.471385	-0.503145
C198	C	-0.529036	0.247880	-0.277303
C199	C	-0.499713	0.189024	-0.213679
C200	C	-0.438364	0.159502	-0.181766
C201	C	-0.406566	0.095685	-0.112783
C202	C	-0.406331	0.188830	-0.213467
C203	C	-0.435651	0.247685	-0.277089
C204	C	-0.497003	0.277207	-0.309004
H205	H	-0.615797	-0.654004	0.038210
C206	C	-0.377144	-0.363070	0.181551
C207	C	-0.394034	-0.292242	0.171793
C208	C	-0.462753	-0.224464	0.137904
C209	C	-0.514583	-0.227514	0.113772
C210	C	-0.497695	-0.298346	0.123530
C211	C	-0.428976	-0.366124	0.157419
H212	H	-0.355665	-0.289981	0.189657
H213	H	-0.475254	-0.172030	0.130681
H214	H	-0.565453	-0.177341	0.088685
H215	H	-0.536064	-0.300606	0.105666
H216	H	-0.416474	-0.418558	0.164642
C217	C	-0.687956	-0.628240	0.032135
C218	C	-0.711150	-0.627649	-0.022798
C219	C	-0.676256	-0.697767	-0.020169
C220	C	-0.618168	-0.768476	0.037392
C221	C	-0.594971	-0.769070	0.092328
C222	C	-0.629865	-0.698952	0.089700
H223	H	-0.754153	-0.575303	-0.065412
H224	H	-0.693429	-0.697327	-0.060837
H225	H	-0.592337	-0.820382	0.039337
H226	H	-0.551968	-0.821416	0.134942
H227	H	-0.612692	-0.699392	0.130368
H228	H	0.023354	-0.380702	0.190382
C229	C	-0.181519	-0.558693	0.181545
C230	C	-0.120460	-0.565803	0.171768
C231	C	-0.086580	-0.600620	0.137868
C232	C	-0.113759	-0.628326	0.113744
C233	C	-0.174822	-0.621216	0.123521
C234	C	-0.208702	-0.586400	0.157422
H235	H	-0.100337	-0.545293	0.189626
H236	H	-0.041377	-0.605883	0.130630
H237	H	-0.088679	-0.654099	0.088649
H238	H	-0.194945	-0.641727	0.105663
H239	H	-0.253904	-0.581137	0.164659
H240	H	-0.525803	-0.378735	0.022786
H241	H	-0.615794	0.515041	-0.553117
H242	H	-0.355944	-0.337920	-0.474163
H243	H	-0.525795	0.621334	-0.643978
C244	C	-0.400412	0.371813	-0.403819
C245	C	-0.427676	0.369734	-0.350755
C246	C	-0.392442	0.299613	-0.283264
C247	C	-0.329944	0.231571	-0.268838
C248	C	-0.302677	0.233647	-0.321903
C249	C	-0.337911	0.303768	-0.389394
H250	H	-0.473944	0.420105	-0.361433
H251	H	-0.412627	0.298076	-0.243982
H252	H	-0.303861	0.179663	-0.218877
H253	H	-0.256409	0.183276	-0.311225
H254	H	-0.317726	0.305305	-0.428676
H255	H	-0.038084	-0.062687	-0.384132
H256	H	-0.356363	0.452259	-0.474909
C257	C	-0.400409	-0.284109	-0.403439
C258	C	-0.427835	-0.307680	-0.350489
C259	C	-0.392815	-0.340068	-0.282999
C260	C	-0.330370	-0.348885	-0.268461
C261	C	-0.302941	-0.325314	-0.321413
C262	C	-0.337961	-0.292926	-0.388902
H263	H	-0.474064	-0.301153	-0.361250
H264	H	-0.413121	-0.357516	-0.243801
H265	H	-0.304447	-0.372861	-0.218501
H266	H	-0.256713	-0.331841	-0.310651
H267	H	-0.317656	-0.275477	-0.428100
C268	C	-0.534121	-0.160461	-0.178393
C269	C	-0.556672	-0.082983	-0.201438
C270	C	-0.591691	-0.050596	-0.166336
C271	C	-0.604158	-0.095687	-0.108190
C272	C	-0.581607	-0.173170	-0.085143
C273	C	-0.546589	-0.205557	-0.120244
H274	H	-0.547443	-0.049600	-0.244483
H275	H	-0.608385	0.006762	-0.183398
H276	H	-0.630081	-0.071712	-0.082206
H277	H	-0.590836	-0.206553	-0.042097
H278	H	-0.529895	-0.262915	-0.103183
C279	C	0.023595	-0.558724	0.181571
C280	C	0.078481	-0.637735	0.208754
C281	C	0.079424	-0.672571	0.174871
C282	C	0.025480	-0.628396	0.113806
C283	C	-0.029410	-0.549381	0.086621
C284	C	-0.030353	-0.514545	0.120503
H285	H	0.118417	-0.670440	0.253960
H286	H	0.120057	-0.731063	0.194996
H287	H	0.026178	-0.654184	0.088724
H288	H	-0.069346	-0.516676	0.041414
H289	H	-0.070986	-0.456052	0.100379
H290	H	-0.190320	-0.335979	-0.023316
H291	H	-0.578585	-0.106649	-0.302931
C292	C	-0.181511	-0.558711	0.377187
C293	C	-0.171750	-0.514539	0.394086
C294	C	-0.137860	-0.549382	0.462809
C295	C	-0.113730	-0.628398	0.514633
C296	C	-0.123490	-0.672575	0.497735
C297	C	-0.157381	-0.637731	0.429012
H298	H	-0.189613	-0.456043	0.355722
H299	H	-0.130634	-0.516679	0.475318
H300	H	-0.088642	-0.654191	0.565506
H301	H	-0.105628	-0.731071	0.536099
H302	H	-0.164606	-0.670434	0.416503
H303	H	0.023338	-0.549675	0.359349
C304	C	-0.534950	-0.843264	0.022125
C305	C	-0.557560	-0.874987	0.077058
C306	C	-0.592794	-0.907246	0.074439
C307	C	-0.605417	-0.907783	0.016885
C308	C	-0.582807	-0.876059	-0.038053
C309	C	-0.547573	-0.843800	-0.035433
H310	H	-0.548216	-0.874590	0.119667
H311	H	-0.609531	-0.930730	0.115108
H312	H	-0.631499	-0.931663	0.014946
H313	H	-0.592151	-0.876455	-0.080661
H314	H	-0.530835	-0.820316	-0.076102
C315	C	-0.181505	-0.157995	0.181583
C316	C	-0.208679	-0.078988	0.157465
C317	C	-0.174779	-0.044164	0.123593
C318	C	-0.113707	-0.088347	0.113840
C319	C	-0.086530	-0.167359	0.137959
C320	C	-0.120429	-0.202183	0.171830
H321	H	-0.253892	-0.046277	0.164684
H322	H	-0.194898	0.014326	0.105738
H323	H	-0.088612	-0.062568	0.088766
H324	H	-0.041317	-0.200070	0.130739
H325	H	-0.100311	-0.260673	0.189685
C326	C	-0.022006	0.127014	-0.661099
C327	C	-0.072990	0.207395	-0.714049
C328	C	-0.070351	0.239863	-0.781536
C329	C	-0.016727	0.191949	-0.796073
C330	C	0.034260	0.111563	-0.743121
C331	C	0.031621	0.079096	-0.675634
H332	H	-0.112688	0.242868	-0.703290
H333	H	-0.108095	0.299370	-0.820735
H334	H	-0.014774	0.215983	-0.846031
H335	H	0.073959	0.076090	-0.753881
H336	H	0.069366	0.019589	-0.636435
H337	H	-0.190323	-0.336028	0.359344
C338	C	-0.377147	-0.157971	0.181549
C339	C	-0.394031	-0.150820	0.120467
C340	C	-0.462751	-0.115968	0.086560
C341	C	-0.514587	-0.088267	0.113736
C342	C	-0.497705	-0.095417	0.174821
C343	C	-0.428985	-0.130269	0.208728
H344	H	-0.355657	-0.171327	0.100347
H345	H	-0.475248	-0.110676	0.041341
H346	H	-0.565458	-0.062468	0.088636
H347	H	-0.536078	-0.074910	0.194941
H348	H	-0.416488	-0.135561	0.253948
H349	H	-0.038138	-0.231626	-0.384153
H350	H	-0.696664	0.389604	-0.420956
H351	H	-0.038131	-0.062642	-0.553128
C352	C	-0.624591	0.336992	-0.375342
C353	C	-0.648723	0.309298	-0.402529
C354	C	-0.682601	0.274452	-0.368637
C355	C	-0.692348	0.267301	-0.307557
C356	C	-0.668216	0.294996	-0.280367
C357	C	-0.634337	0.329842	-0.314259
H358	H	-0.641508	0.314591	-0.447747
H359	H	-0.700465	0.253950	-0.388765
H360	H	-0.717426	0.241506	-0.282468
H361	H	-0.675430	0.289703	-0.235149
H362	H	-0.616473	0.350343	-0.294131
C363	C	-0.338842	-0.843667	0.022093
C364	C	-0.325790	-0.844245	-0.035469
C365	C	-0.258303	-0.876710	-0.038104
C366	C	-0.203867	-0.908599	0.016823
C367	C	-0.216917	-0.908022	0.074390
C368	C	-0.284404	-0.875556	0.077024
H369	H	-0.366089	-0.820638	-0.076133
H370	H	-0.248643	-0.877137	-0.080718
H371	H	-0.153909	-0.932632	0.014873
H372	H	-0.176618	-0.931629	0.115053
H373	H	-0.294064	-0.875130	0.119639
H374	H	-0.525799	0.165148	-0.187874
H375	H	-0.525011	-0.168874	-0.643593
H376	H	-0.190318	-0.167005	-0.023309
C377	C	-0.022051	-0.159599	-0.178802
C378	C	0.031557	-0.150703	-0.173266
C379	C	0.034177	-0.118086	-0.138391
C380	C	-0.016812	-0.094364	-0.109052
C381	C	-0.070424	-0.103260	-0.114588
C382	C	-0.073043	-0.135877	-0.149463
H383	H	0.069305	-0.168263	-0.194986
H384	H	0.073864	-0.111501	-0.134294
H385	H	-0.014872	-0.070219	-0.083236
H386	H	-0.108172	-0.085699	-0.092868
H387	H	-0.112731	-0.142461	-0.153560
C388	C	-0.821145	0.443001	-0.465008
C389	C	-0.797933	0.365461	-0.442407
C390	C	-0.832813	0.332843	-0.407180
C391	C	-0.890905	0.377766	-0.394554
C392	C	-0.914120	0.455312	-0.417155
C393	C	-0.879240	0.487929	-0.452382
H394	H	-0.754927	0.332202	-0.451753
H395	H	-0.815628	0.275439	-0.390449
H396	H	-0.916726	0.353621	-0.368477
H397	H	-0.957126	0.488571	-0.407809
H398	H	-0.896425	0.545333	-0.469113
H399	H	-0.031396	-0.106204	-0.303280
H400	H	-0.359295	-0.166998	-0.023320
C401	C	-0.032072	0.003028	-0.403415
C402	C	0.022851	-0.028854	-0.348979
C403	C	0.020217	-0.061327	-0.281490
C404	C	-0.037339	-0.061918	-0.268437
C405	C	-0.092266	-0.030035	-0.322875
C406	C	-0.089632	0.002438	-0.390364
H407	H	0.065461	-0.028417	-0.358640
H408	H	0.060878	-0.084928	-0.241191
H409	H	-0.039288	-0.085956	-0.218477
H410	H	-0.134876	-0.030472	-0.313214
H411	H	-0.130293	0.026039	-0.430663
H412	H	-0.409570	-0.728473	0.031438
C413	C	-0.596111	-0.088429	-0.599545
C414	C	-0.649170	-0.086360	-0.572276
C415	C	-0.716661	-0.016244	-0.607507
C416	C	-0.731094	0.051803	-0.670007
C417	C	-0.678033	0.049737	-0.697279
C418	C	-0.610542	-0.020379	-0.662048
H419	H	-0.638487	-0.136735	-0.526007
H420	H	-0.755940	-0.014715	-0.587318
H421	H	-0.781055	0.103707	-0.696087
H422	H	-0.688716	0.100112	-0.743548
H423	H	-0.571263	-0.021908	-0.682237
C424	C	-0.821573	0.639156	-0.661099
C425	C	-0.879710	0.709765	-0.674142
C426	C	-0.914811	0.779898	-0.741627
C427	C	-0.891774	0.779421	-0.796068
C428	C	-0.833634	0.708809	-0.783027
C429	C	-0.798533	0.638676	-0.715542
H430	H	-0.896765	0.710121	-0.633840
H431	H	-0.957850	0.832169	-0.751281
H432	H	-0.917758	0.831337	-0.846024
H433	H	-0.816578	0.708453	-0.823329
H434	H	-0.755494	0.586405	-0.705888
H435	H	-0.022720	0.118216	-0.474136
C436	C	-0.687961	0.567531	-0.599513
C437	C	-0.711159	0.645065	-0.622104
C438	C	-0.676272	0.677674	-0.657327
C439	C	-0.618187	0.632749	-0.669958
C440	C	-0.594986	0.555210	-0.647367
C441	C	-0.629873	0.522601	-0.612145
H442	H	-0.754160	0.678325	-0.612754
H443	H	-0.693448	0.735073	-0.674050
H444	H	-0.592362	0.656888	-0.696032
H445	H	-0.551985	0.521950	-0.656718
H446	H	-0.612697	0.465202	-0.595421
H447	H	-0.696669	0.011463	-0.590469
H448	H	-0.031353	0.011819	-0.590373
H449	H	-0.031381	-0.106192	-0.590450
H450	H	-0.022725	-0.168036	-0.644015
H451	H	-0.022713	-0.337491	-0.474950
H452	H	-0.578992	-0.440963	0.031461
C453	C	-0.428968	-0.663059	0.038451
C454	C	-0.412072	-0.618893	-0.015493
C455	C	-0.343351	-0.653737	-0.014546
C456	C	-0.291527	-0.732748	0.040346
C457	C	-0.308422	-0.776920	0.094294
C458	C	-0.377142	-0.742075	0.093347
H459	H	-0.450436	-0.560400	-0.056131
H460	H	-0.330845	-0.621039	-0.054483
H461	H	-0.240655	-0.758542	0.041047
H462	H	-0.270057	-0.835412	0.134932
H463	H	-0.389649	-0.774774	0.133284
H464	H	-0.031379	-0.275635	-0.421380
H465	H	-0.031366	-0.275654	-0.302914
H466	H	-0.022704	-0.337517	-0.187490
C467	C	-0.821147	0.126597	-0.661562
C468	C	-0.879237	0.127132	-0.674720
C469	C	-0.914117	0.159390	-0.742212
C470	C	-0.890907	0.191112	-0.796546
C471	C	-0.832814	0.190577	-0.783390
C472	C	-0.797934	0.158320	-0.715898
H473	H	-0.896421	0.103649	-0.634497
H474	H	-0.957122	0.159785	-0.751951
H475	H	-0.916728	0.214991	-0.846508
H476	H	-0.815630	0.214061	-0.823613
H477	H	-0.754929	0.157925	-0.706159
C478	C	-0.338848	-0.556195	0.022075
C479	C	-0.325794	-0.511105	-0.035486
C480	C	-0.258306	-0.543493	-0.038118
C481	C	-0.203871	-0.620971	0.016810
C482	C	-0.216924	-0.666066	0.074375
C483	C	-0.284412	-0.633678	0.077007
H484	H	-0.366091	-0.453747	-0.076150
H485	H	-0.248644	-0.510110	-0.080731
H486	H	-0.153912	-0.644946	0.014862
H487	H	-0.176626	-0.723424	0.115039
H488	H	-0.294074	-0.667061	0.119620
C489	C	-0.338840	0.156357	-0.178364
C490	C	-0.285896	0.075980	-0.148986
C491	C	-0.218405	0.043503	-0.113883
C492	C	-0.203860	0.091402	-0.108156
C493	C	-0.256806	0.171784	-0.137535
C494	C	-0.324296	0.204261	-0.172639
H495	H	-0.296662	0.040518	-0.153224
H496	H	-0.179211	-0.016001	-0.092135
H497	H	-0.153899	0.067361	-0.082170
H498	H	-0.246040	0.207246	-0.133297
H499	H	-0.363490	0.263765	-0.194387
C500	C	-0.624591	-0.467424	0.038455
C501	C	-0.648714	-0.470482	0.093342
C502	C	-0.682590	-0.402712	0.094293
C503	C	-0.692342	-0.331883	0.040358
C504	C	-0.668218	-0.328822	-0.014533
C505	C	-0.634342	-0.396592	-0.015485
H506	H	-0.641495	-0.522916	0.133271
H507	H	-0.700448	-0.404978	0.134927
H508	H	-0.717419	-0.281715	0.041062
H509	H	-0.675437	-0.276388	-0.054463
H510	H	-0.616484	-0.394326	-0.056119
C511	C	-0.821580	0.127006	-0.465860
C512	C	-0.879719	0.127583	-0.453385
C513	C	-0.914820	0.160050	-0.418365
C514	C	-0.891781	0.191940	-0.395819
C515	C	-0.833639	0.191364	-0.408294
C516	C	-0.798538	0.158897	-0.443314
H517	H	-0.896776	0.103975	-0.470075
H518	H	-0.957860	0.160476	-0.409130
H519	H	-0.917765	0.215974	-0.369895
H520	H	-0.816582	0.214971	-0.391604
H521	H	-0.755498	0.158471	-0.452549
H522	H	-0.446816	0.346041	-0.384134
C523	C	-0.624614	-0.053606	-0.375375
C524	C	-0.634390	-0.097779	-0.314313
C525	C	-0.668291	-0.062941	-0.280434
C526	C	-0.692417	0.016071	-0.307617
C527	C	-0.682643	0.060249	-0.368682
C528	C	-0.648741	0.025411	-0.402561
H529	H	-0.616529	-0.156273	-0.294187
H530	H	-0.675527	-0.095645	-0.235229
H531	H	-0.717513	0.041860	-0.282538
H532	H	-0.700503	0.118743	-0.388808
H533	H	-0.641506	0.058115	-0.447766
C534	C	-0.821141	-0.360530	0.022118
C535	C	-0.797927	-0.361131	0.077049
C536	C	-0.832807	-0.291018	0.074428
C537	C	-0.890900	-0.220303	0.016876
C538	C	-0.914118	-0.219699	-0.038059
C539	C	-0.879238	-0.289812	-0.035438
H540	H	-0.754920	-0.413481	0.119656
H541	H	-0.815619	-0.291466	0.115095
H542	H	-0.916720	-0.168401	0.014936
H543	H	-0.957125	-0.167350	-0.080666
H544	H	-0.896426	-0.289365	-0.076105
H545	H	-0.696663	-0.440962	0.031460
H546	H	-0.812456	-0.547794	0.022786
H547	H	-0.578991	0.271911	-0.303287
H548	H	-0.578988	0.559109	-0.590430
H549	H	-0.409573	-0.610008	0.031424
C550	C	-0.338416	-0.356136	-0.178827
C551	C	-0.285351	-0.358215	-0.149487
C552	C	-0.217859	-0.428330	-0.114617
C553	C	-0.203432	-0.496365	-0.109087
C554	C	-0.256499	-0.494289	-0.138427
C555	C	-0.323991	-0.424174	-0.173297
H556	H	-0.296030	-0.307849	-0.153580
H557	H	-0.178576	-0.429867	-0.092898
H558	H	-0.153470	-0.548269	-0.083274
H559	H	-0.245820	-0.544655	-0.134334
H560	H	-0.363274	-0.422637	-0.195017
H561	H	-0.578993	-0.728129	0.031465
H562	H	-0.615794	-0.062654	-0.553151
H563	H	-0.446824	-0.231634	-0.384172
H564	H	-0.409504	-0.275698	-0.303301
H565	H	-0.697037	0.011820	-0.421397
H566	H	-0.409566	0.271563	-0.302898
