data_functionalizedCrystal
_audit_creation_method	'MofGen! by Chris Wilmer'
_symmetry_space_group_name_H-M	'P1'
_symmetry_Int_Tables_number	1
_symmetry_cell_setting	triclinic
loop_
_symmetry_equiv_pos_as_xyz
  x,y,z
_cell_length_a	17.699083
_cell_length_b	10.540539
_cell_length_c	16.176319
_cell_angle_alpha	89.995366
_cell_angle_beta	89.998611
_cell_angle_gamma	83.904253
loop_
_atom_site_label
_atom_site_type_symbol
_atom_site_fract_x
_atom_site_fract_y
_atom_site_fract_z
O1	O	1.005122	0.160521	-0.068627
O2	O	0.784880	0.181405	-0.068653
O3	O	0.900026	-0.013836	-0.068638
O4	O	0.889976	0.355761	-0.068642
O5	O	0.900010	-0.013848	0.068855
O6	O	0.784864	0.181392	0.068840
O7	O	1.005106	0.160508	0.068866
Cu8	Cu	0.894984	0.170949	0.081407
Cu9	Cu	0.895003	0.170964	-0.081194
O10	O	0.889960	0.355749	0.068852
C11	C	0.756670	0.180650	0.000090
C12	C	0.672637	0.178405	0.000080
C13	C	0.899264	-0.061131	0.000107
C14	C	0.897009	-0.202038	0.000102
C15	C	0.624761	0.293007	0.000079
C16	C	0.545804	0.290890	0.000090
C17	C	0.514725	0.174170	0.000095
C18	C	0.562607	0.059559	0.000098
C19	C	0.641562	0.061677	0.000094
C20	C	0.244188	0.051014	0.000119
C21	C	0.165226	0.048904	0.000121
C22	C	0.148430	0.280227	0.000115
C23	C	0.227386	0.282345	0.000110
C24	C	0.275261	0.167735	0.000118
C25	C	0.360875	0.170032	0.000108
C26	C	0.429112	0.171872	0.000099
C27	C	0.810610	-0.383885	-0.000217
C28	C	0.812896	-0.237308	0.000093
C29	C	0.937479	-0.264443	0.078622
C30	C	0.934609	-0.410935	0.078688
C31	C	0.936338	-0.411471	-0.077667
C32	C	0.937113	-0.264503	-0.078705
C33	C	1.033316	0.161263	0.000122
C34	C	1.117349	0.163508	0.000126
C35	C	0.890722	0.403044	0.000105
C36	C	0.892977	0.543951	0.000104
N37	N	0.894976	0.170938	0.195773
N38	N	0.895016	0.170965	-0.195559
C39	C	0.945978	0.084521	0.239043
C40	C	0.945982	0.084519	0.325591
C41	C	0.894987	0.170942	0.368865
C42	C	0.843979	0.257364	0.325588
C43	C	0.843972	0.257358	0.239043
C44	C	0.844005	0.257387	0.674617
C45	C	0.844017	0.257389	0.761168
C46	C	0.946015	0.084549	0.761164
C47	C	0.946008	0.084543	0.674619
C48	C	0.894998	0.170959	0.631349
C49	C	0.894993	0.170958	0.537505
C50	C	0.894994	0.170951	0.462708
H51	H	0.650060	0.388054	0.000074
C52	C	0.131040	-0.079494	0.000135
H53	H	0.170860	-0.147449	0.000148
H54	H	0.100588	-0.085131	-0.047809
H55	H	0.100589	-0.085117	0.048091
H56	H	0.987511	0.014151	0.360821
C57	C	0.493141	0.416949	0.000080
H58	H	0.441666	0.398975	0.000092
H59	H	0.502628	0.464816	-0.047872
H60	H	0.502631	0.464822	0.048028
H61	H	0.999250	-0.243219	0.081549
C62	C	0.787861	0.352392	0.373184
H63	H	0.757473	0.403839	0.335016
H64	H	0.815348	0.405194	0.406951
H65	H	0.756121	0.306752	0.406940
C66	C	0.787918	0.352450	0.808773
H67	H	0.795235	0.340083	0.866513
H68	H	0.737333	0.338765	0.794602
H69	H	0.796590	0.437156	0.794581
H70	H	0.252686	0.377390	0.000102
H71	H	0.987548	0.014180	0.796403
C72	C	0.899479	-0.206230	0.157551
H73	H	0.858957	-0.143911	0.142822
H74	H	0.935830	-0.167325	0.189325
H75	H	0.880188	-0.271551	0.189195
C76	C	0.899570	-0.453404	-0.158065
H77	H	0.857425	-0.498494	-0.144950
H78	H	0.935799	-0.507293	-0.188718
H79	H	0.882782	-0.380280	-0.190117
H80	H	0.802472	0.327753	0.639394
H81	H	0.802440	0.327726	0.203813
C82	C	1.002078	-0.010534	0.191445
H83	H	0.994777	0.001847	0.133704
H84	H	0.993411	-0.095236	0.205634
H85	H	1.052663	0.003164	0.205625
H86	H	0.907501	-0.223097	-0.136792
H87	H	0.109440	0.373548	0.000113
C88	C	0.528421	-0.068831	0.000103
H89	H	0.474541	-0.053681	0.000097
H90	H	0.544812	-0.116015	0.048049
H91	H	0.544813	-0.115999	-0.047851
H92	H	0.283159	-0.042309	0.000126
H93	H	0.781052	-0.194117	-0.056194
C94	C	0.694226	-0.064385	0.000086
H95	H	0.664409	-0.134203	0.000081
H96	H	0.725379	-0.068375	0.048030
H97	H	0.725371	-0.068357	-0.047870
C98	C	1.019966	-0.233340	-0.085094
H99	H	1.042771	-0.272273	-0.133233
H100	H	1.047377	-0.264995	-0.037607
H101	H	1.020867	-0.143526	-0.088391
H102	H	0.777512	-0.413492	0.055768
C103	C	0.765724	-0.421703	-0.076276
H104	H	0.796809	-0.481848	-0.108517
H105	H	0.750906	-0.348014	-0.108612
H106	H	0.721766	-0.458614	-0.058619
H107	H	0.780815	-0.194971	0.056466
C108	C	0.894177	-0.448304	0.157962
H109	H	0.879654	-0.373988	0.189821
H110	H	0.927673	-0.505973	0.189360
H111	H	0.850245	-0.487981	0.143608
H112	H	0.995101	-0.460010	0.082257
C113	C	1.018408	-0.476777	-0.078380
H114	H	1.026241	-0.530955	-0.031540
H115	H	1.052942	-0.413724	-0.076654
H116	H	1.026664	-0.525972	-0.127380
C117	C	1.002100	-0.010525	0.627021
H118	H	1.032472	-0.062003	0.665188
H119	H	1.033847	0.035063	0.593249
H120	H	0.974581	-0.063312	0.593271
