data_functionalizedCrystal
_audit_creation_method	'MofGen! by Chris Wilmer'
_symmetry_space_group_name_H-M	'P1'
_symmetry_Int_Tables_number	1
_symmetry_cell_setting	triclinic
loop_
_symmetry_equiv_pos_as_xyz
  x,y,z
_cell_length_a	14.044191
_cell_length_b	10.540539
_cell_length_c	12.503572
_cell_angle_alpha	93.560877
_cell_angle_beta	86.162165
_cell_angle_gamma	88.858634
loop_
_atom_site_label
_atom_site_type_symbol
_atom_site_fract_x
_atom_site_fract_y
_atom_site_fract_z
O1	O	1.265199	0.299579	-0.089259
O2	O	0.989155	0.288517	-0.089273
O3	O	1.133475	0.109979	-0.089264
O4	O	1.120879	0.478118	-0.089267
O5	O	1.122621	0.123430	0.089377
O6	O	0.978301	0.301969	0.089368
O7	O	1.254345	0.313030	0.089382
Cu8	Cu	1.115332	0.308728	0.105687
Cu9	Cu	1.128168	0.292820	-0.105577
O10	O	1.110026	0.491569	0.089374
C11	C	0.948381	0.290404	0.000046
C12	C	0.843058	0.275970	0.000041
C13	C	0.593285	0.351949	0.000051
C14	C	0.650221	0.249604	0.000050
C15	C	0.757525	0.264278	0.000045
C16	C	0.485971	0.337277	0.000056
C17	C	1.127103	0.069306	0.000054
C18	C	1.124278	-0.071929	0.000049
C19	C	1.016013	-0.266338	-0.000358
C20	C	1.018853	-0.119399	0.000044
C21	C	1.168815	-0.120774	0.102064
C22	C	1.165211	-0.267676	0.102150
C23	C	1.179698	-0.283274	-0.100999
C24	C	1.180751	-0.136295	-0.102347
C25	C	1.295119	0.311144	0.000061
C26	C	1.400443	0.325577	0.000060
C27	C	1.116397	0.532242	0.000053
C28	C	1.119223	0.673476	0.000052
N29	N	1.106311	0.319917	0.254279
N30	N	1.137196	0.281622	-0.254169
C31	C	1.093041	0.336386	0.473393
C32	C	1.150463	0.265156	0.526724
C33	C	1.143080	0.274320	0.648646
C34	C	1.100424	0.327224	0.351459
H35	H	0.618383	0.150958	-0.000025
H36	H	1.150275	-0.324100	-0.178320
C37	C	0.636297	0.485199	0.000027
C38	C	0.745173	0.499872	0.000008
C39	C	0.788199	0.633119	-0.000025
C40	C	0.722348	0.751694	-0.000038
C41	C	0.613465	0.737025	-0.000019
C42	C	0.570439	0.603777	0.000014
H43	H	0.793926	0.412093	0.000018
H44	H	0.868801	0.643978	-0.000039
H45	H	0.754198	0.850332	-0.000062
H46	H	0.564712	0.824804	-0.000029
H47	H	0.489836	0.592919	0.000028
H48	H	1.038340	0.404247	0.519297
H49	H	0.974202	-0.076194	0.073291
H50	H	0.983375	-0.086340	-0.073085
C51	C	1.273083	-0.079577	0.107225
C52	C	1.331318	-0.117019	0.200965
C53	C	1.435582	-0.075803	0.206132
C54	C	1.481611	0.002854	0.117558
C55	C	1.423375	0.040301	0.023810
C56	C	1.319112	-0.000915	0.018644
H57	H	1.297245	-0.175250	0.266539
H58	H	1.478691	-0.103524	0.275531
H59	H	1.558793	0.033364	0.121383
H60	H	1.457448	0.098531	-0.041764
H61	H	1.276002	0.026806	-0.050755
C62	C	1.136854	-0.093860	-0.204339
C63	C	1.197938	-0.023478	-0.287581
C64	C	1.154030	0.018907	-0.389585
C65	C	1.049038	-0.009090	-0.408345
C66	C	0.987947	-0.079476	-0.325100
C67	C	1.031855	-0.121861	-0.223097
H68	H	1.275665	-0.002750	-0.273696
H69	H	1.199254	0.071011	-0.451208
H70	H	1.016535	0.022286	-0.483854
H71	H	0.910220	-0.100204	-0.338986
H72	H	0.986631	-0.173965	-0.161474
C73	C	0.965754	-0.318086	-0.099195
C74	C	1.017809	-0.415632	-0.180745
C75	C	0.967553	-0.467380	-0.279591
C76	C	0.865241	-0.421582	-0.296889
C77	C	0.813180	-0.324030	-0.215337
C78	C	0.863436	-0.272282	-0.116490
H79	H	1.093551	-0.449539	-0.167942
H80	H	1.006092	-0.539595	-0.339961
H81	H	0.828038	-0.459889	-0.370061
H82	H	0.737437	-0.290123	-0.228139
H83	H	0.824896	-0.200067	-0.056120
H84	H	1.123083	-0.293925	0.178405
C85	C	0.954004	-0.305402	0.097913
C86	C	0.996681	-0.391636	0.178418
C87	C	0.934675	-0.430704	0.276688
C88	C	0.829993	-0.383538	0.294454
C89	C	0.787310	-0.297299	0.213947
C90	C	0.849316	-0.258231	0.115676
H91	H	1.074178	-0.426555	0.165269
H92	H	0.966272	-0.494544	0.336285
H93	H	0.784092	-0.412458	0.367200
H94	H	0.709813	-0.262379	0.227096
H95	H	0.817719	-0.194391	0.056079
C96	C	1.267252	-0.321657	0.108435
C97	C	1.351753	-0.231077	0.113364
C98	C	1.453790	-0.285051	0.119661
C99	C	1.471325	-0.429605	0.121029
C100	C	1.386820	-0.520194	0.116099
C101	C	1.284784	-0.466220	0.109802
H102	H	1.338775	-0.124061	0.112352
H103	H	1.516345	-0.217990	0.123310
H104	H	1.546858	-0.469560	0.125690
H105	H	1.399799	-0.627210	0.117112
H106	H	1.222229	-0.533281	0.106153
H107	H	1.128959	-0.076022	0.177977
H108	H	1.257988	-0.104764	-0.108504
C109	C	1.282626	-0.336737	-0.101935
C110	C	1.366808	-0.245482	-0.098779
C111	C	1.469731	-0.298948	-0.099707
C112	C	1.488471	-0.443670	-0.103791
C113	C	1.404285	-0.534934	-0.106948
C114	C	1.301363	-0.481467	-0.106020
H115	H	1.352938	-0.138342	-0.095755
H116	H	1.532050	-0.231388	-0.097370
H117	H	1.564660	-0.483249	-0.104478
H118	H	1.418155	-0.642074	-0.109971
H119	H	1.239043	-0.549028	-0.108356
H120	H	1.205170	0.197292	0.480814
