data_functionalizedCrystal
_audit_creation_method	'MofGen! by Chris Wilmer'
_symmetry_space_group_name_H-M	'P1'
_symmetry_Int_Tables_number	1
_symmetry_cell_setting	triclinic
loop_
_symmetry_equiv_pos_as_xyz
  x,y,z
_cell_length_a	6.817900
_cell_length_b	11.353959
_cell_length_c	16.255661
_cell_angle_alpha	105.295386
_cell_angle_beta	103.488922
_cell_angle_gamma	107.526623
loop_
_atom_site_label
_atom_site_type_symbol
_atom_site_fract_x
_atom_site_fract_y
_atom_site_fract_z
V1	V	-4.067278	-0.182068	-0.290700
O2	O	-4.012483	0.007662	-0.257719
O3	O	-4.058467	-0.359964	-0.315110
O4	O	-4.018322	-0.179745	-0.405441
O5	O	-4.052905	-0.173806	-0.166763
V6	V	-4.545848	-0.159318	-0.272669
O7	O	-4.339401	-0.231972	-0.330252
O8	O	-4.723923	-0.109413	-0.233118
O9	O	-4.331453	0.018579	-0.248260
O10	O	-4.718040	-0.349047	-0.305651
O11	O	-4.677618	-0.167580	-0.396607
O12	O	-4.371598	-0.161641	-0.157929
C13	C	-3.913116	-0.403317	-0.317336
C14	C	-3.987195	-0.548752	-0.338058
C15	C	-3.977973	-0.595542	-0.270984
C16	C	-4.054536	-0.745857	-0.292400
C17	C	-3.861907	-0.173427	-0.432561
C18	C	-3.903426	-0.172704	-0.526535
C19	C	-3.812059	-0.164074	-0.748082
C20	C	-3.993295	-0.275466	-0.833973
C21	C	-3.979508	-0.171350	-0.698584
C22	C	-3.872279	-0.058682	-0.780143
C23	C	-4.052983	-0.170035	-0.864774
C24	C	-4.160248	-0.282842	-0.783260
C25	C	-4.039149	-0.065959	-0.729400
C26	C	-4.220528	-0.177383	-0.815276
C27	C	-3.937176	-0.172108	-0.602847
C28	C	-4.095335	-0.169287	-0.960513
C29	C	-4.140147	0.061924	-0.246033
C30	C	-4.045307	0.207358	-0.225316
C31	C	-4.191356	-0.167963	-0.130805
C32	C	-4.129074	-0.168679	-0.036829
H33	H	-4.051779	-0.619976	-0.411338
C34	C	-4.135614	-0.769985	-0.449260
C35	C	-4.141720	-0.841989	-0.391335
H36	H	-4.189452	-0.829337	-0.510337
H37	H	-3.989190	-0.711636	-0.435043
H38	H	-4.224092	-0.720166	-0.441694
H39	H	-4.053227	-0.891801	-0.398896
H40	H	-4.288167	-0.900362	-0.405557
C41	C	-3.554637	-0.266561	-0.762284
C42	C	-3.578555	-0.156671	-0.708531
H43	H	-3.410491	-0.261996	-0.737862
H44	H	-3.580049	-0.266815	-0.822333
H45	H	-3.657132	-0.345397	-0.763100
H46	H	-3.476071	-0.077834	-0.707721
H47	H	-3.553120	-0.156404	-0.648467
C48	C	-3.899153	-0.566210	-0.124311
C49	C	-3.958131	-0.696511	-0.126381
H50	H	-3.845323	-0.506865	-0.063233
H51	H	-4.023507	-0.555965	-0.157469
H52	H	-3.788599	-0.547425	-0.150815
H53	H	-4.068696	-0.715298	-0.099882
H54	H	-3.833761	-0.706760	-0.093210
H55	H	-3.913407	-0.524319	-0.197704
C56	C	-4.210082	-0.481166	-0.749509
C57	C	-4.324061	-0.410878	-0.783959
H58	H	-4.311211	-0.560214	-0.749946
H59	H	-4.115084	-0.428192	-0.689121
H60	H	-4.126678	-0.502781	-0.786109
H61	H	-4.407453	-0.389255	-0.747355
H62	H	-4.419097	-0.463863	-0.844358
C63	C	-3.913059	0.170854	-0.665706
C64	C	-4.064601	0.053617	-0.668423
H65	H	-3.928750	0.244682	-0.628053
H66	H	-3.938531	0.172661	-0.725266
H67	H	-3.769115	0.174737	-0.641941
H68	H	-4.208546	0.049729	-0.692194
H69	H	-4.039144	0.051810	-0.608850
C70	C	-4.009155	-0.393713	-0.983120
C71	C	-3.967741	-0.395035	-0.894919
H72	H	-3.993379	-0.467530	-1.020741
H73	H	-3.908247	-0.314197	-0.982165
H74	H	-4.153946	-0.398536	-1.006274
H75	H	-3.822944	-0.390202	-0.871762
H76	H	-4.068652	-0.474571	-0.895871
C77	C	-3.495294	0.075930	-0.745557
C78	C	-3.708484	0.069216	-0.779623
H79	H	-3.394169	0.154889	-0.745230
H80	H	-3.480395	0.001493	-0.782845
H81	H	-3.466724	0.075982	-0.685485
H82	H	-3.737059	0.069154	-0.839697
H83	H	-3.723391	0.143672	-0.742334
H84	H	-4.393660	-0.183041	-0.844456
