data_functionalizedCrystal
_audit_creation_method	'MofGen! by Chris Wilmer'
_symmetry_space_group_name_H-M	'P1'
_symmetry_Int_Tables_number	1
_symmetry_cell_setting	triclinic
loop_
_symmetry_equiv_pos_as_xyz
  x,y,z
_cell_length_a	14.971487
_cell_length_b	11.892095
_cell_length_c	12.811442
_cell_angle_alpha	88.493659
_cell_angle_beta	83.832248
_cell_angle_gamma	86.102423
loop_
_atom_site_label
_atom_site_type_symbol
_atom_site_fract_x
_atom_site_fract_y
_atom_site_fract_z
O1	O	-1.193819	0.107076	-0.129149
O2	O	-0.933568	0.108780	-0.145407
O3	O	-1.069297	0.092376	0.014397
O4	O	-1.058090	0.123481	-0.288952
O5	O	-1.057980	-0.094266	0.001093
O6	O	-0.922251	-0.077861	-0.158710
O7	O	-1.182502	-0.079565	-0.142452
Zn8	Zn	-1.050580	-0.108347	-0.152694
Zn9	Zn	-1.065490	0.137562	-0.135166
O10	O	-1.046773	-0.063161	-0.302256
C11	C	-0.894579	0.015390	-0.151331
C12	C	-0.795263	0.015180	-0.149150
N13	N	-1.040410	-0.276173	-0.164655
C14	C	-0.738889	0.024807	-0.243031
C15	C	-0.645570	0.024582	-0.240978
C16	C	-0.608627	0.014739	-0.145042
C17	C	-0.665008	0.005108	-0.051154
C18	C	-0.758325	0.005325	-0.053209
C19	C	-0.470506	0.004659	-0.046878
C20	C	-0.377183	0.004444	-0.044822
C21	C	-0.357752	0.023916	-0.234647
C22	C	-0.451068	0.024133	-0.236702
C23	C	-0.507443	0.014505	-0.142813
C24	C	-1.146431	-0.525628	-0.039900
C25	C	-1.139329	-0.643110	-0.048269
C26	C	-1.019101	-0.628624	-0.189756
C27	C	-1.026203	-0.511141	-0.181387
C28	C	-1.089871	-0.459647	-0.106458
C29	C	-1.096976	-0.342162	-0.098095
C30	C	-0.976744	-0.327678	-0.239576
C31	C	-0.969642	-0.445161	-0.247945
C32	C	-0.221492	0.013834	-0.136527
C33	C	-0.320810	0.014071	-0.138703
C34	C	-1.062662	-0.004923	0.046566
C35	C	-1.059742	-0.016776	0.162241
N36	N	-1.075667	0.305387	-0.123195
C37	C	-1.053408	0.034141	-0.334425
C38	C	-1.056328	0.046001	-0.450100
C39	C	-1.049463	-0.135219	0.318032
C40	C	-1.052202	-0.124084	0.209344
C41	C	-1.064540	0.079404	0.223834
C42	C	-1.061801	0.068270	0.332522
C43	C	-1.054263	-0.039046	0.379617
C44	C	-1.051530	-0.050179	0.488308
C45	C	-1.063862	0.153308	0.502794
C46	C	-1.066601	0.164443	0.394107
H47	H	-0.768960	0.032823	-0.321153
F48	F	-0.530502	-0.005592	0.053049
F49	F	-1.074640	0.278649	0.343975
F50	F	-1.041454	-0.249430	0.368159
F51	F	-0.951336	-0.683442	-0.269487
H52	H	-0.599674	0.032422	-0.317425
F53	F	-0.490385	0.034621	-0.338806
F54	F	-0.625688	-0.005375	0.050948
H55	H	-0.804224	-0.002513	0.023239
H56	H	-1.070675	0.166775	0.185469
H57	H	-0.311847	0.031751	-0.311095
H58	H	-1.067773	0.231620	0.552949
H59	H	-0.347107	-0.003572	0.033297
H60	H	-1.148820	-0.300237	-0.037087
F61	F	-1.214199	-0.470822	0.039835
H62	H	-0.917802	-0.487101	-0.308948
F63	F	-1.199526	-0.713328	0.022573
H64	H	-0.930692	-0.273943	-0.293775
F65	F	-1.043512	-0.164392	0.538429
F66	F	-1.047090	-0.226446	0.143804
