data_functionalizedCrystal
_audit_creation_method	'MofGen! by Chris Wilmer'
_symmetry_space_group_name_H-M	'P1'
_symmetry_Int_Tables_number	1
_symmetry_cell_setting	triclinic
loop_
_symmetry_equiv_pos_as_xyz
  x,y,z
_cell_length_a	15.297476
_cell_length_b	15.298852
_cell_length_c	14.908308
_cell_angle_alpha	95.878360
_cell_angle_beta	95.861816
_cell_angle_gamma	69.212574
loop_
_atom_site_label
_atom_site_type_symbol
_atom_site_fract_x
_atom_site_fract_y
_atom_site_fract_z
Zn1	Zn	1.454103	-0.648585	0.649166
Zn2	Zn	1.489315	-0.795735	0.478952
Zn3	Zn	1.306948	-0.613300	0.479003
Zn4	Zn	1.327616	-0.774952	0.605418
O5	O	1.394495	-0.708143	0.553135
O6	O	1.588030	-0.691570	0.644875
O7	O	1.471210	-0.765466	0.354818
O8	O	1.303082	-0.488746	0.519906
O9	O	1.613900	-0.799681	0.519819
O10	O	1.411196	-0.514670	0.644924
O11	O	1.337226	-0.631431	0.354856
O12	O	1.180433	-0.611278	0.477485
O13	O	1.338308	-0.764258	0.735361
O14	O	1.195618	-0.730043	0.570361
O15	O	1.431237	-0.671417	0.767503
O16	O	1.491252	-0.922213	0.477398
O17	O	1.372452	-0.906944	0.570311
C18	C	1.154511	-0.664577	0.519181
C19	C	1.051848	-0.645963	0.504674
C20	C	0.995665	-0.575286	0.449603
C21	C	0.899208	-0.557794	0.435971
C22	C	0.858922	-0.610973	0.477414
C23	C	0.915103	-0.681647	0.532491
C24	C	1.011571	-0.699145	0.546119
C25	C	0.874828	-0.734833	0.573930
C26	C	0.931009	-0.805507	0.629007
C27	C	1.027468	-0.823002	0.642633
C28	C	1.067754	-0.769823	0.601190
C29	C	0.778360	-0.717335	0.560302
C30	C	0.794266	-0.841195	0.656818
C31	C	0.890724	-0.858686	0.670450
C32	C	1.437940	-0.948093	0.519125
C33	C	1.456609	-1.050762	0.504616
C34	C	1.261667	-1.308452	0.656997
C35	C	1.244129	-1.211991	0.670635
C36	C	1.297247	-1.171679	0.629131
C37	C	1.367907	-1.227838	0.573988
C38	C	1.385452	-1.324310	0.560355
C39	C	1.421032	-1.187536	0.532489
C40	C	1.491692	-1.243695	0.477345
C41	C	1.509233	-1.340157	0.463714
C42	C	1.456115	-1.380469	0.505218
C43	C	1.403487	-1.091064	0.546122
C44	C	1.527272	-1.106921	0.449479
C45	C	1.544810	-1.203383	0.435842
C46	C	1.635417	-0.751880	0.587221
C47	C	1.738083	-0.770518	0.601747
C48	C	1.383150	-0.719455	0.784521
C49	C	1.378316	-0.724276	0.883124
C50	C	1.350906	-0.467261	0.587301
C51	C	1.332330	-0.364612	0.601860
C52	C	1.405837	-0.696818	0.322666
C53	C	1.410804	-0.691770	0.224126
C54	C	1.465992	-0.636637	1.101883
C55	C	1.461451	-0.641164	1.194530
C56	C	1.364690	-0.737850	1.161067
C57	C	1.369230	-0.733323	1.068420
C58	C	1.419884	-0.682716	1.038832
C59	C	1.424429	-0.678195	0.946183
C60	C	1.327663	-0.774876	0.912721
C61	C	1.323123	-0.779402	1.005368
H62	H	0.853472	-0.500255	0.391122
H63	H	1.507241	-0.595436	1.077792
H64	H	1.290122	-0.812400	0.861374
C65	C	1.309780	-0.792935	1.193083
C66	C	1.347514	-0.886861	1.160431
C67	C	1.296946	-0.937628	1.189899
H68	H	1.313645	-0.789136	1.257278
H69	H	1.246012	-0.767464	1.171008
H70	H	1.411266	-0.912324	1.182510
H71	H	1.343648	-0.890688	1.096239
H72	H	1.233178	-0.912157	1.167825
H73	H	1.300814	-0.933821	1.254094
H74	H	1.322535	-1.001359	1.167743
C75	C	1.479263	-0.623160	0.913930
C76	C	1.418855	-0.551893	0.861718
C77	C	1.469334	-0.501178	0.831986
H78	H	1.506078	-0.596274	0.964668
H79	H	1.527661	-0.663990	0.878423
H80	H	1.370474	-0.511069	0.897224
H81	H	1.392038	-0.578753	0.810967
H82	H	1.517732	-0.542008	0.796479
H83	H	1.496147	-0.474298	0.882730
H84	H	1.428357	-0.452823	0.796551
H85	H	0.780381	-0.596727	0.466312
H86	H	1.073211	-0.880557	0.687471
C87	C	0.951892	-0.935411	0.730173
C88	C	1.044993	-0.939362	0.733216
C89	C	1.101369	-1.010037	0.788213
H90	H	0.930868	-0.922127	0.789514
H91	H	0.948016	-0.993966	0.706061
H92	H	1.048865	-0.880821	0.757331
H93	H	1.066045	-0.952659	0.673889
H94	H	1.097494	-1.068591	0.764101
H95	H	1.080337	-0.996746	0.847551
H96	H	1.164546	-1.012732	0.790278
C97	C	1.621524	-1.264528	0.376053
C98	C	1.625532	-1.357638	0.373020
C99	C	1.696199	-1.413994	0.317964
H100	H	1.608198	-1.243521	0.316715
H101	H	1.680078	-1.260614	0.400113
H102	H	1.566991	-1.361547	0.348956
H103	H	1.638870	-1.378673	0.432343
H104	H	1.754752	-1.410080	0.342025
H105	H	1.682866	-1.392978	0.258631
H106	H	1.698933	-1.477176	0.315906
C107	C	1.511617	-0.591112	1.262846
C108	C	1.556964	-0.545845	1.217099
C109	C	1.603197	-0.499736	1.280002
H110	H	1.467317	-0.546164	1.299725
H111	H	1.556534	-0.635498	1.299662
H112	H	1.512052	-0.501464	1.180299
H113	H	1.601278	-0.590773	1.180224
H114	H	1.648114	-0.544122	1.316818
H115	H	1.558891	-0.454792	1.316878
H116	H	1.633977	-0.469024	1.248972
C117	C	1.267960	-0.834203	1.037444
C118	C	1.174031	-0.796398	1.004847
C119	C	1.123187	-0.846852	1.034383
H120	H	1.293340	-0.897979	1.015391
H121	H	1.271793	-0.830282	1.101652
H122	H	1.170203	-0.800329	0.940652
H123	H	1.148624	-0.732628	1.026897
H124	H	1.127020	-0.842931	1.098591
H125	H	1.148575	-0.910626	1.012328
H126	H	1.059449	-0.821204	1.012277
C127	C	0.717221	-0.640684	0.500498
C128	C	0.624124	-0.636757	0.497406
C129	C	0.567780	-0.566165	0.442307
H130	H	0.721040	-0.582097	0.524530
H131	H	0.738326	-0.654062	0.441176
H132	H	0.603025	-0.623373	0.556716
H133	H	0.620276	-0.695327	0.473365
H134	H	0.588884	-0.579543	0.382985
H135	H	0.571607	-0.507582	0.466345
H136	H	0.504609	-0.563496	0.440196
C137	C	1.326842	-1.029948	0.605987
C138	C	1.322857	-0.936841	0.609066
C139	C	1.252266	-0.880516	0.664216
H140	H	1.268258	-1.033807	0.582002
H141	H	1.340257	-1.051032	0.665306
H142	H	1.309436	-0.915763	0.549759
H143	H	1.381424	-0.932953	0.633060
H144	H	1.265681	-0.901601	0.723535
H145	H	1.193687	-0.884383	0.640225
H146	H	1.249559	-0.817339	0.666319
C147	C	1.039573	-0.517627	0.404726
C148	C	1.136072	-0.548067	0.428466
C149	C	1.176548	-0.494963	0.387147
H150	H	1.029205	-0.525220	0.340950
H151	H	1.011946	-0.453358	0.424386
H152	H	1.163690	-0.612321	0.408801
H153	H	1.146466	-0.540472	0.492234
H154	H	1.148922	-0.430693	0.406807
H155	H	1.166174	-0.502559	0.323373
H156	H	1.242025	-0.515602	0.403255
H157	H	1.146297	-0.784059	0.612287
C158	C	0.750721	-0.899068	0.701863
C159	C	0.820572	-0.964727	0.752988
C160	C	0.780489	-1.018062	0.794482
H161	H	0.704828	-0.858977	0.740319
H162	H	0.722052	-0.930816	0.656866
H163	H	0.849225	-0.932982	0.797980
H164	H	0.866468	-1.004839	0.714553
H165	H	0.751821	-1.049809	0.749484
H166	H	0.734597	-0.977963	0.832933
H167	H	0.827878	-1.062623	0.829168
C168	C	1.167336	-1.151170	0.730485
C169	C	1.124552	-1.207112	0.763891
C170	C	1.053790	-1.151111	0.819018
H171	H	1.193775	-1.121767	0.779551
H172	H	1.121905	-1.104642	0.696144
H173	H	1.169974	-1.253622	0.798231
H174	H	1.098093	-1.236514	0.714846
H175	H	1.008360	-1.104584	0.784677
H176	H	1.080237	-1.121712	0.868078
H177	H	1.024747	-1.189058	0.841684
H178	H	1.282963	-1.093135	0.640238
H179	H	1.218431	-1.341285	0.690789
C180	C	1.584790	-1.063083	0.404286
C181	C	1.525269	-0.995525	0.347792
C182	C	1.578219	-0.955125	0.306141
H183	H	1.616497	-1.034282	0.449176
H184	H	1.629369	-1.110311	0.369447
H185	H	1.480706	-0.948304	0.382628
H186	H	1.493561	-1.024302	0.302885
H187	H	1.622799	-1.002353	0.271303
H188	H	1.609925	-0.926329	0.351038
H189	H	1.537844	-0.909288	0.267799
H190	H	1.470386	-1.459014	0.494111
H191	H	1.566776	-1.385881	0.418820
