data_functionalizedCrystal
_audit_creation_method	'MofGen! by Chris Wilmer'
_symmetry_space_group_name_H-M	'P1'
_symmetry_Int_Tables_number	1
_symmetry_cell_setting	triclinic
loop_
_symmetry_equiv_pos_as_xyz
  x,y,z
_cell_length_a	19.077105
_cell_length_b	15.297327
_cell_length_c	19.076919
_cell_angle_alpha	101.510342
_cell_angle_beta	90.076224
_cell_angle_gamma	97.818066
loop_
_atom_site_label
_atom_site_type_symbol
_atom_site_fract_x
_atom_site_fract_y
_atom_site_fract_z
Zn1	Zn	0.997096	-0.436205	-0.496821
Zn2	Zn	0.981405	-0.581179	-0.398060
Zn3	Zn	0.886008	-0.424127	-0.373052
Zn4	Zn	0.859303	-0.580636	-0.510742
O5	O	0.930953	-0.505537	-0.444669
O6	O	1.092606	-0.460719	-0.488360
O7	O	0.973359	-0.555519	-0.295787
O8	O	0.918487	-0.299557	-0.373179
O9	O	1.081077	-0.567231	-0.415800
O10	O	1.000103	-0.308431	-0.464111
O11	O	0.903272	-0.440133	-0.277414
O12	O	0.784875	-0.439605	-0.386678
O13	O	0.872972	-0.566304	-0.607851
O14	O	0.765254	-0.554592	-0.487838
O15	O	0.974208	-0.460192	-0.597623
O16	O	0.947464	-0.707279	-0.429299
O17	O	0.857757	-0.706880	-0.512086
C18	C	0.749760	-0.495730	-0.436055
C19	C	0.672241	-0.491557	-0.432390
C20	C	0.898028	-0.739796	-0.474933
C21	C	0.884005	-0.840018	-0.487907
C22	C	0.625617	-0.549547	-0.483277
C23	C	0.552781	-0.545614	-0.479834
C24	C	0.526571	-0.483695	-0.425502
C25	C	0.573201	-0.425698	-0.374613
C26	C	0.646036	-0.429627	-0.378058
C27	C	0.309833	-0.465511	-0.409558
C28	C	0.236992	-0.461589	-0.406115
C29	C	0.216578	-0.581504	-0.511338
C30	C	0.289415	-0.585431	-0.514776
C31	C	0.336039	-0.527431	-0.463889
N32	N	0.452121	-0.479676	-0.421981
N33	N	0.410488	-0.531447	-0.467414
C34	C	1.031451	-1.123247	-0.352197
C35	C	1.044626	-1.029084	-0.340004
C36	C	1.004472	-0.981812	-0.376979
C37	C	0.951141	-1.028714	-0.426149
C38	C	0.937961	-1.122886	-0.438339
C39	C	0.910982	-0.981452	-0.463121
C40	C	0.857651	-1.028353	-0.512291
C41	C	0.844474	-1.122517	-0.524480
C42	C	0.884628	-1.169788	-0.487505
C43	C	0.924162	-0.887280	-0.450930
C44	C	0.830672	-0.886919	-0.537073
C45	C	0.817497	-0.981082	-0.549266
C46	C	1.112853	-0.515383	-0.453317
C47	C	1.190368	-0.519579	-0.457002
C48	C	0.922362	-0.514535	-0.629112
C49	C	0.918700	-0.518369	-0.707711
C50	C	0.964025	-0.270365	-0.414303
C51	C	0.978118	-0.170148	-0.401362
C52	C	0.969686	-0.464926	-0.739314
C53	C	0.966238	-0.468525	-0.813165
C54	C	0.911807	-0.525572	-0.855413
C55	C	0.860816	-0.579017	-0.823806
C56	C	0.864262	-0.575413	-0.749955
C57	C	0.895847	-0.542271	-1.076853
C58	C	0.892406	-0.545873	-1.150709
C59	C	0.997828	-0.435379	-1.140063
C60	C	1.001271	-0.431784	-1.066212
C61	C	0.950279	-0.485225	-1.034610
N62	N	0.908282	-0.529254	-0.930901
N63	N	0.953801	-0.481538	-0.959123
C64	C	0.939560	-0.496511	-0.260936
C65	C	0.943392	-0.492430	-0.182311
H66	H	0.646951	-0.599971	-0.527518
H67	H	1.015202	-0.905140	-0.367047
H68	H	0.551855	-0.375279	-0.330377
Cl69	Cl	1.038121	-0.393210	-0.686209
Cl70	Cl	1.030363	-0.401377	-0.852896
H71	H	1.045597	-0.385332	-1.031818
H72	H	0.822738	-0.618923	-0.724225
H73	H	0.848079	-0.592330	-1.185107
H74	H	0.347786	-0.418290	-0.368118
Cl75	Cl	0.780186	-0.827499	-0.583554
H76	H	1.039343	-0.391869	-1.165801
H77	H	0.514822	-0.592837	-0.521271
Cl78	Cl	1.081922	-1.182677	-0.305719
Cl79	Cl	0.204043	-0.383748	-0.337802
Cl80	Cl	0.867798	-1.288139	-0.502531
H81	H	1.088047	-0.990900	-0.299969
Cl82	Cl	0.831741	-0.609456	-1.037136
H83	H	0.310749	-0.635854	-0.559018
Cl84	Cl	0.704650	-0.356720	-0.314085
Cl85	Cl	0.777426	-1.181476	-0.586290
H86	H	0.178609	-0.628722	-0.552768
H87	H	0.967585	-0.849101	-0.410896
H88	H	0.774074	-1.019283	-0.589301
H89	H	0.816495	-0.625463	-0.858210
