data_functionalizedCrystal
_audit_creation_method	'MofGen! by Chris Wilmer'
_symmetry_space_group_name_H-M	'P1'
_symmetry_Int_Tables_number	1
_symmetry_cell_setting	triclinic
loop_
_symmetry_equiv_pos_as_xyz
  x,y,z
_cell_length_a	12.759401
_cell_length_b	21.295417
_cell_length_c	12.759393
_cell_angle_alpha	89.960830
_cell_angle_beta	89.978838
_cell_angle_gamma	90.032239
loop_
_atom_site_label
_atom_site_type_symbol
_atom_site_fract_x
_atom_site_fract_y
_atom_site_fract_z
Zn1	Zn	1.606140	-0.250543	-0.594001
Zn2	Zn	1.605986	-0.355827	-0.418297
Zn3	Zn	1.430442	-0.250579	-0.418332
Zn4	Zn	1.430382	-0.355781	-0.593931
O5	O	1.518238	-0.303183	-0.506140
O6	O	1.753141	-0.264513	-0.570708
O7	O	1.582660	-0.341900	-0.271281
O8	O	1.453838	-0.162485	-0.441678
O9	O	1.753027	-0.341865	-0.441620
O10	O	1.582923	-0.162458	-0.570741
O11	O	1.453689	-0.264574	-0.271306
O12	O	1.283413	-0.264530	-0.441611
O13	O	1.453736	-0.341787	-0.740961
O14	O	1.283369	-0.341822	-0.570622
O15	O	1.582865	-0.264469	-0.741012
O16	O	1.582602	-0.443910	-0.441552
O17	O	1.453587	-0.443877	-0.570589
C18	C	1.245270	-0.303175	-0.506113
C19	C	1.128494	-0.303188	-0.506127
C20	C	0.963911	-0.343494	-0.573233
C21	C	1.073635	-0.343493	-0.573204
C22	C	1.073622	-0.262885	-0.439066
C23	C	0.963900	-0.262890	-0.439090
C24	C	0.963920	-0.390031	-0.650680
C25	C	1.073644	-0.390030	-0.650651
C26	C	1.518100	-0.466734	-0.506082
C27	C	1.518137	-0.536702	-0.506092
C28	C	1.585375	-0.569565	-0.438971
C29	C	1.585424	-0.635308	-0.438995
C30	C	1.518217	-0.668185	-0.506128
C31	C	1.450974	-0.635314	-0.573262
C32	C	1.450934	-0.569572	-0.573244
N33	N	1.426310	-0.771452	-0.514129
N34	N	1.426350	-0.833903	-0.514140
C35	C	1.518334	-0.866259	-0.506189
N36	N	1.610278	-0.833805	-0.498205
N37	N	1.610236	-0.771348	-0.498189
C38	C	1.518253	-0.739470	-0.506156
C39	C	1.585631	-0.970408	-0.439090
C40	C	1.585682	-1.036152	-0.439121
C41	C	1.451223	-1.036156	-0.573383
C42	C	1.451181	-0.970414	-0.573357
C43	C	1.518384	-0.937544	-0.506205
C44	C	1.792271	-0.303190	-0.506168
C45	C	1.909047	-0.303193	-0.506180
C46	C	1.518311	-0.303119	-0.780174
C47	C	1.518342	-0.303092	-0.896950
C48	C	1.518404	-0.138992	-0.506221
C49	C	1.518476	-0.069024	-0.506256
C50	C	1.585589	-0.262829	-0.951841
C51	C	1.585614	-0.262806	-1.061565
C52	C	1.451143	-0.343315	-1.061498
C53	C	1.451114	-0.343334	-0.951776
C54	C	1.663228	-0.216349	-0.951880
C55	C	1.663253	-0.216326	-1.061604
C56	C	1.518225	-0.303200	-0.233173
C57	C	1.518397	-0.303050	-0.116397
H58	H	1.107618	-0.436322	-0.621357
N59	N	1.771023	-0.233630	-1.101049
H60	H	1.766319	-0.272954	-1.145010
H61	H	1.799802	-0.198127	-1.145007
H62	H	1.118296	-0.230071	-0.384443
H63	H	1.396351	-0.376119	-0.907089
H64	H	1.640442	-1.062908	-0.384465
H65	H	1.396506	-1.062924	-0.628048
N66	N	0.904714	-0.219423	-0.366775
H67	H	0.859139	-0.244975	-0.318023
H68	H	0.956174	-0.193896	-0.324343
N69	N	1.378398	-0.534128	-0.645636
H70	H	1.329717	-0.506903	-0.602883
H71	H	1.421121	-0.506837	-0.694341
H72	H	1.634161	-0.170006	-1.095661
H73	H	1.640098	-0.542805	-0.384295
N74	N	1.658111	-0.934949	-0.366669
H75	H	1.700721	-0.965747	-0.324156
H76	H	1.706689	-0.907621	-0.409470
H77	H	0.929947	-0.372622	-0.728034
N78	N	0.924395	-0.454589	-0.621627
H79	H	0.985898	-0.483394	-0.608637
H80	H	0.880355	-0.451694	-0.556022
N81	N	1.378632	-0.386709	-1.120647
H82	H	1.421301	-0.415874	-1.166164
H83	H	1.336033	-0.412178	-1.069163
H84	H	1.640181	-0.662070	-0.384338
N85	N	1.113181	-0.372807	-0.758472
H86	H	1.051683	-0.365118	-0.806607
H87	H	1.157219	-0.333485	-0.753822
N88	N	1.634435	-0.151776	-0.912465
H89	H	1.621599	-0.122947	-0.974017
H90	H	1.568799	-0.154625	-0.868448
N91	N	1.765575	-0.239484	-0.906786
H92	H	1.761818	-0.238653	-0.827730
H93	H	1.778848	-0.283867	-0.931256
N94	N	1.378488	-0.670769	-0.645674
H95	H	1.388713	-0.717403	-0.635499
H96	H	1.303456	-0.659326	-0.629252
N97	N	1.378652	-0.934963	-0.645744
H98	H	1.336081	-0.965765	-0.688277
H99	H	1.330040	-0.907737	-0.602922
