data_functionalizedCrystal
_audit_creation_method	'MofGen! by Chris Wilmer'
_symmetry_space_group_name_H-M	'P1'
_symmetry_Int_Tables_number	1
_symmetry_cell_setting	triclinic
loop_
_symmetry_equiv_pos_as_xyz
  x,y,z
_cell_length_a	12.759401
_cell_length_b	12.759400
_cell_length_c	18.215399
_cell_angle_alpha	90.024546
_cell_angle_beta	90.016569
_cell_angle_gamma	90.013728
loop_
_atom_site_label
_atom_site_type_symbol
_atom_site_fract_x
_atom_site_fract_y
_atom_site_fract_z
Zn1	Zn	1.606235	-0.418304	0.416069
Zn2	Zn	2.106235	0.081696	0.916069
Zn3	Zn	1.606135	-0.594001	0.293010
Zn4	Zn	2.106135	-0.094001	0.793010
Zn5	Zn	1.430543	-0.418334	0.293024
Zn6	Zn	1.930543	0.081666	0.793024
Zn7	Zn	1.430525	-0.593938	0.416042
Zn8	Zn	1.930525	-0.093938	0.916042
O9	O	1.518360	-0.506144	0.354536
O10	O	2.018360	-0.006144	0.854536
O11	O	1.753243	-0.441624	0.399751
O12	O	2.253243	0.058376	0.899751
O13	O	1.582808	-0.570737	0.190028
O14	O	2.082808	-0.070737	0.690028
O15	O	1.453898	-0.271309	0.309363
O16	O	1.953898	0.228691	0.809363
O17	O	1.753169	-0.570708	0.309340
O18	O	2.253169	-0.070708	0.809340
O19	O	1.582978	-0.271287	0.399764
O20	O	2.082978	0.228713	0.899764
O21	O	1.453801	-0.441675	0.190037
O22	O	1.953801	0.058325	0.690037
O23	O	1.283520	-0.441615	0.309337
O24	O	1.783520	0.058385	0.809337
O25	O	1.453868	-0.570601	0.519030
O26	O	1.953868	-0.070601	1.019030
O27	O	1.283507	-0.570630	0.399718
O28	O	1.783507	-0.070630	0.899718
O29	O	1.582961	-0.441563	0.519050
O30	O	2.082961	0.058437	1.019050
O31	O	1.582791	-0.741014	0.309314
O32	O	2.082791	-0.241014	0.809314
O33	O	1.453772	-0.740968	0.399705
O34	O	1.953772	-0.240968	0.899705
C35	C	1.245392	-0.506120	0.354526
C36	C	1.745392	-0.006120	0.854526
C37	C	1.128616	-0.506134	0.354539
C38	C	1.628616	-0.006134	0.854539
C39	C	1.073785	-0.439047	0.401689
C40	C	1.573785	0.060953	0.901689
C41	C	0.964061	-0.439067	0.401694
C42	C	1.464061	0.060933	0.901694
C43	C	0.964008	-0.573271	0.307396
C44	C	1.464008	-0.073271	0.807396
C45	C	1.073730	-0.573245	0.307389
C46	C	1.573730	-0.073245	0.807389
C47	C	1.128670	-0.371937	0.448840
C48	C	1.628670	0.128063	0.948840
C49	C	1.073839	-0.304845	0.495994
C50	C	1.573839	0.195155	0.995994
C51	C	0.964115	-0.304865	0.495998
C52	C	1.464115	0.195135	0.995998
C53	C	0.909222	-0.371977	0.448849
C54	C	1.409222	0.128023	0.948849
C55	C	1.518297	-0.779112	0.354521
C56	C	2.018297	-0.279112	0.854521
C57	C	1.518367	-0.895888	0.354539
C58	C	2.018367	-0.395888	0.854539
C59	C	1.585622	-0.950740	0.307524
C60	C	2.085622	-0.450740	0.807524
C61	C	1.585686	-1.060464	0.307547
C62	C	2.085686	-0.560464	0.807547
C63	C	1.451232	-1.060476	0.401601
C64	C	1.951232	-0.560476	0.901601
C65	C	1.451173	-0.950754	0.401581
C66	C	1.951173	-0.450754	0.901581
C67	C	1.652815	-0.895874	0.260482
C68	C	2.152815	-0.395874	0.760482
C69	C	1.720075	-0.950726	0.213463
C70	C	2.220075	-0.450726	0.713463
C71	C	1.720140	-1.060450	0.213486
C72	C	2.220140	-0.560450	0.713486
C73	C	1.652944	-1.115322	0.260527
C74	C	2.152944	-0.615322	0.760527
C75	C	1.792393	-0.506170	0.354547
C76	C	2.292393	-0.006170	0.854547
C77	C	1.909169	-0.506181	0.354552
C78	C	2.409169	-0.006181	0.854552
C79	C	1.518424	-0.506072	0.546489
C80	C	2.018424	-0.006072	1.046489
C81	C	1.518451	-0.506041	0.628288
C82	C	2.018451	-0.006041	1.128288
C83	C	1.518451	-0.232111	0.354568
C84	C	2.018451	0.267889	0.854568
C85	C	1.518490	-0.115334	0.354581
C86	C	2.018490	0.384666	0.854581
C87	C	1.518356	-0.506141	0.163330
C88	C	2.018356	-0.006141	0.663330
C89	C	1.518533	-0.505876	0.081532
C90	C	2.018533	-0.005876	0.581532
C91	C	1.585694	-0.438788	0.816494
C92	C	2.085694	0.061212	1.316494
C93	C	1.585706	-0.438758	0.893353
C94	C	2.085706	0.061242	1.393353
C95	C	1.451282	-0.573132	0.893321
C96	C	1.951282	-0.073132	1.393321
C97	C	1.451265	-0.573156	0.816463
C98	C	1.951265	-0.073156	1.316463
C99	C	1.518477	-0.505986	0.778052
C100	C	2.018477	-0.005986	1.278052
C101	C	1.518506	-0.505931	0.931768
C102	C	2.018506	-0.005931	1.431768
C103	C	1.518520	-0.505898	1.015102
C104	C	2.018520	-0.005898	1.515102
C105	C	1.518463	-0.506017	0.694713
C106	C	2.018463	-0.006017	1.194713
H107	H	1.218013	-0.371913	0.448841
H108	H	1.718013	0.128087	0.948841
F109	F	1.657255	-0.367243	0.934262
F110	F	2.157255	0.132757	1.434262
H111	H	0.919475	-0.250228	0.534388
H112	H	1.419475	0.249772	1.034388
H113	H	1.396522	-0.627876	0.785163
H114	H	1.896522	-0.127876	1.285163
H115	H	1.652767	-0.806532	0.260456
H116	H	2.152767	-0.306532	0.760456
H117	H	1.653011	-1.204667	0.260548
H118	H	2.153011	-0.704667	0.760548
F119	F	1.657223	-0.367297	0.775616
F120	F	2.157223	0.132703	1.275616
F121	F	1.791593	-0.892325	0.163407
F122	F	2.291593	-0.392325	0.663407
F123	F	1.791731	-1.118823	0.163451
F124	F	2.291731	-0.618823	0.663451
F125	F	1.379594	-0.892374	0.451621
F126	F	1.879594	-0.392374	0.951621
F127	F	1.379759	-0.644618	0.934207
F128	F	1.879759	-0.144618	1.434207
F129	F	1.132261	-0.233416	0.546165
F130	F	1.632261	0.266584	1.046165
H131	H	0.819877	-0.371966	0.448841
H132	H	1.319877	0.128034	0.948841
H133	H	0.919305	-0.627912	0.269011
H134	H	1.419305	-0.127912	0.769011
H135	H	1.118375	-0.627873	0.268995
H136	H	1.618375	-0.127873	0.768995
H137	H	1.396524	-1.105162	0.439899
H138	H	1.896524	-0.605162	0.939899
