data_functionalizedCrystal
_audit_creation_method	'MofGen! by Chris Wilmer'
_symmetry_space_group_name_H-M	'P1'
_symmetry_Int_Tables_number	1
_symmetry_cell_setting	triclinic
loop_
_symmetry_equiv_pos_as_xyz
  x,y,z
_cell_length_a	9.482900
_cell_length_b	14.971486
_cell_length_c	14.971486
_cell_angle_alpha	83.614129
_cell_angle_beta	99.345500
_cell_angle_gamma	80.704073
loop_
_atom_site_label
_atom_site_type_symbol
_atom_site_fract_x
_atom_site_fract_y
_atom_site_fract_z
O1	O	0.120726	-1.200851	-0.102592
O2	O	0.120766	-0.940456	-0.116546
O3	O	0.120735	-1.077632	0.020630
O4	O	0.120758	-1.063675	-0.239768
O5	O	-0.121051	-1.049768	-0.007346
O6	O	-0.121020	-0.912592	-0.144522
O7	O	-0.121060	-1.172988	-0.130568
Cu8	Cu	-0.143117	-1.040246	-0.140099
Cu9	Cu	0.142823	-1.073198	-0.107015
O10	O	-0.121028	-1.035812	-0.267743
C11	C	-0.000122	-0.893200	-0.129909
C12	C	-0.000107	-0.793904	-0.128037
N13	N	-0.344232	-1.017076	-0.163368
C14	C	-0.000158	-1.063076	0.039967
C15	C	-0.000156	-1.061205	0.139264
C16	C	-0.416442	-1.066357	-0.113873
C17	C	-0.583855	-1.047086	-0.133241
N18	N	0.343938	-1.096375	-0.083739
C19	C	-0.000168	-1.220244	-0.117204
C20	C	-0.000174	-1.319541	-0.119076
C21	C	-0.000102	-0.736680	-0.208625
C22	C	-0.000124	-0.643378	-0.206865
C23	C	-0.000140	-0.607304	-0.124513
C24	C	-0.000150	-0.664535	-0.043919
C25	C	-0.000138	-0.757834	-0.045682
C26	C	-0.000170	-0.470070	-0.040250
C27	C	-0.000179	-0.376765	-0.038487
C28	C	-0.000156	-0.355614	-0.201433
C29	C	-0.000144	-0.448913	-0.203196
C30	C	-0.000151	-0.506138	-0.122601
C31	C	-0.000133	-1.050368	-0.287080
C32	C	-0.000125	-1.052240	-0.386376
C33	C	-0.000169	-1.141793	0.196488
C34	C	-0.000154	-1.140031	0.289789
C35	C	-0.000137	-1.057680	0.325863
C36	C	-0.000119	-0.977087	0.268633
C37	C	-0.000123	-0.978850	0.175334
C38	C	-0.000113	-0.973417	0.463096
C39	C	-0.000111	-0.971652	0.556400
C40	C	-0.000144	-1.134598	0.577550
C41	C	-0.000149	-1.136361	0.484252
C42	C	-0.000134	-1.055767	0.427027
H43	H	-0.354327	-1.122813	-0.057157
Cl44	Cl	-0.000181	-0.542009	0.061071
Cl45	Cl	-0.000108	-0.571442	-0.308180
H46	H	-0.645967	-0.990620	-0.189954
H47	H	-0.000097	-0.907788	0.416506
Cl48	Cl	-0.000079	-0.873561	0.313985
H49	H	-0.000184	-0.635154	0.023130
Cl50	Cl	-0.000207	-1.245324	0.151145
Cl51	Cl	-0.560178	-1.183740	0.003637
Cl52	Cl	-0.440126	-0.929901	-0.250926
H53	H	-0.000112	-0.913227	0.128743
Cl54	Cl	-0.000176	-1.241346	0.361724
Cl55	Cl	-0.000090	-0.868123	0.601749
Cl56	Cl	-0.000072	-0.782021	-0.312158
Cl57	Cl	-0.000108	-0.494264	-0.306723
H58	H	-0.000157	-0.309015	-0.267058
H59	H	-0.000152	-1.200221	0.624148
Cl60	Cl	-0.000248	-0.331410	0.065036
Cl61	Cl	-0.000151	-0.829774	0.055633
Cl62	Cl	-0.000164	-1.239891	0.438903
