data_functionalizedCrystal
_audit_creation_method	'MofGen! by Chris Wilmer'
_symmetry_space_group_name_H-M	'P1'
_symmetry_Int_Tables_number	1
_symmetry_cell_setting	triclinic
loop_
_symmetry_equiv_pos_as_xyz
  x,y,z
_cell_length_a	12.594517
_cell_length_b	19.121063
_cell_length_c	12.594509
_cell_angle_alpha	92.407369
_cell_angle_beta	89.978379
_cell_angle_gamma	92.468805
loop_
_atom_site_label
_atom_site_type_symbol
_atom_site_fract_x
_atom_site_fract_y
_atom_site_fract_z
Zn1	Zn	1.609109	-0.279607	-0.619881
Zn2	Zn	2.109109	0.220393	-0.119881
Zn3	Zn	1.601369	-0.397067	-0.449473
Zn4	Zn	2.101369	0.102933	0.050527
Zn5	Zn	1.431110	-0.279634	-0.441912
Zn6	Zn	1.931110	0.220366	0.058088
Zn7	Zn	1.423468	-0.397021	-0.627400
Zn8	Zn	1.923468	0.102979	-0.127400
O9	O	1.516264	-0.338332	-0.534667
O10	O	2.016264	0.161668	-0.034667
O11	O	1.757027	-0.295196	-0.597294
O12	O	2.257027	0.204804	-0.097294
O13	O	1.578743	-0.381519	-0.299526
O14	O	2.078743	0.118481	0.200474
O15	O	1.461159	-0.181346	-0.459209
O16	O	1.961159	0.318654	0.040791
O17	O	1.751341	-0.381493	-0.472096
O18	O	2.251341	0.118507	0.027904
O19	O	1.591934	-0.181326	-0.589962
O20	O	2.091934	0.318674	-0.089962
O21	O	1.453654	-0.295242	-0.293971
O22	O	1.953654	0.204758	0.206029
O23	O	1.281151	-0.295198	-0.466500
O24	O	1.781151	0.204802	0.033500
O25	O	1.448135	-0.381416	-0.775347
O26	O	1.948135	0.118584	-0.275347
O27	O	1.275537	-0.381442	-0.602777
O28	O	1.775537	0.118558	-0.102777
O29	O	1.584524	-0.295152	-0.769823
O30	O	2.084524	0.204848	-0.269823
O31	O	1.571333	-0.495345	-0.479387
O32	O	2.071333	0.004655	0.020613
O33	O	1.440630	-0.495312	-0.610109
O34	O	1.940630	0.004688	-0.110109
C35	C	1.239724	-0.338318	-0.534635
C36	C	1.739724	0.161682	-0.034635
C37	C	1.121418	-0.338329	-0.534647
C38	C	1.621418	0.161671	-0.034647
C39	C	1.055191	-0.291357	-0.460657
C40	C	1.555191	0.208643	0.039343
C41	C	0.980219	-0.355422	-0.438606
C42	C	1.480219	0.144578	0.061394
C43	C	0.985589	-0.274295	-0.556718
C44	C	1.485589	0.225705	-0.056718
C45	C	1.048001	-0.402428	-0.512548
C46	C	1.548001	0.097572	-0.012548
C47	C	1.053380	-0.321258	-0.630702
C48	C	1.553380	0.178742	-0.130702
C49	C	0.978437	-0.385367	-0.608691
C50	C	1.478437	0.114633	-0.108691
C51	C	1.504341	-0.520812	-0.546408
C52	C	2.004341	-0.020812	-0.046408
C53	C	1.499338	-0.598878	-0.551466
C54	C	1.999338	-0.098878	-0.051466
C55	C	1.565091	-0.635548	-0.485839
C56	C	2.065091	-0.135548	0.014161
C57	C	1.560392	-0.708899	-0.490603
C58	C	2.060392	-0.208899	0.009397
C59	C	1.489934	-0.745579	-0.560989
C60	C	1.989934	-0.245579	-0.060989
C61	C	1.424179	-0.708905	-0.626623
C62	C	1.924179	-0.208905	-0.126623
C63	C	1.428884	-0.635555	-0.621864
C64	C	1.928884	-0.135555	-0.121864
C65	C	1.472325	-0.967049	-0.578766
C66	C	1.972325	-0.467049	-0.078766
C67	C	1.467622	-1.040404	-0.583517
C68	C	1.967622	-0.540404	-0.083517
C69	C	1.603837	-1.040393	-0.447498
C70	C	2.103837	-0.540393	0.052502
C71	C	1.608532	-0.967042	-0.442740
C72	C	2.108532	-0.467042	0.057260
C73	C	1.542781	-0.930374	-0.508378
C74	C	2.042781	-0.430374	-0.008378
C75	C	1.485127	-0.820556	-0.565858
C76	C	1.985127	-0.320556	-0.065858
C77	C	1.547594	-0.855398	-0.503515
C78	C	2.047594	-0.355398	-0.003515
C79	C	1.793884	-0.338347	-0.534700
C80	C	2.293884	0.161653	-0.034700
C81	C	1.912189	-0.338353	-0.534714
C82	C	2.412189	0.161647	-0.034714
C83	C	1.516340	-0.338276	-0.812284
C84	C	2.016340	0.161724	-0.312284
C85	C	1.516373	-0.338251	-0.930588
C86	C	2.016373	0.161749	-0.430588
C87	C	1.528262	-0.155139	-0.522903
C88	C	2.028262	0.344861	-0.022903
C89	C	1.533375	-0.077073	-0.517890
C90	C	2.033375	0.422927	-0.017890
C91	C	1.442239	-0.385112	-1.073606
C92	C	1.942239	0.114888	-0.573606
C93	C	1.420377	-0.321062	-0.998676
C94	C	1.920377	0.178938	-0.498676
C95	C	1.538188	-0.402295	-1.003946
C96	C	2.038188	0.097705	-0.503946
C97	C	1.494529	-0.274079	-1.066436
C98	C	1.994529	0.225921	-0.566436
C99	C	1.612382	-0.355356	-1.071715
C100	C	2.112382	0.144644	-0.571715
C101	C	1.590559	-0.291262	-0.996814
C102	C	2.090559	0.208738	-0.496814
C103	C	1.516252	-0.338338	-0.258126
C104	C	2.016252	0.161662	0.241874
C105	C	1.516439	-0.338164	-0.139810
C106	C	2.016439	0.161836	0.360190
H107	H	1.622460	-0.605688	-0.428518
H108	H	2.122460	-0.105688	0.071482
H109	H	0.957980	-0.220140	-0.575322
H110	H	1.457980	0.279860	-0.075322
H111	H	1.476013	-0.219866	-1.093891
H112	H	1.976013	0.280134	-0.593891
F113	F	1.099110	-0.239486	-0.378783
F114	F	1.599110	0.260514	0.121217
F115	F	0.938262	-0.374315	-0.332470
F116	F	1.438262	0.125685	0.167530
H117	H	0.945028	-0.425146	-0.671293
H118	H	1.445028	0.074854	-0.171293
F119	F	1.718439	-0.374344	-1.113639
F120	F	2.218439	0.125656	-0.613639
H121	H	1.665904	-0.937178	-0.385426
H122	H	2.165904	-0.437178	0.114574
F123	F	1.358904	-0.596528	-0.691717
F124	F	1.858904	-0.096528	-0.191717
F125	F	1.402345	-0.928033	-0.648623
F126	F	1.902345	-0.428033	-0.148623
F127	F	1.083840	-0.473243	-0.488060
F128	F	1.583840	0.026757	0.011940
H129	H	1.085505	-0.306784	-0.711878
H130	H	1.585505	0.193216	-0.211878
F131	F	1.630378	-0.747923	-0.420756
F132	F	2.130378	-0.247923	0.079244
F133	F	1.673814	-1.079423	-0.377650
F134	F	2.173814	-0.579423	0.122350
H135	H	1.366815	-0.738775	-0.683938
H136	H	1.866815	-0.238775	-0.183938
H137	H	1.653283	-0.251551	-0.963390
H138	H	2.153283	0.248449	-0.463390
H139	H	1.604965	-0.825531	-0.446210
H140	H	2.104965	-0.325531	0.053790
F141	F	1.562264	-0.473134	-0.967877
F142	F	2.062264	0.026866	-0.467877
F143	F	1.410141	-0.859600	-0.640765
F144	F	1.910141	-0.359600	-0.140765
F145	F	1.360207	-0.436891	-1.117548
F146	F	1.860207	0.063109	-0.617548
H147	H	1.410260	-1.070267	-0.640853
H148	H	1.910260	-0.570267	-0.140853
F149	F	1.314289	-0.302096	-0.956789
F150	F	1.814289	0.197904	-0.456789
