data_functionalizedCrystal
_audit_creation_method	'MofGen! by Chris Wilmer'
_symmetry_space_group_name_H-M	'P1'
_symmetry_Int_Tables_number	1
_symmetry_cell_setting	triclinic
loop_
_symmetry_equiv_pos_as_xyz
  x,y,z
_cell_length_a	12.811457
_cell_length_b	14.044190
_cell_length_c	11.892095
_cell_angle_alpha	94.240074
_cell_angle_beta	91.498327
_cell_angle_gamma	88.597539
loop_
_atom_site_label
_atom_site_type_symbol
_atom_site_fract_x
_atom_site_fract_y
_atom_site_fract_z
O1	O	1.401373	0.130896	0.049646
O2	O	1.099119	0.142797	0.018657
O3	O	1.245704	-0.001185	0.033708
O4	O	1.254788	0.274878	0.034595
O5	O	1.233480	0.010802	0.220460
O6	O	1.086895	0.154783	0.205409
O7	O	1.389149	0.142883	0.236399
Zn8	Zn	1.236081	0.150736	0.250555
Zn9	Zn	1.252187	0.134943	0.004501
O10	O	1.242564	0.286864	0.221347
C11	C	1.054092	0.147756	0.108043
C12	C	0.938134	0.144663	0.096155
C13	C	0.706909	0.151902	0.277437
C14	C	0.597956	0.148996	0.266273
C15	C	0.611274	0.135938	0.062664
C16	C	0.720227	0.138844	0.073828
C17	C	0.768040	0.146828	0.181218
C18	C	0.876995	0.149740	0.192381
C19	C	0.890311	0.136676	-0.011226
C20	C	0.781358	0.133770	-0.022390
C21	C	1.235619	-0.030548	0.126680
C22	C	1.223768	-0.135898	0.125475
C23	C	1.286151	-0.385529	0.131827
C24	C	1.202122	-0.328786	0.123219
C25	C	1.214169	-0.221453	0.124475
C26	C	1.274106	-0.492872	0.130571
C27	C	1.434177	0.137924	0.147010
C28	C	1.550135	0.141016	0.158890
C29	C	1.252649	0.316227	0.128373
C30	C	1.264501	0.421577	0.129570
N31	N	1.225098	0.161513	0.418481
N32	N	1.263178	0.124159	-0.163425
C33	C	1.339604	0.049111	0.666886
C34	C	1.331934	0.056651	0.784441
C35	C	1.202085	0.184129	0.771146
C36	C	1.209754	0.176588	0.653592
C37	C	1.278517	0.109078	0.601466
C38	C	1.286191	0.101543	0.483910
C39	C	1.156337	0.229016	0.470617
C40	C	1.148667	0.236556	0.588171
H41	H	0.940095	0.132550	-0.089575
N42	N	1.078431	0.305502	0.641438
N43	N	1.071587	0.312224	0.746397
H44	H	1.021982	0.360919	0.784017
H45	H	1.367131	-0.353501	0.140141
H46	H	1.342184	0.046576	0.441471
H47	H	1.381676	0.007818	0.837703
N48	N	1.409744	-0.019935	0.613642
N49	N	1.464214	-0.073530	0.672061
H50	H	1.513711	-0.122331	0.634455
N51	N	0.732530	0.125624	-0.132089
N52	N	0.787127	0.121099	-0.217990
H53	H	0.752645	0.115348	-0.295468
N54	N	1.100530	-0.368975	0.112792
N55	N	1.090759	-0.457374	0.111776
H56	H	1.019012	-0.485762	0.104416
H57	H	0.572326	0.129422	-0.024767
H58	H	0.548187	0.153133	0.344624
N59	N	1.131830	0.253061	0.824408
N60	N	1.060015	0.226430	0.883092
H61	H	1.010394	0.275111	0.920712
N62	N	0.925820	0.157915	0.302080
N63	N	0.871221	0.162451	0.387980
H64	H	0.905700	0.168227	0.465459
N65	N	0.755738	0.160092	0.387134
N66	N	0.701142	0.164645	0.473037
H67	H	0.735624	0.170438	0.550514
N68	N	1.093952	0.290279	0.403775
N69	N	1.100816	0.283547	0.298819
H70	H	1.056764	0.326817	0.251610
