data_functionalizedCrystal
_audit_creation_method	'MofGen! by Chris Wilmer'
_symmetry_space_group_name_H-M	'P1'
_symmetry_Int_Tables_number	1
_symmetry_cell_setting	triclinic
loop_
_symmetry_equiv_pos_as_xyz
  x,y,z
_cell_length_a	12.759395
_cell_length_b	21.395362
_cell_length_c	21.395355
_cell_angle_alpha	90.021787
_cell_angle_beta	90.022323
_cell_angle_gamma	90.033116
loop_
_atom_site_label
_atom_site_type_symbol
_atom_site_fract_x
_atom_site_fract_y
_atom_site_fract_z
Zn1	Zn	-1.606133	0.249553	-0.354210
Zn2	Zn	-1.605954	0.354313	-0.249426
Zn3	Zn	-1.430426	0.249549	-0.249451
Zn4	Zn	-1.430359	0.354292	-0.354171
O5	O	-1.518218	0.301927	-0.301814
O6	O	-1.753130	0.263460	-0.340316
O7	O	-1.582623	0.340423	-0.161752
O8	O	-1.453837	0.161872	-0.263374
O9	O	-1.752999	0.340427	-0.263332
O10	O	-1.582928	0.161875	-0.340340
O11	O	-1.453663	0.263453	-0.161770
O12	O	-1.283396	0.263433	-0.263336
O13	O	-1.453723	0.340392	-0.441854
O14	O	-1.283347	0.340387	-0.340273
O15	O	-1.582863	0.263440	-0.441883
O16	O	-1.582558	0.441988	-0.263294
O17	O	-1.453549	0.441973	-0.340250
C18	C	-1.245251	0.301908	-0.301803
C19	C	-1.128474	0.301915	-0.301813
C20	C	-1.518056	0.464715	-0.301779
C21	C	-1.518083	0.534356	-0.301784
C22	C	-1.128591	0.221899	-0.382106
C23	C	-1.073789	0.181897	-0.422257
C24	C	-0.964067	0.181906	-0.422263
C25	C	-0.909145	0.221919	-0.382113
C26	C	-0.963948	0.261920	-0.341962
C27	C	-1.073672	0.261909	-0.341962
C28	C	-0.963830	0.341932	-0.261667
C29	C	-1.073552	0.341928	-0.261663
C30	C	-0.908908	0.381945	-0.221517
C31	C	-0.963710	0.421951	-0.181369
C32	C	-1.073439	0.421941	-0.181365
C33	C	-1.128354	0.381929	-0.221512
C34	C	-0.792251	0.301940	-0.301823
C35	C	-0.909028	0.301930	-0.301818
C36	C	-1.585256	0.567014	-0.341889
C37	C	-1.585282	0.632449	-0.341902
C38	C	-1.518145	0.665224	-0.301801
C39	C	-1.450958	0.632558	-0.261694
C40	C	-1.450927	0.567124	-0.261686
C41	C	-1.509949	0.768924	-0.245360
C42	C	-1.509988	0.834357	-0.245367
C43	C	-1.518235	0.867045	-0.301827
C44	C	-1.526466	0.834292	-0.358281
C45	C	-1.526435	0.768857	-0.358273
C46	C	-1.518171	0.736176	-0.301806
C47	C	-1.585440	0.970655	-0.341949
C48	C	-1.585459	1.036092	-0.341964
C49	C	-1.451141	1.036200	-0.261750
C50	C	-1.451117	0.970764	-0.261741
C51	C	-1.518272	0.937996	-0.301840
C52	C	-1.518305	0.301914	-0.465238
C53	C	-1.518342	0.301909	-0.534879
C54	C	-1.518366	1.138504	-0.301858
C55	C	-1.518320	1.068862	-0.301863
C56	C	-1.585583	0.261839	-0.567608
C57	C	-1.585581	0.261812	-0.633044
C58	C	-1.518351	0.301866	-0.665747
C59	C	-1.451097	0.341939	-0.633010
C60	C	-1.451093	0.341961	-0.567576
C61	C	-1.509999	0.358281	-0.769410
C62	C	-1.510010	0.358261	-0.834843
C63	C	-1.518357	0.301800	-0.867568
C64	C	-1.526715	0.245357	-0.834853
C65	C	-1.526711	0.245379	-0.769418
C66	C	-1.518347	0.301847	-0.736700
C67	C	-1.585600	0.261697	-0.971250
C68	C	-1.585591	0.261669	-1.036687
C69	C	-1.451112	0.341802	-1.036652
C70	C	-1.451115	0.341825	-0.971217
C71	C	-1.518365	0.301773	-0.938520
C72	C	-1.518192	0.301894	-0.139027
C73	C	-1.518358	0.301723	-0.069386
H74	H	-1.217932	0.221885	-0.382102
O75	O	-1.650838	0.222972	-0.535750
C76	C	-1.710322	0.187421	-0.434962
C77	C	-1.636406	0.231491	-0.470964
H78	H	-1.698664	0.194285	-0.382576
H79	H	-1.795063	0.198405	-0.447785
H80	H	-1.691907	0.136910	-0.447879
H81	H	-1.654727	0.282018	-0.458066
H82	H	-1.551687	0.220454	-0.458138
O83	O	-0.910409	0.460748	-0.142282
C84	C	-0.876781	0.491027	-0.035650
C85	C	-0.937196	0.447038	-0.079843
H86	H	-0.898433	0.479967	0.014841
H87	H	-0.788935	0.484157	-0.042493
H88	H	-0.898306	0.541561	-0.046588
H89	H	-0.915759	0.396488	-0.068931
H90	H	-1.025027	0.453963	-0.072991
O91	O	-1.650335	0.535117	-0.380875
C92	C	-1.664363	0.461227	-0.465498
C93	C	-1.590547	0.497300	-0.421373
H94	H	-1.616053	0.430653	-0.498260
H95	H	-1.719293	0.430534	-0.436794
H96	H	-1.712399	0.495827	-0.494135
H97	H	-1.542443	0.462745	-0.392727
H98	H	-1.535686	0.528002	-0.450112
H99	H	-0.919448	0.149329	-0.454954
H100	H	-1.503211	0.404220	-0.861475
H101	H	-1.118052	0.454513	-0.148667
O102	O	-1.386015	1.068126	-0.222820
C103	C	-1.326469	1.168979	-0.187321
C104	C	-1.400304	1.132897	-0.231428
H105	H	-1.337980	1.221352	-0.194275
H106	H	-1.344947	1.156181	-0.136792
H107	H	-1.241753	1.156109	-0.198276
H108	H	-1.485045	1.145748	-0.220529
H109	H	-1.381736	1.145698	-0.281944
O110	O	-1.650774	0.938794	-0.380816
C111	C	-1.792544	0.864817	-0.389320
C112	C	-1.718637	0.900868	-0.345230
H113	H	-1.847414	0.834135	-0.360566
H114	H	-1.840628	0.899376	-0.417979
H115	H	-1.744244	0.834217	-0.422062
H116	H	-1.766855	0.931469	-0.312450
H117	H	-1.670549	0.866275	-0.316615
H118	H	-1.118518	0.149318	-0.454945
O119	O	-1.234937	0.382021	-0.221564
C120	C	-1.392367	0.442105	-0.237498
C121	C	-1.271663	0.442088	-0.237476
H122	H	-1.422098	0.490668	-0.250349
H123	H	-1.422262	0.406673	-0.273110
H124	H	-1.422103	0.428991	-0.189003
H125	H	-1.241839	0.455218	-0.285945
H126	H	-1.241840	0.477507	-0.201831
H127	H	-1.396422	0.944173	-0.229082
H128	H	-1.396225	0.540533	-0.229028
H129	H	-1.396333	0.374590	-0.540928
H130	H	-1.533134	0.742191	-0.404239
H131	H	-1.502920	0.404247	-0.742771
O132	O	-1.650626	0.664085	-0.380887
C133	C	-1.783786	0.657077	-0.460482
C134	C	-1.709864	0.621175	-0.416350
H135	H	-1.831683	0.622400	-0.489174
H136	H	-1.838830	0.687686	-0.431785
H137	H	-1.735507	0.687733	-0.493192
H138	H	-1.758058	0.590485	-0.383631
H139	H	-1.654816	0.590606	-0.445086
O140	O	-1.534523	0.865938	-0.413185
C141	C	-1.550781	0.858963	-0.525182
C142	C	-1.541689	0.823043	-0.463051
H143	H	-1.556555	0.824298	-0.565517
H144	H	-1.623900	0.889549	-0.524302
H145	H	-1.478537	0.889644	-0.531726
H146	H	-1.613877	0.792329	-0.456469
H147	H	-1.468526	0.792497	-0.463961
H148	H	-1.640159	1.062681	-0.374625
O149	O	-1.501941	0.866074	-0.190478
C150	C	-1.485641	0.859232	-0.078480
C151	C	-1.494724	0.823237	-0.140600
H152	H	-1.479826	0.824614	-0.038136
H153	H	-1.412548	0.889888	-0.079377
H154	H	-1.557909	0.889848	-0.071937
H155	H	-1.422512	0.792587	-0.147181
H156	H	-1.567861	0.792620	-0.139674
O157	O	-1.534619	0.190509	-0.866656
C158	C	-1.454346	0.120273	-0.940529
C159	C	-1.445255	0.182396	-0.904539
H160	H	-1.382116	0.113700	-0.971176
H161	H	-1.460247	0.079915	-0.905930
H162	H	-1.527457	0.121236	-0.971159
H163	H	-1.372148	0.181495	-0.873909
H164	H	-1.439413	0.222727	-0.939172
H165	H	-1.503229	0.742315	-0.199381
H166	H	-1.396293	0.659248	-0.229045
H167	H	-1.640334	0.229178	-0.659697
H168	H	-1.533513	0.199421	-0.742784
H169	H	-1.640352	0.229081	-0.944627
O170	O	-1.651010	0.222722	-1.068385
C171	C	-1.784362	0.143227	-1.061511
C172	C	-1.710344	0.187313	-1.025534
H173	H	-1.832337	0.114577	-1.026882
H174	H	-1.839329	0.171958	-1.092141
H175	H	-1.736153	0.110475	-1.092152
H176	H	-1.758469	0.220073	-0.994859
H177	H	-1.655374	0.158542	-0.994944
H178	H	-1.396361	0.374409	-1.063279
O179	O	-1.385769	0.380812	-0.939517
C180	C	-1.252336	0.460258	-0.946390
C181	C	-1.326313	0.416149	-0.982367
H182	H	-1.204230	0.488830	-0.981019
H183	H	-1.300477	0.493076	-0.915780
H184	H	-1.197479	0.431486	-0.915729
H185	H	-1.381184	0.444871	-1.013062
H186	H	-1.278106	0.383329	-1.012938
H187	H	-1.396354	0.374550	-0.659642
H188	H	-0.819567	0.381947	-0.221524
H189	H	-0.819804	0.221917	-0.382117
