data_functionalizedCrystal
_audit_creation_method	'MofGen! by Chris Wilmer'
_symmetry_space_group_name_H-M	'P1'
_symmetry_Int_Tables_number	1
_symmetry_cell_setting	triclinic
loop_
_symmetry_equiv_pos_as_xyz
  x,y,z
_cell_length_a	23.096457
_cell_length_b	23.096457
_cell_length_c	23.096457
_cell_angle_alpha	60.008701
_cell_angle_beta	90.011518
_cell_angle_gamma	60.000185
loop_
_atom_site_label
_atom_site_type_symbol
_atom_site_fract_x
_atom_site_fract_y
_atom_site_fract_z
Zr1	Zr	0.557763	0.633740	-0.075976
O2	O	0.465295	0.754526	-0.168417
O3	O	0.586107	0.512954	-0.047641
O4	O	0.586081	0.633742	-0.168427
O5	O	0.465344	0.633736	0.047651
O6	O	0.681361	0.633743	-0.168430
O7	O	0.465321	0.633738	-0.047631
O8	O	0.681407	0.417676	0.047634
O9	O	0.465298	0.849804	-0.168413
O10	O	0.669304	0.562636	-0.035555
O11	O	0.598215	0.562634	0.035556
O12	O	0.598184	0.704846	-0.106654
O13	O	0.527095	0.704844	-0.035543
Zr14	Zr	0.709760	0.633740	0.075983
Zr15	Zr	0.709724	0.633742	-0.075981
Zr16	Zr	0.557799	0.633737	0.075988
Zr17	Zr	0.557767	0.785697	-0.075969
Zr18	Zr	0.709756	0.481782	0.075976
O19	O	0.681416	0.754526	0.047648
O20	O	0.681365	0.754529	-0.168425
O21	O	0.465347	0.754522	0.047656
O22	O	0.802227	0.512954	0.168424
O23	O	0.802176	0.512958	-0.047649
O24	O	0.586158	0.512950	0.168432
O25	O	0.802179	0.633743	-0.047644
O26	O	0.681442	0.633738	0.168434
O27	O	0.586161	0.633736	0.168437
O28	O	0.802202	0.633742	0.047638
O29	O	0.586087	0.849806	-0.168418
O30	O	0.681436	0.417674	0.168425
O31	O	0.802225	0.417676	0.168420
O32	O	0.802196	0.417678	0.047629
O33	O	0.465326	0.849802	-0.047622
O34	O	0.586115	0.849804	-0.047627
O35	O	0.669338	0.562634	0.106661
O36	O	0.740428	0.562636	0.035551
O37	O	0.669308	0.704846	-0.035549
O38	O	0.598218	0.704844	0.035562
C39	C	0.633757	0.443664	-0.000004
C40	C	0.633755	0.379154	-0.000007
C41	C	0.443681	0.633737	0.000011
C42	C	0.379170	0.633736	0.000013
C43	C	0.670858	0.348855	-0.037129
C44	C	0.670865	0.288232	-0.037123
C45	C	0.633755	0.257924	-0.000005
C46	C	0.596650	0.288228	0.037124
C47	C	0.596650	0.348843	0.037123
N48	N	0.573349	0.195527	-0.005150
N49	N	0.573351	0.137946	-0.005153
C50	C	0.633754	0.075292	0.000001
N51	N	0.694155	0.072401	0.005145
N52	N	0.694152	0.129989	0.005144
C53	C	0.633751	0.192196	0.000000
C54	C	0.670868	-0.020742	-0.037116
C55	C	0.670877	-0.081369	-0.037105
C56	C	0.596655	-0.081367	0.037138
C57	C	0.596653	-0.020747	0.037132
C58	C	0.633758	0.009564	0.000001
C59	C	0.385988	0.559506	0.037119
C60	C	0.325372	0.559505	0.037122
C61	C	0.257939	0.633737	0.000005
C62	C	0.251123	0.707977	-0.037103
C63	C	0.311739	0.707976	-0.037099
N64	N	0.135130	0.688994	-0.060404
N65	N	0.077551	0.688989	-0.060406
C66	C	0.075306	0.633745	-0.000007
N67	N	0.132823	0.578492	0.060393
N68	N	0.190408	0.578494	0.060394
C69	C	0.192208	0.633747	-0.000003
C70	C	0.016401	0.559509	0.037106
C71	C	-0.044217	0.559511	0.037111
C72	C	-0.118466	0.707985	-0.037121
C73	C	-0.057848	0.707981	-0.037119
C74	C	0.009583	0.633741	-0.000008
C75	C	0.823842	0.633743	-0.000003
C76	C	0.888353	0.633744	-0.000006
C77	C	0.633716	0.633743	-0.190080
C78	C	0.633701	0.633744	-0.254593
C79	C	0.633766	0.823815	0.000012
C80	C	0.633768	0.888325	0.000014
C81	C	0.596581	0.707974	-0.322009
C82	C	0.596599	0.707975	-0.382626
C83	C	0.633727	0.633742	-0.375821
C84	C	0.670856	0.559503	-0.308392
C85	C	0.670843	0.559504	-0.247778
N86	N	0.628604	0.578486	-0.443379
N87	N	0.628613	0.578490	-0.500963
C88	C	0.633771	0.633735	-0.558447
N89	N	0.638907	0.688988	-0.556178
N90	N	0.638894	0.688986	-0.498590
C91	C	0.633746	0.633733	-0.441543
C92	C	0.596668	0.707971	-0.691593
C93	C	0.596692	0.707969	-0.752209
C94	C	0.670944	0.559495	-0.677974
C95	C	0.670926	0.559499	-0.617360
C96	C	0.633784	0.633739	-0.624174
C97	C	0.633806	0.633737	0.190087
C98	C	0.633822	0.633736	0.254600
C99	C	0.823837	0.443668	-0.000011
C100	C	0.888347	0.379159	-0.000017
C101	C	0.633802	0.443661	0.190079
C102	C	0.633815	0.379150	0.254589
C103	C	0.823882	0.443664	0.190072
C104	C	0.888407	0.379154	0.254580
C105	C	0.443641	0.823815	-0.190065
C106	C	0.379115	0.888325	-0.254573
C107	C	0.443686	0.823812	0.000019
C108	C	0.379176	0.888321	0.000024
C109	C	0.633721	0.823819	-0.190072
C110	C	0.633707	0.888329	-0.254582
C111	C	0.881515	0.348865	-0.037141
C112	C	0.942124	0.288260	-0.037160
C113	C	1.009562	0.257947	-0.000050
C114	C	1.016392	0.288247	0.037076
C115	C	0.955785	0.348854	0.037091
C116	C	0.670948	0.348855	0.322006
C117	C	0.670958	0.288249	0.382626
C118	C	0.633839	0.257934	0.375827
C119	C	0.596703	0.288235	0.308403
C120	C	0.596689	0.348845	0.247784
C121	C	0.955823	0.348861	0.247754
C122	C	1.016458	0.288256	0.308360
C123	C	1.009674	0.257941	0.375791
C124	C	0.942250	0.288240	0.382615
C125	C	0.881618	0.348848	0.322010
C126	C	0.311699	0.918626	-0.247747
C127	C	0.251065	0.979250	-0.308353
C128	C	0.257849	1.009568	-0.375784
C129	C	0.325272	0.979265	-0.382608
C130	C	0.385905	0.918646	-0.322003
C131	C	0.386007	0.918621	0.037142
C132	C	0.325399	0.979242	0.037145
C133	C	0.257960	1.009558	0.000032
C134	C	0.251131	0.979255	-0.037091
C135	C	0.311738	0.918639	-0.037097
C136	C	0.670833	0.918625	-0.247760
C137	C	0.670834	0.979232	-0.308368
C138	C	0.633705	1.009546	-0.375797
C139	C	0.596578	0.979245	-0.382618
C140	C	0.596582	0.918635	-0.322010
H141	H	0.701080	0.263558	-0.067353
H142	H	0.330787	1.003958	-0.437517
H143	H	0.306166	0.893970	-0.067322
N144	N	0.556633	-0.114054	0.077176
H145	H	0.533126	-0.085658	0.100693
H146	H	0.590728	-0.174899	0.114489
H147	H	0.936549	0.263597	-0.067393
N148	N	0.192599	1.074928	0.000055
H149	H	0.163430	1.053832	0.021185
H150	H	0.163462	1.125212	-0.050223
H151	H	0.196214	1.003948	-0.067308
N152	N	0.710983	0.381543	0.329357
H153	H	0.676935	0.442388	0.305862
H154	H	0.748335	0.370936	0.305877
N155	N	0.556533	1.011945	-0.455346
H156	H	0.562166	1.054940	-0.492700
H157	H	0.504623	1.037057	-0.460963
H158	H	0.826609	0.373545	-0.067370
N159	N	0.934939	0.255538	0.455345
H160	H	0.983583	0.212544	0.492697
H161	H	0.908144	0.230425	0.460965
N162	N	0.710894	-0.114046	-0.077150
H163	H	0.705268	-0.157049	-0.071514
H164	H	0.762805	-0.139142	-0.057671
H165	H	0.701068	0.893952	-0.192861
H166	H	0.330974	1.003905	0.067377
H167	H	0.701066	1.003896	-0.302801
H168	H	0.633707	1.058899	-0.425142
N169	N	0.963150	0.381544	0.175030
H170	H	1.015063	0.353150	0.179913
H171	H	0.939610	0.442391	0.148262
N172	N	0.710891	0.011951	-0.077157
H173	H	0.676836	0.072793	-0.114510
H174	H	0.734399	-0.016509	-0.100623
H175	H	0.633856	0.208582	0.425192
H176	H	0.566454	0.373503	0.192893
N177	N	0.458741	0.885938	0.077164
H178	H	0.485556	0.825094	0.114519
H179	H	0.453803	0.914400	0.100627
H180	H	0.566346	0.893975	-0.327574
H181	H	0.701073	0.373531	-0.067361
H182	H	0.566435	0.263546	0.067347
H183	H	0.566437	0.003926	0.067357
N184	N	0.458715	0.479436	0.077142
H185	H	0.453833	0.432411	0.100648
H186	H	0.485493	0.476193	0.114462
H187	H	1.058907	0.208596	-0.000067
H188	H	0.566434	0.373513	0.067352
N189	N	0.711000	0.479429	-0.670627
H190	H	0.734516	0.432402	-0.618717
H191	H	0.748320	0.476207	-0.694146
N192	N	1.089131	0.255549	0.077100
H193	H	1.126483	0.212556	0.071455
H194	H	1.094764	0.230435	0.129009
N195	N	0.192449	1.074950	-0.441148
H196	H	0.148714	1.089538	-0.426585
H197	H	0.192470	1.053812	-0.470298
H198	H	0.196172	1.003913	-0.302783
N199	N	-0.065201	0.788046	-0.077156
H200	H	-0.016570	0.776781	-0.071522
H201	H	-0.092002	0.820465	-0.057667
H202	H	0.330924	0.499056	0.067339
H203	H	0.196215	0.768418	-0.067323
N204	N	0.556676	0.255530	0.301072
H205	H	0.519333	0.266072	0.324572
H206	H	0.590783	0.194695	0.324563
N207	N	0.304388	0.788041	-0.077126
H208	H	0.252472	0.835070	-0.100640
H209	H	0.327913	0.791271	-0.114441
H210	H	0.071307	0.499058	0.067339
N211	N	0.556531	0.788044	-0.329357
H212	H	0.533021	0.835069	-0.381268
H213	H	0.590612	0.791274	-0.305812
H214	H	-0.038659	0.499061	0.067332
H215	H	0.701087	0.499062	-0.302856
H216	H	-0.173371	0.768427	-0.067343
H217	H	0.566369	0.768424	-0.437527
H218	H	1.071351	0.263592	0.302791
N219	N	0.710882	0.479438	-0.175058
H220	H	0.734410	0.432410	-0.179942
H221	H	0.676796	0.476203	-0.148307
H222	H	0.961357	0.373512	0.067326
H223	H	1.059051	0.208589	0.425134
H224	H	0.566426	0.768422	-0.697143
H225	H	0.566466	0.768418	-0.807105
N226	N	0.458617	0.885965	-0.329369
H227	H	0.453707	0.914372	-0.381284
H228	H	0.485384	0.825121	-0.305849
H229	H	0.701150	0.499053	-0.562465
H230	H	0.826727	0.373505	0.327577
N231	N	0.711016	0.255572	0.455341
H232	H	0.734533	0.283969	0.450444
H233	H	0.748335	0.194725	0.482107
H234	H	0.306162	0.893944	-0.192847
