data_functionalizedCrystal
_audit_creation_method	'MofGen! by Chris Wilmer'
_symmetry_space_group_name_H-M	'P1'
_symmetry_Int_Tables_number	1
_symmetry_cell_setting	triclinic
loop_
_symmetry_equiv_pos_as_xyz
  x,y,z
_cell_length_a	15.297327
_cell_length_b	12.759401
_cell_length_c	12.759393
_cell_angle_alpha	89.979062
_cell_angle_beta	80.357027
_cell_angle_gamma	80.291874
loop_
_atom_site_label
_atom_site_type_symbol
_atom_site_fract_x
_atom_site_fract_y
_atom_site_fract_z
Zn1	Zn	-0.359082	-1.533815	0.666329
Zn2	Zn	-0.509967	-1.503263	0.521034
Zn3	Zn	-0.359130	-1.358104	0.490674
Zn4	Zn	-0.509904	-1.327675	0.696658
O5	O	-0.434521	-1.430714	0.593674
O6	O	-0.379103	-1.676782	0.647069
O7	O	-0.490005	-1.483956	0.369995
O8	O	-0.232878	-1.406934	0.488577
O9	O	-0.489958	-1.654335	0.540320
O10	O	-0.232842	-1.536028	0.617630
O11	O	-0.379185	-1.377308	0.347690
O12	O	-0.379124	-1.207048	0.517986
O13	O	-0.489851	-1.355072	0.839647
O14	O	-0.489898	-1.184692	0.669321
O15	O	-0.379042	-1.506522	0.817364
O16	O	-0.636205	-1.454449	0.569729
O17	O	-0.636159	-1.325446	0.698760
C18	C	-0.434510	-1.157749	0.593651
C19	C	-0.434527	-1.040969	0.593670
C20	C	-0.668916	-1.383359	0.640853
C21	C	-0.769191	-1.363196	0.661071
C22	C	-0.434434	-1.430810	0.867690
C23	C	-0.434397	-1.430851	0.984459
C24	C	-1.051821	-1.575254	0.449528
C25	C	-0.957608	-1.594198	0.430526
C26	C	-0.910499	-1.536449	0.488161
C27	C	-0.957613	-1.459753	0.564800
C28	C	-1.051836	-1.440802	0.583798
C29	C	-0.910513	-1.401997	0.622431
C30	C	-0.957627	-1.325301	0.699071
C31	C	-1.051841	-1.306354	0.718065
C32	C	-1.098950	-1.364103	0.660430
C33	C	-0.816291	-1.420948	0.603434
C34	C	-0.816305	-1.286496	0.737704
C35	C	-0.910519	-1.267553	0.756705
C36	C	-0.199211	-1.478284	0.546334
C37	C	-0.098935	-1.498555	0.526160
C38	C	-0.434533	-1.704745	0.593698
C39	C	-0.434538	-1.821521	0.593708
C40	C	-0.492294	-0.974476	0.672383
C41	C	-0.492298	-0.864751	0.672404
C42	C	-0.376764	-0.888023	0.514991
C43	C	-0.376756	-0.997747	0.514975
C44	C	-0.434542	-1.430692	0.320711
C45	C	-0.434325	-1.430906	0.203891
C46	C	-0.376690	-1.509719	1.027719
C47	C	-0.376651	-1.509744	1.137435
C48	C	-0.492035	-1.352031	1.160625
C49	C	-0.492068	-1.352002	1.050909
H50	H	-0.777939	-1.483394	0.541033
N51	N	-0.765500	-1.224210	0.799870
H52	H	-0.781836	-1.237199	0.878246
H53	H	-0.781978	-1.145866	0.786718
H54	H	-0.329728	-1.573921	0.973617
N55	N	-1.102666	-1.223635	0.800721
H56	H	-1.141818	-1.167096	0.765874
H57	H	-1.058478	-1.190005	0.834330
H58	H	-0.539337	-0.810617	0.736501
H59	H	-0.329730	-0.852817	0.450919
H60	H	-0.539333	-1.009664	0.736464
N61	N	-0.314400	-1.594798	1.184092
H62	H	-0.277870	-1.644737	1.125345
H63	H	-0.351103	-1.636008	1.237017
N64	N	-0.554221	-1.266977	1.232292
H65	H	-0.545441	-1.278958	1.308361
H66	H	-0.618664	-1.270277	1.226088
H67	H	-0.948892	-1.205106	0.819105
H68	H	-0.833786	-1.551877	0.472684
N69	N	-0.314435	-1.069477	0.430086
H70	H	-0.277841	-1.025447	0.380233
H71	H	-0.351097	-1.107578	0.388766
N72	N	-0.554305	-1.266914	1.004257
H73	H	-0.618763	-1.270190	1.036315
H74	H	-0.545498	-1.278894	0.924671
N75	N	-0.906794	-1.676924	0.347884
H76	H	-0.950931	-1.710638	0.314261
H77	H	-0.867644	-1.733391	0.382810
H78	H	-1.090186	-1.622258	0.402604
H79	H	-1.175666	-1.348686	0.675900
