data_functionalizedCrystal
_audit_creation_method	'MofGen! by Chris Wilmer'
_symmetry_space_group_name_H-M	'P1'
_symmetry_Int_Tables_number	1
_symmetry_cell_setting	triclinic
loop_
_symmetry_equiv_pos_as_xyz
  x,y,z
_cell_length_a	27.732048
_cell_length_b	11.792241
_cell_length_c	10.268362
_cell_angle_alpha	89.999626
_cell_angle_beta	90.010224
_cell_angle_gamma	96.581964
loop_
_atom_site_label
_atom_site_type_symbol
_atom_site_fract_x
_atom_site_fract_y
_atom_site_fract_z
O1	O	0.066248	-1.504790	0.108189
O2	O	0.566248	-1.004790	0.608189
O3	O	0.073076	-1.174230	0.108221
O4	O	0.573076	-0.674230	0.608221
O5	O	-0.000675	-1.349776	0.108179
O6	O	0.499325	-0.849776	0.608179
O7	O	0.139999	-1.329243	0.108231
O8	O	0.639999	-0.829243	0.608231
O9	O	-0.000678	-1.349761	-0.108421
O10	O	0.499322	-0.849761	0.391579
O11	O	0.073073	-1.174215	-0.108379
O12	O	0.573073	-0.674215	0.391621
O13	O	0.066245	-1.504775	-0.108411
O14	O	0.566245	-1.004775	0.391589
Cu15	Cu	0.069659	-1.339493	-0.128173
Cu16	Cu	0.569659	-0.839493	0.371827
Cu17	Cu	0.069662	-1.339511	0.127983
Cu18	Cu	0.569662	-0.839511	0.627983
O19	O	0.139996	-1.329228	-0.108370
O20	O	0.639996	-0.829228	0.391630
C21	C	0.072645	-1.131945	-0.000075
C22	C	0.572645	-0.631945	0.499925
C23	C	0.071362	-1.005973	-0.000064
C24	C	0.571362	-0.505973	0.499936
C25	C	-0.018686	-1.349338	-0.000124
C26	C	0.481314	-0.849338	0.499876
C27	C	-0.072348	-1.348040	-0.000135
C28	C	0.427652	-0.848040	0.499865
C29	C	0.066676	-1.547059	-0.000112
C30	C	0.566676	-1.047059	0.499888
C31	C	0.067959	-1.673032	-0.000114
C32	C	0.567959	-1.173032	0.499886
C33	C	-0.410609	-1.443606	-0.000077
C34	C	0.089391	-0.943606	0.499923
C35	C	-0.612297	-1.438790	-0.000059
C36	C	-0.112297	-0.938790	0.499941
O37	O	-0.643045	-1.526178	-0.000010
O38	O	-0.143045	-1.026178	0.499990
N39	N	-0.632024	-1.334698	-0.000050
N40	N	-0.132024	-0.834698	0.499950
C41	C	-0.601327	-1.231803	-0.000037
C42	C	-0.101327	-0.731803	0.499963
O43	O	-0.622734	-1.143157	-0.000016
O44	O	-0.122734	-0.643157	0.499984
C45	C	-0.399640	-1.236620	-0.000046
C46	C	0.100360	-0.736620	0.499954
C47	C	-0.379915	-1.340718	-0.000069
C48	C	0.120085	-0.840718	0.499931
C49	C	-0.390884	-1.547695	-0.000098
C50	C	0.109116	-1.047695	0.499902
C51	C	-0.340465	-1.548898	-0.000110
C52	C	0.159535	-1.048898	0.499890
C53	C	-0.309771	-1.446011	-0.000101
C54	C	0.190229	-0.946011	0.499899
C55	C	-0.329496	-1.341921	-0.000080
C56	C	0.170504	-0.841921	0.499920
C57	C	-0.368943	-1.133726	-0.000024
C58	C	0.131057	-0.633726	0.499976
C59	C	-0.318519	-1.134940	-0.000023
C60	C	0.181481	-0.634940	0.499977
C61	C	-0.298794	-1.239038	-0.000045
C62	C	0.201206	-0.739038	0.499955
C63	C	-0.248384	-1.240237	-0.000083
C64	C	0.251616	-0.740237	0.499917
N65	N	-0.228656	-1.344328	-0.000092
N66	N	0.271344	-0.844328	0.499908
C67	C	-0.259350	-1.447215	-0.000101
C68	C	0.240650	-0.947215	0.499899
C69	C	-0.707215	-1.229282	-0.000035
C70	C	-0.207215	-0.729282	0.499965
C71	C	-0.757637	-1.228077	-0.000035
C72	C	-0.257637	-0.728077	0.499965
C73	C	-0.768603	-1.435065	-0.000054
C74	C	-0.268603	-0.935065	0.499946
C75	C	-0.718181	-1.436268	-0.000063
C76	C	-0.218181	-0.936268	0.499937
C77	C	-0.687488	-1.333374	-0.000044
C78	C	-0.187488	-0.833374	0.499956
C79	C	-0.153466	-1.449733	-0.000127
C80	C	0.346534	-0.949733	0.499873
C81	C	-0.103042	-1.450927	-0.000144
C82	C	0.396958	-0.950927	0.499856
C83	C	-0.092080	-1.243941	-0.000118
C84	C	0.407920	-0.743941	0.499882
C85	C	-0.142500	-1.242746	-0.000108
C86	C	0.357500	-0.742746	0.499892
C87	C	-0.173192	-1.345652	-0.000108
C88	C	0.326808	-0.845652	0.499892
O89	O	-0.217607	-1.152896	-0.000117
O90	O	0.282393	-0.652896	0.499883
O91	O	-0.237933	-1.535849	-0.000093
O92	O	0.262067	-1.035849	0.499907
C93	C	-0.461028	-1.442403	-0.000066
C94	C	0.038972	-0.942403	0.499934
C95	C	-0.480753	-1.338313	-0.000045
C96	C	0.019247	-0.838313	0.499955
C97	C	-0.450060	-1.235426	-0.000036
C98	C	0.049940	-0.735426	0.499964
C99	C	-0.531175	-1.337108	-0.000045
C100	C	-0.031175	-0.837108	0.499955
C101	C	-0.561868	-1.439996	-0.000054
C102	C	-0.061868	-0.939996	0.499946
C103	C	-0.542141	-1.544087	-0.000063
C104	C	-0.042141	-1.044087	0.499937
C105	C	-0.491722	-1.545290	-0.000074
C106	C	0.008278	-1.045290	0.499926
C107	C	-0.469787	-1.131334	-0.000027
C108	C	0.030213	-0.631334	0.499973
C109	C	-0.520207	-1.130140	-0.000017
C110	C	-0.020207	-0.630140	0.499983
C111	C	-0.550900	-1.233027	-0.000026
C112	C	-0.050900	-0.733027	0.499974
C113	C	0.158007	-1.329667	-0.000063
C114	C	0.658007	-0.829667	0.499937
C115	C	0.211669	-1.330965	-0.000044
C116	C	0.711669	-0.830965	0.499956
N117	N	0.069656	-1.339489	-0.308339
N118	N	0.569656	-0.839489	0.191661
C119	C	0.069001	-0.775336	-0.000103
C120	C	0.569001	-0.275336	0.499897
C121	C	0.070313	-0.903679	-0.000082
C122	C	0.570313	-0.403679	0.499918
C123	C	0.069661	-1.339506	-0.574009
C124	C	0.569661	-0.839506	-0.074009
C125	C	0.069660	-1.339493	-0.426171
C126	C	0.569660	-0.839493	0.073829
N127	N	0.069661	-1.339525	0.308148
N128	N	0.569661	-0.839525	0.808148
H129	H	-0.086985	-1.535700	-0.000165
H130	H	0.413015	-1.035700	0.499835
C131	C	-0.541897	-1.015615	0.000006
C132	C	-0.041897	-0.515615	0.500006
N133	N	-0.558233	-0.929357	0.000036
N134	N	-0.058233	-0.429357	0.500036
H135	H	-0.324410	-1.633666	-0.000122
H136	H	0.175590	-1.133666	0.499878
C137	C	-0.436030	-1.018143	-0.000015
C138	C	0.063970	-0.518143	0.499985
N139	N	-0.410606	-0.932880	-0.000011
N140	N	0.089394	-0.432880	0.499989
H141	H	-0.067080	-1.160173	-0.000115
H142	H	0.432920	-0.660173	0.499885
C143	C	-0.779328	-1.113561	-0.000027
C144	C	-0.279328	-0.613561	0.499973
N145	N	-0.795664	-1.027304	-0.000012
N146	N	-0.295664	-0.527304	0.499988
H147	H	-0.384994	-1.048958	0.000001
H148	H	0.115006	-0.548958	0.500001
C149	C	-0.187220	-1.562935	-0.000139
C150	C	0.312780	-1.062935	0.499861
N151	N	-0.212644	-1.648199	-0.000159
N152	N	0.287356	-1.148199	0.499841
C153	C	-0.424640	-1.660890	-0.000122
C154	C	0.075360	-1.160890	0.499878
N155	N	-0.450062	-1.746156	-0.000154
N156	N	0.049938	-1.246156	0.499846
H157	H	-0.682229	-1.145488	-0.000019
H158	H	-0.182229	-0.645488	0.499981
H159	H	-0.702125	-1.521034	-0.000080
H160	H	-0.202125	-1.021034	0.499920
H161	H	-0.793603	-1.518839	-0.000062
H162	H	-0.293603	-1.018839	0.499938
H163	H	-0.293530	-1.051148	-0.000006
H164	H	0.206470	-0.551148	0.499994
H165	H	-0.158560	-1.157981	-0.000126
H166	H	0.341440	-0.657981	0.499874
C167	C	-0.575913	-1.657263	-0.000070
C168	C	-0.075913	-1.157263	0.499930
N169	N	-0.601353	-1.742503	-0.000068
N170	N	-0.101353	-1.242503	0.499932
H171	H	-0.475667	-1.630058	-0.000092
H172	H	0.024333	-1.130058	0.499908
