data_functionalizedCrystal
_audit_creation_method	'MofGen! by Chris Wilmer'
_symmetry_space_group_name_H-M	'P1'
_symmetry_Int_Tables_number	1
_symmetry_cell_setting	triclinic
loop_
_symmetry_equiv_pos_as_xyz
  x,y,z
_cell_length_a	14.853566
_cell_length_b	14.853569
_cell_length_c	9.130313
_cell_angle_alpha	89.997576
_cell_angle_beta	90.002610
_cell_angle_gamma	83.634990
loop_
_atom_site_label
_atom_site_type_symbol
_atom_site_fract_x
_atom_site_fract_y
_atom_site_fract_z
O1	O	1.196361	0.117695	-0.121706
O2	O	0.933901	0.131717	-0.121731
O3	O	1.072141	-0.006524	-0.121704
O4	O	1.058121	0.255936	-0.121733
O5	O	1.072139	-0.006520	0.121895
O6	O	0.933900	0.131721	0.121868
O7	O	1.196359	0.117698	0.121892
Cu8	Cu	1.065129	0.124710	0.144123
Cu9	Cu	1.065131	0.124706	-0.143961
O10	O	1.058120	0.255939	0.121865
C11	C	0.900312	0.131084	0.000065
C12	C	0.800228	0.129181	0.000056
C13	C	0.377044	0.121128	-0.132703
C14	C	0.377064	0.121133	0.132878
C15	C	0.471098	0.122920	0.132873
C16	C	0.518109	0.123813	0.000079
C17	C	0.471087	0.122918	-0.132712
C18	C	0.518126	0.123824	0.265661
C19	C	0.612166	0.125612	0.265662
C20	C	0.659180	0.126499	0.132865
C21	C	0.612152	0.125603	0.000070
C22	C	0.659163	0.126496	-0.132725
C23	C	0.612137	0.125594	-0.265522
C24	C	0.518101	0.123805	-0.265508
C25	C	0.753217	0.128288	0.132851
C26	C	0.753205	0.128286	-0.132734
C27	C	1.071505	-0.040111	0.000096
C28	C	1.069600	-0.140194	0.000097
C29	C	0.986590	-0.176570	0.000092
C30	C	1.150822	-0.197861	0.000091
C31	C	1.149036	-0.291895	0.000085
C32	C	1.066025	-0.328271	0.000080
C33	C	0.984800	-0.270613	0.000081
C34	C	1.230259	-0.349560	0.000069
C35	C	1.228475	-0.443600	0.000061
C36	C	1.145463	-0.479978	0.000066
C37	C	1.064236	-0.422313	0.000069
C38	C	0.981225	-0.458690	0.000064
C39	C	0.899996	-0.401027	0.000077
C40	C	0.901788	-0.306991	0.000086
C41	C	1.143671	-0.574014	0.000057
C42	C	0.979436	-0.552732	0.000053
C43	C	1.229949	0.118332	0.000093
C44	C	1.330033	0.120235	0.000092
C45	C	1.058756	0.289526	0.000062
C46	C	1.060660	0.389610	0.000051
N47	N	1.065134	0.124713	0.346745
N48	N	1.065133	0.124696	-0.346584
C49	C	1.126363	0.063520	0.423409
C50	C	1.126360	0.063509	0.576746
C51	C	1.003899	0.185891	0.576741
C52	C	1.003897	0.185897	0.423407
C53	C	1.197068	-0.007134	0.423413
C54	C	1.197065	-0.007144	0.576750
H55	H	0.650426	0.126327	-0.373644
C56	C	0.936611	0.253282	0.339082
N57	N	0.885955	0.304067	0.275569
H58	H	0.338752	0.120390	-0.240823
H59	H	1.209806	-0.620959	0.000031
H60	H	0.835657	-0.260034	0.000093
H61	H	0.479804	0.123069	-0.373624
C62	C	1.317828	-0.507020	0.000070
N63	N	1.385129	-0.554789	0.000088
C64	C	1.321564	-0.309540	0.000086
N65	N	1.390339	-0.279393	0.000109
C66	C	0.936540	0.253189	0.661084
N67	N	0.885804	0.303880	0.724610
H68	H	1.182191	-0.076317	0.381799
H69	H	1.266234	0.007786	0.618371
H70	H	1.262363	0.014337	0.375858
C71	C	0.325347	0.120154	0.278944
N72	N	0.286391	0.119414	0.388967
C73	C	1.168122	-0.095386	0.640998
N74	N	1.146316	-0.161846	0.689392
H75	H	0.791476	0.129010	-0.240873
C76	C	0.466408	0.122846	0.411725
N77	N	0.427449	0.122107	0.521746
H78	H	0.650446	0.126345	0.373793
C79	C	0.804940	0.129281	0.278919
N80	N	0.843898	0.130026	0.388945
H81	H	0.911837	-0.582342	0.000062
C82	C	0.808687	-0.441053	0.000077
N83	N	0.739915	-0.471205	0.000082
H84	H	0.920455	-0.129618	0.000108
H85	H	1.218406	-0.168237	0.000125
