data_functionalizedCrystal
_audit_creation_method	'MofGen! by Chris Wilmer'
_symmetry_space_group_name_H-M	'P1'
_symmetry_Int_Tables_number	1
_symmetry_cell_setting	triclinic
loop_
_symmetry_equiv_pos_as_xyz
  x,y,z
_cell_length_a	21.395364
_cell_length_b	18.101396
_cell_length_c	21.395341
_cell_angle_alpha	89.900299
_cell_angle_beta	90.067949
_cell_angle_gamma	89.964644
loop_
_atom_site_label
_atom_site_type_symbol
_atom_site_fract_x
_atom_site_fract_y
_atom_site_fract_z
Zn1	Zn	0.958099	0.294330	0.354280
Zn2	Zn	1.458099	0.794330	0.854280
Zn3	Zn	0.957911	0.418336	0.249509
Zn4	Zn	1.457911	0.918336	0.749509
Zn5	Zn	0.853235	0.294509	0.249516
Zn6	Zn	1.353235	0.794509	0.749516
Zn7	Zn	0.853272	0.418130	0.354249
Zn8	Zn	1.353272	0.918130	0.854249
O9	O	0.905629	0.356326	0.301888
O10	O	1.405629	0.856326	0.801888
O11	O	1.045752	0.310790	0.340392
O12	O	1.545752	0.810790	0.840392
O13	O	0.943931	0.402071	0.161832
O14	O	1.443931	0.902071	0.661832
O15	O	0.867209	0.190852	0.263430
O16	O	1.367209	0.690852	0.763430
O17	O	1.045614	0.401897	0.263417
O18	O	1.545614	0.901897	0.763417
O19	O	0.944252	0.190721	0.340399
O20	O	1.444252	0.690721	0.840399
O21	O	0.867026	0.311096	0.161837
O22	O	1.367026	0.811096	0.661837
O23	O	0.765562	0.310897	0.263399
O24	O	1.265562	0.810897	0.763399
O25	O	0.867271	0.401547	0.441931
O26	O	1.367271	0.901547	0.941931
O27	O	0.765589	0.401721	0.340346
O28	O	1.265589	0.901721	0.840346
O29	O	0.944288	0.310591	0.441954
O30	O	1.444288	0.810591	0.941954
O31	O	0.943967	0.521942	0.263386
O32	O	1.443967	1.021942	0.763386
O33	O	0.867089	0.521791	0.340338
O34	O	1.367089	1.021791	0.840338
C35	C	0.742842	0.356307	0.301870
C36	C	1.242842	0.856307	0.801870
C37	C	0.673200	0.356316	0.301878
C38	C	1.173200	0.856316	0.801878
C39	C	0.171435	0.403705	0.341916
C40	C	0.671435	0.903705	0.841916
C41	C	0.236870	0.403705	0.341909
C42	C	0.736870	0.903705	0.841909
C43	C	0.269562	0.356343	0.301908
C44	C	0.769562	0.856343	0.801908
C45	C	0.236813	0.308989	0.261900
C46	C	0.736813	0.808989	0.761900
C47	C	0.171379	0.308996	0.261903
C48	C	0.671379	0.808996	0.761903
C49	C	0.373253	0.289611	0.297054
C50	C	0.873253	0.789611	0.797054
C51	C	0.438686	0.289603	0.297055
C52	C	0.938686	0.789603	0.797055
C53	C	0.471383	0.356323	0.301895
C54	C	0.971383	0.856323	0.801895
C55	C	0.438638	0.423053	0.306746
C56	C	0.938638	0.923053	0.806746
C57	C	0.373204	0.423059	0.306750
C58	C	0.873204	0.923059	0.806750
C59	C	0.340514	0.356331	0.301900
C60	C	0.840514	0.856331	0.801900
C61	C	0.575076	0.403677	0.341891
C62	C	1.075076	0.903677	0.841891
C63	C	0.640513	0.403678	0.341880
C64	C	1.140513	0.903678	0.841880
C65	C	0.640455	0.308956	0.261873
C66	C	1.140455	0.808956	0.761873
C67	C	0.575019	0.308961	0.261881
C68	C	1.075019	0.808961	0.761881
C69	C	0.542334	0.356321	0.301893
C70	C	1.042334	0.856321	0.801893
C71	C	0.905529	0.548737	0.301872
C72	C	1.405529	1.048737	0.801872
C73	C	0.905543	0.631051	0.301886
C74	C	1.405543	1.131051	0.801886
C75	C	0.905654	0.930142	0.301922
C76	C	1.405654	1.430142	0.801922
C77	C	0.857400	0.898752	0.350458
C78	C	1.357400	1.398752	0.850458
C79	C	0.857178	0.813135	0.350306
C80	C	1.357178	1.313135	0.850306
C81	C	0.905599	0.781759	0.301905
C82	C	1.405599	1.281759	0.801905
C83	C	0.887664	0.813010	0.235871
C84	C	1.387664	1.313010	0.735871
C85	C	0.887345	0.898654	0.236163
C86	C	1.387345	1.398654	0.736163
C87	C	0.971952	0.898462	0.318838
C88	C	1.471952	1.398462	0.818838
C89	C	0.971571	0.812809	0.320285
C90	C	1.471571	1.312809	0.820285
C91	C	0.905569	0.697900	0.301891
C92	C	1.405569	1.197900	0.801891
C93	C	0.905683	1.014001	0.301932
C94	C	1.405683	1.514001	0.801932
C95	C	1.069052	0.356347	0.301907
C96	C	1.569052	0.856347	0.801907
C97	C	1.138694	0.356355	0.301915
C98	C	1.638694	0.856355	0.801915
C99	C	0.905725	1.163164	0.301921
C100	C	1.405725	1.663164	0.801921
C101	C	0.905710	1.080850	0.301941
C102	C	1.405710	1.580850	0.801941
C103	C	0.905490	0.356572	0.139100
C104	C	1.405490	0.856572	0.639100
C105	C	0.905537	0.356491	0.069459
C106	C	1.405537	0.856491	0.569459
C107	C	0.945668	0.308244	-0.432153
C108	C	1.445668	0.808244	0.067847
C109	C	0.945624	0.308312	-0.366717
C110	C	1.445624	0.808312	0.133283
C111	C	0.905798	0.356047	-0.334178
C112	C	1.405798	0.856047	0.165822
C113	C	0.866001	0.403704	-0.367080
C114	C	1.366001	0.903704	0.132920
C115	C	0.866042	0.403630	-0.432514
C116	C	1.366042	0.903630	0.067486
C117	C	0.901156	0.422926	-0.230672
C118	C	1.401156	0.922926	0.269328
C119	C	0.901119	0.423001	-0.165239
C120	C	1.401119	0.923001	0.334761
C121	C	0.905669	0.356275	-0.132358
C122	C	1.405669	0.856275	0.367642
C123	C	0.910269	0.289471	-0.164917
C124	C	1.410269	0.789471	0.335083
C125	C	0.910309	0.289397	-0.230351
C126	C	1.410309	0.789397	0.269649
C127	C	0.905749	0.356132	-0.263226
C128	C	1.405749	0.856132	0.236774
C129	C	0.945413	0.308691	-0.028512
C130	C	1.445413	0.808691	0.471488
C131	C	0.945365	0.308757	0.036925
C132	C	1.445365	0.808757	0.536925
C133	C	0.865745	0.404156	0.036561
C134	C	1.365745	0.904156	0.536561
C135	C	0.865790	0.404083	-0.028874
C136	C	1.365790	0.904083	0.471126
C137	C	0.905627	0.356351	-0.061407
C138	C	1.405627	0.856351	0.438593
C139	C	0.905805	0.356026	0.465312
C140	C	1.405805	0.856026	0.965312
C141	C	0.905879	0.355898	0.534954
C142	C	1.405879	0.855898	1.034954
H143	H	0.548361	0.270401	0.229310
H144	H	1.048361	0.770401	0.729310
C145	C	0.822190	0.456209	-0.331285
C146	C	1.322190	0.956209	0.168715
N147	N	0.789187	0.495754	-0.304325
N148	N	1.289187	0.995754	0.195675
C149	C	0.790786	0.785561	0.335214
C150	C	1.290786	1.285561	0.835214
N151	N	0.740773	0.764793	0.323862
N152	N	1.240773	1.264793	0.823862
H153	H	0.977765	0.269947	0.063706
H154	H	1.477765	0.769947	0.563706
H155	H	0.978024	0.269502	-0.339930
H156	H	1.478024	0.769502	0.160070
H157	H	0.263435	0.270427	0.229330
H158	H	0.763435	0.770427	0.729330
H159	H	0.548462	0.442241	0.374470
H160	H	1.048462	0.942241	0.874470
C161	C	1.020523	0.925897	0.271084
C162	C	1.520523	1.425897	0.771084
N163	N	1.057102	0.946566	0.235114
N164	N	1.557102	1.446566	0.735114
H165	H	0.144722	0.270436	0.229329
H166	H	0.644722	0.770436	0.729329
H167	H	0.144826	0.442272	0.374495
H168	H	0.644826	0.942272	0.874495
H169	H	0.465258	0.477382	0.310692
H170	H	0.965258	0.977382	0.810692
H171	H	0.868513	0.919226	0.399580
H172	H	1.368513	1.419226	0.899580
C173	C	0.872343	0.784577	0.416453
C174	C	1.372343	1.284577	0.916453
N175	N	0.883764	0.763071	0.466279
N176	N	1.383764	1.263071	0.966279
H177	H	0.667169	0.442242	0.374451
H178	H	1.167169	0.942242	0.874451
C179	C	0.821870	0.925760	0.216809
C180	C	1.321870	1.425760	0.716809
N181	N	0.772552	0.946173	0.202233
N182	N	1.272552	1.446173	0.702233
H183	H	0.465342	0.235267	0.293111
H184	H	0.965342	0.735267	0.793111
C185	C	0.821936	0.456665	0.072350
C186	C	1.321936	0.956665	0.572350
N187	N	0.788937	0.496216	0.099310
N188	N	1.288937	0.996216	0.599310
H189	H	0.263533	0.442263	0.374485
H190	H	0.763533	0.942263	0.874485
C191	C	0.337187	0.496462	0.312075
C192	C	0.837187	0.996462	0.812075
N193	N	0.310060	0.551750	0.316081
N194	N	0.810060	1.051750	0.816081
C195	C	0.337294	0.216208	0.291729
C196	C	0.837294	0.716208	0.791729
N197	N	0.310210	0.160923	0.287719
N198	N	0.810210	0.660923	0.787719
H199	H	0.667072	0.270395	0.229302
H200	H	1.167072	0.770395	0.729302
H201	H	0.977847	0.269821	-0.055001
H202	H	1.477847	0.769821	0.444999
C203	C	0.989482	0.255728	-0.467935
C204	C	1.489482	0.755728	0.032065
N205	N	1.022481	0.216170	-0.494887
N206	N	1.522481	0.716170	0.005113
H207	H	0.808558	0.920354	0.339395
H208	H	1.308558	1.420354	0.839395
H209	H	0.920964	0.919429	0.198766
H210	H	1.420964	1.419429	0.698766
H211	H	0.921706	0.792697	0.198722
H212	H	1.421706	1.292697	0.698722
C213	C	0.822885	0.784156	0.216168
C214	C	1.322885	1.284156	0.716168
N215	N	0.774091	0.762425	0.201330
N216	N	1.274091	1.262425	0.701330
H217	H	0.985094	0.792373	0.368882
H218	H	1.485094	1.292373	0.868882
H219	H	0.988288	0.919940	0.366169
H220	H	1.488288	1.419940	0.866169
H221	H	1.009433	0.791447	0.287510
H222	H	1.509433	1.291447	0.787510
H223	H	0.914053	0.235003	-0.256859
H224	H	1.414053	0.735003	0.243141
C225	C	0.915273	0.216066	-0.128753
C226	C	1.415273	0.716066	0.371247
N227	N	0.919042	0.160779	-0.101511
N228	N	1.419042	0.660779	0.398489
H229	H	0.833393	0.442892	-0.055656
H230	H	1.333393	0.942892	0.444344
C231	C	0.896060	0.496487	-0.129430
C232	C	1.396060	0.996487	0.370570
N233	N	0.892247	0.551837	-0.102460
N234	N	1.392247	1.051837	0.397540
C235	C	0.896162	0.496336	-0.266835
C236	C	1.396162	0.996336	0.233165
N237	N	0.892406	0.551628	-0.294072
N238	N	1.392406	1.051628	0.205928
C239	C	0.822270	0.456056	-0.468698
C240	C	1.322270	0.956056	0.031302
N241	N	0.789302	0.495546	-0.495952
N242	N	1.289302	0.995546	0.004048
