data_functionalizedCrystal
_audit_creation_method	'MofGen! by Chris Wilmer'
_symmetry_space_group_name_H-M	'P1'
_symmetry_Int_Tables_number	1
_symmetry_cell_setting	triclinic
loop_
_symmetry_equiv_pos_as_xyz
  x,y,z
_cell_length_a	15.944551
_cell_length_b	10.654541
_cell_length_c	9.130307
_cell_angle_alpha	89.998751
_cell_angle_beta	89.995755
_cell_angle_gamma	83.991333
loop_
_atom_site_label
_atom_site_type_symbol
_atom_site_fract_x
_atom_site_fract_y
_atom_site_fract_z
O1	O	0.117965	1.666312	-0.121794
O2	O	0.129208	1.300688	-0.121800
O3	O	0.001369	1.493485	-0.121784
O4	O	0.245804	1.473516	-0.121810
O5	O	0.001368	1.493478	0.121815
O6	O	0.129206	1.300682	0.121799
O7	O	0.117964	1.666306	0.121805
Cu8	Cu	0.123585	1.483493	0.144045
Cu9	Cu	0.123587	1.483501	-0.144039
O10	O	0.245802	1.473509	0.121789
C11	C	0.128382	1.253897	-0.000001
C12	C	0.125914	1.114486	-0.000002
C13	C	-0.029930	1.492652	0.000016
C14	C	-0.123190	1.490167	0.000017
C15	C	0.118790	1.713097	0.000002
C16	C	0.121258	1.852508	-0.000006
C17	C	-0.338772	1.364722	-0.000005
C18	C	-0.399453	1.422972	0.120105
C19	C	-0.293942	1.485671	0.000006
C20	C	-0.399435	1.423006	-0.120065
C21	C	-0.458880	1.481319	-0.000012
C22	C	-0.353395	1.543954	0.120215
C23	C	-0.353371	1.543971	-0.120063
C24	C	-0.414034	1.602309	0.000076
C25	C	-0.198925	1.488175	0.000017
C26	C	-0.553896	1.478825	-0.000012
C27	C	0.277102	1.474342	-0.000014
C28	C	0.370362	1.476827	-0.000025
N29	N	0.123584	1.483497	0.346667
C30	C	-0.031607	1.882457	-0.000007
C31	C	-0.106876	1.962925	-0.000015
C32	C	-0.104552	2.093913	-0.000021
C33	C	-0.026950	2.144434	-0.000013
C34	C	0.048320	2.063966	-0.000005
C35	C	0.045987	1.932977	-0.000004
C36	C	0.201183	2.034018	0.000006
C37	C	0.198860	1.903029	0.000002
C38	C	0.278785	2.084539	0.000014
C39	C	0.354057	2.004070	0.000012
C40	C	0.351729	1.873075	0.000016
C41	C	0.274130	1.822561	0.000010
N42	N	0.123582	1.483507	-0.346662
C43	C	0.010416	1.654288	0.346671
C44	C	-0.046165	1.739692	0.423340
C45	C	-0.046166	1.739704	0.576674
C46	C	0.010420	1.654301	0.653342
C47	C	0.067001	1.568898	0.576673
C48	C	0.066997	1.568897	0.423336
C49	C	0.180163	1.398103	0.576669
C50	C	0.180169	1.398094	0.423336
C51	C	0.236748	1.312700	0.653337
C52	C	0.293335	1.227301	0.576668
C53	C	0.293334	1.227292	0.423326
C54	C	0.236750	1.312691	0.346667
H55	H	-0.306045	1.264329	0.000113
H56	H	0.010418	1.654297	0.221819
H57	H	-0.419858	1.371812	0.221647
H58	H	-0.092242	1.809243	0.639098
H59	H	0.236747	1.312696	0.221815
H60	H	-0.025064	2.251093	0.000000
H61	H	0.413023	1.807564	0.000033
H62	H	-0.033507	1.775801	-0.000018
H63	H	-0.165843	2.159431	-0.000024
H64	H	-0.333109	1.595064	0.221869
H65	H	-0.446611	1.702790	0.000146
H66	H	-0.170059	1.921776	0.000000
H67	H	-0.332944	1.595086	-0.221610
H68	H	0.280673	2.191197	0.000018
H69	H	0.417234	2.045216	0.000027
H70	H	-0.419808	1.371837	-0.221615
H71	H	0.272227	1.715906	0.000007
H72	H	0.010409	1.654307	0.778194
H73	H	-0.092238	1.809224	0.360904
H74	H	0.339399	1.157766	0.639101
H75	H	0.339406	1.157742	0.360910
H76	H	0.236742	1.312709	0.778189
