data_functionalizedCrystal
_audit_creation_method	'MofGen! by Chris Wilmer'
_symmetry_space_group_name_H-M	'P1'
_symmetry_Int_Tables_number	1
_symmetry_cell_setting	triclinic
loop_
_symmetry_equiv_pos_as_xyz
  x,y,z
_cell_length_a	10.654554
_cell_length_b	9.798715
_cell_length_c	10.654551
_cell_angle_alpha	90.000318
_cell_angle_beta	84.486053
_cell_angle_gamma	90.003823
loop_
_atom_site_label
_atom_site_type_symbol
_atom_site_fract_x
_atom_site_fract_y
_atom_site_fract_z
O1	O	1.667837	0.113487	0.176423
O2	O	1.302360	0.113487	0.193223
O3	O	1.493501	0.113488	0.002084
O4	O	1.476696	0.113486	0.367562
O5	O	1.493487	-0.113495	0.002083
O6	O	1.302345	-0.113495	0.193222
O7	O	1.667823	-0.113496	0.176422
Zn8	Zn	1.485082	-0.149534	0.184822
Zn9	Zn	1.485101	0.149525	0.184823
O10	O	1.476682	-0.113496	0.367561
C11	C	1.255555	-0.000004	0.191988
C12	C	1.116112	-0.000003	0.188294
N13	N	1.485078	-0.353633	0.184821
C14	C	0.905604	-0.000000	0.297367
C15	C	1.036625	-0.000000	0.300839
C16	C	1.064571	0.000008	0.072269
C17	C	0.933552	0.000018	0.068799
C18	C	0.889470	-0.000011	0.429330
C19	C	1.020492	-0.000011	0.432802
C20	C	1.565333	-0.421410	0.104213
C21	C	1.565353	-0.578573	0.104209
C22	C	1.714628	-0.000002	0.177657
C23	C	1.854071	0.000007	0.181351
N24	N	1.485114	0.353625	0.184814
C25	C	1.492260	-0.000000	-0.044714
C26	C	1.488567	0.000009	-0.184158
C27	C	1.486843	0.123734	-0.249669
C28	C	1.483363	0.123728	-0.380690
C29	C	1.483337	-0.123740	-0.380676
C30	C	1.486808	-0.123733	-0.249657
C31	C	1.486863	0.266609	-0.249679
C32	C	1.483383	0.266602	-0.380700
C33	C	1.477923	-0.000005	0.414360
C34	C	1.481616	-0.000005	0.553803
H35	H	0.891600	0.000041	-0.025672
H36	H	1.416379	-0.411958	0.253825
H37	H	1.634068	-0.636858	0.035202
F38	F	1.149170	0.000019	-0.047510
H39	H	0.847731	0.094977	0.479059
H40	H	1.634024	-0.363087	0.035200
F41	F	0.829787	-0.128103	0.481443
H42	H	1.570177	0.321459	-0.426989
F43	F	1.395306	-0.570204	0.275030
H44	H	1.056131	0.097996	0.474828
H45	H	1.049847	-0.095014	0.484391
F46	F	1.488608	-0.255418	-0.179934
H47	H	1.481902	-0.224486	-0.434021
H48	H	1.400077	0.321472	-0.203400
H49	H	1.578465	0.310938	-0.220111
H50	H	1.391790	0.310948	-0.410268
