data_functionalizedCrystal
_audit_creation_method	'MofGen! by Chris Wilmer'
_symmetry_space_group_name_H-M	'P1'
_symmetry_Int_Tables_number	1
_symmetry_cell_setting	triclinic
loop_
_symmetry_equiv_pos_as_xyz
  x,y,z
_cell_length_a	19.121102
_cell_length_b	19.121111
_cell_length_c	15.299448
_cell_angle_alpha	83.125741
_cell_angle_beta	102.512947
_cell_angle_gamma	89.871671
loop_
_atom_site_label
_atom_site_type_symbol
_atom_site_fract_x
_atom_site_fract_y
_atom_site_fract_z
Zn1	Zn	1.142121	0.249414	0.586289
Zn2	Zn	1.116700	0.385299	0.441470
Zn3	Zn	1.002760	0.264726	0.428648
Zn4	Zn	1.019759	0.361682	0.585690
O5	O	1.070335	0.315280	0.510524
O6	O	1.237642	0.270916	0.572695
O7	O	1.083834	0.385596	0.313439
O8	O	1.024771	0.165250	0.444444
O9	O	1.218966	0.370750	0.466297
O10	O	1.127159	0.154001	0.560262
O11	O	1.000122	0.297012	0.304019
O12	O	0.906122	0.274111	0.443863
O13	O	1.053743	0.330498	0.712099
O14	O	0.918611	0.345344	0.559241
O15	O	1.143642	0.248015	0.712539
O16	O	1.100317	0.479611	0.465716
O17	O	1.029094	0.462259	0.571674
C18	C	0.886725	0.308827	0.500096
C19	C	0.808178	0.306080	0.495658
C20	C	1.063813	0.496200	0.520042
C21	C	1.061092	0.573596	0.524148
C22	C	0.777782	0.341955	0.553556
C23	C	0.703979	0.339365	0.549389
C24	C	0.660573	0.300902	0.487319
C25	C	0.690974	0.265022	0.429418
C26	C	0.764776	0.267609	0.433590
C27	C	0.437415	0.291227	0.471725
C28	C	0.363608	0.288645	0.467556
C29	C	0.376618	0.362987	0.587529
C30	C	0.450420	0.365574	0.591692
C31	C	0.480815	0.329691	0.533794
C32	C	0.585135	0.298255	0.483056
C33	C	0.556253	0.332335	0.538062
C34	C	1.096937	0.618963	0.470960
C35	C	1.094383	0.691684	0.474827
C36	C	1.055979	0.719037	0.531878
C37	C	1.020133	0.673664	0.585071
C38	C	1.022692	0.600944	0.581209
C39	C	1.046399	0.938154	0.546303
C40	C	1.043841	1.010880	0.550159
C41	C	1.118093	1.028894	0.439916
C42	C	1.120645	0.956172	0.436054
C43	C	1.084802	0.910806	0.489251
C44	C	1.053365	0.793370	0.535830
C45	C	1.087420	0.836474	0.485303
C46	C	1.254663	0.321760	0.520993
C47	C	1.333212	0.324521	0.525455
C48	C	1.103424	0.284914	0.745991
C49	C	1.117525	0.271974	0.846333
C50	C	1.076900	1.133651	0.501001
C51	C	1.079687	1.056247	0.496972
C52	C	1.037417	0.345479	0.275973
C53	C	1.023461	0.358228	0.175629
C54	C	1.170955	0.222948	0.893700
C55	C	1.184198	0.210781	0.987976
C56	C	1.144015	0.247642	1.034894
C57	C	1.090587	0.296672	0.987527
C58	C	1.077339	0.308836	0.893242
C59	C	1.050399	0.333530	1.034435
C60	C	0.996971	0.382560	0.987068
C61	C	0.983726	0.394723	0.892793
C62	C	1.023909	0.357862	0.845875
C63	C	1.063646	0.321366	1.128720
C64	C	0.970030	0.407254	1.128262
C65	C	0.956788	0.419421	1.033986
H66	H	0.813118	0.373279	0.604098
F67	F	1.213696	0.183705	0.843760
H68	H	1.012579	1.033146	0.596633
F69	F	0.797125	0.229423	0.371967
H70	H	0.549786	0.266940	0.432516
F71	F	1.241077	0.158623	1.038382
F72	F	1.008251	0.889880	0.602919
F73	F	1.137808	0.589859	0.410233
H74	H	1.151917	0.933904	0.389599
F75	F	1.120506	0.269185	1.179121
H76	H	0.993504	0.564006	0.624521
F77	F	0.602450	0.373267	0.604121
H78	H	0.988867	0.695941	0.631527
F79	F	1.009819	0.370811	0.745534
H80	H	1.154800	0.237732	1.111657
H81	H	1.123571	0.728619	0.431515
H82	H	1.147276	1.065839	0.396607
H83	H	0.485757	0.396896	0.642235
F84	F	0.926854	0.446896	0.842383
F85	F	1.128295	0.807361	0.424592
H86	H	0.913286	0.459341	0.995407
F87	F	1.012493	0.822488	0.596545
F88	F	0.927259	0.446483	1.178190
H89	H	0.679235	0.368579	0.596536
F90	F	0.344264	0.401175	0.649142
H91	H	0.462152	0.262015	0.424574
F92	F	0.644778	0.224081	0.363363
F93	F	0.317412	0.247711	0.401484
