data_functionalizedCrystal
_audit_creation_method	'MofGen! by Chris Wilmer'
_symmetry_space_group_name_H-M	'P1'
_symmetry_Int_Tables_number	1
_symmetry_cell_setting	triclinic
loop_
_symmetry_equiv_pos_as_xyz
  x,y,z
_cell_length_a	8.559649
_cell_length_b	9.198806
_cell_length_c	8.597304
_cell_angle_alpha	97.703055
_cell_angle_beta	77.624695
_cell_angle_gamma	90.003535
loop_
_atom_site_label
_atom_site_type_symbol
_atom_site_fract_x
_atom_site_fract_y
_atom_site_fract_z
O1	O	2.119297	0.114213	-0.053146
O2	O	1.655357	0.124352	0.027754
O3	O	1.896456	0.090525	-0.242263
O4	O	1.878197	0.148039	0.216871
O5	O	1.896437	-0.151260	-0.242261
O6	O	1.655338	-0.117433	0.027756
O7	O	2.119277	-0.127572	-0.053144
Cu8	Cu	1.887306	-0.144579	-0.012694
Cu9	Cu	1.887329	0.141359	-0.012696
O10	O	1.878178	-0.093746	0.216873
C11	C	1.595913	0.004228	0.033886
C12	C	1.418818	0.006516	0.052135
N13	N	1.887301	-0.345694	-0.012695
C14	C	1.988529	-0.432149	-0.126509
C15	C	1.988553	-0.599562	-0.126518
C16	C	2.178721	-0.007445	-0.059276
C17	C	2.355816	-0.009724	-0.077525
C18	C	1.894485	-0.037659	-0.300497
C19	C	1.888622	-0.059386	-0.474017
N20	N	1.887345	0.342471	-0.012709
C21	C	1.880149	0.034442	0.275107
C22	C	1.886013	0.056178	0.448627
H23	H	1.337265	0.022179	0.177112
H24	H	2.075171	-0.382229	-0.223950
N25	N	2.103369	-0.697957	-0.255589
H26	H	2.087115	-0.803603	-0.237298
H27	H	2.082920	-0.685066	-0.364416
N28	N	1.772525	-0.559138	0.116363
H29	H	1.704986	-0.620831	0.192308
H30	H	1.834921	-0.488250	0.178011
N31	N	1.463816	-0.030454	-0.243069
H32	H	1.579261	-0.029205	-0.233080
H33	H	1.442135	-0.127648	-0.303434
N34	N	1.772521	-0.411814	0.116368
H35	H	1.792903	-0.371762	0.225257
H36	H	1.658991	-0.385918	0.112116
N37	N	1.888897	0.209273	-0.463252
H38	H	1.892776	0.203626	-0.347619
H39	H	1.986516	0.260287	-0.516237
N40	N	1.885628	-0.212486	-0.562118
H41	H	1.881718	-0.206841	-0.677744
H42	H	1.985197	-0.269589	-0.558306
