data_functionalizedCrystal
_audit_creation_method	'MofGen! by Chris Wilmer'
_symmetry_space_group_name_H-M	'P1'
_symmetry_Int_Tables_number	1
_symmetry_cell_setting	triclinic
loop_
_symmetry_equiv_pos_as_xyz
  x,y,z
_cell_length_a	10.489741
_cell_length_b	10.723024
_cell_length_c	9.798715
_cell_angle_alpha	90.001978
_cell_angle_beta	90.001001
_cell_angle_gamma	84.503522
loop_
_atom_site_label
_atom_site_type_symbol
_atom_site_fract_x
_atom_site_fract_y
_atom_site_fract_z
O1	O	-1.693940	-0.176060	-0.113403
O2	O	-1.322734	-0.192587	-0.113424
O3	O	-1.516899	-0.002753	-0.113408
O4	O	-1.499774	-0.365895	-0.113419
O5	O	-1.516885	-0.002752	0.113574
O6	O	-1.322719	-0.192586	0.113558
O7	O	-1.693925	-0.176060	0.113579
Zn8	Zn	-1.508320	-0.184323	0.149607
Zn9	Zn	-1.508339	-0.184324	-0.149452
O10	O	-1.499760	-0.365894	0.113563
C11	C	-1.275196	-0.191338	0.000065
C12	C	-1.133569	-0.187604	0.000057
C13	C	-1.515646	0.043748	0.000082
C14	C	-1.511917	0.182305	0.000077
C15	C	-1.741464	-0.177308	0.000088
C16	C	-1.883091	-0.181043	0.000087
C17	C	-1.065506	-0.066818	0.000073
C18	C	-0.973349	-0.123876	-0.111840
C19	C	-0.973369	-0.123905	0.111947
C20	C	-1.043278	-0.244712	-0.111949
C21	C	-1.043307	-0.244723	0.111939
C22	C	-0.951178	-0.301869	-0.000002
C23	C	-1.501013	-0.412395	0.000071
C24	C	-1.504742	-0.550951	0.000067
N25	N	-1.508316	-0.184322	0.353707
C26	C	-1.620562	0.257221	0.000081
C27	C	-1.616711	0.400426	0.000076
N28	N	-1.508353	-0.184315	-0.353551
C29	C	-1.589841	-0.104264	0.421490
C30	C	-1.589861	-0.104260	0.578653
H31	H	-1.115259	0.032476	-0.000064
C32	C	-1.379081	0.362105	0.000063
H33	H	-1.308335	0.411188	0.000066
H34	H	-1.375693	0.310739	-0.079086
H35	H	-1.375685	0.310755	0.079231
H36	H	-1.659619	-0.035722	0.363174
H37	H	-1.438530	-0.252855	0.412026
H38	H	-1.416051	0.224185	0.000062
C39	C	-1.684151	-0.011661	0.657390
H40	H	-1.671788	-0.023799	0.752692
H41	H	-1.769480	-0.025764	0.634026
H42	H	-1.669336	0.071719	0.634044
C43	C	-1.084874	-0.313725	-0.239892
H44	H	-1.175230	-0.315649	-0.239140
H45	H	-1.044693	-0.396969	-0.240183
H46	H	-1.060378	-0.271119	-0.319287
C47	C	-1.750073	0.200656	0.000093
H48	H	-1.735671	0.111826	0.000105
H49	H	-1.797232	0.227614	-0.079056
H50	H	-1.797212	0.227621	0.079262
H51	H	-1.709719	0.464802	0.000085
C52	C	-0.931559	-0.054843	0.239765
H53	H	-0.971098	0.028657	0.239618
H54	H	-0.841130	-0.053624	0.239298
H55	H	-0.956685	-0.096943	0.319238
H56	H	-1.438557	-0.252864	0.588167
H57	H	-0.901691	-0.401268	-0.000066
H58	H	-1.074314	-0.295789	0.206556
C59	C	-0.931490	-0.054839	-0.239646
H60	H	-0.971005	0.028670	-0.239511
H61	H	-0.956582	-0.096946	-0.319123
H62	H	-0.841054	-0.053626	-0.239131
