data_functionalizedCrystal
_audit_creation_method	'MofGen! by Chris Wilmer'
_symmetry_space_group_name_H-M	'P1'
_symmetry_Int_Tables_number	1
_symmetry_cell_setting	triclinic
loop_
_symmetry_equiv_pos_as_xyz
  x,y,z
_cell_length_a	18.266242
_cell_length_b	16.109301
_cell_length_c	16.109301
_cell_angle_alpha	83.461481
_cell_angle_beta	89.992231
_cell_angle_gamma	89.993683
loop_
_atom_site_label
_atom_site_type_symbol
_atom_site_fract_x
_atom_site_fract_y
_atom_site_fract_z
O1	O	0.060837	-1.103137	-0.106868
O2	O	0.560837	-0.603137	0.393132
O3	O	0.060849	-0.861075	-0.120168
O4	O	0.560849	-0.361075	0.379832
O5	O	0.060835	-0.988756	0.007513
O6	O	0.560835	-0.488756	0.507513
O7	O	0.060851	-0.975457	-0.234549
O8	O	0.560851	-0.475457	0.265451
O9	O	-0.060927	-0.988734	0.007519
O10	O	0.439073	-0.488734	0.507519
O11	O	-0.060913	-0.861054	-0.120161
O12	O	0.439087	-0.361054	0.379839
O13	O	-0.060925	-1.103116	-0.106862
O14	O	0.439075	-0.603116	0.393138
Zn15	Zn	-0.080251	-0.982081	-0.113510
Zn16	Zn	0.419749	-0.482081	0.386490
Zn17	Zn	0.080175	-0.982110	-0.113519
Zn18	Zn	0.580175	-0.482110	0.386481
O19	O	-0.060911	-0.975435	-0.234543
O20	O	0.439089	-0.475435	0.265457
C21	C	-0.000031	-0.830090	-0.119626
C22	C	0.499969	-0.330090	0.380374
C23	C	-0.000026	-0.737794	-0.118011
C24	C	0.499974	-0.237794	0.381989
N25	N	-0.189738	-0.982068	-0.113504
N26	N	0.310262	-0.482068	0.386496
C27	C	-0.000046	-0.988206	0.038491
C28	C	0.499954	-0.488206	0.538491
C29	C	-0.000047	-0.986591	0.130786
C30	C	0.499953	-0.486591	0.630786
C31	C	-0.228053	-1.038623	-0.056995
C32	C	0.271947	-0.538623	0.443005
C33	C	-0.304698	-1.038629	-0.056991
C34	C	0.195302	-0.538629	0.443009
C35	C	-0.343025	-0.982086	-0.113511
C36	C	0.156975	-0.482086	0.386489
C37	C	-0.304701	-0.925520	-0.170024
C38	C	0.195299	-0.425520	0.329976
C39	C	-0.228058	-0.925511	-0.170021
C40	C	0.271942	-0.425511	0.329979
N41	N	-0.463353	-0.971484	-0.187080
N42	N	0.036647	-0.471484	0.312920
N43	N	-0.536161	-0.971498	-0.187081
N44	N	-0.036161	-0.471498	0.312919
C45	C	-0.573948	-0.982110	-0.113523
C46	C	-0.073948	-0.482110	0.386477
N47	N	-0.536176	-0.992723	-0.039962
N48	N	-0.036176	-0.492723	0.460038
N49	N	-0.463361	-0.992714	-0.039962
N50	N	0.036639	-0.492714	0.460038
C51	C	-0.426132	-0.982090	-0.113520
C52	C	0.073868	-0.482090	0.386480
C53	C	-0.695370	-1.038674	-0.057005
C54	C	-0.195370	-0.538674	0.442995
C55	C	-0.772016	-1.038673	-0.057000
C56	C	-0.272016	-0.538673	0.443000
C57	C	-0.772017	-0.925569	-0.170040
C58	C	-0.272017	-0.425569	0.329960
C59	C	-0.695373	-0.925565	-0.170038
C60	C	-0.195373	-0.425565	0.329962
C61	C	-0.657053	-0.982122	-0.113521
C62	C	-0.157053	-0.482122	0.386479
N63	N	0.189662	-0.982130	-0.113519
N64	N	0.689662	-0.482130	0.386481
C65	C	-0.000044	-1.134101	-0.107404
C66	C	0.499956	-0.634101	0.392596
C67	C	-0.000043	-1.226397	-0.109019
C68	C	0.499957	-0.726397	0.390981
C69	C	-0.000030	-0.515522	-0.190018
C70	C	0.499970	-0.015522	0.309982
C71	C	-0.000035	-0.428801	-0.188494
C72	C	0.499965	0.071199	0.311506
C73	C	-0.000042	-0.448676	-0.037006
C74	C	0.499958	0.051324	0.462994
C75	C	-0.000042	-0.535394	-0.038530
C76	C	0.499958	-0.035394	0.461470
C77	C	-0.000033	-0.568815	-0.115039
C78	C	0.499967	-0.068815	0.384961
C79	C	-0.000037	-0.395376	-0.111990
C80	C	0.499963	0.104624	0.388010
C81	C	-0.000042	-0.301350	-0.110337
C82	C	0.499958	0.198650	0.389663
C83	C	-0.000029	-0.662847	-0.116693
C84	C	0.499971	-0.162847	0.383307
C85	C	-0.000028	-0.975984	-0.265521
C86	C	0.499972	-0.475984	0.234479
C87	C	-0.000023	-0.977600	-0.357816
C88	C	0.499977	-0.477600	0.142184
C89	C	-0.000039	-1.058599	0.353059
C90	C	0.499961	-0.558599	0.853059
C91	C	-0.000033	-1.057075	0.439779
C92	C	0.499967	-0.557075	0.939779
C93	C	-0.000028	-0.905586	0.419905
C94	C	0.499972	-0.405586	0.919905
C95	C	-0.000029	-0.907111	0.333186
C96	C	0.499971	-0.407111	0.833186
C97	C	-0.000038	-0.983620	0.299766
C98	C	0.499962	-0.483620	0.799766
C99	C	-0.000031	-0.980571	0.473205
C100	C	0.499969	-0.480571	0.973205
C101	C	-0.000025	-0.978918	0.567231
C102	C	0.499975	-0.478918	1.067231
C103	C	-0.000044	-0.985273	0.205734
C104	C	0.499956	-0.485273	0.705734
H105	H	-0.196856	-1.084673	-0.010974
H106	H	0.303144	-0.584673	0.489026
H107	H	-0.000046	-0.578788	0.022530
H108	H	0.499954	-0.078788	0.522530
H109	H	-0.803213	-1.084725	-0.010979
H110	H	-0.303213	-0.584725	0.489021
O111	O	-0.000043	-1.137944	0.497263
O112	O	0.499957	-0.637944	0.997263
H113	H	-0.000057	-1.191398	0.459451
H114	H	0.499943	-0.691398	0.959451
O115	O	-0.000028	-0.826233	0.275702
O116	O	0.499972	-0.326233	0.775702
H117	H	-0.000022	-0.840149	0.209787
H118	H	0.499978	-0.340149	0.709787
H119	H	-0.335900	-1.084684	-0.010973
H120	H	0.164100	-0.584684	0.489027
H121	H	-0.664174	-0.879516	-0.216056
H122	H	-0.164174	-0.379516	0.283944
O123	O	-0.000034	-1.141114	0.317007
O124	O	0.499966	-0.641114	0.817007
H125	H	-0.000024	-1.192995	0.368638
H126	H	0.499976	-0.692995	0.868638
O127	O	-0.186735	-0.864504	-0.230977
O128	O	0.313265	-0.364504	0.269023
H129	H	-0.151836	-0.824103	-0.195960
H130	H	0.348164	-0.324103	0.304040
O131	O	-0.000034	-0.823067	0.455950
O132	O	0.499966	-0.323067	0.955950
H133	H	-0.000044	-0.834602	0.525205
H134	H	0.499956	-0.334602	1.025205
H135	H	-0.335911	-0.879481	-0.216042
H136	H	0.164089	-0.379481	0.283958
H137	H	-0.664169	-1.084724	-0.010983
H138	H	-0.164169	-0.584724	0.489017
H139	H	-0.803223	-0.879528	-0.216056
H140	H	-0.303223	-0.379528	0.283944
H141	H	-0.000028	-0.542730	-0.252317
H142	H	0.499972	-0.042730	0.247683
H143	H	-0.000054	-0.421454	0.025285
H144	H	0.499946	0.078546	0.525285
O145	O	-0.000030	-0.371318	-0.269364
O146	O	0.499970	0.128682	0.230636
H147	H	-0.000019	-0.409130	-0.322817
H148	H	0.499981	0.090870	0.177183
