data_functionalizedCrystal
_audit_creation_method	'MofGen! by Chris Wilmer'
_symmetry_space_group_name_H-M	'P1'
_symmetry_Int_Tables_number	1
_symmetry_cell_setting	triclinic
loop_
_symmetry_equiv_pos_as_xyz
  x,y,z
_cell_length_a	15.944551
_cell_length_b	10.654550
_cell_length_c	9.730223
_cell_angle_alpha	90.000193
_cell_angle_beta	90.004286
_cell_angle_gamma	96.008179
loop_
_atom_site_label
_atom_site_type_symbol
_atom_site_fract_x
_atom_site_fract_y
_atom_site_fract_z
O1	O	1.115457	-0.161961	-0.114143
O2	O	0.871023	-0.181930	-0.114177
O3	O	0.998860	0.010867	-0.114154
O4	O	0.987620	-0.354757	-0.114166
O5	O	0.998858	0.010862	0.114426
O6	O	0.871021	-0.181934	0.114403
O7	O	1.115455	-0.161966	0.114437
Zn8	Zn	0.993238	-0.171951	0.150712
Zn9	Zn	0.993240	-0.171944	-0.150452
O10	O	0.987618	-0.354762	0.114414
C11	C	0.839723	-0.181103	0.000109
C12	C	0.746463	-0.178618	0.000096
C13	C	0.998034	0.057652	0.000134
C14	C	0.995565	0.197063	0.000129
N15	N	0.993243	-0.171954	0.356249
C16	C	0.530880	-0.053173	0.000127
C17	C	0.470198	-0.111423	-0.112577
C18	C	0.575711	-0.174122	0.000112
C19	C	0.470219	-0.111456	0.112785
C20	C	0.410773	-0.169770	0.000134
C21	C	0.516257	-0.232405	-0.112684
C22	C	0.516284	-0.232421	0.112779
C23	C	0.455620	-0.290759	0.000047
C24	C	0.670728	-0.176625	0.000099
C25	C	0.315757	-0.167276	0.000138
C26	C	1.146755	-0.162792	0.000148
C27	C	1.240015	-0.165278	0.000152
C28	C	0.988444	-0.401547	0.000123
C29	C	0.990913	-0.540958	0.000119
C30	C	1.070833	0.277522	0.000144
C31	C	1.068508	0.408513	0.000134
C32	C	0.915639	0.378572	0.000100
C33	C	0.917965	0.247584	0.000101
C34	C	1.148432	0.227002	0.000172
C35	C	1.223707	0.307463	0.000188
C36	C	1.221382	0.438453	0.000178
C37	C	1.143782	0.488983	0.000152
N38	N	0.993242	-0.171931	-0.355988
C39	C	1.049864	-0.086613	0.428185
C40	C	1.049862	-0.086598	0.572068
C41	C	0.936615	-0.257276	0.572066
C42	C	0.936614	-0.257285	0.428185
C43	C	1.106493	-0.001283	0.356248
C44	C	1.163119	0.084065	0.428184
C45	C	1.163117	0.084080	0.572067
C46	C	1.106489	-0.001252	0.644014
H47	H	0.563632	0.047204	-0.000009
F48	F	0.443527	-0.044559	-0.237118
F49	F	1.306289	0.253683	0.000200
F50	F	1.141311	0.628398	0.000187
F51	F	0.413037	-0.422093	-0.000036
H52	H	0.852461	0.419724	0.000081
F53	F	1.106484	-0.001219	0.797149
H54	H	0.449836	-0.060280	0.208064
F55	F	0.876353	-0.348089	0.648640
F56	F	1.150913	0.087592	0.000187
H57	H	0.536541	-0.283521	-0.208071
F58	F	0.542986	-0.299234	0.237322
F59	F	1.301494	0.524082	0.000181
H60	H	0.856675	0.182071	0.000091
F61	F	1.106502	-0.001297	0.203116
H62	H	1.209218	0.153581	0.630636
F63	F	1.223377	0.174886	0.351613
F64	F	0.876348	-0.348113	0.351625
