data_functionalizedCrystal
_audit_creation_method	'MofGen! by Chris Wilmer'
_symmetry_space_group_name_H-M	'P1'
_symmetry_Int_Tables_number	1
_symmetry_cell_setting	triclinic
loop_
_symmetry_equiv_pos_as_xyz
  x,y,z
_cell_length_a	19.805407
_cell_length_b	12.645330
_cell_length_c	19.805399
_cell_angle_alpha	89.976872
_cell_angle_beta	89.983114
_cell_angle_gamma	90.017692
loop_
_atom_site_label
_atom_site_type_symbol
_atom_site_fract_x
_atom_site_fract_y
_atom_site_fract_z
Zn1	Zn	1.034759	-0.422049	-0.382747
Zn2	Zn	1.034696	-0.599332	-0.269571
Zn3	Zn	0.921579	-0.422083	-0.269572
Zn4	Zn	0.921554	-0.599271	-0.382717
O5	O	0.978147	-0.510684	-0.326152
O6	O	1.129467	-0.445577	-0.367746
O7	O	1.019675	-0.575859	-0.174854
O8	O	0.936629	-0.273731	-0.284598
O9	O	1.129421	-0.575826	-0.284596
O10	O	1.019782	-0.273706	-0.367747
O11	O	0.936568	-0.445635	-0.174855
O12	O	0.826859	-0.445576	-0.284569
O13	O	0.936587	-0.575723	-0.477438
O14	O	0.826841	-0.575755	-0.367696
O15	O	1.019758	-0.445519	-0.477460
O16	O	1.019651	-0.747671	-0.284567
O17	O	0.936526	-0.747626	-0.367695
C18	C	0.802291	-0.510663	-0.326130
C19	C	0.727059	-0.510680	-0.326137
C20	C	0.691723	-0.578567	-0.369351
C21	C	0.621035	-0.578569	-0.369361
C22	C	0.585683	-0.510689	-0.326152
C23	C	0.621024	-0.442795	-0.282935
C24	C	0.691711	-0.442788	-0.282930
C25	C	0.335951	-0.442818	-0.282958
C26	C	0.265259	-0.442832	-0.282965
C27	C	0.265274	-0.578598	-0.369388
C28	C	0.335961	-0.578592	-0.369383
C29	C	0.371296	-0.510695	-0.326169
C30	C	0.447944	-0.510692	-0.326160
C31	C	0.509036	-0.510696	-0.326157
C32	C	0.978098	-0.786113	-0.326142
C33	C	0.978138	-0.903943	-0.326161
C34	C	0.926060	-1.071524	-0.378618
C35	C	0.925794	-0.948964	-0.378450
C36	C	0.958835	-0.948534	-0.254828
C37	C	0.958518	-1.071133	-0.255147
C38	C	1.049838	-1.071034	-0.344457
C39	C	1.049399	-0.948427	-0.346017
C40	C	1.154690	-0.510705	-0.326174
C41	C	1.229922	-0.510714	-0.326184
C42	C	0.978177	-0.510610	-0.502695
C43	C	0.978189	-0.510579	-0.577927
C44	C	0.978215	-0.234178	-0.326176
C45	C	0.978244	-0.116348	-0.326186
C46	C	0.934928	-0.442765	-0.613271
C47	C	0.934937	-0.442744	-0.683959
C48	C	0.978212	-0.510533	-0.719302
C49	C	1.021475	-0.578355	-0.683953
C50	C	1.021462	-0.578380	-0.613266
C51	C	1.021529	-0.578255	-0.969027
C52	C	1.021540	-0.578223	-1.039719
C53	C	0.935004	-0.442620	-1.039720
C54	C	0.934991	-0.442645	-0.969033
C55	C	0.978251	-0.510470	-0.933690
C56	C	0.978240	-0.510493	-0.857041
C57	C	0.978227	-0.510505	-0.795949
C58	C	0.978156	-0.510680	-0.150296
C59	C	0.978275	-0.510413	-0.075064
H60	H	0.364712	-0.387540	-0.247765
O61	O	1.068205	-0.651359	-1.077843
H62	H	1.098277	-0.698540	-1.041392
H63	H	1.090325	-0.917775	-0.310610
H64	H	0.994877	-1.100788	-0.214749
H65	H	0.899755	-0.387440	-0.940260
H66	H	0.899707	-0.387527	-0.712733
H67	H	0.899777	-0.387396	-1.068504
O68	O	1.068203	-0.651379	-0.930910
H69	H	1.098305	-0.698494	-0.967364
H70	H	0.364741	-0.633871	-0.404566
O71	O	0.582925	-0.651792	-0.415972
H72	H	0.527833	-0.640385	-0.408725
H73	H	0.592235	-0.387521	-0.247757
O74	O	0.227165	-0.651823	-0.416009
H75	H	0.172072	-0.640418	-0.408763
H76	H	1.056707	-0.633555	-0.712735
H77	H	1.088716	-1.100020	-0.306269
O78	O	1.068128	-0.651511	-0.575139
H79	H	1.098229	-0.698636	-0.611590
H80	H	0.899692	-0.387557	-0.584499
H81	H	0.720501	-0.633846	-0.404534
H82	H	0.236478	-0.387549	-0.247779
H83	H	1.063956	-0.919279	-0.398514
H84	H	0.720481	-0.387502	-0.247744
H85	H	0.937870	-0.918813	-0.431342
H86	H	0.873315	-1.102424	-0.366668
O87	O	0.941658	-1.110994	-0.448851
H88	H	0.986802	-1.162916	-0.447150
H89	H	0.872717	-0.919729	-0.366345
H90	H	0.906182	-1.099823	-0.239669
O91	O	0.890233	-0.907996	-0.233949
H92	H	0.851908	-0.933887	-0.271334
H93	H	0.995639	-0.919374	-0.214695
H94	H	1.067448	-1.101880	-0.395589
