data_functionalizedCrystal
_audit_creation_method	'MofGen! by Chris Wilmer'
_symmetry_space_group_name_H-M	'P1'
_symmetry_Int_Tables_number	1
_symmetry_cell_setting	triclinic
loop_
_symmetry_equiv_pos_as_xyz
  x,y,z
_cell_length_a	19.188933
_cell_length_b	19.288865
_cell_length_c	18.366186
_cell_angle_alpha	90.011479
_cell_angle_beta	89.992367
_cell_angle_gamma	96.859092
loop_
_atom_site_label
_atom_site_type_symbol
_atom_site_fract_x
_atom_site_fract_y
_atom_site_fract_z
O1	O	0.926142	-0.086724	-0.060534
O2	O	1.426142	0.413276	0.439466
O3	O	0.722830	-0.098396	-0.060542
O4	O	1.222830	0.401604	0.439458
O5	O	0.830361	0.008570	-0.060523
O6	O	1.330361	0.508570	0.439477
O7	O	0.818611	-0.193690	-0.060552
O8	O	1.318611	0.306310	0.439448
O9	O	0.830342	0.008575	0.060576
O10	O	1.330342	0.508575	0.560576
O11	O	0.722812	-0.098391	0.060558
O12	O	1.222812	0.401609	0.560558
O13	O	0.926124	-0.086719	0.060566
O14	O	1.426124	0.413281	0.560566
Zn15	Zn	0.824465	-0.092554	0.079789
Zn16	Zn	1.324465	0.407446	0.579789
Zn17	Zn	0.824489	-0.092561	-0.079765
Zn18	Zn	1.324489	0.407439	0.420235
O19	O	0.818593	-0.193685	0.060547
O20	O	1.318593	0.306315	0.560547
C21	C	0.696810	-0.098015	0.000007
C22	C	1.196810	0.401985	0.500007
C23	C	0.619305	-0.096880	0.000005
C24	C	1.119305	0.403120	0.500005
C25	C	0.066061	-0.088780	-0.065997
C26	C	0.566061	0.411220	0.434003
C27	C	0.138885	-0.089842	-0.066000
C28	C	0.638885	0.410158	0.434000
C29	C	0.175292	-0.090374	0.000011
C30	C	0.675292	0.409626	0.500011
C31	C	0.138871	-0.089825	0.066029
C32	C	0.638871	0.410175	0.566029
C33	C	0.066049	-0.088756	0.066031
C34	C	0.566049	0.411244	0.566031
N35	N	0.284301	-0.131576	0.049140
N36	N	0.784301	0.368424	0.549140
N37	N	0.353479	-0.132594	0.049134
N38	N	0.853479	0.367406	0.549134
C39	C	0.394700	-0.093595	0.000011
C40	C	0.894700	0.406405	0.500011
N41	N	0.364130	-0.053549	-0.049117
N42	N	0.864130	0.446451	0.450883
N43	N	0.294945	-0.052535	-0.049113
N44	N	0.794945	0.447465	0.450887
C45	C	0.254255	-0.091534	0.000017
C46	C	0.754255	0.408466	0.500017
C47	C	0.510077	-0.095291	-0.066006
C48	C	1.010077	0.404709	0.433994
C49	C	0.582903	-0.096350	-0.066007
C50	C	1.082903	0.403650	0.433993
C51	C	0.582887	-0.096339	0.066025
C52	C	1.082887	0.403661	0.566025
C53	C	0.510063	-0.095274	0.066023
C54	C	1.010063	0.404726	0.566023
C55	C	0.473662	-0.094754	0.000006
C56	C	0.973662	0.405246	0.500006
C57	C	0.829973	0.034449	0.000029
C58	C	1.329973	0.534449	0.500029
C59	C	0.828839	0.111552	0.000035
C60	C	1.328839	0.611552	0.500035
C61	C	0.952144	-0.087100	0.000015
C62	C	1.452144	0.412900	0.500015
C63	C	1.029648	-0.088235	0.000013
C64	C	1.529648	0.411765	0.500013
C65	C	0.818980	-0.219564	-0.000006
C66	C	1.318980	0.280436	0.499994
C67	C	0.820115	-0.296668	-0.000018
C68	C	1.320115	0.203332	0.499982
N69	N	0.824453	-0.092549	0.188680
N70	N	1.324453	0.407451	0.688680
C71	C	0.891933	0.156244	0.000041
C72	C	1.391933	0.656244	0.500041
C73	C	0.890867	0.228691	0.000030
C74	C	1.390867	0.728691	0.500030
C75	C	0.826703	0.256443	0.000027
C76	C	1.326703	0.756443	0.500027
C77	C	0.763600	0.211742	0.000017
C78	C	1.263600	0.711742	0.500017
C79	C	0.764668	0.139297	0.000021
C80	C	1.264668	0.639297	0.500021
C81	C	0.776256	0.364737	0.042443
C82	C	1.276256	0.864737	0.542443
C83	C	0.775190	0.437181	0.042443
C84	C	1.275190	0.937181	0.542443
C85	C	0.823406	0.479889	0.000010
C86	C	1.323406	0.979889	0.500010
C87	C	0.872699	0.450145	-0.042414
C88	C	1.372699	0.950145	0.457586
C89	C	0.873767	0.377700	-0.042409
C90	C	1.373767	0.877700	0.457591
C91	C	0.825537	0.334998	0.000022
C92	C	1.325537	0.834998	0.500022
C93	C	0.885348	0.603137	0.000003
C94	C	1.385348	1.103137	0.500003
C95	C	0.884279	0.675585	-0.000013
C96	C	1.384279	1.175585	0.499987
C97	C	0.757011	0.658635	-0.000019
C98	C	1.257011	1.158635	0.499981
C99	C	0.758082	0.586188	-0.000010
C100	C	1.258082	1.086188	0.499990
C101	C	0.822252	0.558444	0.000004
C102	C	1.322252	1.058444	0.500004
N103	N	0.824506	-0.092561	-0.188656
N104	N	1.324506	0.407439	0.311344
C105	C	0.872084	-0.045208	0.226789
C106	C	1.372084	0.454792	0.726789
C107	C	0.872088	-0.045205	0.303016
C108	C	1.372088	0.454795	0.803016
C109	C	0.824469	-0.092555	0.341133
C110	C	1.324469	0.407445	0.841133
C111	C	0.776830	-0.139900	0.303015
C112	C	1.276830	0.360100	0.803015
C113	C	0.776822	-0.139897	0.226789
C114	C	1.276822	0.360103	0.726789
C115	C	0.815122	-0.155842	0.461884
C116	C	1.315122	0.344158	0.961884
C117	C	0.815135	-0.155846	0.538109
C118	C	1.315135	0.344154	1.038109
C119	C	0.824489	-0.092563	0.576240
C120	C	1.324489	0.407437	1.076240
C121	C	0.833845	-0.029275	0.538138
C122	C	1.333845	0.470725	1.038138
C123	C	0.833837	-0.029272	0.461911
C124	C	1.333837	0.470728	0.961911
C125	C	0.824472	-0.092563	0.423787
C126	C	1.324472	0.407437	0.923787
C127	C	0.872126	-0.045215	0.697004
C128	C	1.372126	0.454785	1.197004
C129	C	0.872126	-0.045211	0.773233
C130	C	1.372126	0.454789	1.273233
C131	C	0.776871	-0.139912	0.773230
C132	C	1.276871	0.360088	1.273230
C133	C	0.776868	-0.139910	0.697002
C134	C	1.276868	0.360090	1.197002
C135	C	0.824500	-0.092562	0.658894
C136	C	1.324500	0.407438	1.158894
H137	H	0.168537	-0.090290	-0.119755
H138	H	0.668537	0.409710	0.380245
H139	H	0.944185	0.133659	0.000050
H140	H	1.444185	0.633659	0.500050
H141	H	0.480416	-0.094833	0.119776
H142	H	0.980416	0.405167	0.619776
H143	H	0.910910	-0.006656	0.804262
H144	H	1.410910	0.493344	1.304262
H145	H	0.036428	-0.088353	-0.119754
H146	H	0.536428	0.411647	0.380246
H147	H	0.738035	-0.178448	0.195760
H148	H	1.238035	0.321552	0.695760
H149	H	0.704768	0.681230	-0.000025
H150	H	1.204768	1.181230	0.499975
Br151	Br	0.672449	0.525532	-0.000018
Br152	Br	1.172449	1.025532	0.499982
H153	H	0.612550	-0.096788	-0.119762
H154	H	1.112550	0.403212	0.380238
H155	H	0.168518	-0.090257	0.119776
H156	H	0.668518	0.409743	0.619776
H157	H	0.036402	-0.088315	0.119786
H158	H	0.536402	0.411685	0.619786
Br159	Br	0.938140	0.508097	-0.100005
Br160	Br	1.438140	1.008097	0.399995
H161	H	0.937600	0.580546	0.000011
H162	H	1.437600	1.080546	0.500011
H163	H	0.807493	-0.207377	0.430843
H164	H	1.307493	0.292623	0.930843
H165	H	0.480438	-0.094865	-0.119762
H166	H	0.980438	0.405135	0.380238
Br167	Br	0.632291	-0.097046	0.155613
Br168	Br	1.132291	0.402954	0.655613
Br169	Br	0.712227	-0.204164	0.645277
Br170	Br	1.212227	0.295836	1.145277
Br171	Br	0.846549	0.056615	0.589877
Br172	Br	1.346549	0.556615	1.089877
H173	H	0.910909	-0.006659	0.665975
H174	H	1.410909	0.493341	1.165975
Br175	Br	0.969915	0.736240	-0.000013
Br176	Br	1.469915	1.236240	0.499987
Br177	Br	0.708299	0.477542	0.100023
Br178	Br	1.208299	0.977542	0.600023
H179	H	0.736991	0.329969	0.077001
H180	H	1.236991	0.829969	0.577001
Br181	Br	0.976500	0.289355	0.000035
Br182	Br	1.476500	0.789355	0.500035
H183	H	0.807521	-0.207379	0.569126
H184	H	1.307521	0.292621	1.069126
Br185	Br	0.940657	0.337334	-0.099985
Br186	Br	1.440657	0.837334	0.400015
Br187	Br	0.676520	0.249405	0.000003
Br188	Br	1.176520	0.749405	0.500003
Br189	Br	0.679033	0.078640	0.000011
Br190	Br	1.179033	0.578640	0.500011
H191	H	0.738096	-0.178463	0.804264
H192	H	1.238096	0.321537	1.304264
Br193	Br	0.712198	-0.204157	0.354741
Br194	Br	1.212198	0.295843	0.854741
Br195	Br	0.936722	0.019050	0.175069
Br196	Br	1.436722	0.519050	0.675069
Br197	Br	0.936734	0.019051	0.354745
Br198	Br	1.436734	0.519051	0.854745
H199	H	0.841453	0.022260	0.430891
H200	H	1.341453	0.522260	0.930891
