data_functionalizedCrystal
_audit_creation_method	'MofGen! by Chris Wilmer'
_symmetry_space_group_name_H-M	'P1'
_symmetry_Int_Tables_number	1
_symmetry_cell_setting	triclinic
loop_
_symmetry_equiv_pos_as_xyz
  x,y,z
_cell_length_a	14.044191
_cell_length_b	13.101039
_cell_length_c	14.044220
_cell_angle_alpha	93.667477
_cell_angle_beta	86.809673
_cell_angle_gamma	93.662449
loop_
_atom_site_label
_atom_site_type_symbol
_atom_site_fract_x
_atom_site_fract_y
_atom_site_fract_z
O1	O	1.281976	0.085169	-0.225377
O2	O	1.531976	0.335169	0.024623
O3	O	1.781976	0.585169	0.274623
O4	O	2.031976	0.835169	0.524623
O5	O	1.005305	0.085182	-0.217064
O6	O	1.255305	0.335182	0.032936
O7	O	1.505305	0.585182	0.282936
O8	O	1.755305	0.835182	0.532936
O9	O	1.139487	0.085166	-0.082885
O10	O	1.389487	0.335166	0.167115
O11	O	1.639487	0.585166	0.417115
O12	O	1.889487	0.835166	0.667115
O13	O	1.147794	0.085186	-0.359556
O14	O	1.397794	0.335186	-0.109556
O15	O	1.647794	0.585186	0.140444
O16	O	1.897794	0.835186	0.390444
O17	O	1.129861	-0.085263	-0.092530
O18	O	1.379861	0.164737	0.157470
O19	O	1.629861	0.414737	0.407470
O20	O	1.879861	0.664737	0.657470
O21	O	0.995679	-0.085247	-0.226708
O22	O	1.245679	0.164753	0.023292
O23	O	1.495679	0.414753	0.273292
O24	O	1.745679	0.664753	0.523292
O25	O	1.272350	-0.085259	-0.235022
O26	O	1.522350	0.164741	0.014978
O27	O	1.772350	0.414741	0.264978
O28	O	2.022350	0.664741	0.514978
Zn29	Zn	1.132486	-0.112312	-0.232396
Zn30	Zn	1.382486	0.137688	0.017604
Zn31	Zn	1.632486	0.387688	0.267604
Zn32	Zn	1.882486	0.637688	0.517604
Zn33	Zn	1.145169	0.112235	-0.219689
Zn34	Zn	1.395169	0.362235	0.030311
Zn35	Zn	1.645169	0.612235	0.280311
Zn36	Zn	1.895169	0.862235	0.530311
O37	O	1.138168	-0.085243	-0.369200
O38	O	1.388168	0.164757	-0.119200
O39	O	1.638168	0.414757	0.130800
O40	O	1.888168	0.664757	0.380800
C41	C	0.964870	-0.000031	-0.218250
C42	C	1.214870	0.249969	0.031750
C43	C	1.464870	0.499969	0.281750
C44	C	1.714870	0.749969	0.531750
C45	C	0.858727	-0.000026	-0.207402
C46	C	1.108727	0.249974	0.042598
C47	C	1.358727	0.499974	0.292598
C48	C	1.608727	0.749974	0.542598
C49	C	0.613268	-0.000032	-0.264503
C50	C	0.863268	0.249968	-0.014503
C51	C	1.113268	0.499968	0.235497
C52	C	1.363268	0.749968	0.485497
C53	C	0.664393	-0.000036	-0.187587
C54	C	0.914393	0.249964	0.062413
C55	C	1.164393	0.499964	0.312413
C56	C	1.414393	0.749964	0.562413
C57	C	0.772531	-0.000031	-0.198615
C58	C	1.022531	0.249969	0.051385
C59	C	1.272531	0.499969	0.301385
C60	C	1.522531	0.749969	0.551385
C61	C	0.505121	-0.000038	-0.253476
C62	C	0.755121	0.249962	-0.003476
C63	C	1.005121	0.499962	0.246524
C64	C	1.255121	0.749962	0.496524
N65	N	1.123838	-0.265560	-0.241069
N66	N	1.373838	-0.015560	0.008931
N67	N	1.623838	0.234440	0.258931
N68	N	1.873838	0.484440	0.508931
C69	C	1.112072	-0.474601	-0.252876
C70	C	1.362072	-0.224601	-0.002876
C71	C	1.612072	0.025399	0.247124
C72	C	1.862072	0.275399	0.497124
C73	C	1.165588	-0.525483	-0.199205
C74	C	1.415588	-0.275483	0.050795
C75	C	1.665588	-0.025483	0.300795
C76	C	1.915588	0.224517	0.550795
C77	C	1.159041	-0.641801	-0.205775
C78	C	1.409041	-0.391801	0.044225
C79	C	1.659041	-0.141801	0.294225
C80	C	1.909041	0.108199	0.544225
C81	C	1.118617	-0.358273	-0.246308
C82	C	1.368617	-0.108273	0.003692
C83	C	1.618617	0.141727	0.253692
C84	C	1.868617	0.391727	0.503692
C85	C	1.312785	-0.000044	-0.233836
C86	C	1.562785	0.249956	0.016164
C87	C	1.812785	0.499956	0.266164
C88	C	2.062785	0.749956	0.516164
C89	C	1.418929	-0.000042	-0.244683
C90	C	1.668929	0.249958	0.005317
C91	C	1.918929	0.499958	0.255317
C92	C	2.168929	0.749958	0.505317
C93	C	1.131038	-0.000049	-0.052086
C94	C	1.381038	0.249951	0.197914
C95	C	1.631038	0.499951	0.447914
C96	C	1.881038	0.749951	0.697914
C97	C	1.120194	-0.000050	0.054057
C98	C	1.370194	0.249950	0.304057
C99	C	1.620194	0.499950	0.554057
C100	C	1.870194	0.749950	0.804057
N101	N	1.153824	0.265482	-0.211010
N102	N	1.403824	0.515482	0.038990
N103	N	1.653824	0.765482	0.288990
N104	N	1.903824	1.015482	0.538990
C105	C	1.146617	-0.000026	-0.400000
C106	C	1.396617	0.249974	-0.150000
C107	C	1.646617	0.499974	0.100000
C108	C	1.896617	0.749974	0.350000
C109	C	1.157462	-0.000019	-0.506143
C110	C	1.407462	0.249981	-0.256143
C111	C	1.657462	0.499981	-0.006143
C112	C	1.907462	0.749981	0.243857
C113	C	1.100368	-0.000034	0.248396
C114	C	1.350368	0.249966	0.498396
C115	C	1.600368	0.499966	0.748396
C116	C	1.850368	0.749966	0.998396
C117	C	1.177283	-0.000034	0.299524
C118	C	1.427283	0.249966	0.549524
C119	C	1.677283	0.499966	0.799524
C120	C	1.927283	0.749966	1.049524
C121	C	1.166252	-0.000026	0.407661
C122	C	1.416252	0.249974	0.657661
C123	C	1.666252	0.499974	0.907661
C124	C	1.916252	0.749974	1.157661
C125	C	1.111398	-0.000043	0.140250
C126	C	1.361398	0.249957	0.390250
C127	C	1.611398	0.499957	0.640250
C128	C	1.861398	0.749957	0.890250
H129	H	0.650710	-0.000024	-0.338629
H130	H	0.900710	0.249976	-0.088629
H131	H	1.150710	0.499976	0.161371
H132	H	1.400710	0.749976	0.411371
H133	H	0.626954	0.000031	-0.113451
H134	H	0.876954	0.250031	0.136549
H135	H	1.126954	0.500031	0.386549
H136	H	1.376954	0.750031	0.636549
H137	H	1.061342	-0.518392	-0.303757
H138	H	1.311342	-0.268392	-0.053757
H139	H	1.561342	-0.018392	0.196243
H140	H	1.811342	0.231608	0.446243
H141	H	1.216322	-0.481687	-0.148323
H142	H	1.466322	-0.231687	0.101677
H143	H	1.716322	0.018313	0.351677
H144	H	1.966322	0.268313	0.601677
H145	H	1.251420	0.000031	0.262087
H146	H	1.501420	0.250031	0.512087
H147	H	1.751420	0.500031	0.762087
H148	H	2.001420	0.750031	1.012087
H149	H	1.026241	-0.000028	0.285836
H150	H	1.276241	0.249972	0.535836
H151	H	1.526241	0.499972	0.785836
H152	H	1.776241	0.749972	1.035836
