data_functionalizedCrystal
_audit_creation_method	'MofGen! by Chris Wilmer'
_symmetry_space_group_name_H-M	'P1'
_symmetry_Int_Tables_number	1
_symmetry_cell_setting	triclinic
loop_
_symmetry_equiv_pos_as_xyz
  x,y,z
_cell_length_a	18.050591
_cell_length_b	18.050589
_cell_length_c	17.640968
_cell_angle_alpha	78.773118
_cell_angle_beta	78.769792
_cell_angle_gamma	90.024669
loop_
_atom_site_label
_atom_site_type_symbol
_atom_site_fract_x
_atom_site_fract_y
_atom_site_fract_z
Zn1	Zn	1.220277	-0.210806	-0.447077
Zn2	Zn	1.720277	0.289194	0.052923
Zn3	Zn	1.195063	-0.360110	-0.314901
Zn4	Zn	1.695063	0.139890	0.185099
Zn5	Zn	1.070970	-0.235932	-0.314894
Zn6	Zn	1.570970	0.264068	0.185106
Zn7	Zn	1.096036	-0.334959	-0.447032
Zn8	Zn	1.596036	0.165041	0.052968
O9	O	1.145586	-0.285452	-0.380976
O10	O	1.645586	0.214548	0.119024
O11	O	1.320861	-0.230621	-0.429565
O12	O	1.820861	0.269379	0.070435
O13	O	1.157559	-0.364679	-0.204283
O14	O	1.657559	0.135321	0.295717
O15	O	1.090838	-0.128671	-0.332445
O16	O	1.590838	0.371329	0.167555
O17	O	1.302336	-0.340315	-0.332456
O18	O	1.802336	0.159685	0.167544
O19	O	1.200534	-0.110211	-0.429559
O20	O	1.700534	0.389789	0.070441
O21	O	1.066388	-0.273446	-0.204279
O22	O	1.566388	0.226554	0.295721
O23	O	0.970366	-0.249058	-0.332401
O24	O	1.470366	0.250942	0.167599
O25	O	1.133560	-0.297449	-0.557655
O26	O	1.633560	0.202551	-0.057655
O27	O	0.988782	-0.321813	-0.429482
O28	O	1.488782	0.178187	0.070518
O29	O	1.224839	-0.206233	-0.557688
O30	O	1.724839	0.293767	-0.057688
O31	O	1.181864	-0.460702	-0.332412
O32	O	1.681864	0.039298	0.167588
O33	O	1.109110	-0.442223	-0.429488
O34	O	1.609110	0.057777	0.070512
C35	C	0.952627	-0.285433	-0.380937
C36	C	1.452627	0.214567	0.119063
C37	C	0.870081	-0.285440	-0.380938
C38	C	1.370081	0.214560	0.119062
C39	C	0.611243	-0.245800	-0.328271
C40	C	1.111243	0.254200	0.171729
C41	C	0.674388	-0.214009	-0.400410
C42	C	1.174388	0.285991	0.099590
C43	C	0.572973	-0.285465	-0.381003
C44	C	1.072973	0.214535	0.118997
C45	C	0.656905	-0.317208	-0.308837
C46	C	1.156905	0.182792	0.191163
C47	C	0.718952	-0.285451	-0.380968
C48	C	1.218952	0.214549	0.119032
C49	C	0.635038	-0.253631	-0.453180
C50	C	1.135038	0.246369	0.046820
C51	C	0.617541	-0.356872	-0.361559
C52	C	1.117541	0.143128	0.138441
C53	C	0.680673	-0.325096	-0.433747
C54	C	1.180673	0.174904	0.066253
C55	C	0.488879	-0.285471	-0.381023
C56	C	0.988879	0.214529	0.118977
C57	C	0.803046	-0.285444	-0.380956
C58	C	1.303046	0.214556	0.119044
C59	C	1.145494	-0.478406	-0.380963
C60	C	1.645494	0.021594	0.119037
C61	C	1.145528	-0.560948	-0.380984
C62	C	1.645528	-0.060948	0.119016
C63	C	1.106009	-0.750381	-0.433756
C64	C	1.606009	-0.250381	0.066244
C65	C	1.074200	-0.813523	-0.361623
C66	C	1.574200	-0.313523	0.138377
C67	C	1.145603	-0.712077	-0.380994
C68	C	1.645603	-0.212077	0.119006
C69	C	1.177450	-0.796014	-0.453135
C70	C	1.677450	-0.296014	0.046865
C71	C	1.145675	-0.858059	-0.381010
C72	C	1.645675	-0.358059	0.118990
C73	C	1.113750	-0.774139	-0.308823
C74	C	1.613750	-0.274139	0.191177
C75	C	1.217042	-0.756617	-0.400384
C76	C	1.717042	-0.256617	0.099616
C77	C	1.185249	-0.819746	-0.328202
C78	C	1.685249	-0.319746	0.171798
C79	C	1.145560	-0.627980	-0.380986
C80	C	1.645560	-0.127980	0.119014
C81	C	1.145717	-0.942155	-0.381011
C82	C	1.645717	-0.442155	0.118989
C83	C	1.339300	-0.285471	-0.381016
C84	C	1.839300	0.214529	0.118984
C85	C	1.421849	-0.285479	-0.381033
C86	C	1.921849	0.214521	0.118967
C87	C	1.184808	-0.246233	-0.587155
C88	C	1.684808	0.253767	-0.087155
C89	C	1.201522	-0.229520	-0.675016
C90	C	1.701522	0.270480	-0.175016
C91	C	1.145703	-0.091740	-0.381007
C92	C	1.645703	0.408260	0.118993
C93	C	1.145752	-0.009192	-0.381020
C94	C	1.645752	0.490808	0.118980
C95	C	1.018898	-0.412014	-0.963893
C96	C	1.518898	0.087986	-0.463893
C97	C	1.034619	-0.396300	-1.046452
C98	C	1.534619	0.103700	-0.546452
C99	C	1.129660	-0.301326	-1.046476
C100	C	1.629660	0.198674	-0.546476
C101	C	1.113945	-0.317029	-0.963916
C102	C	1.613945	0.182971	-0.463916
C103	C	1.058563	-0.372374	-0.922631
C104	C	1.558563	0.127626	-0.422631
C105	C	1.153610	-0.277390	-0.922653
C106	C	1.653610	0.222610	-0.422653
C107	C	1.137899	-0.293095	-0.840100
C108	C	1.637899	0.206905	-0.340100
C109	C	1.082521	-0.348439	-0.798809
C110	C	1.582521	0.151561	-0.298809
C111	C	1.042852	-0.388079	-0.840078
C112	C	1.542852	0.111921	-0.340078
C113	C	1.208995	-0.222048	-0.963940
C114	C	1.708995	0.277952	-0.463940
C115	C	1.248661	-0.182409	-0.922677
C116	C	1.748661	0.317591	-0.422677
C117	C	1.232945	-0.198110	-0.840123
C118	C	1.732945	0.301890	-0.340123
C119	C	1.177568	-0.253454	-0.798832
C120	C	1.677568	0.246546	-0.298832
C121	C	1.272615	-0.158469	-0.798854
C122	C	1.772615	0.341531	-0.298854
C123	C	1.256903	-0.174174	-0.716301
C124	C	1.756903	0.325826	-0.216301
C125	C	1.161856	-0.269159	-0.716278
C126	C	1.661856	0.230841	-0.216278
C127	C	1.106560	-0.324465	-0.175600
C128	C	1.606560	0.175535	0.324400
C129	C	1.089990	-0.340968	-0.087739
C130	C	1.589990	0.159032	0.412261
H131	H	0.581100	-0.212221	-0.283747
H132	H	1.081100	0.287779	0.216253
Br133	Br	0.967682	-0.463183	-0.784040
Br134	Br	1.467682	0.036817	-0.284040
Br135	Br	1.086686	-0.344263	-0.660241
Br136	Br	1.586686	0.155737	-0.160241
Br137	Br	1.222294	-0.812793	-0.554807
Br138	Br	1.722294	-0.312793	-0.054807
Br139	Br	0.715800	-0.113345	-0.427815
Br140	Br	1.215800	0.386655	0.072185
H141	H	1.289202	-0.141895	-0.682704
H142	H	1.789202	0.358105	-0.182704
Br143	Br	0.943728	-0.487117	-0.907856
Br144	Br	1.443728	0.012883	-0.407856
Br145	Br	0.618433	-0.208758	-0.554908
Br146	Br	1.118433	0.291242	-0.054908
H147	H	1.072453	-0.720263	-0.478311
H148	H	1.572453	-0.220263	0.021689
H149	H	1.013821	-0.838414	-0.345238
H150	H	1.513821	-0.338414	0.154762
Br151	Br	1.068792	-0.757528	-0.207118
Br152	Br	1.568792	-0.257528	0.292882
Br153	Br	1.347783	-0.083372	-0.854893
Br154	Br	1.847783	0.416628	-0.354893
H155	H	1.174754	-0.256266	-1.080102
H156	H	1.674754	0.243734	-0.580102
Br157	Br	1.230323	-0.200738	-1.075978
Br158	Br	1.730323	0.299262	-0.575978
Br159	Br	0.730722	-0.380983	-0.508129
Br160	Br	1.230722	0.119017	-0.008129
H161	H	0.592671	-0.417254	-0.345101
H162	H	1.092671	0.082746	0.154899
Br163	Br	1.323822	-0.107304	-0.978714
Br164	Br	1.823822	0.392696	-0.478714
H165	H	1.002314	-0.428584	-1.080045
H166	H	1.502314	0.071416	-0.580045
H167	H	1.277414	-0.731721	-0.416804
H168	H	1.777414	-0.231721	0.083196
Br169	Br	0.673678	-0.361965	-0.207142
Br170	Br	1.173678	0.138035	0.292858
H171	H	1.069733	-0.361228	-0.731589
H172	H	1.569733	0.138772	-0.231589
Br173	Br	1.241096	-0.869750	-0.253766
Br174	Br	1.741096	-0.369750	0.246234
