data_functionalizedCrystal
_audit_creation_method	'MofGen! by Chris Wilmer'
_symmetry_space_group_name_H-M	'P1'
_symmetry_Int_Tables_number	1
_symmetry_cell_setting	triclinic
loop_
_symmetry_equiv_pos_as_xyz
  x,y,z
_cell_length_a	17.699097
_cell_length_b	23.532357
_cell_length_c	16.176319
_cell_angle_alpha	89.987656
_cell_angle_beta	89.988988
_cell_angle_gamma	83.058361
loop_
_atom_site_label
_atom_site_type_symbol
_atom_site_fract_x
_atom_site_fract_y
_atom_site_fract_z
O1	O	1.003690	0.072058	-0.068825
O2	O	1.503690	0.572058	0.431175
O3	O	0.783263	0.081420	-0.068813
O4	O	1.283263	0.581420	0.431187
O5	O	0.900143	-0.006176	-0.068803
O6	O	1.400143	0.493824	0.431197
O7	O	0.886810	0.159653	-0.068836
O8	O	1.386810	0.659653	0.431164
O9	O	0.900127	-0.006181	0.068691
O10	O	1.400127	0.493819	0.568691
O11	O	0.783247	0.081414	0.068680
O12	O	1.283247	0.581414	0.568680
O13	O	1.003674	0.072052	0.068668
O14	O	1.503674	0.572052	0.568668
Cu15	Cu	0.893459	0.076733	0.081228
Cu16	Cu	1.393459	0.576733	0.581228
Cu17	Cu	0.893478	0.076739	-0.081373
Cu18	Cu	1.393478	0.576739	0.418627
O19	O	0.886794	0.159648	0.068657
O20	O	1.386794	0.659648	0.568657
C21	C	0.755060	0.081080	-0.000065
C22	C	1.255060	0.581080	0.499935
C23	C	0.671048	0.080070	-0.000059
C24	C	1.171048	0.580070	0.499941
C25	C	0.155371	0.073881	-0.075039
C26	C	0.655371	0.573881	0.424961
C27	C	0.234310	0.074826	-0.075035
C28	C	0.734310	0.574826	0.424965
C29	C	0.273765	0.075297	-0.000084
C30	C	0.773765	0.575297	0.499916
C31	C	0.234278	0.074816	0.074867
C32	C	0.734278	0.574816	0.574867
C33	C	0.155341	0.073867	0.074863
C34	C	0.655341	0.573867	0.574863
C35	C	0.552621	0.078644	0.074888
C36	C	1.052621	0.578644	0.574888
C37	C	0.631563	0.079595	0.074888
C38	C	1.131563	0.579595	0.574888
C39	C	0.631591	0.079604	-0.075009
C40	C	1.131591	0.579604	0.424991
C41	C	0.552654	0.078654	-0.075014
C42	C	1.052654	0.578654	0.424986
C43	C	0.513174	0.078171	-0.000063
C44	C	1.013174	0.578171	0.499937
C45	C	0.427579	0.077144	-0.000068
C46	C	0.927579	0.577144	0.499932
C47	C	0.359357	0.076327	-0.000078
C48	C	0.859357	0.576327	0.499922
C49	C	0.899802	-0.027396	-0.000053
C50	C	1.399802	0.472604	0.499947
C51	C	0.898799	-0.090617	-0.000046
C52	C	1.398799	0.409383	0.499954
C53	C	0.892513	-0.482644	-0.075037
C54	C	1.392513	0.017356	0.424963
C55	C	0.891559	-0.542046	-0.075042
C56	C	1.391559	-0.042046	0.424958
O57	O	0.891048	-0.572761	-0.138782
O58	O	1.391048	-0.072761	0.361218
N59	N	0.891078	-0.571762	-0.000096
N60	N	1.391078	-0.071762	0.499904
C61	C	0.891542	-0.542071	0.074861
C62	C	1.391542	-0.042071	0.574861
O63	O	0.891044	-0.572801	0.138608
O64	O	1.391044	-0.072801	0.638608
C65	C	0.892490	-0.482670	0.074864
C66	C	1.392490	0.017330	0.574864
C67	C	0.892979	-0.452958	-0.000087
C68	C	1.392979	0.047042	0.499913
C69	C	0.893001	-0.452932	-0.149983
C70	C	1.393001	0.047068	0.350017
C71	C	0.893955	-0.393534	-0.149978
C72	C	1.393955	0.106466	0.350022
C73	C	0.894422	-0.363848	-0.075027
C74	C	1.394422	0.136152	0.424973
C75	C	0.893933	-0.393560	-0.000082
C76	C	1.393933	0.106440	0.499918
C77	C	0.892949	-0.452980	0.149820
C78	C	1.392949	0.047020	0.649820
C79	C	0.893896	-0.393574	0.149817
C80	C	1.393896	0.106426	0.649817
C81	C	0.894385	-0.363862	0.074866
C82	C	1.394385	0.136138	0.574866
C83	C	0.895354	-0.304476	0.074873
C84	C	1.395354	0.195524	0.574873
N85	N	0.895836	-0.274760	-0.000073
N86	N	1.395836	0.225240	0.499927
C87	C	0.895369	-0.304446	-0.075024
C88	C	1.395369	0.195554	0.424976
C89	C	0.889551	-0.666819	0.074847
C90	C	1.389551	-0.166819	0.574847
C91	C	0.888608	-0.726220	0.074844
C92	C	1.388608	-0.226220	0.574844
C93	C	0.888624	-0.726190	-0.075059
C94	C	1.388624	-0.226190	0.424941
C95	C	0.889572	-0.666789	-0.075055
C96	C	1.389572	-0.166789	0.424945
C97	C	0.890032	-0.637103	-0.000100
C98	C	1.390032	-0.137103	0.499900
C99	C	0.897375	-0.179706	-0.075008
C100	C	1.397375	0.320294	0.424992
C101	C	0.898332	-0.120303	-0.074996
C102	C	1.398332	0.379697	0.425004
C103	C	0.898312	-0.120338	0.074907
C104	C	1.398312	0.379662	0.574907
C105	C	0.897359	-0.179736	0.074895
C106	C	1.397359	0.320264	0.574895
C107	C	0.896887	-0.209418	-0.000068
C108	C	1.396887	0.290582	0.499932
O109	O	0.895863	-0.273723	0.138581
O110	O	1.395863	0.226277	0.638581
O111	O	0.895857	-0.273708	-0.138760
O112	O	1.395857	0.226292	0.361240
C113	C	1.031877	0.072392	-0.000082
C114	C	1.531877	0.572392	0.499918
C115	C	1.115889	0.073402	-0.000093
C116	C	1.615889	0.573402	0.499907
C117	C	0.887135	0.180868	-0.000094
C118	C	1.387135	0.680868	0.499906
C119	C	0.888138	0.244089	-0.000107
C120	C	1.388138	0.744089	0.499893
N121	N	0.893451	0.076728	0.195593
N122	N	1.393451	0.576728	0.695593
N123	N	0.893492	0.076740	-0.195739
N124	N	1.393492	0.576740	0.304261
C125	C	0.945221	0.037956	0.238862
C126	C	1.445221	0.537956	0.738862
C127	C	0.945225	0.037956	0.325409
C128	C	1.445225	0.537956	0.825409
C129	C	0.893462	0.076730	0.368686
C130	C	1.393462	0.576730	0.868686
C131	C	0.841686	0.115503	0.325411
C132	C	1.341686	0.615503	0.825411
C133	C	0.841680	0.115500	0.238866
C134	C	1.341680	0.615500	0.738866
C135	C	0.841712	0.115514	0.674439
C136	C	1.341712	0.615514	1.174439
C137	C	0.841725	0.115514	0.760991
C138	C	1.341725	0.615514	1.260991
C139	C	0.945258	0.037969	0.760983
C140	C	1.445258	0.537969	1.260983
C141	C	0.945251	0.037966	0.674438
C142	C	1.445251	0.537966	1.174438
C143	C	0.893473	0.076737	0.631170
C144	C	1.393473	0.576737	1.131170
C145	C	0.893469	0.076737	0.537326
C146	C	1.393469	0.576737	1.037326
C147	C	0.893469	0.076733	0.462529
C148	C	1.393469	0.576733	0.962529
H149	H	0.266454	0.075212	-0.136064
H150	H	0.766454	0.575212	0.363936
H151	H	0.799522	0.147071	0.203637
H152	H	1.299522	0.647071	0.703637
H153	H	0.892618	-0.477096	-0.211020
H154	H	1.392618	0.022904	0.288980
C155	C	0.111978	0.073362	-0.157492
C156	C	0.611978	0.573362	0.342508
N157	N	0.079297	0.072969	-0.219599
N158	N	0.579297	0.572969	0.280401
C159	C	0.674963	0.080108	0.157343
C160	C	1.174963	0.580108	0.657343
N161	N	0.707652	0.080493	0.219446
N162	N	1.207652	0.580493	0.719446
H163	H	0.799570	0.147090	0.796225
H164	H	1.299570	0.647090	1.296225
H165	H	0.799536	0.147072	0.360652
H166	H	1.299536	0.647072	0.860652
C167	C	1.002192	-0.004689	0.626838
C168	C	1.502192	0.495311	1.126838
N169	N	1.045079	-0.036821	0.590987
N170	N	1.545079	0.463179	1.090987
H171	H	0.987379	0.006385	0.360638
H172	H	1.487379	0.506385	0.860638
C173	C	0.509259	0.078133	-0.157466
C174	C	1.009259	0.578133	0.342534
N175	N	0.476575	0.077736	-0.219570
N176	N	0.976575	0.577736	0.280430
H177	H	0.889927	-0.642652	0.135888
H178	H	1.389927	-0.142652	0.635888
C179	C	0.675027	0.080128	-0.157458
C180	C	1.175027	0.580128	0.342542
N181	N	0.707742	0.080523	-0.219557
N182	N	1.207742	0.580523	0.280443
C183	C	0.784853	0.158237	0.626857
C184	C	1.284853	0.658237	1.126857
N185	N	0.742059	0.190444	0.591014
N186	N	1.242059	0.690444	1.091014
C187	C	0.509200	0.078130	0.157337
C188	C	1.009200	0.578130	0.657337
N189	N	0.476492	0.077748	0.219442
N190	N	0.976492	0.577748	0.719442
C191	C	0.277676	0.075358	0.157314
C192	C	0.777676	0.575358	0.657314
N193	N	0.310361	0.075777	0.219415
N194	N	0.810361	0.575777	0.719415
H195	H	0.987416	0.006398	0.796221
H196	H	1.487416	0.506398	1.296221
H197	H	0.896987	-0.203867	-0.136050
H198	H	1.396987	0.296133	0.363950
C199	C	0.111910	0.073342	0.157309
C200	C	0.611910	0.573342	0.657309
N201	N	0.079200	0.072946	0.219411
N202	N	0.579200	0.572946	0.719411
H203	H	0.898732	-0.096115	-0.136033
H204	H	1.398732	0.403885	0.363967
H205	H	0.894351	-0.369348	-0.211011
H206	H	1.394351	0.130652	0.288989
H207	H	0.889969	-0.642601	-0.136087
H208	H	1.389969	-0.142601	0.363913
H209	H	0.888242	-0.750371	-0.136088
H210	H	1.388242	-0.250371	0.363912
H211	H	0.888222	-0.750407	0.135877
H212	H	1.388222	-0.250407	0.635877
C213	C	0.896828	-0.212420	0.157345
C214	C	1.396828	0.287580	0.657345
N215	N	0.896421	-0.237034	0.219448
N216	N	1.396421	0.262966	0.719448
H217	H	0.892552	-0.477161	0.210853
H218	H	1.392552	0.022839	0.710853
H219	H	0.894259	-0.369406	0.210856
H220	H	1.394259	0.130594	0.710856
H221	H	0.898696	-0.096157	0.135929
H222	H	1.398696	0.403843	0.635929
H223	H	0.987375	0.006384	0.203632
H224	H	1.487375	0.506384	0.703632
