data_functionalizedCrystal
_audit_creation_method	'MofGen! by Chris Wilmer'
_symmetry_space_group_name_H-M	'P1'
_symmetry_Int_Tables_number	1
_symmetry_cell_setting	triclinic
loop_
_symmetry_equiv_pos_as_xyz
  x,y,z
_cell_length_a	18.050591
_cell_length_b	18.050589
_cell_length_c	16.120297
_cell_angle_alpha	87.124343
_cell_angle_beta	87.117317
_cell_angle_gamma	90.027061
loop_
_atom_site_label
_atom_site_type_symbol
_atom_site_fract_x
_atom_site_fract_y
_atom_site_fract_z
Zn1	Zn	1.114037	-0.316990	0.471313
Zn2	Zn	1.614037	0.183010	0.971313
Zn3	Zn	1.120235	-0.434885	0.331911
Zn4	Zn	1.620235	0.065115	0.831911
Zn5	Zn	0.996142	-0.310711	0.331926
Zn6	Zn	1.496142	0.189289	0.831926
Zn7	Zn	0.989805	-0.441139	0.471288
Zn8	Zn	1.489805	0.058861	0.971288
O9	O	1.055055	-0.375931	0.401610
O10	O	1.555055	0.124069	0.901610
O11	O	1.218784	-0.332639	0.452825
O12	O	1.718784	0.167361	0.952825
O13	O	1.109019	-0.413168	0.215249
O14	O	1.609019	0.086832	0.715249
O15	O	1.011840	-0.207620	0.350434
O16	O	1.511840	0.292380	0.850434
O17	O	1.223337	-0.419256	0.350407
O18	O	1.723337	0.080744	0.850407
O19	O	1.098456	-0.212233	0.452840
O20	O	1.598456	0.287767	0.952840
O21	O	1.017849	-0.321938	0.215261
O22	O	1.517849	0.178062	0.715261
O23	O	0.891377	-0.328003	0.350409
O24	O	1.391377	0.171997	0.850409
O25	O	1.001039	-0.429915	0.587955
O26	O	1.501039	0.070085	1.087955
O27	O	0.886722	-0.423827	0.452797
O28	O	1.386722	0.076173	0.952797
O29	O	1.092312	-0.338703	0.587974
O30	O	1.592312	0.161297	1.087974
O31	O	1.102874	-0.539638	0.350382
O32	O	1.602874	-0.039638	0.850382
O33	O	1.007049	-0.544233	0.452782
O34	O	1.507049	-0.044233	0.952782
C35	C	0.862103	-0.375913	0.401603
C36	C	1.362103	0.124087	0.901603
C37	C	0.779556	-0.375924	0.401620
C38	C	1.279556	0.124076	0.901620
C39	C	0.528224	-0.428132	0.457222
C40	C	1.028224	0.071868	0.957222
C41	C	0.581026	-0.442771	0.381129
C42	C	1.081026	0.057229	0.881129
C43	C	0.482436	-0.375947	0.401618
C44	C	0.982436	0.124053	0.901618
C45	C	0.576716	-0.361332	0.477708
C46	C	1.076716	0.138668	0.977708
C47	C	0.628421	-0.375937	0.401623
C48	C	1.128421	0.124063	0.901623
C49	C	0.534152	-0.390619	0.325484
C50	C	1.034152	0.109381	0.825484
C51	C	0.529836	-0.309151	0.422115
C52	C	1.029836	0.190849	0.922115
C53	C	0.582618	-0.323761	0.345968
C54	C	1.082618	0.176239	0.845968
C55	C	0.398338	-0.375954	0.401616
C56	C	0.898338	0.124046	0.901616
C57	C	0.712518	-0.375930	0.401616
C58	C	1.212518	0.124070	0.901616
C59	C	1.054966	-0.568883	0.401596
C60	C	1.554966	-0.068883	0.901596
C61	C	1.054994	-0.651429	0.401618
C62	C	1.554994	-0.151429	0.901618
C63	C	1.002934	-0.853405	0.457283
C64	C	1.502934	-0.353405	0.957283
C65	C	0.988267	-0.899407	0.381211
C66	C	1.488267	-0.399407	0.881211
C67	C	1.055067	-0.802560	0.401629
C68	C	1.555067	-0.302560	0.901629
C69	C	1.069770	-0.903640	0.477710
C70	C	1.569770	-0.403640	0.977710
C71	C	1.055135	-0.948546	0.401646
C72	C	1.555135	-0.448546	0.901646
C73	C	1.040366	-0.847473	0.325516
C74	C	1.540366	-0.347473	0.825516
C75	C	1.121898	-0.851705	0.422066
C76	C	1.621898	-0.351705	0.922066
C77	C	1.107259	-0.897682	0.345941
C78	C	1.607259	-0.397682	0.845941
C79	C	1.055026	-0.718462	0.401620
C80	C	1.555026	-0.218462	0.901620
C81	C	1.055177	-1.032643	0.401646
C82	C	1.555177	-0.532643	0.901646
C83	C	1.248760	-0.375950	0.401617
C84	C	1.748760	0.124050	0.901617
C85	C	1.331306	-0.375958	0.401620
C86	C	1.831306	0.124042	0.901620
C87	C	1.045277	-0.385707	0.619060
C88	C	1.545277	0.114293	1.119060
C89	C	1.041111	-0.389873	0.711724
C90	C	1.541111	0.110127	1.211724
C91	C	1.055164	-0.182227	0.401642
C92	C	1.555164	0.317773	0.901642
C93	C	1.055210	-0.099682	0.401655
C94	C	1.555210	0.400318	0.901655
C95	C	1.064837	-0.366140	0.185005
C96	C	1.564837	0.133860	0.685005
C97	C	1.069148	-0.361765	0.092342
C98	C	1.569148	0.138235	0.592342
C99	C	1.033476	-0.397462	0.881383
C100	C	1.533476	0.102538	1.381383
C101	C	1.076780	-0.354178	0.922688
C102	C	1.576780	0.145822	1.422688
C103	C	1.072532	-0.358400	1.017092
C104	C	1.572532	0.141600	1.517092
C105	C	1.037723	-0.393240	0.786970
C106	C	1.537723	0.106760	1.286970
H107	H	0.507363	-0.252684	0.439477
H108	H	1.007363	0.247316	0.939477
H109	H	0.993217	-0.437688	0.916917
H110	H	1.493217	0.062312	1.416917
H111	H	0.504426	-0.472297	0.504184
H112	H	1.004426	0.027703	1.004184
H113	H	0.515435	-0.403045	0.261120
H114	H	1.015435	0.096955	0.761120
F115	F	1.129420	-0.301608	0.876242
F116	F	1.629420	0.198392	1.376242
H117	H	0.606284	-0.279623	0.298893
H118	H	1.106284	0.220377	0.798893
F119	F	0.610381	-0.516598	0.358465
F120	F	1.110381	-0.016598	0.858465
H121	H	0.595526	-0.348973	0.542054
H122	H	1.095526	0.151027	1.042054
F123	F	0.945235	-0.827879	0.518715
F124	F	1.445235	-0.327879	1.018715
F125	F	0.914434	-0.926831	0.358617
F126	F	1.414434	-0.426831	0.858617
H127	H	1.027891	-0.823004	0.261164
H128	H	1.527891	-0.323004	0.761164
F129	F	1.164928	-0.923021	0.284365
F130	F	1.664928	-0.423021	0.784365
H131	H	1.082179	-0.928198	0.542044
H132	H	1.582179	-0.428198	1.042044
F133	F	1.195710	-0.824259	0.444687
F134	F	1.695710	-0.324259	0.944687
