data_functionalizedCrystal
_audit_creation_method	'MofGen! by Chris Wilmer'
_symmetry_space_group_name_H-M	'P1'
_symmetry_Int_Tables_number	1
_symmetry_cell_setting	triclinic
loop_
_symmetry_equiv_pos_as_xyz
  x,y,z
_cell_length_a	10.723024
_cell_length_b	23.532407
_cell_length_c	9.198806
_cell_angle_alpha	89.992171
_cell_angle_beta	89.996352
_cell_angle_gamma	83.658273
loop_
_atom_site_label
_atom_site_type_symbol
_atom_site_fract_x
_atom_site_fract_y
_atom_site_fract_z
O1	O	1.654700	0.079871	-0.120900
O2	O	1.291309	0.087516	-0.120906
O3	O	1.483962	0.000833	-0.120876
O4	O	1.462046	0.166554	-0.120930
O5	O	1.483947	0.000833	0.120909
O6	O	1.291294	0.087516	0.120879
O7	O	1.654684	0.079871	0.120885
Cu8	Cu	1.472988	0.083693	0.142959
Cu9	Cu	1.473006	0.083693	-0.142980
O10	O	1.462031	0.166554	0.120855
C11	C	1.244819	0.086960	-0.000014
C12	C	1.106317	0.085295	-0.000015
C13	C	1.029823	0.133798	-0.000032
C14	C	0.886673	0.132079	-0.000033
C15	C	1.483397	-0.020387	0.000020
C16	C	1.481719	-0.083615	0.000031
C17	C	1.585203	-0.482046	-0.000046
C18	C	1.583644	-0.541457	-0.000058
O19	O	1.679575	-0.577579	-0.000109
N20	N	1.469112	-0.564826	-0.000059
C21	C	1.356131	-0.528782	-0.000063
O22	O	1.258569	-0.554114	-0.000067
C23	C	1.357691	-0.469373	-0.000063
C24	C	1.472230	-0.446007	-0.000047
C25	C	1.699733	-0.458680	-0.000032
C26	C	1.701291	-0.399274	-0.000019
C27	C	1.588319	-0.363234	-0.000019
C28	C	1.473789	-0.386600	-0.000033
C29	C	1.244711	-0.433329	-0.000078
C30	C	1.246281	-0.373917	-0.000078
C31	C	1.360821	-0.350551	-0.000062
C32	C	1.362374	-0.291154	-0.000020
N33	N	1.476907	-0.267785	-0.000019
C34	C	1.589879	-0.303825	-0.000018
C35	C	1.352863	-0.653545	-0.000067
C36	C	1.351302	-0.712953	-0.000057
C37	C	1.578816	-0.725625	-0.000054
C38	C	1.580376	-0.666215	-0.000054
C39	C	1.467395	-0.630176	-0.000066
C40	C	1.593143	-0.179067	0.000012
C41	C	1.594691	-0.119655	0.000032
C42	C	1.367178	-0.106989	0.000021
C43	C	1.365629	-0.166396	0.000009
C44	C	1.478622	-0.202434	-0.000001
O45	O	1.266494	-0.254997	0.000026
O46	O	1.687425	-0.278484	-0.000034
C47	C	1.701174	0.080427	-0.000010
C48	C	1.839677	0.082092	-0.000018
C49	C	1.462597	0.187774	-0.000044
C50	C	1.464275	0.251001	-0.000065
N51	N	1.472984	0.083693	0.344073
N52	N	1.473019	0.083689	-0.344094
C53	C	1.553879	0.047136	0.416283
C54	C	1.553898	0.047134	0.583695
H55	H	1.070312	0.176597	-0.000038
C56	C	0.977787	0.023496	-0.124297
C57	C	1.051676	0.027514	-0.000003
H58	H	0.944065	-0.012179	-0.124292
H59	H	0.911253	0.053699	-0.124294
H60	H	1.027943	0.026232	-0.208603
H61	H	1.001518	0.024782	0.084303
H62	H	1.118219	-0.002697	0.000006
C63	C	1.819427	-0.138156	0.000022
C64	C	1.720602	-0.093972	0.000037
H65	H	1.897155	-0.122301	0.000014
H66	H	1.814083	-0.161069	0.084329
H67	H	1.814076	-0.161058	-0.084303
H68	H	1.725948	-0.071073	0.084368
H69	H	1.725949	-0.071050	-0.084279
C70	C	1.627782	-0.051185	0.369059
C71	C	1.647358	0.004898	0.332400
H72	H	1.685490	-0.077257	0.317256
H73	H	1.640087	-0.056739	0.470543
H74	H	1.544495	-0.057597	0.344213
H75	H	1.730642	0.011311	0.357256
H76	H	1.635063	0.010454	0.230893
C77	C	1.723428	-0.253210	-0.124291
C78	C	1.717346	-0.218674	0.000008
H79	H	1.800109	-0.277658	-0.124288
H80	H	1.655013	-0.275633	-0.124291
H81	H	1.719307	-0.229758	-0.208593
H82	H	1.721457	-0.242126	0.084311
H83	H	1.785779	-0.196248	0.000021
C84	C	1.770142	0.014342	0.630800
C85	C	1.647397	0.004880	0.667512
H86	H	1.827863	-0.011743	0.682555
H87	H	1.782386	0.008799	0.529305
H88	H	1.783426	0.052387	0.655668
H89	H	1.634111	-0.033164	0.642634
H90	H	1.635149	0.010419	0.769030
H91	H	1.258032	-0.731972	-0.000045
H92	H	1.794561	-0.380255	-0.000012
H93	H	0.905395	0.040567	-0.000013
H94	H	1.791734	-0.488018	-0.000037
H95	H	1.673644	-0.647195	-0.000042
H96	H	0.820947	0.173602	-0.000054
C97	C	1.222600	-0.579381	-0.124353
C98	C	1.228662	-0.613934	-0.000061
H99	H	1.145920	-0.554932	-0.124353
H100	H	1.291016	-0.556958	-0.124342
H101	H	1.226732	-0.602822	-0.208660
H102	H	1.224539	-0.590493	0.084246
H103	H	1.160227	-0.636359	-0.000059
H104	H	1.670804	-0.754979	-0.000060
C105	C	1.019990	-0.414812	-0.000124
C106	C	1.118803	-0.459002	-0.000108
H107	H	0.942256	-0.430662	-0.000154
H108	H	1.025324	-0.391913	0.084193
H109	H	1.025367	-0.391898	-0.084439
H110	H	1.113431	-0.481914	0.084213
H111	H	1.113466	-0.481911	-0.084434
H112	H	1.154276	-0.344576	-0.000090
H113	H	1.272361	-0.185421	0.000036
H114	H	1.403737	0.114986	0.406190
H115	H	1.275199	-0.077635	0.000026
C116	C	1.445562	0.161030	0.484553
C117	C	1.379517	0.125945	0.572096
H118	H	1.387836	0.187114	0.432800
H119	H	1.497330	0.181679	0.543918
H120	H	1.496298	0.138090	0.417553
H121	H	1.328789	0.148884	0.639103
H122	H	1.327728	0.105294	0.512726
