data_functionalizedCrystal
_audit_creation_method	'MofGen! by Chris Wilmer'
_symmetry_space_group_name_H-M	'P1'
_symmetry_Int_Tables_number	1
_symmetry_cell_setting	triclinic
loop_
_symmetry_equiv_pos_as_xyz
  x,y,z
_cell_length_a	19.188930
_cell_length_b	23.532407
_cell_length_c	17.666332
_cell_angle_alpha	89.988854
_cell_angle_beta	89.976766
_cell_angle_gamma	82.996728
loop_
_atom_site_label
_atom_site_type_symbol
_atom_site_fract_x
_atom_site_fract_y
_atom_site_fract_z
O1	O	0.925923	0.071102	-0.063199
O2	O	1.425923	0.571102	0.436801
O3	O	0.722581	0.080673	-0.063148
O4	O	1.222581	0.580673	0.436852
O5	O	0.830384	-0.007031	-0.063161
O6	O	1.330384	0.492969	0.436839
O7	O	0.818120	0.158806	-0.063186
O8	O	1.318120	0.658806	0.436814
O9	O	0.830365	-0.007036	0.062735
O10	O	1.330365	0.492964	0.562735
O11	O	0.722562	0.080669	0.062748
O12	O	1.222562	0.580669	0.562748
O13	O	0.925904	0.071097	0.062697
O14	O	1.425904	0.571097	0.562697
Cu15	Cu	0.824231	0.075883	0.074218
Cu16	Cu	1.324231	0.575883	0.574218
Cu17	Cu	0.824253	0.075888	-0.074669
Cu18	Cu	1.324253	0.575888	0.425331
O19	O	0.818101	0.158802	0.062711
O20	O	1.318101	0.658802	0.562711
C21	C	0.696561	0.080361	-0.000193
C22	C	1.196561	0.580361	0.499807
C23	C	0.619060	0.079431	-0.000173
C24	C	1.119060	0.579431	0.499827
C25	C	0.830062	-0.028250	-0.000211
C26	C	1.330062	0.471750	0.499789
C27	C	0.829123	-0.091469	-0.000205
C28	C	1.329123	0.408531	0.499795
C29	C	0.573972	0.130893	-0.000193
C30	C	1.073972	0.630893	0.499807
C31	C	0.501151	0.130019	-0.000201
C32	C	1.001151	0.630019	0.499799
C33	C	0.473421	0.077680	-0.000205
C34	C	0.973421	0.577680	0.499795
C35	C	0.518519	0.026211	-0.000181
C36	C	1.018519	0.526211	0.499819
C37	C	0.591339	0.027086	-0.000165
C38	C	1.091339	0.527086	0.499835
N39	N	0.365575	0.037674	-0.043078
N40	N	0.865575	0.537674	0.456922
N41	N	0.296399	0.036846	-0.043094
N42	N	0.796399	0.536846	0.456906
C43	C	0.254021	0.075038	-0.000251
C44	C	0.754021	0.575038	0.499749
N45	N	0.283431	0.114099	0.042600
N46	N	0.783431	0.614099	0.542600
N47	N	0.352613	0.114929	0.042614
N48	N	0.852613	0.614929	0.542614
C49	C	0.394462	0.076724	-0.000222
C50	C	0.894462	0.576724	0.499778
C51	C	0.129971	0.125556	-0.000278
C52	C	0.629971	0.625556	0.499722
C53	C	0.057149	0.124680	-0.000282
C54	C	0.557149	0.624680	0.499718
C55	C	0.074520	0.020870	-0.000269
C56	C	0.574520	0.520870	0.499731
C57	C	0.147340	0.021748	-0.000258
C58	C	0.647340	0.521748	0.499742
C59	C	0.175061	0.074092	-0.000266
C60	C	0.675061	0.574092	0.499734
C61	C	0.887029	-0.490449	-0.000261
C62	C	1.387029	0.009551	0.499739
C63	C	0.886157	-0.549851	-0.000267
C64	C	1.386157	-0.049851	0.499733
O65	O	0.939837	-0.586482	-0.000308
O66	O	1.439837	-0.086482	0.499692
N67	N	0.822068	-0.572613	-0.000250
N68	N	1.322068	-0.072613	0.499750
C69	C	0.758848	-0.535970	-0.000236
C70	C	1.258848	-0.035970	0.499764
O71	O	0.704255	-0.560786	-0.000223
O72	O	1.204255	-0.060786	0.499777
C73	C	0.759721	-0.476569	-0.000235
C74	C	1.259721	0.023431	0.499765
C75	C	0.823814	-0.453810	-0.000244
C76	C	1.323814	0.046190	0.499756
C77	C	0.951117	-0.467690	-0.000271
C78	C	1.451117	0.032310	0.499729
C79	C	0.951989	-0.408292	-0.000264
C80	C	1.451989	0.091708	0.499736
C81	C	0.888773	-0.371653	-0.000247
C82	C	1.388773	0.128347	0.499753
C83	C	0.824685	-0.394412	-0.000237
C84	C	1.324685	0.105588	0.499763
C85	C	0.696501	-0.439927	-0.000226
C86	C	1.196501	0.060073	0.499774
C87	C	0.697379	-0.380523	-0.000227
C88	C	1.197379	0.119477	0.499773
C89	C	0.761472	-0.357764	-0.000236
C90	C	1.261472	0.142236	0.499764
C91	C	0.762342	-0.298376	-0.000214
C92	C	1.262342	0.201624	0.499786
N93	N	0.826430	-0.275614	-0.000230
N94	N	1.326430	0.224386	0.499770
C95	C	0.889646	-0.312252	-0.000247
C96	C	1.389646	0.187748	0.499753
C97	C	0.757019	-0.660717	-0.000237
C98	C	1.257019	-0.160717	0.499763
C99	C	0.756146	-0.720116	-0.000232
C100	C	1.256146	-0.220116	0.499768
C101	C	0.883455	-0.733993	-0.000264
C102	C	1.383455	-0.233993	0.499736
C103	C	0.884328	-0.674592	-0.000264
C104	C	1.384328	-0.174592	0.499736
C105	C	0.821108	-0.637954	-0.000254
C106	C	1.321108	-0.137954	0.499746
C107	C	0.891472	-0.187512	-0.000232
C108	C	1.391472	0.312488	0.499768
C109	C	0.892339	-0.128108	-0.000222
C110	C	1.392339	0.371892	0.499778
C111	C	0.765029	-0.114236	-0.000193
C112	C	1.265029	0.385764	0.499807
C113	C	0.764163	-0.173634	-0.000199
C114	C	1.264163	0.326366	0.499801
C115	C	0.827390	-0.210272	-0.000221
C116	C	1.327390	0.289728	0.499779
O117	O	0.708690	-0.261710	-0.000176
O118	O	1.208690	0.238290	0.499824
O119	O	0.944230	-0.287428	-0.000270
O120	O	1.444230	0.212572	0.499730
C121	C	0.951923	0.071410	-0.000259
C122	C	1.451923	0.571410	0.499741
C123	C	1.029425	0.072340	-0.000284
C124	C	1.529425	0.572340	0.499716
C125	C	0.818423	0.180021	-0.000241
C126	C	1.318423	0.680021	0.499759
C127	C	0.819362	0.243240	-0.000252
C128	C	1.319362	0.743240	0.499748
N129	N	0.824221	0.075878	0.178938
N130	N	1.324221	0.575878	0.678938
N131	N	0.824270	0.075888	-0.179389
N132	N	1.324270	0.575888	0.320611
C133	C	0.871971	0.037062	0.218542
C134	C	1.371971	0.537062	0.718542
C135	C	0.871975	0.037059	0.297789
C136	C	1.371975	0.537059	0.797789
C137	C	0.824236	0.075883	0.337430
C138	C	1.324236	0.575883	0.837430
C139	C	0.776476	0.114702	0.297816
C140	C	1.276476	0.614702	0.797816
C141	C	0.776469	0.114700	0.218570
C142	C	1.276469	0.614700	0.718570
N143	N	0.814998	0.126298	0.461842
N144	N	1.314998	0.626298	0.961842
N145	N	0.815010	0.126298	0.537123
N146	N	1.315010	0.626298	1.037123
C147	C	0.824254	0.075891	0.576194
C148	C	1.324254	0.575891	1.076194
N149	N	0.833500	0.025481	0.537141
N150	N	1.333500	0.525481	1.037141
N151	N	0.833493	0.025482	0.461853
N152	N	1.333493	0.525482	0.961853
C153	C	0.824238	0.075889	0.423359
C154	C	1.324238	0.575889	0.923359
C155	C	0.872011	0.037068	0.701727
C156	C	1.372011	0.537068	1.201727
C157	C	0.872010	0.037064	0.780976
C158	C	1.372010	0.537064	1.280976
C159	C	0.776515	0.114713	0.781002
C160	C	1.276515	0.614713	1.281002
C161	C	0.776512	0.114711	0.701754
C162	C	1.276512	0.614711	1.201754
C163	C	0.824264	0.075889	0.662122
C164	C	1.324264	0.575889	1.162122
H165	H	0.596537	0.173516	-0.000201
H166	H	1.096537	0.673516	0.499799
C167	C	0.685644	-0.745145	-0.000216
C168	C	1.185644	-0.245145	0.499784
H169	H	0.648124	-0.714812	-0.000211
H170	H	1.148124	-0.214812	0.499789
H171	H	0.682645	-0.768037	0.043684
H172	H	1.182645	-0.268037	0.543684
H173	H	0.682663	-0.768017	-0.044128
H174	H	1.182663	-0.268017	0.455872
H175	H	0.942958	-0.217335	-0.000252
H176	H	1.442958	0.282665	0.499748
C177	C	0.723966	0.157409	0.341418
C178	C	1.223966	0.657409	0.841418
H179	H	0.730814	0.151855	0.394286
H180	H	1.230814	0.651855	0.894286
H181	H	0.677412	0.151318	0.328461
H182	H	1.177412	0.651318	0.828461
H183	H	0.731286	0.195404	0.328412
H184	H	1.231286	0.695404	0.828412
C185	C	0.924524	-0.005639	0.658125
C186	C	1.424524	0.494361	1.158125
H187	H	0.917687	-0.000077	0.605256
H188	H	1.417687	0.499923	1.105256
H189	H	0.917206	-0.043633	0.671127
H190	H	1.417206	0.456367	1.171127
H191	H	0.971081	0.000452	0.671085
H192	H	1.471081	0.500452	1.171085
H193	H	0.737584	0.146310	0.186324
H194	H	1.237584	0.646310	0.686324
C195	C	0.924504	-0.005640	0.341363
C196	C	1.424504	0.494360	0.841363
H197	H	0.952943	-0.028758	0.306409
H198	H	1.452943	0.471242	0.806409
H199	H	0.899560	-0.029296	0.372300
H200	H	1.399560	0.470704	0.872300
H201	H	0.953425	0.014798	0.372252
H202	H	1.453425	0.514798	0.872252
H203	H	0.628050	-0.014822	-0.000150
H204	H	1.128050	0.485178	0.499850
C205	C	0.924540	-0.005635	0.824541
C206	C	1.424540	0.494365	1.324541
H207	H	0.952980	-0.028750	0.789584
H208	H	1.452980	0.471250	1.289584
H209	H	0.899599	-0.029295	0.855476
H210	H	1.399599	0.470705	1.355476
H211	H	0.953460	0.014802	0.855432
H212	H	1.453460	0.514802	1.355432
H213	H	0.934929	-0.763836	-0.000281
H214	H	1.434929	-0.263836	0.499719
C215	C	0.687473	-0.620419	-0.000211
C216	C	1.187473	-0.120419	0.499789
H217	H	0.649183	-0.642487	-0.000194
H218	H	1.149183	-0.142487	0.499806
H219	H	0.685165	-0.596949	-0.044111
H220	H	1.185165	-0.096949	0.455889
H221	H	0.685160	-0.596967	0.043700
H222	H	1.185160	-0.096967	0.543700
C223	C	0.724001	0.157419	0.658184
C224	C	1.224001	0.657419	1.158184
H225	H	0.730832	0.151857	0.605311
H226	H	1.230832	0.651857	1.105311
H227	H	0.731324	0.195412	0.671159
H228	H	1.231324	0.695412	1.171159
H229	H	0.677444	0.151330	0.671194
H230	H	1.177444	0.651330	1.171194
H231	H	0.464433	0.171927	-0.000215
H232	H	0.964433	0.671927	0.499785
H233	H	1.002598	-0.497516	-0.000287
H234	H	1.502598	0.002484	0.499713
C235	C	0.724002	0.157418	0.824597
C236	C	1.224002	0.657418	1.324597
H237	H	0.730847	0.151862	0.877466
H238	H	1.230847	0.651862	1.377466
H239	H	0.677448	0.151327	0.811636
H240	H	1.177448	0.651327	1.311636
H241	H	0.731322	0.195414	0.811594
H242	H	1.231322	0.695414	1.311594
H243	H	0.936518	-0.656067	-0.000272
H244	H	1.436518	-0.156067	0.499728
H245	H	0.495937	-0.016404	-0.000195
H246	H	0.995937	0.483596	0.499805
C247	C	0.044026	-0.036702	-0.000278
C248	C	0.544026	0.463298	0.499722
H249	H	-0.005801	-0.029854	-0.000296
H250	H	0.494199	0.470146	0.499704
H251	H	0.059504	-0.057889	0.043627
H252	H	0.559504	0.442111	0.543627
H253	H	0.059552	-0.057878	-0.044184
H254	H	0.559552	0.442122	0.455816
C255	C	0.625998	-0.464949	-0.000223
C256	C	1.125998	0.035051	0.499777
H257	H	0.588480	-0.434613	-0.000223
H258	H	1.088480	0.065387	0.499777
H259	H	0.622991	-0.487840	0.043676
H260	H	1.122991	0.012160	0.543676
H261	H	0.623019	-0.487822	-0.044135
H262	H	1.123019	0.012178	0.455865
C263	C	0.627835	-0.340224	-0.000212
C264	C	1.127835	0.159776	0.499788
H265	H	0.589544	-0.362290	-0.000202
H266	H	1.089544	0.137710	0.499798
H267	H	0.625535	-0.316754	-0.044112
H268	H	1.125535	0.183246	0.455888
H269	H	0.625520	-0.316772	0.043700
H270	H	1.125520	0.183228	0.543700
H271	H	0.184052	-0.020158	-0.000246
H272	H	0.684052	0.479842	0.499754
H273	H	0.711973	-0.192165	-0.000171
H274	H	1.211973	0.307835	0.499829
H275	H	0.713561	-0.084394	-0.000177
H276	H	1.213561	0.415606	0.499823
C277	C	0.924489	-0.005646	0.174950
C278	C	1.424489	0.494354	0.674950
H279	H	0.952923	-0.028768	0.209891
H280	H	1.452923	0.471232	0.709891
H281	H	0.953405	0.014779	0.144010
H282	H	1.453405	0.514779	0.644010
H283	H	0.899531	-0.029307	0.144062
H284	H	1.399531	0.470693	0.644062
H285	H	0.944533	-0.109581	-0.000227
H286	H	1.444533	0.390419	0.499773
H287	H	0.152543	0.168178	-0.000274
H288	H	0.652543	0.668178	0.499726
H289	H	1.004180	-0.389768	-0.000274
H290	H	1.504180	0.110232	0.499726
C291	C	0.007552	0.181291	-0.000303
C292	C	0.507552	0.681291	0.499697
H293	H	0.034494	0.212588	-0.000313
H294	H	0.534494	0.712588	0.499687
H295	H	-0.021240	0.183110	0.043594
H296	H	0.478760	0.683110	0.543594
H297	H	-0.021192	0.183104	-0.044218
H298	H	0.478808	0.683104	0.455782
