data_functionalizedCrystal
_audit_creation_method	'MofGen! by Chris Wilmer'
_symmetry_space_group_name_H-M	'P1'
_symmetry_Int_Tables_number	1
_symmetry_cell_setting	triclinic
loop_
_symmetry_equiv_pos_as_xyz
  x,y,z
_cell_length_a	10.654550
_cell_length_b	10.654550
_cell_length_c	9.130313
_cell_angle_alpha	90.004369
_cell_angle_beta	90.000276
_cell_angle_gamma	84.484931
loop_
_atom_site_label
_atom_site_type_symbol
_atom_site_fract_x
_atom_site_fract_y
_atom_site_fract_z
O1	O	-1.667839	-0.176399	-0.121690
O2	O	-1.302361	-0.193205	-0.121716
O3	O	-1.493503	-0.002063	-0.121693
O4	O	-1.476697	-0.367541	-0.121713
O5	O	-1.493490	-0.002057	0.121906
O6	O	-1.302348	-0.193199	0.121882
O7	O	-1.667826	-0.176393	0.121909
Cu8	Cu	-1.485086	-0.184796	0.144138
Cu9	Cu	-1.485101	-0.184802	-0.143946
O10	O	-1.476684	-0.367535	0.121886
C11	C	-1.255556	-0.191968	0.000080
C12	C	-1.116113	-0.188276	0.000070
C13	C	-1.492263	0.044738	0.000105
C14	C	-1.488571	0.184181	0.000103
C15	C	-1.714631	-0.177630	0.000110
C16	C	-1.854074	-0.181322	0.000110
C17	C	-1.477925	-0.414336	0.000084
C18	C	-1.481616	-0.553779	0.000077
C19	C	-1.036628	-0.300818	0.000068
C20	C	-0.905607	-0.297341	0.000093
C21	C	-0.933570	-0.068772	0.000117
C22	C	-1.064588	-0.072250	0.000101
N23	N	-1.485084	-0.184790	0.346761
C24	C	-1.601112	0.263667	0.000111
C25	C	-1.597636	0.394688	0.000092
C26	C	-1.369066	0.366725	0.000065
C27	C	-1.372544	0.235706	0.000073
N28	N	-1.485113	-0.184798	-0.346568
C29	C	-1.569751	-0.100188	0.423423
C30	C	-1.569763	-0.100189	0.576760
C31	C	-1.400437	-0.269404	0.576759
C32	C	-1.400420	-0.269396	0.423425
H33	H	-0.840894	-0.388984	0.000095
C34	C	-1.721432	0.482117	0.000110
H35	H	-1.791026	0.432661	0.000140
H36	H	-1.724840	0.533800	-0.084841
H37	H	-1.724814	0.533815	0.085067
H38	H	-0.891602	0.025693	0.000151
H39	H	-1.129309	0.019401	0.000107
C40	C	-1.728735	0.206993	0.000127
H41	H	-1.795262	0.273101	0.000116
H42	H	-1.734842	0.156471	0.085078
H43	H	-1.734846	0.156457	-0.084830
H44	H	-1.274601	0.408693	0.000043
C45	C	-1.248742	0.148266	0.000069
H46	H	-1.179143	0.197715	0.000071
H47	H	-1.245356	0.096566	-0.084877
H48	H	-1.245346	0.096586	0.085031
C49	C	-1.307327	-0.362474	0.661094
H50	H	-1.319471	-0.350373	0.763394
H51	H	-1.223389	-0.348058	0.635985
H52	H	-1.321699	-0.446424	0.635943
H53	H	-1.331468	-0.338290	0.361002
H54	H	-1.638704	-0.031297	0.639174
C55	C	-1.662865	-0.007115	0.339097
H56	H	-1.713282	0.043278	0.406721
H57	H	-1.715529	-0.052773	0.279263
H58	H	-1.617219	0.045594	0.279302
H59	H	-1.078574	-0.395294	0.000053
