data_functionalizedCrystal
_audit_creation_method	'MofGen! by Chris Wilmer'
_symmetry_space_group_name_H-M	'P1'
_symmetry_Int_Tables_number	1
_symmetry_cell_setting	triclinic
loop_
_symmetry_equiv_pos_as_xyz
  x,y,z
_cell_length_a	18.101398
_cell_length_b	12.594516
_cell_length_c	18.101390
_cell_angle_alpha	89.972985
_cell_angle_beta	89.975319
_cell_angle_gamma	90.011320
loop_
_atom_site_label
_atom_site_type_symbol
_atom_site_fract_x
_atom_site_fract_y
_atom_site_fract_z
Zn1	Zn	1.132201	-0.423836	-0.418869
Zn2	Zn	1.132129	-0.601849	-0.295040
Zn3	Zn	1.008359	-0.423870	-0.295030
Zn4	Zn	1.008343	-0.601758	-0.418829
O5	O	1.070258	-0.512828	-0.356942
O6	O	1.235824	-0.447473	-0.402464
O7	O	1.115687	-0.578291	-0.191406
O8	O	1.024824	-0.274919	-0.311470
O9	O	1.235771	-0.578258	-0.311488
O10	O	1.115810	-0.274895	-0.402454
O11	O	1.024754	-0.447531	-0.191399
O12	O	0.904724	-0.447443	-0.311431
O13	O	1.024797	-0.578104	-0.522467
O14	O	0.904713	-0.578137	-0.402386
O15	O	1.115795	-0.447385	-0.522497
O16	O	1.115671	-0.750782	-0.311449
O17	O	1.024727	-0.750716	-0.402396
C18	C	0.877848	-0.512785	-0.356904
C19	C	0.795533	-0.512792	-0.356905
C20	C	0.496443	-0.512858	-0.356967
C21	C	0.527750	-0.430218	-0.300020
C22	C	0.613368	-0.430440	-0.299777
C23	C	0.644825	-0.512825	-0.356936
C24	C	0.613727	-0.624949	-0.335619
C25	C	0.528082	-0.624490	-0.335224
C26	C	0.528052	-0.484349	-0.435364
C27	C	0.613703	-0.481852	-0.434936
C28	C	0.728685	-0.512812	-0.356920
C29	C	0.412583	-0.512878	-0.356981
C30	C	1.070210	-0.789369	-0.356935
C31	C	1.070257	-0.907674	-0.356957
C32	C	1.020787	-0.976930	-0.406388
C33	C	1.002745	-1.047795	-0.338810
C34	C	1.088366	-1.047609	-0.424546
C35	C	1.052179	-0.976981	-0.289343
C36	C	1.137831	-0.976789	-0.375124
C37	C	1.119815	-1.047621	-0.307500
C38	C	1.263420	-0.512872	-0.356981
C39	C	1.345734	-0.512891	-0.356998
C40	C	1.070302	-0.512731	-0.550104
C41	C	1.070321	-0.512689	-0.632418
C42	C	1.070327	-0.235207	-0.356966
C43	C	1.070356	-0.116902	-0.356976
C44	C	1.070361	-0.512623	-0.931509
C45	C	1.127803	-0.430668	-0.900203
C46	C	1.127624	-0.430364	-0.814585
C47	C	1.070342	-0.512656	-0.783127
C48	C	0.992319	-0.482173	-0.814191
C49	C	0.992663	-0.481558	-0.899836
C50	C	1.090254	-0.625273	-0.899931
C51	C	1.091966	-0.624698	-0.814282
C52	C	1.070326	-0.512676	-0.699267
C53	C	1.070371	-0.512600	-1.015369
C54	C	1.070257	-0.512848	-0.164532
C55	C	1.070382	-0.512590	-0.082218
H56	H	0.506204	-0.448853	-0.242266
O57	O	1.205900	-0.939369	-0.393427
C58	C	1.282217	-0.785195	-0.413337
C59	C	1.205099	-0.827431	-0.392572
H60	H	1.281592	-0.694689	-0.412668
H61	H	1.324604	-0.815424	-0.371784
H62	H	1.297537	-0.814217	-0.470987
H63	H	1.189710	-0.798426	-0.334940
H64	H	1.162758	-0.797210	-0.434172
O65	O	1.106726	-1.084569	-0.492704
C66	C	1.198084	-1.088715	-0.589522
C67	C	1.177400	-1.046810	-0.512320
H68	H	1.255218	-1.058186	-0.605412
H69	H	1.198539	-1.179225	-0.588766
H70	H	1.155776	-1.059696	-0.631567
H71	H	1.219687	-1.075751	-0.470233
H72	H	1.176922	-0.956302	-0.513137
H73	H	0.633825	-0.449288	-0.241685
H74	H	0.945645	-1.079007	-0.323460
O75	O	1.033852	-0.939954	-0.221194
C76	C	1.013282	-0.786214	-0.144717
C77	C	1.034034	-0.828006	-0.221931
H78	H	1.013438	-0.695701	-0.145283
H79	H	0.955881	-0.816019	-0.129125
H80	H	1.055222	-0.815997	-0.102562
H81	H	0.992144	-0.798241	-0.264138
H82	H	1.091454	-0.798210	-0.237460
H83	H	0.634104	-0.688172	-0.375799
H84	H	1.185478	-0.449455	-0.793583
H85	H	1.149384	-0.647685	-0.793978
H86	H	1.114800	-0.347681	-0.921733
O87	O	0.638583	-0.331322	-0.315728
C88	C	0.744925	-0.219046	-0.333511
C89	C	0.716476	-0.331358	-0.315460
H90	H	0.807904	-0.219034	-0.333286
H91	H	0.724154	-0.194093	-0.390376
H92	H	0.723768	-0.160841	-0.290181
H93	H	0.737620	-0.389640	-0.358743
H94	H	0.737239	-0.356223	-0.258576
O95	O	0.939864	-0.551265	-0.790004
C96	C	0.846938	-0.679468	-0.823576
C97	C	0.906331	-0.601275	-0.851069
H98	H	0.819799	-0.719906	-0.872933
H99	H	0.873678	-0.741983	-0.786700
H100	H	0.803330	-0.634338	-0.790735
H101	H	0.949957	-0.646314	-0.883941
H102	H	0.879538	-0.538762	-0.887906
H103	H	0.508074	-0.648666	-0.277911
H104	H	0.635118	-0.537656	-0.479639
O105	O	0.503494	-0.700505	-0.382553
C106	C	0.536404	-0.838458	-0.468684
C107	C	0.564346	-0.752429	-0.415095
H108	H	0.585588	-0.880448	-0.495021
H109	H	0.501516	-0.898664	-0.437101
H110	H	0.501412	-0.799893	-0.513644
H111	H	0.599368	-0.790901	-0.370123
H112	H	0.599193	-0.692233	-0.446729
H113	H	0.635146	-0.649544	-0.278926
O114	O	0.970896	-0.939841	-0.456270
C115	C	0.950976	-0.836126	-0.566370
C116	C	1.007558	-0.878080	-0.509947
H117	H	0.980594	-0.786165	-0.609773
H118	H	0.922244	-0.905894	-0.594356
H119	H	0.908187	-0.785197	-0.536715
H120	H	1.050392	-0.928992	-0.539545
H121	H	1.036234	-0.808264	-0.481963
H122	H	1.161693	-1.078465	-0.265658
H123	H	0.507165	-0.346820	-0.313233
H124	H	1.185847	-0.449523	-0.920811
O125	O	1.111869	-0.330759	-0.790270
C126	C	1.083513	-0.150082	-0.823672
C127	C	1.101332	-0.262845	-0.851307
H128	H	1.075004	-0.095137	-0.873006
H129	H	1.031038	-0.152077	-0.788848
H130	H	1.131362	-0.119537	-0.788694
H131	H	1.053530	-0.293459	-0.886316
H132	H	1.153832	-0.260784	-0.886091
O133	O	1.156929	-0.658303	-0.925837
C134	C	1.230197	-0.701654	-1.032823
C135	C	1.154655	-0.664229	-1.003585
H136	H	1.228379	-0.706478	-1.095684
H137	H	1.274779	-0.642900	-1.015295
H138	H	1.243344	-0.783370	-1.009122
H139	H	1.141439	-0.582532	-1.027271
H140	H	1.110116	-0.723054	-1.021105
O141	O	0.637824	-0.383340	-0.454085
C142	C	0.604110	-0.204248	-0.486621
C143	C	0.576689	-0.315759	-0.464932
H144	H	0.554696	-0.149583	-0.495411
H145	H	0.640441	-0.171100	-0.440658
H146	H	0.637500	-0.209533	-0.539906
H147	H	0.543268	-0.310565	-0.411665
H148	H	0.540397	-0.348865	-0.510939
O149	O	0.972528	-0.383394	-0.923808
C150	C	0.949826	-0.270210	-1.028733
C151	C	0.972622	-0.381435	-1.001691
H152	H	0.949909	-0.268582	-1.091702
H153	H	0.892066	-0.250821	-1.007545
H154	H	0.990680	-0.208855	-1.006961
H155	H	0.931819	-0.442862	-1.023452
H156	H	1.030398	-0.400733	-1.022871
H157	H	0.506466	-0.404011	-0.454747
O158	O	0.971876	-0.385073	-0.788490
C159	C	0.945613	-0.277379	-0.681668
C160	C	0.968781	-0.387390	-0.710673
H161	H	0.943088	-0.279222	-0.618751
H162	H	0.987659	-0.215414	-0.700162
H163	H	0.888883	-0.256076	-0.704631
H164	H	1.025495	-0.408794	-0.687724
H165	H	0.926687	-0.449292	-0.692187
O166	O	0.503990	-0.556081	-0.486077
C167	C	0.505258	-0.611073	-0.613557
C168	C	0.532582	-0.529776	-0.556207
H169	H	0.528349	-0.589822	-0.670273
H170	H	0.524823	-0.693867	-0.597263
H171	H	0.442319	-0.609676	-0.615598
H172	H	0.595517	-0.531078	-0.554137
H173	H	0.512960	-0.447020	-0.572523
O174	O	1.045763	-0.701601	-0.788795
C175	C	1.014673	-0.887644	-0.789226
C176	C	1.067076	-0.800668	-0.818122
H177	H	1.031876	-0.967757	-0.812937
H178	H	1.017598	-0.890716	-0.726350
H179	H	0.955709	-0.868829	-0.807040
H180	H	1.126063	-0.819422	-0.800361
H181	H	1.064087	-0.797616	-0.880995
H182	H	0.948408	-0.538653	-0.920544
H183	H	1.048420	-0.686338	-0.920182
