data_functionalizedCrystal
_audit_creation_method	'MofGen! by Chris Wilmer'
_symmetry_space_group_name_H-M	'P1'
_symmetry_Int_Tables_number	1
_symmetry_cell_setting	triclinic
loop_
_symmetry_equiv_pos_as_xyz
  x,y,z
_cell_length_a	11.792241
_cell_length_b	17.699083
_cell_length_c	16.776229
_cell_angle_alpha	90.005210
_cell_angle_beta	90.000544
_cell_angle_gamma	83.738215
loop_
_atom_site_label
_atom_site_type_symbol
_atom_site_fract_x
_atom_site_fract_y
_atom_site_fract_z
O1	O	-1.505666	-0.103724	0.066213
O2	O	-1.005666	0.396276	0.566213
O3	O	-1.175197	-0.114415	0.066231
O4	O	-0.675197	0.385585	0.566231
O5	O	-1.349768	0.001070	0.066214
O6	O	-0.849768	0.501070	0.566214
O7	O	-1.331095	-0.219209	0.066229
O8	O	-0.831095	0.280791	0.566229
O9	O	-1.349752	0.001049	-0.066362
O10	O	-0.849752	0.501049	0.433638
O11	O	-1.175181	-0.114436	-0.066345
O12	O	-0.675181	0.385564	0.433655
O13	O	-1.505650	-0.103744	-0.066364
O14	O	-1.005650	0.396256	0.433636
Zn15	Zn	-1.340413	-0.109093	-0.087404
Zn16	Zn	-0.840413	0.390907	0.412596
Zn17	Zn	-1.340434	-0.109067	0.087271
Zn18	Zn	-0.840434	0.390933	0.587271
O19	O	-1.331079	-0.219229	-0.066347
O20	O	-0.831079	0.280771	0.433653
C21	C	-1.132906	-0.113754	-0.000055
C22	C	-0.632906	0.386246	0.499945
C23	C	-1.006916	-0.111744	-0.000048
C24	C	-0.506916	0.388256	0.499952
C25	C	-1.349091	0.029260	-0.000074
C26	C	-0.849091	0.529260	0.499926
C27	C	-1.347083	0.113289	-0.000074
C28	C	-0.847083	0.613289	0.499926
C29	C	-1.547941	-0.104406	-0.000076
C30	C	-1.047941	0.395594	0.499924
C31	C	-1.673930	-0.106416	-0.000078
C32	C	-1.173930	0.393584	0.499922
C33	C	-0.776248	-0.108048	-0.000071
C34	C	-0.276248	0.391952	0.499929
C35	C	-0.904609	-0.110101	-0.000058
C36	C	-0.404609	0.389899	0.499942
C37	C	-1.331756	-0.247420	-0.000057
C38	C	-0.831756	0.252580	0.499943
C39	C	-1.333763	-0.331449	-0.000051
C40	C	-0.833763	0.168551	0.499949
N41	N	-1.340406	-0.109111	-0.206615
N42	N	-0.840406	0.390889	0.293385
C43	C	-1.449553	0.161364	-0.000081
C44	C	-0.949553	0.661364	0.499919
C45	C	-1.447660	0.240317	-0.000074
C46	C	-0.947660	0.740317	0.499926
C47	C	-1.343297	0.271194	-0.000066
C48	C	-0.843297	0.771194	0.499934
C49	C	-1.240819	0.223113	-0.000056
C50	C	-0.740819	0.723113	0.499944
C51	C	-1.242713	0.144161	-0.000058
C52	C	-0.742713	0.644161	0.499942
C53	C	-1.233178	0.541517	-0.000049
C54	C	-0.733178	1.041517	0.499951
C55	C	-1.231292	0.620475	-0.000050
C56	C	-0.731292	1.120475	0.499950
C57	C	-1.438126	0.637673	-0.000066
C58	C	-0.938126	1.137673	0.499934
C59	C	-1.440020	0.558721	-0.000067
C60	C	-0.940020	1.058721	0.499933
C61	C	-1.337543	0.510647	-0.000054
C62	C	-0.837543	1.010647	0.499946
C63	C	-1.339596	0.425037	-0.000060
C64	C	-0.839596	0.925037	0.499940
C65	C	-1.341242	0.356803	-0.000065
C66	C	-0.841242	0.856803	0.499935
C67	C	-1.271743	-0.062836	-0.751786
C68	C	-0.771743	0.437164	-0.251786
C69	C	-1.271740	-0.062842	-0.668334
C70	C	-0.771740	0.437158	-0.168334
C71	C	-1.340439	-0.109060	-0.626615
C72	C	-0.840439	0.390940	-0.126615
C73	C	-1.409153	-0.155269	-0.668352
C74	C	-0.909153	0.344731	-0.168352
C75	C	-1.409161	-0.155258	-0.751802
C76	C	-0.909161	0.344742	-0.251802
C77	C	-1.409123	-0.155313	-0.331804
C78	C	-0.909123	0.344687	0.168196
C79	C	-1.409107	-0.155322	-0.248348
C80	C	-0.909107	0.344678	0.251652
C81	C	-1.271703	-0.062898	-0.248336
C82	C	-0.771703	0.437102	0.251664
C83	C	-1.271711	-0.062887	-0.331787
C84	C	-0.771711	0.437113	0.168213
C85	C	-1.340429	-0.109092	-0.373517
C86	C	-0.840429	0.390908	0.126483
C87	C	-1.340433	-0.109084	-0.464005
C88	C	-0.840433	0.390916	0.035995
C89	C	-1.340430	-0.109073	-0.536128
C90	C	-0.840430	0.390927	-0.036128
N91	N	-1.340449	-0.109043	0.206483
N92	N	-0.840449	0.390957	0.706483
H93	H	-1.534538	0.136230	-0.000093
H94	H	-1.034538	0.636230	0.499907
H95	H	-1.465094	-0.192897	-0.634377
H96	H	-0.965094	0.307103	-0.134377
H97	H	-1.149735	0.502384	-0.000039
H98	H	-0.649735	1.002384	0.499961
Br99	Br	-1.178455	-0.000154	-0.611701
Br100	Br	-0.678455	0.499846	-0.111701
H101	H	-1.155844	0.248259	-0.000044
H102	H	-0.655844	0.748259	0.499956
H103	H	-1.531101	0.279457	-0.000081
H104	H	-1.031101	0.779457	0.499919
H105	H	-1.215795	-0.025204	-0.785748
H106	H	-0.715795	0.474796	-0.285748
Br107	Br	-1.103642	0.078915	-0.000042
Br108	Br	-0.603642	0.578915	0.499958
Br109	Br	-1.581661	0.516820	-0.000078
Br110	Br	-1.081661	1.016820	0.499922
Br111	Br	-1.178466	-0.000166	-0.388402
Br112	Br	-0.678466	0.499834	0.111598
H113	H	-1.215752	-0.025273	-0.214350
H114	H	-0.715752	0.474727	0.285650
Br115	Br	-1.577205	0.702920	-0.000084
Br116	Br	-1.077205	1.202920	0.499916
H117	H	-1.465053	-0.192961	-0.214382
H118	H	-0.965053	0.307039	0.285618
H119	H	-1.465077	-0.192937	-0.365771
H120	H	-0.965077	0.307063	0.134229
Br121	Br	-1.089646	0.662379	-0.000040
Br122	Br	-0.589646	1.162379	0.499960
H123	H	-1.465109	-0.192884	-0.785779
H124	H	-0.965109	0.307116	-0.285779
