data_functionalizedCrystal
_audit_creation_method	'MofGen! by Chris Wilmer'
_symmetry_space_group_name_H-M	'P1'
_symmetry_Int_Tables_number	1
_symmetry_cell_setting	triclinic
loop_
_symmetry_equiv_pos_as_xyz
  x,y,z
_cell_length_a	14.853567
_cell_length_b	14.044220
_cell_length_c	13.330367
_cell_angle_alpha	89.994700
_cell_angle_beta	89.995418
_cell_angle_gamma	88.411904
loop_
_atom_site_label
_atom_site_type_symbol
_atom_site_fract_x
_atom_site_fract_y
_atom_site_fract_z
O1	O	1.206175	0.123767	-0.083357
O2	O	0.944883	0.138510	-0.083374
O3	O	1.071607	-0.006851	-0.083356
O4	O	1.079451	0.269128	-0.083375
O5	O	1.071587	-0.006854	0.083491
O6	O	0.944863	0.138507	0.083473
O7	O	1.206154	0.123764	0.083490
Cu8	Cu	1.075507	0.131135	0.098716
Cu9	Cu	1.075531	0.131139	-0.098600
O10	O	1.079431	0.269125	0.083472
C11	C	0.911231	0.137841	0.000047
C12	C	0.810989	0.135839	0.000041
C13	C	0.390944	0.041029	0.000070
C14	C	0.383345	0.213721	0.000057
C15	C	0.477528	0.215604	0.000054
C16	C	0.528423	0.130197	0.000057
C17	C	0.485135	0.042908	0.000064
C18	C	0.520822	0.302891	0.000037
C19	C	0.615011	0.304777	0.000032
C20	C	0.665908	0.219369	0.000043
C21	C	0.622615	0.132077	0.000051
C22	C	0.673510	0.046670	0.000054
C23	C	0.630218	-0.040623	0.000069
C24	C	0.536032	-0.042499	0.000074
C25	C	0.760094	0.221246	0.000038
C26	C	0.767702	0.048550	0.000048
C27	C	1.068163	-0.042172	0.000068
C28	C	1.057921	-0.147411	0.000069
C29	C	1.039197	-0.340097	0.000053
C30	C	1.111836	-0.397635	0.000055
C31	C	1.101418	-0.504852	0.000046
C32	C	1.049614	-0.232870	0.000062
C33	C	1.239806	0.124433	0.000067
C34	C	1.340048	0.126435	0.000067
C35	C	1.082874	0.304446	0.000046
C36	C	1.093116	0.409685	0.000039
N37	N	1.075496	0.131132	0.237498
N38	N	1.075548	0.131135	-0.237381
C39	C	1.019413	0.195480	0.710112
C40	C	1.131672	0.066791	0.710097
C41	C	1.131662	0.066788	0.605078
C42	C	1.075527	0.131133	0.552572
C43	C	1.019403	0.195481	0.605084
C44	C	1.187792	0.002448	0.552558
C45	C	1.187785	0.002443	0.447534
C46	C	1.131644	0.066784	0.395025
C47	C	1.075517	0.131134	0.447544
C48	C	1.019382	0.195479	0.395038
C49	C	0.963249	0.259825	0.447555
C50	C	0.963262	0.259822	0.552576
C51	C	1.131631	0.066787	0.290004
C52	C	1.019372	0.195480	0.290010
H53	H	0.341900	0.283255	0.000046
N54	N	0.659211	0.393949	0.000036
N55	N	0.646135	0.451549	0.070365
H56	H	0.677350	0.514529	0.070371
N57	N	0.682226	-0.127852	0.000081
N58	N	0.735638	-0.146056	0.070406
H59	H	0.772374	-0.207659	0.070416
N60	N	1.199662	-0.358409	0.000087
N61	N	1.223056	-0.305701	0.070430
H62	H	1.285081	-0.277992	0.070458
H63	H	0.500776	-0.113569	0.000110
H64	H	0.969191	-0.371358	0.000046
H65	H	0.973656	0.247874	0.247266
H66	H	1.177338	0.014402	0.247250
N67	N	1.245100	-0.063288	0.393879
N68	N	1.245078	-0.063288	0.300110
H69	H	1.285555	-0.109713	0.262213
N70	N	0.905925	0.325552	0.393900
N71	N	0.905937	0.325544	0.300131
H72	H	0.865455	0.371963	0.262233
N73	N	0.905942	0.325560	0.606216
N74	N	0.914217	0.413186	0.594476
H75	H	0.873735	0.459615	0.632362
N76	N	0.962076	0.261192	0.763765
N77	N	0.962084	0.261182	0.857534
H78	H	0.921589	0.307591	0.895429
N79	N	0.804329	0.310394	0.000012
N80	N	0.856043	0.330704	-0.070323
H81	H	0.887284	0.393669	-0.070340
N82	N	1.189026	0.001096	0.763742
N83	N	1.189041	0.001119	0.857511
H84	H	1.229555	-0.045276	0.895403
H85	H	0.355691	-0.030044	0.000086
N86	N	1.245162	-0.063230	0.606205
N87	N	1.245180	-0.063200	0.699974
H88	H	1.285711	-0.109576	0.737869
N89	N	0.468823	0.390117	0.000002
N90	N	0.384729	0.388422	-0.000002
H91	H	0.347999	0.450028	-0.000033
H92	H	0.809134	-0.021000	0.000054
