data_functionalizedCrystal
_audit_creation_method	'MofGen! by Chris Wilmer'
_symmetry_space_group_name_H-M	'P1'
_symmetry_Int_Tables_number	1
_symmetry_cell_setting	triclinic
loop_
_symmetry_equiv_pos_as_xyz
  x,y,z
_cell_length_a	10.489741
_cell_length_b	14.044220
_cell_length_c	12.503572
_cell_angle_alpha	93.835250
_cell_angle_beta	93.559494
_cell_angle_gamma	91.135974
loop_
_atom_site_label
_atom_site_type_symbol
_atom_site_fract_x
_atom_site_fract_y
_atom_site_fract_z
O1	O	0.300990	-1.265220	-0.089205
O2	O	0.800990	-0.765220	0.410795
O3	O	0.289883	-0.989177	-0.089232
O4	O	0.789883	-0.489177	0.410768
O5	O	0.110477	-1.133479	-0.089211
O6	O	0.610477	-0.633479	0.410789
O7	O	0.480397	-1.120918	-0.089225
O8	O	0.980397	-0.620918	0.410775
O9	O	0.123993	-1.122627	0.089429
O10	O	0.623993	-0.622627	0.589429
O11	O	0.303400	-0.978325	0.089408
O12	O	0.803400	-0.478325	0.589408
O13	O	0.314507	-1.254368	0.089436
O14	O	0.814507	-0.754368	0.589436
Cu15	Cu	0.310188	-1.115355	0.105733
Cu16	Cu	0.810188	-0.615355	0.605733
Cu17	Cu	0.294203	-1.128189	-0.105530
Cu18	Cu	0.794203	-0.628189	0.394470
O19	O	0.493914	-1.110065	0.089415
O20	O	0.993914	-0.610065	0.589415
C21	C	0.069607	-1.127104	0.000108
C22	C	0.569607	-0.627104	0.500108
C23	C	-0.072311	-1.124266	0.000106
C24	C	0.427689	-0.624266	0.500106
C25	C	0.291780	-0.948403	0.000085
C26	C	0.791780	-0.448403	0.500085
C27	C	0.277280	-0.843079	0.000074
C28	C	0.777280	-0.343079	0.500074
C29	C	0.312610	-1.295142	0.000116
C30	C	0.812610	-0.795142	0.500116
C31	C	0.327110	-1.400466	0.000120
C32	C	0.827110	-0.900466	0.500120
C33	C	-0.149764	-1.032451	0.000089
C34	C	0.350236	-0.532451	0.500089
C35	C	-0.230823	-1.070473	0.088172
C36	C	0.269177	-0.570473	0.588172
C37	C	-0.244122	-1.081194	-0.087953
C38	C	0.255878	-0.581194	0.412047
C39	C	-0.151494	-1.162321	0.088262
C40	C	0.348506	-0.662321	0.588262
C41	C	-0.164791	-1.173035	-0.087943
C42	C	0.335209	-0.673035	0.412057
C43	C	-0.245814	-1.211122	0.000162
C44	C	0.254186	-0.711122	0.500162
C45	C	0.534783	-1.116440	0.000093
C46	C	1.034783	-0.616440	0.500093
C47	C	0.676700	-1.119279	0.000088
C48	C	1.176700	-0.619279	0.500088
N49	N	0.321431	-1.106335	0.254324
N50	N	0.821431	-0.606335	0.754324
C51	C	0.250773	-0.650235	0.000097
C52	C	0.750773	-0.150235	0.500097
C53	C	0.353611	-0.593304	0.000097
C54	C	0.853611	-0.093304	0.500097
C55	C	0.338862	-0.485999	0.000110
C56	C	0.838862	0.014001	0.500110
C57	C	0.265520	-0.757550	0.000084
C58	C	0.765520	-0.257550	0.500084
N59	N	0.282950	-1.137217	-0.254121
N60	N	0.782950	-0.637217	0.245879
C61	C	0.337981	-1.093067	0.473438
C62	C	0.837981	-0.593067	0.973438
C63	C	0.266404	-1.150482	0.526773
C64	C	0.766404	-0.650482	1.026773
C65	C	0.275613	-1.143099	0.648695
C66	C	0.775613	-0.643099	1.148695
C67	C	0.328774	-1.100449	0.351504
C68	C	0.828774	-0.600449	0.851504
H69	H	-0.260141	-1.027100	0.162633
H70	H	0.239859	-0.527100	0.662633
C71	C	-0.093013	-0.930466	0.000192
C72	C	0.406987	-0.430466	0.500192
C73	C	-0.115326	-0.856685	0.093498
C74	C	0.384674	-0.356685	0.593498
C75	C	-0.058572	-0.754703	0.093607
C76	C	0.441428	-0.254703	0.593607
C77	C	0.020496	-0.726503	0.000410
C78	C	0.520496	-0.226503	0.500410
C79	C	0.042813	-0.800286	-0.092903
C80	C	0.542813	-0.300286	0.407097
C81	C	-0.013942	-0.902267	-0.093012
C82	C	0.486058	-0.402267	0.406988
H83	H	-0.173860	-0.877558	0.162494
H84	H	0.326140	-0.377558	0.662494
H85	H	-0.075092	-0.700084	0.162684
H86	H	0.424908	-0.200084	0.662684
H87	H	0.062509	-0.651010	0.000491
H88	H	0.562509	-0.151010	0.500491
H89	H	0.101346	-0.779412	-0.161899
H90	H	0.601346	-0.279412	0.338101
H91	H	0.002579	-0.956886	-0.162089
H92	H	0.502579	-0.456886	0.337911
H93	H	0.406172	-1.038372	0.519337
H94	H	0.906172	-0.538372	1.019337
H95	H	0.452730	-0.625152	0.000088
H96	H	0.952730	-0.125152	0.500088
H97	H	0.151662	-0.618389	0.000106
H98	H	0.651662	-0.118389	0.500106
C99	C	0.174285	-1.224386	0.464765
C100	C	0.674285	-0.724386	0.964765
C101	C	0.165019	-1.231716	0.341080
C102	C	0.665019	-0.731716	0.841080
C103	C	0.072909	-1.305620	0.279066
C104	C	0.572909	-0.805620	0.779066
C105	C	-0.009934	-1.372192	0.340738
C106	C	0.490066	-0.872192	0.840738
C107	C	-0.000671	-1.364863	0.464431
C108	C	0.499329	-0.864863	0.964431
C109	C	0.091439	-1.290960	0.526444
C110	C	0.591439	-0.790960	1.026444
H111	H	0.226348	-1.182434	0.295420
H112	H	0.726348	-0.682434	0.795420
H113	H	0.066053	-1.311044	0.187500
H114	H	0.566053	-0.811044	0.687500
H115	H	-0.078120	-1.426899	0.294832
H116	H	0.421880	-0.926899	0.794832
H117	H	-0.061999	-1.414146	0.510090
H118	H	0.438001	-0.914146	1.010090
H119	H	0.098295	-1.285536	0.618010
H120	H	0.598295	-0.785536	1.118010
H121	H	-0.287570	-1.286677	0.000218
H122	H	0.212430	-0.786677	0.500218
H123	H	-0.111084	-1.196608	0.162813
H124	H	0.388916	-0.696608	0.662813
H125	H	-0.135444	-1.216375	-0.162407
H126	H	0.364556	-0.716375	0.337593
H127	H	-0.284662	-1.046857	-0.162428
H128	H	0.215338	-0.546857	0.337572
