data_functionalizedCrystal
_audit_creation_method	'MofGen! by Chris Wilmer'
_symmetry_space_group_name_H-M	'P1'
_symmetry_Int_Tables_number	1
_symmetry_cell_setting	triclinic
loop_
_symmetry_equiv_pos_as_xyz
  x,y,z
_cell_length_a	13.185408
_cell_length_b	14.044190
_cell_length_c	11.804402
_cell_angle_alpha	102.923968
_cell_angle_beta	82.232779
_cell_angle_gamma	72.582639
loop_
_atom_site_label
_atom_site_type_symbol
_atom_site_fract_x
_atom_site_fract_y
_atom_site_fract_z
O1	O	1.443178	-0.265087	-0.098903
O2	O	1.134810	-0.171342	-0.098936
O3	O	1.284356	-0.355012	-0.098896
O4	O	1.293631	-0.081417	-0.098942
O5	O	1.244981	-0.306695	0.099149
O6	O	1.095435	-0.123025	0.099110
O7	O	1.403803	-0.216770	0.099143
Cu8	Cu	1.246023	-0.165485	0.117209
Cu9	Cu	1.292589	-0.222626	-0.117002
O10	O	1.254256	-0.033100	0.099103
C11	C	1.075419	-0.137679	0.000083
C12	C	0.957116	-0.109373	0.000071
C13	C	0.897058	-0.008581	0.000052
C14	C	0.785902	0.018022	0.000058
C15	C	0.734796	-0.056167	0.000075
C16	C	0.794856	-0.156963	0.000086
C17	C	0.906020	-0.183566	0.000089
C18	C	0.743758	-0.231151	0.000111
C19	C	0.803818	-0.331947	0.000122
C20	C	0.914972	-0.358546	0.000124
C21	C	0.966078	-0.284358	0.000108
C22	C	0.632594	-0.204548	0.000108
C23	C	0.641557	-0.379533	0.000145
C24	C	0.752712	-0.406136	0.000138
C25	C	1.260615	-0.365133	0.000130
C26	C	1.248523	-0.467272	0.000139
C27	C	1.312174	-0.733804	0.000099
C28	C	1.226445	-0.654306	0.000098
C29	C	1.238732	-0.550231	0.000121
C30	C	1.299889	-0.837889	0.000076
C31	C	1.463194	-0.250433	0.000121
C32	C	1.581498	-0.278741	0.000125
C33	C	1.277998	-0.022979	0.000075
C34	C	1.290091	0.079158	0.000058
N35	N	1.213279	-0.125298	0.281941
C36	C	1.403960	-0.359334	0.655940
C37	C	1.428729	-0.389739	0.531285
C38	C	1.374868	-0.323632	0.468943
C39	C	1.296235	-0.227114	0.531269
C40	C	1.271469	-0.196702	0.655936
C41	C	1.242378	-0.161000	0.468939
C42	C	1.163745	-0.064482	0.531264
C43	C	1.138983	-0.034075	0.655919
C44	C	1.192843	-0.100183	0.718261
C45	C	1.267144	-0.191411	0.344271
C46	C	1.134653	-0.028779	0.344267
C47	C	1.109884	0.001626	0.468922
N48	N	1.325334	-0.262815	0.718266
H49	H	0.644288	-0.034500	0.000081
H50	H	1.394791	-0.723701	0.000120
H51	H	1.143821	-0.664407	0.000082
H52	H	1.045859	0.080214	0.519683
H53	H	1.331167	-0.269996	0.293537
H54	H	1.395039	-0.348392	0.367443
H55	H	0.938677	0.051814	0.000048
H56	H	1.492752	-0.468322	0.480545
H57	H	0.737009	0.100090	0.000049
H58	H	1.447812	-0.413147	0.706707
H59	H	1.172673	-0.075429	0.819766
H60	H	1.074964	0.044520	0.706664
H61	H	1.090797	0.025053	0.293509
H62	H	1.056589	-0.306012	0.000106
H63	H	0.583703	-0.122479	0.000101
H64	H	0.599957	-0.439957	0.000103
H65	H	0.801628	-0.488205	0.000147
H66	H	0.963867	-0.440617	0.000148
