data_functionalizedCrystal
_audit_creation_method	'MofGen! by Chris Wilmer'
_symmetry_space_group_name_H-M	'P1'
_symmetry_Int_Tables_number	1
_symmetry_cell_setting	triclinic
loop_
_symmetry_equiv_pos_as_xyz
  x,y,z
_cell_length_a	16.109301
_cell_length_b	10.540539
_cell_length_c	14.586319
_cell_angle_alpha	89.998343
_cell_angle_beta	89.999213
_cell_angle_gamma	83.993486
loop_
_atom_site_label
_atom_site_type_symbol
_atom_site_fract_x
_atom_site_fract_y
_atom_site_fract_z
O1	O	1.104129	0.163159	-0.076178
O2	O	0.862191	0.183464	-0.076192
O3	O	0.988679	-0.011474	-0.076184
O4	O	0.977640	0.358096	-0.076186
O5	O	0.988670	-0.011477	0.076297
O6	O	0.862182	0.183461	0.076289
O7	O	1.104120	0.163156	0.076303
Cu8	Cu	0.983150	0.173308	0.090219
Cu9	Cu	0.983160	0.173312	-0.090108
O10	O	0.977631	0.358094	0.076294
C11	C	0.831206	0.182640	0.000047
C12	C	0.738896	0.180174	0.000041
C13	C	0.987847	-0.058767	0.000055
C14	C	0.985370	-0.199679	0.000050
C15	C	0.517296	0.290112	0.000051
C16	C	0.430561	0.287785	0.000057
C17	C	0.449021	0.056499	0.000055
C18	C	0.535754	0.058827	0.000055
C19	C	0.569889	0.175637	0.000049
C20	C	0.396421	0.170982	0.000054
C21	C	0.302380	0.168459	0.000060
C22	C	0.663936	0.178162	0.000044
C23	C	0.890460	-0.381753	-0.000298
C24	C	0.892971	-0.235171	0.000046
C25	C	1.029832	-0.261973	0.087127
C26	C	1.026678	-0.408472	0.087200
C27	C	1.028567	-0.409014	-0.086199
C28	C	1.029419	-0.262044	-0.087350
C29	C	1.135104	0.163980	0.000062
C30	C	1.227414	0.166446	0.000062
C31	C	0.978463	0.405386	0.000054
C32	C	0.980940	0.546299	0.000053
N33	N	0.983149	0.173305	0.217050
N34	N	0.983168	0.173305	-0.216939
C35	C	1.039177	0.087015	0.452060
C36	C	1.039179	0.087012	0.548042
C37	C	0.927134	0.259598	0.548044
C38	C	0.927129	0.259594	0.452064
C39	C	0.983154	0.173304	0.404075
C40	C	0.983163	0.173305	0.596036
C41	C	0.983165	0.173303	0.700103
C42	C	0.983151	0.173305	0.300001
H43	H	0.545085	0.385227	0.000052
C44	C	0.411470	-0.071982	0.000050
H45	H	0.352282	-0.056976	0.000040
H46	H	0.429474	-0.119125	0.053221
H47	H	0.429479	-0.119105	-0.053132
C48	C	1.121498	-0.233094	0.091514
H49	H	1.147198	-0.271652	0.144672
H50	H	1.123624	-0.143443	0.094123
H51	H	1.150231	-0.266399	0.038453
C52	C	0.982269	-0.445941	0.175118
H53	H	0.966318	-0.371662	0.210451
H54	H	1.019067	-0.503521	0.209936
H55	H	0.934008	-0.485735	0.159203
H56	H	1.096785	-0.238783	-0.092605
C57	C	0.372712	0.413708	0.000052
H58	H	0.405467	0.483604	0.000042
H59	H	0.338493	0.417612	0.053225
H60	H	0.338496	0.417605	-0.053128
H61	H	0.578578	-0.034398	0.000056
C62	C	0.988179	-0.451053	-0.175361
H63	H	1.017860	-0.423139	-0.226571
H64	H	0.931762	-0.414551	-0.178040
H65	H	0.990008	-0.541418	-0.176479
H66	H	0.853964	-0.409832	-0.062742
H67	H	0.857734	-0.192914	0.062566
C68	C	1.116443	-0.474560	0.092559
H69	H	1.154674	-0.411837	0.094690
H70	H	1.127606	-0.526894	0.040057
H71	H	1.122430	-0.525702	0.146258
C72	C	0.865519	0.354521	0.600834
H73	H	0.873551	0.342176	0.664869
H74	H	0.809950	0.340717	0.585113
H75	H	0.875057	0.439244	0.585097
H76	H	0.857986	-0.192068	-0.062374
C77	C	0.865509	0.354523	0.399272
H78	H	0.873526	0.342153	0.335238
H79	H	0.875042	0.439244	0.414997
H80	H	0.809938	0.340713	0.415004
H81	H	0.854105	-0.411444	0.061793
H82	H	1.084795	0.016751	0.412990
H83	H	0.998939	-0.218934	0.151923
C84	C	0.985537	-0.206114	-0.174377
H85	H	0.940562	-0.145004	-0.157527
H86	H	0.964724	-0.272658	-0.208568
H87	H	1.024256	-0.166143	-0.210718
H88	H	1.095307	-0.457191	-0.086781
C89	C	1.100807	-0.007900	0.600822
H90	H	1.134174	-0.059282	0.558492
H91	H	1.070593	-0.060757	0.638268
H92	H	1.135688	0.037789	0.638258
