data_functionalizedCrystal
_audit_creation_method	'MofGen! by Chris Wilmer'
_symmetry_space_group_name_H-M	'P1'
_symmetry_Int_Tables_number	1
_symmetry_cell_setting	triclinic
loop_
_symmetry_equiv_pos_as_xyz
  x,y,z
_cell_length_a	14.519709
_cell_length_b	14.044220
_cell_length_c	12.503572
_cell_angle_alpha	86.156832
_cell_angle_beta	86.481314
_cell_angle_gamma	91.565489
loop_
_atom_site_label
_atom_site_type_symbol
_atom_site_fract_x
_atom_site_fract_y
_atom_site_fract_z
O1	O	-1.238751	0.118805	0.089169
O2	O	-0.738751	0.618805	0.589169
O3	O	-0.971456	0.133437	0.089205
O4	O	-0.471456	0.633437	0.589205
O5	O	-1.101091	-0.011870	0.089177
O6	O	-0.601091	0.488130	0.589177
O7	O	-1.109116	0.264112	0.089197
O8	O	-0.609116	0.764112	0.589197
O9	O	-1.091343	-0.000924	-0.089463
O10	O	-0.591343	0.499076	0.410537
O11	O	-0.961708	0.144383	-0.089435
O12	O	-0.461708	0.644383	0.410565
O13	O	-1.229003	0.129751	-0.089471
O14	O	-0.729003	0.629751	0.410529
Cu15	Cu	-1.094465	0.138067	-0.105764
Cu16	Cu	-0.594465	0.638067	0.394236
Cu17	Cu	-1.105993	0.125122	0.105498
Cu18	Cu	-0.605993	0.625122	0.605498
O19	O	-1.099368	0.275058	-0.089443
O20	O	-0.599368	0.775058	0.410557
C21	C	-0.932168	0.138228	-0.000111
C22	C	-0.432168	0.638228	0.499889
C23	C	-0.829622	0.136183	-0.000097
C24	C	-0.329622	0.636183	0.499903
C25	C	-1.092704	-0.041717	-0.000143
C26	C	-0.592704	0.458283	0.499857
C27	C	-1.082227	-0.146961	-0.000143
C28	C	-0.582227	0.353039	0.499857
C29	C	-0.454117	0.128662	-0.000143
C30	C	0.045883	0.628662	0.499857
C31	C	-0.558594	0.130751	-0.000130
C32	C	-0.058594	0.630751	0.499870
C33	C	-0.641866	0.132422	-0.000119
C34	C	-0.141866	0.632422	0.499881
C35	C	-0.746350	0.134512	-0.000108
C36	C	-0.246350	0.634512	0.499892
C37	C	-1.063074	-0.339655	-0.000125
C38	C	-0.563074	0.160345	0.499875
C39	C	-1.137381	-0.397162	-0.000132
C40	C	-0.637381	0.102838	0.499868
C41	C	-1.126724	-0.504384	-0.000122
C42	C	-0.626724	-0.004384	0.499878
C43	C	-1.073730	-0.232423	-0.000135
C44	C	-0.573730	0.267577	0.499865
C45	C	-0.268291	0.124960	-0.000151
C46	C	0.231709	0.624960	0.499849
C47	C	-0.370838	0.127004	-0.000149
C48	C	0.129162	0.627004	0.499851
C49	C	-1.107755	0.304905	-0.000121
C50	C	-0.607755	0.804905	0.499879
C51	C	-1.118232	0.410148	-0.000114
C52	C	-0.618232	0.910148	0.499886
N53	N	-1.086364	0.147171	-0.254355
N54	N	-0.586364	0.647171	0.245645
C55	C	-1.074447	0.160572	-0.473467
C56	C	-0.574447	0.660572	0.026533
C57	C	-1.126016	0.102612	-0.526806
C58	C	-0.626016	0.602612	-0.026806
C59	C	-1.119385	0.110069	-0.648728
C60	C	-0.619385	0.610069	-0.148728
C61	C	-1.081077	0.153116	-0.351535
C62	C	-0.581077	0.653116	0.148465
N63	N	-1.114101	0.116010	0.254088
N64	N	-0.614101	0.616010	0.754088
H65	H	-1.209006	-0.365874	-0.000069
H66	H	-0.709006	0.134126	0.499931
H67	H	-0.991459	-0.370947	-0.000113
H68	H	-0.491459	0.129053	0.499887
C69	C	-0.943870	0.188710	-0.600102
C70	C	-0.443870	0.688710	-0.100102
C71	C	-1.008135	0.235118	-0.535429
C72	C	-0.508135	0.735118	-0.035429
H73	H	-0.902939	0.234735	-0.638369
H74	H	-0.402939	0.734735	-0.138369
H75	H	-0.909723	0.146613	-0.556233
H76	H	-0.409723	0.646613	-0.056233
H77	H	-0.975366	0.153320	-0.649578
H78	H	-0.475366	0.653320	-0.149578
H79	H	-0.976639	0.270503	-0.485948
H80	H	-0.476639	0.770503	0.014052
H81	H	-1.042286	0.277232	-0.579302
H82	H	-0.542286	0.777232	-0.079302
C83	C	-1.282872	0.044811	-0.491652
C84	C	-0.782872	0.544811	0.008348
C85	C	-1.192253	0.028060	-0.464717
C86	C	-0.692253	0.528060	0.035283
H87	H	-1.323734	-0.001218	-0.453283
H88	H	-0.823734	0.498782	0.046717
H89	H	-1.299195	0.106966	-0.473321
H90	H	-0.799195	0.606966	0.026679
H91	H	-1.287144	0.040029	-0.566622
H92	H	-0.787144	0.540029	-0.066622
H93	H	-1.187979	0.032850	-0.389749
H94	H	-0.687979	0.532850	0.110251
H95	H	-1.175925	-0.034110	-0.483042
H96	H	-0.675925	0.465890	0.016958
