data_functionalizedCrystal
_audit_creation_method	'MofGen! by Chris Wilmer'
_symmetry_space_group_name_H-M	'P1'
_symmetry_Int_Tables_number	1
_symmetry_cell_setting	triclinic
loop_
_symmetry_equiv_pos_as_xyz
  x,y,z
_cell_length_a	19.077105
_cell_length_b	29.839131
_cell_length_c	19.076919
_cell_angle_alpha	87.732541
_cell_angle_beta	89.923776
_cell_angle_gamma	87.737628
loop_
_atom_site_label
_atom_site_type_symbol
_atom_site_fract_x
_atom_site_fract_y
_atom_site_fract_z
Zn1	Zn	1.058171	-0.217337	0.440392
Zn2	Zn	1.558171	0.282663	0.940392
Zn3	Zn	1.062777	-0.289569	0.322877
Zn4	Zn	1.562777	0.210431	0.822877
Zn5	Zn	0.945391	-0.211319	0.318186
Zn6	Zn	1.445391	0.288681	0.818186
Zn7	Zn	0.940599	-0.289298	0.435629
Zn8	Zn	1.440599	0.210702	0.935629
O9	O	1.001735	-0.251881	0.379271
O10	O	1.501735	0.248119	0.879271
O11	O	1.157112	-0.229551	0.428760
O12	O	1.657112	0.270449	0.928760
O13	O	1.051139	-0.276784	0.223924
O14	O	1.551139	0.223216	0.723924
O15	O	0.960429	-0.149253	0.334427
O16	O	1.460429	0.350747	0.834427
O17	O	1.160497	-0.282620	0.342422
O18	O	1.660497	0.217380	0.842422
O19	O	1.043288	-0.153674	0.424211
O20	O	1.543288	0.346326	0.924211
O21	O	0.964896	-0.219294	0.220477
O22	O	1.464896	0.280706	0.720477
O23	O	0.846425	-0.219031	0.329809
O24	O	1.346425	0.280969	0.829809
O25	O	0.952262	-0.282158	0.534592
O26	O	1.452262	0.217842	1.034592
O27	O	0.842904	-0.276322	0.416094
O28	O	1.342904	0.223678	0.916094
O29	O	1.038641	-0.229288	0.538091
O30	O	1.538641	0.270712	1.038091
O31	O	1.046493	-0.352398	0.337803
O32	O	1.546493	0.147602	0.837803
O33	O	0.956729	-0.352199	0.420642
O34	O	1.456729	0.147801	0.920642
C35	C	0.819169	-0.246995	0.371926
C36	C	1.319169	0.253005	0.871926
C37	C	0.741065	-0.244915	0.368801
C38	C	1.241065	0.255085	0.868801
C39	C	0.702560	-0.273809	0.412186
C40	C	1.202560	0.226191	0.912186
C41	C	0.629174	-0.271849	0.409252
C42	C	1.129174	0.228151	0.909252
C43	C	0.594294	-0.240998	0.362930
C44	C	1.094294	0.259002	0.862930
C45	C	0.632804	-0.212102	0.319543
C46	C	1.132804	0.287898	0.819543
C47	C	0.706189	-0.214059	0.322481
C48	C	1.206189	0.285941	0.822481
C49	C	0.375011	-0.231938	0.349338
C50	C	0.875011	0.268062	0.849338
C51	C	0.301621	-0.229984	0.346403
C52	C	0.801621	0.270016	0.846403
C53	C	0.297996	-0.289731	0.436113
C54	C	0.797996	0.210269	0.936113
C55	C	0.371382	-0.291688	0.439043
C56	C	0.871382	0.208312	0.939043
C57	C	0.409886	-0.262790	0.395659
C58	C	0.909886	0.237210	0.895659
N59	N	0.519281	-0.238996	0.359929
N60	N	1.019281	0.261004	0.859929
N61	N	0.484897	-0.264790	0.398664
N62	N	0.984897	0.235210	0.898664
C63	C	1.001609	-0.368599	0.379231
C64	C	1.501609	0.131401	0.879231
C65	C	1.001619	-0.418534	0.379240
C66	C	1.501619	0.081466	0.879240
C67	C	1.048554	-0.728276	0.336206
C68	C	1.548554	-0.228276	0.836206
C69	C	1.048639	-0.915952	0.336237
C70	C	1.548639	-0.415952	0.836237
O71	O	1.088445	-0.940297	0.299616
O72	O	1.588445	-0.440297	0.799616
N73	N	1.001878	-0.939328	0.379330
N74	N	1.501878	-0.439328	0.879330
C75	C	0.955095	-0.915782	0.422422
C76	C	1.455095	-0.415782	0.922422
O77	O	0.915329	-0.939972	0.459082
O78	O	1.415329	-0.439972	0.959082
C79	C	0.955014	-0.728107	0.422395
C80	C	1.455014	-0.228107	0.922395
C81	C	1.001773	-0.704734	0.379293
C82	C	1.501773	-0.204734	0.879293
C83	C	1.095310	-0.704902	0.293109
C84	C	1.595310	-0.204902	0.793109
C85	C	1.095285	-0.657986	0.293099
C86	C	1.595285	-0.157986	0.793099
C87	C	1.048505	-0.634443	0.336186
C88	C	1.548505	-0.134443	0.836186
C89	C	1.001749	-0.657817	0.379283
C90	C	1.501749	-0.157817	0.879283
C91	C	0.908235	-0.704563	0.465490
C92	C	1.408235	-0.204563	0.965490
C93	C	0.908220	-0.657641	0.465480
C94	C	1.408220	-0.157641	0.965480
C95	C	0.954979	-0.634267	0.422379
C96	C	1.454979	-0.134267	0.922379
C97	C	0.954944	-0.587358	0.422360
C98	C	1.454944	-0.087358	0.922360
N99	N	1.001705	-0.563982	0.379267
N100	N	1.501705	-0.063982	0.879267
C101	C	1.048485	-0.587525	0.336180
C102	C	1.548485	-0.087525	0.836180
C103	C	0.955141	-1.014314	0.422432
C104	C	1.455141	-0.514314	0.922432
C105	C	0.955160	-1.061233	0.422439
C106	C	1.455160	-0.561233	0.922439
C107	C	1.048705	-1.061399	0.336254
C108	C	1.548705	-0.561399	0.836254
C109	C	1.048682	-1.014480	0.336245
C110	C	1.548682	-0.514480	0.836245
C111	C	1.001902	-0.990938	0.379339
C112	C	1.501902	-0.490938	0.879339
C113	C	1.048430	-0.488997	0.336161
C114	C	1.548430	0.011003	0.836161
C115	C	1.048399	-0.442077	0.336153
C116	C	1.548399	0.057923	0.836153
C117	C	0.954857	-0.441914	0.422340
C118	C	1.454857	0.058086	0.922340
C119	C	0.954885	-0.488831	0.422346
C120	C	1.454885	0.011169	0.922346
C121	C	1.001677	-0.512371	0.379255
C122	C	1.501677	-0.012371	0.879255
O123	O	0.915164	-0.562985	0.458967
O124	O	1.415164	-0.062985	0.958967
O125	O	1.088256	-0.563328	0.299537
O126	O	1.588256	-0.063328	0.799537
C127	C	1.048578	-0.775192	0.336216
C128	C	1.548578	-0.275192	0.836216
C129	C	1.001822	-0.798566	0.379313
C130	C	1.501822	-0.298566	0.879313
C131	C	0.955041	-0.775024	0.422401
C132	C	1.455041	-0.275024	0.922401
C133	C	1.001841	-0.845485	0.379319
C134	C	1.501841	-0.345485	0.879319
C135	C	1.048622	-0.869027	0.336232
C136	C	1.548622	-0.369027	0.836232
C137	C	1.095383	-0.845651	0.293139
C138	C	1.595383	-0.345651	0.793139
C139	C	1.095359	-0.798735	0.293129
C140	C	1.595359	-0.298735	0.793129
C141	C	0.908280	-0.798400	0.465494
C142	C	1.408280	-0.298400	0.965494
C143	C	0.908308	-0.845316	0.465500
C144	C	1.408308	-0.345316	0.965500
C145	C	0.955089	-0.868859	0.422413
C146	C	1.455089	-0.368859	0.922413
C147	C	1.185013	-0.256787	0.386645
C148	C	1.685013	0.243213	0.886645
C149	C	1.263116	-0.258877	0.389788
C150	C	1.763116	0.241123	0.889788
C151	C	0.994403	-0.256364	0.562551
C152	C	1.494403	0.243636	1.062551
C153	C	0.991279	-0.258274	0.640654
C154	C	1.491279	0.241726	1.140654
C155	C	1.001879	-0.134708	0.379327
C156	C	1.501879	0.365292	0.879327
C157	C	1.001941	-0.084775	0.379351
C158	C	1.501941	0.415225	0.879351
C159	C	1.009078	-0.247384	0.196706
C160	C	1.509078	0.252616	0.696706
C161	C	1.012338	-0.245351	0.118609
C162	C	1.512338	0.254649	0.618609
C163	C	1.034782	-0.231647	0.679169
C164	C	1.534782	0.268353	1.179169
C165	C	1.031838	-0.233440	0.752555
C166	C	1.531838	0.266560	1.252555
C167	C	0.985394	-0.261863	0.787424
C168	C	1.485394	0.238137	1.287424
C169	C	0.941886	-0.288492	0.748903
C170	C	1.441886	0.211508	1.248903
C171	C	0.944827	-0.286696	0.675518
C172	C	1.444827	0.213304	1.175518
C173	C	0.971772	-0.270184	1.006704
C174	C	1.471772	0.229816	1.506704
C175	C	0.968835	-0.271978	1.080093
C176	C	1.468835	0.228022	1.580093
C177	C	1.058787	-0.216925	1.083741
C178	C	1.558787	0.283075	1.583741
C179	C	1.061727	-0.215134	1.010355
C180	C	1.561727	0.284866	1.510355
C181	C	1.018216	-0.241761	0.971840
C182	C	1.518216	0.258239	1.471840
N183	N	0.982385	-0.263698	0.862436
N184	N	1.482385	0.236302	1.362436
N185	N	1.021222	-0.239924	0.896830
N186	N	1.521222	0.260076	1.396830
H187	H	0.597826	-0.295378	0.444580
H188	H	1.097826	0.204622	0.944580
N189	N	0.927325	-0.297375	0.967362
N190	N	1.427325	0.202625	1.467362
N191	N	0.884205	-0.279366	0.924624
N192	N	1.384205	0.220634	1.424624
H193	H	0.852809	-0.298570	0.896836
H194	H	1.352809	0.201430	1.396836
H195	H	0.273224	-0.204856	0.308686
H196	H	0.773224	0.295144	0.808686
H197	H	1.133472	-0.864828	0.258053
H198	H	1.633472	-0.364828	0.758053
H199	H	0.870225	-0.864343	0.500597
H200	H	1.370225	-0.364343	1.000597
N201	N	1.096211	-0.513039	0.292130
N202	N	1.596211	-0.013039	0.792130
N203	N	1.073326	-0.537488	0.246342
N204	N	1.573326	-0.037488	0.746342
H205	H	1.107067	-0.554467	0.215241
H206	H	1.607067	-0.054467	0.715241
H207	H	0.917078	-1.080260	0.457529
H208	H	1.417078	-0.580260	0.957529
N209	N	0.407014	-0.323196	0.486365
N210	N	0.907014	0.176804	0.986365
N211	N	0.446202	-0.309627	0.532825
N212	N	0.946202	0.190373	1.032825
H213	H	0.471369	-0.331881	0.566243
H214	H	0.971369	0.168119	1.066243
H215	H	1.086796	-1.080576	0.301171
H216	H	1.586796	-0.580576	0.801171
H217	H	1.072604	-0.208503	0.650785
H218	H	1.572604	0.291497	1.150785
H219	H	0.870187	-0.779235	0.500582
H220	H	1.370187	-0.279235	1.000582
H221	H	0.266638	-0.313257	0.471435
H222	H	0.766638	0.186743	0.971435
N223	N	0.414324	-0.202420	0.305015
N224	N	0.914324	0.297580	0.805015
N225	N	0.383170	-0.174880	0.263656
N226	N	0.883170	0.325120	0.763656
H227	H	0.410938	-0.154033	0.232348
H228	H	0.910938	0.345967	0.732348
N229	N	0.894442	-0.317520	0.784528
N230	N	1.394442	0.182480	1.284528
N231	N	0.891822	-0.319120	0.850050
N232	N	1.391822	0.180880	1.350050
H233	H	0.858314	-0.339622	0.875210
H234	H	1.358314	0.160378	1.375210
H235	H	1.133363	-0.638958	0.258004
H236	H	1.633363	-0.138958	0.758004
N237	N	1.096157	-0.418203	0.292111
N238	N	1.596157	0.081797	0.792111
N239	N	1.094139	-0.421759	0.227085
N240	N	1.594139	0.078241	0.727085
H241	H	1.127867	-0.404900	0.195980
H242	H	1.627867	0.095100	0.695980
N243	N	1.143107	-0.728939	0.249091
N244	N	1.643107	-0.228939	0.749091
N245	N	1.184848	-0.708055	0.210621
N246	N	1.684848	-0.208055	0.710621
H247	H	1.218606	-0.725027	0.179528
H248	H	1.718606	-0.225027	0.679528
N249	N	1.096448	-0.990613	0.292212
N250	N	1.596448	-0.490613	0.792212
N251	N	1.138207	-1.011644	0.253743
N252	N	1.638207	-0.511644	0.753743
H253	H	1.171945	-0.994791	0.222643
H254	H	1.671945	-0.494791	0.722643
N255	N	0.597166	-0.180587	0.272235
N256	N	1.097166	0.319413	0.772235
N257	N	0.531644	-0.178843	0.269617
N258	N	1.031644	0.321157	0.769617
H259	H	0.506475	-0.156586	0.236204
H260	H	1.006475	0.343414	0.736204
H261	H	0.737539	-0.190529	0.287155
H262	H	1.237539	0.309471	0.787155
H263	H	1.094209	-0.195246	1.115107
H264	H	1.594209	0.304754	1.615107
N265	N	0.907349	-0.990278	0.466461
N266	N	1.407349	-0.490278	0.966461
N267	N	0.865605	-1.011160	0.504930
N268	N	1.365605	-0.511160	1.004930
H269	H	0.831850	-0.994187	0.536024
H270	H	1.331850	-0.494187	1.036024
H271	H	0.909395	-0.308375	0.644159
H272	H	1.409395	0.191625	1.144159
N273	N	0.738175	-0.305329	0.459501
N274	N	1.238175	0.194671	0.959501
N275	N	0.703784	-0.331124	0.498234
N276	N	1.203784	0.168876	0.998234
H277	H	0.728934	-0.353386	0.531653
H278	H	1.228934	0.146614	1.031653
N279	N	0.860465	-0.728424	0.509522
N280	N	1.360465	-0.228424	1.009522
N281	N	0.818709	-0.707389	0.547989
N282	N	1.318709	-0.207389	1.047989
H283	H	0.784969	-0.724240	0.579091
H284	H	1.284969	-0.224240	1.079091
N285	N	0.921365	-0.301001	1.115700
N286	N	1.421365	0.198999	1.615700
N287	N	0.882505	-0.324762	1.081304
N288	N	1.382505	0.175238	1.581304
H289	H	0.848972	-0.345254	1.106451
H290	H	1.348972	0.154746	1.606451
N291	N	0.860433	-0.633602	0.509511
N292	N	1.360433	-0.133602	1.009511
N293	N	0.818693	-0.654481	0.547989
N294	N	1.318693	-0.154481	1.047989
H295	H	0.784943	-0.637505	0.579085
H296	H	1.284943	-0.137505	1.079085
H297	H	1.067264	-0.211758	0.783912
H298	H	1.567264	0.288242	1.283912
N299	N	0.907107	-0.512702	0.466364
N300	N	1.407107	-0.012702	0.966364
N301	N	0.865337	-0.491673	0.504825
N302	N	1.365337	0.008327	1.004825
H303	H	0.831594	-0.508529	0.535917
H304	H	1.331594	-0.008529	1.035917
H305	H	0.916767	-0.422739	0.457419
H306	H	1.416767	0.077261	0.957419
H307	H	1.099548	-0.191990	0.981970
H308	H	1.599548	0.308010	1.481970
H309	H	1.133435	-0.779707	0.258032
H310	H	1.633435	-0.279707	0.758032
