data_functionalizedCrystal
_audit_creation_method	'MofGen! by Chris Wilmer'
_symmetry_space_group_name_H-M	'P1'
_symmetry_Int_Tables_number	1
_symmetry_cell_setting	triclinic
loop_
_symmetry_equiv_pos_as_xyz
  x,y,z
_cell_length_a	25.639239
_cell_length_b	13.032951
_cell_length_c	13.032268
_cell_angle_alpha	89.114265
_cell_angle_beta	97.141717
_cell_angle_gamma	97.159836
loop_
_atom_site_label
_atom_site_type_symbol
_atom_site_fract_x
_atom_site_fract_y
_atom_site_fract_z
Zn1	Zn	-0.353113	-1.498229	-0.780783
Zn2	Zn	0.146887	-0.998229	-0.280783
Zn3	Zn	-0.431007	-1.519917	-0.608782
Zn4	Zn	0.068993	-1.019917	-0.108782
Zn5	Zn	-0.331269	-1.348103	-0.587025
Zn6	Zn	0.168731	-0.848103	-0.087025
Zn7	Zn	-0.428176	-1.326168	-0.758903
Zn8	Zn	0.071824	-0.826168	-0.258903
O9	O	-0.385891	-1.423104	-0.683873
O10	O	0.114109	-0.923104	-0.183873
O11	O	-0.373772	-1.645019	-0.776229
O12	O	0.126228	-1.145019	-0.276229
O13	O	-0.409820	-1.515382	-0.461982
O14	O	0.090180	-1.015382	0.038018
O15	O	-0.261011	-1.368121	-0.612779
O16	O	0.238989	-0.868121	-0.112779
O17	O	-0.431001	-1.660953	-0.649861
O18	O	0.068999	-1.160953	-0.149861
O19	O	-0.277059	-1.478418	-0.755131
O20	O	0.222941	-0.978418	-0.255131
O21	O	-0.336542	-1.389151	-0.445997
O22	O	0.163458	-0.889151	0.054003
O23	O	-0.333797	-1.201280	-0.591563
O24	O	0.166203	-0.701280	-0.091563
O25	O	-0.426175	-1.330735	-0.905720
O26	O	0.073825	-0.830735	-0.405720
O27	O	-0.404994	-1.185164	-0.717841
O28	O	0.095006	-0.685164	-0.217841
O29	O	-0.371027	-1.457148	-0.921794
O30	O	0.128973	-0.957148	-0.421794
O31	O	-0.503787	-1.494112	-0.628645
O32	O	-0.003787	-0.994112	-0.128645
O33	O	-0.501707	-1.351765	-0.738938
O34	O	-0.001707	-0.851765	-0.238938
C35	C	-0.366718	-1.155907	-0.649967
C36	C	0.133282	-0.655907	-0.149967
C37	C	-0.358530	-1.041596	-0.635487
C38	C	0.141470	-0.541596	-0.135487
C39	C	-0.390152	-0.982698	-0.691417
C40	C	0.109848	-0.482698	-0.191417
C41	C	-0.381690	-0.864552	-0.676452
C42	C	0.118310	-0.364552	-0.176452
C43	C	-0.521719	-1.422937	-0.683804
C44	C	-0.021719	-0.922937	-0.183804
C45	C	-0.579835	-1.422955	-0.683821
C46	C	-0.079835	-0.922955	-0.183821
C47	C	-0.941300	-1.497381	-0.626578
C48	C	-0.441300	-0.997381	-0.126578
C49	C	-0.995908	-1.497419	-0.626596
C50	C	-0.495908	-0.997419	-0.126596
O51	O	-1.025066	-1.560526	-0.577852
O52	O	-0.525066	-1.060526	-0.077852
N53	N	-1.022147	-1.423276	-0.683964
N54	N	-0.522147	-0.923276	-0.183964
C55	C	-0.993776	-1.349096	-0.741326
C56	C	-0.493776	-0.849096	-0.241326
O57	O	-1.021109	-1.286036	-0.790124
O58	O	-0.521109	-0.786036	-0.290124
C59	C	-0.939170	-1.349063	-0.741312
C60	C	-0.439170	-0.849063	-0.241312
C61	C	-0.912933	-1.423205	-0.683932
C62	C	-0.412933	-0.923205	-0.183932
C63	C	-0.915063	-1.571518	-0.569203
C64	C	-0.415063	-1.071518	-0.069203
C65	C	-0.860458	-1.571478	-0.569183
C66	C	-0.360458	-1.071478	-0.069183
C67	C	-0.832091	-1.497302	-0.626537
C68	C	-0.332091	-0.997302	-0.126537
C69	C	-0.858328	-1.423166	-0.683912
C70	C	-0.358328	-0.923166	-0.183912
C71	C	-0.910801	-1.274889	-0.798678
C72	C	-0.410801	-0.774889	-0.298678
C73	C	-0.856191	-1.274863	-0.798660
C74	C	-0.356191	-0.774863	-0.298660
C75	C	-0.829954	-1.349005	-0.741280
C76	C	-0.329954	-0.849005	-0.241280
C77	C	-0.775357	-1.348950	-0.741246
C78	C	-0.275357	-0.848950	-0.241246
N79	N	-0.749118	-1.423093	-0.683878
N80	N	-0.249118	-0.923093	-0.183878
C81	C	-0.777485	-1.497269	-0.626524
C82	C	-0.277485	-0.997269	-0.126524
C83	C	-1.108453	-1.349172	-0.741351
C84	C	-0.608453	-0.849172	-0.241351
C85	C	-1.163058	-1.349199	-0.741360
C86	C	-0.663058	-0.849199	-0.241360
C87	C	-1.165186	-1.497524	-0.626632
C88	C	-0.665186	-0.997524	-0.126632
C89	C	-1.110580	-1.497491	-0.626618
C90	C	-0.610580	-0.997491	-0.126618
C91	C	-1.082214	-1.423315	-0.683983
C92	C	-0.582214	-0.923315	-0.183983
C93	C	-0.662812	-1.497180	-0.626485
C94	C	-0.162812	-0.997180	-0.126485
C95	C	-0.608202	-1.497131	-0.626467
C96	C	-0.108202	-0.997131	-0.126467
C97	C	-0.606079	-1.348810	-0.741199
C98	C	-0.106079	-0.848810	-0.241199
C99	C	-0.660684	-1.348855	-0.741213
C100	C	-0.160684	-0.848855	-0.241213
C101	C	-0.689049	-1.423049	-0.683854
C102	C	-0.189049	-0.923049	-0.183854
O103	O	-0.746165	-1.285878	-0.789969
O104	O	-0.246165	-0.785878	-0.289969
O105	O	-0.750147	-1.560328	-0.577744
O106	O	-0.250147	-1.060328	-0.077744
C107	C	-0.249536	-1.423297	-0.683969
C108	C	0.250464	-0.923297	-0.183969
C109	C	-0.191430	-1.423379	-0.684009
C110	C	0.308570	-0.923379	-0.184009
C111	C	-0.400722	-1.389075	-0.952116
C112	C	0.099278	-0.889075	-0.452116
C113	C	-0.407042	-1.374575	-1.066425
C114	C	0.092958	-0.874575	-0.566425
C115	C	-0.405133	-0.691345	-0.717905
C116	C	0.094867	-0.191345	-0.217905
C117	C	-0.413317	-0.805656	-0.732390
C118	C	0.086683	-0.305656	-0.232390
C119	C	-0.382573	-1.430656	-1.125340
C120	C	0.117427	-0.930656	-0.625340
C121	C	-0.389104	-1.415670	-1.243485
C122	C	0.110896	-0.915670	-0.743485
C123	C	-0.371085	-1.457059	-0.416682
C124	C	0.128915	-0.957059	0.083318
C125	C	-0.364632	-1.471759	-0.302399
C126	C	0.135368	-0.971759	0.197601
H127	H	-0.423488	-1.019741	-0.750384
H128	H	0.076512	-0.519741	-0.250384
H129	H	-0.348348	-0.827513	-0.617489
H130	H	0.151652	-0.327513	-0.117489
H131	H	-0.356787	-1.489760	-1.088314
H132	H	0.143213	-0.989760	-0.588314
H133	H	-1.089221	-1.557864	-0.579895
H134	H	-0.589221	-1.057864	-0.079895
H135	H	-0.446654	-0.842692	-0.791364
H136	H	0.053346	-0.342692	-0.291364
H137	H	-1.188293	-1.557925	-0.579935
H138	H	-0.688293	-1.057925	-0.079935
H139	H	-0.325190	-1.004553	-0.576528
H140	H	0.174810	-0.504553	-0.076528
H141	H	-0.586842	-1.557507	-0.579737
H142	H	-0.086842	-1.057507	-0.079737
H143	H	-0.582974	-1.288414	-0.787892
H144	H	-0.082974	-0.788414	-0.287892
F145	F	-0.422805	-1.338400	-1.291869
F146	F	0.077195	-0.838400	-0.791869
H147	H	-0.682047	-1.288486	-0.787940
H148	H	-0.182047	-0.788486	-0.287940
H149	H	-0.338843	-1.530866	-1.265379
H150	H	0.161157	-1.030866	-0.765379
F151	F	-0.692993	-1.576145	-0.565437
F152	F	-0.192993	-1.076145	-0.065437
F153	F	-0.440741	-1.297309	-1.114813
F154	F	0.059259	-0.797309	-0.614813
H155	H	-1.184414	-1.288817	-0.788073
H156	H	-0.684414	-0.788817	-0.288073
H157	H	-0.839100	-1.631853	-0.522463
H158	H	-0.339100	-1.131853	-0.022463
H159	H	-0.938154	-1.631926	-0.522499
H160	H	-0.438154	-1.131926	-0.022499
H161	H	-0.932153	-1.214510	-0.845398
H162	H	-0.432153	-0.714510	-0.345398
F163	F	-1.078268	-1.270212	-0.802403
F164	F	-0.578268	-0.770212	-0.302403
H165	H	-0.833098	-1.214461	-0.845377
H166	H	-0.333098	-0.714461	-0.345377
