data_functionalizedCrystal
_audit_creation_method	'MofGen! by Chris Wilmer'
_symmetry_space_group_name_H-M	'P1'
_symmetry_Int_Tables_number	1
_symmetry_cell_setting	triclinic
loop_
_symmetry_equiv_pos_as_xyz
  x,y,z
_cell_length_a	18.215407
_cell_length_b	21.295416
_cell_length_c	18.215399
_cell_angle_alpha	89.970321
_cell_angle_beta	90.019833
_cell_angle_gamma	89.969221
loop_
_atom_site_label
_atom_site_type_symbol
_atom_site_fract_x
_atom_site_fract_y
_atom_site_fract_z
Zn1	Zn	1.125044	0.250608	0.416107
Zn2	Zn	1.625044	0.750608	0.916107
Zn3	Zn	1.124941	0.355879	0.293037
Zn4	Zn	1.624941	0.855879	0.793037
Zn5	Zn	1.001977	0.250629	0.293054
Zn6	Zn	1.501977	0.750629	0.793054
Zn7	Zn	1.001931	0.355844	0.416062
Zn8	Zn	1.501931	0.855844	0.916062
O9	O	1.063473	0.303240	0.354565
O10	O	1.563473	0.803240	0.854565
O11	O	1.228015	0.264579	0.399793
O12	O	1.728015	0.764579	0.899793
O13	O	1.108605	0.341941	0.190055
O14	O	1.608605	0.841941	0.690055
O15	O	1.018364	0.162537	0.309404
O16	O	1.518364	0.662537	0.809404
O17	O	1.227939	0.341921	0.309374
O18	O	1.727939	0.841921	0.809374
O19	O	1.108781	0.162521	0.399810
O20	O	1.608781	0.662521	0.899810
O21	O	1.018264	0.264614	0.190068
O22	O	1.518264	0.764614	0.690068
O23	O	0.898986	0.264580	0.309360
O24	O	1.398986	0.764580	0.809360
O25	O	1.018286	0.341861	0.519052
O26	O	1.518286	0.841861	1.019052
O27	O	0.898953	0.341881	0.399733
O28	O	1.398953	0.841881	0.899733
O29	O	1.108737	0.264545	0.519085
O30	O	1.608737	0.764545	1.019085
O31	O	1.108561	0.443964	0.309330
O32	O	1.608561	0.943964	0.809330
O33	O	1.018186	0.443938	0.399716
O34	O	1.518186	0.943938	0.899716
C35	C	0.872267	0.303229	0.354544
C36	C	1.372267	0.803229	0.854544
C37	C	0.790468	0.303240	0.354552
C38	C	1.290468	0.803240	0.854552
C39	C	1.063377	0.466792	0.354533
C40	C	1.563377	0.966792	0.854533
C41	C	1.063404	0.536760	0.354543
C42	C	1.563404	1.036760	0.854543
C43	C	0.602276	0.343554	0.401551
C44	C	1.102276	0.843554	0.901551
C45	C	0.525417	0.343556	0.401560
C46	C	1.025417	0.843556	0.901560
C47	C	0.525422	0.262938	0.307596
C48	C	1.025422	0.762938	0.807596
C49	C	0.602280	0.262933	0.307591
C50	C	1.102280	0.762933	0.807591
C51	C	0.640704	0.303245	0.354567
C52	C	1.140704	0.803245	0.854567
C53	C	0.486988	0.303251	0.354581
C54	C	0.986988	0.803251	0.854581
C55	C	0.403655	0.303253	0.354591
C56	C	0.903655	0.803253	0.854591
C57	C	0.724043	0.303242	0.354559
C58	C	1.224043	0.803242	0.854559
C59	C	1.110504	0.569619	0.307529
C60	C	1.610504	1.069619	0.807529
C61	C	1.110538	0.635361	0.307549
C62	C	1.610538	1.135361	0.807549
C63	C	1.063460	0.668242	0.354575
C64	C	1.563460	1.168242	0.854575
C65	C	1.016356	0.635375	0.401598
C66	C	1.516356	1.135375	0.901598
C67	C	1.016328	0.569634	0.401582
C68	C	1.516328	1.069634	0.901582
N69	N	0.999082	0.771508	0.360184
N70	N	1.499082	1.271508	0.860184
N71	N	0.999110	0.833960	0.360195
N72	N	1.499110	1.333960	0.860195
C73	C	1.063543	0.866317	0.354627
C74	C	1.563543	1.366317	0.854627
N75	N	1.127947	0.833863	0.349035
N76	N	1.627947	1.333863	0.849035
N77	N	1.127917	0.771406	0.349020
N78	N	1.627917	1.271406	0.849020
C79	C	1.063485	0.739528	0.354598
C80	C	1.563485	1.239528	0.854598
C81	C	1.110685	0.970462	0.307632
C82	C	1.610685	1.470462	0.807632
C83	C	1.110721	1.036205	0.307658
C84	C	1.610721	1.536205	0.807658
C85	C	1.016532	1.036218	0.401703
C86	C	1.516532	1.536218	0.901703
C87	C	1.016503	0.970475	0.401682
C88	C	1.516503	1.470475	0.901682
C89	C	1.063578	0.937601	0.354643
C90	C	1.563578	1.437601	0.854643
C91	C	1.255426	0.303251	0.354587
C92	C	1.755426	0.803251	0.854587
C93	C	1.337225	0.303256	0.354596
C94	C	1.837225	0.803256	0.854596
C95	C	1.063518	0.303197	0.546518
C96	C	1.563518	0.803197	1.046518
C97	C	1.063537	0.303178	0.628317
C98	C	1.563537	0.803178	1.128317
C99	C	1.063590	1.139050	0.354626
C100	C	1.563590	1.639050	0.854626
C101	C	1.063643	1.069082	0.354685
C102	C	1.563643	1.569082	0.854685
C103	C	1.063471	0.303238	0.163359
C104	C	1.563471	0.803238	0.663359
C105	C	1.063594	0.303079	0.081560
C106	C	1.563594	0.803079	0.581560
C107	C	1.110652	0.262882	0.816529
C108	C	1.610652	0.762882	1.316529
C109	C	1.110660	0.262863	0.893388
C110	C	1.610660	0.762863	1.393388
C111	C	1.016474	0.343377	0.893343
C112	C	1.516474	0.843377	1.393343
C113	C	1.016463	0.343392	0.816485
C114	C	1.516463	0.843392	1.316485
C115	C	1.063555	0.303145	0.778081
C116	C	1.563555	0.803145	1.278081
C117	C	1.063576	0.303112	0.931797
C118	C	1.563576	0.803112	1.431797
C119	C	1.063585	0.303093	1.015130
C120	C	1.563585	0.803093	1.515130
C121	C	1.063545	0.303164	0.694742
C122	C	1.563545	0.803164	1.194742
H123	H	0.633559	0.376377	0.439804
H124	H	1.133559	0.876377	0.939804
F125	F	0.643181	0.220025	0.257586
F126	F	1.143181	0.720025	0.757586
F127	F	0.966361	0.386211	0.934222
F128	F	1.466361	0.886211	1.434222
H129	H	1.149080	1.062958	0.269374
H130	H	1.649080	1.562958	0.769374
H131	H	0.494132	0.376379	0.439820
H132	H	0.994132	0.876379	0.939820
H133	H	0.978106	0.376179	0.785179
H134	H	1.478106	0.876179	1.285179
F135	F	0.484522	0.220038	0.257602
F136	F	0.984522	0.720038	0.757602
F137	F	1.160785	0.935472	0.257570
F138	F	1.660785	1.435472	0.757570
H139	H	1.148896	0.662121	0.269265
H140	H	1.648896	1.162121	0.769265
H141	H	0.978203	1.062989	0.439996
H142	H	1.478203	1.562989	0.939996
H143	H	1.148837	0.542855	0.269229
H144	H	1.648837	1.042855	0.769229
H145	H	0.978026	0.662151	0.439889
H146	H	1.478026	1.162151	0.939889
H147	H	0.978146	0.943720	0.439962
H148	H	1.478146	1.443720	0.939962
F149	F	1.160792	0.220014	0.934305
F150	F	1.660792	0.720014	1.434305
H151	H	0.977973	0.542879	0.439868
H152	H	1.477973	1.042879	0.939868
F153	F	1.160770	0.220046	0.775659
F154	F	1.660770	0.720046	1.275659
