data_functionalizedCrystal
_audit_creation_method	'MofGen! by Chris Wilmer'
_symmetry_space_group_name_H-M	'P1'
_symmetry_Int_Tables_number	1
_symmetry_cell_setting	triclinic
loop_
_symmetry_equiv_pos_as_xyz
  x,y,z
_cell_length_a	16.109318
_cell_length_b	9.730223
_cell_length_c	16.109301
_cell_angle_alpha	89.997247
_cell_angle_beta	96.534978
_cell_angle_gamma	89.996622
loop_
_atom_site_label
_atom_site_type_symbol
_atom_site_fract_x
_atom_site_fract_y
_atom_site_fract_z
O1	O	1.103118	0.114180	-0.106932
O2	O	0.861058	0.114208	-0.120216
O3	O	0.988738	0.114179	0.007456
O4	O	0.975438	0.114209	-0.234605
O5	O	0.988736	-0.114401	0.007453
O6	O	0.861057	-0.114372	-0.120220
O7	O	1.103117	-0.114400	-0.106935
Zn8	Zn	0.982086	-0.150678	-0.113578
Zn9	Zn	0.982088	0.150486	-0.113574
O10	O	0.975437	-0.114371	-0.234608
C11	C	0.830083	-0.000078	-0.119677
C12	C	0.737788	-0.000068	-0.118057
C13	C	0.438715	0.124506	-0.112820
C14	C	0.525437	0.124515	-0.114337
C15	C	0.525454	-0.124696	-0.114329
C16	C	0.438735	-0.124703	-0.112806
C17	C	0.395367	-0.000098	-0.112056
C18	C	0.568807	-0.000082	-0.115096
C19	C	0.662835	-0.000074	-0.116742
C20	C	0.301334	-0.000106	-0.110409
N21	N	0.982091	-0.356214	-0.113580
C22	C	1.038642	-0.428153	-0.057066
C23	C	1.038640	-0.572036	-0.057056
C24	C	0.925533	-0.572029	-0.170082
C25	C	0.925532	-0.428148	-0.170087
C26	C	1.095201	-0.356219	-0.000559
C27	C	1.151757	-0.428158	0.055960
C28	C	1.151755	-0.572041	0.055970
C29	C	1.095197	-0.643985	-0.000539
C30	C	1.134092	-0.000111	-0.107474
C31	C	1.226387	-0.000112	-0.109095
C32	C	0.988198	-0.000111	0.038430
C33	C	0.986583	-0.000113	0.130725
N34	N	0.982090	0.356022	-0.113565
C35	C	0.975976	-0.000077	-0.265581
C36	C	0.977592	-0.000067	-0.357877
C37	C	1.058590	-0.000100	0.352993
C38	C	1.057066	-0.000088	0.439713
C39	C	0.905579	-0.000076	0.419848
C40	C	0.907104	-0.000077	0.333130
C41	C	0.983612	-0.000096	0.299704
C42	C	0.980563	-0.000083	0.473144
C43	C	0.978910	-0.000071	0.567170
C44	C	0.985265	-0.000106	0.205672
H45	H	1.095210	-0.239062	-0.000564
Cl46	Cl	0.809402	-0.000053	0.461875
Cl47	Cl	0.384236	-0.281361	-0.111843
H48	H	0.846043	-0.000071	0.289740
H49	H	0.560774	-0.226144	-0.114942
H50	H	1.197801	-0.369574	0.101972
H51	H	1.197800	-0.630612	0.101994
H52	H	1.118121	-0.000088	0.483098
Cl53	Cl	1.095191	-0.824868	-0.000515
Cl54	Cl	0.854439	-0.662472	-0.241119
H55	H	1.120888	-0.000112	0.325781
H56	H	0.403408	0.225968	-0.112208
H57	H	0.879482	-0.369575	-0.216106
H58	H	0.560727	0.225980	-0.114958
