data_functionalizedCrystal
_audit_creation_method	'MofGen! by Chris Wilmer'
_symmetry_space_group_name_H-M	'P1'
_symmetry_Int_Tables_number	1
_symmetry_cell_setting	triclinic
loop_
_symmetry_equiv_pos_as_xyz
  x,y,z
_cell_length_a	21.295120
_cell_length_b	16.625548
_cell_length_c	16.625545
_cell_angle_alpha	89.971982
_cell_angle_beta	89.645918
_cell_angle_gamma	90.067019
loop_
_atom_site_label
_atom_site_type_symbol
_atom_site_fract_x
_atom_site_fract_y
_atom_site_fract_z
Zn1	Zn	0.355956	1.233026	0.318364
Zn2	Zn	0.855956	1.733026	0.818364
Zn3	Zn	0.250692	1.232809	0.453980
Zn4	Zn	0.750692	1.732809	0.953980
Zn5	Zn	0.250697	1.098078	0.319168
Zn6	Zn	0.750697	1.598078	0.819168
Zn7	Zn	0.355927	1.098148	0.453162
Zn8	Zn	0.855927	1.598148	0.953162
O9	O	0.303318	1.165515	0.386169
O10	O	0.803318	1.665515	0.886169
O11	O	0.342002	1.345830	0.336361
O12	O	0.842002	1.845830	0.836361
O13	O	0.162600	1.214817	0.436776
O14	O	0.662600	1.714817	0.936776
O15	O	0.264675	1.116041	0.206229
O16	O	0.764675	1.616041	0.706229
O17	O	0.264665	1.345670	0.435997
O18	O	0.764665	1.845670	0.935997
O19	O	0.342008	1.215187	0.205639
O20	O	0.842008	1.715187	0.705639
O21	O	0.162604	1.115831	0.337730
O22	O	0.662604	1.615831	0.837730
O23	O	0.264647	0.985255	0.336936
O24	O	0.764647	1.485255	0.836936
O25	O	0.444023	1.116160	0.434602
O26	O	0.944023	1.616160	0.934602
O27	O	0.341958	0.985306	0.435381
O28	O	0.841958	1.485306	0.935381
O29	O	0.444044	1.215254	0.335567
O30	O	0.944044	1.715254	0.835567
O31	O	0.264637	1.214884	0.566704
O32	O	0.764637	1.714884	1.066704
O33	O	0.341953	1.115949	0.566103
O34	O	0.841953	1.615949	1.066103
C35	C	0.303300	0.956025	0.386157
C36	C	0.803300	1.456025	0.886157
C37	C	0.303308	0.866403	0.386172
C38	C	0.803308	1.366403	0.886172
C39	C	0.303335	0.538228	0.386177
C40	C	0.803335	1.038228	0.886177
C41	C	0.303325	0.629536	0.386173
C42	C	0.803325	1.129536	0.886173
C43	C	0.303321	0.702313	0.386175
C44	C	0.803321	1.202313	0.886175
C45	C	0.303312	0.793627	0.386170
C46	C	0.803312	1.293627	0.886170
C47	C	0.139761	1.165339	0.387371
C48	C	0.639761	1.665339	0.887371
C49	C	0.069791	1.165400	0.387683
C50	C	0.569791	1.665400	0.887683
C51	C	0.037446	1.216637	0.335539
C52	C	0.537446	1.716637	0.835539
C53	C	-0.028295	1.216696	0.335131
C54	C	0.471705	1.716696	0.835131
C55	C	-0.061688	1.165504	0.386860
C56	C	0.438312	1.665504	0.886860
C57	C	-0.029335	1.114265	0.439014
C58	C	0.470665	1.614265	0.939014
C59	C	0.036405	1.114212	0.439425
C60	C	0.536405	1.614212	0.939425
N61	N	-0.165061	1.095050	0.392907
N62	N	0.334939	1.595050	0.892907
N63	N	-0.227510	1.095102	0.392511
N64	N	0.272490	1.595102	0.892511
C65	C	-0.259757	1.165660	0.385624
C66	C	0.240243	1.665660	0.885624
N67	N	-0.227194	1.236165	0.379132
N68	N	0.272806	1.736165	0.879132
N69	N	-0.164739	1.236112	0.379524
N70	N	0.335261	1.736112	0.879524
C71	C	-0.132971	1.165556	0.386420
C72	C	0.367029	1.665556	0.886420
C73	C	-0.363386	1.216964	0.333036
C74	C	0.136614	1.716964	0.833036
C75	C	-0.429127	1.217025	0.332634
C76	C	0.070873	1.717025	0.832634
C77	C	-0.430166	1.114587	0.436512
C78	C	0.069834	1.614587	0.936512
C79	C	-0.364425	1.114533	0.436918
C80	C	0.135575	1.614533	0.936918
C81	C	-0.331039	1.165721	0.385176
C82	C	0.168961	1.665721	0.885176
C83	C	0.467514	1.165739	0.384903
C84	C	0.967514	1.665739	0.884903
C85	C	0.537484	1.165834	0.384364
C86	C	1.037484	1.665834	0.884364
C87	C	0.303305	1.165423	0.595659
C88	C	0.803305	1.665423	1.095659
C89	C	0.303320	1.165457	0.685280
C90	C	0.803320	1.665457	1.185280
C91	C	0.303336	1.375824	0.386181
C92	C	0.803336	1.875824	0.886181
C93	C	0.303344	1.465445	0.386186
C94	C	0.803344	1.965445	0.886186
C95	C	0.303335	1.165486	0.758063
C96	C	0.803335	1.665486	1.258063
C97	C	0.303352	1.165531	0.849371
C98	C	0.803352	1.665531	1.349371
C99	C	0.303362	1.165571	0.922147
C100	C	0.803362	1.665571	1.422147
C101	C	0.303378	1.165615	1.013462
C102	C	0.803378	1.665615	1.513462
C103	C	0.303353	1.165624	1.175859
C104	C	0.803353	1.665624	1.675859
C105	C	0.303388	1.165655	1.086238
C106	C	0.803388	1.665655	1.586238
H107	H	0.064625	1.258321	0.293409
H108	H	0.564625	1.758321	0.793409
H109	H	-0.054636	1.258418	0.292667
H110	H	0.445364	1.758418	0.792667
H111	H	-0.056527	1.072585	0.481133
H112	H	0.443473	1.572585	0.981133
N113	N	0.071296	1.058949	0.495669
N114	N	0.571296	1.558949	0.995669
H115	H	0.040169	1.026529	0.528381
H116	H	0.540169	1.526529	1.028381
H117	H	0.098799	1.021391	0.463288
H118	H	0.598799	1.521391	0.963288
H119	H	-0.336201	1.258644	0.290903
H120	H	0.163799	1.758644	0.790903
N121	N	-0.464018	1.272296	0.276397
N122	N	0.035982	1.772296	0.776397
H123	H	-0.432890	1.304712	0.243682
H124	H	0.067110	1.804712	0.743682
H125	H	-0.491022	1.239246	0.239154
H126	H	0.008978	1.739246	0.739154
H127	H	-0.457354	1.072909	0.478634
H128	H	0.042646	1.572909	0.978634
N129	N	-0.329533	1.059268	0.493157
N130	N	0.170467	1.559268	0.993157
H131	H	-0.360661	1.026846	0.525865
H132	H	0.139339	1.526846	1.025865
H133	H	-0.302029	1.021712	0.460776
H134	H	0.197971	1.521712	0.960776
