data_functionalizedCrystal
_audit_creation_method	'MofGen! by Chris Wilmer'
_symmetry_space_group_name_H-M	'P1'
_symmetry_Int_Tables_number	1
_symmetry_cell_setting	triclinic
loop_
_symmetry_equiv_pos_as_xyz
  x,y,z
_cell_length_a	18.101398
_cell_length_b	18.101395
_cell_length_c	17.077396
_cell_angle_alpha	90.029227
_cell_angle_beta	89.974604
_cell_angle_gamma	89.964856
loop_
_atom_site_label
_atom_site_type_symbol
_atom_site_fract_x
_atom_site_fract_y
_atom_site_fract_z
Zn1	Zn	1.132093	0.294874	-0.443962
Zn2	Zn	1.632093	0.794874	0.056038
Zn3	Zn	1.131974	0.418723	-0.312694
Zn4	Zn	1.631974	0.918723	0.187306
Zn5	Zn	1.008251	0.294895	-0.312697
Zn6	Zn	1.508251	0.794895	0.187303
Zn7	Zn	1.008189	0.418674	-0.443904
Zn8	Zn	1.508189	0.918674	0.056096
O9	O	1.070127	0.356792	-0.378314
O10	O	1.570127	0.856792	0.121686
O11	O	1.235710	0.311315	-0.426572
O12	O	1.735710	0.811315	0.073428
O13	O	1.115538	0.402326	-0.202848
O14	O	1.615538	0.902326	0.297152
O15	O	1.024754	0.191259	-0.330134
O16	O	1.524754	0.691259	0.169866
O17	O	1.235623	0.402306	-0.330130
O18	O	1.735623	0.902306	0.169870
O19	O	1.115741	0.191244	-0.426574
O20	O	1.615741	0.691244	0.073426
O21	O	1.024639	0.311350	-0.202849
O22	O	1.524639	0.811350	0.297151
O23	O	0.904610	0.311303	-0.330078
O24	O	1.404610	0.811303	0.169922
O25	O	1.024649	0.402222	-0.553759
O26	O	1.524649	0.902222	-0.053759
O27	O	0.904564	0.402242	-0.426476
O28	O	1.404564	0.902242	0.073524
O29	O	1.115681	0.311267	-0.553801
O30	O	1.615681	0.811267	-0.053801
O31	O	1.115478	0.522349	-0.330075
O32	O	1.615478	1.022349	0.169925
O33	O	1.024534	0.522313	-0.426474
O34	O	1.524534	1.022313	0.073526
C35	C	0.877716	0.356770	-0.378272
C36	C	1.377716	0.856770	0.121728
C37	C	0.795402	0.356778	-0.378272
C38	C	1.295402	0.856778	0.121728
C39	C	0.644694	0.356793	-0.378307
C40	C	1.144694	0.856793	0.121693
C41	C	0.613343	0.299495	-0.317757
C42	C	1.113343	0.799495	0.182243
C43	C	0.527725	0.299279	-0.317956
C44	C	1.027725	0.799279	0.182044
C45	C	0.496311	0.356808	-0.378341
C46	C	0.996311	0.856808	0.121659
C47	C	0.527454	0.335975	-0.461161
C48	C	1.027454	0.835975	0.038839
C49	C	0.613099	0.335550	-0.460792
C50	C	1.113099	0.835550	0.039208
C51	C	0.613081	0.435074	-0.356767
C52	C	1.113081	0.935074	0.143233
C53	C	0.527430	0.434662	-0.354962
C54	C	1.027430	0.934662	0.145038
C55	C	0.412451	0.356818	-0.378365
C56	C	0.912451	0.856818	0.121635
C57	C	0.728553	0.356782	-0.378289
C58	C	1.228553	0.856782	0.121711
C59	C	1.070006	0.549202	-0.378285
C60	C	1.570006	1.049202	0.121715
C61	C	1.070023	0.631516	-0.378299
C62	C	1.570023	1.131516	0.121701
C63	C	1.070093	0.782225	-0.378333
C64	C	1.570093	1.282225	0.121667
C65	C	1.012841	0.813587	-0.438939
C66	C	1.512841	1.313587	0.061061
C67	C	1.013049	0.899205	-0.439196
C68	C	1.513049	1.399205	0.060804
C69	C	1.070162	0.930607	-0.378367
C70	C	1.570162	1.430607	0.121633
C71	C	1.148240	0.899427	-0.400629
C72	C	1.648240	1.399427	0.099371
C73	C	1.147869	0.813782	-0.401050
C74	C	1.647869	1.313782	0.098950
C75	C	1.049964	0.813862	-0.295320
C76	C	1.549964	1.313862	0.204680
C77	C	1.048282	0.899514	-0.295781
C78	C	1.548282	1.399514	0.204219
C79	C	1.070205	1.014467	-0.378384
C80	C	1.570205	1.514467	0.121616
C81	C	1.070055	0.698365	-0.378317
C82	C	1.570055	1.198365	0.121683
C83	C	1.263288	0.356814	-0.378358
C84	C	1.763288	0.856814	0.121642
C85	C	1.345603	0.356824	-0.378376
C86	C	1.845603	0.856824	0.121624
C87	C	1.070171	0.356737	-0.583059
C88	C	1.570171	0.856737	-0.083059
C89	C	1.070191	0.356714	-0.670309
C90	C	1.570191	0.856714	-0.170309
C91	C	1.070244	1.163630	-0.378366
C92	C	1.570244	1.663630	0.121634
C93	C	1.070232	1.081316	-0.378401
C94	C	1.570232	1.581316	0.121599
C95	C	1.117592	0.309350	-0.711322
C96	C	1.617592	0.809350	-0.211322
C97	C	1.117601	0.309325	-0.793303
C98	C	1.617601	0.809325	-0.293303
C99	C	1.070212	0.356669	-0.834268
C100	C	1.570212	0.856669	-0.334268
C101	C	1.022804	0.404035	-0.793249
C102	C	1.522804	0.904035	-0.293249
C103	C	1.022792	0.404055	-0.711270
C104	C	1.522792	0.904055	-0.211270
C105	C	1.022834	0.403990	-0.964119
C106	C	1.522834	0.903990	-0.464119
C107	C	1.022847	0.403971	-1.046104
C108	C	1.522847	0.903971	-0.546104
C109	C	1.117643	0.309260	-1.046152
C110	C	1.617643	0.809260	-0.546152
C111	C	1.117631	0.309280	-0.964173
C112	C	1.617631	0.809280	-0.464173
C113	C	1.070225	0.356648	-0.923159
C114	C	1.570225	0.856648	-0.423159
C115	C	1.070125	0.356792	-0.174366
C116	C	1.570125	0.856792	0.325634
C117	C	1.070249	0.356607	-0.087117
C118	C	1.570249	0.856607	0.412883
H119	H	0.955160	0.920291	-0.425280
H120	H	1.455160	1.420291	0.074720
H121	H	1.091658	0.793572	-0.250166
H122	H	1.591658	1.293572	0.249834
H123	H	1.156203	0.270758	-0.826692
H124	H	1.656203	0.770758	-0.326692
N125	N	1.166027	0.260909	-0.922328
N126	N	1.666027	0.760909	-0.422328
N127	N	1.139994	0.213726	-0.876590
N128	N	1.639994	0.713726	-0.376590
H129	H	1.174172	0.179560	-0.847037
H130	H	1.674172	0.679560	-0.347037
H131	H	0.506037	0.479616	-0.395819
H132	H	1.006037	0.979616	0.104181
N133	N	1.166065	0.260881	-1.088054
N134	N	1.666065	0.760881	-0.588054
N135	N	1.166070	0.260865	-1.161248
N136	N	1.666070	0.760865	-0.661248
H137	H	1.200269	0.226701	-1.190846
H138	H	1.700269	0.726701	-0.690846
H139	H	0.984219	0.442550	-0.930728
H140	H	1.484219	0.942550	-0.430728
H141	H	0.984256	0.442521	-1.079456
H142	H	1.484256	0.942521	-0.579456
N143	N	0.974384	0.452378	-0.835099
N144	N	1.474384	0.952378	-0.335099
N145	N	0.927225	0.426293	-0.880836
N146	N	1.427225	0.926293	-0.380836
H147	H	0.893027	0.460434	-0.910395
H148	H	1.393027	0.960434	-0.410395
H149	H	0.506040	0.279396	-0.479689
H150	H	1.006040	0.779396	0.020311
H151	H	1.156185	0.270799	-0.677974
H152	H	1.656185	0.770799	-0.177974
H153	H	0.634639	0.454099	-0.297383
H154	H	1.134639	0.954099	0.202617
N155	N	0.502041	0.226524	-0.335894
N156	N	1.002041	0.726524	0.164106
N157	N	0.462445	0.192539	-0.287972
N158	N	0.962445	0.692539	0.212028
H159	H	0.444303	0.141154	-0.300643
H160	H	0.944303	0.641154	0.199357
H161	H	0.507071	0.450377	-0.294010
H162	H	1.007071	0.950377	0.205990
H163	H	0.633883	0.312345	-0.256153
H164	H	1.133883	0.812345	0.243847
N165	N	0.638519	0.488619	-0.412091
N166	N	1.138519	0.988619	0.087909
N167	N	0.679749	0.469313	-0.467165
N168	N	1.179749	0.969313	0.032835
H169	H	0.697719	0.507124	-0.506240
H170	H	1.197719	1.007124	-0.006240
N171	N	0.639122	0.385633	-0.519361
N172	N	1.139122	0.885633	-0.019361
N173	N	0.678711	0.362510	-0.574138
N174	N	1.178711	0.862510	-0.074138
H175	H	0.697086	0.397874	-0.615508
H176	H	1.197086	0.897874	-0.115508
H177	H	0.633110	0.278339	-0.478998
H178	H	1.133110	0.778339	0.021002
H179	H	0.984185	0.442617	-0.677878
H180	H	1.484185	0.942617	-0.177878
H181	H	0.954749	0.793064	-0.425178
H182	H	1.454749	1.293064	0.074822
H183	H	1.026020	0.792017	-0.500099
H184	H	1.526020	1.292017	-0.000099
H185	H	0.507109	0.376437	-0.507525
H186	H	1.007109	0.876437	-0.007525
N187	N	1.029804	0.924839	-0.516374
N188	N	1.529804	1.424839	-0.016374
N189	N	1.041386	0.879476	-0.570215
N190	N	1.541386	1.379476	-0.070215
H191	H	1.053220	0.897578	-0.624726
H192	H	1.553220	1.397578	-0.124726
H193	H	0.506666	0.312277	-0.256556
H194	H	1.006666	0.812277	0.243444
H195	H	0.634898	0.241818	-0.331875
H196	H	1.134898	0.741818	0.168125
N197	N	1.169245	0.788660	-0.477169
N198	N	1.669245	1.288660	0.022831
N199	N	1.184332	0.834380	-0.529613
N200	N	1.684332	1.334380	-0.029613
H201	H	1.199429	0.816643	-0.583375
H202	H	1.699429	1.316643	-0.083375
H203	H	1.191992	0.793030	-0.358817
H204	H	1.691992	1.293030	0.141183
H205	H	1.192081	0.919762	-0.357854
H206	H	1.692081	1.419762	0.142146
H207	H	1.165591	0.920822	-0.460649
H208	H	1.665591	1.420822	0.039351
N209	N	0.979734	0.786844	-0.269847
N210	N	1.479734	1.286844	0.230153
N211	N	0.943661	0.743936	-0.312572
N212	N	1.443661	1.243936	0.187428
H213	H	0.894059	0.724851	-0.294588
H214	H	1.394059	1.224851	0.205412
N215	N	0.976196	0.925091	-0.274723
N216	N	1.476196	1.425091	0.225277
N217	N	0.941025	0.966069	-0.320326
N218	N	1.441025	1.466069	0.179674
H219	H	0.890114	0.984137	-0.305456
H220	H	1.390114	1.484137	0.194544
N221	N	1.096784	0.926341	-0.236137
N222	N	1.596784	1.426341	0.263863
N223	N	1.148499	0.968999	-0.253604
N224	N	1.648499	1.468999	0.246396
H225	H	1.182760	0.987946	-0.211482
H226	H	1.682760	1.487946	0.288518
