data_functionalizedCrystal
_audit_creation_method	'MofGen! by Chris Wilmer'
_symmetry_space_group_name_H-M	'P1'
_symmetry_Int_Tables_number	1
_symmetry_cell_setting	triclinic
loop_
_symmetry_equiv_pos_as_xyz
  x,y,z
_cell_length_a	14.908795
_cell_length_b	12.759400
_cell_length_c	12.759393
_cell_angle_alpha	90.029653
_cell_angle_beta	93.321808
_cell_angle_gamma	93.303773
loop_
_atom_site_label
_atom_site_type_symbol
_atom_site_fract_x
_atom_site_fract_y
_atom_site_fract_z
Zn1	Zn	1.379310	-0.325654	0.686899
Zn2	Zn	1.379222	-0.501376	0.511217
Zn3	Zn	1.228437	-0.335830	0.501076
Zn4	Zn	1.228431	-0.511416	0.676701
O5	O	1.303850	-0.418569	0.593973
O6	O	1.505546	-0.340503	0.672107
O7	O	1.359186	-0.479473	0.362848
O8	O	1.248489	-0.187457	0.525750
O9	O	1.505482	-0.469606	0.543034
O10	O	1.359335	-0.179980	0.662273
O11	O	1.248404	-0.357847	0.355398
O12	O	1.102188	-0.367583	0.515861
O13	O	1.248480	-0.486717	0.825077
O14	O	1.102184	-0.496585	0.644892
O15	O	1.359330	-0.350238	0.832570
O16	O	1.359181	-0.649732	0.533145
O17	O	1.248395	-0.657108	0.654725
C18	C	1.069452	-0.434278	0.578170
C19	C	0.969175	-0.441024	0.571434
C20	C	1.303803	-0.691540	0.593954
C21	C	1.303865	-0.808312	0.593986
C22	C	0.827808	-0.517636	0.494636
C23	C	0.922027	-0.511302	0.500964
C24	C	0.922098	-0.377073	0.635579
C25	C	0.827879	-0.383407	0.629251
C26	C	0.780738	-0.453692	0.558778
C27	C	0.686517	-0.460031	0.552455
C28	C	0.686590	-0.325796	0.687064
C29	C	0.780809	-0.319462	0.693393
C30	C	1.361554	-0.859203	0.665127
C31	C	1.361596	-0.968924	0.665155
C32	C	1.246258	-0.976854	0.522892
C33	C	1.246212	-0.867135	0.522870
C34	C	1.419207	-0.800380	0.736243
C35	C	1.476901	-0.851271	0.807389
C36	C	1.476943	-0.960993	0.807417
C37	C	1.419291	-1.019823	0.736299
C38	C	1.539164	-0.402799	0.609839
C39	C	1.639440	-0.396079	0.616600
C40	C	1.303914	-0.418463	0.868011
C41	C	1.303941	-0.418417	0.984790
C42	C	1.303922	-0.144531	0.594018
C43	C	1.303953	-0.027752	0.594037
C44	C	1.303838	-0.418596	0.321005
C45	C	1.303986	-0.418334	0.204239
C46	C	1.246295	-0.355033	1.145499
C47	C	1.246275	-0.355072	1.035774
C48	C	1.361638	-0.481720	1.043538
C49	C	1.361662	-0.481675	1.153261
C50	C	1.188619	-0.291692	1.196477
C51	C	1.130923	-0.228388	1.137736
C52	C	1.130902	-0.228427	1.028011
C53	C	1.188578	-0.291770	0.977026
H54	H	0.648136	-0.517264	0.495076
H55	H	0.789424	-0.574874	0.437262
Cl56	Cl	1.434137	-0.561347	0.979441
H57	H	1.188627	-0.291655	1.285820
H58	H	1.419181	-0.711039	0.736225
Cl59	Cl	1.434195	-0.561245	1.227112
Cl60	Cl	0.981198	-0.591690	0.420322
H61	H	0.960497	-0.319844	0.692948
H62	H	0.819205	-0.262235	0.750767
Cl63	Cl	1.173788	-1.050812	0.433493
H64	H	1.083971	-0.176810	1.179256
H65	H	0.648255	-0.273729	0.739295
H66	H	1.523912	-1.002425	0.865355
Cl67	Cl	1.549363	-0.777316	0.896799
Cl68	Cl	1.188558	-0.291807	0.839084
Cl69	Cl	1.173691	-0.803152	0.433430
Cl70	Cl	1.419482	-1.157750	0.736188
H71	H	1.083930	-0.176873	0.980188
