data_functionalizedCrystal
_audit_creation_method	'MofGen! by Chris Wilmer'
_symmetry_space_group_name_H-M	'P1'
_symmetry_Int_Tables_number	1
_symmetry_cell_setting	triclinic
loop_
_symmetry_equiv_pos_as_xyz
  x,y,z
_cell_length_a	12.759395
_cell_length_b	13.897447
_cell_length_c	12.759387
_cell_angle_alpha	89.967404
_cell_angle_beta	89.981185
_cell_angle_gamma	90.021067
loop_
_atom_site_label
_atom_site_type_symbol
_atom_site_fract_x
_atom_site_fract_y
_atom_site_fract_z
Zn1	Zn	1.606216	-0.383913	-0.594000
Zn2	Zn	1.606097	-0.545244	-0.418319
Zn3	Zn	1.430519	-0.383969	-0.418337
Zn4	Zn	1.430492	-0.545173	-0.593958
O5	O	1.518331	-0.464575	-0.506154
O6	O	1.753221	-0.405321	-0.570706
O7	O	1.582768	-0.523904	-0.271300
O8	O	1.453887	-0.248980	-0.441665
O9	O	1.753134	-0.523850	-0.441633
O10	O	1.582971	-0.248939	-0.570724
O11	O	1.453772	-0.405416	-0.271314
O12	O	1.283495	-0.405347	-0.441624
O13	O	1.453840	-0.523728	-0.740985
O14	O	1.283474	-0.523782	-0.570651
O15	O	1.582944	-0.405251	-0.741016
O16	O	1.582741	-0.680216	-0.441592
O17	O	1.453725	-0.680164	-0.570634
C18	C	1.245363	-0.464563	-0.506136
C19	C	1.128587	-0.464581	-0.506153
C20	C	1.128604	-0.588108	-0.640292
C21	C	1.073752	-0.649878	-0.707365
C22	C	0.964030	-0.649890	-0.707378
C23	C	0.909158	-0.588122	-0.640313
C24	C	0.964010	-0.526352	-0.573240
C25	C	1.073735	-0.526349	-0.573232
C26	C	0.963993	-0.402822	-0.439108
C27	C	1.073715	-0.402814	-0.439088
C28	C	0.909121	-0.341054	-0.372043
C29	C	0.963973	-0.279287	-0.304963
C30	C	1.073701	-0.279279	-0.304953
C31	C	1.128567	-0.341043	-0.372015
C32	C	1.518245	-0.715189	-0.506129
C33	C	1.518305	-0.822403	-0.506154
C34	C	1.518356	-0.909473	-0.506178
C35	C	1.518430	-1.018705	-0.506205
C36	C	1.792364	-0.464587	-0.506172
C37	C	1.909141	-0.464593	-0.506180
C38	C	1.518402	-0.464475	-0.780187
C39	C	1.518433	-0.464433	-0.896964
C40	C	1.518445	-0.212982	-0.506201
C41	C	1.518494	-0.105768	-0.506221
C42	C	1.384118	-0.341043	-0.896997
C43	C	1.316979	-0.279329	-0.951874
C44	C	1.317011	-0.279294	-1.061596
C45	C	1.384186	-0.340982	-1.116443
C46	C	1.451324	-0.402696	-1.061566
C47	C	1.451287	-0.402722	-0.951841
C48	C	1.585632	-0.526089	-1.061533
C49	C	1.585607	-0.526121	-0.951811
C50	C	1.652807	-0.587777	-1.116380
C51	C	1.719952	-0.649488	-1.061502
C52	C	1.719918	-0.649520	-0.951774
C53	C	1.652746	-0.587835	-0.896934
C54	C	1.518320	-0.464605	-0.233186
C55	C	1.518494	-0.464375	-0.116410
H56	H	1.118441	-0.700167	-0.761969
H57	H	1.262285	-0.229106	-0.907206
C58	C	1.134030	-0.211324	-0.231166
N59	N	1.179466	-0.160141	-0.175587
H60	H	0.919370	-0.700184	-0.761999
H61	H	1.262340	-0.229042	-1.106277
C62	C	1.793657	-0.717501	-1.121840
N63	N	1.849111	-0.768786	-1.167291
C64	C	1.384204	-0.340951	-1.237140
N65	N	1.384217	-0.340930	-1.328050
C66	C	1.652833	-0.587742	-1.237076
N67	N	1.652856	-0.587716	-1.327987
C68	C	1.793784	-0.717406	-0.891418
N69	N	1.849425	-0.768535	-0.845961
C70	C	1.249301	-0.588101	-0.640283
N71	N	1.340211	-0.588096	-0.640281
C72	C	1.652701	-0.587865	-0.776237
N73	N	1.652661	-0.587888	-0.685326
H74	H	0.919288	-0.228996	-0.250370
C75	C	1.384084	-0.341069	-0.776300
N76	N	1.384055	-0.341088	-0.685390
H77	H	0.819817	-0.588129	-0.640338
C78	C	0.788424	-0.341060	-0.372069
N79	N	0.697514	-0.341062	-0.372088
H80	H	1.217908	-0.341045	-0.372010
