data_functionalizedCrystal
_audit_creation_method	'MofGen! by Chris Wilmer'
_symmetry_space_group_name_H-M	'P1'
_symmetry_Int_Tables_number	1
_symmetry_cell_setting	triclinic
loop_
_symmetry_equiv_pos_as_xyz
  x,y,z
_cell_length_a	13.596369
_cell_length_b	19.288864
_cell_length_c	19.288865
_cell_angle_alpha	83.136245
_cell_angle_beta	89.994375
_cell_angle_gamma	89.980244
loop_
_atom_site_label
_atom_site_type_symbol
_atom_site_fract_x
_atom_site_fract_y
_atom_site_fract_z
O1	O	0.082118	-0.921350	-0.086643
O2	O	0.082052	-0.719090	-0.098332
O3	O	0.082068	-0.826064	0.008643
O4	O	0.082103	-0.814376	-0.193618
O5	O	-0.081515	-0.826051	0.008637
O6	O	-0.081531	-0.719076	-0.098338
O7	O	-0.081465	-0.921337	-0.086649
Zn8	Zn	-0.107470	-0.820205	-0.092494
Zn9	Zn	0.108057	-0.820222	-0.092486
O10	O	-0.081480	-0.814362	-0.193624
C11	C	0.000252	-0.693207	-0.097959
C12	C	0.000226	-0.616103	-0.096830
C13	C	0.000273	-0.825682	0.034516
C14	C	0.000264	-0.824553	0.111620
N15	N	-0.254562	-0.820198	-0.092499
C16	C	-0.343560	-0.820201	-0.092501
C17	C	-0.455211	-0.820208	-0.092496
C18	C	-0.544202	-0.820217	-0.092488
C19	C	-0.655860	-0.820225	-0.092484
N20	N	0.255149	-0.820234	-0.092476
C21	C	0.000337	-0.947220	-0.087022
C22	C	0.000370	-1.024324	-0.088151
C23	C	0.000253	-0.571407	-0.159598
C24	C	0.000263	-0.498960	-0.158537
C25	C	0.000267	-0.471212	-0.094705
C26	C	0.000235	-0.515918	-0.031929
C27	C	0.000215	-0.588364	-0.032991
C28	C	0.057602	-0.362955	-0.044523
C29	C	0.057629	-0.290510	-0.043464
C30	C	0.000326	-0.247767	-0.091425
C31	C	-0.056990	-0.277475	-0.140458
C32	C	-0.057011	-0.349920	-0.141521
C33	C	0.000289	-0.392658	-0.093546
C34	C	0.000363	-0.124514	-0.153047
C35	C	0.000367	-0.052066	-0.151984
C36	C	0.000349	-0.069026	-0.025374
C37	C	0.000335	-0.141473	-0.026439
C38	C	0.000346	-0.169212	-0.090278
C39	C	0.000316	-0.814745	-0.219497
C40	C	0.000332	-0.815874	-0.296601
C41	C	0.000280	-0.887321	0.156316
C42	C	0.000295	-0.886260	0.228763
C43	C	0.000275	-0.822428	0.256511
C44	C	0.000265	-0.759652	0.211805
C45	C	0.000259	-0.760714	0.139359
C46	C	-0.057041	-0.772244	0.364796
C47	C	-0.057042	-0.771184	0.437241
C48	C	0.000296	-0.819148	0.479956
C49	C	0.057621	-0.868184	0.450220
C50	C	0.057616	-0.869247	0.377775
C51	C	0.000281	-0.821269	0.335065
C52	C	0.000329	-0.880770	0.603209
C53	C	0.000350	-0.879707	0.675657
C54	C	0.000310	-0.753097	0.658697
C55	C	0.000299	-0.754162	0.586250
C56	C	0.000304	-0.818001	0.558511
H57	H	0.000264	-0.593987	-0.211580
C58	C	-0.119348	-0.382047	-0.194778
C59	C	-0.169549	-0.329117	-0.236546
C60	C	-0.226997	-0.358686	-0.285606
H61	H	-0.078138	-0.406563	-0.223305
H62	H	-0.165491	-0.413488	-0.171194
H63	H	-0.123412	-0.297687	-0.260129
H64	H	-0.210776	-0.304596	-0.208038
H65	H	-0.273140	-0.390128	-0.262022
H66	H	-0.185780	-0.383202	-0.314128
H67	H	-0.261072	-0.322779	-0.313947
C68	C	0.000339	-0.683720	0.688678
C69	C	0.000343	-0.628976	0.634024
C70	C	0.000387	-0.565055	0.661619
H71	H	-0.056687	-0.680569	0.716583
H72	H	0.057410	-0.680641	0.716560
H73	H	-0.056722	-0.632053	0.606154
H74	H	0.057365	-0.632104	0.606114
H75	H	0.057457	-0.561976	0.689501
H76	H	-0.056641	-0.561912	0.689524
H77	H	0.000398	-0.527904	0.624541
H78	H	0.000369	-0.930822	0.712049
H79	H	-0.103652	-0.242674	-0.179513
H80	H	0.104294	-0.909172	0.353567
C81	C	0.000504	-0.450453	-0.226709
C82	C	0.084685	-0.462981	-0.265140
C83	C	0.084950	-0.418306	-0.327938
H84	H	-0.056468	-0.458773	-0.252987
H85	H	0.000571	-0.403325	-0.216960
H86	H	0.084609	-0.510099	-0.274891
H87	H	0.141671	-0.454657	-0.238884
H88	H	0.085017	-0.371178	-0.318189
H89	H	0.027974	-0.426629	-0.354209
H90	H	0.142069	-0.426796	-0.354018
C91	C	0.000313	-0.154503	-0.222425
C92	C	0.000303	-0.099849	-0.277170
C93	C	0.000243	-0.127445	-0.341091
H94	H	0.057337	-0.182420	-0.225570
H95	H	-0.056760	-0.182371	-0.225510
H96	H	0.057370	-0.071992	-0.274088
H97	H	-0.056717	-0.071927	-0.274048
H98	H	-0.056830	-0.155314	-0.344175
H99	H	0.057268	-0.155362	-0.344228
H100	H	0.000227	-0.090367	-0.378243
H101	H	0.104303	-0.266327	-0.003541
H102	H	0.104311	-0.907241	0.484999
H103	H	0.000383	-0.015674	-0.203099
H104	H	0.000414	-0.046435	0.026600
H105	H	0.000252	-0.493322	0.020044
H106	H	0.000194	-0.624756	0.018124
H107	H	0.000281	-0.703049	0.549857
H108	H	0.000319	-0.177866	0.024674
H109	H	0.000246	-0.709599	0.102967
H110	H	0.000337	-0.932751	0.580622
H111	H	-0.103738	-0.733183	0.330022
C112	C	0.119934	-0.409238	0.007583
C113	C	0.170162	-0.367715	0.050731
C114	C	0.227601	-0.410324	0.098730
H115	H	0.078715	-0.441254	0.035285
H116	H	0.166061	-0.434283	-0.016832
H117	H	0.124041	-0.342681	0.075144
H118	H	0.211398	-0.335699	0.023048
H119	H	0.273728	-0.435370	0.074315
H120	H	0.186375	-0.442339	0.126426
H121	H	0.261695	-0.382157	0.128007
H122	H	-0.103714	-0.731253	0.461445
H123	H	0.000311	-0.937375	0.265162
C124	C	0.000445	-0.690327	0.241888
C125	C	0.084608	-0.652411	0.219160
C126	C	0.084820	-0.588548	0.246865
H127	H	-0.056539	-0.664400	0.226555
H128	H	0.000502	-0.698654	0.291439
H129	H	0.084542	-0.644081	0.169620
H130	H	0.141606	-0.678316	0.234492
H131	H	0.084876	-0.596876	0.296415
H132	H	0.027832	-0.562628	0.231530
H133	H	0.141927	-0.562817	0.231453
H134	H	0.000287	-0.939303	0.133736
