data_functionalizedCrystal
_audit_creation_method	'MofGen! by Chris Wilmer'
_symmetry_space_group_name_H-M	'P1'
_symmetry_Int_Tables_number	1
_symmetry_cell_setting	triclinic
loop_
_symmetry_equiv_pos_as_xyz
  x,y,z
_cell_length_a	17.077404
_cell_length_b	19.805405
_cell_length_c	17.077396
_cell_angle_alpha	90.031650
_cell_angle_beta	90.019501
_cell_angle_gamma	90.026635
loop_
_atom_site_label
_atom_site_type_symbol
_atom_site_fract_x
_atom_site_fract_y
_atom_site_fract_z
Zn1	Zn	1.200035	-0.269459	0.443825
Zn2	Zn	1.199934	-0.382652	0.312552
Zn3	Zn	1.068767	-0.269483	0.312573
Zn4	Zn	1.068727	-0.382612	0.443776
O5	O	1.134366	-0.326052	0.378182
O6	O	1.309869	-0.284481	0.426424
O7	O	1.182509	-0.367667	0.202708
O8	O	1.086239	-0.174763	0.330014
O9	O	1.309795	-0.367644	0.329978
O10	O	1.182681	-0.174746	0.426444
O11	O	1.086141	-0.284522	0.202724
O12	O	0.958915	-0.284483	0.329966
O13	O	1.086171	-0.367575	0.553629
O14	O	0.958886	-0.367598	0.426360
O15	O	1.182643	-0.284442	0.553666
O16	O	1.182470	-0.477363	0.329930
O17	O	1.086073	-0.477334	0.426339
C18	C	0.930418	-0.326039	0.378160
C19	C	0.843168	-0.326050	0.378169
C20	C	0.802183	-0.369394	0.428281
C21	C	0.720203	-0.369395	0.428294
C22	C	0.679209	-0.326056	0.378190
C23	C	0.720200	-0.282708	0.328076
C24	C	0.802179	-0.282703	0.328068
C25	C	0.549330	-0.282721	0.328095
C26	C	0.467345	-0.282726	0.328102
C27	C	0.467354	-0.369413	0.428321
C28	C	0.549333	-0.369409	0.428313
C29	C	0.590318	-0.326061	0.378197
C30	C	1.134278	-0.501908	0.378144
C31	C	1.134312	-0.577140	0.378154
C32	C	1.184555	-0.612477	0.328006
C33	C	1.184588	-0.683165	0.328023
C34	C	1.134374	-0.718515	0.378185
C35	C	1.084129	-0.683173	0.428338
C36	C	1.084100	-0.612486	0.428324
C37	C	1.084245	-0.968246	0.428397
C38	C	1.084276	-1.038938	0.428405
C39	C	1.184733	-1.038925	0.328095
C40	C	1.184704	-0.968238	0.328081
C41	C	1.134462	-0.932902	0.378237
C42	C	1.134427	-0.856254	0.378219
C43	C	1.134404	-0.795162	0.378200
C44	C	1.339110	-0.326064	0.378204
C45	C	1.426360	-0.326070	0.378213
C46	C	1.134414	-0.326002	0.582926
C47	C	1.134434	-0.325980	0.670176
C48	C	1.134476	-0.149509	0.378237
C49	C	1.134523	-0.074277	0.378261
C50	C	1.134364	-0.326052	0.174234
C51	C	1.134496	-0.325883	0.086984
C52	C	1.184668	-0.282690	0.711186
C53	C	1.184678	-0.282667	0.793167
C54	C	1.134456	-0.325939	0.834135
C55	C	1.084216	-0.369232	0.793119
C56	C	1.084203	-0.369251	0.711140
C57	C	1.084248	-0.369191	0.963989
C58	C	1.084261	-0.369174	1.045974
C59	C	1.184722	-0.282608	1.046016
C60	C	1.184709	-0.282626	0.964037
C61	C	1.134470	-0.325920	0.923026
H62	H	0.835548	-0.247405	0.287266
Cl63	Cl	1.247881	-0.228182	1.097571
Cl64	Cl	1.021146	-1.083378	0.491472
Cl65	Cl	1.021116	-0.423567	1.097477
Cl66	Cl	1.021082	-0.923833	0.491448
H67	H	1.043325	-0.404435	0.930601
H68	H	1.225500	-0.711933	0.287187
Cl69	Cl	0.600852	-0.228226	0.265092
Cl70	Cl	0.668664	-0.228219	0.265093
Cl71	Cl	1.247680	-0.568043	0.264936
H72	H	1.043322	-0.404463	0.826482
Cl73	Cl	0.415831	-0.423898	0.491334
H74	H	0.433970	-0.247428	0.287312
Cl75	Cl	1.247833	-0.923802	0.265019
Cl76	Cl	1.021046	-0.423674	0.659584
Cl77	Cl	1.247899	-1.083352	0.265045
H78	H	1.043247	-0.711961	0.469184
H79	H	0.835555	-0.404688	0.469079
Cl80	Cl	1.020937	-0.568062	0.491373
Cl81	Cl	1.247812	-0.228290	0.659691
H82	H	0.582708	-0.404703	0.469107
Cl83	Cl	1.247851	-0.228230	0.912534
Cl84	Cl	0.668682	-0.423887	0.491294
Cl85	Cl	1.247868	-0.228271	0.844719
