data_functionalizedCrystal
_audit_creation_method	'MofGen! by Chris Wilmer'
_symmetry_space_group_name_H-M	'P1'
_symmetry_Int_Tables_number	1
_symmetry_cell_setting	triclinic
loop_
_symmetry_equiv_pos_as_xyz
  x,y,z
_cell_length_a	19.077105
_cell_length_b	12.645330
_cell_length_c	19.076919
_cell_angle_alpha	87.723750
_cell_angle_beta	89.923776
_cell_angle_gamma	87.714233
loop_
_atom_site_label
_atom_site_type_symbol
_atom_site_fract_x
_atom_site_fract_y
_atom_site_fract_z
Zn1	Zn	1.058309	-0.512860	0.440444
Zn2	Zn	1.062962	-0.683311	0.322946
Zn3	Zn	0.945526	-0.498659	0.318237
Zn4	Zn	0.940784	-0.682672	0.435699
O5	O	1.001896	-0.594376	0.379332
O6	O	1.157259	-0.541682	0.428815
O7	O	1.051316	-0.653141	0.223990
O8	O	0.960524	-0.352199	0.334463
O9	O	1.160677	-0.666911	0.342490
O10	O	1.043386	-0.362632	0.424248
O11	O	0.965036	-0.517478	0.220530
O12	O	0.846565	-0.516858	0.329862
O13	O	0.952442	-0.665822	0.534660
O14	O	0.843081	-0.652051	0.416161
O15	O	1.038788	-0.541062	0.538146
O16	O	1.046718	-0.831570	0.337888
O17	O	0.956954	-0.831101	0.420727
C18	C	0.819326	-0.582845	0.371986
C19	C	0.741222	-0.577939	0.368860
C20	C	0.702735	-0.646120	0.412251
C21	C	0.629348	-0.641496	0.409318
C22	C	0.594448	-0.568695	0.362988
C23	C	0.632940	-0.500507	0.319594
C24	C	0.706326	-0.505126	0.322532
C25	C	0.375159	-0.547316	0.349394
C26	C	0.301768	-0.542704	0.346458
C27	C	0.298181	-0.683692	0.436183
C28	C	0.371569	-0.688309	0.439113
C29	C	0.410054	-0.620117	0.395722
N30	N	0.519434	-0.563970	0.359986
N31	N	0.485066	-0.624839	0.398728
C32	C	1.001845	-0.869801	0.379320
C33	C	1.001886	-0.987635	0.379341
C34	C	0.945633	-1.154972	0.431631
C35	C	0.945363	-1.032385	0.431445
C36	C	0.984820	-1.026659	0.304483
C37	C	0.984477	-1.149256	0.304800
C38	C	1.075561	-1.160522	0.401321
C39	C	1.075039	-1.037980	0.402922
C40	C	1.185178	-0.605952	0.386707
C41	C	1.263281	-0.610885	0.389850
C42	C	0.994567	-0.604955	0.562612
C43	C	0.991444	-0.609463	0.640716
C44	C	1.001965	-0.317876	0.379360
C45	C	1.001995	-0.200049	0.379372
C46	C	1.009236	-0.583764	0.196766
C47	C	1.012495	-0.578966	0.118668
C48	C	1.034930	-0.546628	0.679225
C49	C	1.031987	-0.550859	0.752611
C50	C	0.985561	-0.617932	0.787487
C51	C	0.942070	-0.680769	0.748972
C52	C	0.945010	-0.676531	0.675587
C53	C	0.971944	-0.637565	1.006769
C54	C	0.969009	-0.641800	1.080159
C55	C	1.058925	-0.511889	1.083793
C56	C	1.061864	-0.507662	1.010407
C57	C	1.018371	-0.570495	0.971898
N58	N	0.982553	-0.622261	0.862499
N59	N	1.021376	-0.566159	0.896887
H60	H	0.273354	-0.483409	0.308735
C61	C	1.079286	-0.482600	0.794298
C62	C	1.120590	-0.422981	0.748049
C63	C	1.164178	-0.360097	0.786425
H64	H	1.051353	-0.436272	0.821852
H65	H	1.108782	-0.526720	0.824142
H66	H	1.091097	-0.378865	0.718217
H67	H	1.148538	-0.469282	0.720494
H68	H	1.193674	-0.404217	0.816270
H69	H	1.136239	-0.313775	0.813978
H70	H	1.192213	-0.319645	0.755052
H71	H	0.909592	-0.727687	0.644233
C72	C	0.873336	-1.190813	0.412146
C73	C	0.873310	-1.301619	0.415597
C74	C	0.806728	-1.334675	0.397639
H75	H	0.839533	-1.163350	0.443945
H76	H	0.861997	-1.165549	0.365815
H77	H	0.884641	-1.326872	0.461920
H78	H	0.907100	-1.329109	0.383798
H79	H	0.795389	-1.309411	0.351309
H80	H	0.772929	-1.307205	0.429440
H81	H	0.806703	-1.409859	0.399972
C82	C	0.740493	-0.725198	0.462626
C83	C	0.691077	-0.783896	0.500013
C84	C	0.725830	-0.856742	0.546434
H85	H	0.770185	-0.771673	0.436921
H86	H	0.767891	-0.688313	0.494472
H87	H	0.663691	-0.820780	0.468172
H88	H	0.661383	-0.737451	0.525732
H89	H	0.753228	-0.819857	0.578280
H90	H	0.755521	-0.903209	0.520723
H91	H	0.692307	-0.896571	0.571811
C92	C	0.416973	-0.473170	0.302400
C93	C	0.457515	-0.410248	0.343950
C94	C	0.496040	-0.341922	0.300682
H95	H	0.446873	-0.513562	0.272873
H96	H	0.385701	-0.429094	0.274398
H97	H	0.488784	-0.454319	0.371940
H98	H	0.427632	-0.369834	0.373475
H99	H	0.464768	-0.297846	0.272679
H100	H	0.525936	-0.382322	0.271157
H101	H	0.523547	-0.299215	0.328867
H102	H	1.099671	-0.453047	0.982016
H103	H	0.399979	-0.747594	0.476839
C104	C	1.037062	-1.188945	0.250976
C105	C	1.037173	-1.299668	0.250876
C106	C	1.085619	-1.336262	0.201318
H107	H	1.024361	-1.160372	0.205755
H108	H	1.082557	-1.167246	0.262658
H109	H	0.991688	-1.321357	0.239189
H110	H	1.049882	-1.328268	0.296085
H111	H	1.131114	-1.314563	0.213000
H112	H	1.072913	-1.307682	0.156100
H113	H	1.085705	-1.411391	0.201248
H114	H	0.604518	-0.441227	0.281874
H115	H	1.094334	-0.460732	1.115154
H116	H	1.024702	-0.997486	0.264350
C117	C	1.133720	-0.998054	0.356168
C118	C	1.167417	-1.083797	0.324052
C119	C	1.221480	-1.047061	0.280977
H120	H	1.114683	-0.949654	0.321187
H121	H	1.166581	-0.963384	0.383722
H122	H	1.134562	-1.118450	0.296500
H123	H	1.186470	-1.132205	0.359017
H124	H	1.254341	-1.012391	0.308531
H125	H	1.202437	-0.998661	0.246000
H126	H	1.244354	-1.105232	0.259186
C127	C	0.872601	-0.987582	0.411784
C128	C	0.872166	-0.876824	0.411585
C129	C	0.805145	-0.835516	0.393484
H130	H	0.860597	-1.009470	0.366429
H131	H	0.839437	-1.012795	0.445008
H132	H	0.905320	-0.851621	0.378363
H133	H	0.884158	-0.854907	0.456933
H134	H	0.771981	-0.860729	0.426707
H135	H	0.793146	-0.857411	0.348129
H136	H	0.804839	-0.760364	0.393352
C137	C	0.913961	-0.980276	0.279749
C138	C	0.869126	-1.062565	0.267448
C139	C	0.803847	-1.019881	0.244658
H140	H	0.894222	-0.936801	0.314767
H141	H	0.919833	-0.938989	0.237604
H142	H	0.863253	-1.103834	0.309587
H143	H	0.888843	-1.106046	0.232426
H144	H	0.809719	-0.978594	0.202513
H145	H	0.784115	-0.976407	0.279678
H146	H	0.773421	-1.075707	0.236302
H147	H	0.931202	-0.696421	1.108552
C148	C	1.085224	-0.473726	0.641271
C149	C	1.047141	-0.400853	0.597532
C150	C	1.093448	-0.333682	0.562554
H151	H	1.110718	-0.436804	0.674640
H152	H	1.116971	-0.514521	0.613831
H153	H	1.015407	-0.360062	0.624970
H154	H	1.021650	-0.437745	0.564151
H155	H	1.125195	-0.374477	0.535115
H156	H	1.118939	-0.296768	0.595928
H157	H	1.067616	-0.284236	0.532869
C158	C	0.256271	-0.757592	0.483264
C159	C	0.184532	-0.737951	0.470792
C160	C	0.145903	-0.805998	0.514161
H161	H	0.268612	-0.828995	0.473425
H162	H	0.266382	-0.745656	0.530989
H163	H	0.174425	-0.749896	0.423077
H164	H	0.172170	-0.666562	0.480635
H165	H	0.156014	-0.794062	0.561886
H166	H	0.158250	-0.877396	0.504318
H167	H	0.097224	-0.792674	0.505709
H168	H	0.598015	-0.697017	0.444651
H169	H	0.930788	-1.173588	0.286552
C170	C	1.097240	-1.207229	0.473056
C171	C	1.162872	-1.170465	0.490938
C172	C	1.182860	-1.213481	0.557012
H173	H	1.063535	-1.186274	0.507016
H174	H	1.099995	-1.282310	0.471782
H175	H	1.160112	-1.095400	0.492217
H176	H	1.196591	-1.191417	0.456996
H177	H	1.185616	-1.288562	0.555738
H178	H	1.149151	-1.192523	0.590966
H179	H	1.227396	-1.188551	0.569150
H180	H	1.087964	-1.012952	0.458029
C181	C	0.924683	-0.705888	0.965091
C182	C	0.883407	-0.765545	1.011344
C183	C	0.839860	-0.828500	0.972973
H184	H	0.895163	-0.661846	0.935238
H185	H	0.952667	-0.752186	0.937547
H186	H	0.855425	-0.719252	1.038875
H187	H	0.912908	-0.809608	1.041197
H188	H	0.867843	-0.874797	0.945429
H189	H	0.810344	-0.784449	0.943121
H190	H	0.811853	-0.868991	1.004349
C191	C	0.891779	-0.753731	0.786877
C192	C	0.929863	-0.826641	0.830588
C193	C	0.883559	-0.893882	0.865509
H194	H	0.860011	-0.713024	0.814333
H195	H	0.866311	-0.790609	0.753453
H196	H	0.955319	-0.789766	0.864008
H197	H	0.961629	-0.867372	0.803150
H198	H	0.858092	-0.930761	0.832085
H199	H	0.851793	-0.853166	0.892961
H200	H	0.909393	-0.943366	0.895166
H201	H	0.737661	-0.449601	0.287201
C202	C	0.959101	-0.997689	0.505388
C203	C	0.967727	-1.087168	0.550635
C204	C	0.980366	-1.055253	0.618763
H205	H	1.000458	-0.958295	0.505704
H206	H	0.920454	-0.954749	0.520599
H207	H	1.006369	-1.130091	0.535429
H208	H	0.926376	-1.126572	0.550341
H209	H	0.941719	-1.012313	0.633973
H210	H	1.021723	-1.015859	0.619072
H211	H	0.986213	-1.115958	0.649472
H212	H	0.955843	-1.188371	0.487220
H213	H	1.117515	-1.189748	0.363295
