data_functionalizedCrystal
_audit_creation_method	'MofGen! by Chris Wilmer'
_symmetry_space_group_name_H-M	'P1'
_symmetry_Int_Tables_number	1
_symmetry_cell_setting	triclinic
loop_
_symmetry_equiv_pos_as_xyz
  x,y,z
_cell_length_a	16.625539
_cell_length_b	12.759395
_cell_length_c	12.759394
_cell_angle_alpha	90.016374
_cell_angle_beta	90.026497
_cell_angle_gamma	90.018200
loop_
_atom_site_label
_atom_site_type_symbol
_atom_site_fract_x
_atom_site_fract_y
_atom_site_fract_z
Zn1	Zn	-0.455869	-1.606244	0.418222
Zn2	Zn	0.044131	-1.106244	0.918222
Zn3	Zn	-0.321040	-1.606141	0.593923
Zn4	Zn	0.178960	-1.106141	1.093923
Zn5	Zn	-0.321055	-1.430549	0.418263
Zn6	Zn	0.178945	-0.930549	0.918263
Zn7	Zn	-0.455835	-1.430534	0.593864
Zn8	Zn	0.044165	-0.930534	1.093864
O9	O	-0.388450	-1.518367	0.506068
O10	O	0.111550	-1.018367	1.006068
O11	O	-0.437991	-1.753251	0.441536
O12	O	0.062009	-1.253251	0.941536
O13	O	-0.208210	-1.582812	0.570663
O14	O	0.291790	-1.082812	1.070663
O15	O	-0.338958	-1.453905	0.271236
O16	O	0.161042	-0.953905	0.771236
O17	O	-0.338933	-1.753176	0.570623
O18	O	0.161067	-1.253176	1.070623
O19	O	-0.438005	-1.582987	0.271206
O20	O	0.061995	-1.082987	0.771206
O21	O	-0.208220	-1.453805	0.441607
O22	O	0.291780	-0.953805	0.941607
O23	O	-0.338926	-1.283526	0.441550
O24	O	0.161074	-0.783526	0.941550
O25	O	-0.568672	-1.453879	0.570523
O26	O	-0.068672	-0.953879	1.070523
O27	O	-0.437949	-1.283515	0.570563
O28	O	0.062051	-0.783515	1.070563
O29	O	-0.568697	-1.582972	0.441479
O30	O	-0.068697	-1.082972	0.941479
O31	O	-0.338901	-1.582797	0.740936
O32	O	0.161099	-1.082797	1.240936
O33	O	-0.437935	-1.453779	0.740893
O34	O	0.062065	-0.953779	1.240893
C35	C	-0.388430	-1.518304	0.779035
C36	C	0.111570	-1.018304	1.279035
C37	C	-0.388449	-1.518373	0.895812
C38	C	0.111551	-1.018373	1.395812
C39	C	-0.388436	-1.245399	0.506055
C40	C	0.111564	-0.745399	1.006055
C41	C	-0.388449	-1.128623	0.506075
C42	C	0.111551	-0.628623	1.006075
C43	C	-0.598759	-1.518435	0.505990
C44	C	-0.098759	-1.018435	1.005990
C45	C	-0.688380	-1.518464	0.505956
C46	C	-0.188380	-1.018464	1.005956
C47	C	-1.016556	-1.518513	0.505838
C48	C	-0.516556	-1.018513	1.005838
C49	C	-0.925247	-1.518496	0.505875
C50	C	-0.425247	-1.018496	1.005875
C51	C	-0.852471	-1.518489	0.505898
C52	C	-0.352471	-1.018489	1.005898
C53	C	-0.761156	-1.518472	0.505933
C54	C	-0.261156	-1.018472	1.005933
C55	C	-0.178959	-1.518359	0.506070
C56	C	0.321041	-1.018359	1.006070
C57	C	-0.089338	-1.518534	0.505807
C58	C	0.410662	-1.018534	1.005807
C59	C	-0.388464	-1.792400	0.506081
C60	C	0.111536	-1.292400	1.006081
C61	C	-0.388470	-1.909177	0.506087
C62	C	0.111530	-1.409177	1.006087
C63	C	-0.491395	-1.128650	0.640634
C64	C	0.008605	-0.628650	1.140634
C65	C	-0.542870	-1.073802	0.707921
C66	C	-0.042870	-0.573802	1.207921
C67	C	-0.542880	-0.964081	0.707934
C68	C	-0.042880	-0.464081	1.207934
C69	C	-0.491411	-0.909204	0.640650
C70	C	0.008589	-0.409204	1.140650
C71	C	-0.439935	-0.964051	0.573362
C72	C	0.060065	-0.464051	1.073362
C73	C	-0.439929	-1.073775	0.573359
C74	C	0.060071	-0.573775	1.073359
C75	C	-0.336995	-0.964024	0.438800
C76	C	0.163005	-0.464024	0.938800
C77	C	-0.336980	-1.073746	0.438790
C78	C	0.163020	-0.573746	0.938790
C79	C	-0.285526	-0.909147	0.371515
C80	C	0.214474	-0.409147	0.871515
C81	C	-0.234045	-0.963995	0.304231
C82	C	0.265955	-0.463995	0.804231
C83	C	-0.234037	-1.073723	0.304222
C84	C	0.265963	-0.573723	0.804222
C85	C	-0.285505	-1.128593	0.371503
C86	C	0.214495	-0.628593	0.871503
C87	C	-0.388487	-1.518459	0.232034
C88	C	0.111513	-1.018459	0.732034
C89	C	-0.388503	-1.518498	0.115258
C90	C	0.111497	-1.018498	0.615258
C91	C	-0.285402	-1.652820	0.895804
C92	C	0.214598	-1.152820	1.395804
C93	C	-0.233889	-1.720071	0.950660
C94	C	0.266111	-1.220071	1.450660
C95	C	-0.233910	-1.720133	1.060382
C96	C	0.266090	-1.220133	1.560382
C97	C	-0.285453	-1.652938	1.115249
C98	C	0.214547	-1.152938	1.615249
C99	C	-0.336967	-1.585687	1.060393
C100	C	0.163033	-1.085687	1.560393
C101	C	-0.336938	-1.585631	0.950669
C102	C	0.163062	-1.085631	1.450669
C103	C	-0.440016	-1.451247	1.060401
C104	C	0.059984	-0.951247	1.560401
C105	C	-0.439992	-1.451179	0.950679
C106	C	0.060008	-0.951179	1.450679
C107	C	-0.491559	-1.384053	1.115268
C108	C	0.008441	-0.884053	1.615268
C109	C	-0.543070	-1.316795	1.060412
C110	C	-0.043070	-0.816795	1.560412
C111	C	-0.543046	-1.316735	0.950684
C112	C	-0.043046	-0.816735	1.450684
C113	C	-0.491505	-1.383928	0.895823
C114	C	0.008495	-0.883928	1.395823
H115	H	-0.491386	-1.217991	0.640638
H116	H	0.008614	-0.717991	1.140638
H117	H	-0.585036	-1.262096	1.105094
H118	H	-0.085036	-0.762096	1.605094
C119	C	-0.599481	-1.134168	0.781929
C120	C	-0.099481	-0.634168	1.281929
H121	H	-0.592101	-1.207370	0.772294
H122	H	-0.092101	-0.707370	1.272294
H123	H	-0.653679	-1.116218	0.766653
H124	H	-0.153679	-0.616218	1.266653
H125	H	-0.587577	-1.116165	0.852503
H126	H	-0.087577	-0.616165	1.352503
C127	C	-0.491583	-1.384117	1.235959
C128	C	0.008417	-0.884117	1.735959
H129	H	-0.453516	-1.433784	1.260773
H130	H	0.046484	-0.933784	1.760773
H131	H	-0.543630	-1.402266	1.260720
H132	H	-0.043630	-0.902266	1.760720
H133	H	-0.477600	-1.316334	1.260842
H134	H	0.022400	-0.816334	1.760842
H135	H	-0.584997	-1.261976	0.906025
H136	H	-0.084997	-0.761976	1.406025
C137	C	-0.285481	-1.653012	1.235940
C138	C	0.214519	-1.153012	1.735940
H139	H	-0.247419	-1.702686	1.260752
H140	H	0.252581	-1.202686	1.760752
H141	H	-0.337531	-1.671158	1.260694
H142	H	0.162469	-1.171158	1.760694
H143	H	-0.271495	-1.585233	1.260832
H144	H	0.228505	-1.085233	1.760832
H145	H	-0.584799	-0.919424	0.762720
H146	H	-0.084799	-0.419424	1.262720
C147	C	-0.491426	-0.788514	0.640660
C148	C	0.008574	-0.288514	1.140660
H149	H	-0.529452	-0.763708	0.690372
H150	H	-0.029452	-0.263708	1.190372
H151	H	-0.505463	-0.763714	0.572888
H152	H	-0.005463	-0.263714	1.072888
H153	H	-0.439368	-0.763660	0.658747
H154	H	0.060632	-0.263660	1.158747
H155	H	-0.285541	-0.819806	0.371526
H156	H	0.214459	-0.319806	0.871526
H157	H	-0.192147	-0.919305	0.249449
H158	H	0.307853	-0.419305	0.749449
C159	C	-0.177415	-1.134047	0.230201
C160	C	0.322585	-0.634047	0.730201
H161	H	-0.146765	-1.085647	0.190140
H162	H	0.353235	-0.585647	0.690140
H163	H	-0.208320	-1.176878	0.184478
H164	H	0.291680	-0.676878	0.684478
H165	H	-0.142217	-1.176819	0.270327
H166	H	0.357783	-0.676819	0.770327
C167	C	-0.285495	-1.249284	0.371492
C168	C	0.214505	-0.749284	0.871492
H169	H	-0.247465	-1.274093	0.321788
H170	H	0.252535	-0.774093	0.821788
H171	H	-0.337551	-1.274136	0.353420
H172	H	0.162449	-0.774136	0.853420
H173	H	-0.271448	-1.274081	0.439268
H174	H	0.228552	-0.774081	0.939268
C175	C	-0.285372	-1.652751	0.775113
C176	C	0.214628	-1.152751	1.275113
H177	H	-0.247302	-1.702402	0.750293
H178	H	0.252698	-1.202402	1.250293
H179	H	-0.271386	-1.584946	0.750363
H180	H	0.228614	-1.084946	1.250363
H181	H	-0.337412	-1.670883	0.750225
H182	H	0.162588	-1.170883	1.250225
H183	H	-0.191924	-1.774782	0.905978
H184	H	0.308076	-1.274782	1.405978
C185	C	-0.491482	-1.383865	0.775132
C186	C	0.008518	-0.883865	1.275132
H187	H	-0.529540	-1.334188	0.750316
H188	H	-0.029540	-0.834188	1.250316
H189	H	-0.505457	-1.451644	0.750247
H190	H	-0.005457	-0.951644	1.250247
H191	H	-0.439430	-1.365708	0.750376
H192	H	0.060570	-0.865708	1.250376
C193	C	-0.177246	-1.794104	1.120726
C194	C	0.322754	-1.294104	1.620726
H195	H	-0.146542	-1.834109	1.072340
H196	H	0.353458	-1.334109	1.572340
H197	H	-0.208125	-1.839881	1.163465
H198	H	0.291875	-1.339881	1.663465
H199	H	-0.142098	-1.753946	1.163592
H200	H	0.357902	-1.253946	1.663592
