data_functionalizedCrystal
_audit_creation_method	'MofGen! by Chris Wilmer'
_symmetry_space_group_name_H-M	'P1'
_symmetry_Int_Tables_number	1
_symmetry_cell_setting	triclinic
loop_
_symmetry_equiv_pos_as_xyz
  x,y,z
_cell_length_a	16.625547
_cell_length_b	16.625546
_cell_length_c	13.897441
_cell_angle_alpha	89.966553
_cell_angle_beta	89.973876
_cell_angle_gamma	90.022405
loop_
_atom_site_label
_atom_site_type_symbol
_atom_site_fract_x
_atom_site_fract_y
_atom_site_fract_z
Zn1	Zn	1.232691	-0.320977	-0.545501
Zn2	Zn	1.482691	-0.070977	-0.295501
Zn3	Zn	1.732691	0.179023	-0.045501
Zn4	Zn	1.982691	0.429023	0.204499
Zn5	Zn	1.232591	-0.455828	-0.384194
Zn6	Zn	1.482591	-0.205828	-0.134194
Zn7	Zn	1.732591	0.044172	0.115806
Zn8	Zn	1.982591	0.294172	0.365806
Zn9	Zn	1.097850	-0.321012	-0.384204
Zn10	Zn	1.347850	-0.071012	-0.134204
Zn11	Zn	1.597850	0.178988	0.115796
Zn12	Zn	1.847850	0.428988	0.365796
Zn13	Zn	1.097823	-0.455771	-0.545432
Zn14	Zn	1.347823	-0.205771	-0.295432
Zn15	Zn	1.597823	0.044229	-0.045432
Zn16	Zn	1.847823	0.294229	0.204568
O17	O	1.165239	-0.388397	-0.464833
O18	O	1.415239	-0.138397	-0.214833
O19	O	1.665239	0.111603	0.035167
O20	O	1.915239	0.361603	0.285167
O21	O	1.345510	-0.338874	-0.524128
O22	O	1.595510	-0.088874	-0.274128
O23	O	1.845510	0.161126	-0.024128
O24	O	2.095510	0.411126	0.225872
O25	O	1.214687	-0.437982	-0.249214
O26	O	1.464687	-0.187982	0.000786
O27	O	1.714687	0.062018	0.250786
O28	O	1.964687	0.312018	0.500786
O29	O	1.115789	-0.208175	-0.405633
O30	O	1.365789	0.041825	-0.155633
O31	O	1.615789	0.291825	0.094367
O32	O	1.865789	0.541825	0.344367
O33	O	1.345437	-0.437948	-0.405617
O34	O	1.595437	-0.187948	-0.155617
O35	O	1.845437	0.062052	0.094383
O36	O	2.095437	0.312052	0.344383
O37	O	1.214857	-0.208149	-0.524138
O38	O	1.464857	0.041851	-0.274138
O39	O	1.714857	0.291851	-0.024138
O40	O	1.964857	0.541851	0.225862
O41	O	1.115693	-0.338934	-0.249221
O42	O	1.365693	-0.088934	0.000779
O43	O	1.615693	0.161066	0.250779
O44	O	1.865693	0.411066	0.500779
O45	O	0.985014	-0.338880	-0.405566
O46	O	1.235014	-0.088880	-0.155566
O47	O	1.485014	0.161120	0.094434
O48	O	1.735014	0.411120	0.344434
O49	O	1.115744	-0.437852	-0.680423
O50	O	1.365744	-0.187852	-0.430423
O51	O	1.615744	0.062148	-0.180423
O52	O	1.865744	0.312148	0.069577
O53	O	0.984994	-0.437887	-0.524020
O54	O	1.234994	-0.187887	-0.274020
O55	O	1.484994	0.062113	-0.024020
O56	O	1.734994	0.312113	0.225980
O57	O	1.214831	-0.338820	-0.680473
O58	O	1.464831	-0.088820	-0.430473
O59	O	1.714831	0.161180	-0.180473
O60	O	1.964831	0.411180	0.069527
O61	O	1.214661	-0.568652	-0.405550
O62	O	1.464661	-0.318652	-0.155550
O63	O	1.714661	-0.068652	0.094450
O64	O	1.964661	0.181348	0.344450
O65	O	1.115647	-0.568611	-0.524010
O66	O	1.365647	-0.318611	-0.274010
O67	O	1.615647	-0.068611	-0.024010
O68	O	1.865647	0.181389	0.225990
C69	C	0.955748	-0.388381	-0.464787
C70	C	1.205748	-0.138381	-0.214787
C71	C	1.455748	0.111619	0.035213
C72	C	1.705748	0.361619	0.285213
C73	C	0.866127	-0.388394	-0.464790
C74	C	1.116127	-0.138394	-0.214790
C75	C	1.366127	0.111606	0.035210
C76	C	1.616127	0.361606	0.285210
C77	C	0.793344	-0.388396	-0.464802
C78	C	1.043344	-0.138396	-0.214802
C79	C	1.293344	0.111604	0.035198
C80	C	1.543344	0.361604	0.285198
C81	C	0.702036	-0.388400	-0.464827
C82	C	0.952036	-0.138400	-0.214827
C83	C	1.202036	0.111600	0.035173
C84	C	1.452036	0.361600	0.285173
C85	C	0.629259	-0.388407	-0.464851
C86	C	0.879259	-0.138407	-0.214851
C87	C	1.129259	0.111593	0.035149
C88	C	1.379259	0.361593	0.285149
C89	C	0.537945	-0.388413	-0.464874
C90	C	0.787945	-0.138413	-0.214874
C91	C	1.037945	0.111587	0.035126
C92	C	1.287945	0.361587	0.285126
C93	C	1.165162	-0.597888	-0.464792
C94	C	1.415162	-0.347888	-0.214792
C95	C	1.665162	-0.097888	0.035208
C96	C	1.915162	0.152112	0.285208
C97	C	1.165203	-0.687509	-0.464807
C98	C	1.415203	-0.437509	-0.214807
C99	C	1.665203	-0.187509	0.035193
C100	C	1.915203	0.062491	0.285193
C101	C	1.165344	-1.015685	-0.464908
C102	C	1.415344	-0.765685	-0.214908
C103	C	1.665344	-0.515685	0.035092
C104	C	1.915344	-0.265685	0.285092
C105	C	1.165302	-0.924376	-0.464882
C106	C	1.415302	-0.674376	-0.214882
C107	C	1.665302	-0.424376	0.035118
C108	C	1.915302	-0.174376	0.285118
C109	C	1.165273	-0.851600	-0.464857
C110	C	1.415273	-0.601600	-0.214857
C111	C	1.665273	-0.351600	0.035143
C112	C	1.915273	-0.101600	0.285143
C113	C	1.165233	-0.760286	-0.464833
C114	C	1.415233	-0.510286	-0.214833
C115	C	1.665233	-0.260286	0.035167
C116	C	1.915233	-0.010286	0.285167
C117	C	1.375548	-0.388413	-0.464879
C118	C	1.625548	-0.138413	-0.214879
C119	C	1.875548	0.111587	0.035121
C120	C	2.125548	0.361587	0.285121
C121	C	1.465169	-0.388420	-0.464899
C122	C	1.715169	-0.138420	-0.214899
C123	C	1.965169	0.111580	0.035101
C124	C	2.215169	0.361580	0.285101
C125	C	1.165296	-0.388326	-0.716426
C126	C	1.415296	-0.138326	-0.466426
C127	C	1.665296	0.111674	-0.216426
C128	C	1.915296	0.361674	0.033574
C129	C	1.165320	-0.388296	-0.823640
C130	C	1.415320	-0.138296	-0.573640
C131	C	1.665320	0.111704	-0.323640
C132	C	1.915320	0.361704	-0.073640
C133	C	1.165337	-0.178088	-0.464894
C134	C	1.415337	0.071912	-0.214894
C135	C	1.665337	0.321912	0.035106
C136	C	1.915337	0.571912	0.285106
C137	C	1.165379	-0.088467	-0.464921
C138	C	1.415379	0.161533	-0.214921
C139	C	1.665379	0.411533	0.035079
C140	C	1.915379	0.661533	0.285079
C141	C	1.165342	-0.388241	-1.019935
C142	C	1.415342	-0.138241	-0.769935
C143	C	1.665342	0.111759	-0.519935
C144	C	1.915342	0.361759	-0.269935
C145	C	1.165327	-0.388274	-0.910702
C146	C	1.415327	-0.138274	-0.660702
C147	C	1.665327	0.111726	-0.410702
C148	C	1.915327	0.361726	-0.160702
C149	C	1.165228	-0.388410	-0.214218
C150	C	1.415228	-0.138410	0.035782
C151	C	1.665228	0.111590	0.285782
C152	C	1.915228	0.361590	0.535782
C153	C	1.165360	-0.388213	-0.107005
C154	C	1.415360	-0.138213	0.142995
C155	C	1.665360	0.111787	0.392995
C156	C	1.915360	0.361787	0.642995
