data_functionalizedCrystal
_audit_creation_method	'MofGen! by Chris Wilmer'
_symmetry_space_group_name_H-M	'P1'
_symmetry_Int_Tables_number	1
_symmetry_cell_setting	triclinic
loop_
_symmetry_equiv_pos_as_xyz
  x,y,z
_cell_length_a	6.817900
_cell_length_b	16.255661
_cell_length_c	16.256275
_cell_angle_alpha	95.350152
_cell_angle_beta	103.500333
_cell_angle_gamma	103.488922
loop_
_atom_site_label
_atom_site_type_symbol
_atom_site_fract_x
_atom_site_fract_y
_atom_site_fract_z
V1	V	-4.026776	-0.264174	-0.117778
O2	O	-4.014188	-0.258835	0.004956
O3	O	-3.978390	-0.262665	-0.232858
O4	O	-3.978337	-0.379253	-0.116275
O5	O	-4.014241	-0.141440	-0.112433
V6	V	-4.510407	-0.249458	-0.103061
O7	O	-4.287797	-0.296455	-0.150061
O8	O	-4.699583	-0.217177	-0.070779
O9	O	-4.335586	-0.250967	0.012018
O10	O	-4.640392	-0.254796	-0.225796
O11	O	-4.640339	-0.372192	-0.108406
O12	O	-4.335639	-0.134378	-0.104564
C13	C	-3.823396	-0.258575	-0.260902
C14	C	-3.865121	-0.258108	-0.354983
C15	C	-4.156068	-0.261383	-0.586814
C16	C	-4.122322	-0.329022	-0.651960
C17	C	-3.941423	-0.257239	-0.527229
C18	C	-4.049504	-0.188785	-0.629721
C19	C	-4.015138	-0.256397	-0.693610
C20	C	-3.907157	-0.324943	-0.591145
C21	C	-3.834331	-0.184644	-0.568892
C22	C	-3.800444	-0.252297	-0.634012
C23	C	-3.898963	-0.257726	-0.431381
C24	C	-4.057586	-0.255916	-0.789457
C25	C	-3.823327	-0.407293	-0.112188
C26	C	-3.865007	-0.501373	-0.111721
C27	C	-3.775560	-0.724178	-0.106138
C28	C	-3.932015	-0.793839	-0.178197
C29	C	-3.941391	-0.673620	-0.110845
C30	C	-3.859225	-0.771594	-0.037961
C31	C	-4.015158	-0.840001	-0.109994
C32	C	-4.097328	-0.742051	-0.182968
C33	C	-4.024476	-0.719790	-0.042668
C34	C	-4.181067	-0.789432	-0.114748
C35	C	-3.898890	-0.577772	-0.111335
C36	C	-4.057676	-0.935848	-0.109510
C37	C	-4.153923	-0.255055	0.040058
C38	C	-4.091435	-0.255527	0.134138
C39	C	-4.153992	-0.106334	-0.108654
C40	C	-4.091551	-0.012253	-0.109117
H41	H	-4.306013	-0.265315	-0.565956
H42	H	-4.110140	-0.131245	-0.646963
H43	H	-4.244457	-0.390060	-0.688006
C44	C	-4.450163	-0.915973	-0.118493
C45	C	-4.413082	-0.827720	-0.119679
H46	H	-4.593396	-0.939609	-0.121534
H47	H	-4.416676	-0.942317	-0.166155
H48	H	-4.365583	-0.925844	-0.066975
H49	H	-4.497651	-0.817849	-0.171200
H50	H	-4.446592	-0.801368	-0.072013
H51	H	-3.603804	-0.695688	-0.102591
H52	H	-3.650355	-0.248471	-0.654729
H53	H	-3.758957	-0.785046	0.023306
H54	H	-3.846693	-0.382552	-0.574019
H55	H	-3.712256	-0.123605	-0.532828
C56	C	-3.921571	-0.925758	-0.254689
C57	C	-3.879863	-0.837365	-0.255545
H58	H	-3.889373	-0.952624	-0.302441
H59	H	-3.838352	-0.936388	-0.203252
H60	H	-4.065289	-0.948210	-0.257810
H61	H	-3.736140	-0.814911	-0.252418
H62	H	-3.963081	-0.826728	-0.306996
H63	H	-4.197577	-0.728742	-0.244317
H64	H	-4.063039	-0.687534	0.014633
