data_functionalizedCrystal
_audit_creation_method	'MofGen! by Chris Wilmer'
_symmetry_space_group_name_H-M	'P1'
_symmetry_Int_Tables_number	1
_symmetry_cell_setting	triclinic
loop_
_symmetry_equiv_pos_as_xyz
  x,y,z
_cell_length_a	15.944551
_cell_length_b	12.503572
_cell_length_c	14.044220
_cell_angle_alpha	93.843168
_cell_angle_beta	88.343808
_cell_angle_gamma	86.485927
loop_
_atom_site_label
_atom_site_type_symbol
_atom_site_fract_x
_atom_site_fract_y
_atom_site_fract_z
O1	O	1.128105	-0.089210	0.116774
O2	O	0.884686	-0.089237	0.131845
O3	O	1.002741	-0.089213	-0.013675
O4	O	1.010050	-0.089234	0.262294
O5	O	0.993864	0.089427	-0.002713
O6	O	0.875808	0.089403	0.142807
O7	O	1.119228	0.089430	0.127736
Cu8	Cu	0.996708	0.105728	0.136272
Cu9	Cu	1.007206	-0.105535	0.123309
O10	O	1.001173	0.089406	0.273256
C11	C	0.848906	0.000080	0.136700
C12	C	0.755520	0.000070	0.134823
N13	N	0.989330	0.254319	0.145390
N14	N	1.014590	-0.254126	0.114183
C15	C	0.533573	0.000097	0.040141
C16	C	0.480222	-0.087985	0.078704
C17	C	0.584540	0.000083	0.131431
C18	C	0.471493	0.088140	0.089533
C19	C	0.419380	0.000100	0.128147
C20	C	0.532423	-0.088073	0.170014
C21	C	0.523696	0.088132	0.180836
C22	C	0.470368	0.000028	0.219464
C23	C	0.679684	0.000072	0.133320
C24	C	0.324238	0.000103	0.126264
C25	C	1.155007	0.000111	0.122881
C26	C	1.248394	0.000114	0.124757
C27	C	0.995104	0.000107	-0.043508
C28	C	0.985563	0.000107	-0.148735
C29	C	0.978477	0.473432	0.158810
C30	C	1.025440	0.526768	0.100766
C31	C	1.019401	0.648690	0.108234
C32	C	0.984515	0.351499	0.151344
C33	C	0.968120	0.000090	-0.341398
C34	C	1.035790	0.000094	-0.399027
C35	C	1.026085	0.000084	-0.506232
C36	C	0.977824	0.000099	-0.234184
C37	C	1.008810	0.000084	0.303089
C38	C	1.018352	0.000076	0.408315
H39	H	0.561238	-0.000006	-0.035630
N40	N	0.881725	0.000094	-0.382679
H41	H	0.853454	-0.066125	-0.364652
H42	H	0.887018	0.000135	-0.454512
N43	N	0.454645	-0.186619	0.021517
H44	H	0.506576	-0.231052	-0.003713
H45	H	0.420069	-0.164059	-0.033708
N46	N	0.567622	-0.186823	0.215063
H47	H	0.630907	-0.186237	0.216022
H48	H	0.551410	-0.253211	0.176738
N49	N	0.433963	-0.000037	0.319916
H50	H	0.456312	-0.066598	0.350179
H51	H	0.370659	0.000637	0.318066
N52	N	1.122187	0.000130	-0.357737
H53	H	1.165997	0.000137	-0.411135
H54	H	1.132447	-0.066086	-0.321245
N55	N	0.549263	0.186780	0.237996
H56	H	0.584692	0.230157	0.196131
H57	H	0.582849	0.164272	0.293994
H58	H	0.444815	0.162604	0.055473
N59	N	1.084706	0.465967	0.027517
H60	H	1.126939	0.419307	0.060879
H61	H	1.115151	0.518617	-0.010160
N62	N	0.919215	0.534224	0.232059
H63	H	0.923250	0.613965	0.227077
H64	H	0.935015	0.514633	0.298097
