data_functionalizedCrystal
_audit_creation_method	'MofGen! by Chris Wilmer'
_symmetry_space_group_name_H-M	'P1'
_symmetry_Int_Tables_number	1
_symmetry_cell_setting	triclinic
loop_
_symmetry_equiv_pos_as_xyz
  x,y,z
_cell_length_a	19.077409
_cell_length_b	21.395361
_cell_length_c	21.395356
_cell_angle_alpha	90.030681
_cell_angle_beta	92.268175
_cell_angle_gamma	87.667329
loop_
_atom_site_label
_atom_site_type_symbol
_atom_site_fract_x
_atom_site_fract_y
_atom_site_fract_z
Zn1	Zn	1.075969	0.210939	-0.315905
Zn2	Zn	1.409302	0.544273	0.017429
Zn3	Zn	1.742636	0.877606	0.350762
Zn4	Zn	1.075861	0.315720	-0.211126
Zn5	Zn	1.409195	0.649053	0.122208
Zn6	Zn	1.742528	0.982386	0.455541
Zn7	Zn	0.958264	0.215169	-0.215336
Zn8	Zn	1.291598	0.548503	0.117997
Zn9	Zn	1.624931	0.881836	0.451331
Zn10	Zn	0.958228	0.319898	-0.320058
Zn11	Zn	1.291561	0.653231	0.013276
Zn12	Zn	1.624895	0.986564	0.346609
O13	O	1.017081	0.265432	-0.265606
O14	O	1.350414	0.598765	0.067727
O15	O	1.683747	0.932098	0.401061
O16	O	1.174444	0.221320	-0.298505
O17	O	1.507778	0.554653	0.034828
O18	O	1.841111	0.887986	0.368161
O19	O	1.060232	0.302403	-0.124007
O20	O	1.393565	0.635737	0.209326
O21	O	1.726899	0.969070	0.542659
O22	O	0.973939	0.126928	-0.228701
O23	O	1.307272	0.460262	0.104633
O24	O	1.640605	0.793595	0.437966
O25	O	1.174365	0.298302	-0.221525
O26	O	1.507699	0.631635	0.111809
O27	O	1.841032	0.964968	0.445142
O28	O	1.060415	0.123820	-0.302588
O29	O	1.393749	0.457154	0.030745
O30	O	1.727082	0.790487	0.364079
O31	O	0.973834	0.228530	-0.127101
O32	O	1.307168	0.561863	0.206233
O33	O	1.640501	0.895196	0.539566
O34	O	0.859770	0.232581	-0.232728
O35	O	1.193103	0.565914	0.100606
O36	O	1.526437	0.899247	0.433939
O37	O	0.973876	0.305422	-0.407184
O38	O	1.307210	0.638755	-0.073850
O39	O	1.640543	0.972089	0.259483
O40	O	0.859743	0.309524	-0.309666
O41	O	1.193076	0.642857	0.023667
O42	O	1.526410	0.976191	0.357000
O43	O	1.060380	0.225371	-0.404132
O44	O	1.393713	0.558704	-0.070799
O45	O	1.727047	0.892038	0.262534
O46	O	1.060197	0.403954	-0.225552
O47	O	1.393530	0.737287	0.107782
O48	O	1.726863	1.070621	0.441115
O49	O	0.973772	0.407023	-0.305584
O50	O	1.307105	0.740357	0.027750
O51	O	1.640439	1.073690	0.361083
C52	C	0.834219	0.271965	-0.272105
C53	C	1.167553	0.605299	0.061228
C54	C	1.500886	0.938632	0.394562
C55	C	0.755990	0.274775	-0.274900
C56	C	1.089324	0.608109	0.058433
C57	C	1.422657	0.941442	0.391767
C58	C	0.315645	0.294881	-0.294977
C59	C	0.648978	0.628214	0.038356
C60	C	0.982312	0.961548	0.371690
C61	C	0.389149	0.292245	-0.292339
C62	C	0.722483	0.625579	0.040994
C63	C	1.055816	0.958912	0.374328
C64	C	0.425892	0.250803	-0.251029
C65	C	0.759226	0.584136	0.082305
C66	C	1.092559	0.917470	0.415638
C67	C	0.389127	0.211998	-0.212349
C68	C	0.722461	0.545331	0.120984
C69	C	1.055794	0.878665	0.454317
C70	C	0.315624	0.214637	-0.214985
C71	C	0.648958	0.547971	0.118349
C72	C	0.982291	0.881304	0.451682
C73	C	0.645722	0.238610	-0.238856
C74	C	0.979056	0.571943	0.094477
C75	C	1.312389	0.905276	0.427811
C76	C	0.719230	0.235972	-0.236225
C77	C	1.052564	0.569305	0.097108
C78	C	1.385897	0.902639	0.430442
C79	C	0.719247	0.316221	-0.316214
C80	C	1.052581	0.649554	0.017119
C81	C	1.385914	0.982887	0.350452
C82	C	0.645743	0.318854	-0.318848
C83	C	0.979076	0.652187	0.014485
C84	C	1.312409	0.985520	0.347818
C85	C	0.608984	0.280051	-0.280167
C86	C	0.942317	0.613385	0.053167
C87	C	1.275651	0.946718	0.386500
N88	N	0.501026	0.248106	-0.248333
N89	N	0.834359	0.581440	0.085001
N90	N	1.167692	0.914773	0.418334
N91	N	0.533852	0.282751	-0.282860
N92	N	0.867186	0.616085	0.050473
N93	N	1.200519	0.949418	0.383807
C94	C	1.016988	0.428222	-0.265574
C95	C	1.350321	0.761556	0.067759
C96	C	1.683654	1.094889	0.401092
C97	C	1.017012	0.497863	-0.265580
C98	C	1.350346	0.831196	0.067754
C99	C	1.683679	1.164530	0.401087
C100	C	1.017136	0.265391	-0.429027
C101	C	1.350469	0.598724	-0.095694
C102	C	1.683803	0.932057	0.237639
C103	C	1.017160	0.265373	-0.498668
C104	C	1.350493	0.598707	-0.165334
C105	C	1.683826	0.932040	0.167999
C106	C	1.200656	0.258873	-0.259082
C107	C	1.533989	0.592206	0.074251
C108	C	1.867323	0.925539	0.407585
C109	C	1.278885	0.256078	-0.256302
C110	C	1.612218	0.589411	0.077031
C111	C	1.945552	0.922745	0.410365
C112	C	1.017193	0.102004	-0.265651
C113	C	1.350526	0.435338	0.067683
C114	C	1.683860	0.768671	0.401016
C115	C	1.017241	0.032361	-0.265670
C116	C	1.350574	0.365695	0.067664
C117	C	1.683908	0.699028	0.400997
C118	C	1.062054	0.528955	-0.223946
C119	C	1.395387	0.862289	0.109387
C120	C	1.728720	1.195622	0.442720
C121	C	1.062086	0.594390	-0.223959
C122	C	1.395420	0.927723	0.109374
C123	C	1.728753	1.261056	0.442707
C124	C	1.017065	0.628729	-0.265599
C125	C	1.350399	0.962063	0.067734
C126	C	1.683732	1.295396	0.401068
C127	C	0.972021	0.597629	-0.307240
C128	C	1.305354	0.930962	0.026093
C129	C	1.638688	1.264296	0.359427
C130	C	0.971994	0.532196	-0.307230
C131	C	1.305328	0.865529	0.026103
C132	C	1.638661	1.198862	0.359436
C133	C	0.953694	0.734712	-0.272767
C134	C	1.287027	1.068045	0.060566
C135	C	1.620361	1.401379	0.393899
C136	C	0.953719	0.800144	-0.272773
C137	C	1.287052	1.133477	0.060560
C138	C	1.620386	1.466811	0.393894
C139	C	1.017147	0.830547	-0.265633
C140	C	1.350481	1.163880	0.067700
C141	C	1.683814	1.497214	0.401034
C142	C	1.080552	0.795510	-0.258474
C143	C	1.413885	1.128843	0.074859
C144	C	1.747219	1.462176	0.408192
C145	C	1.080526	0.730077	-0.258465
C146	C	1.413859	1.063410	0.074869
C147	C	1.747192	1.396743	0.408202
C148	C	1.017089	0.699681	-0.265615
C149	C	1.350423	1.033014	0.067719
C150	C	1.683756	1.366347	0.401052
C151	C	1.062228	0.932591	-0.224012
C152	C	1.395561	1.265924	0.109322
C153	C	1.728894	1.599257	0.442655
C154	C	1.062262	0.998026	-0.224029
C155	C	1.395595	1.331359	0.109305
C156	C	1.728928	1.664693	0.442638
C157	C	0.972190	1.001264	-0.307306
C158	C	1.305523	1.334598	0.026027
C159	C	1.638857	1.667931	0.359360
C160	C	0.972162	0.935830	-0.307292
C161	C	1.305496	1.269163	0.026041
C162	C	1.638829	1.602497	0.359374
C163	C	1.017180	0.901497	-0.265642
C164	C	1.350514	1.234830	0.067692
C165	C	1.683847	1.568164	0.401025
C166	C	0.972184	0.226902	-0.532981
C167	C	1.305518	0.560236	-0.199648
C168	C	1.638851	0.893569	0.133685
C169	C	0.972182	0.226891	-0.598417
C170	C	1.305515	0.560224	-0.265084
C171	C	1.638849	0.893557	0.068250
C172	C	1.017167	0.265343	-0.629536
C173	C	1.350501	0.598677	-0.296203
C174	C	1.683834	0.932010	0.037131
C175	C	1.062146	0.303822	-0.595214
C176	C	1.395479	0.637155	-0.261881
C177	C	1.728813	0.970489	0.071452
C178	C	1.062142	0.303837	-0.529780
C179	C	1.395475	0.637170	-0.196447
C180	C	1.728809	0.970504	0.136886
C181	C	1.080581	0.267999	-0.730962
C182	C	1.413914	0.601333	-0.397629
C183	C	1.747247	0.934666	-0.064295
C184	C	1.080586	0.267980	-0.796395
C185	C	1.413919	0.601313	-0.463062
C186	C	1.747252	0.934646	-0.129728
C187	C	1.017179	0.265300	-0.831356
C188	C	1.350512	0.598634	-0.498023
C189	C	1.683846	0.931967	-0.164690
C190	C	0.953765	0.262628	-0.800877
C191	C	1.287099	0.595961	-0.467544
C192	C	1.620432	0.929294	-0.134210
C193	C	0.953761	0.262643	-0.735443
C194	C	1.287095	0.595976	-0.402110
C195	C	1.620428	0.929309	-0.068776
C196	C	1.017176	0.265331	-0.700488
C197	C	1.350510	0.598665	-0.367155
C198	C	1.683843	0.931998	-0.033821
C199	C	0.972197	0.226815	-0.936623
C200	C	1.305531	0.560148	-0.603289
C201	C	1.638864	0.893482	-0.269956
C202	C	0.972194	0.226808	-1.002059
C203	C	1.305527	0.560141	-0.668726
C204	C	1.638860	0.893475	-0.335393
C205	C	1.062164	0.303736	-0.998855
C206	C	1.395497	0.637069	-0.665522
C207	C	1.728831	0.970402	-0.332189
C208	C	1.062161	0.303746	-0.933420
C209	C	1.395495	0.637080	-0.600087
C210	C	1.728828	0.970413	-0.266754
C211	C	1.017179	0.265282	-0.902308
C212	C	1.350512	0.598616	-0.568974
C213	C	1.683846	0.931949	-0.235641
C214	C	1.017066	0.265426	-0.102819
C215	C	1.350399	0.598759	0.230514
C216	C	1.683733	0.932092	0.563848
C217	C	1.017179	0.265262	-0.033174
C218	C	1.350512	0.598595	0.300159
C219	C	1.683845	0.931928	0.633493
H220	H	1.098712	0.501003	-0.190034
H221	H	1.432045	0.834337	0.143300
H222	H	1.765378	1.167670	0.476633
C223	C	1.111633	0.628599	-0.178155
C224	C	1.444967	0.961932	0.155179
C225	C	1.778300	1.295265	0.488512
N226	N	1.148951	0.654363	-0.143653
N227	N	1.482284	0.987697	0.189680
N228	N	1.815617	1.321030	0.523014
C229	C	0.922627	0.901626	-0.353105
C230	C	1.255960	1.234960	-0.019772
C231	C	1.589294	1.568293	0.313562
N232	N	0.885323	0.875864	-0.387620
N233	N	1.218656	1.209197	-0.054287
N234	N	1.551989	1.542531	0.279047
C235	C	0.922707	0.184565	-0.636169
C236	C	1.256040	0.517898	-0.302836
C237	C	1.589374	0.851232	0.030498
N238	N	0.885444	0.152684	-0.664602
N239	N	1.218777	0.486017	-0.331269
N240	N	1.552110	0.819350	0.002064
H241	H	1.132201	0.820262	-0.252661
H242	H	1.465535	1.153595	0.080673
H243	H	1.798868	1.486929	0.414006
C244	C	0.275189	0.171949	-0.172440
C245	C	0.608522	0.505282	0.160893
C246	C	0.941856	0.838616	0.494226
N247	N	0.244734	0.139795	-0.140394
N248	N	0.578067	0.473129	0.192940
N249	N	0.911401	0.806462	0.526273
H250	H	0.935553	0.195585	-0.507654
H251	H	1.268887	0.528918	-0.174320
H252	H	1.602220	0.862251	0.159013
H253	H	0.419076	0.323845	-0.323831
H254	H	0.752409	0.657178	0.009502
H255	H	1.085743	0.990511	0.342836
H256	H	0.902128	0.260468	-0.710629
H257	H	1.235461	0.593801	-0.377296
H258	H	1.568794	0.927134	-0.043963
C259	C	0.884011	0.259686	-0.839330
C260	C	1.217345	0.593020	-0.505996
C261	C	1.550678	0.926353	-0.172663
N262	N	0.831475	0.257472	-0.868295
N263	N	1.164808	0.590805	-0.534962
N264	N	1.498141	0.924139	-0.201628
C265	C	0.922667	1.039034	-0.353112
C266	C	1.256001	1.372367	-0.019779
C267	C	1.589334	1.705701	0.313554
N268	N	0.885367	1.067485	-0.387615
N269	N	1.218700	1.400819	-0.054282
N270	N	1.552033	1.734152	0.279051
H271	H	0.935366	0.625592	-0.341145
H272	H	1.268699	0.958926	-0.007811
H273	H	1.602032	1.292259	0.325522
H274	H	0.935316	0.506880	-0.341134
H275	H	1.268649	0.840213	-0.007800
H276	H	1.601982	1.173546	0.325533
C277	C	0.922709	0.184511	-0.902397
C278	C	1.256042	0.517845	-0.569064
C279	C	1.589376	0.851178	-0.235730
N280	N	0.885433	0.152649	-0.876620
N281	N	1.218766	0.485982	-0.543287
N282	N	1.552099	0.819316	-0.209953
H283	H	0.749145	0.202217	-0.202590
H284	H	1.082478	0.535550	0.130744
H285	H	1.415811	0.868883	0.464077
H286	H	1.132151	0.701551	-0.252638
H287	H	1.465485	1.034884	0.080696
H288	H	1.798818	1.368217	0.414029
H289	H	0.935564	0.195482	-1.029997
H290	H	1.268898	0.528816	-0.696664
H291	H	1.602231	0.862149	-0.363330
C292	C	1.111681	0.346005	-1.033081
C293	C	1.445014	0.679338	-0.699748
C294	C	1.778347	1.012671	-0.366415
N295	N	1.148989	0.377833	-1.058863
N296	N	1.482322	0.711166	-0.725530
N297	N	1.815655	1.044500	-0.392197
C298	C	1.111635	0.346147	-0.492034
C299	C	1.444969	0.679480	-0.158700
C300	C	1.778302	1.012813	0.174633
N301	N	1.148920	0.378010	-0.463602
N302	N	1.482253	0.711343	-0.130268
N303	N	1.815587	1.044676	0.203065
C304	C	1.111813	1.032228	-0.178226
C305	C	1.445146	1.365561	0.155107
C306	C	1.778479	1.698894	0.488441
N307	N	1.149134	1.057989	-0.143725
N308	N	1.482468	1.391322	0.189608
N309	N	1.815801	1.724655	0.522941
C310	C	0.883912	0.701276	-0.280607
C311	C	1.217245	1.034609	0.052726
C312	C	1.550578	1.367943	0.386059
N313	N	0.831353	0.676093	-0.286506
N314	N	1.164686	1.009426	0.046827
N315	N	1.498020	1.342759	0.380160
C316	C	0.605331	0.364458	-0.364279
C317	C	0.938664	0.697791	-0.030946
C318	C	1.271997	1.031124	0.302388
N319	N	0.574892	0.398811	-0.398494
N320	N	0.908226	0.732144	-0.065161
N321	N	1.241559	1.065478	0.268172
C322	C	1.111663	0.346045	-0.895673
C323	C	1.444996	0.679379	-0.562340
C324	C	1.778329	1.012712	-0.229006
N325	N	1.148956	0.377902	-0.867242
N326	N	1.482289	0.711235	-0.533908
N327	N	1.815622	1.044568	-0.200575
C328	C	1.150342	0.270919	-0.829916
C329	C	1.483675	0.604253	-0.496583
C330	C	1.817008	0.937586	-0.163249
N331	N	1.202884	0.273135	-0.855162
N332	N	1.536217	0.606468	-0.521829
N333	N	1.869550	0.939801	-0.188496
C334	C	0.759688	0.358907	-0.358755
C335	C	1.093021	0.692240	-0.025422
C336	C	1.426354	1.025573	0.307911
N337	N	0.790147	0.391062	-0.390796
N338	N	1.123481	0.724395	-0.057463
N339	N	1.456814	1.057729	0.275871
H340	H	0.285734	0.328625	-0.328620
H341	H	0.619067	0.661958	0.004713
H342	H	0.952401	0.995291	0.338047
H343	H	0.615802	0.207016	-0.207356
H344	H	0.949136	0.540350	0.125977
H345	H	1.282469	0.873683	0.459311
C346	C	1.150337	0.270950	-0.692511
C347	C	1.483671	0.604284	-0.359177
C348	C	1.817004	0.937617	-0.025844
N349	N	1.202876	0.273174	-0.663550
N350	N	1.536210	0.606507	-0.330217
N351	N	1.869543	0.939841	0.003116
C352	C	1.111534	0.346208	-0.629450
C353	C	1.444868	0.679542	-0.296116
C354	C	1.778201	1.012875	0.037217
N355	N	1.148699	0.378169	-0.655237
N356	N	1.482032	0.711502	-0.321904
N357	N	1.815366	1.044835	0.011430
H358	H	1.098886	0.904636	-0.190099
H359	H	1.432220	1.237969	0.143235
H360	H	1.765553	1.571302	0.476568
C361	C	0.883973	0.838679	-0.280646
C362	C	1.217306	1.172012	0.052688
C363	C	1.550640	1.505345	0.386021
N364	N	0.831438	0.867702	-0.286576
N365	N	1.164771	1.201035	0.046757
N366	N	1.498105	1.534368	0.380090
C367	C	0.429548	0.166406	-0.166912
C368	C	0.762881	0.499739	0.166421
C369	C	1.096214	0.833072	0.499755
N370	N	0.459991	0.132061	-0.132691
N371	N	0.793325	0.465394	0.200642
N372	N	1.126658	0.798728	0.533975
