data_functionalizedCrystal
_audit_creation_method	'MofGen! by Chris Wilmer'
_symmetry_space_group_name_H-M	'P1'
_symmetry_Int_Tables_number	1
_symmetry_cell_setting	triclinic
loop_
_symmetry_equiv_pos_as_xyz
  x,y,z
_cell_length_a	10.723024
_cell_length_b	11.026660
_cell_length_c	9.198806
_cell_angle_alpha	89.996329
_cell_angle_beta	89.997988
_cell_angle_gamma	96.526352
loop_
_atom_site_label
_atom_site_type_symbol
_atom_site_fract_x
_atom_site_fract_y
_atom_site_fract_z
O1	O	0.523486	1.614511	-0.120894
O2	O	0.463878	1.260711	-0.120896
O3	O	0.313867	1.445772	-0.120890
O4	O	0.673497	1.429450	-0.120900
O5	O	0.313863	1.445757	0.120896
O6	O	0.463874	1.260696	0.120890
O7	O	0.523482	1.614496	0.120891
Cu8	Cu	0.493678	1.437595	0.142967
Cu9	Cu	0.493682	1.437612	-0.142972
O10	O	0.673493	1.429435	0.120885
C11	C	0.452879	1.215401	-0.000003
C12	C	0.420098	1.080415	-0.000004
C13	C	0.267109	1.444577	0.000001
C14	C	0.127788	1.441023	-0.000004
C15	C	0.476745	0.867847	-0.000010
C16	C	0.510629	1.007362	-0.000008
C17	C	-0.087795	1.330634	-0.000012
C18	C	0.056201	1.334304	-0.000007
C19	C	0.720251	1.430630	-0.000009
C20	C	0.859572	1.434184	-0.000014
C21	C	0.534481	1.659806	-0.000005
C22	C	0.567262	1.794792	-0.000014
N23	N	0.493676	1.437591	0.344081
N24	N	0.493676	1.437625	-0.344086
C25	C	0.430339	1.515293	0.416281
C26	C	0.430339	1.515312	0.583693
H27	H	0.374164	0.827105	0.000015
H28	H	0.547910	1.371102	0.593835
H29	H	0.317509	1.039681	-0.000097
H30	H	0.613216	1.048098	-0.000001
H31	H	0.669843	0.835534	-0.000008
H32	H	-0.149337	1.239263	-0.000023
H33	H	0.547896	1.371077	0.406207
H34	H	0.082497	1.529675	0.000001
H35	H	-0.078885	1.525555	-0.000064
H36	H	0.376108	1.581799	0.354157
H37	H	0.101501	1.245657	0.000004
H38	H	0.376119	1.581840	0.645781
