data_functionalizedCrystal
_audit_creation_method	'MofGen! by Chris Wilmer'
_symmetry_space_group_name_H-M	'P1'
_symmetry_Int_Tables_number	1
_symmetry_cell_setting	triclinic
loop_
_symmetry_equiv_pos_as_xyz
  x,y,z
_cell_length_a	16.176319
_cell_length_b	17.699083
_cell_length_c	17.699083
_cell_angle_alpha	96.716985
_cell_angle_beta	89.992304
_cell_angle_gamma	90.001389
loop_
_atom_site_label
_atom_site_type_symbol
_atom_site_fract_x
_atom_site_fract_y
_atom_site_fract_z
O1	O	-0.068632	-1.004079	0.095713
O2	O	-0.068660	-0.783700	0.108166
O3	O	-0.068638	-0.900116	-0.008250
O4	O	-0.068654	-0.887663	0.212129
O5	O	0.068855	-0.900100	-0.008257
O6	O	0.068834	-0.783684	0.108158
O7	O	0.068861	-1.004063	0.095706
Cu8	Cu	0.081401	-0.893872	0.101931
Cu9	Cu	-0.081200	-0.893891	0.101940
O10	O	0.068839	-0.887647	0.212121
C11	C	0.000084	-0.755495	0.107716
C12	C	0.000073	-0.671477	0.106377
N13	N	0.195767	-0.893864	0.101925
C14	C	0.000109	-0.899662	-0.036451
C15	C	0.000109	-0.898323	-0.120469
N16	N	-0.195565	-0.893905	0.101941
C17	C	0.239040	-0.945429	0.050397
C18	C	0.325588	-0.945432	0.050396
C19	C	0.368859	-0.893875	0.101927
C20	C	0.325579	-0.842305	0.153457
C21	C	0.239034	-0.842299	0.153454
C22	C	0.674608	-0.842331	0.153472
C23	C	0.761159	-0.842344	0.153473
C24	C	0.761161	-0.945465	0.050414
C25	C	0.674616	-0.945458	0.050410
C26	C	0.631344	-0.893886	0.101937
C27	C	0.537499	-0.893882	0.101937
C28	C	0.462702	-0.893883	0.101932
C29	C	0.000116	-1.032268	0.096156
C30	C	0.000121	-1.116286	0.097494
C31	C	0.000069	-0.622856	0.174710
C32	C	0.000079	-0.543913	0.173448
C33	C	0.000089	-0.513592	0.103852
C34	C	0.000096	-0.562219	0.035513
C35	C	0.000091	-0.641161	0.036776
C36	C	0.000117	-0.243856	0.030418
C37	C	0.000120	-0.164908	0.029160
C38	C	0.000105	-0.146608	0.167090
C39	C	0.000100	-0.225550	0.168353
C40	C	0.000112	-0.274170	0.100015
C41	C	0.000102	-0.359769	0.101384
C42	C	0.000093	-0.427995	0.102481
C43	C	0.000119	-0.966656	-0.169090
C44	C	0.000111	-0.965394	-0.248033
C45	C	0.000100	-0.895798	-0.278354
C46	C	0.000088	-0.827459	-0.229727
C47	C	0.000089	-0.828722	-0.150785
C48	C	0.000080	-0.822364	-0.548090
C49	C	0.000081	-0.821106	-0.627038
C50	C	0.000102	-0.959036	-0.645338
C51	C	0.000104	-0.960299	-0.566396
C52	C	0.000087	-0.891961	-0.517776
C53	C	0.000094	-0.893330	-0.432177
C54	C	0.000099	-0.894427	-0.363951
C55	C	0.000091	-0.888102	0.240322
C56	C	0.000085	-0.889440	0.324340
H57	H	0.360821	-0.987419	0.008438
O58	O	0.000185	-0.759804	-0.259087
C59	C	0.071397	-0.718155	-0.234250
H60	H	0.095141	-0.738680	-0.179539
H61	H	0.055370	-0.655109	-0.223172
H62	H	0.121261	-0.726995	-0.279954
H63	H	0.639387	-0.987444	0.008451
O64	O	0.000077	-1.027971	-0.537069
C65	C	0.000104	-1.088015	-0.596913
H66	H	-0.025929	-1.066901	-0.650500
H67	H	-0.039809	-1.136618	-0.580499
H68	H	0.066068	-1.109081	-0.608129
O69	O	-0.000055	-0.688364	-0.029623
C70	C	-0.071249	-0.674628	-0.071893
H71	H	-0.121022	-0.647570	-0.031886
H72	H	-0.095150	-0.730695	-0.102343
H73	H	-0.055143	-0.634515	-0.115631
H74	H	0.000128	-0.140225	-0.027517
H75	H	0.000067	-0.766718	-0.508512
H76	H	0.000075	-0.504328	0.229092
H77	H	0.796403	-0.987456	0.008455
O78	O	0.000138	-0.099269	0.233406
C79	C	0.000127	-0.023090	0.217374
H80	H	0.026168	-0.020172	0.157931
H81	H	0.040041	0.012753	0.260941
H82	H	-0.065834	-0.000251	0.220285
O83	O	0.000046	-0.762413	-0.103444
C84	C	0.000069	-0.778450	-0.027267
H85	H	-0.025952	-0.837897	-0.024349
H86	H	-0.039857	-0.734891	0.008585
H87	H	0.066030	-0.775530	-0.004437
H88	H	0.796390	-0.800357	0.195437
H89	H	0.000133	-1.023330	-0.144409
H90	H	0.639382	-0.800341	0.195428
O91	O	0.000163	-1.031843	-0.295155
C92	C	0.000160	-1.093541	-0.251465
H93	H	0.026187	-1.074216	-0.192513
H94	H	0.040089	-1.141403	-0.280680
H95	H	-0.065797	-1.114895	-0.245875
H96	H	0.000127	-0.283434	-0.025228
O97	O	0.367739	-0.792295	0.203487
C98	C	0.453406	-0.803346	0.192431
H99	H	0.465224	-0.863571	0.164068
H100	H	0.486286	-0.794820	0.249762
H101	H	0.477982	-0.760583	0.154525
O102	O	0.197123	-0.792182	0.203583
C103	C	0.253872	-0.746665	0.249055
H104	H	0.315560	-0.777698	0.249876
H105	H	0.228854	-0.735001	0.309513
H106	H	0.263089	-0.690492	0.224549
H107	H	0.000116	-0.537526	-0.021154
H108	H	0.000074	-0.764429	-0.651721
O109	O	0.197138	-0.995541	0.000266
C110	C	0.253896	-1.041065	-0.045202
H111	H	0.315592	-1.010041	-0.046014
H112	H	0.228902	-1.052724	-0.105662
H113	H	0.263089	-1.097241	-0.020696
O114	O	0.000095	-0.652181	0.242384
C115	C	0.000074	-0.592334	0.302425
H116	H	0.026109	-0.538747	0.281304
H117	H	0.039986	-0.608742	0.351023
H118	H	-0.065890	-0.581121	0.323500
O119	O	0.000128	-0.254877	0.236025
C120	C	0.000107	-0.195033	0.296069
H121	H	0.026141	-0.141444	0.274950
H122	H	0.040022	-0.211443	0.344665
H123	H	-0.065856	-0.183823	0.317146
H124	H	0.000111	-1.014680	-0.684934
