data_functionalizedCrystal
_audit_creation_method	'MofGen! by Chris Wilmer'
_symmetry_space_group_name_H-M	'P1'
_symmetry_Int_Tables_number	1
_symmetry_cell_setting	triclinic
loop_
_symmetry_equiv_pos_as_xyz
  x,y,z
_cell_length_a	16.959454
_cell_length_b	17.639664
_cell_length_c	16.959447
_cell_angle_alpha	101.179552
_cell_angle_beta	90.026736
_cell_angle_gamma	78.751461
loop_
_atom_site_label
_atom_site_type_symbol
_atom_site_fract_x
_atom_site_fract_y
_atom_site_fract_z
Zn1	Zn	-0.070039	-1.208364	0.203061
Zn2	Zn	0.429961	-0.708364	0.703061
Zn3	Zn	-0.202247	-1.208287	0.070906
Zn4	Zn	0.297753	-0.708287	0.570906
Zn5	Zn	-0.096828	-1.076195	0.097572
Zn6	Zn	0.403172	-0.576195	0.597572
Zn7	Zn	-0.228944	-1.076160	0.229710
Zn8	Zn	0.271056	-0.576160	0.729710
O9	O	-0.149515	-1.142252	0.150312
O10	O	0.350485	-0.642252	0.650312
O11	O	-0.065193	-1.318963	0.163218
O12	O	0.434807	-0.818963	0.663218
O13	O	-0.188302	-1.190747	-0.036164
O14	O	0.311698	-0.690747	0.463836
O15	O	0.017346	-1.093775	0.111573
O16	O	0.517346	-0.593775	0.611573
O17	O	-0.162326	-1.318906	0.066124
O18	O	0.337674	-0.818906	0.566124
O19	O	0.037028	-1.190879	0.189075
O20	O	0.537028	-0.690879	0.689075
O21	O	-0.110851	-1.093700	-0.016572
O22	O	0.389149	-0.593700	0.483428
O23	O	-0.136737	-0.965581	0.137413
O24	O	0.363263	-0.465581	0.637413
O25	O	-0.207826	-1.093715	0.336783
O26	O	0.292174	-0.593715	0.836783
O27	O	-0.233802	-0.965555	0.234495
O28	O	0.266198	-0.465555	0.734495
O29	O	-0.091080	-1.190845	0.317203
O30	O	0.408920	-0.690845	0.817203
O31	O	-0.316409	-1.190713	0.091965
O32	O	0.183591	-0.690713	0.591965
O33	O	-0.336023	-1.093639	0.208638
O34	O	0.163977	-0.593639	0.708638
C35	C	-0.191074	-0.936889	0.191740
C36	C	0.308926	-0.436889	0.691740
C37	C	-0.208872	-0.849033	0.209481
C38	C	0.291128	-0.349033	0.709481
C39	C	-0.284564	-0.725213	0.284946
C40	C	0.215436	-0.225213	0.784946
C41	C	-0.267834	-0.807766	0.268269
C42	C	0.232166	-0.307766	0.768269
C43	C	-0.166615	-0.807757	0.167351
C44	C	0.333385	-0.307757	0.667351
C45	C	-0.183333	-0.725202	0.184022
C46	C	0.316667	-0.225202	0.684022
C47	C	-0.242309	-0.683936	0.242820
C48	C	0.257691	-0.183936	0.742820
C49	C	-0.141079	-0.683926	0.141896
C50	C	0.358921	-0.183926	0.641896
C51	C	-0.157800	-0.601378	0.158564
C52	C	0.342200	-0.101378	0.658564
C53	C	-0.216775	-0.560106	0.217357
C54	C	0.283225	-0.060106	0.717357
C55	C	-0.259030	-0.601389	0.259487
C56	C	0.240970	-0.101389	0.759487
C57	C	-0.082108	-0.725193	0.083095
C58	C	0.417892	-0.225193	0.583095
C59	C	-0.039853	-0.683916	0.040969
C60	C	0.460147	-0.183916	0.540969
C61	C	-0.056570	-0.601367	0.057640
C62	C	0.443430	-0.101367	0.557640
C63	C	-0.115544	-0.560096	0.116433
C64	C	0.384456	-0.060096	0.616433
C65	C	-0.014314	-0.560085	0.015510
C66	C	0.485686	-0.060085	0.515510
C67	C	-0.031035	-0.477537	0.032177
C68	C	0.468965	0.022463	0.532177
C69	C	-0.132265	-0.477548	0.133101
C70	C	0.367735	0.022452	0.633101
C71	C	-0.354894	-1.142185	0.150312
C72	C	0.145106	-0.642185	0.650312
C73	C	-0.442742	-1.142229	0.150324
C74	C	0.057258	-0.642229	0.650324
C75	C	-0.824441	-1.091779	0.211044
C76	C	-0.324441	-0.591779	0.711044
C77	C	-0.803940	-1.192944	0.089617
C78	C	-0.303940	-0.692944	0.589617
C79	C	-0.721400	-1.192917	0.089616
C80	C	-0.221400	-0.692917	0.589616
C81	C	-0.690377	-1.142319	0.150328
C82	C	-0.190377	-0.642319	0.650328
C83	C	-0.741894	-1.091748	0.211043
C84	C	-0.241894	-0.591748	0.711043
C85	C	-0.669878	-1.243481	0.028898
C86	C	-0.169878	-0.743481	0.528898
C87	C	-0.587333	-1.243455	0.028893
C88	C	-0.087333	-0.743455	0.528893
C89	C	-0.556307	-1.192860	0.089610
C90	C	-0.056307	-0.692860	0.589610
C91	C	-0.607830	-1.142288	0.150327
C92	C	-0.107830	-0.642288	0.650327
C93	C	-0.576806	-1.091690	0.211040
C94	C	-0.076806	-0.591690	0.711040
C95	C	-0.628326	-1.041121	0.271761
C96	C	-0.128326	-0.541121	0.771761
C97	C	-0.710868	-1.041153	0.271759
C98	C	-0.210868	-0.541153	0.771759
C99	C	-0.473765	-1.192828	0.089612
C100	C	0.026235	-0.692828	0.589612
C101	C	-0.494259	-1.091659	0.211038
C102	C	0.005741	-0.591659	0.711038
C103	C	0.056671	-1.142340	0.150325
C104	C	0.556671	-0.642340	0.650325
C105	C	0.144536	-1.142377	0.150331
C106	C	0.644536	-0.642377	0.650331
C107	C	-0.149443	-1.142284	0.356474
C108	C	0.350557	-0.642284	0.856474
C109	C	-0.149412	-1.142298	0.444328
C110	C	0.350588	-0.642298	0.944328
C111	C	-0.107793	-0.348416	0.108717
C112	C	0.392207	0.151584	0.608717
C113	C	-0.090011	-0.436272	0.090975
C114	C	0.409989	0.063728	0.590975
C115	C	-0.149520	-1.142264	-0.055056
C116	C	0.350480	-0.642264	0.444944
C117	C	-0.149297	-1.142403	-0.142941
C118	C	0.350703	-0.642403	0.357059
C119	C	-0.210094	-1.091822	0.825981
C120	C	0.289906	-0.591822	1.325981
C121	C	-0.088525	-1.192964	0.805588
C122	C	0.411475	-0.692964	1.305588
C123	C	-0.088546	-1.192943	0.723047
C124	C	0.411454	-0.692943	1.223047
C125	C	-0.149342	-1.142361	0.691968
C126	C	0.350658	-0.642361	1.191968
C127	C	-0.210118	-1.091801	0.743432
C128	C	0.289882	-0.591801	1.243432
C129	C	-0.027776	-1.243509	0.671576
C130	C	0.472224	-0.743509	1.171576
C131	C	-0.027795	-1.243490	0.589029
C132	C	0.472205	-0.743490	1.089029
C133	C	-0.088589	-1.192904	0.557950
C134	C	0.411411	-0.692904	1.057950
C135	C	-0.149367	-1.142340	0.609419
C136	C	0.350633	-0.642340	1.109419
C137	C	-0.210163	-1.091759	0.578341
C138	C	0.289837	-0.591759	1.078341
C139	C	-0.270938	-1.041191	0.629809
C140	C	0.229062	-0.541191	1.129809
C141	C	-0.270912	-1.041214	0.712353
C142	C	0.229088	-0.541214	1.212353
C143	C	-0.088615	-1.192880	0.475406
C144	C	0.411385	-0.692880	0.975406
C145	C	-0.210187	-1.091738	0.495791
C146	C	0.289813	-0.591738	0.995791
H147	H	-0.332580	-0.691612	0.332832
H148	H	0.167420	-0.191612	0.832832
H149	H	-0.118599	-0.841367	0.119476
H150	H	0.381401	-0.341367	0.619476
H151	H	-0.695145	-1.284669	-0.020536
H152	H	-0.195145	-0.784669	0.479464
Br153	Br	-0.325189	-0.863782	0.325443
Br154	Br	0.174811	-0.363782	0.825443
Br155	Br	0.040180	-0.739927	-0.038827
Br156	Br	0.540180	-0.239927	0.461173
H157	H	-0.866392	-1.050609	0.260483
H158	H	-0.366392	-0.550609	0.760483
Br159	Br	-0.452161	-1.022992	0.293444
Br160	Br	0.047839	-0.522992	0.793444
H161	H	-0.039135	-1.234054	0.433504
H162	H	0.460865	-0.734054	0.933504
Br163	Br	0.065711	-0.616098	-0.064293
Br164	Br	0.565711	-0.116098	0.435707
Br165	Br	-0.292567	-1.023192	0.895827
Br166	Br	0.207433	-0.523192	1.395827
Br167	Br	0.026302	-0.421514	-0.025001
Br168	Br	0.526302	0.078486	0.474999
H169	H	-0.068497	-0.792409	0.069526
H170	H	0.431503	-0.292409	0.569526
Br171	Br	-0.339058	-0.545377	0.339297
Br172	Br	0.160942	-0.045377	0.839297
H173	H	-0.603058	-0.999920	0.321191
H174	H	-0.103058	-0.499920	0.821191
H175	H	-0.180281	-0.443947	0.180987
H176	H	0.319719	0.056053	0.680987
Br177	Br	-0.780791	-0.972531	0.354158
Br178	Br	-0.280791	-0.472531	0.854158
Br179	Br	-0.239478	-0.448076	0.239970
Br180	Br	0.260522	0.051924	0.739970
Br181	Br	-0.353387	-0.972596	0.782205
Br182	Br	0.146613	-0.472596	1.282205
Br183	Br	-0.353450	-0.972553	0.587620
Br184	Br	0.146550	-0.472553	1.087620
Br185	Br	-0.517419	-1.312087	-0.053507
Br186	Br	-0.017419	-0.812087	0.446493
Br187	Br	-0.006026	-1.261616	0.847765
Br188	Br	0.493974	-0.761616	1.347765
Br189	Br	-0.846045	-1.261609	0.007225
Br190	Br	-0.346045	-0.761609	0.507225
H191	H	-0.431822	-1.233996	0.040170
H192	H	0.068178	-0.733996	0.540170
Br193	Br	0.054722	-1.312159	0.713755
Br194	Br	0.554722	-0.812159	1.213755
Br195	Br	-0.292696	-1.023080	0.453622
Br196	Br	0.207304	-0.523080	0.953622
H197	H	0.021692	-1.284665	0.547130
H198	H	0.521692	-0.784665	1.047130
