data_functionalizedCrystal
_audit_creation_method	'MofGen! by Chris Wilmer'
_symmetry_space_group_name_H-M	'P1'
_symmetry_Int_Tables_number	1
_symmetry_cell_setting	triclinic
loop_
_symmetry_equiv_pos_as_xyz
  x,y,z
_cell_length_a	10.489741
_cell_length_b	15.186229
_cell_length_c	16.109301
_cell_angle_alpha	90.005167
_cell_angle_beta	95.999673
_cell_angle_gamma	89.999333
loop_
_atom_site_label
_atom_site_type_symbol
_atom_site_fract_x
_atom_site_fract_y
_atom_site_fract_z
O1	O	1.692350	-0.073177	-0.117298
O2	O	1.320995	-0.073191	-0.128308
O3	O	1.516874	-0.073175	-0.001835
O4	O	1.496471	-0.073194	-0.243771
O5	O	1.516861	0.073282	-0.001833
O6	O	1.320981	0.073266	-0.128306
O7	O	1.692337	0.073280	-0.117296
Zn8	Zn	1.506657	0.096526	-0.122801
Zn9	Zn	1.506674	-0.096438	-0.122803
O10	O	1.496458	0.073264	-0.243769
C11	C	1.273468	0.000036	-0.127475
C12	C	1.131875	0.000031	-0.124987
N13	N	1.506655	0.228219	-0.122798
N14	N	1.506687	-0.228130	-0.122799
C15	C	1.064902	0.000045	-0.044516
C16	C	0.972231	-0.072167	-0.082531
C17	C	0.972251	0.072228	-0.082548
C18	C	1.041068	-0.072241	-0.163035
C19	C	1.041099	0.072219	-0.163041
C20	C	0.948453	-0.000011	-0.201115
C21	C	1.739863	0.000051	-0.118128
C22	C	1.881456	0.000050	-0.120616
C23	C	1.516041	0.000054	0.029146
C24	C	1.513563	0.000055	0.121457
C25	C	1.593419	0.453949	-0.066815
C26	C	1.593423	0.546139	-0.066813
C27	C	1.419913	0.546133	-0.178784
C28	C	1.419904	0.453945	-0.178782
C29	C	1.506664	0.407856	-0.122798
C30	C	1.506677	0.592233	-0.122799
C31	C	1.506681	0.692189	-0.122797
C32	C	1.506659	0.307893	-0.122799
C33	C	1.497291	0.000033	-0.274750
C34	C	1.499769	0.000026	-0.367060
C35	C	1.624032	0.000045	0.343048
C36	C	1.621694	0.000038	0.429783
C37	C	1.389290	0.000033	0.411341
C38	C	1.391630	0.000034	0.324608
C39	C	1.509004	0.000045	0.290464
C40	C	1.504327	0.000036	0.463932
C41	C	1.501791	0.000028	0.557974
C42	C	1.511541	0.000051	0.196417
H43	H	0.941716	-0.133213	-0.048483
N44	N	1.081241	-0.153203	-0.208103
H45	H	1.177277	-0.152725	-0.209484
H46	H	1.055527	-0.207630	-0.177909
N47	N	1.687012	0.595850	-0.006440
H48	H	1.638309	0.634106	0.030690
H49	H	1.741945	0.552601	0.028962
N50	N	1.081586	0.153069	-0.208120
H51	H	1.037501	0.153631	-0.266938
H52	H	1.056855	0.207558	-0.177620
N53	N	1.326358	0.595848	-0.239174
H54	H	1.271397	0.552656	-0.274638
H55	H	1.269991	0.634108	-0.206991
H56	H	1.349251	0.416413	-0.224370
H57	H	1.719606	0.000052	0.315251
N58	N	1.745759	0.000039	0.486500
H59	H	1.820465	0.000046	0.451706
H60	H	1.749845	0.054331	0.522894
H61	H	1.293728	0.000026	0.439152
H62	H	1.297954	0.000031	0.281792
H63	H	0.898069	-0.000055	-0.267337
N64	N	1.131933	-0.000029	0.043125
H65	H	1.107076	-0.054623	0.073412
H66	H	1.227763	0.000562	0.040766
H67	H	0.941762	0.133278	-0.048484
H68	H	1.664063	0.416425	-0.021229
