data_functionalizedCrystal
_audit_creation_method	'MofGen! by Chris Wilmer'
_symmetry_space_group_name_H-M	'P1'
_symmetry_Int_Tables_number	1
_symmetry_cell_setting	triclinic
loop_
_symmetry_equiv_pos_as_xyz
  x,y,z
_cell_length_a	19.288864
_cell_length_b	18.266242
_cell_length_c	19.288857
_cell_angle_alpha	90.008509
_cell_angle_beta	83.134677
_cell_angle_gamma	90.022884
loop_
_atom_site_label
_atom_site_type_symbol
_atom_site_fract_x
_atom_site_fract_y
_atom_site_fract_z
O1	O	0.921350	0.061119	0.086649
O2	O	1.421350	0.561119	0.586649
O3	O	0.719089	0.061070	0.098338
O4	O	1.219089	0.561070	0.598338
O5	O	0.826067	0.061087	-0.008637
O6	O	1.326067	0.561087	0.491363
O7	O	0.814373	0.061102	0.193624
O8	O	1.314373	0.561102	0.693624
O9	O	0.826049	-0.060675	-0.008643
O10	O	1.326049	0.439325	0.491357
O11	O	0.719071	-0.060692	0.098332
O12	O	1.219071	0.439308	0.598332
O13	O	0.921332	-0.060643	0.086644
O14	O	1.421332	0.439357	0.586644
Zn15	Zn	0.820199	-0.080000	0.092487
Zn16	Zn	1.320199	0.420000	0.592487
Zn17	Zn	0.820223	0.080427	0.092494
Zn18	Zn	1.320223	0.580427	0.592494
O19	O	0.814355	-0.060660	0.193619
O20	O	1.314355	0.439340	0.693619
C21	C	0.693204	0.000182	0.097959
C22	C	1.193204	0.500182	0.597959
C23	C	0.616100	0.000163	0.096830
C24	C	1.116100	0.500163	0.596830
N25	N	0.820188	-0.189487	0.092482
N26	N	1.320188	0.310513	0.592482
C27	C	0.571402	0.000179	0.159598
C28	C	1.071402	0.500179	0.659598
C29	C	0.498955	0.000187	0.158537
C30	C	0.998955	0.500187	0.658537
C31	C	0.471210	0.000194	0.094705
C32	C	0.971210	0.500194	0.594705
C33	C	0.515917	0.000173	0.031929
C34	C	1.015917	0.500173	0.531929
C35	C	0.588363	0.000158	0.032991
C36	C	1.088363	0.500158	0.532991
C37	C	0.362955	0.042873	0.044528
C38	C	0.862955	0.542873	0.544528
C39	C	0.290511	0.042893	0.043468
C40	C	0.790511	0.542893	0.543468
C41	C	0.247764	0.000238	0.091425
C42	C	0.747764	0.500238	0.591425
C43	C	0.277469	-0.042428	0.140455
C44	C	0.777469	0.457572	0.640455
C45	C	0.349914	-0.042444	0.141517
C46	C	0.849914	0.457556	0.641517
C47	C	0.392656	0.000210	0.093546
C48	C	0.892656	0.500210	0.593546
C49	C	0.124510	0.000261	0.153048
C50	C	0.624510	0.500261	0.653048
C51	C	0.052062	0.000265	0.151984
C52	C	0.552062	0.500265	0.651984
C53	C	0.069026	0.000259	0.025374
C54	C	0.569026	0.500259	0.525374
C55	C	0.141472	0.000248	0.026439
C56	C	0.641472	0.500248	0.526439
C57	C	0.169210	0.000253	0.090278
C58	C	0.669210	0.500253	0.590278
C59	C	0.867573	-0.227788	0.045136
C60	C	1.367573	0.272212	0.545136
C61	C	0.867577	-0.304433	0.045133
C62	C	1.367577	0.195567	0.545133
C63	C	0.820203	-0.342774	0.092487
C64	C	1.320203	0.157226	0.592487
C65	C	0.772809	-0.304463	0.139836
C66	C	1.272809	0.195537	0.639836
C67	C	0.772801	-0.227820	0.139834
C68	C	1.272801	0.272180	0.639834
N69	N	0.811168	-0.463103	0.153976
N70	N	1.311168	0.036897	0.653976
N71	N	0.811180	-0.535911	0.153976
N72	N	1.311180	-0.035911	0.653976
C73	C	0.820223	-0.573696	0.092497
C74	C	1.320223	-0.073696	0.592497
N75	N	0.829267	-0.535923	0.031016
N76	N	1.329267	-0.035923	0.531016
N77	N	0.829259	-0.463108	0.031016
N78	N	1.329259	0.036892	0.531016
C79	C	0.820206	-0.425881	0.092495
C80	C	1.320206	0.074119	0.592495
C81	C	0.867615	-0.695105	0.045144
C82	C	1.367615	-0.195105	0.545144
C83	C	0.867615	-0.771751	0.045140
C84	C	1.367615	-0.271751	0.545140
C85	C	0.772850	-0.771780	0.139850
C86	C	1.272850	-0.271780	0.639850
C87	C	0.772847	-0.695135	0.139848
C88	C	1.272847	-0.195135	0.639848
C89	C	0.820233	-0.656802	0.092496
C90	C	1.320233	-0.156802	0.592496
C91	C	0.947218	0.000246	0.087022
C92	C	1.447218	0.500246	0.587022
C93	C	1.024321	0.000270	0.088151
C94	C	1.524321	0.500270	0.588151
C95	C	0.825683	0.000205	-0.034516
C96	C	1.325683	0.500205	0.465484
C97	C	0.824556	0.000203	-0.111620
C98	C	1.324556	0.500203	0.388380
N99	N	0.820239	0.189914	0.092494
N100	N	1.320239	0.689914	0.592494
C101	C	0.824040	0.066575	-0.147828
C102	C	1.324040	0.566575	0.352172
C103	C	0.822971	0.066580	-0.220274
C104	C	1.322971	0.566580	0.279726
C105	C	0.822432	0.000209	-0.256511
C106	C	1.322432	0.500209	0.243489
C107	C	0.822945	-0.066172	-0.220295
C108	C	1.322945	0.433828	0.279705
C109	C	0.824006	-0.066175	-0.147849
C110	C	1.324006	0.433825	0.352151
C111	C	0.861426	-0.050625	-0.376745
C112	C	1.361426	0.449375	0.123255
C113	C	0.860369	-0.050619	-0.449190
C114	C	1.360369	0.449381	0.050810
C115	C	0.819155	0.000217	-0.479957
C116	C	1.319155	0.500217	0.020043
C117	C	0.779007	0.051059	-0.438272
C118	C	1.279007	0.551059	0.061728
C119	C	0.780068	0.051056	-0.365827
C120	C	1.280068	0.551056	0.134173
C121	C	0.821281	0.000206	-0.335066
C122	C	1.321281	0.500206	0.164934
C123	C	0.817479	0.066600	-0.594719
C124	C	1.317479	0.566600	-0.094719
C125	C	0.816406	0.066602	-0.667166
C126	C	1.316406	0.566602	-0.167166
C127	C	0.816386	-0.066152	-0.667186
C128	C	1.316386	0.433848	-0.167186
C129	C	0.817452	-0.066153	-0.594740
C130	C	1.317452	0.433847	-0.094740
C131	C	0.818002	0.000225	-0.558511
C132	C	1.318002	0.500225	-0.058511
C133	C	0.814739	0.000223	0.219498
C134	C	1.314739	0.500223	0.719498
C135	C	0.815866	0.000230	0.296602
C136	C	1.315866	0.500230	0.796602
H137	H	0.593981	0.000184	0.211581
H138	H	1.093981	0.500184	0.711581
C139	C	0.815791	-0.139161	-0.707035
C140	C	1.315791	0.360839	-0.207035
H141	H	0.816248	-0.178692	-0.675091
H142	H	1.316248	0.321308	-0.175091
H143	H	0.855870	-0.141912	-0.740724
H144	H	1.355870	0.358088	-0.240724
H145	H	0.774873	-0.141927	-0.729867
H146	H	1.274873	0.358073	-0.229867
H147	H	0.266331	0.077637	0.003548
H148	H	0.766331	0.577637	0.503548
C149	C	0.818074	0.139608	-0.554860
C150	C	1.318074	0.639608	-0.054860
H151	H	0.818790	0.130101	-0.506529
H152	H	1.318790	0.630101	-0.006529
H153	H	0.777408	0.166871	-0.561301
H154	H	1.277408	0.666871	-0.061301
H155	H	0.858405	0.166890	-0.572156
H156	H	1.358405	0.666890	-0.072156
H157	H	0.745446	0.092455	-0.463321
H158	H	1.245446	0.592455	0.036679
H159	H	0.734235	-0.335684	0.178392
H160	H	1.234235	0.164316	0.678392
C161	C	0.919688	-0.185626	-0.006956
C162	C	1.419688	0.314374	0.493044
H163	H	0.947906	-0.219418	-0.035158
H164	H	1.447906	0.280582	0.464842
H165	H	0.948517	-0.155703	0.017953
H166	H	1.448517	0.344297	0.517953
H167	H	0.894787	-0.155751	-0.035812
H168	H	1.394787	0.344249	0.464188
H169	H	0.824424	-0.120225	-0.118369
H170	H	1.324424	0.379775	0.381631
C171	C	0.919737	-0.813886	-0.006944
C172	C	1.419737	-0.313886	0.493056
H173	H	0.912950	-0.865023	-0.000168
H174	H	1.412950	-0.365023	0.499832
H175	H	0.966066	-0.801303	0.000483
H176	H	1.466066	-0.301303	0.500483
H177	H	0.912340	-0.801335	-0.053285
H178	H	1.412340	-0.301335	0.446715
C179	C	0.919704	-0.346577	-0.006945
C180	C	1.419704	0.153423	0.493055
H181	H	0.912919	-0.397713	-0.000162
H182	H	1.412919	0.102287	0.499838
H183	H	0.966032	-0.333990	0.000485
H184	H	1.466032	0.166010	0.500485
H185	H	0.912310	-0.334033	-0.053289
H186	H	1.412310	0.165967	0.446711
H187	H	0.734214	-0.196635	0.178389
H188	H	1.234214	0.303365	0.678389
H189	H	0.824485	0.120625	-0.118335
H190	H	1.324485	0.620625	0.381665
H191	H	0.397755	0.077613	0.005473
H192	H	0.897755	0.577613	0.505473
C193	C	0.002890	0.000283	0.221031
C194	C	0.502890	0.500283	0.721031
H195	H	-0.044229	0.000283	0.211257
H196	H	0.455771	0.500283	0.711257
H197	H	0.011301	0.042746	0.247214
H198	H	0.511301	0.542746	0.747214
H199	H	0.011256	-0.042181	0.247217
H200	H	0.511256	0.457819	0.747217
H201	H	0.493322	0.000189	-0.020044
H202	H	0.993322	0.500189	0.479956
H203	H	0.906198	-0.663892	0.006586
H204	H	1.406198	-0.163892	0.506586
H205	H	0.734274	-0.802996	0.178404
H206	H	1.234274	-0.302996	0.678404
C207	C	0.818032	-0.139163	-0.554911
C208	C	1.318032	0.360837	-0.054911
H209	H	0.817564	-0.178692	-0.586867
H210	H	1.317564	0.321308	-0.086867
H211	H	0.777951	-0.141936	-0.521223
H212	H	1.277951	0.358064	-0.021223
H213	H	0.858949	-0.141911	-0.532079
H214	H	1.358949	0.358089	-0.032079
C215	C	0.815835	0.139616	-0.706994
C216	C	1.315835	0.639616	-0.206994
H217	H	0.816320	0.179144	-0.675040
H218	H	1.316320	0.679144	-0.175040
H219	H	0.774923	0.142370	-0.729827
H220	H	1.274923	0.642370	-0.229827
H221	H	0.855921	0.142382	-0.740682
H222	H	1.355921	0.642382	-0.240682
C223	C	0.904507	-0.106559	-0.495037
C224	C	1.404507	0.393441	0.004963
H225	H	0.897973	-0.099277	-0.542589
H226	H	1.397973	0.400723	-0.042589
H227	H	0.890347	-0.154738	-0.481244
H228	H	1.390347	0.345262	0.018756
H229	H	0.952431	-0.100168	-0.489568
H230	H	1.452431	0.399832	0.010432
H231	H	0.822546	0.120631	-0.249759
H232	H	1.322546	0.620631	0.250241
C233	C	0.038514	0.000270	-0.044841
C234	C	0.538514	0.500270	0.455159
H235	H	-0.011034	0.000287	-0.036485
H236	H	0.488966	0.500287	0.463515
H237	H	0.053847	-0.042192	-0.070683
H238	H	0.553847	0.457808	0.429317
H239	H	0.053895	0.042735	-0.070669
H240	H	0.553895	0.542735	0.429331
H241	H	0.734264	-0.663948	0.178404
H242	H	1.234264	-0.163948	0.678404
C243	C	0.906764	-0.106549	-0.342908
C244	C	1.406764	0.393451	0.157092
H245	H	0.930529	-0.136820	-0.378109
H246	H	1.430529	0.363180	0.121891
H247	H	0.877844	-0.135964	-0.310723
H248	H	1.377844	0.364036	0.189277
H249	H	0.939899	-0.081358	-0.319027
H250	H	1.439899	0.418642	0.180973
H251	H	0.822504	-0.120211	-0.249803
H252	H	1.322504	0.379789	0.250197
H253	H	0.177867	0.000239	-0.024674
H254	H	0.677867	0.500239	0.475326
H255	H	0.747377	0.092452	-0.331889
H256	H	1.247377	0.592452	0.168111
H257	H	0.147095	0.000255	0.205029
H258	H	0.647095	0.500255	0.705029
C259	C	0.382589	-0.089378	0.195438
C260	C	0.882589	0.410622	0.695438
H261	H	0.346760	-0.114786	0.223847
H262	H	0.846760	0.385214	0.723847
H263	H	0.407113	-0.058631	0.223900
H264	H	0.907113	0.441369	0.723900
H265	H	0.414046	-0.123689	0.171828
H266	H	0.914046	0.376311	0.671828
H267	H	0.462555	0.000198	0.209652
H268	H	0.962555	0.500198	0.709652
H269	H	0.242666	-0.077163	0.179506
H270	H	0.742666	0.422837	0.679506
H271	H	0.624757	0.000145	-0.018124
H272	H	1.124757	0.500145	0.481876
