data_functionalizedCrystal
_audit_creation_method	'MofGen! by Chris Wilmer'
_symmetry_space_group_name_H-M	'P1'
_symmetry_Int_Tables_number	1
_symmetry_cell_setting	triclinic
loop_
_symmetry_equiv_pos_as_xyz
  x,y,z
_cell_length_a	18.050589
_cell_length_b	16.959455
_cell_length_c	16.959447
_cell_angle_alpha	89.977004
_cell_angle_beta	89.973275
_cell_angle_gamma	90.025241
loop_
_atom_site_label
_atom_site_type_symbol
_atom_site_fract_x
_atom_site_fract_y
_atom_site_fract_z
Zn1	Zn	-0.295703	1.208360	-0.447057
Zn2	Zn	0.204297	1.708360	0.052943
Zn3	Zn	-0.419905	1.208257	-0.314886
Zn4	Zn	0.080095	1.708257	0.185114
Zn5	Zn	-0.295727	1.076182	-0.314880
Zn6	Zn	0.204273	1.576182	0.185120
Zn7	Zn	-0.419849	1.076134	-0.447011
Zn8	Zn	0.080151	1.576134	0.052989
O9	O	-0.357796	1.142233	-0.380959
O10	O	0.142204	1.642233	0.119041
O11	O	-0.312192	1.318957	-0.429546
O12	O	0.187808	1.818957	0.070454
O13	O	-0.403466	1.190714	-0.204275
O14	O	0.096534	1.690714	0.295725
O15	O	-0.191799	1.093779	-0.332430
O16	O	0.308201	1.593779	0.167570
O17	O	-0.403443	1.318882	-0.332441
O18	O	0.096557	1.818882	0.167559
O19	O	-0.191782	1.190889	-0.429539
O20	O	0.308218	1.690889	0.070461
O21	O	-0.312232	1.093679	-0.204270
O22	O	0.187768	1.593679	0.295730
O23	O	-0.312179	0.965565	-0.332386
O24	O	0.187821	1.465565	0.167614
O25	O	-0.403348	1.093697	-0.557628
O26	O	0.096652	1.593697	-0.057628
O27	O	-0.403371	0.965529	-0.429462
O28	O	0.096629	1.465529	0.070538
O29	O	-0.312138	1.190842	-0.557661
O30	O	0.187862	1.690842	-0.057661
O31	O	-0.523822	1.190668	-0.332397
O32	O	-0.023822	1.690668	0.167603
O33	O	-0.523781	1.093597	-0.429468
O34	O	-0.023781	1.593597	0.070532
C35	C	-0.357772	0.936867	-0.380919
C36	C	0.142228	1.436867	0.119081
C37	C	-0.357779	0.849010	-0.380920
C38	C	0.142221	1.349010	0.119080
C39	C	-0.405263	0.477485	-0.330370
C40	C	0.094737	0.977485	0.169630
C41	C	-0.310391	0.477584	-0.431643
C42	C	0.189609	0.977584	0.068357
C43	C	-0.310378	0.560130	-0.431624
C44	C	0.189622	1.060130	0.068376
C45	C	-0.357810	0.601357	-0.380978
C46	C	0.142190	1.101357	0.119022
C47	C	-0.405254	0.560038	-0.330351
C48	C	0.094746	1.060038	0.169649
C49	C	-0.262941	0.601455	-0.482255
C50	C	0.237059	1.101455	0.017745
C51	C	-0.262927	0.684006	-0.482239
C52	C	0.237073	1.184006	0.017761
C53	C	-0.310356	0.725235	-0.431588
C54	C	0.189644	1.225235	0.068412
C55	C	-0.357801	0.683911	-0.380959
C56	C	0.142199	1.183911	0.119041
C57	C	-0.405232	0.725138	-0.330313
C58	C	0.094768	1.225138	0.169687
C59	C	-0.452675	0.683815	-0.279679
C60	C	0.047325	1.183815	0.220321
C61	C	-0.452682	0.601267	-0.279701
C62	C	0.047318	1.101267	0.220299
C63	C	-0.310348	0.807783	-0.431566
C64	C	0.189652	1.307783	0.068434
C65	C	-0.405223	0.807691	-0.330294
C66	C	0.094777	1.307691	0.169706
C67	C	-0.550748	1.142138	-0.380945
C68	C	-0.050748	1.642138	0.119055
C69	C	-0.633294	1.142169	-0.380966
C70	C	-0.133294	1.642169	0.119034
C71	C	-0.832749	1.089434	-0.433735
C72	C	-0.332749	1.589434	0.066265
C73	C	-0.882193	1.070168	-0.361606
C74	C	-0.382193	1.570168	0.138394
C75	C	-0.784424	1.142247	-0.380977
C76	C	-0.284424	1.642247	0.119023
C77	C	-0.882063	1.161552	-0.453114
C78	C	-0.382063	1.661552	0.046886
C79	C	-0.930409	1.142320	-0.380993
C80	C	-0.430409	1.642320	0.119007
C81	C	-0.832780	1.122943	-0.308809
C82	C	-0.332780	1.622943	0.191191
C83	C	-0.832646	1.214360	-0.400366
C84	C	-0.332646	1.714360	0.099634
C85	C	-0.882067	1.195121	-0.328187
C86	C	-0.382067	1.695121	0.171813
C87	C	-0.700326	1.142202	-0.380968
C88	C	-0.200326	1.642202	0.119032
C89	C	-1.014506	1.142365	-0.380993
C90	C	-0.514506	1.642365	0.119007
C91	C	-0.164090	1.142350	-0.380989
C92	C	0.335910	1.642350	0.119011
C93	C	-0.081545	1.142400	-0.381002
C94	C	0.418455	1.642400	0.118998
C95	C	-0.357734	1.142275	-0.587127
C96	C	0.142266	1.642275	-0.087127
C97	C	-0.357708	1.142294	-0.674983
C98	C	0.142292	1.642294	-0.174983
C99	C	-0.357821	1.348401	-0.380999
C100	C	0.142179	1.848401	0.119001
C101	C	-0.357832	1.436258	-0.381016
C102	C	0.142168	1.936258	0.118984
C103	C	-0.310129	1.091841	-1.046463
C104	C	0.189871	1.591841	-0.546463
C105	C	-0.405131	1.192885	-1.046455
C106	C	0.094869	1.692885	-0.546455
C107	C	-0.405148	1.192871	-0.963910
C108	C	0.094852	1.692871	-0.463910
C109	C	-0.357656	1.142341	-0.922637
C110	C	0.142344	1.642341	-0.422637
C111	C	-0.310146	1.091825	-0.963910
C112	C	0.189854	1.591825	-0.463910
C113	C	-0.452662	1.243381	-0.922630
C114	C	0.047338	1.743381	-0.422630
C115	C	-0.452682	1.243369	-0.840079
C116	C	0.047318	1.743369	-0.340079
C117	C	-0.405185	1.192842	-0.798805
C118	C	0.094815	1.692842	-0.298805
C119	C	-0.357673	1.142324	-0.840083
C120	C	0.142327	1.642324	-0.340083
C121	C	-0.310181	1.091794	-0.798810
C122	C	0.189819	1.591794	-0.298810
C123	C	-0.262665	1.041279	-0.840087
C124	C	0.237335	1.541279	-0.340087
C125	C	-0.262650	1.041298	-0.922635
C126	C	0.237350	1.541298	-0.422635
C127	C	-0.405200	1.192824	-0.716256
C128	C	0.094800	1.692824	-0.216256
C129	C	-0.310198	1.091777	-0.716256
C130	C	0.189802	1.591777	-0.216256
C131	C	-0.357804	1.142236	-0.175592
C132	C	0.142196	1.642236	0.324408
C133	C	-0.357621	1.142372	-0.087736
C134	C	0.142379	1.642372	0.412264
H135	H	-0.491297	0.717393	-0.238447
H136	H	0.008703	1.217393	0.261553
H137	H	-0.810869	1.275296	-0.416785
H138	H	-0.310869	1.775296	0.083215
H139	H	-0.271778	0.444013	-0.472881
H140	H	0.228222	0.944013	0.027119
H141	H	-0.443846	0.841253	-0.289048
H142	H	0.056154	1.341253	0.210952
H143	H	-0.491307	0.567615	-0.238477
H144	H	0.008693	1.067615	0.261523
Br145	Br	-0.918151	1.188716	-0.554780
Br146	Br	-0.418151	1.688716	-0.054780
H147	H	-0.903972	1.009218	-0.345222
H148	H	-0.403972	1.509218	0.154778
H149	H	-0.271520	1.050632	-0.682658
H150	H	0.228480	1.550632	-0.182658
H151	H	-0.224297	0.717644	-0.523467
H152	H	0.275703	1.217644	-0.023467
H153	H	-0.443887	0.443836	-0.289143
H154	H	0.056113	0.943836	0.210857
Br155	Br	-0.796854	1.095663	-0.207109
Br156	Br	-0.296854	1.595663	0.292891
H157	H	-0.903585	1.239815	-0.283526
H158	H	-0.403585	1.739815	0.216474
Br159	Br	-0.469689	1.261365	-0.660241
Br160	Br	0.030311	1.761365	-0.160241
Br161	Br	-0.198586	0.545502	-0.550998
Br162	Br	0.301414	1.045502	-0.050998
Br163	Br	-0.198214	0.972705	-0.784064
Br164	Br	0.301786	1.472705	-0.284064
H165	H	-0.271723	0.841424	-0.472793
H166	H	0.228277	1.341424	0.027207
Br167	Br	-0.796654	1.014891	-0.507996
Br168	Br	-0.296654	1.514891	-0.007996
Br169	Br	-0.198171	0.972747	-0.978657
Br170	Br	0.301829	1.472747	-0.478657
H171	H	-0.271440	1.050716	-1.080074
H172	H	0.228560	1.550716	-0.580074
Br173	Br	-0.469590	1.261449	-1.102469
Br174	Br	0.030410	1.761449	-0.602469
H175	H	-0.491336	1.284511	-0.956241
H176	H	0.008664	1.784511	-0.456241
H177	H	-0.491373	1.284500	-0.806479
H178	H	0.008627	1.784500	-0.306479
