data_functionalizedCrystal
_audit_creation_method	'MofGen! by Chris Wilmer'
_symmetry_space_group_name_H-M	'P1'
_symmetry_Int_Tables_number	1
_symmetry_cell_setting	triclinic
loop_
_symmetry_equiv_pos_as_xyz
  x,y,z
_cell_length_a	21.395362
_cell_length_b	12.759400
_cell_length_c	21.395356
_cell_angle_alpha	89.976983
_cell_angle_beta	89.957023
_cell_angle_gamma	90.030564
loop_
_atom_site_label
_atom_site_type_symbol
_atom_site_fract_x
_atom_site_fract_y
_atom_site_fract_z
Zn1	Zn	0.957923	-0.417848	-0.354606
Zn2	Zn	1.457923	0.082152	0.145394
Zn3	Zn	0.957857	-0.593540	-0.249837
Zn4	Zn	1.457857	-0.093540	0.250163
Zn5	Zn	0.853140	-0.417925	-0.249807
Zn6	Zn	1.353140	0.082075	0.250193
Zn7	Zn	0.853137	-0.593534	-0.354542
Zn8	Zn	1.353137	-0.093534	0.145458
O9	O	0.905514	-0.505711	-0.302198
O10	O	1.405514	-0.005711	0.197802
O11	O	1.045592	-0.441124	-0.340747
O12	O	1.545592	0.058876	0.159253
O13	O	0.943939	-0.570279	-0.162155
O14	O	1.443939	-0.070279	0.337845
O15	O	0.867069	-0.270893	-0.263723
O16	O	1.367069	0.229107	0.236277
O17	O	1.045544	-0.570205	-0.263774
O18	O	1.545544	-0.070205	0.236226
O19	O	0.944053	-0.270837	-0.340719
O20	O	1.444053	0.229163	0.159281
O21	O	0.867004	-0.441255	-0.162133
O22	O	1.367004	0.058745	0.337867
O23	O	0.765462	-0.441249	-0.263661
O24	O	1.265462	0.058751	0.236339
O25	O	0.867063	-0.570194	-0.442228
O26	O	1.367063	-0.070194	0.057772
O27	O	0.765459	-0.570268	-0.340609
O28	O	1.265459	-0.070268	0.159391
O29	O	0.944050	-0.441118	-0.442275
O30	O	1.444050	0.058882	0.057725
O31	O	0.943936	-0.740560	-0.263712
O32	O	1.443936	-0.240560	0.236288
O33	O	0.866999	-0.740556	-0.340638
O34	O	1.366999	-0.240556	0.159362
C35	C	0.742727	-0.505767	-0.302125
C36	C	1.242727	-0.005767	0.197875
C37	C	0.673085	-0.505816	-0.302109
C38	C	1.173085	-0.005816	0.197891
C39	C	0.640387	-0.573086	-0.342116
C40	C	1.140387	-0.073086	0.157884
C41	C	0.574952	-0.573060	-0.342144
C42	C	1.074952	-0.073060	0.157856
C43	C	0.542217	-0.505776	-0.302154
C44	C	1.042217	-0.005776	0.197846
C45	C	0.574923	-0.438493	-0.262144
C46	C	1.074923	0.061507	0.237856
C47	C	0.640357	-0.438513	-0.262122
C48	C	1.140357	0.061487	0.237878
C49	C	0.438492	-0.497327	-0.245748
C50	C	0.938492	0.002673	0.254252
C51	C	0.373059	-0.497314	-0.245769
C52	C	0.873059	0.002686	0.254231
C53	C	0.340396	-0.505707	-0.302223
C54	C	0.840396	-0.005707	0.197777
C55	C	0.373175	-0.514135	-0.358657
C56	C	0.873175	-0.014135	0.141343
C57	C	0.438609	-0.514155	-0.358635
C58	C	0.938609	-0.014155	0.141365
C59	C	0.471265	-0.505746	-0.302174
C60	C	0.971265	-0.005746	0.197826
C61	C	0.236746	-0.572952	-0.342263
C62	C	0.736746	-0.072952	0.157737
C63	C	0.171309	-0.572919	-0.342292
C64	C	0.671309	-0.072919	0.157708
C65	C	0.171281	-0.438358	-0.262287
C66	C	0.671281	0.061642	0.237713
C67	C	0.236717	-0.438386	-0.262264
C68	C	0.736717	0.061614	0.237736
C69	C	0.269445	-0.505688	-0.302251
C70	C	0.769445	-0.005688	0.197749
C71	C	0.905477	-0.778679	-0.302185
C72	C	1.405477	-0.278679	0.197815
C73	C	0.905518	-0.895455	-0.302200
C74	C	1.405518	-0.395455	0.197800
C75	C	0.945624	-0.950285	-0.262189
C76	C	1.445624	-0.450285	0.237811
C77	C	0.945663	-1.060009	-0.262209
C78	C	1.445663	-0.560009	0.237791
C79	C	0.865484	-1.060064	-0.342252
C80	C	1.365484	-0.560064	0.157748
C81	C	0.865449	-0.950342	-0.342235
C82	C	1.365449	-0.450342	0.157765
C83	C	0.991913	-0.950254	-0.215975
C84	C	1.491913	-0.450254	0.284025
C85	C	0.991951	-1.059978	-0.215994
C86	C	1.491951	-0.559978	0.284006
C87	C	1.068938	-0.505656	-0.302271
C88	C	1.568938	-0.005656	0.197729
C89	C	1.138579	-0.505633	-0.302303
C90	C	1.638579	-0.005633	0.197697
C91	C	0.905563	-0.505646	-0.465621
C92	C	1.405563	-0.005646	0.034379
C93	C	0.905584	-0.505619	-0.535263
C94	C	1.405584	-0.005619	-0.035263
C95	C	0.905569	-0.231678	-0.302225
C96	C	1.405569	0.268322	0.197775
C97	C	0.905592	-0.114902	-0.302236
C98	C	1.405592	0.385098	0.197764
C99	C	0.865535	-0.438428	-0.567955
C100	C	1.365535	0.061572	-0.067955
C101	C	0.865533	-0.438409	-0.633390
C102	C	1.365533	0.061591	-0.133390
C103	C	0.905591	-0.505569	-0.666131
C104	C	1.405591	-0.005569	-0.166131
C105	C	0.945644	-0.572772	-0.633431
C106	C	1.445644	-0.072772	-0.133431
C107	C	0.945640	-0.572797	-0.567997
C108	C	1.445640	-0.072797	-0.067997
C109	C	0.962045	-0.513802	-0.769837
C110	C	1.462045	-0.013802	-0.269837
C111	C	0.962049	-0.513770	-0.835270
C112	C	1.462049	-0.013770	-0.335270
C113	C	0.905602	-0.505498	-0.867952
C114	C	1.405602	-0.005498	-0.367952
C115	C	0.849148	-0.497236	-0.835193
C116	C	1.349148	0.002764	-0.335193
C117	C	0.849144	-0.497261	-0.769759
C118	C	1.349144	0.002739	-0.269759
C119	C	0.905599	-0.505549	-0.737083
C120	C	1.405599	-0.005549	-0.237083
C121	C	0.865547	-0.438283	-0.971596
C122	C	1.365547	0.061717	-0.471596
C123	C	0.865543	-0.438270	-1.037033
C124	C	1.365543	0.061730	-0.537033
C125	C	0.945660	-0.572628	-1.037073
C126	C	1.445660	-0.072628	-0.537073
C127	C	0.945657	-0.572646	-0.971638
C128	C	1.445657	-0.072646	-0.471638
C129	C	0.905602	-0.505467	-0.938903
C130	C	1.405602	-0.005467	-0.438903
C131	C	0.905501	-0.505701	-0.139410
C132	C	1.405501	-0.005701	0.360590
C133	C	0.905602	-0.505432	-0.069770
C134	C	1.405602	-0.005432	0.430230
H135	H	0.548324	-0.627838	-0.374725
H136	H	1.048324	-0.127838	0.125275
H137	H	0.548266	-0.383708	-0.229585
H138	H	1.048266	0.116292	0.270415
Br139	Br	0.482813	-0.485937	-0.169125
Br140	Br	0.982813	0.014063	0.330875
H141	H	0.978271	-0.627357	-0.945020
H142	H	1.478271	-0.127357	-0.445020
Br143	Br	0.684736	-0.347210	-0.207824
Br144	Br	1.184736	0.152790	0.292176
Br145	Br	0.811030	-0.875933	-0.396550
Br146	Br	1.311030	-0.375933	0.103450
Br147	Br	0.772533	-0.486053	-0.725302
Br148	Br	1.272533	0.013947	-0.225302
H149	H	0.144629	-0.383569	-0.229729
H150	H	0.644629	0.116431	0.270271
Br151	Br	0.811109	-1.134560	-0.396584
Br152	Br	1.311109	-0.634560	0.103416
H153	H	0.346582	-0.520967	-0.404627
H154	H	0.846582	-0.020967	0.095373
Br155	Br	1.072764	-0.900447	-0.237725
Br156	Br	1.572764	-0.400447	0.262275
Br157	Br	0.962943	-0.893656	-0.139112
Br158	Br	1.462943	-0.393656	0.360888
Br159	Br	1.068782	-1.116538	-0.245074
Br160	Br	1.568782	-0.616538	0.254926
Br161	Br	0.281096	-0.347086	-0.207965
Br162	Br	0.781096	0.152914	0.292035
H163	H	0.263395	-0.627749	-0.374827
H164	H	0.763395	-0.127749	0.125173
Br165	Br	0.970346	-1.109751	-0.135098
Br166	Br	1.470346	-0.609751	0.364902
H167	H	0.978277	-0.627309	-1.063730
H168	H	1.478277	-0.127309	-0.563730
Br169	Br	0.811172	-0.347261	-0.523532
Br170	Br	1.311172	0.152739	-0.023532
Br171	Br	0.811190	-0.347192	-0.677768
Br172	Br	1.311190	0.152808	-0.177768
Br173	Br	0.811165	-0.347111	-1.081402
Br174	Br	1.311165	0.152889	-0.581402
Br175	Br	0.772535	-0.485998	-0.879538
Br176	Br	1.272535	0.014002	-0.379538
H177	H	0.465294	-0.521014	-0.404585
H178	H	0.965294	-0.021014	0.095415
H179	H	0.978256	-0.627510	-0.541380
H180	H	1.478256	-0.127510	-0.041380
H181	H	0.346376	-0.490458	-0.199817
H182	H	0.846376	0.009542	0.300183
H183	H	0.832931	-0.383583	-0.944943
H184	H	1.332931	0.116417	-0.444943
Br185	Br	1.038663	-0.524992	-0.879722
Br186	Br	1.538663	-0.024992	-0.379722
H187	H	0.667031	-0.627887	-0.374678
H188	H	1.167031	-0.127887	0.125322
H189	H	1.008015	-0.520530	-0.743233
H190	H	1.508015	-0.020530	-0.243233
Br191	Br	1.000004	-0.663927	-0.677864
Br192	Br	1.500004	-0.163927	-0.177864
H193	H	0.144688	-0.627696	-0.374875
H194	H	0.644688	-0.127696	0.125125
