data_functionalizedCrystal
_audit_creation_method	'MofGen! by Chris Wilmer'
_symmetry_space_group_name_H-M	'P1'
_symmetry_Int_Tables_number	1
_symmetry_cell_setting	triclinic
loop_
_symmetry_equiv_pos_as_xyz
  x,y,z
_cell_length_a	27.731993
_cell_length_b	26.809956
_cell_length_c	19.288865
_cell_angle_alpha	89.999100
_cell_angle_beta	97.121679
_cell_angle_gamma	89.997216
loop_
_atom_site_label
_atom_site_type_symbol
_atom_site_fract_x
_atom_site_fract_y
_atom_site_fract_z
O1	O	0.641197	0.041351	-0.082458
O2	O	1.141197	0.541351	0.417542
O3	O	0.500438	0.041382	-0.095064
O4	O	1.000438	0.541382	0.404936
O5	O	0.574885	0.041356	0.012396
O6	O	1.074885	0.541356	0.512396
O7	O	0.566751	0.041377	-0.189918
O8	O	1.066751	0.541377	0.310082
O9	O	0.574871	-0.041603	0.012379
O10	O	1.074871	0.458397	0.512379
O11	O	0.500424	-0.041577	-0.095081
O12	O	1.000424	0.458423	0.404919
O13	O	0.641183	-0.041608	-0.082474
O14	O	1.141183	0.458392	0.417526
Zn15	Zn	0.570802	-0.054764	-0.088780
Zn16	Zn	1.070802	0.445236	0.411220
Zn17	Zn	0.570820	0.054538	-0.088759
Zn18	Zn	1.070820	0.554538	0.411241
O19	O	0.566737	-0.041582	-0.189934
O20	O	1.066737	0.458418	0.310066
C21	C	0.482423	-0.000094	-0.094814
C22	C	0.982423	0.499906	0.405186
C23	C	0.428764	-0.000082	-0.094035
C24	C	0.928764	0.499918	0.405965
N25	N	0.570792	-0.129360	-0.088794
N26	N	1.070792	0.370640	0.411206
C27	C	0.045595	0.045114	-0.088378
C28	C	0.545595	0.545114	0.411622
C29	C	0.247261	0.045128	-0.091348
C30	C	0.747261	0.545128	0.408652
O31	O	0.273342	0.083588	-0.091696
O32	O	0.773342	0.583588	0.408304
N33	N	0.272475	-0.000092	-0.091728
N34	N	0.772475	0.499908	0.408272
C35	C	0.247269	-0.045319	-0.091362
C36	C	0.747269	0.454681	0.408638
O37	O	0.273343	-0.083781	-0.091746
O38	O	0.773343	0.416219	0.408254
C39	C	0.045604	-0.045332	-0.088387
C40	C	0.545604	0.454668	0.411613
C41	C	0.020393	-0.000109	-0.088013
C42	C	0.520393	0.499891	0.411987
C43	C	0.020383	0.090334	-0.088003
C44	C	0.520383	0.590334	0.411997
C45	C	-0.030031	0.090330	-0.087265
C46	C	0.469969	0.590330	0.412735
C47	C	-0.055233	0.045106	-0.086900
C48	C	0.444767	0.545106	0.413100
C49	C	-0.030021	-0.000113	-0.087274
C50	C	0.469979	0.499887	0.412726
C51	C	0.020400	-0.090558	-0.088015
C52	C	0.520400	0.409442	0.411985
C53	C	-0.030019	-0.090557	-0.087269
C54	C	0.469981	0.409443	0.412731
C55	C	-0.055231	-0.045334	-0.086896
C56	C	0.444769	0.454666	0.413104
C57	C	-0.105637	-0.045340	-0.086171
C58	C	0.394363	0.454660	0.413829
N59	N	-0.130851	-0.000120	-0.085791
N60	N	0.369149	0.499880	0.414209
C61	C	-0.105649	0.045103	-0.086155
C62	C	0.394351	0.545103	0.413845
C63	C	0.353146	-0.045308	-0.092925
C64	C	0.853146	0.454692	0.407075
C65	C	0.403562	-0.045305	-0.093670
C66	C	0.903562	0.454695	0.406330
C67	C	0.403551	0.045142	-0.093655
C68	C	0.903551	0.545142	0.406345
C69	C	0.353133	0.045138	-0.092915
C70	C	0.853133	0.545138	0.407085
C71	C	0.327933	-0.000088	-0.092545
C72	C	0.827933	0.499912	0.407455
C73	C	-0.211522	0.045092	-0.084604
C74	C	0.288478	0.545092	0.415396
C75	C	-0.261941	0.045084	-0.083869
C76	C	0.238059	0.545084	0.416131
C77	C	-0.261924	-0.045363	-0.083880
C78	C	0.238076	0.454637	0.416120
C79	C	-0.211510	-0.045355	-0.084620
C80	C	0.288490	0.454645	0.415380
C81	C	-0.186310	-0.000124	-0.084979
C82	C	0.313690	0.499876	0.415021
O83	O	-0.131748	-0.083780	-0.085814
O84	O	0.368252	0.416220	0.414186
O85	O	-0.131730	0.083560	-0.085755
O86	O	0.368270	0.583560	0.414245
C87	C	0.096009	0.045118	-0.089116
C88	C	0.596009	0.545118	0.410884
C89	C	0.121220	-0.000101	-0.089491
C90	C	0.621220	0.499899	0.410509
C91	C	0.096018	-0.045324	-0.089126
C92	C	0.596018	0.454676	0.410874
C93	C	0.171636	-0.000098	-0.090236
C94	C	0.671636	0.499902	0.409764
C95	C	0.196839	0.045125	-0.090600
C96	C	0.696839	0.545125	0.409400
C97	C	0.171625	0.090345	-0.090219
C98	C	0.671625	0.590345	0.409781
C99	C	0.121211	0.090341	-0.089481
C100	C	0.621211	0.590341	0.410519
C101	C	0.121232	-0.090544	-0.089507
C102	C	0.621232	0.409456	0.410493
C103	C	0.171646	-0.090537	-0.090246
C104	C	0.671646	0.409463	0.409754
C105	C	0.196848	-0.045314	-0.090611
C106	C	0.696848	0.454686	0.409389
C107	C	0.603781	-0.473998	-0.041187
C108	C	1.103781	0.026002	0.458813
C109	C	0.603792	-0.682876	-0.041176
C110	C	1.103792	-0.182876	0.458824
O111	O	0.631821	-0.709889	-0.000703
O112	O	1.131821	-0.209889	0.499297
N113	N	0.570823	-0.708987	-0.088743
N114	N	1.070823	-0.208987	0.411257
C115	C	0.537846	-0.682876	-0.136313
C116	C	1.037846	-0.182876	0.363687
O117	O	0.509800	-0.709879	-0.176767
O118	O	1.009800	-0.209879	0.323233
C119	C	0.537832	-0.474000	-0.136320
C120	C	1.037832	0.026000	0.363680
C121	C	0.570807	-0.447891	-0.088755
C122	C	1.070807	0.052109	0.411245
C123	C	0.636753	-0.447889	0.006375
C124	C	1.136753	0.052111	0.506375
C125	C	0.636751	-0.395673	0.006369
C126	C	1.136751	0.104327	0.506369
C127	C	0.603778	-0.369565	-0.041198
C128	C	1.103778	0.130435	0.458802
C129	C	0.570806	-0.395674	-0.088760
C130	C	1.070806	0.104326	0.411240
C131	C	0.504853	-0.447890	-0.183886
C132	C	1.004853	0.052110	0.316114
C133	C	0.504852	-0.395667	-0.183882
C134	C	1.004852	0.104333	0.316118
C135	C	0.537827	-0.369558	-0.136317
C136	C	1.037827	0.130442	0.363683
C137	C	0.537831	-0.317351	-0.136334
C138	C	1.037831	0.182649	0.363666
N139	N	0.570801	-0.291239	-0.088767
N140	N	1.070801	0.208761	0.411233
C141	C	0.603774	-0.317346	-0.041199
C142	C	1.103774	0.182654	0.458801
C143	C	0.537856	-0.792540	-0.136307
C144	C	1.037856	-0.292540	0.363693
C145	C	0.537860	-0.844759	-0.136306
C146	C	1.037860	-0.344759	0.363694
C147	C	0.603806	-0.844754	-0.041168
C148	C	1.103806	-0.344754	0.458832
C149	C	0.603804	-0.792534	-0.041173
C150	C	1.103804	-0.292534	0.458827
C151	C	0.570825	-0.766428	-0.088740
C152	C	1.070825	-0.266428	0.411260
C153	C	0.603769	-0.207688	-0.041215
C154	C	1.103769	0.292312	0.458785
C155	C	0.603766	-0.155467	-0.041227
C156	C	1.103766	0.344533	0.458773
C157	C	0.537818	-0.155476	-0.136362
C158	C	1.037818	0.344524	0.363638
C159	C	0.537823	-0.207693	-0.136353
C160	C	1.037823	0.292307	0.363647
C161	C	0.570800	-0.233797	-0.088774
C162	C	1.070800	0.266203	0.411226
O163	O	0.509814	-0.290305	-0.176780
O164	O	1.009814	0.209695	0.323220
O165	O	0.631809	-0.290335	-0.000741
O166	O	1.131809	0.209665	0.499259
C167	C	0.603782	-0.526214	-0.041181
C168	C	1.103782	-0.026214	0.458819
C169	C	0.570810	-0.552323	-0.088743
C170	C	1.070810	-0.052323	0.411257
C171	C	0.537837	-0.526216	-0.136311
C172	C	1.037837	-0.026216	0.363689
C173	C	0.570814	-0.604542	-0.088743
C174	C	1.070814	-0.104542	0.411257
C175	C	0.603788	-0.630649	-0.041175
C176	C	1.103788	-0.130649	0.458825
C177	C	0.636757	-0.604538	0.006392
C178	C	1.136757	-0.104538	0.506392
C179	C	0.636756	-0.552322	0.006386
C180	C	1.136756	-0.052322	0.506386
C181	C	0.504867	-0.552328	-0.183878
C182	C	1.004867	-0.052328	0.316122
C183	C	0.504872	-0.604544	-0.183869
C184	C	1.004872	-0.104544	0.316131
C185	C	0.537845	-0.630651	-0.136301
C186	C	1.037845	-0.130651	0.363699
C187	C	0.659199	-0.000131	-0.082725
C188	C	1.159199	0.499869	0.417275
C189	C	0.712857	-0.000140	-0.083504
C190	C	1.212857	0.499860	0.416496
C191	C	0.574616	-0.000125	0.038262
C192	C	1.074616	0.499875	0.538262
C193	C	0.573831	-0.000129	0.115361
C194	C	1.073831	0.499871	0.615361
N195	N	0.570833	0.129134	-0.088739
N196	N	1.070833	0.629134	0.411261
C197	C	0.567005	-0.000100	-0.215801
C198	C	1.067005	0.499900	0.284199
C199	C	0.567791	-0.000092	-0.292899
C200	C	1.067791	0.499908	0.207101
C201	C	0.617513	-0.000142	0.160342
C202	C	1.117513	0.499858	0.660342
C203	C	0.616775	-0.000134	0.232784
C204	C	1.116775	0.499866	0.732784
C205	C	0.572352	-0.000123	0.260242
C206	C	1.072352	0.499877	0.760242
C207	C	0.528664	-0.000108	0.215251
C208	C	1.028664	0.499892	0.715251
C209	C	0.529403	-0.000111	0.142810
C210	C	1.029403	0.499889	0.642810
C211	C	0.537425	-0.029174	0.368296
C212	C	1.037425	0.470826	0.868296
C213	C	0.536688	-0.029174	0.440736
C214	C	1.036688	0.470826	0.940736
C215	C	0.570069	-0.000112	0.483673
C216	C	1.070069	0.499888	0.983673
C217	C	0.604197	0.028945	0.454163
C218	C	1.104197	0.528945	0.954163
C219	C	0.604936	0.028942	0.381722
C220	C	1.104936	0.528942	0.881722
C221	C	0.571545	-0.000120	0.338791
C222	C	1.071545	0.499880	0.838791
C223	C	0.612954	-0.000114	0.607204
C224	C	1.112954	0.499886	1.107204
C225	C	0.612214	-0.000103	0.679648
C226	C	1.112214	0.499897	1.179648
C227	C	0.524102	-0.000083	0.662113
C228	C	1.024102	0.499917	1.162113
C229	C	0.524844	-0.000089	0.589671
C230	C	1.024844	0.499911	1.089671
C231	C	0.569271	-0.000107	0.562222
C232	C	1.069271	0.499893	1.062222
H233	H	-0.191010	0.081923	-0.084898
H234	H	0.308990	0.581923	0.415102
N235	N	0.641740	0.060279	0.349891
N236	N	1.141740	0.560279	0.849891
H237	H	0.662777	0.078692	0.388079
H238	H	1.162777	0.578692	0.888079
H239	H	0.624262	0.085106	0.316294
H240	H	1.124262	0.585106	0.816294
H241	H	-0.050535	-0.127387	-0.086974
H242	H	0.449465	0.372613	0.413026
N243	N	0.672322	-0.632702	0.057697
N244	N	1.172322	-0.132702	0.557697
H245	H	0.706611	-0.623619	0.050045
H246	H	1.206611	-0.123619	0.550045
H247	H	0.667274	-0.669734	0.050449
H248	H	1.167274	-0.169734	0.550449
H249	H	0.508897	-0.052831	0.464756
H250	H	1.008897	0.447169	0.964756
H251	H	0.477996	-0.374414	-0.222617
H252	H	0.977996	0.125586	0.277383
N253	N	0.502257	-0.235850	-0.187660
N254	N	1.002257	0.264150	0.312340
H255	H	0.480913	-0.257512	-0.161332
H256	H	0.980913	0.242488	0.338668
H257	H	0.520691	-0.257491	-0.218216
H258	H	1.020691	0.242509	0.281784
N259	N	0.502296	-0.872917	-0.187610
N260	N	1.002296	-0.372917	0.312390
H261	H	0.507749	-0.863828	-0.236854
H262	H	1.007749	-0.363828	0.263146
H263	H	0.468025	-0.863814	-0.179892
H264	H	0.968025	-0.363814	0.320108
N265	N	0.663888	-0.000155	0.281315
N266	N	1.163888	0.499845	0.781315
H267	H	0.665554	0.030597	0.311764
H268	H	1.165554	0.530597	0.811764
H269	H	0.692119	-0.000186	0.252888
H270	H	1.192119	0.499814	0.752888
H271	H	-0.190983	-0.082180	-0.084938
H272	H	0.309017	0.417820	0.415062
H273	H	0.478002	-0.469140	-0.222618
H274	H	0.978002	0.030860	0.277382
N275	N	0.660870	-0.000132	0.577594
N276	N	1.160870	0.499868	1.077594
H277	H	0.663134	-0.030890	0.547938
H278	H	1.163134	0.469110	1.047938
H279	H	0.688401	-0.000117	0.617125
H280	H	1.188401	0.499883	1.117125
N281	N	0.659331	-0.000114	0.728167
N282	N	1.159331	0.499886	1.228167
H283	H	0.687585	-0.000128	0.699782
H284	H	1.187585	0.499872	1.199782
H285	H	0.660933	-0.030867	0.758608
H286	H	1.160933	0.469133	1.258608
H287	H	0.510973	-0.134212	-0.175093
H288	H	1.010973	0.365788	0.324907
H289	H	0.040898	0.127162	-0.088298
H290	H	0.540898	0.627162	0.411702
H291	H	0.100688	0.127167	-0.089177
H292	H	0.600688	0.627167	0.410823
N293	N	0.198811	0.139124	-0.090605
N294	N	0.698811	0.639124	0.409395
H295	H	0.186024	0.158902	-0.133545
H296	H	0.686024	0.658902	0.366455
H297	H	0.234568	0.132219	-0.091102
H298	H	0.734568	0.632219	0.408898
N299	N	0.665431	-0.000158	0.130743
N300	N	1.165431	0.499842	0.630743
H301	H	0.684567	0.030591	0.147184
H302	H	1.184567	0.530591	0.647184
H303	H	0.659237	-0.000176	0.078031
H304	H	1.159237	0.499824	0.578031
N305	N	0.639371	-0.872917	0.010137
N306	N	1.139371	-0.372917	0.510137
H307	H	0.634367	-0.909959	0.002915
H308	H	1.134367	-0.409959	0.502915
H309	H	0.633893	-0.863792	0.059356
H310	H	1.133893	-0.363792	0.559356
N311	N	-0.289133	0.093862	-0.083466
N312	N	0.210867	0.593862	0.416534
H313	H	-0.265514	0.122510	-0.083806
H314	H	0.234486	0.622510	0.416194
H315	H	-0.306036	0.095826	-0.040083
H316	H	0.193964	0.595826	0.459917
H317	H	0.478020	-0.625798	-0.222608
H318	H	0.978020	-0.125798	0.277392
N319	N	0.198835	-0.139316	-0.090657
N320	N	0.698835	0.360684	0.409343
H321	H	0.175215	-0.167963	-0.090314
H322	H	0.675215	0.332037	0.409686
H323	H	0.223767	-0.141290	-0.047888
H324	H	0.723767	0.358710	0.452112
H325	H	0.478016	-0.531075	-0.222613
H326	H	0.978016	-0.031075	0.277387
H327	H	0.631379	0.052611	0.489121
H328	H	1.131379	0.552611	0.989121
H329	H	0.487933	-0.000072	0.684468
H330	H	0.987933	0.499928	1.184468
H331	H	0.100718	-0.127371	-0.089206
H332	H	0.600718	0.372629	0.410794
N333	N	0.672322	-0.524165	0.057689
N334	N	1.172322	-0.024165	0.557689
H335	H	0.693207	-0.548634	0.087820
H336	H	1.193207	-0.048634	0.587820
H337	H	0.653887	-0.502499	0.088212
H338	H	1.153887	-0.002499	0.588212
N339	N	0.477729	-0.000079	0.541151
N340	N	0.977729	0.499921	1.041151
H341	H	0.449475	-0.000072	0.569535
H342	H	0.949475	0.499928	1.069535
H343	H	0.476112	-0.030834	0.510715
H344	H	0.976112	0.469166	1.010715
N345	N	0.501421	-0.060533	0.322000
N346	N	1.001421	0.439467	0.822000
H347	H	0.519480	-0.085392	0.295484
H348	H	1.019480	0.414608	0.795484
H349	H	0.480973	-0.038240	0.287849
H350	H	0.980973	0.461760	0.787849
H351	H	-0.050554	0.127155	-0.086957
H352	H	0.449446	0.627155	0.413043
H353	H	0.493831	-0.000102	0.106186
H354	H	0.993831	0.499898	0.606186
N355	N	0.639327	-0.127309	0.010089
N356	N	1.139327	0.372691	0.510089
H357	H	0.634324	-0.090266	0.002872
H358	H	1.134324	0.409734	0.502872
H359	H	0.673600	-0.136437	0.002420
H360	H	1.173600	0.363563	0.502420
H361	H	0.492495	-0.000099	0.237612
H362	H	0.992495	0.499901	0.737612
H363	H	0.511000	-0.771287	-0.175044
H364	H	1.011000	-0.271287	0.324956
N365	N	0.325943	0.093913	-0.092510
N366	N	0.825943	0.593913	0.407490
H367	H	0.349563	0.122560	-0.092856
H368	H	0.849563	0.622560	0.407144
H369	H	0.309043	0.095880	-0.049124
H370	H	0.809043	0.595880	0.450876
H371	H	0.424084	-0.082130	-0.093986
H372	H	0.924084	0.417870	0.406014
N373	N	0.430737	0.093919	-0.094049
N374	N	0.930737	0.593919	0.405951
H375	H	0.466500	0.087055	-0.094577
H376	H	0.966500	0.587055	0.405423
H377	H	0.425942	0.113660	-0.050837
H378	H	0.925942	0.613660	0.449163
N379	N	0.325969	-0.094091	-0.092527
N380	N	0.825969	0.405909	0.407473
H381	H	0.349638	-0.122733	-0.092414
H382	H	0.849638	0.377267	0.407586
H383	H	0.301255	-0.096206	-0.135530
H384	H	0.801255	0.403794	0.364470
H385	H	0.040919	-0.127384	-0.088317
H386	H	0.540919	0.372616	0.411683
H387	H	-0.282453	-0.082183	-0.083586
H388	H	0.217547	0.417817	0.416414
H389	H	0.630621	-0.228937	-0.002471
H390	H	1.130621	0.271063	0.497529
H391	H	0.663604	-0.469141	0.045114
H392	H	1.163604	0.030859	0.545114
N393	N	0.672316	-0.367516	0.057675
N394	N	1.172316	0.132484	0.557675
H395	H	0.693200	-0.391985	0.087807
H396	H	1.193200	0.108015	0.587807
H397	H	0.653878	-0.345851	0.088196
H398	H	1.153878	0.154149	0.588196
H399	H	0.630655	-0.771280	-0.002441
H400	H	1.130655	-0.271280	0.497559
