data_functionalizedCrystal
_audit_creation_method	'MofGen! by Chris Wilmer'
_symmetry_space_group_name_H-M	'P1'
_symmetry_Int_Tables_number	1
_symmetry_cell_setting	triclinic
loop_
_symmetry_equiv_pos_as_xyz
  x,y,z
_cell_length_a	18.215407
_cell_length_b	25.639239
_cell_length_c	18.215399
_cell_angle_alpha	89.969965
_cell_angle_beta	89.980167
_cell_angle_gamma	90.039134
loop_
_atom_site_label
_atom_site_type_symbol
_atom_site_fract_x
_atom_site_fract_y
_atom_site_fract_z
Zn1	Zn	1.125001	-0.208150	-0.416105
Zn2	Zn	1.124880	-0.295586	-0.293034
Zn3	Zn	1.001934	-0.208167	-0.293053
Zn4	Zn	1.001870	-0.295557	-0.416059
O5	O	1.063421	-0.251865	-0.354563
O6	O	1.227970	-0.219754	-0.399791
O7	O	1.108547	-0.284009	-0.190052
O8	O	1.018337	-0.135000	-0.309403
O9	O	1.227880	-0.283992	-0.309372
O10	O	1.108754	-0.134987	-0.399809
O11	O	1.018219	-0.219783	-0.190066
O12	O	0.898941	-0.219754	-0.309358
O13	O	1.018228	-0.283943	-0.519050
O14	O	0.898894	-0.283959	-0.399731
O15	O	1.108692	-0.219725	-0.519083
O16	O	1.108485	-0.368747	-0.309327
O17	O	1.018110	-0.368726	-0.399713
C18	C	0.872215	-0.251856	-0.354542
C19	C	0.790416	-0.251865	-0.354550
C20	C	1.063298	-0.387708	-0.354529
C21	C	1.063312	-0.445822	-0.354539
C22	C	0.602217	-0.285349	-0.401548
C23	C	0.525358	-0.285350	-0.401557
C24	C	0.525378	-0.218391	-0.307594
C25	C	0.602235	-0.218387	-0.307589
C26	C	0.640653	-0.251869	-0.354565
C27	C	0.486937	-0.251874	-0.354579
C28	C	0.403603	-0.251876	-0.354589
C29	C	0.723992	-0.251867	-0.354556
C30	C	1.110602	-0.806183	-0.307579
C31	C	1.110631	-0.860787	-0.307589
O32	O	1.150711	-0.889023	-0.267625
N33	N	1.063551	-0.888104	-0.354612
C34	C	1.016444	-0.860813	-0.401633
O35	O	0.976402	-0.889062	-0.441631
C36	C	1.016420	-0.806210	-0.401626
C37	C	1.063498	-0.778896	-0.354595
C38	C	1.157677	-0.778869	-0.260553
C39	C	1.157647	-0.724269	-0.260542
C40	C	1.110543	-0.696982	-0.307558
C41	C	1.063468	-0.724296	-0.354584
C42	C	0.969318	-0.778920	-0.448650
C43	C	0.969298	-0.724313	-0.448640
C44	C	1.016376	-0.697000	-0.401609
C45	C	1.016334	-0.642408	-0.401590
N46	N	1.063414	-0.615092	-0.354567
C47	C	1.110519	-0.642379	-0.307551
C48	C	1.016500	-0.975484	-0.401644
C49	C	1.016520	-1.030086	-0.401648
C50	C	1.110708	-1.030057	-0.307605
C51	C	1.110683	-0.975453	-0.307598
C52	C	1.063580	-0.948167	-0.354621
C53	C	1.110452	-0.527714	-0.307532
C54	C	1.110416	-0.473108	-0.307523
C55	C	1.016232	-0.473143	-0.401569
C56	C	1.016265	-0.527743	-0.401575
C57	C	1.063381	-0.555027	-0.354554
O58	O	0.976277	-0.614138	-0.441536
O59	O	1.150561	-0.614123	-0.267567
C60	C	1.255374	-0.251874	-0.354584
C61	C	1.337173	-0.251878	-0.354594
C62	C	1.063466	-0.251829	-0.546516
C63	C	1.063485	-0.251814	-0.628315
C64	C	1.063566	-0.115492	-0.354613
C65	C	1.063627	-0.057378	-0.354634
C66	C	1.110607	-0.218344	-0.816528
C67	C	1.110616	-0.218329	-0.893386
C68	C	1.016416	-0.285202	-0.893340
C69	C	1.016404	-0.285214	-0.816483
C70	C	1.063504	-0.251786	-0.778078
C71	C	1.063524	-0.251759	-0.931795
C72	C	1.063534	-0.251742	-1.015128
C73	C	1.063494	-0.251801	-0.694739
C74	C	1.063419	-0.251863	-0.163357
C75	C	1.063543	-0.251731	-0.081558
H76	H	0.633495	-0.312611	-0.439801
O77	O	0.970568	-0.317628	-0.779096
C78	C	0.923072	-0.287866	-0.734629
H79	H	0.918570	-0.246684	-0.757809
H80	H	0.945821	-0.286073	-0.676386
C81	C	0.852070	-0.363988	-0.704948
C82	C	0.846536	-0.313409	-0.733422
H83	H	0.804860	-0.379745	-0.704200
H84	H	0.884070	-0.384040	-0.734903
H85	H	0.871030	-0.362487	-0.656414
H86	H	0.827585	-0.314911	-0.781957
H87	H	0.814531	-0.293358	-0.703474
H88	H	0.978071	-0.312419	-0.924618
O89	O	0.488136	-0.317923	-0.447219
C90	C	0.538529	-0.347462	-0.488691
H91	H	0.593300	-0.349243	-0.458537
H92	H	0.546746	-0.328366	-0.544631
C93	C	0.441218	-0.400932	-0.536197
C94	C	0.508487	-0.403123	-0.499157
H95	H	0.422686	-0.435265	-0.542656
H96	H	0.407267	-0.381030	-0.508258
H97	H	0.448075	-0.385016	-0.582810
H98	H	0.501628	-0.419032	-0.452542
H99	H	0.542437	-0.423029	-0.527088
H100	H	0.494089	-0.191131	-0.269346
H101	H	0.633530	-0.191120	-0.269329
H102	H	1.148971	-0.191096	-0.924688
O103	O	1.156249	-0.185843	-0.779142
C104	C	1.114372	-0.152072	-0.734706
H105	H	1.058583	-0.170516	-0.723171
H106	H	1.106324	-0.113322	-0.764345
C107	C	1.223383	-0.119958	-0.675881
C108	C	1.154864	-0.142613	-0.661708
H109	H	1.248361	-0.114121	-0.630853
H110	H	1.251597	-0.142708	-0.705820
H111	H	1.216667	-0.087669	-0.700582
H112	H	1.161582	-0.174904	-0.637016
H113	H	1.126653	-0.119868	-0.631763
H114	H	1.148821	-0.549922	-0.269245
O115	O	1.156221	-0.446657	-0.261813
C116	C	1.197789	-0.482455	-0.220308
H117	H	1.200338	-0.521361	-0.250465
H118	H	1.170875	-0.488310	-0.164392
C119	C	1.272980	-0.413308	-0.172729
C120	C	1.276116	-0.461092	-0.209771
H121	H	1.321295	-0.400130	-0.166226
H122	H	1.244973	-0.389190	-0.200690
H123	H	1.250548	-0.418194	-0.126137
H124	H	1.298539	-0.456204	-0.256366
H125	H	1.304129	-0.485209	-0.181818
O126	O	0.970696	-0.948923	-0.447217
C127	C	0.923158	-0.917402	-0.405271
H128	H	0.949144	-0.909221	-0.349525
H129	H	0.868639	-0.938493	-0.397131
C130	C	0.877858	-0.875578	-0.514217
C131	C	0.909777	-0.865527	-0.445752
H132	H	0.869601	-0.843580	-0.539189
H133	H	0.909883	-0.896816	-0.542478
H134	H	0.832429	-0.893155	-0.507425
H135	H	0.955209	-0.847956	-0.452546
H136	H	0.877759	-0.844285	-0.417493
H137	H	0.930941	-0.702100	-0.486935
O138	O	1.156596	-1.056492	-0.261974
C139	C	1.229913	-1.043075	-0.278168
H140	H	1.231364	-1.003419	-0.306465
H141	H	1.254700	-1.073768	-0.316032
C142	C	1.272776	-1.089231	-0.171727
C143	C	1.274558	-1.040523	-0.206477
H144	H	1.300317	-1.087660	-0.127506
H145	H	1.223381	-1.098273	-0.160818
H146	H	1.293431	-1.114804	-0.203288
H147	H	1.253895	-1.014953	-0.174919
H148	H	1.323951	-1.031477	-0.217379
H149	H	1.195984	-0.702033	-0.222248
O150	O	0.970508	-0.554198	-0.447327
C151	C	0.928912	-0.518402	-0.488806
H152	H	0.959029	-0.479453	-0.491366
H153	H	0.873029	-0.512655	-0.461806
C154	C	0.881287	-0.587516	-0.563985
C155	C	0.918281	-0.539679	-0.567135
H156	H	0.874726	-0.600640	-0.612301
H157	H	0.909309	-0.611633	-0.536038
H158	H	0.834722	-0.582719	-0.541482
H159	H	0.964848	-0.544477	-0.589629
H160	H	0.890267	-0.515563	-0.595087
O161	O	1.203358	-0.805445	-0.214883
C162	C	1.161540	-0.837092	-0.167296
H163	H	1.105738	-0.845293	-0.193164
H164	H	1.153517	-0.816100	-0.112725
C165	C	1.270615	-0.878868	-0.122317
C166	C	1.202080	-0.888944	-0.154091
H167	H	1.295622	-0.910851	-0.114168
H168	H	1.298789	-0.857545	-0.154374
H169	H	1.263919	-0.861373	-0.076844
H170	H	1.208776	-0.906432	-0.199566
H171	H	1.173907	-0.910270	-0.122040
H172	H	0.978177	-1.052320	-0.439938
O173	O	0.970586	-0.446605	-0.447318
C174	C	1.012456	-0.414960	-0.494860
H175	H	1.070420	-0.431378	-0.499457
H176	H	1.014991	-0.373588	-0.472095
C177	C	0.905277	-0.393937	-0.565692
C178	C	0.976468	-0.414104	-0.571342
H179	H	0.883077	-0.393407	-0.612869
H180	H	0.877067	-0.415256	-0.533660
H181	H	0.907400	-0.359462	-0.546718
H182	H	0.974344	-0.448581	-0.590307
H183	H	1.004677	-0.392792	-0.603379
H184	H	1.149019	-0.953218	-0.269302
H185	H	0.930978	-0.801150	-0.486945
