data_functionalizedCrystal
_audit_creation_method	'MofGen! by Chris Wilmer'
_symmetry_space_group_name_H-M	'P1'
_symmetry_Int_Tables_number	1
_symmetry_cell_setting	triclinic
loop_
_symmetry_equiv_pos_as_xyz
  x,y,z
_cell_length_a	31.640172
_cell_length_b	31.640172
_cell_length_c	21.606444
_cell_angle_alpha	59.997833
_cell_angle_beta	90.005700
_cell_angle_gamma	60.004780
loop_
_atom_site_label
_atom_site_type_symbol
_atom_site_fract_x
_atom_site_fract_y
_atom_site_fract_z
Zr1	Zr	0.407243	0.462537	-0.081136
O2	O	0.339762	0.550715	-0.179974
O3	O	0.427921	0.374367	-0.050837
O4	O	0.427928	0.462538	-0.179958
O5	O	0.339758	0.462542	0.051001
O6	O	0.497485	0.462529	-0.179945
O7	O	0.339754	0.462545	-0.050853
O8	O	0.497472	0.304808	0.051029
O9	O	0.339771	0.620263	-0.179973
O10	O	0.488660	0.410623	-0.037904
O11	O	0.436753	0.410628	0.038098
O12	O	0.436762	0.514437	-0.113925
O13	O	0.384855	0.514441	-0.037923
Zr14	Zr	0.518184	0.462518	0.081332
Zr15	Zr	0.518178	0.462523	-0.081114
Zr16	Zr	0.407248	0.462532	0.081310
Zr17	Zr	0.407258	0.573457	-0.081134
Zr18	Zr	0.518169	0.351598	0.081330
O19	O	0.497506	0.550689	0.051033
O20	O	0.497498	0.550696	-0.179943
O21	O	0.339770	0.550709	0.051002
O22	O	0.585665	0.374340	0.180170
O23	O	0.585657	0.374347	-0.050807
O24	O	0.427929	0.374360	0.180139
O25	O	0.585669	0.462514	-0.050805
O26	O	0.497498	0.462518	0.180154
O27	O	0.427941	0.462527	0.180141
O28	O	0.585672	0.462511	0.051049
O29	O	0.427950	0.620252	-0.179956
O30	O	0.497476	0.304804	0.180152
O31	O	0.585655	0.304793	0.180169
O32	O	0.585651	0.304797	0.051046
O33	O	0.339776	0.620259	-0.050851
O34	O	0.427955	0.620248	-0.050833
O35	O	0.488665	0.410619	0.114121
O36	O	0.540572	0.410614	0.038119
O37	O	0.488674	0.514428	-0.037902
O38	O	0.436767	0.514433	0.038100
C39	C	0.462694	0.323784	0.000096
C40	C	0.462688	0.276695	0.000095
C41	C	0.323950	0.462545	0.000071
C42	C	0.276855	0.462551	0.000062
C43	C	0.489819	-0.015349	-0.039568
C44	C	0.489829	-0.192345	-0.039567
O45	O	0.512891	-0.215252	-0.073280
N46	N	0.462734	-0.214472	0.000104
C47	C	0.435636	-0.192350	0.039782
O48	O	0.412594	-0.215236	0.073531
C49	C	0.435629	-0.015358	0.039785
C50	C	0.462722	0.006771	0.000105
C51	C	0.516910	0.006779	-0.079244
C52	C	0.516905	0.051028	-0.079247
C53	C	0.489808	0.073148	-0.039574
C54	C	0.462717	0.051020	0.000102
C55	C	0.408535	0.006760	0.079467
C56	C	0.408537	0.051010	0.079466
C57	C	0.435630	0.073139	0.039786
C58	C	0.435615	0.117388	0.039772
N59	N	0.462711	0.139515	0.000101
C60	C	0.489807	0.117395	-0.039572
C61	C	0.435641	-0.285272	0.039776
C62	C	0.435642	-0.329519	0.039774
C63	C	0.489836	-0.329512	-0.039574
C64	C	0.489832	-0.285261	-0.039576
C65	C	0.462737	-0.263145	0.000105
C66	C	0.489794	0.210321	-0.039576
C67	C	0.489784	0.254575	-0.039578
C68	C	0.435593	0.254562	0.039773
C69	C	0.435600	0.210314	0.039772
C70	C	0.462704	0.188193	0.000096
O71	O	0.412570	0.140318	0.073474
O72	O	0.512855	0.140279	-0.073302
C73	C	0.489824	-0.059598	-0.039565
C74	C	0.462732	-0.081726	0.000111
C75	C	0.435636	-0.059606	0.039784
C76	C	0.462733	-0.125973	0.000110
C77	C	0.489830	-0.148093	-0.039563
C78	C	0.516926	-0.125967	-0.079234
C79	C	0.516920	-0.081718	-0.079237
C80	C	0.408540	-0.081733	0.079455
C81	C	0.408547	-0.125981	0.079454
C82	C	0.435644	-0.148101	0.039782
C83	C	0.011939	0.408333	0.039795
C84	C	-0.165046	0.408322	0.039810
O85	O	-0.164893	0.362235	0.073586
N86	N	-0.214266	0.462511	0.000127
C87	C	-0.219239	0.516707	-0.039558
O88	O	-0.265164	0.562798	-0.073305
C89	C	-0.042254	0.516717	-0.039569
C90	C	0.006965	0.462524	0.000111
C91	C	0.061156	0.354144	0.079472
C92	C	0.105400	0.354147	0.079465
C93	C	0.100426	0.408339	0.039780
C94	C	0.051209	0.462527	0.000103
C95	C	-0.047228	0.570912	-0.079249
C96	C	-0.002976	0.570910	-0.079247
C97	C	0.046243	0.516717	-0.039567
C98	C	0.090478	0.516722	-0.039589
N99	N	0.139698	0.462533	0.000095
C100	C	0.144672	0.408341	0.039779
C101	C	-0.312156	0.516698	-0.039552
C102	C	-0.356402	0.516696	-0.039550
C103	C	-0.302206	0.408311	0.039820
C104	C	-0.257960	0.408314	0.039814
C105	C	-0.262936	0.462509	0.000132
C106	C	0.237584	0.408352	0.039760
C107	C	0.281829	0.408360	0.039746
C108	C	0.227629	0.516745	-0.039621
C109	C	0.183388	0.516737	-0.039610
C110	C	0.188369	0.462536	0.000085
O111	O	0.090364	0.562784	-0.073340
O112	O	0.190602	0.362257	0.073534
C113	C	-0.032304	0.408329	0.039803
C114	C	-0.081522	0.462518	0.000126
C115	C	-0.086495	0.516709	-0.039559
C116	C	-0.125768	0.462516	0.000127
C117	C	-0.120794	0.408324	0.039812
C118	C	-0.071574	0.354135	0.079495
C119	C	-0.027330	0.354138	0.079487
C120	C	-0.135715	0.570899	-0.079242
C121	C	-0.179957	0.570891	-0.079232
C122	C	-0.174983	0.516700	-0.039547
C123	C	0.601477	0.462510	0.000125
C124	C	0.648572	0.462504	0.000134
C125	C	0.462706	0.462534	-0.203097
C126	C	0.462704	0.462536	-0.272059
C127	C	0.462732	0.601272	0.000100
C128	C	0.462739	0.648361	0.000101
C129	C	0.435613	0.516725	-0.344140
C130	C	0.435618	0.516724	-0.408935
C131	C	0.462710	0.462532	-0.401647
C132	C	0.489804	0.408338	-0.329559
C133	C	0.489802	0.408341	-0.264766
C134	C	0.489812	0.408328	-0.590862
C135	C	0.489810	0.408330	-0.655663
C136	C	0.435628	0.516711	-0.735031
C137	C	0.435626	0.516713	-0.670238
C138	C	0.462722	0.462520	-0.598155
C139	C	0.462717	0.462522	-0.527898
C140	C	0.462712	0.462529	-0.471903
C141	C	0.462720	0.462522	0.203293
C142	C	0.462723	0.462520	0.272255
C143	C	0.601457	0.323766	0.000123
C144	C	0.648546	0.276672	0.000131
C145	C	0.462701	0.323778	0.203290
C146	C	0.462697	0.276687	0.272252
C147	C	0.601465	0.323760	0.203317
C148	C	0.648555	0.276664	0.272288
C149	C	0.323962	0.601296	-0.203121
C150	C	0.276871	0.648392	-0.272092
C151	C	0.323969	0.601290	0.000073
C152	C	0.276880	0.648384	0.000065
C153	C	0.462725	0.601278	-0.203094
C154	C	0.462729	0.648369	-0.272056
C155	C	0.643562	0.254560	-0.039555
C156	C	0.687802	0.210316	-0.039562
C157	C	0.737026	0.188181	0.000121
C158	C	0.742010	0.210297	0.039809
C159	C	0.697770	0.254543	0.039811
C160	C	0.489793	0.254568	0.344327
C161	C	0.489787	0.210328	0.409130
C162	C	0.462688	0.188204	0.401856
C163	C	0.435589	0.210327	0.329774
C164	C	0.435592	0.254570	0.264972
C165	C	0.697769	0.254544	0.265005
C166	C	0.742021	0.210298	0.329804
C167	C	0.737057	0.188169	0.401886
C168	C	0.687837	0.210293	0.409167
C169	C	0.643587	0.254541	0.344369
C170	C	0.227657	0.670517	-0.264809
C171	C	0.183406	0.714776	-0.329608
C172	C	0.188370	0.736908	-0.401690
C173	C	0.237589	0.714781	-0.408972
C174	C	0.281839	0.670525	-0.344173
C175	C	0.281865	0.670500	0.039744
C176	C	0.237624	0.714757	0.039733
C177	C	0.188400	0.736893	0.000047
C178	C	0.183417	0.714775	-0.039637
C179	C	0.227657	0.670522	-0.039630
C180	C	0.489833	0.670478	-0.264758
C181	C	0.489847	0.714719	-0.329549
C182	C	0.462754	0.736852	-0.401636
C183	C	0.435649	0.714738	-0.408933
C184	C	0.435638	0.670495	-0.344143
H185	H	0.511846	0.272592	-0.071893
H186	H	0.321942	0.652480	0.072066
C187	C	0.796162	0.185938	0.083464
N188	N	0.836950	0.167586	0.116350
H189	H	0.386471	0.069015	0.111778
H190	H	0.701821	0.272555	0.206318
H191	H	0.241692	0.732758	0.072052
H192	H	0.413565	0.652498	-0.350096
C193	C	0.129265	0.739123	-0.083276
N194	N	0.088476	0.757459	-0.116138
C195	C	0.405826	0.576325	-0.814329
N196	N	0.383380	0.621225	-0.874054
C197	C	0.703261	0.278855	0.083480
N198	N	0.707402	0.297164	0.116375
C199	C	0.335973	0.646186	-0.352197
N200	N	0.376747	0.627855	-0.358247
H201	H	0.413590	0.732766	-0.467635
H202	H	0.538968	0.069041	-0.111555
C203	C	0.519605	0.185999	-0.083228
N204	N	0.542055	0.167684	-0.116113
H205	H	0.386476	-0.063728	0.111764
C206	C	0.139739	0.785570	0.000052
N207	N	0.103090	0.822231	0.000060
H208	H	0.223588	0.560866	-0.071933
H209	H	0.152334	0.772944	-0.454447
H210	H	0.511896	0.652464	-0.206066
H211	H	0.511866	0.364215	-0.323630
C212	C	0.405789	0.278889	0.185691
N213	N	0.383341	0.297204	0.125977
C214	C	0.785738	0.139491	0.473159
N215	N	0.822408	0.102823	0.526840
H216	H	0.782093	0.192290	0.323862
H217	H	0.413574	-0.347526	0.072075
C218	C	0.682386	0.185940	0.488464
N219	N	0.678281	0.167592	0.548193
H220	H	0.511860	0.272577	0.350264
H221	H	0.241625	0.732806	-0.467668
H222	H	0.511919	0.732720	-0.323593
C223	C	0.405794	0.576336	-0.488224
N224	N	0.383321	0.621239	-0.547946
C225	C	0.222184	0.646184	-0.185525
N226	N	0.218057	0.627863	-0.125810
C227	C	0.546713	-0.017538	-0.122902
N228	N	0.569157	-0.035846	-0.155797
C229	C	0.405824	0.576328	-0.678261
N230	N	0.383379	0.621231	-0.684306
H231	H	0.143334	0.732784	-0.323665
H232	H	0.511862	0.364214	-0.206074
H233	H	-0.087298	0.615042	-0.111560
H234	H	0.462766	0.772878	-0.454386
H235	H	0.511893	-0.267247	-0.071886
H236	H	0.603517	0.272545	0.350310
H237	H	0.511856	0.192320	0.467816
H238	H	0.511898	-0.347529	-0.071879
C239	C	-0.410541	0.576312	-0.083209
N240	N	-0.451318	0.621218	-0.116091
H241	H	0.413576	-0.267270	0.072091
H242	H	0.386473	-0.011250	0.111779
H243	H	0.413532	0.192302	0.072072
C244	C	0.243071	0.348728	0.083421
N245	N	0.247204	0.303819	0.116301
H246	H	0.413530	0.272582	0.072071
H247	H	0.462690	0.152179	0.454628
H248	H	0.538982	-0.063704	-0.111548
H249	H	0.413548	0.560854	-0.350083
H250	H	0.223591	0.652517	-0.071939
H251	H	0.538987	-0.143982	-0.111541
H252	H	0.413526	0.192307	0.323862
C253	C	0.785687	0.139505	0.000117
N254	N	0.822336	0.102839	0.000114
C255	C	0.159538	0.294530	0.123123
N256	N	0.200313	0.249623	0.156012
C257	C	0.378759	-0.150336	0.123136
N258	N	0.356334	-0.168690	0.156052
H259	H	0.321905	0.364227	0.072060
C260	C	0.519618	0.348712	-0.647640
N261	N	0.542068	0.303810	-0.641599
H262	H	0.065215	0.310012	0.111792
H263	H	-0.298163	0.364186	0.072128
C264	C	-0.203821	0.348698	0.083469
N265	N	-0.163044	0.303793	0.116355
H266	H	-0.007034	0.615043	-0.111552
C267	C	0.129245	0.576352	-0.083263
N268	N	0.088466	0.621254	-0.116136
C269	C	-0.317640	0.576322	-0.083218
N270	N	-0.321773	0.621230	-0.116114
H271	H	0.012743	0.310008	0.111800
H272	H	-0.067531	0.310010	0.111803
H273	H	-0.139773	0.615029	-0.111560
C274	C	0.519613	0.348714	-0.511578
N275	N	0.542060	0.303810	-0.451857
C276	C	-0.234097	0.630512	-0.122887
N277	N	-0.274874	0.675417	-0.155762
H278	H	0.603485	0.272582	-0.071879
H279	H	0.683734	0.192315	-0.071880
