data_functionalizedCrystal
_audit_creation_method	'MofGen! by Chris Wilmer'
_symmetry_space_group_name_H-M	'P1'
_symmetry_Int_Tables_number	1
_symmetry_cell_setting	triclinic
loop_
_symmetry_equiv_pos_as_xyz
  x,y,z
_cell_length_a	25.639239
_cell_length_b	21.395362
_cell_length_c	21.395355
_cell_angle_alpha	89.956060
_cell_angle_beta	90.019334
_cell_angle_gamma	89.945436
loop_
_atom_site_label
_atom_site_type_symbol
_atom_site_fract_x
_atom_site_fract_y
_atom_site_fract_z
Zn1	Zn	-0.207990	-0.957825	0.354582
Zn2	Zn	-0.295409	-0.957713	0.249803
Zn3	Zn	-0.208014	-0.853040	0.249783
Zn4	Zn	-0.295420	-0.852994	0.354508
O5	O	-0.251708	-0.905393	0.302169
O6	O	-0.219571	-1.045488	0.340722
O7	O	-0.283822	-0.943800	0.162122
O8	O	-0.134846	-0.867006	0.263708
O9	O	-0.283798	-1.045405	0.263742
O10	O	-0.134828	-0.943991	0.340703
O11	O	-0.219613	-0.866897	0.162108
O12	O	-0.219623	-0.765356	0.263636
O13	O	-0.283817	-0.866928	0.442196
O14	O	-0.283840	-0.765322	0.340576
O15	O	-0.219582	-0.943947	0.442250
O16	O	-0.368576	-0.943756	0.263669
O17	O	-0.368584	-0.866820	0.340596
C18	C	-0.251736	-0.742605	0.302096
C19	C	-0.251760	-0.672964	0.302080
C20	C	-0.387551	-0.905288	0.302140
C21	C	-0.445665	-0.905300	0.302149
C22	C	-0.251698	-0.905445	0.465592
C23	C	-0.251693	-0.905467	0.535234
C24	C	-0.806011	-0.945558	0.262182
C25	C	-0.860616	-0.945582	0.262190
O26	O	-0.888838	-0.979702	0.228177
N27	N	-0.887947	-0.905503	0.302211
C28	C	-0.860672	-0.865401	0.342230
O29	O	-0.888934	-0.831313	0.376271
C30	C	-0.806069	-0.865381	0.342224
C31	C	-0.778740	-0.905458	0.302196
C32	C	-0.778682	-0.985633	0.222158
C33	C	-0.724082	-0.985608	0.222149
C34	C	-0.696810	-0.945508	0.262164
C35	C	-0.724139	-0.905433	0.302187
C36	C	-0.778794	-0.825282	0.382246
C37	C	-0.724187	-0.825266	0.382237
C38	C	-0.696858	-0.865343	0.342209
C39	C	-0.642267	-0.865308	0.342193
N40	N	-0.614935	-0.905387	0.302173
C41	C	-0.642207	-0.945487	0.262158
C42	C	-0.975343	-0.865448	0.342239
C43	C	-1.029945	-0.865465	0.342242
C44	C	-1.029885	-0.945648	0.262204
C45	C	-0.975281	-0.945627	0.262198
C46	C	-0.948011	-0.905528	0.302219
C47	C	-0.527542	-0.945430	0.262142
C48	C	-0.472937	-0.945400	0.262134
C49	C	-0.473002	-0.865220	0.342175
C50	C	-0.527602	-0.865248	0.342180
C51	C	-0.554871	-0.905358	0.302162
O52	O	-0.614010	-0.831207	0.376190
O53	O	-0.613939	-0.979575	0.228128
C54	C	-0.115335	-0.905516	0.302212
C55	C	-0.057221	-0.905568	0.302230
C56	C	-0.251681	-1.068816	0.302242
C57	C	-0.251669	-1.138458	0.302274
C58	C	-0.285243	-0.640250	0.342083
C59	C	-0.285230	-0.574814	0.342111
C60	C	-0.251740	-0.542096	0.302125
C61	C	-0.218252	-0.574818	0.262119
C62	C	-0.218262	-0.640252	0.262097
C63	C	-0.247528	-0.438372	0.245720
C64	C	-0.247522	-0.372939	0.245741
C65	C	-0.251706	-0.340275	0.302194
C66	C	-0.255908	-0.373052	0.358627
C67	C	-0.255918	-0.438486	0.358605
C68	C	-0.251725	-0.471143	0.302145
C69	C	-0.285176	-0.236608	0.342231
C70	C	-0.285160	-0.171172	0.342260
C71	C	-0.218185	-0.171176	0.262262
C72	C	-0.218198	-0.236612	0.262239
C73	C	-0.251697	-0.269324	0.302222
C74	C	-0.251681	-0.905377	0.139381
C75	C	-0.251538	-0.905476	0.069741
C76	C	-0.218245	-0.945569	0.567976
C77	C	-0.218222	-0.945568	0.633412
C78	C	-0.251658	-0.905472	0.666102
C79	C	-0.285108	-0.865362	0.633352
C80	C	-0.285126	-0.865360	0.567917
C81	C	-0.298736	-0.900488	0.769765
C82	C	-0.298719	-0.900495	0.835198
C83	C	-0.251602	-0.905476	0.867923
C84	C	-0.204501	-0.910463	0.835207
C85	C	-0.204519	-0.910461	0.769773
C86	C	-0.251642	-0.905470	0.737054
C87	C	-0.218127	-0.945579	0.971618
C88	C	-0.218103	-0.945574	1.037055
C89	C	-0.284994	-0.865371	1.036993
C90	C	-0.285013	-0.865373	0.971558
C91	C	-0.251580	-0.905480	0.938874
H92	H	-0.549738	-0.978093	0.229556
N93	N	-0.260177	-0.471957	0.416255
N94	N	-0.224680	-0.508521	0.432723
H95	H	-0.227679	-0.532157	0.473442
N96	N	-0.947489	-0.824488	0.383126
N97	N	-0.953568	-0.828618	0.440946
H98	H	-0.933899	-0.799691	0.469824
N99	N	-0.445129	-0.824270	0.383047
N100	N	-0.414619	-0.846292	0.422989
H101	H	-0.394931	-0.817374	0.451857
H102	H	-0.190914	-0.144537	0.229707
H103	H	-0.549855	-0.832616	0.374776
N104	N	-0.260198	-0.339687	0.416291
N105	N	-0.260194	-0.281264	0.416305
H106	H	-0.263230	-0.257696	0.457027
N107	N	-0.184069	-0.673681	0.221229
N108	N	-0.184086	-0.732104	0.221211
H109	H	-0.159938	-0.755716	0.192346
N110	N	-0.184084	-0.986532	0.534604
N111	N	-0.135838	-0.982421	0.541916
H112	H	-0.111710	-1.011351	0.518347
N113	N	-0.183995	-0.270022	0.221370
N114	N	-0.154094	-0.240805	0.185672
H115	H	-0.129935	-0.264400	0.156807
H116	H	-0.450687	-0.978036	0.229537
N117	N	-0.806526	-1.026605	0.181280
N118	N	-0.782108	-1.062381	0.145553
H119	H	-0.801769	-1.091318	0.116677
N120	N	-0.947367	-0.986575	0.221323
N121	N	-0.916851	-1.026483	0.243412
H122	H	-0.897138	-1.055405	0.214543
H123	H	-0.701834	-1.018244	0.189557
H124	H	-0.312330	-0.832714	0.659972
H125	H	-0.312495	-0.548173	0.374689
H126	H	-0.801036	-0.792644	0.414837
N127	N	-1.057756	-0.986605	0.221331
N128	N	-1.106508	-0.986614	0.221348
H129	H	-1.126194	-1.015537	0.192482
H130	H	-1.052192	-0.832824	0.374831
H131	H	-0.701986	-0.792613	0.414829
N132	N	-0.319462	-0.673654	0.382928
N133	N	-0.349354	-0.644431	0.418644
H134	H	-0.373522	-0.668023	0.447492
H135	H	-0.312363	-0.832701	0.541259
N136	N	-0.319373	-0.137755	0.383114
N137	N	-0.352656	-0.101174	0.361003
H138	H	-0.376821	-0.077574	0.389855
H139	H	-0.190984	-0.548174	0.229563
N140	N	-0.183942	-0.986547	1.070503
N141	N	-0.202324	-1.026454	1.107046
H142	H	-0.178197	-1.055394	1.130670
N143	N	-0.184047	-0.986532	0.666857
N144	N	-0.154197	-1.022334	0.637668
H145	H	-0.130059	-1.051265	0.661286
N146	N	-0.156406	-0.915555	0.736363
N147	N	-0.114339	-0.920005	0.765582
H148	H	-0.080358	-0.923601	0.741987
N149	N	-0.319396	-0.270018	0.383074
N150	N	-0.349286	-0.240797	0.418793
H151	H	-0.373455	-0.264391	0.447639
N152	N	-0.183965	-0.986537	0.938237
N153	N	-0.135719	-0.982420	0.945542
H154	H	-0.111591	-1.011346	0.921968
H155	H	-0.244104	-0.346256	0.199789
N156	N	-0.346833	-0.895395	0.868606
N157	N	-0.360540	-0.937924	0.905148
H158	H	-0.394524	-0.934317	0.928736
H159	H	-0.244119	-0.464961	0.199746
N160	N	-0.156373	-0.915550	0.868635
N161	N	-0.156361	-0.915546	0.927057
H162	H	-0.122371	-0.919139	0.950669
N163	N	-0.319140	-0.824411	1.070387
N164	N	-0.319118	-0.824415	1.128810
H165	H	-0.343232	-0.795484	1.152398
N166	N	-0.346873	-0.895393	0.736351
N167	N	-0.388922	-0.890946	0.765566
H168	H	-0.422917	-0.887347	0.741968
H169	H	-0.312253	-0.832722	0.944899
