data_functionalizedCrystal
_audit_creation_method	'MofGen! by Chris Wilmer'
_symmetry_space_group_name_H-M	'P1'
_symmetry_Int_Tables_number	1
_symmetry_cell_setting	triclinic
loop_
_symmetry_equiv_pos_as_xyz
  x,y,z
_cell_length_a	15.995350
_cell_length_b	16.992695
_cell_length_c	15.455438
_cell_angle_alpha	92.856553
_cell_angle_beta	87.331181
_cell_angle_gamma	87.080299
loop_
_atom_site_label
_atom_site_type_symbol
_atom_site_fract_x
_atom_site_fract_y
_atom_site_fract_z
O1	O	-1.114320	-0.104494	-0.072057
O2	O	-0.871379	-0.116975	-0.072075
O3	O	-0.991876	0.003409	-0.072059
O4	O	-0.993823	-0.224877	-0.072073
O5	O	-0.998728	0.010269	0.072201
O6	O	-0.878231	-0.110115	0.072185
O7	O	-1.121172	-0.097633	0.072203
Cu8	Cu	-1.000327	-0.103248	0.085366
Cu9	Cu	-0.992224	-0.111361	-0.085238
O10	O	-1.000675	-0.218017	0.072187
C11	C	-0.843576	-0.113029	0.000053
C12	C	-0.750522	-0.111482	0.000046
C13	C	-0.992796	0.036051	0.000071
C14	C	-0.985320	0.123095	0.000070
C15	C	-1.148975	-0.101579	0.000073
C16	C	-1.242029	-0.103126	0.000074
C17	C	-0.412403	-0.105926	0.000065
C18	C	-0.454116	-0.020176	0.000391
C19	C	-0.550894	-0.021739	0.000060
C20	C	-0.580148	-0.108682	0.000056
C21	C	-0.537977	-0.154887	-0.082323
C22	C	-0.441194	-0.152736	-0.082386
C23	C	-0.448766	-0.146706	0.081665
C24	C	-0.545762	-0.146634	0.082748
C25	C	-0.674949	-0.110245	0.000048
C26	C	-0.317601	-0.104367	0.000066
C27	C	-0.999755	-0.250660	0.000056
C28	C	-1.007231	-0.337704	0.000051
N29	N	-1.006033	-0.097541	0.205360
C30	C	-1.057456	0.173336	0.000076
C31	C	-1.050426	0.255122	0.000067
C32	C	-0.971259	0.286667	0.000058
C33	C	-0.899118	0.236419	0.000050
C34	C	-0.906149	0.154634	0.000052
C35	C	-0.942120	0.530264	0.000044
C36	C	-0.935095	0.612055	0.000044
C37	C	-1.086403	0.630753	0.000060
C38	C	-1.093427	0.548966	0.000068
C39	C	-1.021286	0.498725	0.000055
N40	N	-0.964072	0.370265	0.000052
N41	N	-1.028474	0.415128	0.000055
N42	N	-0.986525	-0.117061	-0.205232
C43	C	-0.954830	-0.148664	0.250769
C44	C	-0.959169	-0.144346	0.341576
C45	C	-1.014707	-0.088899	0.386972
C46	C	-1.065915	-0.037773	0.341557
C47	C	-1.061580	-0.042096	0.250752
C48	C	-1.033398	-0.070259	0.658548
C49	C	-1.037727	-0.065938	0.749359
C50	C	-0.930982	-0.172512	0.749372
C51	C	-0.926648	-0.176827	0.658565
C52	C	-0.977860	-0.125704	0.613158
N53	N	-1.019141	-0.084481	0.479791
N54	N	-0.973429	-0.130126	0.520341
H55	H	-0.579904	0.014309	0.059113
H56	H	-1.103276	-0.000467	0.213781
C57	C	-1.089725	-0.014014	0.608612
N58	N	-1.132151	0.028354	0.570997
C59	C	-0.826794	0.099369	0.000047
N60	N	-0.767021	0.057744	0.000042
H61	H	-0.573908	-0.112867	0.143691
C62	C	-1.144545	0.138646	0.000086
N63	N	-1.210144	0.112520	0.000089
C64	C	-0.569713	-0.119143	-0.165145
N65	N	-0.593615	-0.092216	-0.227524
H66	H	-1.109166	0.296026	0.000074
H67	H	-0.889289	-0.214135	0.786351
C68	C	-1.180516	0.514274	0.000079
N69	N	-1.246113	0.488144	0.000090
C70	C	-1.165753	0.686022	0.000067
N71	N	-1.225522	0.727652	0.000068
H72	H	-1.111139	0.007371	0.378523
H73	H	-0.883377	0.489367	0.000034
H74	H	-0.565606	-0.209799	0.087720
H75	H	-0.870626	0.637735	0.000051
H76	H	-0.834659	0.262109	0.000037
C77	C	-0.420781	0.022142	-0.078963
N78	N	-0.395669	0.054015	-0.138733
C79	C	-0.865680	-0.237934	0.608636
N80	N	-0.819801	-0.284000	0.571030
H81	H	-0.556231	-0.218908	-0.085389
C82	C	-0.893746	-0.209671	0.200841
N83	N	-0.847742	-0.255629	0.163238
C84	C	-0.902837	-0.200582	0.391521
N85	N	-0.860404	-0.242941	0.429139
H86	H	-0.436107	0.016903	0.059469
C87	C	-0.581711	0.019666	-0.079854
N88	N	-0.604922	0.050854	-0.140050
H89	H	-1.082955	-0.020783	0.786317
H90	H	-0.417898	-0.124827	-0.143963
H91	H	-0.412980	-0.215859	-0.086127
C92	C	-0.422505	-0.104823	0.166021
N93	N	-0.402727	-0.073268	0.229553
H94	H	-0.421261	-0.209891	0.082219
