data_functionalizedCrystal
_audit_creation_method	'MofGen! by Chris Wilmer'
_symmetry_space_group_name_H-M	'P1'
_symmetry_Int_Tables_number	1
_symmetry_cell_setting	triclinic
loop_
_symmetry_equiv_pos_as_xyz
  x,y,z
_cell_length_a	12.759401
_cell_length_b	12.645330
_cell_length_c	12.759393
_cell_angle_alpha	89.969902
_cell_angle_beta	89.981504
_cell_angle_gamma	90.017969
loop_
_atom_site_label
_atom_site_type_symbol
_atom_site_fract_x
_atom_site_fract_y
_atom_site_fract_z
Zn1	Zn	1.606233	-0.421968	-0.593994
Zn2	Zn	1.606118	-0.599273	-0.418318
Zn3	Zn	1.430535	-0.422024	-0.418333
Zn4	Zn	1.430515	-0.599191	-0.593960
O5	O	1.518350	-0.510614	-0.506151
O6	O	1.753239	-0.445499	-0.570698
O7	O	1.582788	-0.575818	-0.271299
O8	O	1.453899	-0.273670	-0.441655
O9	O	1.753155	-0.575763	-0.441630
O10	O	1.582983	-0.273629	-0.570712
O11	O	1.453787	-0.445594	-0.271310
O12	O	1.283511	-0.445515	-0.441622
O13	O	1.453863	-0.575625	-0.740985
O14	O	1.283496	-0.575679	-0.570654
O15	O	1.582963	-0.445420	-0.741010
O16	O	1.582768	-0.747609	-0.441597
O17	O	1.453752	-0.747549	-0.570640
C18	C	1.245383	-0.510595	-0.506137
C19	C	1.128606	-0.510613	-0.506155
C20	C	1.518274	-0.786044	-0.506136
C21	C	1.518337	-0.903874	-0.506165
C22	C	0.964033	-0.578508	-0.573244
C23	C	1.073757	-0.578496	-0.573233
C24	C	1.073726	-0.442744	-0.439077
C25	C	0.964004	-0.442762	-0.439083
C26	C	1.437508	-1.071444	-0.587596
C27	C	1.437095	-0.948885	-0.587335
C28	C	1.488364	-0.948478	-0.395444
C29	C	1.487870	-1.071077	-0.395938
C30	C	1.629634	-1.070960	-0.534558
C31	C	1.628952	-0.948353	-0.536979
C32	C	1.792384	-0.510634	-0.506166
C33	C	1.909160	-0.510642	-0.506173
C34	C	1.518424	-0.510507	-0.780185
C35	C	1.518455	-0.510461	-0.896961
C36	C	1.518456	-0.234109	-0.506189
C37	C	1.518501	-0.116279	-0.506205
C38	C	1.451309	-0.442642	-0.951828
C39	C	1.451333	-0.442609	-1.061553
C40	C	1.585659	-0.578219	-1.061533
C41	C	1.585629	-0.578256	-0.951811
C42	C	1.518338	-0.510644	-0.233184
C43	C	1.518510	-0.510392	-0.116408
H44	H	0.919382	-0.633781	-0.627872
H45	H	1.640350	-0.633414	-1.106205
H46	H	1.406631	-1.099771	-0.371919
F47	F	1.563023	-0.910376	-0.314010
F48	F	1.461789	-1.109880	-0.695261
F49	F	1.379855	-0.370437	-1.119941
H50	H	1.640310	-0.633487	-0.907137
F51	F	0.905601	-0.370529	-0.367690
F52	F	1.132104	-0.370501	-0.367683
F53	F	1.132152	-0.650731	-0.644617
H54	H	1.355634	-1.102347	-0.569053
F55	F	1.461603	-0.909458	-0.694645
H56	H	1.544302	-1.100739	-0.333227
F57	F	1.329405	-0.910671	-0.562788
H58	H	1.407972	-0.917870	-0.370990
H59	H	1.651555	-0.919195	-0.618464
F60	F	1.665373	-1.111264	-0.638294
H61	H	1.692473	-0.917707	-0.482014
F62	F	1.708509	-1.108873	-0.457087
F63	F	1.379814	-0.370492	-0.893457
