data_functionalizedCrystal
_audit_creation_method	'MofGen! by Chris Wilmer'
_symmetry_space_group_name_H-M	'P1'
_symmetry_Int_Tables_number	1
_symmetry_cell_setting	triclinic
loop_
_symmetry_equiv_pos_as_xyz
  x,y,z
_cell_length_a	14.044209
_cell_length_b	9.130313
_cell_length_c	10.654550
_cell_angle_alpha	89.996249
_cell_angle_beta	88.836442
_cell_angle_gamma	90.002757
loop_
_atom_site_label
_atom_site_type_symbol
_atom_site_fract_x
_atom_site_fract_y
_atom_site_fract_z
O1	O	-1.259697	0.121622	-0.302971
O2	O	-0.983656	0.121663	-0.292041
O3	O	-1.128024	0.121632	-0.115405
O4	O	-1.115330	0.121653	-0.479608
O5	O	-1.128015	-0.121966	-0.115400
O6	O	-0.983648	-0.121935	-0.292037
O7	O	-1.259689	-0.121977	-0.302967
Cu8	Cu	-1.121668	-0.144199	-0.297501
Cu9	Cu	-1.121678	0.143885	-0.297507
O10	O	-1.115322	-0.121946	-0.479603
C11	C	-0.948306	-0.000131	-0.287253
C12	C	-0.842986	-0.000115	-0.272979
N13	N	-1.121668	-0.346821	-0.297498
C14	C	-1.185620	-0.576834	-0.219318
C15	C	-1.185614	-0.423497	-0.219319
C16	C	-1.057730	-0.423491	-0.375690
C17	C	-1.057741	-0.576825	-0.375695
C18	C	-0.650153	-0.000142	-0.246882
C19	C	-0.593186	-0.000142	-0.348131
C20	C	-0.485887	-0.000157	-0.333610
C21	C	-0.757462	-0.000127	-0.261401
C22	C	-0.295039	-0.000176	-0.307757
C23	C	-0.400358	-0.000169	-0.322040
C24	C	-1.127087	-0.000166	-0.068511
C25	C	-1.124299	-0.000163	0.071213
N26	N	-1.121685	0.346508	-0.297501
C27	C	-1.116258	-0.000144	-0.526497
C28	C	-1.119047	-0.000137	-0.666221
C29	C	-1.209300	-0.000176	0.142157
C30	C	-1.206674	-0.000157	0.273442
C31	C	-1.034039	-0.000121	0.262825
C32	C	-1.036666	-0.000128	0.131543
H33	H	-1.237689	-0.639253	-0.155650
H34	H	-0.967443	-0.000114	0.073777
O35	O	-0.608018	-0.000145	-0.117624
H36	H	-0.632009	-0.099435	-0.065853
H37	H	-0.624998	-0.000130	-0.445718
O38	O	-1.298356	-0.000192	0.349959
H39	H	-1.340266	0.099071	0.327288
O40	O	-1.303814	-0.000183	0.077080
H41	H	-1.362478	-0.000170	0.148474
H42	H	-0.962690	-0.000095	0.311962
H43	H	-1.005677	-0.639244	-0.439367
H44	H	-1.237677	-0.361086	-0.155656
H45	H	-1.005667	-0.361053	-0.439352
