data_functionalizedCrystal
_audit_creation_method	'MofGen! by Chris Wilmer'
_symmetry_space_group_name_H-M	'P1'
_symmetry_Int_Tables_number	1
_symmetry_cell_setting	triclinic
loop_
_symmetry_equiv_pos_as_xyz
  x,y,z
_cell_length_a	13.897449
_cell_length_b	14.908932
_cell_length_c	14.908694
_cell_angle_alpha	90.169261
_cell_angle_beta	86.684269
_cell_angle_gamma	93.301058
loop_
_atom_site_label
_atom_site_type_symbol
_atom_site_fract_x
_atom_site_fract_y
_atom_site_fract_z
Zn1	Zn	1.480975	-0.387259	-0.487778
Zn2	Zn	1.980975	0.112741	0.012222
Zn3	Zn	1.462361	-0.528961	-0.328765
Zn4	Zn	1.962361	-0.028961	0.171235
Zn5	Zn	1.310928	-0.378623	-0.337435
Zn6	Zn	1.810928	0.121377	0.162565
Zn7	Zn	1.309874	-0.537579	-0.479081
Zn8	Zn	1.809874	-0.037579	0.020919
O9	O	1.391035	-0.458106	-0.408265
O10	O	1.891035	0.041894	0.091735
O11	O	1.613488	-0.406064	-0.466696
O12	O	2.113488	0.093936	0.033304
O13	O	1.434924	-0.501798	-0.204088
O14	O	1.934924	-0.001798	0.295912
O15	O	1.341716	-0.253943	-0.364647
O16	O	1.841716	0.246057	0.135353
O17	O	1.599812	-0.510171	-0.349869
O18	O	2.099812	-0.010171	0.150131
O19	O	1.466649	-0.260288	-0.475103
O20	O	1.966649	0.239712	0.024897
O21	O	1.323667	-0.391345	-0.210458
O22	O	1.823667	0.108655	0.289542
O23	O	1.175806	-0.399702	-0.356214
O24	O	1.675806	0.100298	0.143786
O25	O	1.339920	-0.524859	-0.606062
O26	O	1.839920	-0.024859	-0.106062
O27	O	1.175032	-0.516485	-0.460281
O28	O	1.675032	-0.016485	0.039719
O29	O	1.465627	-0.414420	-0.612452
O30	O	1.965627	0.085580	-0.112452
O31	O	1.433902	-0.655930	-0.341436
O32	O	1.933902	-0.155930	0.158564
O33	O	1.321871	-0.662262	-0.451873
O34	O	1.821871	-0.162262	0.048127
C35	C	1.140420	-0.458092	-0.408245
C36	C	1.640420	0.041908	0.091755
C37	C	1.033206	-0.458110	-0.408257
C38	C	1.533206	0.041890	0.091743
C39	C	1.375780	-0.691722	-0.394790
C40	C	1.875780	-0.191722	0.105210
C41	C	1.369344	-0.791666	-0.389055
C42	C	1.869344	-0.291666	0.110945
C43	C	1.404732	-0.471564	-0.642795
C44	C	1.904732	0.028436	-0.142795
C45	C	1.410569	-0.477299	-0.742737
C46	C	1.910569	0.022701	-0.242737
C47	C	0.836912	-0.458114	-0.408280
C48	C	1.336912	0.041886	0.091720
C49	C	0.946143	-0.458109	-0.408265
C50	C	1.446143	0.041891	0.091735
C51	C	1.642628	-0.458119	-0.408285
C52	C	2.142628	0.041881	0.091715
C53	C	1.749842	-0.458125	-0.408294
C54	C	2.249842	0.041875	0.091706
C55	C	1.406376	-0.223578	-0.421813
C56	C	1.906376	0.276422	0.078187
C57	C	1.412914	-0.123636	-0.427586
C58	C	1.912914	0.376364	0.072414
C59	C	1.295084	0.070773	-0.323418
C60	C	1.795084	0.570773	0.176582
C61	C	1.301224	0.164678	-0.328840
C62	C	1.801224	0.664678	0.171160
C63	C	1.431327	0.158079	-0.443854
C64	C	1.931327	0.658079	0.056146
C65	C	1.425188	0.064174	-0.438433
C66	C	1.925188	0.564174	0.061567
C67	C	1.357065	0.020525	-0.378212
C68	C	1.857065	0.520525	0.121788
C69	C	1.350931	-0.073381	-0.372786
C70	C	1.850931	0.426619	0.127214
C71	C	1.481029	-0.079978	-0.487805
C72	C	1.981029	0.420022	0.012195
C73	C	1.487168	0.013926	-0.493226
C74	C	1.987168	0.513926	0.006774
C75	C	1.305663	-0.373065	-0.937175
C76	C	1.805663	0.126935	-0.437175
C77	C	1.311144	-0.378451	-1.031080
C78	C	1.811144	0.121549	-0.531080
C79	C	1.427008	-0.493461	-1.024455
C80	C	1.927008	0.006539	-0.524455
C81	C	1.421527	-0.488075	-0.930549
C82	C	1.921527	0.011925	-0.430549
C83	C	1.360853	-0.427874	-0.886913
C84	C	1.860853	0.072126	-0.386913
C85	C	1.355378	-0.422484	-0.793006
C86	C	1.855378	0.077516	-0.293006
C87	C	1.471235	-0.537498	-0.786382
C88	C	1.971235	-0.037498	-0.286382
C89	C	1.476717	-0.542884	-0.880287
C90	C	1.976717	-0.042884	-0.380287
C91	C	1.377450	-0.444634	-0.174651
C92	C	1.877450	0.055366	0.325349
C93	C	1.371816	-0.438646	-0.074724
C94	C	1.871816	0.061354	0.425276
H95	H	1.295463	-0.108918	-0.323750
H96	H	1.795463	0.391082	0.176250
Cl97	Cl	1.572796	0.068808	-0.568934
Cl98	Cl	2.072796	0.568808	-0.068934
H99	H	1.516179	-0.582125	-0.745449
H100	H	2.016179	-0.082125	-0.245449
Cl101	Cl	1.241756	-0.309548	-1.094264
Cl102	Cl	1.741756	0.190452	-0.594264
H103	H	1.476391	-0.542486	-1.059999
H104	H	1.976391	-0.042486	-0.559999
H105	H	1.239621	0.035234	-0.274379
H106	H	1.739621	0.535234	0.225621
H107	H	1.250752	0.205588	-0.284223
H108	H	1.750752	0.705588	0.215777
H109	H	1.256270	-0.324039	-0.901646
H110	H	1.756270	0.175961	-0.401646
H111	H	1.526112	-0.591901	-0.915829
H112	H	2.026112	-0.091901	-0.415829
Cl113	Cl	1.516937	0.212966	-0.519575
Cl114	Cl	2.016937	0.712966	-0.019575
Cl115	Cl	1.279106	-0.346802	-0.738151
Cl116	Cl	1.779106	0.153198	-0.238151
Cl117	Cl	1.558959	-0.143153	-0.556685
Cl118	Cl	2.058959	0.356847	-0.056685
