data_functionalizedCrystal
_audit_creation_method	'MofGen! by Chris Wilmer'
_symmetry_space_group_name_H-M	'P1'
_symmetry_Int_Tables_number	1
_symmetry_cell_setting	triclinic
loop_
_symmetry_equiv_pos_as_xyz
  x,y,z
_cell_length_a	16.974800
_cell_length_b	14.853567
_cell_length_c	16.053802
_cell_angle_alpha	92.572962
_cell_angle_beta	91.074188
_cell_angle_gamma	83.511964
loop_
_atom_site_label
_atom_site_type_symbol
_atom_site_fract_x
_atom_site_fract_y
_atom_site_fract_z
O1	O	1.049203	0.114922	0.001497
O2	O	0.819756	0.128723	-0.014013
O3	O	0.940608	-0.009402	-0.005846
O4	O	0.928350	0.253046	-0.006670
O5	O	0.933956	-0.001830	0.132563
O6	O	0.813104	0.136294	0.124396
O7	O	1.042551	0.122493	0.139906
Zn8	Zn	0.926771	0.130596	0.154127
Zn9	Zn	0.935536	0.120620	-0.028234
O10	O	0.921698	0.260618	0.131740
C11	C	0.787066	0.131845	0.053207
C12	C	0.699572	0.129857	0.047292
C13	C	0.654845	0.133048	0.119962
C14	C	0.572636	0.131166	0.114407
C15	C	0.535154	0.126099	0.036181
C16	C	0.579887	0.122905	-0.036495
C17	C	0.662095	0.124781	-0.030939
C18	C	0.289677	0.120040	0.011474
C19	C	0.207462	0.118168	0.005924
C20	C	0.200217	0.126427	0.156826
C21	C	0.282427	0.128308	0.162375
C22	C	0.327153	0.125109	0.089700
N23	N	0.451123	0.124178	0.030501
N24	N	0.411183	0.127023	0.095380
C25	C	0.936727	-0.039205	0.063318
C26	C	0.935063	-0.139291	0.063199
C27	C	0.856238	-0.551900	0.057886
C28	C	0.999813	-0.573043	0.067591
C29	C	1.001378	-0.479008	0.067692
C30	C	0.930372	-0.421414	0.062891
C31	C	0.857801	-0.457856	0.057989
C32	C	1.073948	-0.442559	0.072602
C33	C	1.075516	-0.348518	0.072704
C34	C	1.004509	-0.290923	0.067898
C35	C	0.931935	-0.327370	0.062995
C36	C	0.860929	-0.269777	0.058194
C37	C	0.788354	-0.306222	0.053285
C38	C	0.786794	-0.400261	0.053183
C39	C	1.006069	-0.196885	0.068000
C40	C	0.862492	-0.175732	0.058297
C41	C	1.075241	0.119371	0.072685
C42	C	1.162736	0.121359	0.078594
C43	C	0.925580	0.290421	0.062573
C44	C	0.927244	0.390507	0.062687
N45	N	0.920796	0.137403	0.278583
N46	N	0.941518	0.113806	-0.152690
C47	C	0.972237	0.078652	0.325753
C48	C	0.968064	0.083423	0.412878
C49	C	0.912453	0.146949	0.452831
C50	C	0.861006	0.205703	0.405655
C51	C	0.865176	0.200928	0.318531
C52	C	0.894240	0.167784	0.713010
C53	C	0.890076	0.172557	0.800140
C54	C	0.997134	0.050275	0.807357
C55	C	1.001301	0.045508	0.720232
C56	C	0.949852	0.104259	0.673063
N57	N	0.908188	0.151829	0.541887
N58	N	0.954113	0.099374	0.584009
H59	H	0.685355	0.137181	0.183662
H60	H	0.730541	-0.259317	0.049381
H61	H	1.057623	-0.619940	0.071507
C62	C	1.033409	0.008771	0.281812
H63	H	1.063442	-0.025541	0.322386
H64	H	1.067878	0.039436	0.250033
H65	H	1.006639	-0.030711	0.245919
C66	C	0.837654	0.232415	0.661136
H67	H	0.803945	0.270938	0.697411
H68	H	0.806437	0.198025	0.624939
H69	H	0.867675	0.268171	0.629059
C70	C	1.085890	-0.156797	0.073401
H71	H	1.127955	-0.204566	0.076244
H72	H	1.087161	-0.117906	0.121907
H73	H	1.091808	-0.123199	0.025369
C74	C	0.538661	0.117346	-0.122544
H75	H	0.577076	0.115711	-0.165028
H76	H	0.500791	0.168973	-0.128242
H77	H	0.512695	0.063915	-0.127454
H78	H	0.804669	-0.128845	0.054384
H79	H	1.131757	-0.489457	0.076519
H80	H	0.163792	0.129030	0.215994
C81	C	0.323655	0.133876	0.248422
H82	H	0.379021	0.134544	0.241322
H83	H	0.314650	0.082741	0.278916
H84	H	0.302737	0.187798	0.278108
C85	C	1.155343	-0.308436	0.078093
H86	H	1.197407	-0.356207	0.080931
H87	H	1.156623	-0.269543	0.126597
H88	H	1.161254	-0.274841	0.030058
C89	C	1.024658	0.018805	0.464762
H90	H	1.058383	-0.019703	0.428490
H91	H	0.994650	-0.016954	0.496843
H92	H	1.055871	0.053212	0.500955
C93	C	0.711294	0.121277	-0.110876
H94	H	0.677198	0.117999	-0.158261
H95	H	0.749471	0.069312	-0.111445
H96	H	0.737555	0.174370	-0.112245
H97	H	1.046584	-0.006220	0.687704
H98	H	1.039021	0.002442	0.845770
C99	C	0.523439	0.134683	0.194344
H100	H	0.557534	0.137982	0.241728
H101	H	0.497175	0.081598	0.195722
H102	H	0.485263	0.186655	0.194907
H103	H	0.176947	0.114044	-0.057781
H104	H	0.727708	-0.429943	0.049187
C105	C	0.776412	-0.591984	0.052490
H106	H	0.785646	-0.656239	0.053120
H107	H	0.749490	-0.574867	0.002249
H108	H	0.744856	-0.569586	0.098788
C109	C	0.799837	0.275582	0.449601
H110	H	0.804726	0.270020	0.508245
H111	H	0.747911	0.264851	0.431783
H112	H	0.809149	0.334997	0.435896
H113	H	0.844788	0.224292	0.832666
C114	C	0.808593	0.265557	0.266644
H115	H	0.774881	0.304082	0.302916
H116	H	0.777379	0.231164	0.230448
H117	H	0.838615	0.301313	0.234568
H118	H	0.326084	0.117433	-0.047703
