data_functionalizedCrystal
_audit_creation_method	'MofGen! by Chris Wilmer'
_symmetry_space_group_name_H-M	'P1'
_symmetry_Int_Tables_number	1
_symmetry_cell_setting	triclinic
loop_
_symmetry_equiv_pos_as_xyz
  x,y,z
_cell_length_a	10.686220
_cell_length_b	13.032721
_cell_length_c	10.685910
_cell_angle_alpha	86.639642
_cell_angle_beta	89.676032
_cell_angle_gamma	100.973619
loop_
_atom_site_label
_atom_site_type_symbol
_atom_site_fract_x
_atom_site_fract_y
_atom_site_fract_z
Zn1	Zn	1.936221	-0.254653	0.604177
Zn2	Zn	1.893451	-0.443447	0.425386
Zn3	Zn	1.706650	-0.281267	0.414856
Zn4	Zn	1.700095	-0.441427	0.650838
O5	O	1.809104	-0.355198	0.523814
O6	O	2.107544	-0.269404	0.565339
O7	O	1.853515	-0.433917	0.250406
O8	O	1.757746	-0.131698	0.416035
O9	O	2.076121	-0.408110	0.433982
O10	O	1.926411	-0.112144	0.555128
O11	O	1.716274	-0.314764	0.242669
O12	O	1.528784	-0.312805	0.461280
O13	O	1.746573	-0.404667	0.818232
O14	O	1.523968	-0.430474	0.634655
O15	O	1.920055	-0.267445	0.783950
O16	O	1.847159	-0.589217	0.479228
O17	O	1.705101	-0.587733	0.644866
C18	C	1.480482	-0.374309	0.551889
C19	C	1.339896	-0.382508	0.563933
C20	C	1.770814	-0.626338	0.568277
C21	C	1.754553	-0.742323	0.587330
C22	C	1.817663	-0.794724	0.513920
C23	C	1.800858	-0.914601	0.533611
C24	C	2.139009	-0.336014	0.495630
C25	C	2.279595	-0.327838	0.483620
C26	C	1.837354	-0.332862	0.847358
C27	C	1.849392	-0.323343	0.985232
C28	C	1.847581	-0.082996	0.479202
C29	C	1.863977	0.033000	0.460191
C30	C	1.780954	-0.377473	1.201534
C31	C	1.768922	-0.386997	1.063659
H32	H	1.335522	-0.274762	0.405645
H33	H	1.927505	-0.261565	1.023572
C34	C	1.663402	-0.470459	1.011884
C35	C	1.522346	-0.469097	1.040471
C36	C	1.416825	-0.552561	0.988686
C37	C	1.452360	-0.637385	0.908314
C38	C	1.593424	-0.638750	0.879723
C39	C	1.698945	-0.555287	0.931507
H40	H	1.496034	-0.406302	1.099971
H41	H	1.312400	-0.551550	1.009852
H42	H	1.374247	-0.699170	0.869980
H43	H	1.619735	-0.701545	0.820223
H44	H	1.803369	-0.556298	0.910342
C45	C	1.264344	-0.454223	0.669278
C46	C	1.119049	-0.462607	0.681586
C47	C	1.043498	-0.534321	0.786928
C48	C	1.113242	-0.597649	0.879962
C49	C	1.258545	-0.589267	0.867657
C50	C	1.334096	-0.517553	0.762315
H51	H	1.067413	-0.415726	0.612713
H52	H	0.935934	-0.540526	0.796036
H53	H	1.057314	-0.650736	0.957943
H54	H	1.310181	-0.636148	0.936530
H55	H	1.441660	-0.511348	0.753207
H56	H	1.930460	-0.923119	0.382764
H57	H	1.734386	-0.958481	0.611046
C58	C	1.907471	-0.735447	0.409323
C59	C	1.854665	-0.670471	0.304356
C60	C	1.944477	-0.611195	0.199758
C61	C	2.087095	-0.616895	0.200126
C62	C	2.139908	-0.681874	0.305097
C63	C	2.050096	-0.741150	0.409695
H64	H	1.749084	-0.666248	0.304080
H65	H	1.905380	-0.563093	0.122052
H66	H	2.153579	-0.573015	0.122696
H67	H	2.245489	-0.686096	0.305373
H68	H	2.089193	-0.789251	0.487401
H69	H	1.688085	-0.786207	0.664760
