data_functionalizedCrystal
_audit_creation_method	'MofGen! by Chris Wilmer'
_symmetry_space_group_name_H-M	'P1'
_symmetry_Int_Tables_number	1
_symmetry_cell_setting	triclinic
loop_
_symmetry_equiv_pos_as_xyz
  x,y,z
_cell_length_a	17.640112
_cell_length_b	21.295417
_cell_length_c	17.640968
_cell_angle_alpha	78.765192
_cell_angle_beta	92.139080
_cell_angle_gamma	101.256239
loop_
_atom_site_label
_atom_site_type_symbol
_atom_site_fract_x
_atom_site_fract_y
_atom_site_fract_z
Zn1	Zn	1.247775	-0.018088	-0.195079
Zn2	Zn	1.221981	-0.147966	-0.068087
Zn3	Zn	1.095099	-0.059037	-0.093722
Zn4	Zn	1.120723	-0.139680	-0.220669
O5	O	1.171395	-0.091193	-0.144389
O6	O	1.350625	-0.021647	-0.156795
O7	O	1.183631	-0.156775	0.034787
O8	O	1.115423	0.034499	-0.107185
O9	O	1.331674	-0.117068	-0.063494
O10	O	1.227593	0.064584	-0.181652
O11	O	1.090412	-0.091439	0.015953
O12	O	0.992227	-0.083404	-0.132000
O13	O	1.159096	-0.102945	-0.323549
O14	O	1.011052	-0.142652	-0.225268
O15	O	1.252440	-0.013612	-0.304748
O16	O	1.208478	-0.234971	-0.088309
O17	O	1.134084	-0.228883	-0.200410
C18	C	0.974084	-0.116573	-0.184193
C19	C	0.889678	-0.127442	-0.201239
C20	C	0.563037	-0.008607	-0.014897
C21	C	0.483727	-0.018831	-0.030925
C22	C	0.503351	-0.080669	-0.127878
C23	C	0.582665	-0.070447	-0.111861
C24	C	0.612502	-0.034416	-0.055369
C25	C	0.632129	-0.096257	-0.152332
C26	C	0.711436	-0.086038	-0.136313
C27	C	0.741279	-0.050011	-0.079823
C28	C	0.691809	-0.024198	-0.039350
C29	C	0.602290	-0.132291	-0.208820
C30	C	0.651755	-0.158101	-0.249291
C31	C	0.731064	-0.147879	-0.233277
C32	C	0.760907	-0.111851	-0.176786
C33	C	0.780534	-0.173691	-0.273749
C34	C	0.859841	-0.163473	-0.257730
C35	C	0.840214	-0.101633	-0.160767
C36	C	1.171287	-0.254765	-0.144367
C37	C	1.171315	-0.324729	-0.144369
C38	C	1.210105	-0.360729	-0.086039
C39	C	1.210144	-0.426464	-0.086049
C40	C	1.171378	-0.456199	-0.144384
C41	C	1.132586	-0.420189	-0.202724
C42	C	1.132555	-0.354454	-0.202717
N43	N	1.106115	-0.566893	-0.163575
N44	N	1.106146	-0.629339	-0.163577
C45	C	1.171472	-0.654254	-0.144410
N46	N	1.236764	-0.614366	-0.125225
N47	N	1.236731	-0.551916	-0.125220
C48	C	1.171408	-0.527477	-0.144398
C49	C	1.210308	-0.761531	-0.086087
C50	C	1.210349	-0.827266	-0.086102
C51	C	1.132784	-0.820991	-0.202775
C52	C	1.132750	-0.755256	-0.202763
C53	C	1.171510	-0.725531	-0.144415
C54	C	1.369475	-0.065714	-0.104431
C55	C	1.453885	-0.054856	-0.087403
C56	C	1.211503	-0.052786	-0.342475
C57	C	1.228595	-0.036419	-0.426887
C58	C	1.171527	0.073024	-0.144424
C59	C	1.171584	0.143004	-0.144438
C60	C	1.041841	-0.215148	-0.753447
C61	C	1.057917	-0.199759	-0.832762
C62	C	1.155108	-0.106745	-0.813176
C63	C	1.139037	-0.122124	-0.733858
C64	C	1.082403	-0.176327	-0.704000
C65	C	1.179600	-0.083303	-0.684411
C66	C	1.163533	-0.098683	-0.605099
C67	C	1.106903	-0.152885	-0.575235
C68	C	1.066336	-0.191707	-0.624689
C69	C	1.236237	-0.029103	-0.714269
C70	C	1.276800	0.009719	-0.664822
C71	C	1.260729	-0.005659	-0.585510
C72	C	1.204100	-0.059860	-0.555646
C73	C	1.301296	0.033164	-0.536056
C74	C	1.285229	0.017784	-0.456745
C75	C	1.188033	-0.075241	-0.476334
C76	C	1.131486	-0.129399	0.052935
C77	C	1.114541	-0.145569	0.137376
H78	H	0.756228	-0.203033	-0.319739
C79	C	1.252950	-0.728828	-0.021915
H80	H	1.276069	-0.759684	0.012817
H81	H	1.217211	-0.713376	0.005349
H82	H	1.291893	-0.693255	-0.044326
C83	C	1.253019	-0.866867	-0.021935
H84	H	1.276091	-0.839748	0.012817
H85	H	1.291988	-0.882581	-0.044340
H86	H	1.217295	-0.902701	0.005318
H87	H	1.318258	0.049397	-0.416484
C88	C	1.125732	-0.134859	-0.443483
H89	H	1.121971	-0.138454	-0.389167
H90	H	1.139438	-0.173214	-0.454228
H91	H	1.077345	-0.129680	-0.466779
C92	C	0.515053	-0.143541	-0.226436
H93	H	0.504366	-0.168705	-0.265866
H94	H	0.499798	-0.102686	-0.243282
H95	H	0.487176	-0.166188	-0.181023
H96	H	1.249319	-0.016583	-0.778850
H97	H	0.805856	-0.041693	-0.066780
H98	H	1.201222	-0.062614	-0.837497
H99	H	1.322913	0.053849	-0.689143
C100	C	0.724636	0.015446	0.022780
H101	H	0.683820	0.029356	0.044591
H102	H	0.761486	0.052465	-0.000089
H103	H	0.748847	-0.011034	0.062174
H104	H	1.101160	-0.725943	-0.250258
H105	H	1.347413	0.077292	-0.560378
H106	H	0.864510	-0.072281	-0.114778
C107	C	0.914255	-0.191860	-0.302250
H108	H	0.885129	-0.214776	-0.338194
H109	H	0.939282	-0.220910	-0.266893
H110	H	0.951920	-0.157401	-0.329142
H111	H	1.093825	-0.165408	-0.510654
H112	H	0.627450	-0.187439	-0.295284
H113	H	1.101025	-0.444402	-0.250222
H114	H	0.587334	0.020745	0.031092
C115	C	0.429318	0.009566	0.013593
H116	H	0.458450	0.032492	0.049526
H117	H	0.391651	-0.024884	0.040483
H118	H	0.404296	0.038622	-0.021769
H119	H	0.479046	-0.110007	-0.173871
C120	C	1.252749	-0.328032	-0.021866
H121	H	1.275863	-0.358890	0.012868
H122	H	1.217013	-0.312575	0.005396
H123	H	1.291696	-0.292462	-0.044277
H124	H	1.241734	-0.455781	-0.038549
C125	C	1.089883	-0.314849	-0.266879
H126	H	1.095419	-0.271441	-0.258521
H127	H	1.036613	-0.334393	-0.266020
H128	H	1.111303	-0.314270	-0.315684
C129	C	1.090146	-0.853690	-0.266945
H130	H	1.095718	-0.897997	-0.258595
H131	H	1.111548	-0.831567	-0.315744
H132	H	1.036861	-0.851691	-0.266077
H133	H	1.020201	-0.235832	-0.600381
C134	C	0.979572	-0.274791	-0.720593
H135	H	0.957723	-0.295718	-0.761398
H136	H	0.940225	-0.260989	-0.696319
H137	H	1.002371	-0.304472	-0.683797
C138	C	1.013292	-0.242465	-0.887153
H139	H	0.977261	-0.276946	-0.858009
H140	H	1.048588	-0.260160	-0.912225
H141	H	0.986486	-0.216635	-0.924774
