data_functionalizedCrystal
_audit_creation_method	'MofGen! by Chris Wilmer'
_symmetry_space_group_name_H-M	'P1'
_symmetry_Int_Tables_number	1
_symmetry_cell_setting	triclinic
loop_
_symmetry_equiv_pos_as_xyz
  x,y,z
_cell_length_a	27.440280
_cell_length_b	27.440279
_cell_length_c	23.196402
_cell_angle_alpha	60.012705
_cell_angle_beta	90.002631
_cell_angle_gamma	60.011579
loop_
_atom_site_label
_atom_site_type_symbol
_atom_site_fract_x
_atom_site_fract_y
_atom_site_fract_z
Zr1	Zr	-0.063849	0.533279	0.555573
O2	O	-0.141634	0.634909	0.463562
O3	O	-0.040019	0.431642	0.583751
O4	O	-0.141660	0.533270	0.583790
O5	O	0.040200	0.533290	0.463525
O6	O	-0.141663	0.533271	0.678660
O7	O	-0.039994	0.533281	0.463523
O8	O	0.040154	0.351476	0.678591
O9	O	-0.141617	0.715085	0.463594
O10	O	-0.029840	0.473450	0.666603
O11	O	0.030010	0.473456	0.595804
O12	O	-0.089659	0.593111	0.595850
O13	O	-0.029809	0.593117	0.525050
Zr14	Zr	0.064045	0.533296	0.706882
Zr15	Zr	-0.063854	0.533281	0.706880
Zr16	Zr	0.064050	0.533294	0.555575
Zr17	Zr	-0.063821	0.661150	0.555624
Zr18	Zr	0.064017	0.405425	0.706831
O19	O	0.040216	0.634933	0.678704
O20	O	-0.141641	0.634912	0.678701
O21	O	0.040222	0.634930	0.463565
O22	O	0.141830	0.431666	0.798893
O23	O	-0.040026	0.431644	0.798890
O24	O	0.141837	0.431663	0.583754
O25	O	-0.040004	0.533285	0.798930
O26	O	0.141856	0.533305	0.678665
O27	O	0.141859	0.533303	0.583795
O28	O	0.040190	0.533294	0.798932
O29	O	-0.141620	0.715087	0.583863
O30	O	0.141816	0.351488	0.678592
O31	O	0.141813	0.351490	0.798861
O32	O	0.040150	0.351478	0.798859
O33	O	-0.039954	0.715097	0.463596
O34	O	-0.039957	0.715098	0.583864
O35	O	0.089855	0.473464	0.666605
O36	O	0.030006	0.473458	0.737405
O37	O	-0.029814	0.593119	0.666651
O38	O	0.030036	0.593125	0.595852
C39	C	0.000063	0.373340	0.631164
C40	C	0.000051	0.319055	0.631142
C41	C	0.031343	0.084300	0.594262
C42	C	0.031335	0.135330	0.594248
O43	O	0.057916	0.161709	0.562832
N44	N	0.000086	0.160852	0.631195
C45	C	-0.031151	0.135336	0.668164
O46	O	-0.057731	0.161730	0.699589
C47	C	-0.031140	0.084303	0.668181
C48	C	0.000106	0.058789	0.631226
C49	C	0.062586	0.058785	0.557311
C50	C	0.062593	0.007759	0.557324
C51	C	0.031356	-0.017751	0.594288
C52	C	0.000113	0.007763	0.631239
C53	C	-0.062373	0.058785	0.705154
C54	C	-0.062359	0.007748	0.705168
C55	C	-0.031113	-0.017766	0.668213
C56	C	-0.031117	-0.068773	0.668216
N57	N	0.000131	-0.094295	0.631270
C58	C	0.031368	-0.068784	0.594305
C59	C	-0.031173	0.242507	0.668125
C60	C	-0.031188	0.293543	0.668104
C61	C	0.031299	0.293532	0.594189
C62	C	0.031311	0.242500	0.594207
C63	C	0.000076	0.216986	0.631178
C64	C	0.031380	-0.175941	0.594335
C65	C	0.031382	-0.226970	0.594349
C66	C	-0.031103	-0.226957	0.668266
C67	C	-0.031108	-0.175931	0.668249
C68	C	0.000138	-0.150426	0.631282
O69	O	-0.057682	-0.095186	0.699619
O70	O	0.057949	-0.095190	0.562893
C71	C	-0.159884	0.533269	0.631225
C72	C	-0.214181	0.533262	0.631224
C73	C	-0.582140	0.595760	0.594301
C74	C	-0.633162	0.595764	0.594303
O75	O	-0.686106	0.648885	0.562915
N76	N	-0.627455	0.533303	0.631234
C77	C	-0.570720	0.470834	0.668172
O78	O	-0.570550	0.417707	0.699586
C79	C	-0.519699	0.470831	0.668174
C80	C	-0.525411	0.533296	0.631234
C81	C	-0.587850	0.658220	0.557365
C82	C	-0.536831	0.658216	0.557362
C83	C	-0.480102	0.595752	0.594295
C84	C	-0.474393	0.533292	0.631231
C85	C	-0.462966	0.408363	0.705115
C86	C	-0.411944	0.408366	0.705114
C87	C	-0.417656	0.470831	0.668174
C88	C	-0.366645	0.470824	0.668161
N89	N	-0.372353	0.533285	0.631230
C90	C	-0.429081	0.595749	0.594297
C91	C	-0.677870	0.470846	0.668167
C92	C	-0.728890	0.470848	0.668161
C93	C	-0.791328	0.595778	0.594293
C94	C	-0.740308	0.595775	0.594295
C95	C	-0.683578	0.533307	0.631235
C96	C	-0.321936	0.595736	0.594293
C97	C	-0.270909	0.595726	0.594291
C98	C	-0.208475	0.470797	0.668162
C99	C	-0.259497	0.470806	0.668161
C100	C	-0.316229	0.533281	0.631225
O101	O	-0.313683	0.417730	0.699536
O102	O	-0.429240	0.648868	0.562896
C103	C	0.160080	0.533306	0.631230
C104	C	0.214377	0.533313	0.631231
C105	C	0.000104	0.533285	0.441966
C106	C	0.000106	0.533284	0.377732
C107	C	0.000133	0.693235	0.631291
C108	C	0.000145	0.747519	0.631313
C109	C	0.031325	0.470824	0.384490
C110	C	0.031327	0.470823	0.324136
C111	C	0.000099	0.533286	0.257024
C112	C	-0.031122	0.595754	0.250269
C113	C	-0.031118	0.595753	0.310623
C114	C	-0.052223	0.581137	0.133113
C115	C	-0.052228	0.581136	0.072762
C116	C	0.000090	0.533291	0.070870
C117	C	0.052412	0.485437	0.129345
C118	C	0.052415	0.485436	0.189699
C119	C	0.000092	0.533294	0.191576
C120	C	0.031314	0.470826	0.012187
C121	C	0.031318	0.470828	-0.048170
C122	C	-0.031136	0.595760	-0.122036
C123	C	-0.031135	0.595756	-0.061679
C124	C	0.000089	0.533288	0.005430
C125	C	0.000093	0.533290	0.820489
C126	C	0.000091	0.533291	0.884723
C127	C	0.000058	0.373343	0.820425
C128	C	0.000044	0.319059	0.884637
C129	C	0.160045	0.373359	0.631167
C130	C	0.214330	0.319081	0.631146
C131	C	0.160040	0.373361	0.820428
C132	C	0.214323	0.319084	0.884641
C133	C	-0.159844	0.693214	0.442027
C134	C	-0.214127	0.747491	0.377814
C135	C	0.000139	0.693232	0.442030
C136	C	0.000152	0.747516	0.377818
C137	C	-0.159849	0.693216	0.631288
C138	C	-0.214134	0.747494	0.631309
C139	C	-0.031207	0.293562	0.877834
C140	C	-0.031232	0.242564	0.938162
C141	C	-0.000002	0.217059	1.005293
C142	C	0.031249	0.242561	1.012095
C143	C	0.031270	0.293562	0.951767
C144	C	0.271067	0.293595	0.668094
C145	C	0.322078	0.242602	0.668072
C146	C	0.316351	0.217092	0.631105
C147	C	0.259608	0.242582	0.594153
C148	C	0.208599	0.293578	0.594171
C149	C	0.208574	0.293591	0.951759
C150	C	0.259573	0.242599	1.012099
C151	C	0.316321	0.217097	1.005321
C152	C	0.322069	0.242594	0.938196
C153	C	0.271070	0.293589	0.877857
C154	C	-0.208377	0.772990	0.310696
C155	C	-0.259377	0.823998	0.250356
C156	C	-0.316125	0.849503	0.257134
C157	C	-0.321873	0.824002	0.324259
C158	C	-0.270874	0.772998	0.384598
C159	C	0.031398	0.773018	0.384621
C160	C	0.031408	0.824030	0.324293
C161	C	0.000177	0.849537	0.257162
C162	C	-0.031072	0.824033	0.250360
C163	C	-0.031086	0.773025	0.310688
C164	C	-0.208388	0.772988	0.668283
C165	C	-0.259389	0.823982	0.668316
C166	C	-0.316136	0.849484	0.631371
C167	C	-0.321881	0.823985	0.594397
C168	C	-0.270880	0.772989	0.594368
H169	H	0.056734	0.314312	0.564091
O170	O	-0.147275	0.403440	0.708029
H171	H	-0.122512	0.400433	0.670743
O172	O	0.065121	0.851523	0.331641
H173	H	0.099644	0.841745	0.305902
O174	O	-0.064755	0.851550	0.177951
H175	H	-0.046713	0.808741	0.171788
O176	O	0.383275	0.215103	0.707942
H177	H	0.378682	0.241400	0.733661
O178	O	-0.064781	0.745514	0.303347
H179	H	-0.086488	0.771818	0.246531
H180	H	-0.744965	0.646640	0.564215
O181	O	-0.383084	0.851516	0.331561
H182	H	-0.378521	0.825224	0.388369
O183	O	0.064930	0.215046	1.084504
H184	H	0.086664	0.241344	1.079108
H185	H	-0.056680	0.221807	0.932611
H186	H	0.088039	-0.013012	0.527234
H187	H	-0.275567	0.752237	0.564257
H188	H	-0.056645	0.314328	0.823179
H189	H	-0.357659	0.891008	0.631400
O190	O	0.064996	0.403450	0.084570
H191	H	0.033455	0.400453	0.113831
O192	O	0.064988	0.321050	0.959108
H193	H	0.086704	0.294737	1.015925
H194	H	-0.357647	0.891033	0.207997
O195	O	0.064997	0.403451	0.331420
H196	H	0.059749	0.413948	0.278177
H197	H	-0.000024	0.175531	1.054410
O198	O	0.277251	0.321107	0.707964
H199	H	0.325277	0.294818	0.733642
H200	H	0.357891	0.175568	0.631096
H201	H	0.162371	0.314348	0.957292
O202	O	-0.383088	0.851500	0.554542
H203	H	-0.417581	0.891250	0.560770
O204	O	0.065076	0.745527	0.457019
H205	H	0.113085	0.722307	0.463151
O206	O	0.000214	0.904533	0.192096
H207	H	0.027200	0.917966	0.208111
O208	O	-0.096075	0.086296	0.745013
H209	H	-0.078020	0.043491	0.801804
H210	H	-0.162187	0.752232	0.698367
O211	O	0.147426	0.320998	0.554335
H212	H	0.122655	0.377258	0.513475
O213	O	0.371326	0.162087	1.070403
H214	H	0.357789	0.148643	1.118211
O215	O	-0.649035	0.725597	0.517528
H216	H	-0.654209	0.755539	0.460738
O217	O	0.253435	0.215046	0.554306
H218	H	0.298440	0.175293	0.560520
H219	H	-0.254700	0.844738	0.698424
O220	O	-0.064895	0.321067	0.707954
H221	H	-0.086610	0.294747	0.733661
O222	O	0.064989	0.403455	-0.040878
H223	H	0.112996	0.373495	-0.011576
O224	O	-0.383117	0.663122	0.554452
H225	H	-0.407853	0.666124	0.591763
H226	H	0.056825	-0.247740	0.564252
H227	H	-0.254844	0.419942	0.698230
H228	H	0.088026	0.079549	0.527210
H229	H	0.275759	0.314338	0.823208
O230	O	0.253368	0.215096	1.084494
H231	H	0.205338	0.241389	1.079064
H232	H	0.368280	0.221822	0.932687
H233	H	-0.094832	0.620099	0.025156
H234	H	-0.162175	0.752226	0.305163
H235	H	0.056821	-0.155180	0.564231
H236	H	-0.056564	0.646618	-0.176679
H237	H	-0.056613	0.221740	0.698229
O238	O	-0.096053	-0.019766	0.745040
H239	H	-0.117784	0.006557	0.770725
H240	H	-0.094827	0.620108	0.134639
H241	H	-0.254685	0.844752	0.195705
O242	O	-0.064808	-0.148405	0.708104
H243	H	-0.086525	-0.174722	0.733812
O244	O	-0.277066	0.745488	0.456996
H245	H	-0.301842	0.722247	0.463122
O246	O	0.065001	0.214991	0.554338
H247	H	0.086715	0.241312	0.528630
H248	H	-0.056537	-0.247734	0.698359
H249	H	-0.275568	0.646595	0.564207
H250	H	-0.056561	0.646618	-0.067185
H251	H	-0.541490	0.709082	0.527285
O252	O	-0.852520	0.663154	0.554467
H253	H	-0.887035	0.652657	0.560683
H254	H	-0.631678	0.419973	0.698245
O255	O	-0.722728	0.403476	0.708017
H256	H	-0.674706	0.360044	0.733708
H257	H	-0.365753	0.357495	0.735196
H258	H	-0.458303	0.357497	0.735196
H259	H	0.095018	0.446474	0.237305
O260	O	0.065002	0.403450	0.456871
H261	H	0.113010	0.373501	0.462997
O262	O	0.108849	0.433825	0.127323
H263	H	0.121657	0.461557	0.083436
O264	O	-0.064811	0.663127	0.177888
H265	H	-0.059576	0.652634	0.137054
O266	O	-0.064798	0.663122	0.303339
H267	H	-0.086517	0.706559	0.246534
