data_functionalizedCrystal
_audit_creation_method	'MofGen! by Chris Wilmer'
_symmetry_space_group_name_H-M	'P1'
_symmetry_Int_Tables_number	1
_symmetry_cell_setting	triclinic
loop_
_symmetry_equiv_pos_as_xyz
  x,y,z
_cell_length_a	11.892283
_cell_length_b	16.109301
_cell_length_c	16.109301
_cell_angle_alpha	83.461481
_cell_angle_beta	86.104652
_cell_angle_gamma	93.891918
loop_
_atom_site_label
_atom_site_type_symbol
_atom_site_fract_x
_atom_site_fract_y
_atom_site_fract_z
O1	O	0.093934	-1.097819	-0.112176
O2	O	0.093953	-0.855756	-0.125476
O3	O	0.093931	-0.983437	0.002206
O4	O	0.093955	-0.970137	-0.239857
O5	O	-0.094073	-0.994061	0.012834
O6	O	-0.094052	-0.866379	-0.114847
O7	O	-0.094070	-1.108442	-0.101547
Zn8	Zn	-0.123910	-0.989097	-0.106510
Zn9	Zn	0.123793	-0.975100	-0.120513
O10	O	-0.094049	-0.980760	-0.229229
C11	C	-0.000047	-0.830092	-0.119623
C12	C	-0.000041	-0.737796	-0.118008
C13	C	-0.000071	-0.988210	0.038495
C14	C	-0.000073	-0.986595	0.130790
N15	N	-0.292962	-0.998656	-0.096952
C16	C	-0.470477	-1.065256	-0.030404
C17	C	-0.352137	-1.058556	-0.037092
C18	C	-0.352134	-0.945453	-0.150130
C19	C	-0.470474	-0.952153	-0.143443
C20	C	-0.529641	-1.012055	-0.083577
C21	C	-0.647983	-1.018751	-0.076886
C22	C	-0.647978	-0.905653	-0.189928
C23	C	-0.529639	-0.898953	-0.196615
N24	N	0.292844	-0.965548	-0.130064
C25	C	-0.000068	-1.134105	-0.107400
C26	C	-0.000067	-1.226400	-0.109015
C27	C	-0.000047	-0.515524	-0.190016
C28	C	-0.000054	-0.428804	-0.188491
C29	C	-0.000064	-0.448679	-0.037002
C30	C	-0.000065	-0.535398	-0.038527
C31	C	-0.000050	-0.568818	-0.115036
C32	C	-0.000057	-0.395379	-0.111987
C33	C	-0.000065	-0.301353	-0.110334
C34	C	-0.000045	-0.662849	-0.116690
C35	C	-0.000044	-0.975987	-0.265518
C36	C	-0.000035	-0.977602	-0.357814
C37	C	-0.000060	-1.058602	0.353062
C38	C	-0.000051	-1.057078	0.439782
C39	C	-0.000044	-0.905589	0.419907
C40	C	-0.000045	-0.907114	0.333189
C41	C	-0.000059	-0.983623	0.299769
C42	C	-0.000048	-0.980574	0.473207
C43	C	-0.000038	-0.978920	0.567233
C44	C	-0.000067	-0.985277	0.205737
H45	H	-0.518651	-1.114025	0.018346
C46	C	-0.287054	-1.117074	0.021401
C47	C	-0.352141	-1.182962	0.087248
C48	C	-0.287058	-1.241484	0.145743
C49	C	-0.156889	-1.234118	0.138391
C50	C	-0.091795	-1.168228	0.072541
C51	C	-0.156878	-1.109706	0.014046
H52	H	-0.448506	-1.188416	0.092693
H53	H	-0.335245	-1.290260	0.194490
H54	H	-0.108711	-1.277440	0.181692
H55	H	0.004570	-1.162774	0.067095
H56	H	-0.108690	-1.060930	-0.034701
H57	H	-0.303945	-0.896687	-0.198877
H58	H	-0.481451	-0.850183	-0.245359
H59	H	-0.000071	-0.578792	0.022534
C60	C	-0.000047	-0.370182	-0.270971
C61	C	0.097587	-0.368385	-0.339187
C62	C	0.097591	-0.309763	-0.421670
C63	C	-0.000037	-0.252939	-0.435938
C64	C	-0.097678	-0.254734	-0.367720
C65	C	-0.097682	-0.313356	-0.285236
H66	H	0.169864	-0.410452	-0.328627
H67	H	0.169872	-0.308435	-0.472170
H68	H	-0.000034	-0.209543	-0.496997
H69	H	-0.169955	-0.212667	-0.378280
H70	H	-0.169963	-0.314684	-0.234737
C71	C	-0.713064	-0.847128	-0.248422
C72	C	-0.843233	-0.854595	-0.241165
C73	C	-0.908321	-0.796070	-0.299653
C74	C	-0.843239	-0.730078	-0.365398
C75	C	-0.713063	-0.722609	-0.372658
C76	C	-0.647976	-0.781134	-0.314170
H77	H	-0.891417	-0.903448	-0.192493
H78	H	-1.004686	-0.801599	-0.294278
H79	H	-0.891421	-0.686755	-0.408695
H80	H	-0.664879	-0.673756	-0.421329
H81	H	-0.551610	-0.775605	-0.319544
C82	C	-0.000044	-0.552288	-0.274173
C83	C	-0.000047	-0.493663	-0.356648
C84	C	-0.000048	-0.530423	-0.440808
C85	C	-0.000046	-0.625810	-0.442492
C86	C	-0.000043	-0.684441	-0.360014
C87	C	-0.000042	-0.647680	-0.275854
H88	H	-0.000048	-0.423047	-0.355404
H89	H	-0.000051	-0.487020	-0.501863
H90	H	-0.000047	-0.653022	-0.504792
H91	H	-0.000041	-0.755056	-0.361258
H92	H	-0.000039	-0.691083	-0.214799
H93	H	-0.000083	-0.421459	0.025290
H94	H	-0.000069	-1.120901	0.325855
C95	C	-0.000048	-0.824631	0.274559
C96	C	-0.000048	-0.740474	0.311316
C97	C	-0.000047	-0.657996	0.252686
C98	C	-0.000044	-0.659675	0.157299
C99	C	-0.000044	-0.743835	0.120537
C100	C	-0.000045	-0.826313	0.179167
H101	H	-0.000050	-0.739229	0.381932
H102	H	-0.000047	-0.595695	0.279900
H103	H	-0.000043	-0.598620	0.113898
H104	H	-0.000042	-0.745081	0.049921
H105	H	-0.000045	-0.888614	0.151952
H106	H	-0.696156	-1.067524	-0.028138
H107	H	-0.000049	-1.118133	0.483170
H108	H	-0.000035	-0.843297	0.447129
