data_functionalizedCrystal
_audit_creation_method	'MofGen! by Chris Wilmer'
_symmetry_space_group_name_H-M	'P1'
_symmetry_Int_Tables_number	1
_symmetry_cell_setting	triclinic
loop_
_symmetry_equiv_pos_as_xyz
  x,y,z
_cell_length_a	27.732048
_cell_length_b	16.109301
_cell_length_c	15.186229
_cell_angle_alpha	90.000638
_cell_angle_beta	89.991324
_cell_angle_gamma	96.947932
loop_
_atom_site_label
_atom_site_type_symbol
_atom_site_fract_x
_atom_site_fract_y
_atom_site_fract_z
O1	O	0.062130	-1.102361	-0.073183
O2	O	0.562130	-0.602361	0.426817
O3	O	0.069862	-0.860204	-0.073198
O4	O	0.569862	-0.360204	0.426802
O5	O	-0.004369	-0.988803	-0.073173
O6	O	0.495631	-0.488803	0.426827
O7	O	0.136361	-0.973762	-0.073208
O8	O	0.636361	-0.473762	0.426792
O9	O	-0.004370	-0.988795	0.073284
O10	O	0.495630	-0.488795	0.573284
O11	O	0.069861	-0.860195	0.073259
O12	O	0.569861	-0.360195	0.573259
O13	O	0.062129	-1.102353	0.073275
O14	O	0.562129	-0.602353	0.573275
Zn15	Zn	0.065995	-0.981273	0.096520
Zn16	Zn	0.565995	-0.481273	0.596520
Zn17	Zn	0.065996	-0.981284	-0.096444
Zn18	Zn	0.565996	-0.481284	0.403556
O19	O	0.136360	-0.973753	0.073250
O20	O	0.636360	-0.473753	0.573250
C21	C	0.069548	-0.829228	0.000029
C22	C	0.569548	-0.329228	0.500029
C23	C	0.068609	-0.736945	0.000024
C24	C	0.568609	-0.236945	0.500024
C25	C	-0.022378	-0.988483	0.000058
C26	C	0.477622	-0.488483	0.500058
C27	C	-0.076037	-0.987533	0.000065
C28	C	0.423963	-0.487533	0.500065
C29	C	0.062443	-1.133328	0.000046
C30	C	0.562443	-0.633328	0.500046
C31	C	0.063382	-1.225612	0.000045
C32	C	0.563382	-0.725612	0.500045
C33	C	-0.414559	-1.057541	0.000024
C34	C	0.085441	-0.557541	0.500024
C35	C	-0.616233	-1.054013	0.000012
C36	C	-0.116233	-0.554013	0.500012
O37	O	-0.647221	-1.118031	-0.000023
O38	O	-0.147221	-0.618031	0.499977
N39	N	-0.635676	-0.977759	0.000008
N40	N	-0.135676	-0.477759	0.500008
C41	C	-0.604697	-0.902381	0.000001
C42	C	-0.104697	-0.402381	0.500001
O43	O	-0.625862	-0.837441	-0.000011
O44	O	-0.125862	-0.337441	0.499989
C45	C	-0.403024	-0.905910	0.000008
C46	C	0.096976	-0.405910	0.500008
C47	C	-0.383584	-0.982169	0.000020
C48	C	0.116416	-0.482169	0.500020
C49	C	-0.395119	-1.133794	0.000036
C50	C	0.104881	-0.633794	0.500036
C51	C	-0.344703	-1.134675	0.000044
C52	C	0.155297	-0.634675	0.500044
C53	C	-0.313728	-1.059303	0.000040
C54	C	0.186272	-0.559303	0.500040
C55	C	-0.333168	-0.983050	0.000028
C56	C	0.166832	-0.483050	0.500028
C57	C	-0.372045	-0.830533	-0.000005
C58	C	0.127955	-0.330533	0.499995
C59	C	-0.321624	-0.831422	-0.000006
C60	C	0.178376	-0.331422	0.499994
C61	C	-0.302184	-0.907681	0.000007
C62	C	0.197816	-0.407681	0.500007
C63	C	-0.251777	-0.908559	0.000032
C64	C	0.248223	-0.408559	0.500032
N65	N	-0.232334	-0.984814	0.000036
N66	N	0.267666	-0.484814	0.500036
C67	C	-0.263310	-1.060186	0.000040
C68	C	0.236690	-0.560186	0.500040
C69	C	-0.710579	-0.900534	-0.000000
C70	C	-0.210579	-0.400534	0.500000
C71	C	-0.760997	-0.899652	-0.000000
C72	C	-0.260997	-0.399652	0.500000
C73	C	-0.772530	-1.051284	0.000009
C74	C	-0.272530	-0.551284	0.500009
C75	C	-0.722111	-1.052166	0.000015
C76	C	-0.222111	-0.552166	0.500015
C77	C	-0.691136	-0.976789	0.000004
C78	C	-0.191136	-0.476789	0.500004
C79	C	-0.157433	-1.062030	0.000058
C80	C	0.342567	-0.562030	0.500058
C81	C	-0.107012	-1.062905	0.000069
C82	C	0.392988	-0.562905	0.500069
C83	C	-0.095484	-0.911273	0.000056
C84	C	0.404516	-0.411273	0.500056
C85	C	-0.145900	-0.910398	0.000049
C86	C	0.354100	-0.410398	0.500049
C87	C	-0.176874	-0.985783	0.000047
C88	C	0.323126	-0.485783	0.500047
O89	O	-0.220761	-0.844576	0.000057
O90	O	0.279239	-0.344576	0.500057
O91	O	-0.242135	-1.125116	0.000033
O92	O	0.257865	-0.625116	0.500033
C93	C	-0.464975	-1.056660	0.000016
C94	C	0.035025	-0.556660	0.500016
C95	C	-0.484415	-0.980407	0.000005
C96	C	0.015585	-0.480407	0.500005
C97	C	-0.453440	-0.905035	0.000001
C98	C	0.046560	-0.405035	0.500001
C99	C	-0.534833	-0.979525	0.000005
C100	C	-0.034833	-0.479525	0.500005
C101	C	-0.565808	-1.054897	0.000009
C102	C	-0.065808	-0.554897	0.500009
C103	C	-0.546365	-1.131151	0.000013
C104	C	-0.046365	-0.631151	0.500013
C105	C	-0.495950	-1.132032	0.000020
C106	C	0.004050	-0.632032	0.500020
C107	C	-0.472883	-0.828781	-0.000003
C108	C	0.027117	-0.328781	0.499997
C109	C	-0.523299	-0.827906	-0.000010
C110	C	-0.023299	-0.327906	0.499990
C111	C	-0.554274	-0.903278	-0.000006
C112	C	-0.054274	-0.403278	0.499994
C113	C	0.154369	-0.974073	0.000017
C114	C	0.654369	-0.474073	0.500017
C115	C	0.208028	-0.975024	0.000004
C116	C	0.708028	-0.475024	0.500004
N117	N	0.065994	-0.981271	0.228213
N118	N	0.565994	-0.481271	0.728213
C119	C	0.110473	-0.514154	0.000024
C120	C	0.610473	-0.014154	0.500024
C121	C	0.109587	-0.427445	0.000030
C122	C	0.609587	0.072555	0.500030
C123	C	0.021514	-0.448409	0.000048
C124	C	0.521514	0.051591	0.500048
C125	C	0.022401	-0.535117	0.000048
C126	C	0.522401	-0.035117	0.500048
C127	C	0.066882	-0.567987	0.000032
C128	C	0.566882	-0.067987	0.500032
C129	C	0.065109	-0.394570	0.000037
C130	C	0.565109	0.105430	0.500037
C131	C	0.064148	-0.300556	0.000044
C132	C	0.564148	0.199444	0.500044
C133	C	0.067843	-0.662007	0.000027
C134	C	0.567843	-0.162007	0.500027
N135	N	0.065994	-0.981292	-0.228136
N136	N	0.565994	-0.481292	0.271864
C137	C	0.033135	-1.038234	0.453947
C138	C	0.533135	-0.538234	0.953947
C139	C	0.033134	-1.038237	0.546136
C140	C	0.533134	-0.538237	1.046136
C141	C	0.098854	-0.924323	0.546124
C142	C	0.598854	-0.424323	1.046124
C143	C	0.098852	-0.924317	0.453936
C144	C	0.598852	-0.424317	0.953936
C145	C	0.065993	-0.981277	0.407850
C146	C	0.565993	-0.481277	0.907850
C147	C	0.065994	-0.981286	0.592227
C148	C	0.565994	-0.481286	1.092227
C149	C	0.065993	-0.981288	0.692183
C150	C	0.565993	-0.481288	1.192183
C151	C	0.065994	-0.981274	0.307887
C152	C	0.565994	-0.481274	0.807887
H153	H	-0.182646	-1.123416	0.000053
H154	H	0.317354	-0.623416	0.500053
Cl155	Cl	-0.082577	-1.158781	0.000084
Cl156	Cl	0.417423	-0.658781	0.500084
Cl157	Cl	-0.320272	-1.230549	0.000035
Cl158	Cl	0.179728	-0.730549	0.500035
Cl159	Cl	0.166392	-0.555473	0.000009
Cl160	Cl	0.666392	-0.055473	0.500009
Cl161	Cl	-0.034401	-0.407081	0.000063
Cl162	Cl	0.465599	0.092919	0.500063
Cl163	Cl	-0.008176	-1.109841	0.604085
Cl164	Cl	0.491824	-0.609841	1.104085
Cl165	Cl	0.140161	-0.852705	0.395979
Cl166	Cl	0.640161	-0.352705	0.895979
Cl167	Cl	0.140162	-0.852722	0.604064
Cl168	Cl	0.640162	-0.352722	1.104064
Cl169	Cl	0.164391	-0.359772	0.000021
Cl170	Cl	0.664391	0.140228	0.500021
Cl171	Cl	-0.032404	-0.602798	0.000065
Cl172	Cl	0.467596	-0.102798	0.500065
Cl173	Cl	-0.008175	-1.109838	0.396014
Cl174	Cl	0.491825	-0.609838	0.896014
Cl175	Cl	-0.547730	-0.732027	-0.000022
Cl176	Cl	-0.047730	-0.232027	0.499978
Cl177	Cl	-0.697678	-1.148038	0.000030
Cl178	Cl	-0.197678	-0.648038	0.500030
Cl179	Cl	-0.434051	-1.228561	0.000043
Cl180	Cl	0.065949	-0.728561	0.500043
Cl181	Cl	-0.433949	-0.734017	-0.000010
Cl182	Cl	0.066051	-0.234017	0.499990
Cl183	Cl	-0.811479	-1.146037	0.000009
Cl184	Cl	-0.311479	-0.646037	0.500009
H185	H	-0.776820	-0.837554	0.000005
H186	H	-0.276820	-0.337554	0.500005
Cl187	Cl	-0.671645	-0.805764	-0.000013
Cl188	Cl	-0.171645	-0.305764	0.499987
H189	H	-0.387864	-0.768435	-0.000021
H190	H	0.112136	-0.268435	0.499979
Cl191	Cl	-0.585315	-1.225903	0.000021
Cl192	Cl	-0.085315	-0.725903	0.500021
H193	H	-0.296407	-0.770039	-0.000017
H194	H	0.203593	-0.270039	0.499983
H195	H	-0.070255	-0.849907	0.000055
H196	H	0.429745	-0.349907	0.500055
Cl197	Cl	-0.471519	-1.227906	0.000029
Cl198	Cl	0.028481	-0.727906	0.500029
Cl199	Cl	-0.170339	-0.814528	0.000049
Cl200	Cl	0.329661	-0.314528	0.500049
