data_functionalizedCrystal
_audit_creation_method	'MofGen! by Chris Wilmer'
_symmetry_space_group_name_H-M	'P1'
_symmetry_Int_Tables_number	1
_symmetry_cell_setting	triclinic
loop_
_symmetry_equiv_pos_as_xyz
  x,y,z
_cell_length_a	17.699083
_cell_length_b	14.971486
_cell_length_c	14.048226
_cell_angle_alpha	90.006640
_cell_angle_beta	90.000433
_cell_angle_gamma	83.448572
loop_
_atom_site_label
_atom_site_type_symbol
_atom_site_fract_x
_atom_site_fract_y
_atom_site_fract_z
O1	O	-1.004356	-0.113112	-0.079028
O2	O	-0.671023	0.220221	0.254306
O3	O	-0.337689	0.553554	0.587639
O4	O	-0.784014	-0.127829	-0.079059
O5	O	-0.450681	0.205505	0.254274
O6	O	-0.117347	0.538838	0.587608
O7	O	-0.900091	0.009750	-0.079036
O8	O	-0.566757	0.343083	0.254298
O9	O	-0.233424	0.676417	0.587631
O10	O	-0.888279	-0.250691	-0.079051
O11	O	-0.554946	0.082643	0.254282
O12	O	-0.221613	0.415976	0.587616
O13	O	-0.900077	0.009758	0.079286
O14	O	-0.566743	0.343091	0.412619
O15	O	-0.233410	0.676425	0.745952
O16	O	-0.784000	-0.127820	0.079262
O17	O	-0.450667	0.205513	0.412596
O18	O	-0.117333	0.538846	0.745929
O19	O	-1.004342	-0.113104	0.079294
O20	O	-0.671009	0.220229	0.412627
O21	O	-0.337676	0.553562	0.745960
Zn22	Zn	-0.894169	-0.120461	0.104415
Zn23	Zn	-0.560836	0.212872	0.437748
Zn24	Zn	-0.227502	0.546206	0.771082
Zn25	Zn	-0.894187	-0.120472	-0.104180
Zn26	Zn	-0.560854	0.212862	0.229153
Zn27	Zn	-0.227521	0.546195	0.562487
O28	O	-0.888265	-0.250683	0.079270
O29	O	-0.554932	0.082651	0.412604
O30	O	-0.221599	0.415984	0.745937
C31	C	-0.755809	-0.127297	0.000098
C32	C	-0.422475	0.206036	0.333431
C33	C	-0.089142	0.539369	0.666765
C34	C	-0.671787	-0.125715	0.000086
C35	C	-0.338453	0.207618	0.333419
C36	C	-0.005120	0.540951	0.666753
C37	C	-1.032547	-0.113636	0.000135
C38	C	-0.699214	0.219698	0.333468
C39	C	-0.365881	0.553031	0.666802
C40	C	-1.116569	-0.115218	0.000140
C41	C	-0.783236	0.218116	0.333474
C42	C	-0.449903	0.551449	0.666807
C43	C	-0.623365	-0.206471	0.000082
C44	C	-0.290031	0.126862	0.333415
C45	C	0.043302	0.460196	0.666748
C46	C	-0.544418	-0.204979	0.000094
C47	C	-0.211084	0.128354	0.333427
C48	C	0.122249	0.461687	0.666761
C49	C	-0.513894	-0.122731	0.000104
C50	C	-0.180561	0.210602	0.333437
C51	C	0.152772	0.543936	0.666771
C52	C	-0.562323	-0.041969	0.000111
C53	C	-0.228989	0.291364	0.333445
C54	C	0.104344	0.624698	0.666778
C55	C	-0.641268	-0.043462	0.000106
C56	C	-0.307935	0.289872	0.333439
C57	C	0.025399	0.623205	0.666772
C58	C	-0.243945	-0.035947	0.000135
C59	C	0.089388	0.297386	0.333469
C60	C	0.422722	0.630719	0.666802
C61	C	-0.164993	-0.034461	0.000138
C62	C	0.168340	0.298872	0.333471
C63	C	0.501673	0.632206	0.666805
C64	C	-0.147094	-0.197465	0.000124
C65	C	0.186239	0.135868	0.333457
C66	C	0.519572	0.469202	0.666790
C67	C	-0.226040	-0.198958	0.000118
C68	C	0.107294	0.134376	0.333451
C69	C	0.440627	0.467709	0.666785
C70	C	-0.274461	-0.118196	0.000130
C71	C	0.058872	0.215137	0.333464
C72	C	0.392206	0.548470	0.666797
C73	C	-0.360064	-0.119815	0.000119
C74	C	-0.026731	0.213519	0.333452
C75	C	0.306602	0.546852	0.666785
C76	C	-0.428293	-0.121111	0.000109
C77	C	-0.094959	0.212222	0.333442
C78	C	0.238374	0.545555	0.666776
C79	C	-0.899556	0.043077	0.000125
C80	C	-0.566222	0.376410	0.333458
C81	C	-0.232889	0.709744	0.666791
C82	C	-0.897973	0.142368	0.000124
C83	C	-0.564639	0.475702	0.333457
C84	C	-0.231306	0.809035	0.666790
C85	C	-0.888801	-0.284010	0.000108
C86	C	-0.555467	0.049324	0.333441
C87	C	-0.222134	0.382657	0.666775
C88	C	-0.890383	-0.383301	0.000103
C89	C	-0.557050	-0.049968	0.333436
C90	C	-0.223717	0.283365	0.666770
N91	N	-0.894162	-0.120453	0.246776
N92	N	-0.560828	0.212880	0.580109
N93	N	-0.227495	0.546213	0.913442
C94	C	-0.966165	0.199828	0.000134
C95	C	-0.632831	0.533162	0.333467
C96	C	-0.299498	0.866495	0.666801
C97	C	-0.964673	0.293123	0.000124
C98	C	-0.631339	0.626456	0.333458
C99	C	-0.298006	0.959789	0.666791
C100	C	-0.894988	0.328955	0.000111
C101	C	-0.561655	0.662289	0.333444
C102	C	-0.228321	0.995622	0.666778
C103	C	-0.826791	0.271488	0.000098
C104	C	-0.493458	0.604822	0.333431
C105	C	-0.160124	0.938155	0.666764
C106	C	-0.828284	0.178196	0.000101
C107	C	-0.494950	0.511529	0.333434
C108	C	-0.161617	0.844862	0.666767
C109	C	-0.823685	0.465940	0.000094
C110	C	-0.490351	0.799273	0.333427
C111	C	-0.157018	1.132607	0.666760
C112	C	-0.822192	0.559239	0.000093
C113	C	-0.488858	0.892572	0.333426
C114	C	-0.155525	1.225906	0.666759
C115	C	-0.960074	0.580867	0.000117
C116	C	-0.626740	0.914200	0.333451
C117	C	-0.293407	1.247534	0.666784
C118	C	-0.961566	0.487574	0.000120
C119	C	-0.628233	0.820908	0.333454
C120	C	-0.294900	1.154241	0.666787
C121	C	-0.893369	0.430114	0.000109
C122	C	-0.560035	0.763447	0.333442
C123	C	-0.226702	1.096780	0.666776
N124	N	-0.894200	-0.120472	-0.246541
N125	N	-0.560867	0.212861	0.086793
N126	N	-0.227534	0.546194	0.420126
C127	C	-0.945577	-0.059559	0.296604
C128	C	-0.612243	0.273775	0.629937
C129	C	-0.278910	0.607108	0.963271
C130	C	-0.945582	-0.059558	0.396262
C131	C	-0.612249	0.273775	0.729595
C132	C	-0.278915	0.607109	1.062928
C133	C	-0.894175	-0.120457	0.446089
C134	C	-0.560842	0.212876	0.779423
C135	C	-0.227508	0.546209	1.112756
C136	C	-0.842755	-0.181355	0.396254
C137	C	-0.509421	0.151979	0.729587
C138	C	-0.176088	0.485312	1.062921
C139	C	-0.842746	-0.181350	0.296598
C140	C	-0.509413	0.151983	0.629931
C141	C	-0.176080	0.485316	0.963265
C142	C	-0.842776	-0.181361	0.603968
C143	C	-0.509443	0.151972	0.937301
C144	C	-0.176110	0.485305	1.270635
C145	C	-0.842785	-0.181367	0.703631
C146	C	-0.509452	0.151966	1.036964
C147	C	-0.176119	0.485300	1.370298
C148	C	-0.945612	-0.059569	0.703632
C149	C	-0.612279	0.273764	1.036965
C150	C	-0.278945	0.607098	1.370298
C151	C	-0.945604	-0.059565	0.603976
C152	C	-0.612270	0.273769	0.937309
C153	C	-0.278937	0.607102	1.270643
C154	C	-0.894184	-0.120464	0.554148
C155	C	-0.560851	0.212870	0.887481
C156	C	-0.227517	0.546203	1.220814
H157	H	-0.648210	-0.273447	0.000073
H158	H	-0.314876	0.059886	0.333406
H159	H	0.018457	0.393220	0.666739
H160	H	-0.800924	-0.230957	0.744195
H161	H	-0.467590	0.102377	1.077529
H162	H	-0.134257	0.435710	1.410862
H163	H	-0.504995	-0.270739	0.000089
H164	H	-0.171661	0.062595	0.333423
H165	H	0.161672	0.395928	0.666756
H166	H	-0.680693	0.022298	0.000109
H167	H	-0.347360	0.355631	0.333442
H168	H	-0.014027	0.688965	0.666776
H169	H	-1.020202	0.339903	0.000135
H170	H	-0.686868	0.673237	0.333468
H171	H	-0.353535	1.006570	0.666801
H172	H	-0.768151	0.419157	0.000082
H173	H	-0.434817	0.752491	0.333415
H174	H	-0.101484	1.085824	0.666749
H175	H	-0.987467	-0.009980	0.563407
H176	H	-0.654133	0.323353	0.896740
H177	H	-0.320800	0.656686	1.230073
H178	H	-0.800902	-0.230949	0.563401
H179	H	-0.467569	0.102384	0.896734
H180	H	-0.134236	0.435718	1.230068
H181	H	-0.283361	0.029814	0.000146
H182	H	0.049973	0.363147	0.333479
H183	H	0.383306	0.696480	0.666813
H184	H	-0.800894	-0.230937	0.436829
H185	H	-0.467561	0.102396	0.770162
H186	H	-0.134228	0.435730	1.103496
H187	H	-0.800878	-0.230936	0.256029
H188	H	-0.467545	0.102397	0.589362
H189	H	-0.134212	0.435731	0.922695
H190	H	-0.250887	-0.265933	0.000105
H191	H	0.082446	0.067401	0.333439
H192	H	0.415780	0.400734	0.666772
H193	H	-0.537465	0.024999	0.000133
H194	H	-0.204131	0.358332	0.333467
H195	H	0.129202	0.691666	0.666800
H196	H	-1.022910	0.170661	0.000151
H197	H	-0.689577	0.503994	0.333484
H198	H	-0.356243	0.837328	0.666817
H199	H	-0.987479	-0.009983	0.744208
H200	H	-0.654146	0.323350	1.077541
H201	H	-0.320813	0.656684	1.410875
H202	H	-0.107660	-0.263225	0.000119
H203	H	0.225674	0.070109	0.333452
H204	H	0.559007	0.403442	0.666785
H205	H	-1.018310	0.458403	0.000138
H206	H	-0.684976	0.791736	0.333471
H207	H	-0.351643	1.125069	0.666805
H208	H	-1.015603	0.627656	0.000124
H209	H	-0.682269	0.960990	0.333457
H210	H	-0.348936	1.294323	0.666790
H211	H	-0.765448	0.588411	0.000097
H212	H	-0.432115	0.921744	0.333430
H213	H	-0.098782	1.255077	0.666764
H214	H	-0.770052	0.300671	0.000081
H215	H	-0.436719	0.634004	0.333414
H216	H	-0.103386	0.967337	0.666747
H217	H	-0.140145	0.032519	0.000148
H218	H	0.193188	0.365853	0.333481
H219	H	0.526522	0.699186	0.666814
H220	H	-0.772754	0.131412	0.000092
H221	H	-0.439421	0.464745	0.333425
H222	H	-0.106088	0.798079	0.666759
H223	H	-0.987441	-0.009971	0.256041
H224	H	-0.654108	0.323362	0.589374
H225	H	-0.320775	0.656695	0.922708
H226	H	-0.987447	-0.009973	0.436832
H227	H	-0.654114	0.323361	0.770165
H228	H	-0.320781	0.656694	1.103498
