data_functionalizedCrystal
_audit_creation_method	'MofGen! by Chris Wilmer'
_symmetry_space_group_name_H-M	'P1'
_symmetry_Int_Tables_number	1
_symmetry_cell_setting	triclinic
loop_
_symmetry_equiv_pos_as_xyz
  x,y,z
_cell_length_a	12.594516
_cell_length_b	11.169417
_cell_length_c	11.169409
_cell_angle_alpha	90.018605
_cell_angle_beta	90.031354
_cell_angle_gamma	90.018297
loop_
_atom_site_label
_atom_site_type_symbol
_atom_site_fract_x
_atom_site_fract_y
_atom_site_fract_z
Zn1	Zn	-0.423592	1.834915	0.678512
Zn2	Zn	-0.601618	1.834784	0.477832
Zn3	Zn	-0.423661	1.634201	0.477851
Zn4	Zn	-0.601536	1.634188	0.678481
O5	O	-0.512602	1.734522	0.578169
O6	O	-0.447213	2.002847	0.651896
O7	O	-0.578075	1.808127	0.309885
O8	O	-0.274706	1.660886	0.504489
O9	O	-0.578008	2.002751	0.504458
O10	O	-0.274656	1.808349	0.651914
O11	O	-0.447331	1.660759	0.309898
O12	O	-0.447251	1.466249	0.504460
O13	O	-0.577868	1.660864	0.846435
O14	O	-0.577935	1.466240	0.651862
O15	O	-0.447133	1.808337	0.846458
O16	O	-0.750553	1.808115	0.504428
O17	O	-0.750493	1.660738	0.651844
C18	C	-0.789143	1.734443	0.578157
C19	C	-0.907448	1.734519	0.578192
C20	C	-0.512592	1.422697	0.578160
C21	C	-0.512614	1.289297	0.578185
C22	C	-0.512484	1.734614	0.891212
C23	C	-0.512433	1.734653	1.024612
C24	C	-0.976707	1.654353	0.658316
C25	C	-1.047582	1.625107	0.548803
C26	C	-1.047372	1.763875	0.687724
C27	C	-0.976765	1.705215	0.468622
C28	C	-0.976549	1.844034	0.607616
C29	C	-1.047392	1.814829	0.498028
C30	C	-0.234981	1.734633	0.578207
C31	C	-0.116676	1.734681	0.578223
C32	C	-0.512612	2.047564	0.578179
C33	C	-0.512617	2.180964	0.578183
C34	C	-0.512643	1.734499	0.266344
C35	C	-0.512393	1.734692	0.132945
H36	H	-0.945670	1.586438	0.725975
H37	H	-1.078807	1.532568	0.523941
C38	C	-0.935042	1.671609	0.343466
N39	N	-0.903613	1.646292	0.249203
H40	H	-1.078233	1.882693	0.430206
C41	C	-0.934348	1.969012	0.641285
N42	N	-0.902553	2.063143	0.666662
H43	H	-1.078388	1.788639	0.780341
