data_functionalizedCrystal
_audit_creation_method	'MofGen! by Chris Wilmer'
_symmetry_space_group_name_H-M	'P1'
_symmetry_Int_Tables_number	1
_symmetry_cell_setting	triclinic
loop_
_symmetry_equiv_pos_as_xyz
  x,y,z
_cell_length_a	23.532407
_cell_length_b	10.654541
_cell_length_c	9.730217
_cell_angle_alpha	89.998341
_cell_angle_beta	90.004425
_cell_angle_gamma	96.333697
loop_
_atom_site_label
_atom_site_type_symbol
_atom_site_fract_x
_atom_site_fract_y
_atom_site_fract_z
O1	O	0.079974	-1.665308	0.114264
O2	O	0.087596	-1.299588	0.114277
O3	O	0.000925	-1.493476	0.114245
O4	O	0.166645	-1.471420	0.114296
O5	O	0.000931	-1.493463	-0.114335
O6	O	0.087601	-1.299575	-0.114303
O7	O	0.079980	-1.665295	-0.114317
Zn8	Zn	0.083791	-1.482433	-0.150602
Zn9	Zn	0.083784	-1.482450	0.150562
O10	O	0.166650	-1.471406	-0.114284
C11	C	0.087039	-1.252801	-0.000012
C12	C	0.085366	-1.113410	-0.000008
C13	C	-0.020292	-1.492908	-0.000049
C14	C	-0.083520	-1.491219	-0.000059
C15	C	0.080536	-1.712082	-0.000025
C16	C	0.082210	-1.851472	-0.000020
C17	C	-0.481945	-1.595367	0.000012
C18	C	-0.541355	-1.593798	0.000023
O19	O	-0.577471	-1.690344	0.000070
N20	N	-0.564732	-1.478531	0.000026
C21	C	-0.528695	-1.364826	0.000033
O22	O	-0.554034	-1.266639	0.000038
C23	C	-0.469285	-1.366396	0.000032
C24	C	-0.445912	-1.481670	0.000015
C25	C	-0.458571	-1.710632	-0.000003
C26	C	-0.399164	-1.712200	-0.000017
C27	C	-0.363132	-1.598503	-0.000014
C28	C	-0.386506	-1.483238	0.000002
C29	C	-0.433249	-1.252692	0.000049
C30	C	-0.373836	-1.254272	0.000049
C31	C	-0.350463	-1.369546	0.000032
C32	C	-0.291067	-1.371110	-0.000009
N33	N	-0.267690	-1.486377	-0.000012
C34	C	-0.303723	-1.600073	-0.000015
C35	C	-0.653459	-1.361537	0.000036
C36	C	-0.712867	-1.359966	0.000027
C37	C	-0.725523	-1.588939	0.000020
C38	C	-0.666114	-1.590509	0.000019
C39	C	-0.630082	-1.476804	0.000033
C40	C	-0.178964	-1.603358	-0.000043
C41	C	-0.119552	-1.604916	-0.000062
C42	C	-0.106901	-1.375944	-0.000047
C43	C	-0.166308	-1.374385	-0.000036
C44	C	-0.202339	-1.488102	-0.000029
O45	O	-0.254916	-1.274615	-0.000050
O46	O	-0.278375	-1.698244	-0.000002
C47	C	0.187867	-1.471975	0.000012
C48	C	0.251096	-1.473663	0.000032
N49	N	0.083796	-1.482430	-0.356138
C50	C	0.189004	-1.082156	0.000042
C51	C	0.240035	-1.001045	0.000071
C52	C	0.238459	-0.870077	0.000072
C53	C	0.185847	-0.820218	0.000039
C54	C	0.134816	-0.901329	0.000009
C55	C	0.136398	-1.032299	0.000013
C56	C	0.031179	-0.932583	-0.000050
C57	C	0.032754	-1.063552	-0.000041
C58	C	-0.021433	-0.882725	-0.000083
C59	C	-0.072465	-0.963837	-0.000103
C60	C	-0.070887	-1.094812	-0.000102
C61	C	-0.018277	-1.144663	-0.000071
C62	C	0.014049	-1.331027	-0.643908
C63	C	-0.020807	-1.255295	-0.571971
C64	C	-0.020796	-1.255271	-0.428092
C65	C	0.014073	-1.330990	-0.356145
C66	C	0.048929	-1.406722	-0.428082
C67	C	0.048916	-1.406735	-0.571965
C68	C	0.118652	-1.558162	-0.428075
C69	C	0.118645	-1.558182	-0.571955
C70	C	0.153521	-1.633881	-0.356128
C71	C	0.188381	-1.709609	-0.428065
C72	C	0.188369	-1.709629	-0.571953
C73	C	0.153501	-1.633914	-0.643891
N74	N	0.083776	-1.482463	0.356099
H75	H	-0.100525	-1.698790	-0.000079
H76	H	-0.112443	-1.160847	-0.000132
H77	H	-0.016987	-1.251302	-0.000054
H78	H	0.014074	-1.330975	-0.238991
H79	H	-0.487903	-1.803222	-0.000001
C80	C	-0.614312	-1.238115	0.000313
C81	C	-0.579841	-1.232301	0.117928
C82	C	-0.543782	-1.118618	0.118241
H83	H	-0.590824	-1.233837	-0.079306
H84	H	-0.636728	-1.169214	0.000388
H85	H	-0.557427	-1.301184	0.117841
H86	H	-0.603314	-1.236558	0.197566
H87	H	-0.566197	-1.049717	0.118316
H88	H	-0.520297	-1.114351	0.038617
H89	H	-0.520392	-1.114654	0.198047
C90	C	-0.058657	-1.172913	-0.350229
C91	C	-0.089188	-1.106586	-0.444022
C92	C	-0.124065	-1.030694	-0.372346
H93	H	-0.084690	-1.224562	-0.294077
H94	H	-0.035569	-1.114755	-0.294149
H95	H	-0.112274	-1.164737	-0.500078
H96	H	-0.063169	-1.054913	-0.500177
H97	H	-0.100976	-0.972536	-0.316266
H98	H	-0.150094	-1.082352	-0.316196
H99	H	-0.144780	-0.985673	-0.435973
H100	H	0.184568	-0.713576	0.000023
C101	C	-0.373683	-1.837228	-0.000080
C102	C	-0.313942	-1.814294	-0.000114
C103	C	-0.290454	-1.929446	-0.000182
H104	H	-0.385959	-1.884097	0.079613
H105	H	-0.385993	-1.884023	-0.079819
H106	H	-0.301637	-1.767519	0.079617
H107	H	-0.301651	-1.767444	-0.079801
H108	H	-0.302764	-1.976241	-0.079921
H109	H	-0.302733	-1.976306	0.079513
H110	H	-0.249917	-1.913901	-0.000217
H111	H	0.282871	-1.041654	0.000095
H112	H	0.280013	-0.804035	0.000087
C113	C	0.226310	-1.791590	-0.349880
C114	C	0.264566	-1.714950	-0.267317
C115	C	0.299521	-1.790424	-0.195283
H116	H	0.203286	-1.849686	-0.293630
H117	H	0.247105	-1.836666	-0.413281
H118	H	0.243773	-1.669895	-0.203923
H119	H	0.287602	-1.656855	-0.323533
H120	H	0.320316	-1.835499	-0.258684
H121	H	0.276493	-1.848517	-0.139041
H122	H	0.325485	-1.738434	-0.139265
H123	H	-0.208294	-1.695957	-0.000032
H124	H	-0.647088	-1.684375	0.000006
C125	C	-0.458649	-1.127573	-0.000199
C126	C	-0.492381	-1.119927	-0.117804
C127	C	-0.515782	-1.004672	-0.118081
H128	H	-0.481595	-1.122088	0.079427
H129	H	-0.428691	-1.060056	-0.000261
H130	H	-0.522336	-1.187425	-0.117729
H131	H	-0.469448	-1.125389	-0.197448
H132	H	-0.485823	-0.937155	-0.118143
H133	H	-0.538725	-0.999198	-0.038450
H134	H	-0.538667	-0.999464	-0.197880
H135	H	0.014041	-1.331030	-0.761062
H136	H	-0.344501	-1.161677	0.000062
C137	C	0.226274	-1.791897	-0.649803
C138	C	0.256819	-1.858174	-0.555994
C139	C	0.291749	-1.933961	-0.627652
H140	H	0.203239	-1.850092	-0.705922
H141	H	0.252294	-1.740143	-0.705914
H142	H	0.230803	-1.909925	-0.499906
H143	H	0.279866	-1.800011	-0.499871
H144	H	0.317769	-1.882206	-0.683763
H145	H	0.268709	-1.992148	-0.683768
H146	H	0.312482	-1.978930	-0.564014
H147	H	-0.754872	-1.681517	0.000023
H148	H	-0.731892	-1.266098	0.000018
H149	H	-0.185339	-1.280520	-0.000060
H150	H	-0.077553	-1.283375	-0.000050
H151	H	0.190293	-1.188795	0.000071
H152	H	-0.022713	-0.776083	-0.000090
H153	H	0.153489	-1.633920	-0.761046
H154	H	-0.115298	-0.923230	-0.000129
H155	H	-0.049198	-1.193649	-0.630566
H156	H	0.153524	-1.633862	-0.238974
