data_functionalizedCrystal
_audit_creation_method	'MofGen! by Chris Wilmer'
_symmetry_space_group_name_H-M	'P1'
_symmetry_Int_Tables_number	1
_symmetry_cell_setting	triclinic
loop_
_symmetry_equiv_pos_as_xyz
  x,y,z
_cell_length_a	17.077404
_cell_length_b	19.077068
_cell_length_c	17.077396
_cell_angle_alpha	92.267122
_cell_angle_beta	89.980223
_cell_angle_gamma	92.322445
loop_
_atom_site_label
_atom_site_type_symbol
_atom_site_fract_x
_atom_site_fract_y
_atom_site_fract_z
Zn1	Zn	1.187471	-0.280287	-0.456386
Zn2	Zn	1.182093	-0.397990	-0.330384
Zn3	Zn	1.056202	-0.280302	-0.325133
Zn4	Zn	1.050888	-0.397939	-0.461605
O5	O	1.119163	-0.339129	-0.393377
O6	O	1.296603	-0.295916	-0.439684
O7	O	1.165367	-0.382407	-0.219842
O8	O	1.078089	-0.181809	-0.338163
O9	O	1.292653	-0.382392	-0.347112
O10	O	1.174532	-0.181798	-0.434593
O11	O	1.072875	-0.295941	-0.215984
O12	O	0.945651	-0.295891	-0.343224
O13	O	1.069033	-0.382304	-0.570758
O14	O	0.941747	-0.382318	-0.443489
O15	O	1.169379	-0.295866	-0.566924
O16	O	1.160214	-0.496474	-0.352173
O17	O	1.063818	-0.496436	-0.448580
C18	C	0.915217	-0.339101	-0.393353
C19	C	0.827967	-0.339106	-0.393362
C20	C	0.450135	-0.384233	-0.445533
C21	C	0.532115	-0.384224	-0.445521
C22	C	0.575116	-0.339148	-0.393390
C23	C	0.536131	-0.294084	-0.341264
C24	C	0.454152	-0.294097	-0.341273
C25	C	0.707002	-0.294058	-0.341250
C26	C	0.788988	-0.294044	-0.341241
C27	C	0.784966	-0.384185	-0.445498
C28	C	0.702987	-0.384198	-0.445507
C29	C	0.664008	-0.339133	-0.393381
C30	C	1.110878	-0.521993	-0.401530
C31	C	1.107405	-0.600222	-0.405044
C32	C	1.156000	-0.636971	-0.356542
C33	C	1.152738	-0.710476	-0.359852
C34	C	1.100877	-0.747231	-0.411660
C35	C	1.052279	-0.710477	-0.460167
C36	C	1.055545	-0.636974	-0.456860
C37	C	1.085726	-0.967065	-0.426930
C38	C	1.082461	-1.040573	-0.430231
C39	C	1.182922	-1.040568	-0.329917
C40	C	1.186180	-0.967062	-0.326612
C41	C	1.137586	-0.930315	-0.375121
N42	N	1.097540	-0.822365	-0.415042
N43	N	1.140927	-0.855182	-0.371742
C44	C	1.323906	-0.339158	-0.393402
C45	C	1.411156	-0.339171	-0.393412
C46	C	1.119213	-0.339078	-0.598119
C47	C	1.119234	-0.339056	-0.685368
C48	C	1.127503	-0.155552	-0.385210
C49	C	1.131057	-0.077322	-0.381729
C50	C	1.171487	-0.294043	-0.724363
C51	C	1.171497	-0.294020	-0.806342
C52	C	1.119259	-0.339013	-0.849326
C53	C	1.067001	-0.384027	-0.810325
C54	C	1.066987	-0.384046	-0.728347
C55	C	1.067034	-0.383984	-0.981194
C56	C	1.067049	-0.383966	-1.063177
C57	C	1.171545	-0.293958	-1.059188
C58	C	1.171531	-0.293978	-0.977210
C59	C	1.119274	-0.338993	-0.938216
C60	C	1.119161	-0.339130	-0.189429
C61	C	1.119301	-0.338954	-0.102172
H62	H	0.563848	-0.420920	-0.487961
Cl63	Cl	0.994454	-0.590775	-0.517839
H64	H	1.046156	-0.937150	-0.466427
Cl65	Cl	1.213835	-0.756672	-0.298878
Cl66	Cl	1.237240	-0.237369	-1.108209
H67	H	0.675269	-0.257360	-0.298804
H68	H	1.040238	-1.070497	-0.472433
H69	H	1.010056	-0.740409	-0.502353
H70	H	1.214028	-0.257407	-0.689371
Cl71	Cl	1.237223	-0.237462	-0.855362
Cl72	Cl	1.244013	-1.086769	-0.268942
Cl73	Cl	1.251392	-0.920862	-0.261490
Cl74	Cl	1.237208	-0.237419	-0.923175
H75	H	0.823997	-0.257333	-0.298799
Cl76	Cl	1.001368	-0.440522	-1.117213
Cl77	Cl	0.590189	-0.237419	-0.275725
H78	H	1.024469	-0.420630	-0.949447
Cl79	Cl	1.001326	-0.440587	-0.864362
H80	H	0.415129	-0.420935	-0.487988
Cl81	Cl	0.648930	-0.440861	-0.511047
H82	H	1.024430	-0.420693	-0.696599
H83	H	0.422416	-0.257401	-0.298832
Cl84	Cl	0.833968	-0.440826	-0.511040
Cl85	Cl	1.221196	-0.590773	-0.291404
