data_functionalizedCrystal
_audit_creation_method	'MofGen! by Chris Wilmer'
_symmetry_space_group_name_H-M	'P1'
_symmetry_Int_Tables_number	1
_symmetry_cell_setting	triclinic
loop_
_symmetry_equiv_pos_as_xyz
  x,y,z
_cell_length_a	18.215407
_cell_length_b	29.839131
_cell_length_c	18.215399
_cell_angle_alpha	89.968708
_cell_angle_beta	89.983115
_cell_angle_gamma	90.038864
loop_
_atom_site_label
_atom_site_type_symbol
_atom_site_fract_x
_atom_site_fract_y
_atom_site_fract_z
Zn1	Zn	1.124984	-0.178887	-0.416052
Zn2	Zn	1.124858	-0.254017	-0.292980
Zn3	Zn	1.001917	-0.178898	-0.293005
Zn4	Zn	1.001847	-0.253987	-0.416010
O5	O	1.063401	-0.216447	-0.354512
O6	O	1.227951	-0.188860	-0.399734
O7	O	1.108526	-0.244069	-0.189999
O8	O	1.018325	-0.116029	-0.309356
O9	O	1.227859	-0.244058	-0.309313
O10	O	1.108741	-0.116021	-0.399758
O11	O	1.018203	-0.188880	-0.190017
O12	O	0.898924	-0.188851	-0.309315
O13	O	1.018204	-0.244008	-0.519000
O14	O	0.898872	-0.244019	-0.399686
O15	O	1.108673	-0.188832	-0.519031
O16	O	1.108458	-0.316880	-0.309272
O17	O	1.018082	-0.316858	-0.399662
C18	C	0.872195	-0.216433	-0.354499
C19	C	0.790396	-0.216438	-0.354511
C20	C	0.602250	-0.187756	-0.401667
C21	C	0.525391	-0.187760	-0.401670
C22	C	0.525305	-0.245151	-0.307369
C23	C	0.602163	-0.245144	-0.307364
C24	C	0.640633	-0.216448	-0.354517
C25	C	0.486917	-0.216458	-0.354525
C26	C	0.403583	-0.216462	-0.354527
C27	C	0.723972	-0.216443	-0.354514
C28	C	1.063269	-0.333170	-0.354475
C29	C	1.063279	-0.383104	-0.354484
C30	C	1.110546	-0.692746	-0.307515
C31	C	1.110636	-0.880419	-0.307543
O32	O	1.150719	-0.904683	-0.267580
N33	N	1.063554	-0.903889	-0.354567
C34	C	1.016449	-0.880438	-0.401591
O35	O	0.976410	-0.904707	-0.441594
C36	C	1.016362	-0.692766	-0.401566
C37	C	1.063443	-0.669298	-0.354533
C38	C	1.157623	-0.669279	-0.260487
C39	C	1.157597	-0.622363	-0.260477
C40	C	1.110494	-0.598915	-0.307496
C41	C	1.063417	-0.622383	-0.354524
C42	C	0.969262	-0.669316	-0.448593
C43	C	0.969245	-0.622395	-0.448583
C44	C	1.016326	-0.598927	-0.401551
C45	C	1.016288	-0.552020	-0.401533
N46	N	1.063370	-0.528550	-0.354509
C47	C	1.110473	-0.551997	-0.307490
C48	C	1.016497	-0.978969	-0.401600
C49	C	1.016517	-1.025886	-0.401606
C50	C	1.110706	-1.025864	-0.307559
C51	C	1.110681	-0.978946	-0.307550
C52	C	1.063579	-0.955499	-0.354576
C53	C	1.110414	-0.453472	-0.307473
C54	C	1.110382	-0.406552	-0.307466
C55	C	1.016196	-0.406578	-0.401515
C56	C	1.016226	-0.453494	-0.401520
C57	C	1.063341	-0.476939	-0.354497
O58	O	0.976232	-0.527727	-0.441481
O59	O	1.150518	-0.527720	-0.267505
C60	C	1.110572	-0.739662	-0.307524
C61	C	1.063495	-0.763129	-0.354552
C62	C	1.016392	-0.739681	-0.401571
C63	C	1.063515	-0.810047	-0.354558
C64	C	1.110618	-0.833495	-0.307539
C65	C	1.157701	-0.810025	-0.260515
C66	C	1.157675	-0.763109	-0.260506
C67	C	0.969309	-0.763151	-0.448595
C68	C	0.969339	-0.810067	-0.448600
C69	C	1.016442	-0.833515	-0.401581
C70	C	1.255354	-0.216461	-0.354525
C71	C	1.337153	-0.216467	-0.354531
C72	C	1.063445	-0.216415	-0.546465
C73	C	1.063463	-0.216402	-0.628264
C74	C	1.063555	-0.099269	-0.354565
C75	C	1.063620	-0.049334	-0.354587
C76	C	1.110597	-0.187633	-0.893339
C77	C	1.110588	-0.187645	-0.816480
C78	C	1.016389	-0.245105	-0.816437
C79	C	1.016402	-0.245095	-0.893295
C80	C	1.063505	-0.216356	-0.931744
C81	C	1.063483	-0.216379	-0.778027
C82	C	1.063473	-0.216392	-0.694694
C83	C	1.063516	-0.216343	-1.015083
C84	C	1.063401	-0.216446	-0.163306
C85	C	1.063525	-0.216333	-0.081507
H86	H	0.633570	-0.164388	-0.440060
H87	H	0.493974	-0.268515	-0.268979
H88	H	0.978139	-0.959881	-0.439895
Br89	Br	1.174506	-0.148664	-0.764362
H90	H	0.494143	-0.164396	-0.440063
H91	H	0.633415	-0.268509	-0.268964
Br92	Br	1.174629	-1.057695	-0.243745
Br93	Br	1.174279	-0.374706	-0.243630
Br94	Br	1.174356	-0.485283	-0.243655
H95	H	1.195935	-0.603259	-0.222182
H96	H	1.195983	-0.688365	-0.222198
Br97	Br	1.174577	-0.947102	-0.243717
Br98	Br	0.952609	-1.057729	-0.465427
Br99	Br	0.905371	-0.701152	-0.512435
H100	H	0.977843	-0.387480	-0.439795
H101	H	0.930890	-0.603306	-0.486880
Br102	Br	1.174519	-0.148629	-0.945517
H103	H	0.977892	-0.472602	-0.439820
Br104	Br	1.221575	-0.731268	-0.196674
H105	H	1.196052	-0.829124	-0.222229
H106	H	0.930953	-0.744064	-0.486884
Br107	Br	0.905435	-0.841910	-0.512434
H108	H	0.978038	-0.268503	-0.785123
Br109	Br	0.952494	-0.284085	-0.945420
