data_functionalizedCrystal
_audit_creation_method	'MofGen! by Chris Wilmer'
_symmetry_space_group_name_H-M	'P1'
_symmetry_Int_Tables_number	1
_symmetry_cell_setting	triclinic
loop_
_symmetry_equiv_pos_as_xyz
  x,y,z
_cell_length_a	33.592126
_cell_length_b	33.591377
_cell_length_c	33.588093
_cell_angle_alpha	60.004089
_cell_angle_beta	60.008299
_cell_angle_gamma	59.994549
loop_
_atom_site_label
_atom_site_type_symbol
_atom_site_fract_x
_atom_site_fract_y
_atom_site_fract_z
O1	O	0.055297	-0.581666	0.486338
O2	O	0.555297	-0.081666	0.986338
O3	O	0.020882	-0.452873	0.391864
O4	O	0.520882	0.047127	0.891864
O5	O	0.102445	-0.534352	0.391775
O6	O	0.602445	-0.034352	0.891775
O7	O	-0.026266	-0.500187	0.486427
O8	O	0.473734	-0.000187	0.986427
O9	O	0.129510	-0.507292	0.418747
O10	O	0.629510	-0.007292	0.918747
O11	O	0.047947	-0.425814	0.418835
O12	O	0.547947	0.074186	0.918835
O13	O	0.082362	-0.554606	0.513309
O14	O	0.582362	-0.054606	1.013309
Cu15	Cu	0.067626	-0.487739	0.468535
Cu16	Cu	0.567626	0.012261	0.968535
Cu17	Cu	0.035618	-0.519740	0.436638
Cu18	Cu	0.535618	-0.019740	0.936638
O19	O	0.000799	-0.473128	0.513398
O20	O	0.500799	0.026872	1.013398
N21	N	0.090139	-0.465235	0.490972
N22	N	0.590139	0.034765	0.990972
N23	N	0.013110	-0.542249	0.414202
N24	N	0.513110	-0.042249	0.914202
C25	C	0.124394	-0.431229	0.734914
C26	C	0.624394	0.068771	1.234914
C27	C	0.334265	-0.431145	0.524799
C28	C	0.834265	0.068855	1.024799
C29	C	0.124204	-0.431200	0.524965
C30	C	0.624204	0.068800	1.024965
C31	C	0.124184	-0.221175	0.524955
C32	C	0.624184	0.278825	1.024955
C33	C	0.158017	-0.322536	0.558710
C34	C	0.658017	0.177464	1.058710
C35	C	0.158027	-0.397406	0.558711
C36	C	0.658027	0.102594	1.058711
C37	C	0.176763	-0.378688	0.577408
C38	C	0.676763	0.121312	1.077408
C39	C	0.258412	-0.364594	0.534386
C40	C	0.758412	0.135406	1.034386
C41	C	0.309454	-0.381596	0.517340
C42	C	0.809454	0.118404	1.017340
C43	C	0.309485	-0.464188	0.548836
C44	C	0.809485	0.035812	1.048836
C45	C	0.258444	-0.447186	0.565883
C46	C	0.758444	0.052814	1.065883
C47	C	0.170304	-0.297002	0.508532
C48	C	0.670304	0.202998	1.008532
C49	C	0.153260	-0.245956	0.491537
C50	C	0.653260	0.254044	0.991537
C51	C	0.111648	-0.245983	0.574901
C52	C	0.611648	0.254017	1.074901
C53	C	0.128691	-0.297029	0.591896
C54	C	0.628691	0.202971	1.091896
C55	C	0.107841	-0.385091	0.571080
C56	C	0.607841	0.114909	1.071080
C57	C	0.090813	-0.402108	0.554078
C58	C	0.590813	0.097892	1.054078
C59	C	0.174153	-0.443755	0.512351
C60	C	0.674153	0.056245	1.012351
C61	C	0.191183	-0.426739	0.529347
C62	C	0.691183	0.073261	1.029347
C63	C	0.107923	-0.385106	0.659111
C64	C	0.607923	0.114894	1.159111
C65	C	0.090955	-0.402138	0.710156
C66	C	0.590955	0.097862	1.210156
C67	C	0.174335	-0.443795	0.710087
C68	C	0.674335	0.056205	1.210087
C69	C	0.191302	-0.426764	0.659041
C70	C	0.691302	0.073236	1.159041
C71	C	0.158095	-0.397418	0.633555
C72	C	0.658095	0.102582	1.133555
C73	C	0.232909	-0.397388	0.558656
C74	C	0.732909	0.102612	1.058656
C75	C	0.105069	-0.449619	0.791057
C76	C	0.605069	0.050381	1.291057
C77	C	0.390406	-0.449193	0.505789
C78	C	0.890406	0.050807	1.005789
C79	C	0.104813	-0.449599	0.506607
C80	C	0.604813	0.050401	1.006607
C81	C	0.105125	-0.165028	0.506915
C82	C	0.605125	0.334972	1.006915
C83	C	-0.020560	-0.576246	0.169890
C84	C	0.479440	-0.076246	0.669890
C85	C	-0.020889	-0.786183	0.379970
C86	C	0.479111	-0.286183	0.879970
C87	C	-0.020859	-0.576235	0.380063
C88	C	0.479141	-0.076235	0.880063
C89	C	-0.230772	-0.576015	0.379658
C90	C	0.269228	-0.076015	0.879658
C91	C	-0.129417	-0.609898	0.346025
C92	C	0.370583	-0.109898	0.846025
C93	C	-0.054587	-0.609979	0.346172
C94	C	0.445413	-0.109979	0.846172
C95	C	-0.073269	-0.628671	0.327396
C96	C	0.426731	-0.128671	0.827396
C97	C	-0.087401	-0.710299	0.370335
C98	C	0.412599	-0.210299	0.870335
C99	C	-0.070424	-0.761345	0.387369
C100	C	0.429576	-0.261345	0.887369
C101	C	0.012165	-0.761428	0.356003
C102	C	0.512165	-0.261428	0.856003
C103	C	-0.004813	-0.710383	0.338967
C104	C	0.495187	-0.210383	0.838967
C105	C	-0.155001	-0.622196	0.396191
C106	C	0.344999	-0.122196	0.896191
C107	C	-0.206043	-0.605128	0.413125
C108	C	0.293957	-0.105128	0.913125
C109	C	-0.205914	-0.563467	0.329724
C110	C	0.294086	-0.063467	0.829724
C111	C	-0.154872	-0.580535	0.312790
C112	C	0.345128	-0.080535	0.812790
C113	C	-0.066886	-0.559797	0.333828
C114	C	0.433114	-0.059797	0.833828
C115	C	-0.049903	-0.542809	0.350903
C116	C	0.450097	-0.042809	0.850903
C117	C	-0.008321	-0.626180	0.392654
C118	C	0.491679	-0.126180	0.892654
C119	C	-0.025304	-0.643170	0.375585
C120	C	0.474696	-0.143170	0.875585
C121	C	-0.066758	-0.559805	0.245702
C122	C	0.433242	-0.059805	0.745702
C123	C	-0.049671	-0.542819	0.194658
C124	C	0.450329	-0.042819	0.694658
C125	C	-0.008026	-0.626194	0.194706
C126	C	0.491974	-0.126194	0.694706
C127	C	-0.025111	-0.643179	0.245752
C128	C	0.474889	-0.143179	0.745752
C129	C	-0.054479	-0.609983	0.271248
C130	C	0.445521	-0.109983	0.771248
C131	C	-0.054597	-0.684821	0.346135
C132	C	0.445403	-0.184821	0.846135
C133	C	-0.002109	-0.556901	0.113746
C134	C	0.497891	-0.056901	0.613746
C135	C	-0.002869	-0.842328	0.398966
C136	C	0.497131	-0.342328	0.898966
C137	C	-0.002496	-0.556887	0.398501
C138	C	0.497504	-0.056887	0.898501
C139	C	-0.286914	-0.556929	0.397631
C140	C	0.213086	-0.056929	0.897631
N141	N	0.436349	-0.465146	0.490703
N142	N	0.936349	0.034854	0.990703
O143	O	0.592194	-0.469605	0.374236
O144	O	1.092194	0.030395	0.874236
O145	O	0.592389	-0.564393	0.502890
O146	O	1.092389	-0.064393	1.002890
O147	O	0.592305	-0.564176	0.421300
O148	O	1.092305	-0.064176	0.921300
O149	O	0.592277	-0.469822	0.455826
O150	O	1.092277	0.030178	0.955826
O151	O	0.511216	-0.537214	0.448415
O152	O	1.011216	-0.037214	0.948415
O153	O	0.511300	-0.537431	0.530004
O154	O	1.011300	-0.037431	1.030004
O155	O	0.511104	-0.442643	0.401350
O156	O	1.011104	0.057357	0.901350
Cu157	Cu	0.503798	-0.487575	0.468153
Cu158	Cu	1.003798	0.012425	0.968153
Cu159	Cu	0.599695	-0.519461	0.436087
Cu160	Cu	1.099695	-0.019461	0.936087
O161	O	0.511188	-0.442860	0.482940
O162	O	1.011188	0.057140	0.982940
N163	N	0.667145	-0.541890	0.413532
N164	N	1.167145	-0.041890	0.913532
N165	N	0.090108	-0.119085	0.490958
N166	N	0.590108	0.380915	0.990958
O167	O	-0.026275	0.036848	0.486394
O168	O	0.473725	0.536848	0.986394
O169	O	0.102381	0.036888	0.391584
O170	O	0.602381	0.536888	0.891584
O171	O	0.020751	0.036852	0.391854
O172	O	0.520751	0.536852	0.891854
O173	O	0.055356	0.036884	0.486124
O174	O	0.555356	0.536884	0.986124
O175	O	0.047821	-0.044242	0.418876
O176	O	0.547821	0.455758	0.918876
O177	O	0.129452	-0.044207	0.418606
O178	O	0.629452	0.455793	0.918606
O179	O	0.000796	-0.044246	0.513417
O180	O	0.500796	0.455754	1.013417
Cu181	Cu	0.067596	-0.051631	0.468479
Cu182	Cu	0.567596	0.448369	0.968479
Cu183	Cu	0.035582	0.044273	0.436522
Cu184	Cu	0.535582	0.544273	0.936522
O185	O	0.082426	-0.044211	0.513146
O186	O	0.582426	0.455789	1.013146
N187	N	0.013063	0.111726	0.414043
N188	N	0.513063	0.611726	0.914043
N189	N	0.090453	-0.465282	0.837001
N190	N	0.590453	0.034718	1.337001
O191	O	0.085913	-0.581648	0.992925
O192	O	0.585913	-0.081648	1.492925
O193	O	-0.008857	-0.452947	0.992970
O194	O	0.491143	0.047053	1.492970
O195	O	-0.008635	-0.534562	0.992946
O196	O	0.491365	-0.034562	1.492946
O197	O	0.085691	-0.500033	0.992949
O198	O	0.585691	-0.000033	1.492949
O199	O	0.018365	-0.507512	0.911855
O200	O	0.518365	-0.007512	1.411855
O201	O	0.018143	-0.425898	0.911878
O202	O	0.518143	0.074102	1.411878
O203	O	0.112912	-0.554598	0.911834
O204	O	0.612912	-0.054598	1.411834
Cu205	Cu	0.067993	-0.487778	0.904452
Cu206	Cu	0.567993	0.012222	1.404452
Cu207	Cu	0.036063	-0.519767	1.000352
Cu208	Cu	0.536063	-0.019767	1.500352
O209	O	0.112691	-0.472984	0.911857
O210	O	0.612691	0.027016	1.411857
N211	N	0.013602	-0.542269	1.067803
N212	N	0.513602	-0.042269	1.567803
C213	C	0.031188	-0.423114	0.392334
C214	C	0.531188	0.076886	0.892334
C215	C	0.132194	-0.524016	0.392223
C216	C	0.632194	-0.024016	0.892223
C217	C	0.072056	-0.584366	0.512840
C218	C	0.572056	-0.084366	1.012840
C219	C	-0.028950	-0.483464	0.512950
C220	C	0.471050	0.016536	1.012950
C221	C	0.551868	-0.563965	0.532655
C222	C	1.051868	-0.063965	1.032655
C223	C	0.551766	-0.563697	0.431617
C224	C	1.051766	-0.063697	0.931617
C225	C	0.551623	-0.443070	0.371586
C226	C	1.051623	0.056930	0.871586
C227	C	0.551728	-0.443339	0.472623
C228	C	1.051728	0.056661	0.972623
C229	C	0.132090	-0.003555	0.392006
C230	C	0.632090	0.496445	0.892006
C231	C	0.031035	-0.003698	0.392374
C232	C	0.531035	0.496302	0.892374
C233	C	-0.028947	-0.003703	0.512961
C234	C	0.471053	0.496297	1.012961
C235	C	0.072143	-0.003661	0.512626
C236	C	0.572143	0.496339	1.012626
C237	C	-0.008408	-0.423209	0.952430
C238	C	0.491592	0.076791	1.452430
C239	C	-0.008128	-0.524272	0.952385
C240	C	0.491872	-0.024272	1.452385
C241	C	0.112464	-0.584336	0.952374
C242	C	0.612464	-0.084336	1.452374
C243	C	0.112190	-0.483267	0.952401
C244	C	0.612190	0.016733	1.452401
H245	H	0.050098	-0.392105	0.730957
H246	H	0.550098	0.107895	1.230957
O247	O	0.148006	-0.628393	0.952271
O248	O	0.648006	-0.128393	1.452271
C249	C	0.189082	-0.621957	0.910275
C250	C	0.689082	-0.121957	1.410275
H251	H	0.177317	-0.586250	0.880931
H252	H	0.677317	-0.086250	1.380931
H253	H	0.216605	-0.620834	0.919770
H254	H	0.716605	-0.120834	1.419770
C255	C	0.227111	-0.708534	0.927257
C256	C	0.727111	-0.208534	1.427257
C257	C	0.212661	-0.664680	0.891214
C258	C	0.712661	-0.164680	1.391214
H259	H	0.241658	-0.734888	0.915499
H260	H	0.741658	-0.234888	1.415499
H261	H	0.199439	-0.712871	0.955551
H262	H	0.699439	-0.212871	1.455551
H263	H	0.250045	-0.707591	0.935166
H264	H	0.750045	-0.207591	1.435166
H265	H	0.189723	-0.665622	0.883310
H266	H	0.689723	-0.165622	1.383310
H267	H	0.240330	-0.660345	0.862917
H268	H	0.740330	-0.160345	1.362917
H269	H	0.169160	-0.531297	0.362501
H270	H	0.669160	-0.031297	0.862501
H271	H	0.079411	-0.621363	0.542512
H272	H	0.579411	-0.121363	1.042512
H273	H	-0.065919	-0.476185	0.542670
H274	H	0.434081	0.023815	1.042670
O275	O	0.551954	-0.599421	0.576755
O276	O	1.051954	-0.099421	1.076755
C277	C	0.551958	-0.581860	0.607096
C278	C	1.051958	-0.081860	1.107096
H279	H	0.567269	-0.550537	0.583648
H280	H	1.067269	-0.050537	1.083648
H281	H	0.513065	-0.568350	0.631750
H282	H	1.013065	-0.068350	1.131750
C283	C	0.565012	-0.661707	0.667410
C284	C	1.065012	-0.161707	1.167410
C285	C	0.583821	-0.623239	0.638610
C286	C	1.083821	-0.123239	1.138610
H287	H	0.584665	-0.687232	0.686851
H288	H	1.084665	-0.187232	1.186851
H289	H	0.565007	-0.673539	0.646970
H290	H	1.065007	-0.173539	1.146970
H291	H	0.532602	-0.650443	0.687950
H292	H	1.032602	-0.150443	1.187950
H293	H	0.616228	-0.634502	0.618066
H294	H	1.116228	-0.134502	1.118066
H295	H	0.583832	-0.611410	0.659048
H296	H	1.083832	-0.111410	1.159048
O297	O	-0.043528	-0.532995	0.952365
O298	O	0.456472	-0.032995	1.452365
C299	C	-0.085601	-0.491115	0.952353
C300	C	0.414399	0.008885	1.452353
H301	H	-0.085201	-0.467844	0.967737
H302	H	0.414799	0.032156	1.467737
H303	H	-0.086173	-0.469095	0.913445
H304	H	0.413827	0.030905	1.413445
C305	C	-0.131815	-0.535133	0.965223
C306	C	0.368185	-0.035133	1.465223
C307	C	-0.131327	-0.506553	0.984121
C308	C	0.368673	-0.006553	1.484121
H309	H	-0.160022	-0.544655	0.984817
H310	H	0.339978	-0.044655	1.484817
H311	H	-0.103470	-0.563348	0.965229
H312	H	0.396530	-0.063348	1.465229
H313	H	-0.132290	-0.516779	0.932800
H314	H	0.367710	-0.016779	1.432800
H315	H	-0.130846	-0.524909	1.016541
H316	H	0.369154	-0.024909	1.516541
H317	H	-0.159673	-0.478341	0.984121
H318	H	0.340327	0.021659	1.484121
H319	H	0.551722	-0.413701	0.480010
H320	H	1.051722	0.086299	0.980010
H321	H	0.551779	-0.593338	0.424228
H322	H	1.051779	-0.093338	0.924228
O323	O	0.176036	-0.003212	0.356346
O324	O	0.676036	0.496788	0.856346
C325	C	0.169345	0.038881	0.315402
C326	C	0.669345	0.538881	0.815402
H327	H	0.130416	0.052716	0.316083
H328	H	0.630416	0.552716	0.816083
H329	H	0.176190	0.068346	0.316344
H330	H	0.676190	0.568346	0.816344
C331	C	0.253194	0.009379	0.267651
C332	C	0.753194	0.509379	0.767651
C333	C	0.205381	0.026368	0.268484
C334	C	0.705381	0.526368	0.768484
H335	H	0.275424	0.001661	0.238709
H336	H	0.775424	0.501661	0.738709
H337	H	0.257703	-0.018980	0.295235
H338	H	0.757703	0.481020	0.795235
H339	H	0.258891	0.033936	0.268437
H340	H	0.758891	0.533936	0.768437
H341	H	0.199683	0.001809	0.267704
H342	H	0.699683	0.501809	0.767704
H343	H	0.200873	0.054722	0.240898
H344	H	0.700873	0.554722	0.740898
O345	O	0.147499	-0.474367	0.952372
O346	O	0.647499	0.025633	1.452372
C347	C	0.129732	-0.426441	0.952399
C348	C	0.629732	0.073559	1.452399
H349	H	0.098422	-0.403371	0.937059
H350	H	0.598422	0.096629	1.437059
H351	H	0.116148	-0.427164	0.991305
H352	H	0.616148	0.072836	1.491305
C353	C	0.209426	-0.432610	0.939433
C354	C	0.709426	0.067390	1.439433
C355	C	0.170973	-0.404274	0.920589
C356	C	0.670973	0.095726	1.420589
H357	H	0.234865	-0.418937	0.919813
H358	H	0.734865	0.081063	1.419813
H359	H	0.221396	-0.464899	0.939417
H360	H	0.721396	0.035101	1.439417
H361	H	0.198099	-0.433210	0.971855
H362	H	0.698099	0.066790	1.471855
H363	H	0.182299	-0.403679	0.888170
H364	H	0.682299	0.096321	1.388170
H365	H	0.159006	-0.371984	0.920598
H366	H	0.659006	0.128016	1.420598
H367	H	0.551560	-0.413310	0.334638
H368	H	1.051560	0.086690	0.834638
O369	O	0.022128	-0.003743	0.357105
O370	O	0.522128	0.496257	0.857105
C371	C	-0.025801	-0.003756	0.374888
C372	C	0.474199	0.496244	0.874888
H373	H	-0.038606	-0.019096	0.416419
H374	H	0.461394	0.480904	0.916419
H375	H	-0.051044	0.035141	0.362555
H376	H	0.448956	0.535141	0.862555
C377	C	-0.011029	-0.016747	0.303859
C378	C	0.488971	0.483253	0.803859
C379	C	-0.026755	-0.035593	0.354869
C380	C	0.473245	0.464407	0.854869
H381	H	-0.011619	-0.036383	0.291509
H382	H	0.488381	0.463617	0.791509
H383	H	0.021261	-0.016737	0.291877
H384	H	0.521261	0.483263	0.791877
H385	H	-0.032067	0.015666	0.293589
H386	H	0.467933	0.515666	0.793589
H387	H	-0.005713	-0.068003	0.365139
H388	H	0.494287	0.431997	0.865139
H389	H	-0.059041	-0.035609	0.366852
H390	H	0.440959	0.464391	0.866852
H391	H	0.118680	-0.317820	0.632757
H392	H	0.618680	0.182180	1.132757
H393	H	0.080878	-0.361206	0.638363
H394	H	0.580878	0.138794	1.138363
H395	H	0.201378	-0.467681	0.730833
H396	H	0.701378	0.032319	1.230833
H397	H	-0.065895	-0.003715	0.542725
H398	H	0.434105	0.496285	1.042725
H399	H	0.049948	-0.392069	0.564138
H400	H	0.549948	0.107931	1.064138
O401	O	0.081071	-0.003682	0.547918
O402	O	0.581071	0.496318	1.047918
C403	C	0.128995	-0.003655	0.530130
C404	C	0.628995	0.496345	1.030130
H405	H	0.152044	-0.018998	0.498825
H406	H	0.652044	0.481002	0.998825
H407	H	0.128266	0.035253	0.516532
H408	H	0.628266	0.535253	1.016532
C409	C	0.122887	-0.016615	0.609808
C410	C	0.622887	0.483385	1.109808
C411	C	0.151196	-0.035463	0.571360
C412	C	0.651196	0.464537	1.071360
H413	H	0.136581	-0.036234	0.635240
H414	H	0.636581	0.463766	1.135240
H415	H	0.090599	-0.016631	0.621791
H416	H	0.590599	0.483369	1.121791
H417	H	0.122281	0.015808	0.598469
H418	H	0.622281	0.515808	1.098469
H419	H	0.151796	-0.067883	0.582698
H420	H	0.651796	0.432117	1.082698
H421	H	0.183485	-0.035453	0.559379
H422	H	0.683485	0.464547	1.059379
H423	H	-0.038161	-0.386246	0.952443
H424	H	0.461839	0.113754	1.452443
H425	H	0.232159	-0.436796	0.638236
H426	H	0.732159	0.063204	1.138236
H427	H	0.201155	-0.467643	0.488446
H428	H	0.701155	0.032357	0.988446
O429	O	0.075567	-0.356584	0.599579
O430	O	0.575567	0.143416	1.099579
C431	C	0.027621	-0.349371	0.606855
C432	C	0.527621	0.150629	1.106855
H433	H	0.027685	-0.355067	0.576088
H434	H	0.527685	0.144933	1.076088
H435	H	0.013028	-0.376551	0.643218
H436	H	0.513028	0.123449	1.143218
C437	C	-0.005207	-0.290088	0.645032
C438	C	0.494793	0.209912	1.145032
C439	C	-0.005129	-0.297079	0.607241
C440	C	0.494871	0.202921	1.107241
H441	H	-0.025410	-0.257833	0.645272
H442	H	0.474590	0.242167	1.145272
H443	H	0.027095	-0.294948	0.640132
H444	H	0.527095	0.205052	1.140132
H445	H	-0.017367	-0.312741	0.675330
H446	H	0.482633	0.187259	1.175330
H447	H	0.007036	-0.274431	0.576943
H448	H	0.507036	0.225569	1.076943
H449	H	-0.037429	-0.292214	0.612136
H450	H	0.462571	0.207786	1.112136
O451	O	0.233744	-0.479106	0.589429
O452	O	0.733744	0.020894	1.089429
C453	C	0.267230	-0.526705	0.592158
C454	C	0.767230	-0.026705	1.092158
H455	H	0.303597	-0.524753	0.561992
H456	H	0.803597	-0.024753	1.061992
H457	H	0.272694	-0.546193	0.629137
H458	H	0.772694	-0.046193	1.129137
C459	C	0.202632	-0.557410	0.622986
C460	C	0.702632	-0.057410	1.122986
C461	C	0.247298	-0.555012	0.585933
C462	C	0.747298	-0.055012	1.085933
H463	H	0.190337	-0.574873	0.619149
H464	H	0.690337	-0.074873	1.119149
H465	H	0.180072	-0.525343	0.621149
H466	H	0.680072	-0.025343	1.121149
H467	H	0.207192	-0.573649	0.653798
H468	H	0.707192	-0.073649	1.153798
H469	H	0.242736	-0.538768	0.555122
H470	H	0.742736	-0.038768	1.055122
H471	H	0.269857	-0.587078	0.587765
H472	H	0.769857	-0.087078	1.087765
O473	O	0.022330	-0.378959	0.356978
O474	O	0.522330	0.121041	0.856978
C475	C	-0.025583	-0.348718	0.374684
C476	C	0.474417	0.151282	0.874684
H477	H	-0.048681	-0.372253	0.406003
H478	H	0.451319	0.127747	0.906003
H479	H	-0.024845	-0.324105	0.388239
H480	H	0.475155	0.175895	0.888239
C481	C	-0.019347	-0.288238	0.294940
C482	C	0.480653	0.211762	0.794940
C483	C	-0.047717	-0.317143	0.333404
C484	C	0.452283	0.182857	0.833404
H485	H	-0.033000	-0.268759	0.269477
H486	H	0.467000	0.231241	0.769477
H487	H	0.012934	-0.308611	0.283012
H488	H	0.512934	0.191389	0.783012
H489	H	-0.018734	-0.267731	0.306243
H490	H	0.481266	0.232269	0.806243
H491	H	-0.048325	-0.337654	0.322103
H492	H	0.451675	0.162346	0.822103
H493	H	-0.079999	-0.296773	0.345330
H494	H	0.420001	0.203227	0.845330
H495	H	0.330277	-0.504737	0.554712
H496	H	0.830277	-0.004737	1.054712
O497	O	0.239943	-0.438665	0.517245
O498	O	0.739943	0.061335	1.017245
C499	C	0.261087	-0.421170	0.466116
C500	C	0.761087	0.078830	0.966116
H501	H	0.236867	-0.416184	0.448280
H502	H	0.736867	0.083816	0.948280
H503	H	0.264849	-0.384679	0.454575
H504	H	0.764849	0.115321	0.954575
C505	C	0.341564	-0.464215	0.471858
C506	C	0.841564	0.035785	0.971858
C507	C	0.311819	-0.458094	0.449951
C508	C	0.811819	0.041906	0.949951
H509	H	0.372859	-0.486989	0.461886
H510	H	0.872859	0.013011	0.961886
H511	H	0.327320	-0.476000	0.506305
H512	H	0.827320	0.024000	1.006305
H513	H	0.344694	-0.433802	0.462239
H514	H	0.844694	0.066198	0.962239
H515	H	0.308685	-0.488505	0.459576
H516	H	0.808685	0.011495	0.959576
H517	H	0.326064	-0.446315	0.415506
H518	H	0.826064	0.053685	0.915506
O519	O	0.334206	-0.349709	0.493690
O520	O	0.834206	0.150291	0.993690
C521	C	0.321682	-0.315050	0.451631
C522	C	0.821682	0.184950	0.951631
H523	H	0.307638	-0.330783	0.439916
H524	H	0.807638	0.169217	0.939916
H525	H	0.292051	-0.280647	0.459991
H526	H	0.792051	0.219353	0.959991
C527	C	0.384248	-0.283088	0.424607
C528	C	0.884248	0.216912	0.924607
C529	C	0.367003	-0.302414	0.410216
C530	C	0.867003	0.197586	0.910216
H531	H	0.412203	-0.275291	0.399061
H532	H	0.912203	0.224709	0.899061
H533	H	0.392685	-0.306437	0.452944
H534	H	0.892685	0.193563	0.952944
H535	H	0.359552	-0.254421	0.431574
H536	H	0.859552	0.245579	0.931574
H537	H	0.391697	-0.331083	0.403256
H538	H	0.891697	0.168917	0.903256
H539	H	0.358571	-0.279069	0.381877
H540	H	0.858571	0.220931	0.881877
O541	O	0.165255	-0.221224	0.442776
O542	O	0.665255	0.278776	0.942776
C543	C	0.194782	-0.254684	0.417130
C544	C	0.694782	0.245316	0.917130
H545	H	0.213370	-0.291071	0.441454
H546	H	0.713370	0.208929	0.941454
H547	H	0.171219	-0.260117	0.406147
H548	H	0.671219	0.239883	0.906147
C549	C	0.210928	-0.190047	0.341221
C550	C	0.710928	0.309953	0.841221
C551	C	0.233761	-0.234738	0.371095
C552	C	0.733761	0.265262	0.871095
H553	H	0.234971	-0.177744	0.312823
H554	H	0.734971	0.322256	0.812823
H555	H	0.191033	-0.167504	0.358498
H556	H	0.691033	0.332496	0.858498
H557	H	0.191293	-0.194581	0.332073
H558	H	0.691293	0.305419	0.832073
H559	H	0.253391	-0.230203	0.380247
H560	H	0.753391	0.269797	0.880247
H561	H	0.253660	-0.257280	0.353818
H562	H	0.753660	0.242720	0.853818
O563	O	0.083153	-0.221278	0.607201
O564	O	0.583153	0.278722	1.107201
C565	C	0.075983	-0.254762	0.655136
C566	C	0.575983	0.245238	1.155136
H567	H	0.081691	-0.291150	0.655047
H568	H	0.581691	0.208850	1.155047
H569	H	0.103174	-0.260181	0.669727
H570	H	0.603174	0.239819	1.169727
C571	C	0.016696	-0.190169	0.688019
C572	C	0.516696	0.309831	1.188019
C573	C	0.023703	-0.234861	0.687909
C574	C	0.523703	0.265139	1.187909
H575	H	-0.015552	-0.177893	0.708236
H576	H	0.484448	0.322107	1.208236
H577	H	0.021528	-0.167610	0.655724
H578	H	0.521528	0.332390	1.155724
H579	H	0.039359	-0.194691	0.700177
H580	H	0.539359	0.305309	1.200177
H581	H	0.001044	-0.230337	0.675746
H582	H	0.501044	0.269663	1.175746
H583	H	0.018866	-0.257419	0.720203
H584	H	0.518866	0.242581	1.220203
H585	H	0.237625	-0.324046	0.528499
H586	H	0.737625	0.175954	1.028499
H587	H	-0.059677	-0.501957	0.173865
H588	H	0.440323	-0.001957	0.673865
O589	O	-0.095254	-0.527490	0.270394
O590	O	0.404746	-0.027490	0.770394
C591	C	-0.102437	-0.479558	0.236901
C592	C	0.397563	0.020442	0.736901
H593	H	-0.071630	-0.479686	0.200544
H594	H	0.428370	0.020314	0.700544
H595	H	-0.138777	-0.464894	0.231411
H596	H	0.361223	0.035106	0.731411
C597	C	-0.140644	-0.446676	0.301498
C598	C	0.359356	0.053324	0.801498
C599	C	-0.102805	-0.446833	0.256845
C600	C	0.397195	0.053167	0.756845
H601	H	-0.140874	-0.426489	0.313801
H602	H	0.359126	0.073511	0.813801
H603	H	-0.135807	-0.478969	0.324064
H604	H	0.364193	0.021031	0.824064
H605	H	-0.170924	-0.434458	0.296917
H606	H	0.329076	0.065542	0.796917
H607	H	-0.072526	-0.459057	0.261429
H608	H	0.427474	0.040943	0.761429
H609	H	-0.107637	-0.414542	0.234281
H610	H	0.392363	0.085458	0.734281
H611	H	0.015877	-0.653227	0.173952
H612	H	0.515877	-0.153227	0.673952
O613	O	-0.013155	-0.691941	0.270490
O614	O	0.486845	-0.191941	0.770490
C615	C	0.016434	-0.717595	0.237039
C616	C	0.516434	-0.217595	0.737039
H617	H	0.009980	-0.693251	0.200622
H618	H	0.509980	-0.193251	0.700622
H619	H	0.056404	-0.728642	0.231680
H620	H	0.556404	-0.228642	0.731680
C621	C	0.011410	-0.793480	0.301658
C622	C	0.511410	-0.293480	0.801658
C623	C	0.003479	-0.763581	0.256931
C624	C	0.503479	-0.263581	0.756931
H625	H	0.003421	-0.821847	0.313928
H626	H	0.503421	-0.321847	0.813928
H627	H	-0.008524	-0.776197	0.324195
H628	H	0.491476	-0.276197	0.824195
H629	H	0.044718	-0.802680	0.297186
H630	H	0.544718	-0.302680	0.797186
H631	H	-0.029829	-0.754376	0.261404
H632	H	0.470171	-0.254376	0.761404
H633	H	0.023407	-0.780864	0.234394
H634	H	0.523407	-0.280864	0.734394
H635	H	-0.090726	-0.532768	0.309877
H636	H	0.409274	-0.032768	0.809877
O637	O	-0.061818	-0.494079	0.338978
O638	O	0.438182	0.005921	0.838978
C639	C	-0.040539	-0.486203	0.360344
C640	C	0.459461	0.013797	0.860344
H641	H	-0.032902	-0.519694	0.393139
H642	H	0.467098	-0.019694	0.893139
H643	H	-0.004906	-0.479444	0.332474
H644	H	0.495094	0.020556	0.832474
C645	C	-0.085124	-0.400354	0.336755
C646	C	0.414876	0.099646	0.836755
C647	C	-0.075748	-0.441487	0.377036
C648	C	0.424252	0.058513	0.877036
H649	H	-0.106842	-0.372769	0.347049
H650	H	0.393158	0.127231	0.847049
H651	H	-0.099460	-0.405659	0.322358
H652	H	0.400540	0.094341	0.822358
H653	H	-0.055427	-0.394728	0.313533
H654	H	0.444573	0.105272	0.813533
H655	H	-0.105444	-0.447115	0.400254
H656	H	0.394556	0.052885	0.900254
H657	H	-0.061419	-0.436181	0.391437
H658	H	0.438581	0.063819	0.891437
O659	O	0.020176	-0.658470	0.421165
O660	O	0.520176	-0.158470	0.921165
C661	C	0.063005	-0.688010	0.395436
C662	C	0.563005	-0.188010	0.895436
H663	H	0.056204	-0.688502	0.365684
H664	H	0.556204	-0.188502	0.865684
H665	H	0.093718	-0.672697	0.378167
H666	H	0.593718	-0.172697	0.878167
C667	C	0.085839	-0.739694	0.467387
C668	C	0.585839	-0.239694	0.967387
C669	C	0.077485	-0.740302	0.430849
C670	C	0.577485	-0.240302	0.930849
H671	H	0.094773	-0.771950	0.489231
H672	H	0.594773	-0.271950	0.989231
H673	H	0.056985	-0.719792	0.484722
H674	H	0.556985	-0.219792	0.984722
H675	H	0.111432	-0.726930	0.452991
H676	H	0.611432	-0.226930	0.952991
H677	H	0.051889	-0.753060	0.445245
H678	H	0.551889	-0.253060	0.945245
H679	H	0.106335	-0.760208	0.413518
H680	H	0.606335	-0.260208	0.913518
O681	O	0.027110	-0.685685	0.315410
O682	O	0.527110	-0.185685	0.815410
C683	C	0.061795	-0.698182	0.273348
C684	C	0.561795	-0.198182	0.773348
H685	H	0.064188	-0.735235	0.277948
H686	H	0.564188	-0.235235	0.777948
H687	H	0.050312	-0.669453	0.240249
H688	H	0.550312	-0.169453	0.740249
C689	C	0.109022	-0.655080	0.260247
C690	C	0.609022	-0.155080	0.760247
C691	C	0.111965	-0.700592	0.265899
C692	C	0.611965	-0.200592	0.765899
H693	H	0.139969	-0.656565	0.255650
H694	H	0.639969	-0.156565	0.755650
H695	H	0.085653	-0.646659	0.288584
H696	H	0.585653	-0.146659	0.788584
H697	H	0.099451	-0.631144	0.232665
H698	H	0.599451	-0.131144	0.732665
H699	H	0.121529	-0.724526	0.293483
H700	H	0.621529	-0.224526	0.793483
H701	H	0.135336	-0.709017	0.237566
H702	H	0.635336	-0.209017	0.737566
H703	H	-0.015291	-0.684031	0.385637
H704	H	0.484709	-0.184031	0.885637
O705	O	0.060506	-0.786338	0.349104
O706	O	0.560506	-0.286338	0.849104
C707	C	0.068457	-0.836855	0.369318
C708	C	0.568457	-0.336855	0.869318
H709	H	0.033305	-0.843787	0.398530
H710	H	0.533305	-0.343787	0.898530
H711	H	0.080254	-0.851349	0.339432
H712	H	0.580254	-0.351349	0.839432
C713	C	0.151867	-0.854582	0.356431
C714	C	0.651867	-0.354582	0.856431
C715	C	0.108693	-0.863096	0.392313
C716	C	0.608693	-0.363096	0.892313
H717	H	0.176688	-0.870769	0.370613
H718	H	0.676688	-0.370769	0.870613
H719	H	0.146511	-0.820547	0.342811
H720	H	0.646511	-0.320547	0.842811
H721	H	0.161692	-0.866660	0.331529
H722	H	0.661692	-0.366660	0.831529
H723	H	0.098867	-0.851012	0.417211
H724	H	0.598867	-0.351012	0.917211
H725	H	0.114049	-0.897129	0.405938
H726	H	0.614049	-0.397129	0.905938
H727	H	-0.097137	-0.782089	0.407066
H728	H	0.402863	-0.282089	0.907066
O729	O	-0.135770	-0.685546	0.377304
O730	O	0.364230	-0.185546	0.877304
C731	C	-0.161082	-0.718984	0.402320
C732	C	0.338918	-0.218984	0.902320
H733	H	-0.134885	-0.755389	0.396470
H734	H	0.365115	-0.255389	0.896470
H735	H	-0.177015	-0.724383	0.442929
H736	H	0.322985	-0.224383	0.942929
C737	C	-0.234773	-0.654325	0.389876
C738	C	0.265227	-0.154325	0.889876
C739	C	-0.202598	-0.699037	0.382688
C740	C	0.297402	-0.199037	0.882688
H741	H	-0.260384	-0.642021	0.377769
H742	H	0.239616	-0.142021	0.877769
H743	H	-0.217721	-0.631796	0.373024
H744	H	0.282279	-0.131796	0.873024
H745	H	-0.248045	-0.658830	0.423718
H746	H	0.251955	-0.158830	0.923718
H747	H	-0.189322	-0.694530	0.348847
H748	H	0.310678	-0.194530	0.848847
H749	H	-0.219649	-0.721565	0.399534
H750	H	0.280351	-0.221565	0.899534
H751	H	-0.134277	-0.646110	0.423254
H752	H	0.365723	-0.146110	0.923254
O753	O	-0.230879	-0.617158	0.461863
O754	O	0.269121	-0.117158	0.961863
C755	C	-0.218442	-0.668281	0.483076
C756	C	0.281558	-0.168281	0.983076
H757	H	-0.204372	-0.684743	0.454006
H758	H	0.295628	-0.184743	0.954006
H759	H	-0.188858	-0.683427	0.499257
H760	H	0.311142	-0.183427	0.999257
C761	C	-0.281110	-0.661213	0.559362
C762	C	0.218890	-0.161213	1.059362
C763	C	-0.263832	-0.681430	0.523659
C764	C	0.236168	-0.181430	1.023659
H765	H	-0.309107	-0.669324	0.584397
H766	H	0.190893	-0.169324	1.084397
H767	H	-0.289488	-0.626770	0.545072
H768	H	0.210512	-0.126770	1.045072
H769	H	-0.256452	-0.673836	0.572841
H770	H	0.243548	-0.173836	1.072841
H771	H	-0.288488	-0.668803	0.510177
H772	H	0.211512	-0.168803	1.010177
H773	H	-0.255459	-0.715872	0.537948
H774	H	0.244541	-0.215872	1.037948
O775	O	-0.230568	-0.534937	0.297376
O776	O	0.269432	-0.034937	0.797376
C777	C	-0.197041	-0.527762	0.249464
C778	C	0.302959	-0.027762	0.749464
H779	H	-0.160672	-0.533501	0.249618
H780	H	0.339328	-0.033501	0.749618
H781	H	-0.191602	-0.554932	0.234835
H782	H	0.308398	-0.054932	0.734835
C783	C	-0.261564	-0.468419	0.216492
C784	C	0.238436	0.031581	0.716492
C785	C	-0.216896	-0.475464	0.216681
C786	C	0.283104	0.024536	0.716681
H787	H	-0.273812	-0.436160	0.196269
H788	H	0.226188	0.063840	0.696269
H789	H	-0.284153	-0.473254	0.248771
H790	H	0.215847	0.026746	0.748771
H791	H	-0.257026	-0.491064	0.204302
H792	H	0.242974	0.008936	0.704302
H793	H	-0.221436	-0.452823	0.228876
H794	H	0.278564	0.047177	0.728876
H795	H	-0.194309	-0.470623	0.184404
H796	H	0.305691	0.029377	0.684404
H797	H	-0.134040	-0.570516	0.271939
H798	H	0.365960	-0.070516	0.771939
H799	H	0.194180	-0.317769	0.481510
H800	H	0.694180	0.182231	0.981510
