data_functionalizedCrystal
_audit_creation_method	'MofGen! by Chris Wilmer'
_symmetry_space_group_name_H-M	'P1'
_symmetry_Int_Tables_number	1
_symmetry_cell_setting	triclinic
loop_
_symmetry_equiv_pos_as_xyz
  x,y,z
_cell_length_a	10.654545
_cell_length_b	16.109301
_cell_length_c	9.730223
_cell_angle_alpha	89.994178
_cell_angle_beta	89.997167
_cell_angle_gamma	83.972280
loop_
_atom_site_label
_atom_site_type_symbol
_atom_site_fract_x
_atom_site_fract_y
_atom_site_fract_z
O1	O	1.666258	0.116756	-0.114281
O2	O	2.166258	0.616756	0.385719
O3	O	1.300628	0.127885	-0.114287
O4	O	1.800628	0.627885	0.385713
O5	O	1.493487	0.001349	-0.114270
O6	O	1.993487	0.501349	0.385730
O7	O	1.473399	0.243292	-0.114298
O8	O	1.973399	0.743292	0.385702
O9	O	1.493475	0.001346	0.114310
O10	O	1.993475	0.501346	0.614310
O11	O	1.300616	0.127882	0.114293
O12	O	1.800616	0.627882	0.614293
O13	O	1.666246	0.116752	0.114299
O14	O	2.166246	0.616752	0.614299
Zn15	Zn	1.483429	0.122317	0.150588
Zn16	Zn	1.983429	0.622317	0.650588
Zn17	Zn	1.483445	0.122321	-0.150576
Zn18	Zn	1.983445	0.622321	0.349424
O19	O	1.473387	0.243289	0.114282
O20	O	1.973387	0.743289	0.614282
C21	C	1.253835	0.127067	0.000002
C22	C	1.753835	0.627067	0.500002
C23	C	1.114425	0.124625	0.000000
C24	C	1.614425	0.624625	0.500000
C25	C	1.048929	0.123473	0.124600
C26	C	1.548929	0.623473	0.624600
C27	C	0.917941	0.121164	0.124600
C28	C	1.417941	0.621164	0.624600
C29	C	0.917955	0.121162	-0.124610
C30	C	1.417955	0.621162	0.375390
C31	C	1.048942	0.123465	-0.124609
C32	C	1.548942	0.623465	0.375391
C33	C	1.492668	-0.029632	0.000021
C34	C	1.992668	0.470368	0.500021
C35	C	1.490228	-0.121942	0.000023
C36	C	1.990228	0.378058	0.500023
C37	C	1.598994	-0.343569	0.000003
C38	C	2.098994	0.156431	0.500003
C39	C	1.596692	-0.430303	-0.000009
C40	C	2.096692	0.069697	0.499991
C41	C	1.367871	-0.411787	-0.000007
C42	C	1.867871	0.088213	0.499993
C43	C	1.370175	-0.325054	-0.000006
C44	C	1.870175	0.174946	0.499994
C45	C	1.485740	-0.290948	0.000006
C46	C	1.985740	0.209052	0.500006
C47	C	1.481134	-0.464414	-0.000007
C48	C	1.981134	0.035586	0.499993
C49	C	1.478638	-0.558455	-0.000019
C50	C	1.978638	-0.058455	0.499981
C51	C	1.488237	-0.196901	0.000016
C52	C	1.988237	0.303099	0.500016
C53	C	1.713039	0.117571	0.000007
C54	C	2.213039	0.617571	0.500007
C55	C	1.852450	0.120013	-0.000001
C56	C	2.352450	0.620013	0.499999
N57	N	1.483427	0.122313	0.356124
N58	N	1.983427	0.622313	0.856124
C59	C	1.474207	0.274270	-0.000012
C60	C	1.974207	0.774270	0.499988
C61	C	1.476646	0.366580	-0.000023
C62	C	1.976646	0.866580	0.499977
N63	N	1.483457	0.122318	-0.356113
N64	N	1.983457	0.622318	0.143887
C65	C	1.568854	0.066307	0.428058
C66	C	2.068854	0.566307	0.928058
C67	C	1.568866	0.066307	0.571941
C68	C	2.068866	0.566307	1.071941
C69	C	1.398021	0.178327	0.571944
C70	C	1.898021	0.678327	1.071944
C71	C	1.398004	0.178322	0.428063
C72	C	1.898004	0.678322	0.928063
H73	H	0.864623	0.120219	-0.226062
H74	H	1.364623	0.620219	0.273938
H75	H	0.864620	0.120227	0.226062
H76	H	1.364620	0.620227	0.726062
H77	H	1.102270	0.124401	-0.226079
H78	H	1.602270	0.624401	0.273921
Br79	Br	1.755832	-0.297284	0.000020
Br80	Br	2.255832	0.202716	0.500020
H81	H	1.638427	0.020701	0.630505
H82	H	2.138427	0.520701	1.130505
Br83	Br	1.750402	-0.501715	-0.000022
Br84	Br	2.250402	-0.001715	0.499978
H85	H	1.273782	-0.439567	-0.000014
H86	H	1.773782	0.060433	0.499986
Br87	Br	1.216461	-0.253633	-0.000019
Br88	Br	1.716461	0.246367	0.499981
Br89	Br	1.684783	-0.009707	0.330431
Br90	Br	2.184783	0.490293	0.830431
Br91	Br	1.282096	0.254339	0.669580
Br92	Br	1.782096	0.754339	1.169580
H93	H	1.328433	0.223930	0.369491
H94	H	1.828433	0.723930	0.869491
H95	H	1.102241	0.124417	0.226065
H96	H	1.602241	0.624417	0.726065
