data_functionalizedCrystal
_audit_creation_method	'MofGen! by Chris Wilmer'
_symmetry_space_group_name_H-M	'P1'
_symmetry_Int_Tables_number	1
_symmetry_cell_setting	triclinic
loop_
_symmetry_equiv_pos_as_xyz
  x,y,z
_cell_length_a	27.731994
_cell_length_b	27.731993
_cell_length_c	26.809956
_cell_angle_alpha	90.002784
_cell_angle_beta	89.987196
_cell_angle_gamma	97.379399
loop_
_atom_site_label
_atom_site_type_symbol
_atom_site_fract_x
_atom_site_fract_y
_atom_site_fract_z
O1	O	-0.057386	0.640937	-0.041337
O2	O	0.192614	0.890937	0.208663
O3	O	0.442614	1.140937	0.458663
O4	O	0.692614	1.390937	0.708663
O5	O	-0.066159	0.500138	-0.041366
O6	O	0.183841	0.750138	0.208634
O7	O	0.433841	1.000138	0.458634
O8	O	0.683841	1.250138	0.708634
O9	O	0.008627	0.574924	-0.041358
O10	O	0.258627	0.824924	0.208642
O11	O	0.508627	1.074924	0.458642
O12	O	0.758627	1.324924	0.708642
O13	O	-0.132172	0.566151	-0.041345
O14	O	0.117828	0.816151	0.208655
O15	O	0.367828	1.066151	0.458655
O16	O	0.617828	1.316151	0.708655
O17	O	0.008615	0.574910	0.041601
O18	O	0.258615	0.824910	0.291601
O19	O	0.508615	1.074910	0.541601
O20	O	0.758615	1.324910	0.791601
O21	O	-0.066171	0.500124	0.041593
O22	O	0.183829	0.750124	0.291593
O23	O	0.433829	1.000124	0.541593
O24	O	0.683829	1.250124	0.791593
O25	O	-0.057398	0.640923	0.041622
O26	O	0.192602	0.890923	0.291622
O27	O	0.442602	1.140923	0.541622
O28	O	0.692602	1.390923	0.791622
Zn29	Zn	-0.061786	0.570521	0.054779
Zn30	Zn	0.188214	0.820521	0.304779
Zn31	Zn	0.438214	1.070521	0.554779
Zn32	Zn	0.688214	1.320521	0.804779
Zn33	Zn	-0.061771	0.570540	-0.054523
Zn34	Zn	0.188229	0.820540	0.195477
Zn35	Zn	0.438229	1.070540	0.445477
Zn36	Zn	0.688229	1.320540	0.695477
O37	O	-0.132184	0.566137	0.041615
O38	O	0.117816	0.816137	0.291615
O39	O	0.367816	1.066137	0.541615
O40	O	0.617816	1.316137	0.791615
C41	C	-0.065985	0.482124	0.000110
C42	C	0.184015	0.732124	0.250110
C43	C	0.434015	0.982124	0.500110
C44	C	0.684015	1.232124	0.750110
C45	C	-0.065443	0.428468	0.000098
C46	C	0.184557	0.678468	0.250098
C47	C	0.434557	0.928468	0.500098
C48	C	0.684557	1.178468	0.750098
C49	C	-0.061506	0.045316	-0.045099
C50	C	0.188494	0.295316	0.204901
C51	C	0.438494	0.545316	0.454901
C52	C	0.688494	0.795316	0.704901
C53	C	-0.063573	0.246973	-0.045112
C54	C	0.186427	0.496973	0.204888
C55	C	0.436427	0.746973	0.454888
C56	C	0.686427	0.996973	0.704888
O57	O	-0.063815	0.273053	-0.083572
O58	O	0.186185	0.523053	0.166428
O59	O	0.436185	0.773053	0.416428
O60	O	0.686185	1.023053	0.666428
N61	N	-0.063838	0.272186	0.000108
N62	N	0.186162	0.522186	0.250108
N63	N	0.436162	0.772186	0.500108
N64	N	0.686162	1.022186	0.750108
C65	C	-0.063583	0.246981	0.045334
C66	C	0.186417	0.496981	0.295334
C67	C	0.436417	0.746981	0.545334
C68	C	0.686417	0.996981	0.795334
O69	O	-0.063850	0.273054	0.083797
O70	O	0.186150	0.523054	0.333797
O71	O	0.436150	0.773054	0.583797
O72	O	0.686150	1.023054	0.833797
C73	C	-0.061512	0.045326	0.045347
C74	C	0.188488	0.295326	0.295347
C75	C	0.438488	0.545326	0.545347
C76	C	0.688488	0.795326	0.795347
C77	C	-0.061252	0.020115	0.000124
C78	C	0.188748	0.270115	0.250124
C79	C	0.438748	0.520115	0.500124
C80	C	0.688748	0.770115	0.750124
C81	C	-0.061245	0.020105	-0.090318
C82	C	0.188755	0.270105	0.159682
C83	C	0.438755	0.520105	0.409682
C84	C	0.688755	0.770105	0.659682
C85	C	-0.060731	-0.030306	-0.090315
C86	C	0.189269	0.219694	0.159685
C87	C	0.439269	0.469694	0.409685
C88	C	0.689269	0.719694	0.659685
C89	C	-0.060478	-0.055507	-0.045091
C90	C	0.189522	0.194493	0.204909
C91	C	0.439522	0.444493	0.454909
C92	C	0.689522	0.694493	0.704909
C93	C	-0.060738	-0.030297	0.000128
C94	C	0.189262	0.219703	0.250128
C95	C	0.439262	0.469703	0.500128
C96	C	0.689262	0.719703	0.750128
C97	C	-0.061253	0.020123	0.090573
C98	C	0.188747	0.270123	0.340573
C99	C	0.438747	0.520123	0.590573
C100	C	0.688747	0.770123	0.840573
C101	C	-0.060735	-0.030294	0.090572
C102	C	0.189265	0.219706	0.340572
C103	C	0.439265	0.469706	0.590572
C104	C	0.689265	0.719706	0.840572
C105	C	-0.060475	-0.055505	0.045349
C106	C	0.189525	0.194495	0.295349
C107	C	0.439525	0.444495	0.545349
C108	C	0.689525	0.694495	0.795349
C109	C	-0.059970	-0.105909	0.045355
C110	C	0.190030	0.144091	0.295355
C111	C	0.440030	0.394091	0.545355
C112	C	0.690030	0.644091	0.795355
N113	N	-0.059705	-0.131122	0.000135
N114	N	0.190295	0.118878	0.250135
N115	N	0.440295	0.368878	0.500135
N116	N	0.690295	0.618878	0.750135
C117	C	-0.059959	-0.105921	-0.045088
C118	C	0.190041	0.144079	0.204912
C119	C	0.440041	0.394079	0.454912
C120	C	0.690041	0.644079	0.704912
C121	C	-0.064671	0.352853	0.045324
C122	C	0.185329	0.602853	0.295324
C123	C	0.435329	0.852853	0.545324
C124	C	0.685329	1.102853	0.795324
C125	C	-0.065189	0.403267	0.045321
C126	C	0.184811	0.653267	0.295321
C127	C	0.434811	0.903267	0.545321
C128	C	0.684811	1.153267	0.795321
C129	C	-0.065178	0.403255	-0.045126
C130	C	0.184822	0.653255	0.204874
C131	C	0.434822	0.903255	0.454874
C132	C	0.684822	1.153255	0.704874
C133	C	-0.064663	0.352840	-0.045122
C134	C	0.185337	0.602840	0.204878
C135	C	0.435337	0.852840	0.454878
C136	C	0.685337	1.102840	0.704878
C137	C	-0.064406	0.327641	0.000104
C138	C	0.185594	0.577641	0.250104
C139	C	0.435594	0.827641	0.500104
C140	C	0.685594	1.077641	0.750104
C141	C	-0.058880	-0.211789	-0.045077
C142	C	0.191120	0.038211	0.204923
C143	C	0.441120	0.288211	0.454923
C144	C	0.691120	0.538211	0.704923
C145	C	-0.058368	-0.262205	-0.045069
C146	C	0.191632	-0.012205	0.204931
C147	C	0.441632	0.237795	0.454931
C148	C	0.691632	0.487795	0.704931
C149	C	-0.058376	-0.262189	0.045377
C150	C	0.191624	-0.012189	0.295377
C151	C	0.441624	0.237811	0.545377
C152	C	0.691624	0.487811	0.795377
C153	C	-0.058891	-0.211777	0.045370
C154	C	0.191109	0.038223	0.295370
C155	C	0.441109	0.288223	0.545370
C156	C	0.691109	0.538223	0.795370
C157	C	-0.059141	-0.186578	0.000139
C158	C	0.190859	0.063422	0.250139
C159	C	0.440859	0.313422	0.500139
C160	C	0.690859	0.563422	0.750139
O161	O	-0.059722	-0.132019	0.083794
O162	O	0.190278	0.117981	0.333794
O163	O	0.440278	0.367981	0.583794
O164	O	0.690278	0.617981	0.833794
O165	O	-0.059681	-0.132001	-0.083545
O166	O	0.190319	0.117999	0.166455
O167	O	0.440319	0.367999	0.416455
O168	O	0.690319	0.617999	0.666455
C169	C	-0.062020	0.095728	-0.045103
C170	C	0.187980	0.345728	0.204897
C171	C	0.437980	0.595728	0.454897
C172	C	0.687980	0.845728	0.704897
C173	C	-0.062280	0.120938	0.000117
C174	C	0.187720	0.370938	0.250117
C175	C	0.437720	0.620938	0.500117
C176	C	0.687720	0.870938	0.750117
C177	C	-0.062027	0.095737	0.045340
C178	C	0.187973	0.345737	0.295340
C179	C	0.437973	0.595737	0.545340
C180	C	0.687973	0.845737	0.795340
C181	C	-0.062799	0.171352	0.000113
C182	C	0.187201	0.421352	0.250113
C183	C	0.437201	0.671352	0.500113
C184	C	0.687201	0.921352	0.750113
C185	C	-0.063052	0.196553	-0.045110
C186	C	0.186948	0.446553	0.204890
C187	C	0.436948	0.696553	0.454890
C188	C	0.686948	0.946553	0.704890
C189	C	-0.062788	0.171340	-0.090330
C190	C	0.187212	0.421340	0.159670
C191	C	0.437212	0.671340	0.409670
C192	C	0.687212	0.921340	0.659670
C193	C	-0.062274	0.120929	-0.090326
C194	C	0.187726	0.370929	0.159674
C195	C	0.437726	0.620929	0.409674
C196	C	0.687726	0.870929	0.659674
C197	C	-0.062292	0.120950	0.090560
C198	C	0.187708	0.370950	0.340560
C199	C	0.437708	0.620950	0.590560
C200	C	0.687708	0.870950	0.840560
C201	C	-0.062806	0.171361	0.090552
C202	C	0.187194	0.421361	0.340552
C203	C	0.437194	0.671361	0.590552
C204	C	0.687194	0.921361	0.840552
C205	C	-0.063060	0.196562	0.045329
C206	C	0.186940	0.446562	0.295329
C207	C	0.436940	0.696562	0.545329
C208	C	0.686940	0.946562	0.795329
C209	C	-0.150185	0.566324	0.000137
C210	C	0.099815	0.816324	0.250137
C211	C	0.349815	1.066324	0.500137
C212	C	0.599815	1.316324	0.750137
C213	C	-0.203841	0.566867	0.000143
C214	C	0.046159	0.816867	0.250143
C215	C	0.296159	1.066867	0.500143
C216	C	0.546159	1.316867	0.750143
C217	C	-0.536553	0.570290	-0.045100
C218	C	-0.286553	0.820290	0.204900
C219	C	-0.036553	1.070290	0.454900
C220	C	0.213447	1.320290	0.704900
C221	C	-0.738211	0.572352	-0.045107
C222	C	-0.488211	0.822352	0.204893
C223	C	-0.238211	1.072352	0.454893
C224	C	0.011789	1.322352	0.704893
O225	O	-0.764278	0.572646	-0.083566
O226	O	-0.514278	0.822646	0.166434
O227	O	-0.264278	1.072646	0.416434
O228	O	-0.014278	1.322646	0.666434
N229	N	-0.763432	0.572600	0.000114
N230	N	-0.513432	0.822600	0.250114
N231	N	-0.263432	1.072600	0.500114
N232	N	-0.013432	1.322600	0.750114
C233	C	-0.738235	0.572336	0.045340
C234	C	-0.488235	0.822336	0.295340
C235	C	-0.238235	1.072336	0.545340
C236	C	0.011765	1.322336	0.795340
O237	O	-0.764313	0.572600	0.083803
O238	O	-0.514313	0.822600	0.333803
O239	O	-0.264313	1.072600	0.583803
O240	O	-0.014313	1.322600	0.833803
C241	C	-0.536578	0.570278	0.045346
C242	C	-0.286578	0.820278	0.295346
C243	C	-0.036578	1.070278	0.545346
C244	C	0.213422	1.320278	0.795346
C245	C	-0.511360	0.570025	0.000123
C246	C	-0.261360	0.820025	0.250123
C247	C	-0.011360	1.070025	0.500123
C248	C	0.238640	1.320025	0.750123
C249	C	-0.511335	0.570038	-0.090320
C250	C	-0.261335	0.820038	0.159680
C251	C	-0.011335	1.070038	0.409680
C252	C	0.238665	1.320038	0.659680
C253	C	-0.460924	0.569520	-0.090318
C254	C	-0.210924	0.819520	0.159682
C255	C	0.039076	1.069520	0.409682
C256	C	0.289076	1.319520	0.659682
C257	C	-0.435731	0.569254	-0.045095
C258	C	-0.185731	0.819254	0.204905
C259	C	0.064269	1.069254	0.454905
C260	C	0.314269	1.319254	0.704905
C261	C	-0.460949	0.569507	0.000125
C262	C	-0.210949	0.819507	0.250125
C263	C	0.039051	1.069507	0.500125
C264	C	0.289051	1.319507	0.750125
C265	C	-0.511381	0.570018	0.090572
C266	C	-0.261381	0.820018	0.340572
C267	C	-0.011381	1.070018	0.590572
C268	C	0.238619	1.320018	0.840572
C269	C	-0.460963	0.569504	0.090569
C270	C	-0.210963	0.819504	0.340569
C271	C	0.039037	1.069504	0.590569
C272	C	0.289037	1.319504	0.840569
C273	C	-0.435746	0.569251	0.045345
C274	C	-0.185746	0.819251	0.295345
C275	C	0.064254	1.069251	0.545345
C276	C	0.314254	1.319251	0.795345
C277	C	-0.385345	0.568724	0.045349
C278	C	-0.135345	0.818724	0.295349
C279	C	0.114655	1.068724	0.545349
C280	C	0.364655	1.318724	0.795349
N281	N	-0.360124	0.568475	0.000128
N282	N	-0.110124	0.818475	0.250128
N283	N	0.139876	1.068475	0.500128
N284	N	0.389876	1.318475	0.750128
C285	C	-0.385317	0.568741	-0.045094
C286	C	-0.135317	0.818741	0.204906
C287	C	0.114683	1.068741	0.454906
C288	C	0.364683	1.318741	0.704906
C289	C	-0.844108	0.573416	0.045333
C290	C	-0.594108	0.823416	0.295333
C291	C	-0.344108	1.073416	0.545333
C292	C	-0.094108	1.323416	0.795333
C293	C	-0.894522	0.573929	0.045332
C294	C	-0.644522	0.823929	0.295332
C295	C	-0.394522	1.073929	0.545332
C296	C	-0.144522	1.323929	0.795332
C297	C	-0.894495	0.573946	-0.045115
C298	C	-0.644495	0.823946	0.204885
C299	C	-0.394495	1.073946	0.454885
C300	C	-0.144495	1.323946	0.704885
C301	C	-0.844080	0.573429	-0.045113
C302	C	-0.594080	0.823429	0.204887
C303	C	-0.344080	1.073429	0.454887
C304	C	-0.094080	1.323429	0.704887
C305	C	-0.818887	0.573167	0.000113
C306	C	-0.568887	0.823167	0.250113
C307	C	-0.318887	1.073167	0.500113
C308	C	-0.068887	1.323167	0.750113
C309	C	-0.279450	0.567652	-0.045086
C310	C	-0.029450	0.817652	0.204914
C311	C	0.220550	1.067652	0.454914
C312	C	0.470550	1.317652	0.704914
C313	C	-0.229035	0.567132	-0.045080
C314	C	0.020965	0.817132	0.204920
C315	C	0.270965	1.067132	0.454920
C316	C	0.520965	1.317132	0.704920
C317	C	-0.229066	0.567118	0.045367
C318	C	0.020934	0.817118	0.295367
C319	C	0.270934	1.067118	0.545367
C320	C	0.520934	1.317118	0.795367
C321	C	-0.279478	0.567636	0.045361
C322	C	-0.029478	0.817636	0.295361
C323	C	0.220522	1.067636	0.545361
C324	C	0.470522	1.317636	0.795361
C325	C	-0.304668	0.567904	0.000131
C326	C	-0.054668	0.817904	0.250131
C327	C	0.195332	1.067904	0.500131
C328	C	0.445332	1.317904	0.750131
O329	O	-0.359246	0.568435	0.083788
O330	O	-0.109246	0.818435	0.333788
O331	O	0.140754	1.068435	0.583788
O332	O	0.390754	1.318435	0.833788
O333	O	-0.359228	0.568488	-0.083551
O334	O	-0.109228	0.818488	0.166449
O335	O	0.140772	1.068488	0.416449
O336	O	0.390772	1.318488	0.666449
C337	C	-0.586964	0.570808	-0.045102
C338	C	-0.336964	0.820808	0.204898
C339	C	-0.086964	1.070808	0.454898
C340	C	0.163036	1.320808	0.704898
C341	C	-0.612182	0.571061	0.000118
C342	C	-0.362182	0.821061	0.250118
C343	C	-0.112182	1.071061	0.500118
C344	C	0.137818	1.321061	0.750118
C345	C	-0.586989	0.570796	0.045341
C346	C	-0.336989	0.820796	0.295341
C347	C	-0.086989	1.070796	0.545341
C348	C	0.163011	1.320796	0.795341
C349	C	-0.662596	0.571574	0.000117
C350	C	-0.412596	0.821574	0.250117
C351	C	-0.162596	1.071574	0.500117
C352	C	0.087404	1.321574	0.750117
C353	C	-0.687789	0.571840	-0.045106
C354	C	-0.437789	0.821840	0.204894
C355	C	-0.187789	1.071840	0.454894
C356	C	0.062211	1.321840	0.704894
C357	C	-0.662568	0.571591	-0.090327
C358	C	-0.412568	0.821591	0.159673
C359	C	-0.162568	1.071591	0.409673
C360	C	0.087432	1.321591	0.659673
C361	C	-0.612157	0.571073	-0.090324
C362	C	-0.362157	0.821073	0.159676
C363	C	-0.112157	1.071073	0.409676
C364	C	0.137843	1.321073	0.659676
C365	C	-0.612210	0.571044	0.090561
C366	C	-0.362210	0.821044	0.340561
C367	C	-0.112210	1.071044	0.590561
C368	C	0.137790	1.321044	0.840561
C369	C	-0.662621	0.571561	0.090556
C370	C	-0.412621	0.821561	0.340556
C371	C	-0.162621	1.071561	0.590556
C372	C	0.087379	1.321561	0.840556
C373	C	-0.687814	0.571827	0.045333
C374	C	-0.437814	0.821827	0.295333
C375	C	-0.187814	1.071827	0.545333
C376	C	0.062186	1.321827	0.795333
C377	C	0.026628	0.574737	0.000119
C378	C	0.276628	0.824737	0.250119
C379	C	0.526628	1.074737	0.500119
C380	C	0.776628	1.324737	0.750119
C381	C	0.080285	0.574195	0.000110
C382	C	0.330285	0.824195	0.250110
C383	C	0.580285	1.074195	0.500110
C384	C	0.830285	1.324195	0.750110
C385	C	-0.057572	0.658938	0.000146
C386	C	0.192428	0.908938	0.250146
C387	C	0.442428	1.158938	0.500146
C388	C	0.692428	1.408938	0.750146
C389	C	-0.058114	0.712594	0.000154
C390	C	0.191886	0.962594	0.250154
C391	C	0.441886	1.212594	0.500154
C392	C	0.691886	1.462594	0.750154
N393	N	-0.061796	0.570512	0.129375
N394	N	0.188204	0.820512	0.379375
N395	N	0.438204	1.070512	0.629375
N396	N	0.688204	1.320512	0.879375
N397	N	-0.061757	0.570553	-0.129119
N398	N	0.188243	0.820553	0.120881
N399	N	0.438243	1.070553	0.370881
N400	N	0.688243	1.320553	0.620881
C401	C	-0.028664	0.603651	0.474005
C402	C	0.221336	0.853651	0.724005
C403	C	0.471336	1.103651	0.974005
C404	C	0.721336	1.353651	1.224005
C405	C	-0.028656	0.603662	0.682883
C406	C	0.221344	0.853662	0.932883
C407	C	0.471344	1.103662	1.182883
C408	C	0.721344	1.353662	1.432883
O409	O	-0.000489	0.631818	0.709890
O410	O	0.249511	0.881818	0.959890
O411	O	0.499511	1.131818	1.209890
O412	O	0.749511	1.381818	1.459890
N413	N	-0.061760	0.570543	0.709003
N414	N	0.188240	0.820543	0.959003
N415	N	0.438240	1.070543	1.209003
N416	N	0.688240	1.320543	1.459003
C417	C	-0.094866	0.537416	0.682900
C418	C	0.155134	0.787416	0.932900
C419	C	0.405134	1.037416	1.182900
C420	C	0.655134	1.287416	1.432900
O421	O	-0.123020	0.509242	0.709909
O422	O	0.126980	0.759242	0.959909
O423	O	0.376980	1.009242	1.209909
O424	O	0.626980	1.259242	1.459909
C425	C	-0.094871	0.537402	0.474023
C426	C	0.155129	0.787402	0.724023
C427	C	0.405129	1.037402	0.974023
C428	C	0.655129	1.287402	1.224023
C429	C	-0.061768	0.570527	0.447906
C430	C	0.188232	0.820527	0.697906
C431	C	0.438232	1.070527	0.947906
C432	C	0.688232	1.320527	1.197906
C433	C	0.004437	0.636773	0.447888
C434	C	0.254437	0.886773	0.697888
C435	C	0.504437	1.136773	0.947888
C436	C	0.754437	1.386773	1.197888
C437	C	0.004433	0.636772	0.395672
C438	C	0.254433	0.886772	0.645672
C439	C	0.504433	1.136772	0.895672
C440	C	0.754433	1.386772	1.145672
C441	C	-0.028672	0.603648	0.369572
C442	C	0.221328	0.853648	0.619572
C443	C	0.471328	1.103648	0.869572
C444	C	0.721328	1.353648	1.119572
C445	C	-0.061772	0.570526	0.395690
C446	C	0.188228	0.820526	0.645690
C447	C	0.438228	1.070526	0.895690
C448	C	0.688228	1.320526	1.145690
C449	C	-0.127974	0.504273	0.447921
C450	C	0.122026	0.754273	0.697921
C451	C	0.372026	1.004273	0.947921
C452	C	0.622026	1.254273	1.197921
C453	C	-0.127972	0.504272	0.395699
C454	C	0.122028	0.754272	0.645699
C455	C	0.372028	1.004272	0.895699
C456	C	0.622028	1.254272	1.145699
C457	C	-0.094869	0.537397	0.369582
C458	C	0.155131	0.787397	0.619582
C459	C	0.405131	1.037397	0.869582
C460	C	0.655131	1.287397	1.119582
C461	C	-0.094881	0.537401	0.317374
C462	C	0.155119	0.787401	0.567374
C463	C	0.405119	1.037401	0.817374
C464	C	0.655119	1.287401	1.067374
N465	N	-0.061777	0.570521	0.291254
N466	N	0.188223	0.820521	0.541254
N467	N	0.438223	1.070521	0.791254
N468	N	0.688223	1.320521	1.041254
C469	C	-0.028672	0.603644	0.317353
C470	C	0.221328	0.853644	0.567353
C471	C	0.471328	1.103644	0.817353
C472	C	0.721328	1.353644	1.067353
C473	C	-0.094862	0.537426	0.792563
C474	C	0.155138	0.787426	1.042563
C475	C	0.405138	1.037426	1.292563
C476	C	0.655138	1.287426	1.542563
C477	C	-0.094862	0.537430	0.844782
C478	C	0.155138	0.787430	1.094782
C479	C	0.405138	1.037430	1.344782
C480	C	0.655138	1.287430	1.594782
C481	C	-0.028651	0.603676	0.844761
C482	C	0.221349	0.853676	1.094761
C483	C	0.471349	1.103676	1.344761
C484	C	0.721349	1.353676	1.594761
C485	C	-0.028654	0.603674	0.792541
C486	C	0.221346	0.853674	1.042541
C487	C	0.471346	1.103674	1.292541
C488	C	0.721346	1.353674	1.542541
C489	C	-0.061758	0.570545	0.766443
C490	C	0.188242	0.820545	1.016443
C491	C	0.438242	1.070545	1.266443
C492	C	0.688242	1.320545	1.516443
C493	C	-0.028683	0.603639	0.207695
C494	C	0.221317	0.853639	0.457695
C495	C	0.471317	1.103639	0.707695
C496	C	0.721317	1.353639	0.957695
C497	C	-0.028692	0.603636	0.155475
C498	C	0.221308	0.853636	0.405475
C499	C	0.471308	1.103636	0.655475
C500	C	0.721308	1.353636	0.905475
C501	C	-0.094900	0.537388	0.155500
C502	C	0.155100	0.787388	0.405500
C503	C	0.405100	1.037388	0.655500
C504	C	0.655100	1.287388	0.905500
C505	C	-0.094894	0.537393	0.207716
C506	C	0.155106	0.787393	0.457716
C507	C	0.405106	1.037393	0.707716
C508	C	0.655106	1.287393	0.957716
C509	C	-0.061781	0.570520	0.233813
C510	C	0.188219	0.820520	0.483813
C511	C	0.438219	1.070520	0.733813
C512	C	0.688219	1.320520	0.983813
O513	O	-0.123029	0.509256	0.290335
O514	O	0.126971	0.759256	0.540335
O515	O	0.376971	1.009256	0.790335
O516	O	0.626971	1.259256	1.040335
O517	O	-0.000516	0.631806	0.290335
O518	O	0.249484	0.881806	0.540335
O519	O	0.499484	1.131806	0.790335
O520	O	0.749484	1.381806	1.040335
C521	C	-0.028660	0.603652	0.526221
C522	C	0.221340	0.853652	0.776221
C523	C	0.471340	1.103652	1.026221
C524	C	0.721340	1.353652	1.276221
C525	C	-0.061760	0.570530	0.552338
C526	C	0.188240	0.820530	0.802338
C527	C	0.438240	1.070530	1.052338
C528	C	0.688240	1.320530	1.302338
C529	C	-0.094865	0.537407	0.526239
C530	C	0.155135	0.787407	0.776239
C531	C	0.405135	1.037407	1.026239
C532	C	0.655135	1.287407	1.276239
C533	C	-0.061760	0.570534	0.604557
C534	C	0.188240	0.820534	0.854557
C535	C	0.438240	1.070534	1.104557
C536	C	0.688240	1.320534	1.354557
C537	C	-0.028655	0.603658	0.630657
C538	C	0.221345	0.853658	0.880657
C539	C	0.471345	1.103658	1.130657
C540	C	0.721345	1.353658	1.380657
C541	C	0.004448	0.636777	0.604537
C542	C	0.254448	0.886777	0.854537
C543	C	0.504448	1.136777	1.104537
C544	C	0.754448	1.386777	1.354537
C545	C	0.004445	0.636776	0.552320
C546	C	0.254445	0.886776	0.802320
C547	C	0.504445	1.136776	1.052320
C548	C	0.754445	1.386776	1.302320
C549	C	-0.127969	0.504287	0.552359
C550	C	0.122031	0.754287	0.802359
C551	C	0.372031	1.004287	1.052359
C552	C	0.622031	1.254287	1.302359
C553	C	-0.127962	0.504292	0.604576
C554	C	0.122038	0.754292	0.854576
C555	C	0.372038	1.004292	1.104576
C556	C	0.622038	1.254292	1.354576
C557	C	-0.094858	0.537415	0.630675
C558	C	0.155142	0.787415	0.880675
C559	C	0.405142	1.037415	1.130675
C560	C	0.655142	1.287415	1.380675
H561	H	-0.064452	0.332317	-0.081947
H562	H	0.185548	0.582317	0.168053
H563	H	0.435548	0.832317	0.418053
H564	H	0.685548	1.082317	0.668053
H565	H	-0.001699	0.630647	0.771280
H566	H	0.248301	0.880647	1.021280
H567	H	0.498301	1.130647	1.271280
H568	H	0.748301	1.380647	1.521280
F569	F	0.006581	0.638928	0.872547
F570	F	0.256581	0.888928	1.122547
F571	F	0.506581	1.138928	1.372547
F572	F	0.756581	1.388928	1.622547
H573	H	-0.121822	0.510461	0.866043
H574	H	0.128178	0.760461	1.116043
H575	H	0.378178	1.010461	1.366043
H576	H	0.628178	1.260461	1.616043
F577	F	-0.130099	0.502165	0.764792
F578	F	0.119901	0.752165	1.014792
F579	F	0.369901	1.002165	1.264792
F580	F	0.619901	1.252165	1.514792
H581	H	-0.060517	-0.050828	-0.127140
H582	H	0.189483	0.199172	0.122860
H583	H	0.439483	0.449172	0.372860
H584	H	0.689483	0.699172	0.622860
F585	F	-0.689390	0.571873	-0.138456
F586	F	-0.439390	0.821873	0.111544
F587	F	-0.189390	1.071873	0.361544
F588	F	0.060610	1.321873	0.611544
F589	F	-0.921357	0.574188	0.093465
F590	F	-0.671357	0.824188	0.343465
F591	F	-0.421357	1.074188	0.593465
F592	F	-0.171357	1.324188	0.843465
F593	F	-0.202246	0.566832	0.093493
F594	F	0.047754	0.816832	0.343493
F595	F	0.297754	1.066832	0.593493
F596	F	0.547754	1.316832	0.843493
H597	H	-0.440454	0.569292	0.127398
H598	H	-0.190454	0.819292	0.377398
H599	H	0.059546	1.069292	0.627398
H600	H	0.309546	1.319292	0.877398
F601	F	-0.817302	0.573136	0.093472
F602	F	-0.567302	0.823136	0.343472
F603	F	-0.317302	1.073136	0.593472
F604	F	-0.067302	1.323136	0.843472
F605	F	-0.163206	0.469010	0.367927
F606	F	0.086794	0.719010	0.617927
F607	F	0.336794	0.969010	0.867927
F608	F	0.586794	1.219010	1.117927
H609	H	0.031389	0.663744	0.374410
H610	H	0.281389	0.913744	0.624410
H611	H	0.531389	1.163744	0.874410
H612	H	0.781389	1.413744	1.124410
H613	H	-0.061450	0.040619	-0.127147
H614	H	0.188550	0.290619	0.122853
H615	H	0.438550	0.540619	0.372853
H616	H	0.688550	0.790619	0.622853
F617	F	-0.306252	0.567938	-0.093225
F618	F	-0.056252	0.817938	0.156775
F619	F	0.193748	1.067938	0.406775
F620	F	0.443748	1.317938	0.656775
F621	F	-0.163200	0.469035	0.632366
F622	F	0.086800	0.719035	0.882366
F623	F	0.336800	0.969035	1.132366
F624	F	0.586800	1.219035	1.382366
H625	H	0.031396	0.663746	0.469133
H626	H	0.281396	0.913746	0.719133
H627	H	0.531396	1.163746	0.969133
H628	H	0.781396	1.413746	1.219133
F629	F	-0.065475	0.430091	0.093454
F630	F	0.184525	0.680091	0.343454
F631	F	0.434525	0.930091	0.593454
F632	F	0.684525	1.180091	0.843454
H633	H	-0.154926	0.477313	0.531113
H634	H	0.095074	0.727313	0.781113
H635	H	0.345074	0.977313	1.031113
H636	H	0.595074	1.227313	1.281113
F637	F	-0.306317	0.567903	0.093493
F638	F	-0.056317	0.817903	0.343493
F639	F	0.193683	1.067903	0.593493
F640	F	0.443683	1.317903	0.843493
F641	F	-0.058108	-0.289019	0.093505
F642	F	0.191892	-0.039019	0.343505
F643	F	0.441892	0.210981	0.593505
F644	F	0.691892	0.460981	0.843505
H645	H	-0.531842	0.570255	-0.127147
H646	H	-0.281842	0.820255	0.122853
H647	H	-0.031842	1.070255	0.372853
H648	H	0.218158	1.320255	0.622853
H649	H	-0.591629	0.570867	-0.127150
H650	H	-0.341629	0.820867	0.122850
H651	H	-0.091629	1.070867	0.372850
H652	H	0.158371	1.320867	0.622850
H653	H	-0.060529	-0.050810	0.127402
H654	H	0.189471	0.199190	0.377402
H655	H	0.439471	0.449190	0.627402
H656	H	0.689471	0.699190	0.877402
F657	F	-0.130132	0.502138	0.127715
F658	F	0.119868	0.752138	0.377715
F659	F	0.369868	1.002138	0.627715
F660	F	0.619868	1.252138	0.877715
H661	H	-0.208505	0.566924	-0.081908
H662	H	0.041495	0.816924	0.168092
H663	H	0.291495	1.066924	0.418092
H664	H	0.541495	1.316924	0.668092
F665	F	-0.163206	0.469016	0.475708
F666	F	0.086794	0.719016	0.725708
F667	F	0.336794	0.969016	0.975708
F668	F	0.586794	1.219016	1.225708
H669	H	-0.531904	0.570229	0.127398
H670	H	-0.281904	0.820229	0.377398
H671	H	-0.031904	1.070229	0.627398
H672	H	0.218096	1.320229	0.877398
H673	H	-0.591702	0.570829	0.127388
H674	H	-0.341702	0.820829	0.377388
H675	H	-0.091702	1.070829	0.627388
H676	H	0.158298	1.320829	0.877388
H677	H	-0.683150	0.571763	0.127385
H678	H	-0.433150	0.821763	0.377385
H679	H	-0.183150	1.071763	0.627385
H680	H	0.066850	1.321763	0.877385
H681	H	-0.001735	0.630612	0.134212
H682	H	0.248265	0.880612	0.384212
H683	H	0.498265	1.130612	0.634212
H684	H	0.748265	1.380612	0.884212
H685	H	-0.062997	0.191867	-0.127152
H686	H	0.187003	0.441867	0.122848
H687	H	0.437003	0.691867	0.372848
H688	H	0.687003	0.941867	0.622848
H689	H	0.031402	0.663750	0.625795
H690	H	0.281402	0.913750	0.875795
H691	H	0.531402	1.163750	1.125795
H692	H	0.781402	1.413750	1.375795
H693	H	-0.001720	0.630614	0.228937
H694	H	0.248280	0.880614	0.478937
H695	H	0.498280	1.130614	0.728937
H696	H	0.748280	1.380614	0.978937
H697	H	-0.058158	-0.282730	-0.081897
H698	H	0.191842	-0.032730	0.168103
H699	H	0.441842	0.217270	0.418103
H700	H	0.691842	0.467270	0.668103
H701	H	0.031400	0.663749	0.531060
H702	H	0.281400	0.913749	0.781060
H703	H	0.531400	1.163749	1.031060
H704	H	0.781400	1.413749	1.281060
H705	H	-0.059084	-0.191278	-0.081909
H706	H	0.190916	0.058722	0.168091
H707	H	0.440916	0.308722	0.418091
H708	H	0.690916	0.558722	0.668091
H709	H	-0.064459	0.332340	0.082155
H710	H	0.185541	0.582340	0.332155
H711	H	0.435541	0.832340	0.582155
H712	H	0.685541	1.082340	0.832155
F713	F	-0.065450	0.430084	-0.093256
F714	F	0.184550	0.680084	0.156744
F715	F	0.434550	0.930084	0.406744
F716	F	0.684550	1.180084	0.656744
H717	H	-0.062062	0.100407	-0.127151
H718	H	0.187938	0.350407	0.122849
H719	H	0.437938	0.600407	0.372849
H720	H	0.687938	0.850407	0.622849
F721	F	-0.130131	0.502142	0.235511
F722	F	0.119869	0.752142	0.485511
F723	F	0.369869	1.002142	0.735511
F724	F	0.619869	1.252142	0.985511
F725	F	-0.061530	0.046943	0.138707
F726	F	0.188470	0.296943	0.388707
F727	F	0.438470	0.546943	0.638707
F728	F	0.688470	0.796943	0.888707
F729	F	-0.062025	0.094135	0.138695
F730	F	0.187975	0.344135	0.388695
F731	F	0.437975	0.594135	0.638695
F732	F	0.687975	0.844135	0.888695
H733	H	-0.059112	-0.191251	0.082194
H734	H	0.190888	0.058749	0.332194
H735	H	0.440888	0.308749	0.582194
H736	H	0.690888	0.558749	0.832194
H737	H	-0.063022	0.191883	0.127381
H738	H	0.186978	0.441883	0.377381
H739	H	0.436978	0.691883	0.627381
H740	H	0.686978	0.941883	0.877381
H741	H	-0.440396	0.569317	-0.127144
H742	H	-0.190396	0.819317	0.122856
H743	H	0.059604	1.069317	0.372856
H744	H	0.309604	1.319317	0.622856
H745	H	-0.823551	0.573221	-0.081938
H746	H	-0.573551	0.823221	0.168062
H747	H	-0.323551	1.073221	0.418062
H748	H	-0.073551	1.323221	0.668062
H749	H	-0.915016	0.574158	-0.081937
H750	H	-0.665016	0.824158	0.168063
H751	H	-0.415016	1.074158	0.418063
H752	H	-0.165016	1.324158	0.668063
