data_functionalizedCrystal
_audit_creation_method	'MofGen! by Chris Wilmer'
_symmetry_space_group_name_H-M	'P1'
_symmetry_Int_Tables_number	1
_symmetry_cell_setting	triclinic
loop_
_symmetry_equiv_pos_as_xyz
  x,y,z
_cell_length_a	16.120530
_cell_length_b	16.120484
_cell_length_c	16.120297
_cell_angle_alpha	84.385569
_cell_angle_beta	89.871860
_cell_angle_gamma	90.167327
loop_
_atom_site_label
_atom_site_type_symbol
_atom_site_fract_x
_atom_site_fract_y
_atom_site_fract_z
Zn1	Zn	1.224987	-0.422264	0.554813
Zn2	Zn	1.724987	0.077736	1.054813
Zn3	Zn	1.224883	-0.554948	0.422118
Zn4	Zn	1.724883	-0.054948	0.922118
Zn5	Zn	1.093726	-0.408180	0.408056
Zn6	Zn	1.593726	0.091820	0.908056
Zn7	Zn	1.078880	-0.554181	0.554051
Zn8	Zn	1.578880	-0.054181	1.054051
O9	O	1.155619	-0.484893	0.484760
O10	O	1.655619	0.015107	0.984760
O11	O	1.341009	-0.446081	0.543415
O12	O	1.841009	0.053919	1.043415
O13	O	1.213654	-0.529906	0.303620
O14	O	1.713654	-0.029906	0.803620
O15	O	1.117395	-0.293418	0.421958
O16	O	1.617395	0.206582	0.921958
O17	O	1.340932	-0.543563	0.445925
O18	O	1.840932	-0.043563	0.945925
O19	O	1.213832	-0.303765	0.529780
O20	O	1.713832	0.196235	1.029780
O21	O	1.117294	-0.422076	0.293289
O22	O	1.617294	0.077924	0.793289
O23	O	0.975721	-0.421332	0.421218
O24	O	1.475721	0.078668	0.921218
O25	O	1.092092	-0.542255	0.670785
O26	O	1.592092	-0.042255	1.170785
O27	O	0.964814	-0.528598	0.528480
O28	O	1.464814	-0.028598	1.028480
O29	O	1.199436	-0.445336	0.671345
O30	O	1.699436	0.054664	1.171345
O31	O	1.199258	-0.671477	0.445185
O32	O	1.699258	-0.171477	0.945185
O33	O	1.091990	-0.670913	0.542116
O34	O	1.591990	-0.170913	1.042116
C35	C	1.144023	-0.701438	0.495113
C36	C	1.644023	-0.201438	0.995113
C37	C	1.139137	-0.794083	0.499574
C38	C	1.639137	-0.294083	0.999574
C39	C	0.940181	-0.473354	0.473241
C40	C	1.440181	0.026646	0.973241
C41	C	0.848013	-0.468438	0.468334
C42	C	1.348013	0.031562	0.968334
C43	C	1.130220	-0.963706	0.507736
C44	C	1.630220	-0.463706	1.007736
C45	C	1.181166	-1.005249	0.461804
C46	C	1.681166	-0.505249	0.961804
C47	C	1.176204	-1.099633	0.466346
C48	C	1.676204	-0.599633	0.966346
C49	C	1.135180	-0.869313	0.503196
C50	C	1.635180	-0.369313	1.003196
C51	C	0.679262	-0.459445	0.459381
C52	C	1.179262	0.040555	0.959381
C53	C	0.632810	-0.510407	0.510202
C54	C	1.132810	-0.010407	1.010202
C55	C	0.538911	-0.505403	0.505220
C56	C	1.038911	-0.005403	1.005220
C57	C	0.773169	-0.464448	0.464361
C58	C	1.273169	0.035552	0.964361
C59	C	1.371899	-0.496479	0.496324
C60	C	1.871899	0.003521	0.996324
C61	C	1.464064	-0.501416	0.501252
C62	C	1.964064	-0.001416	1.001252
C63	C	1.144119	-0.495281	0.702152
C64	C	1.644119	0.004719	1.202152
C65	C	1.139219	-0.499708	0.794791
C66	C	1.639219	0.000292	1.294791
C67	C	1.167282	-0.267505	0.474385
C68	C	1.667282	0.232495	0.974385
C69	C	1.172251	-0.174867	0.469964
C70	C	1.672251	0.325133	0.969964
C71	C	1.167125	-0.474489	0.268213
C72	C	1.667125	0.025511	0.768213
C73	C	1.172198	-0.469836	0.175571
C74	C	1.672198	0.030164	0.675571
C75	C	1.130243	-0.507770	0.964403
C76	C	1.630243	-0.007770	1.464403
C77	C	1.181172	-0.461776	1.005965
C78	C	1.681172	0.038224	1.505965
C79	C	1.176177	-0.466262	1.100342
C80	C	1.676177	0.033738	1.600342
C81	C	1.135236	-0.503285	0.870017
C82	C	1.635236	-0.003285	1.370017
H83	H	1.228508	-0.969931	0.419069
H84	H	1.728508	-0.469931	0.919069
H85	H	1.228524	-0.419031	0.970668
H86	H	1.728524	0.080969	1.470668
C87	C	1.066980	-0.564657	1.011404
C88	C	1.566980	-0.064657	1.511404
C89	C	0.987001	-0.541128	0.985058
C90	C	1.487001	-0.041128	1.485058
C91	C	0.928706	-0.593509	1.028355
C92	C	1.428706	-0.093509	1.528355
H93	H	1.076741	-0.620669	1.000550
H94	H	1.576741	-0.120669	1.500550
H95	H	1.071921	-0.560124	1.069505
H96	H	1.571921	-0.060124	1.569505
H97	H	0.982063	-0.545669	0.926970
H98	H	1.482063	-0.045669	1.426970
H99	H	0.977214	-0.485125	0.995913
H100	H	1.477214	0.014875	1.495913
H101	H	0.933647	-0.588976	1.086457
H102	H	1.433647	-0.088976	1.586457
H103	H	0.938474	-0.649518	1.017499
H104	H	1.438474	-0.149518	1.517499
H105	H	0.874434	-0.577547	1.010492
H106	H	1.374434	-0.077547	1.510492
C107	C	0.673761	-0.573503	0.573334
C108	C	1.173761	-0.073503	1.073334
C109	C	0.649407	-0.558325	0.653879
C110	C	1.149407	-0.058325	1.153879
C111	C	0.687125	-0.616425	0.712053
C112	C	1.187125	-0.116425	1.212053
H113	H	0.657292	-0.628192	0.563092
H114	H	1.157292	-0.128192	1.063092
H115	H	0.732344	-0.568511	0.568408
H116	H	1.232344	-0.068511	1.068408
H117	H	0.590837	-0.563325	0.658803
H118	H	1.090837	-0.063325	1.158803
H119	H	0.665876	-0.503647	0.664147
H120	H	1.165876	-0.003647	1.164147
H121	H	0.745708	-0.611432	0.707127
H122	H	1.245708	-0.111432	1.207127
H123	H	0.670653	-0.671111	0.701804
H124	H	1.170653	-0.171111	1.201804
H125	H	0.670613	-0.606130	0.766710
H126	H	1.170613	-0.106130	1.266710
C127	C	0.638108	-0.396348	0.396406
C128	C	1.138108	0.103652	0.896406
C129	C	0.551805	-0.403893	0.403907
C130	C	1.051805	0.096107	0.903907
C131	C	0.513857	-0.345793	0.345901
C132	C	1.013857	0.154207	0.845901
H133	H	0.654504	-0.341649	0.406688
H134	H	1.154504	0.158351	0.906688
H135	H	0.654503	-0.406529	0.341680
H136	H	1.154503	0.093471	0.841680
H137	H	0.535417	-0.393706	0.458620
H138	H	1.035417	0.106294	0.958620
H139	H	0.535386	-0.458579	0.393617
H140	H	1.035386	0.041421	0.893617
H141	H	0.530252	-0.355973	0.291174
H142	H	1.030252	0.144027	0.791174
H143	H	0.530259	-0.291098	0.356188
H144	H	1.030259	0.208902	0.856188
H145	H	0.455297	-0.350909	0.350977
H146	H	0.955297	0.149091	0.850977
H147	H	1.082881	-0.999022	0.550467
H148	H	1.582881	-0.499022	1.050467
