data_functionalizedCrystal
_audit_creation_method	'MofGen! by Chris Wilmer'
_symmetry_space_group_name_H-M	'P1'
_symmetry_Int_Tables_number	1
_symmetry_cell_setting	triclinic
loop_
_symmetry_equiv_pos_as_xyz
  x,y,z
_cell_length_a	12.759401
_cell_length_b	16.625545
_cell_length_c	12.759393
_cell_angle_alpha	89.967170
_cell_angle_beta	89.980404
_cell_angle_gamma	90.025835
loop_
_atom_site_label
_atom_site_type_symbol
_atom_site_fract_x
_atom_site_fract_y
_atom_site_fract_z
Zn1	Zn	1.606187	-0.320957	-0.593965
Zn2	Zn	2.106187	0.179043	-0.093965
Zn3	Zn	1.606045	-0.455811	-0.418278
Zn4	Zn	2.106045	0.044189	0.081722
Zn5	Zn	1.430486	-0.320997	-0.418305
Zn6	Zn	1.930486	0.179003	0.081695
Zn7	Zn	1.430444	-0.455752	-0.593920
Zn8	Zn	1.930444	0.044248	-0.093920
O9	O	1.518291	-0.388379	-0.506117
O10	O	2.018291	0.111621	-0.006117
O11	O	1.753189	-0.338853	-0.570668
O12	O	2.253189	0.161147	-0.070668
O13	O	1.582714	-0.437969	-0.271261
O14	O	2.082714	0.062031	0.228739
O15	O	1.453870	-0.208159	-0.441637
O16	O	1.953870	0.291841	0.058363
O17	O	1.753085	-0.437930	-0.441592
O18	O	2.253085	0.062070	0.058408
O19	O	1.582957	-0.208130	-0.570694
O20	O	2.082957	0.291870	-0.070694
O21	O	1.453732	-0.338922	-0.271280
O22	O	1.953732	0.161078	0.228720
O23	O	1.283459	-0.338864	-0.441592
O24	O	1.783459	0.161136	0.058408
O25	O	1.453799	-0.437829	-0.740947
O26	O	1.953799	0.062171	-0.240947
O27	O	1.283429	-0.437868	-0.570616
O28	O	1.783429	0.062132	-0.070616
O29	O	1.582917	-0.338796	-0.740980
O30	O	2.082917	0.161204	-0.240980
O31	O	1.582674	-0.568635	-0.441547
O32	O	2.082674	-0.068635	0.058453
O33	O	1.453661	-0.568592	-0.570590
O34	O	1.953661	-0.068592	-0.070590
C35	C	1.245323	-0.388365	-0.506103
C36	C	1.745323	0.111635	-0.006103
C37	C	1.128547	-0.388378	-0.506121
C38	C	1.628547	0.111622	-0.006121
C39	C	1.518176	-0.597870	-0.506084
C40	C	2.018176	-0.097870	-0.006084
C41	C	1.518224	-0.687491	-0.506105
C42	C	2.018224	-0.187491	-0.006105
C43	C	0.963965	-0.440020	-0.573205
C44	C	1.463965	0.059980	-0.073205
C45	C	1.073689	-0.440011	-0.573194
C46	C	1.573689	0.059989	-0.073194
C47	C	1.073674	-0.336756	-0.439047
C48	C	1.573674	0.163244	0.060953
C49	C	0.963952	-0.336770	-0.439054
C50	C	1.463952	0.163230	0.060946
C51	C	1.518264	-0.760273	-0.506126
C52	C	2.018264	-0.260273	-0.006126
C53	C	1.518326	-0.851582	-0.506149
C54	C	2.018326	-0.351582	-0.006149
C55	C	1.518380	-0.924358	-0.506162
C56	C	2.018380	-0.424358	-0.006162
C57	C	1.518440	-1.015672	-0.506184
C58	C	2.018440	-0.515672	-0.006184
C59	C	1.792324	-0.388394	-0.506132
C60	C	2.292324	0.111606	-0.006132
C61	C	1.909100	-0.388400	-0.506139
C62	C	2.409100	0.111600	-0.006139
C63	C	1.518369	-0.388302	-0.780151
C64	C	2.018369	0.111698	-0.280151
C65	C	1.518403	-0.388269	-0.896927
C66	C	2.018403	0.111731	-0.396927
C67	C	1.518434	-0.178070	-0.506173
C68	C	2.018434	0.321930	-0.006173
C69	C	1.518495	-0.088449	-0.506197
C70	C	2.018495	0.411551	-0.006197
C71	C	1.585639	-0.336694	-0.951808
C72	C	2.085639	0.163306	-0.451808
C73	C	1.585657	-0.336659	-1.061533
C74	C	2.085657	0.163341	-0.561533
C75	C	1.451199	-0.439781	-1.061485
C76	C	1.951199	0.060219	-0.561485
C77	C	1.451177	-0.439811	-0.951763
C78	C	1.951177	0.060189	-0.451763
C79	C	1.518273	-0.388398	-0.233150
C80	C	2.018273	0.111602	0.266850
C81	C	1.518443	-0.388204	-0.116374
C82	C	2.018443	0.111796	0.383626
H83	H	1.118355	-0.482045	-0.627806
H84	H	1.618355	0.017955	-0.127806
O85	O	0.910613	-0.286746	-0.373771
O86	O	1.410613	0.213254	0.126229
C87	C	0.847098	-0.332613	-0.305833
C88	C	1.347098	0.167387	0.194167
H89	H	0.880141	-0.396108	-0.299225
H90	H	1.380141	0.103892	0.200775
H91	H	0.845846	-0.303395	-0.225035
H92	H	1.345846	0.196605	0.274965
H93	H	0.763947	-0.335426	-0.338299
H94	H	1.263947	0.164574	0.161701
H95	H	1.396417	-0.481809	-0.907077
H96	H	1.896417	0.018191	-0.407077
O97	O	0.910844	-0.490249	-0.638400
O98	O	1.410844	0.009751	-0.138400
C99	C	0.982803	-0.535791	-0.697612
C100	C	1.482803	-0.035791	-0.197612
H101	H	1.060996	-0.538537	-0.654564
H102	H	1.560996	-0.038537	-0.154564
H103	H	0.951080	-0.599333	-0.708682
H104	H	1.451080	-0.099333	-0.208682
H105	H	0.994521	-0.506333	-0.777469
H106	H	1.494521	-0.006333	-0.277469
O107	O	1.127078	-0.286713	-0.373840
O108	O	1.627078	0.213287	0.126160
C109	C	1.190484	-0.332551	-0.305859
C110	C	1.690484	0.167449	0.194141
H111	H	1.206909	-0.393688	-0.342772
H112	H	1.706909	0.106312	0.157228
H113	H	1.267649	-0.299687	-0.291854
H114	H	1.767649	0.200313	0.208146
H115	H	1.148167	-0.341343	-0.227981
H116	H	1.648167	0.158657	0.272019
O117	O	1.651040	-0.286736	-0.898492
O118	O	2.151040	0.213264	-0.398492
C119	C	1.718839	-0.332657	-0.834998
C120	C	2.218839	0.167343	-0.334998
H121	H	1.725300	-0.396153	-0.868045
H122	H	2.225300	0.103847	-0.368045
H123	H	1.799709	-0.303494	-0.833770
H124	H	2.299709	0.196506	-0.333770
H125	H	1.686334	-0.335456	-0.751837
H126	H	2.186334	0.164544	-0.251837
H127	H	1.640406	-0.294660	-1.106212
H128	H	2.140406	0.205340	-0.606212
O129	O	1.386003	-0.489824	-1.114916
O130	O	1.886003	0.010176	-0.614916
C131	C	1.400421	-0.478727	-1.223529
C132	C	1.900421	0.021273	-0.723529
H133	H	1.481523	-0.452322	-1.238534
H134	H	1.981523	0.047678	-0.738534
H135	H	1.393260	-0.539111	-1.265211
H136	H	1.893260	-0.039111	-0.765211
H137	H	1.338141	-0.435775	-1.254670
H138	H	1.838141	0.064225	-0.754670
