data_functionalizedCrystal
_audit_creation_method	'MofGen! by Chris Wilmer'
_symmetry_space_group_name_H-M	'P1'
_symmetry_Int_Tables_number	1
_symmetry_cell_setting	triclinic
loop_
_symmetry_equiv_pos_as_xyz
  x,y,z
_cell_length_a	27.440280
_cell_length_b	14.628931
_cell_length_c	14.628931
_cell_angle_alpha	60.000000
_cell_angle_beta	89.995125
_cell_angle_gamma	59.994058
loop_
_atom_site_label
_atom_site_type_symbol
_atom_site_fract_x
_atom_site_fract_y
_atom_site_fract_z
Zr1	Zr	0.469498	1.000492	-0.119994
O2	O	0.391680	1.191212	-0.265950
O3	O	0.493353	0.809782	-0.075251
O4	O	0.493353	1.000488	-0.265956
O5	O	0.391679	1.000507	0.075188
O6	O	0.573555	1.000473	-0.265962
O7	O	0.391679	1.000507	-0.075244
O8	O	0.573555	0.659336	0.075176
O9	O	0.391680	1.341644	-0.265950
O10	O	0.563381	0.888210	-0.056172
O11	O	0.503527	0.888221	0.056097
O12	O	0.503527	1.112752	-0.168434
O13	O	0.443673	1.112763	-0.056165
Zr14	Zr	0.597410	1.000470	0.119918
Zr15	Zr	0.597411	1.000469	-0.120003
Zr16	Zr	0.469497	1.000493	0.119927
Zr17	Zr	0.469498	1.240414	-0.119994
Zr18	Zr	0.597410	0.760548	0.119919
O19	O	0.573555	1.191179	0.075175
O20	O	0.573555	1.191178	-0.265962
O21	O	0.391679	1.191213	0.075187
O22	O	0.675228	0.809750	0.265874
O23	O	0.675229	0.809749	-0.075263
O24	O	0.493353	0.809783	0.265886
O25	O	0.675229	1.000455	-0.075263
O26	O	0.573555	1.000474	0.265881
O27	O	0.493353	1.000489	0.265886
O28	O	0.675229	1.000455	0.075168
O29	O	0.493354	1.341625	-0.265957
O30	O	0.573555	0.659337	0.265881
O31	O	0.675228	0.659318	0.265874
O32	O	0.675228	0.659318	0.075169
O33	O	0.391680	1.341644	-0.075245
O34	O	0.493353	1.341626	-0.075251
O35	O	0.563381	0.888210	0.168358
O36	O	0.623235	0.888199	0.056089
O37	O	0.563381	1.112741	-0.056173
O38	O	0.503527	1.112752	0.056097
C39	C	0.533454	0.700376	-0.000037
C40	C	0.533454	0.598523	-0.000037
C41	C	0.373454	1.000510	-0.000027
C42	C	0.319152	1.000520	-0.000023
C43	C	0.563145	0.553108	-0.055730
C44	C	0.563146	0.447838	-0.055732
C45	C	-0.017546	1.000452	-0.082914
C46	C	-0.068563	1.000443	-0.082914
O47	O	-0.094938	1.000394	-0.153372
N48	N	-0.094081	1.000445	-0.000041
C49	C	-0.068575	1.000444	0.082844
O50	O	-0.094964	1.000444	0.153334
C51	C	-0.017556	1.000444	0.082848
C52	C	0.007956	1.000454	-0.000037
C53	C	0.007967	1.000461	-0.165791
C54	C	0.058980	1.000473	-0.165791
C55	C	0.084482	1.000475	-0.082914
C56	C	0.058970	1.000466	-0.000037
C57	C	0.007952	1.000433	0.165737
C58	C	0.058975	1.000432	0.165735
C59	C	0.084487	1.000443	0.082850
C60	C	0.135485	1.000480	0.082840
N61	N	0.161003	1.000478	-0.000033
C62	C	0.135501	1.000475	-0.082910
C63	C	-0.175719	1.000442	0.082830
C64	C	-0.226740	1.000451	0.082822
C65	C	-0.226724	1.000447	-0.082935
C66	C	-0.175704	1.000447	-0.082931
C67	C	-0.150201	1.000439	-0.000043
C68	C	0.242634	1.000501	-0.082905
C69	C	0.293651	1.000518	-0.082900
C70	C	0.293632	1.000514	0.082860
C71	C	0.242618	1.000504	0.082853
C72	C	0.217121	1.000493	-0.000035
O73	O	0.161894	1.000524	0.153264
O74	O	0.161901	1.000458	-0.153380
C75	C	0.693454	1.000452	-0.000049
C76	C	0.747756	1.000442	-0.000052
C77	C	0.533454	1.000480	-0.300143
C78	C	0.533454	1.000480	-0.401995
C79	C	0.533454	1.300586	-0.000038
C80	C	0.533454	1.402439	-0.000038
C81	C	0.503763	1.111868	-0.503094
C82	C	0.503762	1.111870	-0.608366
C83	C	0.533454	1.000482	0.300067
C84	C	0.533454	1.000482	0.401920
C85	C	0.693453	0.700346	-0.000048
C86	C	0.747756	0.598484	-0.000052
C87	C	0.533454	0.700377	0.300067
C88	C	0.533453	0.598524	0.401920
C89	C	0.693453	0.700347	0.300056
C90	C	0.747755	0.598485	0.401906
C91	C	0.373455	1.300615	-0.300132
C92	C	0.319153	1.402477	-0.401981
C93	C	0.373455	1.300615	-0.000027
C94	C	0.319152	1.402478	-0.000024
C95	C	0.533454	1.300585	-0.300143
C96	C	0.533455	1.402438	-0.401996
C97	C	0.742014	0.550653	-0.058663
C98	C	0.793031	0.454955	-0.058689
C99	C	0.849791	0.407083	-0.000096
C100	C	0.855532	0.454923	0.058517
C101	C	0.804514	0.550626	0.058535
C102	C	0.804505	0.550643	0.391132
C103	C	0.855532	0.454946	0.486821
C104	C	0.849809	0.407085	0.593283
C105	C	0.793054	0.454936	0.604055
C106	C	0.742028	0.550638	0.508367
C107	C	0.262403	1.450330	-0.391207
C108	C	0.211376	1.546058	-0.486896
C109	C	0.217099	1.593923	-0.593358
C110	C	0.273854	1.546066	-0.604130
C111	C	0.324880	1.450347	-0.508442
C112	C	0.324895	1.450319	0.058577
C113	C	0.273877	1.546043	0.058577
C114	C	0.217117	1.593918	-0.000019
C115	C	0.211376	1.546074	-0.058628
C116	C	0.262394	1.450358	-0.058633
C117	C	0.563145	0.553110	0.503019
C118	C	0.563145	0.447840	0.608291
H119	H	0.588568	0.592154	-0.103407
H120	H	0.809176	0.589597	0.304454
O121	O	0.256885	1.403655	-0.115384
C122	C	0.284506	1.269563	-0.040140
H123	H	0.319287	1.228960	0.036981
H124	H	0.307148	1.219963	-0.082653
H125	H	0.249420	1.251335	-0.013904
H126	H	0.371106	1.411346	0.106300
H127	H	0.558872	0.905114	-0.511355
O128	O	0.380016	1.404003	-0.518872
C129	C	0.411410	1.427352	-0.467011
H130	H	0.378309	1.511206	-0.462556
H131	H	0.439604	1.452733	-0.517789
H132	H	0.441703	1.337001	-0.378754
O133	O	0.279355	1.592673	0.115429
C134	C	0.222159	1.687399	0.102902
H135	H	0.188334	1.729296	0.023744
H136	H	0.222738	1.767883	0.096216
H137	H	0.209156	1.641620	0.178612
O138	O	0.156270	1.592356	-0.115453
C139	C	0.149719	1.490242	-0.072330
H140	H	0.195646	1.394496	-0.029439
H141	H	0.122866	1.504694	-0.143638
H142	H	0.125349	1.488964	-0.009046
O143	O	0.503027	0.552156	0.391559
C144	C	0.442032	0.654245	0.332540
H145	H	0.430963	0.735647	0.340443
H146	H	0.413794	0.617707	0.368991
H147	H	0.432018	0.691932	0.240465
O148	O	0.167546	1.687061	-0.000203
C149	C	0.133353	1.797780	-0.111085
H150	H	0.163302	1.797649	-0.165099
H151	H	0.112697	1.888230	-0.112256
H152	H	0.096410	1.796992	-0.145562
O153	O	0.279446	1.592289	-0.707521
C154	C	0.310872	1.490100	-0.719730
H155	H	0.339079	1.394403	-0.633565
H156	H	0.341153	1.504521	-0.770205
H157	H	0.277797	1.488743	-0.765291
H158	H	0.079739	1.000422	0.233236
O159	O	0.503221	0.551696	0.056932
C160	C	0.543374	0.417590	0.139134
H161	H	0.584503	0.377118	0.114476
H162	H	0.520754	0.367940	0.146166
H163	H	0.557333	0.399272	0.223228
O164	O	0.593462	0.599793	0.513113
C165	C	0.586704	0.694523	0.405757
H166	H	0.575191	0.678721	0.342402
H167	H	0.630173	0.686817	0.406707
H168	H	0.549284	0.794632	0.381352
O169	O	-0.016902	1.000633	-0.246333
C170	C	-0.076094	1.112015	-0.306998
H171	H	-0.093646	1.149136	-0.253601
H172	H	-0.105290	1.086976	-0.329574
H173	H	-0.077212	1.189997	-0.386871
O174	O	0.899328	0.313948	0.000016
C175	C	0.899214	0.203263	0.046578
H176	H	0.870367	0.203388	0.102657
H177	H	0.946808	0.112786	0.098245
H178	H	0.880377	0.204111	-0.023515
H179	H	0.588566	0.408783	0.695019
O180	O	0.787472	0.408637	0.707453
C181	C	0.755987	0.510756	0.719736
H182	H	0.760227	0.592120	0.659127
H183	H	0.775384	0.474234	0.809251
H184	H	0.706893	0.548486	0.700766
H185	H	0.508036	0.441484	0.511280
O186	O	0.473349	1.225722	-0.513529
C187	C	0.412347	1.297064	-0.572490
H188	H	0.407200	1.263867	-0.625406
H189	H	0.393203	1.404297	-0.629278
H190	H	0.387310	1.280718	-0.510466
H191	H	0.257732	1.411363	-0.304529
O192	O	0.593465	0.401070	-0.112519
C193	C	0.586708	0.306390	-0.099893
H194	H	0.575194	0.264630	-0.020734
H195	H	0.630178	0.225802	-0.093149
H196	H	0.549289	0.352175	-0.175585
H197	H	0.508030	0.441494	0.047640
H198	H	0.221841	1.000514	0.150335
O199	O	0.083729	1.000685	-0.246381
C200	C	0.083572	1.112023	-0.307015
H201	H	0.047444	1.189877	-0.298918
H202	H	0.074195	1.149381	-0.398999
H203	H	0.128950	1.086844	-0.272161
H204	H	0.314420	1.000529	-0.150399
H205	H	0.165168	1.585007	-0.478104
H206	H	0.478339	1.207233	-0.695094
O207	O	0.217930	1.000551	-0.163533
C208	C	0.251404	1.000530	-0.236657
H209	H	0.276915	1.041242	-0.232697
H210	H	0.220029	1.062958	-0.325837
H211	H	0.284336	0.897375	-0.210568
O212	O	0.167467	1.686858	-0.686189
C213	C	0.116154	1.718841	-0.653836
H214	H	0.127876	1.634894	-0.565499
H215	H	0.080116	1.738729	-0.714283
H216	H	0.098977	1.808759	-0.655566
H217	H	-0.154936	1.000455	-0.150422
O218	O	-0.251458	1.000202	-0.163301
C219	C	-0.251290	0.888849	-0.112568
H220	H	-0.215166	0.811023	-0.026624
H221	H	-0.241900	0.851459	-0.167173
H222	H	-0.296668	0.914021	-0.102883
O223	O	-0.150944	1.000628	0.163197
C224	C	-0.151137	1.112011	0.112482
H225	H	-0.153380	1.149130	0.021967
H226	H	-0.108590	1.086974	0.160089
H227	H	-0.191595	1.189993	0.114383
O228	O	-0.251432	1.000399	0.163439
C229	C	-0.217987	1.000440	0.236563
H230	H	-0.170767	0.959738	0.232611
H231	H	-0.216085	0.938012	0.325742
H232	H	-0.240065	1.103599	0.210469
H233	H	0.901752	0.415932	0.106220
O234	O	0.686913	0.596926	-0.115505
C235	C	0.680367	0.494809	-0.072409
H236	H	0.726296	0.399064	-0.029499
H237	H	0.653531	0.509256	-0.143736
H238	H	0.655981	0.493531	-0.009148
O239	O	0.910615	0.408568	0.476143
C240	C	0.904718	0.471350	0.361656
H241	H	0.859184	0.510781	0.310645
H242	H	0.941306	0.399557	0.348306
H243	H	0.908894	0.554475	0.333440
H244	H	0.314402	1.000522	0.150335
O245	O	-0.016728	1.000354	0.246369
C246	C	0.016725	1.000377	0.319496
H247	H	0.063942	0.959686	0.315528
H248	H	0.018636	0.937931	0.408678
H249	H	-0.005351	1.103529	0.293419
O250	O	0.809991	0.597245	0.115396
C251	C	0.752796	0.691949	0.102892
H252	H	0.718965	0.733851	0.023738
H253	H	0.753370	0.772434	0.096215
H254	H	0.739802	0.646146	0.178610
O255	O	0.899441	0.314073	0.686114
C256	C	0.950754	0.282140	0.653761
H257	H	0.939031	0.308524	0.565423
H258	H	0.986792	0.173970	0.714206
H259	H	0.967932	0.338100	0.655492
H260	H	0.558875	0.905118	-0.393377
H261	H	0.788345	0.416016	-0.106418
O262	O	0.686889	0.597298	0.518785
C263	C	0.655487	0.731408	0.466921
H264	H	0.688583	0.757628	0.462480
H265	H	0.627283	0.758904	0.517690
H266	H	0.625203	0.786138	0.378660
