data_functionalizedCrystal
_audit_creation_method	'MofGen! by Chris Wilmer'
_symmetry_space_group_name_H-M	'P1'
_symmetry_Int_Tables_number	1
_symmetry_cell_setting	triclinic
loop_
_symmetry_equiv_pos_as_xyz
  x,y,z
_cell_length_a	17.640112
_cell_length_b	25.639239
_cell_length_c	17.638773
_cell_angle_alpha	101.190494
_cell_angle_beta	87.800676
_cell_angle_gamma	101.263838
loop_
_atom_site_label
_atom_site_type_symbol
_atom_site_fract_x
_atom_site_fract_y
_atom_site_fract_z
Zn1	Zn	1.247721	-0.067218	-0.195077
Zn2	Zn	1.221939	-0.141119	-0.068097
Zn3	Zn	1.095065	-0.074113	-0.093725
Zn4	Zn	1.120643	-0.175061	-0.220677
O5	O	1.171342	-0.114378	-0.144394
O6	O	1.350581	-0.059931	-0.156794
O7	O	1.183615	-0.120912	0.034774
O8	O	1.115401	-0.000023	-0.107181
O9	O	1.331639	-0.114226	-0.063503
O10	O	1.227557	0.005043	-0.181644
O11	O	1.090401	-0.071682	0.015946
O12	O	0.992179	-0.104594	-0.132004
O13	O	1.158995	-0.172074	-0.323552
O14	O	1.010971	-0.178760	-0.225275
O15	O	1.252359	-0.092843	-0.304744
O16	O	1.208417	-0.218797	-0.088326
O17	O	1.133995	-0.243734	-0.200425
C18	C	0.974018	-0.146108	-0.184199
C19	C	0.889605	-0.159698	-0.201246
C20	C	1.171208	-0.250237	-0.144385
C21	C	1.171224	-0.308350	-0.144393
C22	C	0.563032	-0.011135	-0.014898
C23	C	0.483716	-0.023915	-0.030926
C24	C	0.503304	-0.101219	-0.127882
C25	C	0.582625	-0.088443	-0.111864
C26	C	0.612482	-0.043401	-0.055371
C27	C	0.632074	-0.120709	-0.152337
C28	C	0.711387	-0.107936	-0.136318
C29	C	0.741250	-0.062897	-0.079826
C30	C	0.691795	-0.030627	-0.039352
C31	C	0.602215	-0.165753	-0.208827
C32	C	0.651664	-0.198019	-0.249300
C33	C	0.730979	-0.185244	-0.233284
C34	C	0.760843	-0.140205	-0.176792
C35	C	0.780435	-0.217513	-0.273759
C36	C	0.859748	-0.204740	-0.257739
C37	C	0.840155	-0.127432	-0.160773
C38	C	1.210237	-0.655689	-0.086081
C39	C	1.210268	-0.710289	-0.086085
O40	O	1.243298	-0.727470	-0.036495
N41	N	1.171486	-0.750601	-0.144417
C42	C	1.132676	-0.736309	-0.202754
O43	O	1.099692	-0.775610	-0.252370
C44	C	1.132649	-0.681709	-0.202752
C45	C	1.171428	-0.641400	-0.144411
C46	C	1.249013	-0.615381	-0.027746
C47	C	1.248980	-0.560784	-0.027741
C48	C	1.210171	-0.546495	-0.086071
C49	C	1.171395	-0.586803	-0.144407
C50	C	1.093844	-0.667418	-0.261090
C51	C	1.093822	-0.612813	-0.261084
C52	C	1.132600	-0.572504	-0.202743
C53	C	1.132553	-0.517918	-0.202732
N54	N	1.171336	-0.477606	-0.144400
C55	C	1.210145	-0.491895	-0.086070
C56	C	1.132735	-0.850972	-0.202754
C57	C	1.132757	-0.905571	-0.202753
C58	C	1.210351	-0.879548	-0.086085
C59	C	1.210324	-0.824948	-0.086084
C60	C	1.171518	-0.810660	-0.144422
C61	C	1.210072	-0.377239	-0.086064
C62	C	1.210033	-0.322639	-0.086062
C63	C	1.132443	-0.348667	-0.202732
C64	C	1.132478	-0.403262	-0.202731
C65	C	1.171299	-0.417546	-0.144393
O66	O	1.099543	-0.500697	-0.252299
O67	O	1.243132	-0.452589	-0.036467
C68	C	1.369437	-0.082524	-0.104434
C69	C	1.453854	-0.068949	-0.087405
C70	C	1.211406	-0.135475	-0.342473
C71	C	1.228479	-0.144466	-0.426883
C72	C	1.171502	0.022014	-0.144416
C73	C	1.171569	0.080136	-0.144425
C74	C	1.301069	-0.182766	-0.536054
C75	C	1.285021	-0.174315	-0.456739
C76	C	1.187965	-0.123053	-0.476336
C77	C	1.204007	-0.131497	-0.555653
C78	C	1.260560	-0.161355	-0.585506
C79	C	1.163498	-0.110086	-0.605105
C80	C	1.179537	-0.118532	-0.684416
C81	C	1.236085	-0.148390	-0.714275
C82	C	1.276599	-0.169801	-0.664817
C83	C	1.106942	-0.080232	-0.575252
C84	C	1.066433	-0.058821	-0.624704
C85	C	1.082475	-0.067264	-0.704016
C86	C	1.139023	-0.097121	-0.733875
C87	C	1.041962	-0.045852	-0.753474
C88	C	1.058000	-0.054298	-0.832785
C89	C	1.155062	-0.105567	-0.813186
C90	C	1.131478	-0.093317	0.052924
C91	C	1.114553	-0.084156	0.137363
H92	H	0.864469	-0.090747	-0.114781
H93	H	0.478983	-0.137893	-0.173877
Cl94	Cl	1.297747	-0.510117	0.045596
Cl95	Cl	1.258874	-0.395187	-0.012722
Cl96	Cl	0.421550	0.016650	0.019967
Cl97	Cl	0.970874	-0.008315	-0.715934
Cl98	Cl	1.007090	-0.027368	-0.894954
Cl99	Cl	1.256249	-0.159009	-0.813982
H100	H	0.537632	-0.176152	-0.221867
Cl101	Cl	0.614120	-0.254647	-0.320308
Cl102	Cl	1.083709	-0.453939	-0.276062
Cl103	Cl	1.083994	-0.956240	-0.276091
H104	H	1.062222	-0.601185	-0.308592
Cl105	Cl	0.840958	-0.046840	-0.059682
H106	H	1.280620	-0.627007	0.019755
Cl107	Cl	1.083662	-0.330692	-0.276061
Cl108	Cl	1.045102	-0.718079	-0.334444
H109	H	1.241902	-0.792130	-0.038578
Cl110	Cl	0.729336	0.026001	0.031665
Cl111	Cl	0.742887	-0.274144	-0.344761
H112	H	1.201119	-0.129875	-0.837491
Cl113	Cl	1.259138	-0.897521	-0.012754
H114	H	1.101128	-0.839344	-0.250258
H115	H	1.141917	-0.098745	-0.452019
Cl116	Cl	1.258788	-0.271967	-0.012715
Cl117	Cl	0.600574	0.045494	0.056119
Cl118	Cl	0.921917	-0.245304	-0.308618
Cl119	Cl	1.347707	-0.207326	-0.702349
Cl120	Cl	1.335950	-0.201239	-0.394573
Cl121	Cl	1.372177	-0.220292	-0.573586
H122	H	1.093878	-0.073362	-0.510673
H123	H	1.020386	-0.034513	-0.600387
