data_functionalizedCrystal
_audit_creation_method	'MofGen! by Chris Wilmer'
_symmetry_space_group_name_H-M	'P1'
_symmetry_Int_Tables_number	1
_symmetry_cell_setting	triclinic
loop_
_symmetry_equiv_pos_as_xyz
  x,y,z
_cell_length_a	17.640112
_cell_length_b	13.897447
_cell_length_c	17.640968
_cell_angle_alpha	101.230028
_cell_angle_beta	87.860920
_cell_angle_gamma	101.244075
loop_
_atom_site_label
_atom_site_type_symbol
_atom_site_fract_x
_atom_site_fract_y
_atom_site_fract_z
Zn1	Zn	1.247780	-0.027714	0.195081
Zn2	Zn	1.747780	0.472286	0.695081
Zn3	Zn	1.222020	-0.226719	0.068102
Zn4	Zn	1.722020	0.273281	0.568102
Zn5	Zn	1.095115	-0.090459	0.093728
Zn6	Zn	1.595115	0.409541	0.593728
Zn7	Zn	1.120760	-0.214022	0.220684
Zn8	Zn	1.620760	0.285978	0.720684
O9	O	1.171418	-0.139729	0.144399
O10	O	1.671418	0.360271	0.644399
O11	O	1.350631	-0.033168	0.156797
O12	O	1.850631	0.466832	0.656797
O13	O	1.183672	-0.240217	-0.034771
O14	O	1.683672	0.259783	0.465229
O15	O	1.115414	0.052860	0.107182
O16	O	1.615414	0.552860	0.607182
O17	O	1.331705	-0.179376	0.063506
O18	O	1.831705	0.320624	0.563506
O19	O	1.227576	0.098958	0.181645
O20	O	1.727576	0.598958	0.681645
O21	O	1.090436	-0.140107	-0.015944
O22	O	1.590436	0.359893	0.484056
O23	O	0.992248	-0.127795	0.132008
O24	O	1.492248	0.372205	0.632008
O25	O	1.159123	-0.157736	0.323560
O26	O	1.659123	0.342264	0.823560
O27	O	1.011090	-0.218577	0.225282
O28	O	1.511090	0.281423	0.725282
O29	O	1.252443	-0.020856	0.304749
O30	O	1.752443	0.479144	0.804749
O31	O	1.208539	-0.360031	0.088333
O32	O	1.708539	0.139969	0.588333
O33	O	1.134144	-0.350702	0.200434
O34	O	1.634144	0.149298	0.700434
C35	C	0.974115	-0.178617	0.184205
C36	C	1.474115	0.321383	0.684205
C37	C	0.889711	-0.195272	0.201252
C38	C	1.389711	0.304728	0.701252
C39	C	1.171353	-0.390361	0.144393
C40	C	1.671353	0.109639	0.644393
C41	C	1.171400	-0.497561	0.144403
C42	C	1.671400	0.002439	0.644403
C43	C	0.563040	-0.013187	0.014898
C44	C	1.063040	0.486813	0.514898
C45	C	0.483732	-0.028853	0.030927
C46	C	0.983732	0.471147	0.530927
C47	C	0.503372	-0.123604	0.127886
C48	C	1.003372	0.376396	0.627886
C49	C	0.582684	-0.107942	0.111868
C50	C	1.082684	0.392058	0.611868
C51	C	0.612511	-0.052734	0.055373
C52	C	1.112511	0.447266	0.555373
C53	C	0.632155	-0.147488	0.152342
C54	C	1.132155	0.352512	0.652342
C55	C	0.711459	-0.131831	0.136322
C56	C	1.211459	0.368169	0.636322
C57	C	0.741292	-0.076628	0.079828
C58	C	1.241292	0.423372	0.579828
C59	C	0.691815	-0.037077	0.039353
C60	C	1.191815	0.462923	0.539353
C61	C	0.602325	-0.202701	0.208833
C62	C	1.102325	0.297299	0.708833
C63	C	0.651796	-0.242247	0.249307
C64	C	1.151796	0.257753	0.749307
C65	C	0.731103	-0.226585	0.233292
C66	C	1.231103	0.273415	0.733292
C67	C	0.760936	-0.171382	0.176798
C68	C	1.260936	0.328618	0.676798
C69	C	0.780580	-0.266136	0.273767
C70	C	1.280580	0.233864	0.773767
C71	C	0.859884	-0.250480	0.257747
C72	C	1.359884	0.249520	0.757747
C73	C	0.840240	-0.155726	0.160778
C74	C	1.340240	0.344274	0.660778
C75	C	1.171440	-0.584618	0.144412
C76	C	1.671440	-0.084618	0.644412
C77	C	1.171497	-0.693834	0.144421
C78	C	1.671497	-0.193834	0.644421
C79	C	1.369492	-0.100689	0.104437
C80	C	1.869492	0.399311	0.604437
C81	C	1.453900	-0.084053	0.087408
C82	C	1.953900	0.415947	0.587408
C83	C	1.211517	-0.080881	0.342480
C84	C	1.711517	0.419119	0.842480
C85	C	1.228605	-0.055803	0.426891
C86	C	1.728605	0.444197	0.926891
C87	C	1.171508	0.111891	0.144416
C88	C	1.671508	0.611891	0.644416
C89	C	1.171546	0.219116	0.144424
C90	C	1.671546	0.719116	0.644424
C91	C	1.131520	-0.198270	-0.052921
C92	C	1.631520	0.301730	0.447079
C93	C	1.114579	-0.223046	-0.137361
C94	C	1.614579	0.276954	0.362639
C95	C	1.041897	-0.329658	0.753469
C96	C	1.541897	0.170342	1.253469
C97	C	1.057969	-0.306078	0.832783
C98	C	1.557969	0.193922	1.332783
C99	C	1.155136	-0.163558	0.813187
C100	C	1.655136	0.336442	1.313187
C101	C	1.139069	-0.187123	0.733870
C102	C	1.639069	0.312877	1.233870
C103	C	1.082449	-0.270175	0.704018
C104	C	1.582449	0.229825	1.204018
C105	C	1.179622	-0.127639	0.684419
C106	C	1.679622	0.372361	1.184419
C107	C	1.163559	-0.151206	0.605110
C108	C	1.663559	0.348794	1.105110
C109	C	1.106943	-0.234255	0.575251
C110	C	1.606943	0.265745	1.075251
C111	C	1.066386	-0.293741	0.624709
C112	C	1.566386	0.206259	1.124709
C113	C	1.236245	-0.044592	0.714272
C114	C	1.736245	0.455408	1.214272
C115	C	1.276797	0.014891	0.664821
C116	C	1.776797	0.514891	1.164821
C117	C	1.260731	-0.008670	0.585511
C118	C	1.760731	0.491330	1.085511
C119	C	1.204115	-0.091720	0.555652
C120	C	1.704115	0.408280	1.055652
C121	C	1.301288	0.050815	0.536053
C122	C	1.801288	0.550815	1.036053
C123	C	1.285224	0.027249	0.456743
C124	C	1.785224	0.527249	0.956743
C125	C	1.188052	-0.115286	0.476342
C126	C	1.688052	0.384714	0.976342
H127	H	0.864529	-0.110752	0.114785
H128	H	1.364529	0.389248	0.614785
H129	H	0.716104	0.007896	-0.006640
H130	H	1.216104	0.507896	0.493360
C131	C	0.747762	-0.326864	0.335905
C132	C	1.247762	0.173136	0.835905
H133	H	0.693447	-0.330522	0.339650
H134	H	1.193447	0.169478	0.839650
H135	H	0.758487	-0.392414	0.322082
H136	H	1.258487	0.107586	0.822082
H137	H	0.771102	-0.295105	0.384326
H138	H	1.271102	0.204895	0.884326
C139	C	0.595860	0.047547	-0.047241
C140	C	1.095860	0.547547	0.452759
H141	H	0.650176	0.051210	-0.050979
H142	H	1.150176	0.551210	0.449021
H143	H	0.572518	0.015805	-0.095659
H144	H	1.072518	0.515805	0.404341
H145	H	0.585143	0.113105	-0.033407
H146	H	1.085143	0.613105	0.466593
C147	C	0.828524	-0.059402	0.062201
C148	C	1.328524	0.440598	0.562201
H149	H	0.839200	-0.020866	0.022755
H150	H	1.339200	0.479134	0.522755
H151	H	0.856406	-0.024707	0.107602
H152	H	1.356406	0.475293	0.607602
H153	H	0.843779	-0.122014	0.045356
H154	H	1.343779	0.377986	0.545356
H155	H	1.093869	-0.253445	0.510671
H156	H	1.593869	0.246555	1.010671
C157	C	0.515091	-0.219938	0.226451
C158	C	1.015091	0.280062	0.726451
H159	H	0.504410	-0.258496	0.265883
H160	H	1.004410	0.241504	0.765883
H161	H	0.499825	-0.157339	0.243292
H162	H	0.999825	0.342661	0.743292
H163	H	0.487219	-0.254639	0.181040
H164	H	0.987219	0.245361	0.681040
C165	C	0.429316	0.014658	-0.013594
C166	C	0.929316	0.514658	0.486406
H167	H	0.458442	0.049785	-0.049529
H168	H	0.958442	0.549785	0.450471
H169	H	0.391657	-0.038128	-0.040481
H170	H	0.891657	0.461872	0.459519
H171	H	0.404286	0.059178	0.021765
H172	H	0.904286	0.559178	0.521765
H173	H	0.627499	-0.287201	0.295304
H174	H	1.127499	0.212799	0.795304
H175	H	0.479075	-0.168557	0.173882
H176	H	0.979075	0.331443	0.673882
H177	H	0.995773	-0.397268	0.729166
H178	H	1.495773	0.102732	1.229166
C179	C	1.004101	-0.385091	0.591863
C180	C	1.504101	0.114909	1.091863
H181	H	1.000342	-0.390599	0.537547
H182	H	1.500342	0.109401	1.037547
H183	H	1.017817	-0.443859	0.602613
H184	H	1.517817	0.056141	1.102613
H185	H	0.955713	-0.377155	0.615159
H186	H	1.455713	0.122845	1.115159
C187	C	1.217409	-0.072203	0.846030
C188	C	1.717409	0.427797	1.346030
H189	H	1.221165	-0.066681	0.900347
H190	H	1.721165	0.433319	1.400347
H191	H	1.265796	-0.080117	0.822732
H192	H	1.765796	0.419883	1.322732
H193	H	1.203673	-0.013440	0.835281
H194	H	1.703673	0.486560	1.335281
C195	C	0.914305	-0.293974	0.302270
C196	C	1.414305	0.206026	0.802270
H197	H	0.885185	-0.329087	0.338216
H198	H	1.385185	0.170913	0.838216
H199	H	0.939340	-0.338486	0.266916
H200	H	1.439340	0.161514	0.766916
H201	H	0.951961	-0.241176	0.329158
H202	H	1.451961	0.258824	0.829158
C203	C	1.013356	-0.371514	0.887178
C204	C	1.513356	0.128486	1.387178
H205	H	0.977333	-0.424346	0.858038
H206	H	1.477333	0.075654	1.358038
H207	H	1.048656	-0.398626	0.912252
H208	H	1.548656	0.101374	1.412252
H209	H	0.986543	-0.331937	0.924797
H210	H	1.486543	0.168063	1.424797
C211	C	1.363570	0.142161	0.568892
C212	C	1.863570	0.642161	1.068892
H213	H	1.385426	0.174209	0.528080
H214	H	1.885426	0.674209	1.028080
H215	H	1.340808	0.187661	0.605702
H216	H	1.840808	0.687661	1.105702
H217	H	1.402913	0.120959	0.593143
H218	H	1.902913	0.620959	1.093143
C219	C	1.125767	-0.206636	0.443497
C220	C	1.625767	0.293364	0.943497
H221	H	1.122007	-0.212144	0.389181
H222	H	1.622007	0.287856	0.889181
H223	H	1.139483	-0.265405	0.454246
H224	H	1.639483	0.234595	0.954246
H225	H	1.077379	-0.198701	0.466792
H226	H	1.577379	0.301299	0.966792
H227	H	1.249323	-0.025409	0.778852
H228	H	1.749323	0.474591	1.278852
C229	C	1.339071	0.106247	0.697664
C230	C	1.839071	0.606247	1.197664
H231	H	1.342826	0.111768	0.751982
H232	H	1.842826	0.611768	1.251982
H233	H	1.387457	0.098333	0.674367
H234	H	1.887457	0.598333	1.174367
H235	H	1.325335	0.165009	0.686915
H236	H	1.825335	0.665009	1.186915
C237	C	1.329823	0.092686	0.402346
C238	C	1.829823	0.592686	0.902346
H239	H	1.365836	0.145531	0.431484
H240	H	1.865836	0.645531	0.931484
H241	H	1.356632	0.053118	0.364723
H242	H	1.856632	0.553118	0.864723
H243	H	1.294511	0.119797	0.377279
H244	H	1.794511	0.619797	0.877279
