data_functionalizedCrystal
_audit_creation_method	'MofGen! by Chris Wilmer'
_symmetry_space_group_name_H-M	'P1'
_symmetry_Int_Tables_number	1
_symmetry_cell_setting	triclinic
loop_
_symmetry_equiv_pos_as_xyz
  x,y,z
_cell_length_a	21.883469
_cell_length_b	21.882911
_cell_length_c	21.879399
_cell_angle_alpha	60.006540
_cell_angle_beta	60.013207
_cell_angle_gamma	59.992231
loop_
_atom_site_label
_atom_site_type_symbol
_atom_site_fract_x
_atom_site_fract_y
_atom_site_fract_z
O1	O	0.084645	-0.892842	0.746620
O2	O	0.031867	-0.695139	0.601571
O3	O	0.157054	-0.820237	0.601476
O4	O	-0.040542	-0.767744	0.746716
O5	O	0.198586	-0.778715	0.642912
O6	O	0.073399	-0.653617	0.643007
O7	O	0.126177	-0.851320	0.788056
Cu8	Cu	0.103580	-0.748677	0.719315
Cu9	Cu	0.054464	-0.797782	0.670313
O10	O	0.000990	-0.726222	0.788151
N11	N	0.138128	-0.714145	0.753785
N12	N	0.019923	-0.832320	0.635843
C13	C	0.190018	-0.547369	0.805644
C14	C	0.190029	-0.662289	0.805630
C15	C	0.218780	-0.633565	0.834353
C16	C	0.344122	-0.611968	0.768360
C17	C	0.422474	-0.638085	0.742222
C18	C	0.422504	-0.764859	0.790561
C19	C	0.344154	-0.738739	0.816702
C20	C	0.208899	-0.508180	0.728617
C21	C	0.182748	-0.429822	0.702522
C22	C	0.118843	-0.429847	0.830485
C23	C	0.144993	-0.508205	0.856580
C24	C	0.112994	-0.643364	0.824587
C25	C	0.086865	-0.669476	0.798467
C26	C	0.214799	-0.733437	0.734451
C27	C	0.240932	-0.707325	0.760562
C28	C	0.113084	-0.643389	0.959747
C29	C	0.087018	-0.669524	1.038102
C30	C	0.214996	-0.733501	1.038048
C31	C	0.241061	-0.707367	0.959690
C32	C	0.190103	-0.662308	0.920542
C33	C	0.304966	-0.662293	0.805598
C34	C	-0.117460	-0.854702	0.612901
C35	C	-0.002405	-0.854864	0.498145
C36	C	-0.002621	-0.969735	0.613108
C37	C	-0.002603	-0.854858	0.613180
C38	C	-0.031272	-0.883541	0.584334
N39	N	0.460550	-0.714150	0.753681
O40	O	0.699805	-0.721060	0.574973
O41	O	0.700047	-0.866553	0.772482
O42	O	0.699952	-0.866219	0.647213
O43	O	0.699900	-0.721394	0.700242
O44	O	0.575478	-0.824800	0.688791
O45	O	0.575573	-0.825134	0.814060
O46	O	0.575331	-0.679641	0.616551
Cu47	Cu	0.564087	-0.748606	0.719102
Cu48	Cu	0.711292	-0.797588	0.669931
O49	O	0.575426	-0.679975	0.741820
N50	N	0.814828	-0.832044	0.635345
N51	N	0.138106	-0.391772	0.753815
O52	O	-0.040520	-0.152377	0.746758
O53	O	0.156993	-0.152371	0.601281
O54	O	0.031698	-0.152390	0.601639
O55	O	0.084775	-0.152358	0.746401
O56	O	0.073234	-0.276876	0.643130
O57	O	0.198529	-0.276856	0.642772
O58	O	0.001015	-0.276863	0.788249
Cu59	Cu	0.103564	-0.288226	0.719299
Cu60	Cu	0.054444	-0.141007	0.670231
O61	O	0.126310	-0.276844	0.787892
N62	N	0.019892	-0.037461	0.635717
N63	N	0.138332	-0.714192	1.076133
O64	O	0.131293	-0.892804	1.315506
O65	O	-0.014162	-0.695219	1.315533
O66	O	-0.013826	-0.820490	1.315480
O67	O	0.130957	-0.767533	1.315559
O68	O	0.027651	-0.778981	1.191001
O69	O	0.027314	-0.653710	1.191054
O70	O	0.172770	-0.851295	1.191026
Cu71	Cu	0.103829	-0.748713	1.179674
Cu72	Cu	0.054778	-0.797802	1.326885
O73	O	0.172434	-0.726024	1.191079
N74	N	0.020275	-0.832331	1.430426
C75	C	0.047687	-0.649466	0.602306
C76	C	0.202716	-0.804385	0.602188
C77	C	0.110357	-0.896993	0.787321
C78	C	-0.044672	-0.742074	0.787439
C79	C	0.637839	-0.865879	0.818154
C80	C	0.637724	-0.865466	0.663023
C81	C	0.637536	-0.680313	0.570880
C82	C	0.637655	-0.680728	0.726010
C83	C	0.202592	-0.214459	0.601942
C84	C	0.047481	-0.214636	0.602435
C85	C	-0.044635	-0.214620	0.787537
C86	C	0.110528	-0.214598	0.787096
C87	C	-0.013455	-0.649572	1.253296
C88	C	-0.013030	-0.804697	1.253206
C89	C	0.172063	-0.896942	1.253263
C90	C	0.171648	-0.741808	1.253325
H91	H	0.024299	-0.654107	1.070013
H92	H	0.071582	-0.606692	0.927876
C93	C	0.233100	-0.726510	1.253345
C94	C	0.265318	-0.774970	1.317988
C95	C	0.326771	-0.759671	1.318007
C96	C	0.356006	-0.695912	1.253384
C97	C	0.323788	-0.647448	1.188736
C98	C	0.262335	-0.662747	1.188717
H99	H	0.243676	-0.822172	1.365830
H100	H	0.350620	-0.795548	1.365864
H101	H	0.401497	-0.684587	1.253398
H102	H	0.345430	-0.600246	1.140894
H103	H	0.238486	-0.626870	1.140860
H104	H	0.256495	-0.770176	1.069914
C105	C	0.233759	-0.973601	1.253254
C106	C	0.309044	-0.978703	1.188624
C107	C	0.370740	-1.055362	1.188615
C108	C	0.357152	-1.126920	1.253235
C109	C	0.281864	-1.121820	1.317870
C110	C	0.220168	-1.045161	1.317879
H111	H	0.319106	-0.925730	1.140784
H112	H	0.426473	-1.059137	1.140768
H113	H	0.402824	-1.183667	1.253228
H114	H	0.271803	-1.174794	1.365710
H115	H	0.164435	-1.041387	1.365726
C116	C	0.637435	-0.618600	0.494254
C117	C	0.637373	-0.541931	0.479309
C118	C	0.637272	-0.480218	0.402683
C119	C	0.637233	-0.495172	0.341002
C120	C	0.637295	-0.571844	0.355944
C121	C	0.637396	-0.633558	0.432571
H122	H	0.637401	-0.530858	0.524971
H123	H	0.637226	-0.423460	0.391622
H124	H	0.637158	-0.449488	0.284278
H125	H	0.637266	-0.582918	0.310282
H126	H	0.637442	-0.690316	0.443632
C127	C	0.279383	-0.819495	0.540568
C128	C	0.294432	-0.757909	0.463863
C129	C	0.371099	-0.773019	0.402243
C130	C	0.432718	-0.849714	0.417328
C131	C	0.417671	-0.911305	0.494036
C132	C	0.341003	-0.896196	0.555656
H133	H	0.248816	-0.701130	0.452693
H134	H	0.382237	-0.727425	0.345458
H135	H	0.489472	-0.860900	0.371713
H136	H	0.463286	-0.968085	0.505206
H137	H	0.329865	-0.941790	0.612441
H138	H	0.637644	-0.635235	0.737357
H139	H	0.121632	-0.953785	0.832877
C140	C	0.279060	-0.213985	0.540082
C141	C	0.327485	-0.278395	0.507547
C142	C	0.403954	-0.277920	0.445686
C143	C	0.431998	-0.213037	0.416360
C144	C	0.383572	-0.148622	0.448895
C145	C	0.307104	-0.149097	0.510756
H146	H	0.306726	-0.326430	0.529256
H147	H	0.439802	-0.325604	0.421602
H148	H	0.488605	-0.212685	0.370567
H149	H	0.404332	-0.100587	0.427186
H150	H	0.271256	-0.101412	0.534840
H151	H	-0.059121	-0.592825	1.253304
C152	C	-0.121341	-0.726966	0.849058
C153	C	-0.126467	-0.732421	0.924331
C154	C	-0.203136	-0.717313	0.985949
C155	C	-0.274680	-0.696750	0.972294
C156	C	-0.269556	-0.691294	0.897018
C157	C	-0.192887	-0.706402	0.835399
H158	H	-0.073504	-0.747644	0.934442
H159	H	-0.206928	-0.721352	1.041674
H160	H	-0.331435	-0.685566	1.017908
H161	H	-0.322519	-0.676071	0.886906
H162	H	-0.189095	-0.702363	0.779675
H163	H	0.303780	-0.722782	0.927774
C164	C	0.032463	-0.572747	0.540758
C165	C	0.037840	-0.567544	0.465484
C166	C	0.022616	-0.490825	0.403936
C167	C	0.002014	-0.419309	0.417661
C168	C	-0.003364	-0.424510	0.492937
C169	C	0.011860	-0.501229	0.554486
H170	H	0.053091	-0.620487	0.455321
H171	H	0.026598	-0.486976	0.348211
H172	H	-0.009255	-0.362517	0.372099
H173	H	-0.018616	-0.371567	0.503100
H174	H	0.007878	-0.505078	0.610210
H175	H	0.637900	-0.911553	0.874882
C176	C	0.032136	-0.214647	0.540993
C177	C	0.080577	-0.279293	0.508789
C178	C	0.065232	-0.279304	0.447347
C179	C	0.001446	-0.214669	0.418108
C180	C	-0.046999	-0.150018	0.450312
C181	C	-0.031654	-0.150007	0.511755
H182	H	0.127799	-0.327144	0.530433
H183	H	0.101095	-0.327164	0.423507
H184	H	-0.009913	-0.214677	0.372625
H185	H	-0.094221	-0.102167	0.428668
H186	H	-0.067517	-0.102148	0.535594
H187	H	0.637745	-0.910963	0.651673
H188	H	-0.101359	-0.214623	0.833209
C189	C	0.465549	-0.582727	0.701252
C190	C	0.422444	-0.498637	0.689032
C191	C	0.465521	-0.443278	0.648059
C192	C	0.551704	-0.472008	0.619306
C193	C	0.594814	-0.556102	0.631526
C194	C	0.551737	-0.611462	0.672499
H195	H	0.358642	-0.477366	0.710317
H196	H	0.433608	-0.381026	0.639013
H197	H	0.583592	-0.431027	0.588975
H198	H	0.658616	-0.577373	0.610240
H199	H	0.583650	-0.673714	0.681544
C200	C	0.125874	-0.214591	0.848539
C201	C	0.202638	-0.214584	0.833207
C202	C	0.217984	-0.214576	0.894650
C203	C	0.156565	-0.214575	0.971426
C204	C	0.079796	-0.214582	0.986762
C205	C	0.064450	-0.214590	0.925318
H206	H	0.248108	-0.214584	0.776370
H207	H	0.274814	-0.214571	0.883297
H208	H	0.167925	-0.214569	1.016910
H209	H	0.034326	-0.214581	1.043599
H210	H	0.007620	-0.214595	0.936672
H211	H	0.071542	-0.606694	0.861281
C212	C	0.002127	-0.648667	0.819311
C213	C	-0.047018	-0.671488	0.902073
C214	C	-0.131754	-0.650680	0.922916
C215	C	-0.167346	-0.607051	0.860995
C216	C	-0.118202	-0.584227	0.778228
C217	C	-0.033465	-0.605035	0.757385
H218	H	-0.020670	-0.703787	0.947915
H219	H	-0.168134	-0.667576	0.984186
H220	H	-0.230073	-0.591647	0.876424
H221	H	-0.144549	-0.551928	0.732386
H222	H	0.002915	-0.588139	0.696115
C223	C	-0.074455	-0.819967	1.253102
C224	C	-0.059121	-0.896715	1.253038
C225	C	-0.120545	-0.911985	1.252933
C226	C	-0.197304	-0.850507	1.252892
C227	C	-0.212641	-0.773754	1.252956
C228	C	-0.151217	-0.758484	1.253061
H229	H	-0.002296	-0.942229	1.253068
H230	H	-0.109191	-0.968803	1.252886
H231	H	-0.242774	-0.861811	1.252814
H232	H	-0.269466	-0.728240	1.252926
H233	H	-0.162571	-0.701666	1.253108
H234	H	0.256252	-0.770113	0.697763
H235	H	0.303660	-0.722726	0.745118
H236	H	0.454413	-0.827107	0.799589
C237	C	0.301079	-0.794099	0.857662
C238	C	0.247256	-0.801854	0.938700
C239	C	0.204181	-0.857214	0.979663
C240	C	0.214927	-0.904819	0.939588
C241	C	0.268752	-0.897066	0.858545
C242	C	0.311828	-0.841706	0.817583
H243	H	0.239299	-0.766613	0.968371
H244	H	0.164336	-0.862954	1.039656
H245	H	0.183040	-0.945800	0.969911
H246	H	0.276710	-0.932307	0.828875
H247	H	0.351673	-0.835966	0.757589
C248	C	0.301019	-0.527877	0.756148
C249	C	0.247186	-0.500759	0.823888
C250	C	0.204081	-0.416666	0.811675
C251	C	0.214810	-0.359691	0.731722
C252	C	0.268646	-0.386807	0.663976
C253	C	0.311750	-0.470900	0.676189
H254	H	0.239242	-0.542937	0.883079
H255	H	0.164228	-0.396593	0.861825
H256	H	0.182901	-0.297440	0.722681
H257	H	0.276590	-0.344630	0.604785
H258	H	0.351603	-0.490973	0.626039
C259	C	0.258421	-0.551264	0.672593
C260	C	0.337971	-0.605128	0.672914
C261	C	0.387493	-0.648212	0.616887
C262	C	0.357466	-0.637433	0.560539
C263	C	0.277912	-0.583568	0.560216
C264	C	0.228390	-0.540483	0.616243
H265	H	0.360202	-0.613109	0.714628
H266	H	0.446384	-0.688087	0.617127
H267	H	0.394125	-0.669327	0.519065
H268	H	0.255680	-0.575587	0.518502
H269	H	0.169499	-0.500608	0.616003
C270	C	0.203515	-0.386707	0.617787
C271	C	0.286254	-0.397467	0.568577
C272	C	0.307023	-0.354352	0.483843
C273	C	0.245053	-0.300478	0.448319
C274	C	0.162308	-0.289715	0.497530
C275	C	0.141539	-0.332829	0.582264
H276	H	0.332133	-0.437350	0.594873
H277	H	0.368277	-0.362320	0.447415
H278	H	0.260427	-0.268562	0.385594
H279	H	0.116429	-0.249831	0.471233
H280	H	0.080286	-0.324862	0.618692
C281	C	0.069327	-0.386756	0.886508
C282	C	0.099362	-0.397530	0.942848
C283	C	0.049847	-0.354439	0.998869
C284	C	-0.029702	-0.300574	0.998550
C285	C	-0.059741	-0.289797	0.942208
C286	C	-0.010226	-0.332888	0.886187
H287	H	0.158253	-0.437407	0.943086
H288	H	0.072084	-0.362417	1.040577
H289	H	-0.066356	-0.268675	1.040020
H290	H	-0.118632	-0.249921	0.941970
H291	H	-0.032463	-0.324911	0.844479
H292	H	0.129609	-0.540114	0.919306
