data_functionalizedCrystal
_audit_creation_method	'MofGen! by Chris Wilmer'
_symmetry_space_group_name_H-M	'P1'
_symmetry_Int_Tables_number	1
_symmetry_cell_setting	triclinic
loop_
_symmetry_equiv_pos_as_xyz
  x,y,z
_cell_length_a	19.121241
_cell_length_b	19.120786
_cell_length_c	19.805399
_cell_angle_alpha	87.531070
_cell_angle_beta	87.537729
_cell_angle_gamma	94.790376
loop_
_atom_site_label
_atom_site_type_symbol
_atom_site_fract_x
_atom_site_fract_y
_atom_site_fract_z
Zn1	Zn	1.063748	-0.234359	-0.416871
Zn2	Zn	1.313748	0.015641	-0.166871
Zn3	Zn	1.563748	0.265641	0.083129
Zn4	Zn	1.813748	0.515641	0.333129
Zn5	Zn	1.058642	-0.352035	-0.298631
Zn6	Zn	1.308642	-0.102035	-0.048631
Zn7	Zn	1.558642	0.147965	0.201369
Zn8	Zn	1.808642	0.397965	0.451369
Zn9	Zn	0.946082	-0.239388	-0.298644
Zn10	Zn	1.196082	0.010612	-0.048644
Zn11	Zn	1.446082	0.260612	0.201356
Zn12	Zn	1.696082	0.510612	0.451356
Zn13	Zn	0.941028	-0.357005	-0.406732
Zn14	Zn	1.191028	-0.107005	-0.156732
Zn15	Zn	1.441028	0.142995	0.093268
Zn16	Zn	1.691028	0.392995	0.343268
O17	O	1.002375	-0.295697	-0.355220
O18	O	1.252375	-0.045697	-0.105220
O19	O	1.502375	0.204303	0.144780
O20	O	1.752375	0.454303	0.394780
O21	O	1.161536	-0.245784	-0.405424
O22	O	1.411536	0.004216	-0.155424
O23	O	1.661536	0.254216	0.094576
O24	O	1.911536	0.504216	0.344576
O25	O	1.043688	-0.337117	-0.203914
O26	O	1.293688	-0.087117	0.046086
O27	O	1.543688	0.162883	0.296086
O28	O	1.793688	0.412883	0.546086
O29	O	0.965942	-0.140249	-0.318576
O30	O	1.215942	0.109751	-0.068576
O31	O	1.465942	0.359751	0.181424
O32	O	1.715942	0.609751	0.431424
O33	O	1.157785	-0.332241	-0.318554
O34	O	1.407785	-0.082241	-0.068554
O35	O	1.657785	0.167759	0.181446
O36	O	1.907785	0.417759	0.431446
O37	O	1.052392	-0.136555	-0.405437
O38	O	1.302392	0.113445	-0.155437
O39	O	1.552392	0.363445	0.094563
O40	O	1.802392	0.613445	0.344563
O41	O	0.960991	-0.254355	-0.203924
O42	O	1.210991	-0.004355	0.046076
O43	O	1.460991	0.245645	0.296076
O44	O	1.710991	0.495645	0.546076
O45	O	0.846946	-0.259174	-0.308745
O46	O	1.096946	-0.009174	-0.058745
O47	O	1.346946	0.240826	0.191255
O48	O	1.596946	0.490826	0.441255
O49	O	0.957330	-0.340711	-0.502795
O50	O	1.207330	-0.090711	-0.252795
O51	O	1.457330	0.159289	-0.002795
O52	O	1.707330	0.409289	0.247205
O53	O	0.843233	-0.345587	-0.388156
O54	O	1.093233	-0.095587	-0.138156
O55	O	1.343233	0.154413	0.111844
O56	O	1.593233	0.404413	0.361844
O57	O	1.047491	-0.250604	-0.510244
O58	O	1.297491	-0.000604	-0.260244
O59	O	1.547491	0.249396	-0.010244
O60	O	1.797491	0.499396	0.239756
O61	O	1.038788	-0.451166	-0.308722
O62	O	1.288788	-0.201166	-0.058722
O63	O	1.538788	0.048834	0.191278
O64	O	1.788788	0.298834	0.441278
O65	O	0.952378	-0.454817	-0.388143
O66	O	1.202378	-0.204817	-0.138143
O67	O	1.452378	0.045183	0.111857
O68	O	1.702378	0.295183	0.361857
C69	C	0.819559	-0.303466	-0.347352
C70	C	1.069559	-0.053466	-0.097352
C71	C	1.319559	0.196534	0.152648
C72	C	1.569559	0.446534	0.402648
C73	C	0.741348	-0.306807	-0.344001
C74	C	0.991348	-0.056807	-0.094001
C75	C	1.241348	0.193193	0.155999
C76	C	1.491348	0.443193	0.405999
C77	C	0.994500	-0.478523	-0.347347
C78	C	1.244500	-0.228523	-0.097347
C79	C	1.494500	0.021477	0.152653
C80	C	1.744500	0.271477	0.402653
C81	C	0.991195	-0.556734	-0.344004
C82	C	1.241195	-0.306734	-0.094004
C83	C	1.491195	-0.056734	0.155996
C84	C	1.741195	0.193266	0.405996
C85	C	1.034619	-0.591495	-0.387691
C86	C	1.284619	-0.341495	-0.137691
C87	C	1.534619	-0.091495	0.112309
C88	C	1.784619	0.158505	0.362309
C89	C	1.031511	-0.664983	-0.384551
C90	C	1.281511	-0.414983	-0.134551
C91	C	1.531511	-0.164983	0.115449
C92	C	1.781511	0.085017	0.365449
C93	C	0.984982	-0.703708	-0.337721
C94	C	1.234982	-0.453708	-0.087721
C95	C	1.484982	-0.203708	0.162279
C96	C	1.734982	0.046292	0.412279
C97	C	0.941554	-0.668942	-0.294032
C98	C	1.191554	-0.418942	-0.044032
C99	C	1.441554	-0.168942	0.205968
C100	C	1.691554	0.081058	0.455968
C101	C	0.944659	-0.595456	-0.297175
C102	C	1.194659	-0.345456	-0.047175
C103	C	1.444659	-0.095456	0.202825
C104	C	1.694659	0.154544	0.452825
C105	C	0.973354	-0.925689	-0.325968
C106	C	1.223354	-0.675689	-0.075968
C107	C	1.473354	-0.425689	0.174032
C108	C	1.723354	-0.175689	0.424032
C109	C	0.970254	-0.999180	-0.322827
C110	C	1.220254	-0.749180	-0.072827
C111	C	1.470254	-0.499180	0.177173
C112	C	1.720254	-0.249180	0.427173
C113	C	1.060210	-0.995216	-0.413347
C114	C	1.310210	-0.745216	-0.163347
C115	C	1.560210	-0.495216	0.086653
C116	C	1.810210	-0.245216	0.336653
C117	C	1.063314	-0.921728	-0.416484
C118	C	1.313314	-0.671728	-0.166484
C119	C	1.563314	-0.421728	0.083516
C120	C	1.813314	-0.171728	0.333516
C121	C	1.019883	-0.886969	-0.372797
C122	C	1.269883	-0.636969	-0.122797
C123	C	1.519883	-0.386969	0.127203
C124	C	1.769883	-0.136969	0.377203
C125	C	0.981806	-0.778825	-0.334509
C126	C	1.231806	-0.528825	-0.084509
C127	C	1.481806	-0.278825	0.165491
C128	C	1.731806	-0.028825	0.415491
C129	C	1.023056	-0.811854	-0.376013
C130	C	1.273056	-0.561854	-0.126013
C131	C	1.523056	-0.311854	0.123987
C132	C	1.773056	-0.061854	0.373987
C133	C	0.706556	-0.263435	-0.387719
C134	C	0.956556	-0.013435	-0.137719
C135	C	1.206556	0.236565	0.112281
C136	C	1.456556	0.486565	0.362281
C137	C	0.633069	-0.266571	-0.384565
C138	C	0.883069	-0.016571	-0.134565
C139	C	1.133069	0.233429	0.115435
C140	C	1.383069	0.483429	0.365435
C141	C	0.594375	-0.313083	-0.337696
C142	C	0.844375	-0.063083	-0.087696
C143	C	1.094375	0.186917	0.162304
C144	C	1.344375	0.436917	0.412304
C145	C	0.629173	-0.356457	-0.293974
C146	C	0.879173	-0.106457	-0.043974
C147	C	1.129173	0.143543	0.206026
C148	C	1.379173	0.393543	0.456026
C149	C	0.702659	-0.353317	-0.297125
C150	C	0.952659	-0.103317	-0.047125
C151	C	1.202659	0.146683	0.202875
C152	C	1.452659	0.396683	0.452875
C153	C	0.372399	-0.324808	-0.325913
C154	C	0.622399	-0.074808	-0.075913
C155	C	0.872399	0.175192	0.174087
C156	C	1.122399	0.425192	0.424087
C157	C	0.298908	-0.327946	-0.322767
C158	C	0.548908	-0.077946	-0.072767
C159	C	0.798908	0.172054	0.177233
C160	C	1.048908	0.422054	0.427233
C161	C	0.302809	-0.238059	-0.413357
C162	C	0.552809	0.011941	-0.163357
C163	C	0.802809	0.261941	0.086643
C164	C	1.052809	0.511941	0.336643
C165	C	0.376295	-0.234926	-0.416507
C166	C	0.626295	0.015074	-0.166507
C167	C	0.876295	0.265074	0.083493
C168	C	1.126295	0.515074	0.333493
C169	C	0.411087	-0.278297	-0.372782
C170	C	0.661087	-0.028297	-0.122782
C171	C	0.911087	0.221703	0.127218
C172	C	1.161087	0.471703	0.377218
C173	C	0.519260	-0.316291	-0.334473
C174	C	0.769260	-0.066291	-0.084473
C175	C	1.019260	0.183709	0.165527
C176	C	1.269260	0.433709	0.415527
C177	C	0.486201	-0.275085	-0.376003
C178	C	0.736201	-0.025085	-0.126003
C179	C	0.986201	0.224915	0.123997
C180	C	1.236201	0.474915	0.373997
C181	C	1.185906	-0.287897	-0.363118
C182	C	1.435906	-0.037897	-0.113118
C183	C	1.685906	0.212103	0.136882
C184	C	1.935906	0.462103	0.386882
C185	C	1.264115	-0.284574	-0.366484
C186	C	1.514115	-0.034574	-0.116484
C187	C	1.764115	0.215426	0.133516
C188	C	2.014115	0.465426	0.383516
C189	C	1.002416	-0.295651	-0.531766
C190	C	1.252416	-0.045651	-0.281766
C191	C	1.502416	0.204349	-0.031766
C192	C	1.752416	0.454349	0.218234
C193	C	1.002434	-0.295631	-0.606999
C194	C	1.252434	-0.045631	-0.356999
C195	C	1.502434	0.204369	-0.106999
C196	C	1.752434	0.454369	0.143001
C197	C	1.010300	-0.112156	-0.363139
C198	C	1.260300	0.137844	-0.113139
C199	C	1.510300	0.387844	0.136861
C200	C	1.760300	0.637844	0.386861
C201	C	1.013678	-0.033941	-0.366514
C202	C	1.263678	0.216059	-0.116514
C203	C	1.513678	0.466059	0.133486
C204	C	1.763678	0.716059	0.383486
C205	C	1.049382	-0.248710	-0.646224
C206	C	1.299382	0.001290	-0.396224
C207	C	1.549382	0.251290	-0.146224
C208	C	1.799382	0.501290	0.103776
C209	C	1.049391	-0.248689	-0.716913
C210	C	1.299391	0.001311	-0.466913
C211	C	1.549391	0.251311	-0.216913
C212	C	1.799391	0.501311	0.033087
C213	C	1.002453	-0.295594	-0.748377
C214	C	1.252453	-0.045594	-0.498377
C215	C	1.502453	0.204406	-0.248377
C216	C	1.752453	0.454406	0.001623
C217	C	0.955500	-0.342517	-0.709148
C218	C	1.205500	-0.092517	-0.459148
C219	C	1.455500	0.157483	-0.209148
C220	C	1.705500	0.407483	0.040852
C221	C	0.955489	-0.342534	-0.638460
C222	C	1.205489	-0.092534	-0.388460
C223	C	1.455489	0.157466	-0.138460
C224	C	1.705489	0.407466	0.111540
C225	C	0.955542	-0.342450	-0.994226
C226	C	1.205542	-0.092450	-0.744226
C227	C	1.455542	0.157550	-0.494226
C228	C	1.705542	0.407550	-0.244226
C229	C	0.955558	-0.342431	-1.064920
C230	C	1.205558	-0.092431	-0.814920
C231	C	1.455558	0.157569	-0.564920
C232	C	1.705558	0.407569	-0.314920
C233	C	1.049444	-0.248605	-1.072680
C234	C	1.299444	0.001395	-0.822680
C235	C	1.549444	0.251395	-0.572680
C236	C	1.799444	0.501395	-0.322680
C237	C	1.049433	-0.248622	-1.001991
C238	C	1.299433	0.001378	-0.751991
C239	C	1.549433	0.251378	-0.501991
C240	C	1.799433	0.501378	-0.251991
C241	C	1.002478	-0.295542	-0.962768
C242	C	1.252478	-0.045542	-0.712768
C243	C	1.502478	0.204458	-0.462768
C244	C	1.752478	0.454458	-0.212768
C245	C	1.002468	-0.295563	-0.886118
C246	C	1.252468	-0.045563	-0.636118
C247	C	1.502468	0.204437	-0.386118
C248	C	1.752468	0.454437	-0.136118
C249	C	1.002465	-0.295577	-0.825026
C250	C	1.252465	-0.045577	-0.575026
C251	C	1.502465	0.204423	-0.325026
C252	C	1.752465	0.454423	-0.075026
C253	C	1.002377	-0.295690	-0.179364
C254	C	1.252377	-0.045690	0.070636
C255	C	1.502377	0.204310	0.320636
C256	C	1.752377	0.454310	0.570636
C257	C	1.002504	-0.295506	-0.104145
C258	C	1.252504	-0.045506	0.145855
C259	C	1.502504	0.204494	0.395855
C260	C	1.752504	0.454494	0.645855
H261	H	1.072510	-0.559970	-0.425822
H262	H	1.322510	-0.309970	-0.175822
H263	H	1.572510	-0.059970	0.074178
H264	H	1.822510	0.190030	0.324178
H265	H	0.487748	-0.354161	-0.296312
H266	H	0.737748	-0.104161	-0.046312
H267	H	0.987748	0.145839	0.203688
H268	H	1.237748	0.395839	0.453688
F269	F	1.072570	-0.770639	-0.425855
F270	F	1.322570	-0.520639	-0.175855
F271	F	1.572570	-0.270639	0.074145
F272	F	1.822570	-0.020639	0.324145
H273	H	0.917252	-0.380735	-0.606524
H274	H	1.167252	-0.130735	-0.356524
H275	H	1.417252	0.119265	-0.106524
H276	H	1.667252	0.369265	0.143476
F277	F	1.077720	-0.701976	-0.431056
F278	F	1.327720	-0.451976	-0.181056
F279	F	1.577720	-0.201976	0.068944
F280	F	1.827720	0.048024	0.318944
H281	H	0.943925	-0.810363	-0.296378
H282	H	1.193925	-0.560363	-0.046378
H283	H	1.443925	-0.310363	0.203622
H284	H	1.693925	-0.060363	0.453622
H285	H	0.917280	-0.380705	-0.734772
H286	H	1.167280	-0.130705	-0.484772
H287	H	1.417280	0.119295	-0.234772
H288	H	1.667280	0.369295	0.015228
H289	H	0.267405	-0.365825	-0.284600
H290	H	0.517405	-0.115825	-0.034600
H291	H	0.767405	0.134175	0.215400
H292	H	1.017405	0.384175	0.465400
H293	H	1.101201	-0.890200	-0.454617
H294	H	1.351201	-0.640200	-0.204617
H295	H	1.601201	-0.390200	0.045383
H296	H	1.851201	-0.140200	0.295383
F297	F	0.587991	-0.405955	-0.244089
F298	F	0.837991	-0.155955	0.005911
F299	F	1.087991	0.094045	0.255911
F300	F	1.337991	0.344045	0.505911
H301	H	1.095568	-1.023525	-0.448915
H302	H	1.345568	-0.773525	-0.198915
H303	H	1.595568	-0.523525	0.051085
H304	H	1.845568	-0.273525	0.301085
H305	H	0.932362	-1.030709	-0.284691
H306	H	1.182362	-0.780709	-0.034691
H307	H	1.432362	-0.530709	0.215309
H308	H	1.682362	-0.280709	0.465309
F309	F	0.905568	-0.392387	-0.952491
F310	F	1.155568	-0.142387	-0.702491
F311	F	1.405568	0.107613	-0.452491
F312	F	1.655568	0.357613	-0.202491
F313	F	0.927126	-0.888705	-0.279478
F314	F	1.177126	-0.638705	-0.029478
F315	F	1.427126	-0.388705	0.220522
F316	F	1.677126	-0.138705	0.470522
F317	F	0.892029	-0.710159	-0.244197
F318	F	1.142029	-0.460159	0.005803
F319	F	1.392029	-0.210159	0.255803
F320	F	1.642029	0.039841	0.505803
F321	F	1.099344	-0.198790	-0.612744
F322	F	1.349344	0.051210	-0.362744
F323	F	1.599344	0.301210	-0.112744
F324	F	1.849344	0.551210	0.137256
H325	H	0.517708	-0.237213	-0.414160
H326	H	0.767708	0.012787	-0.164160
H327	H	1.017708	0.262787	0.085840
H328	H	1.267708	0.512787	0.335840
H329	H	1.087622	-0.210483	-0.748847
H330	H	1.337622	0.039517	-0.498847
H331	H	1.587622	0.289517	-0.248847
H332	H	1.837622	0.539517	0.001153
H333	H	0.730986	-0.388635	-0.261525
H334	H	0.980986	-0.138635	-0.011525
H335	H	1.230986	0.111365	0.238475
H336	H	1.480986	0.361365	0.488475
H337	H	1.087657	-0.210430	-0.976377
H338	H	1.337657	0.039570	-0.726377
H339	H	1.587657	0.289570	-0.476377
H340	H	1.837657	0.539570	-0.226377
F341	F	0.265776	-0.191902	-0.459888
F342	F	0.515776	0.058098	-0.209888
F343	F	0.765776	0.308098	0.040112
F344	F	1.015776	0.558098	0.290112
H345	H	0.738054	-0.225562	-0.425886
H346	H	0.988054	0.024438	-0.175886
H347	H	1.238054	0.274438	0.074114
H348	H	1.488054	0.524438	0.324114
F349	F	1.099417	-0.198665	-1.114429
F350	F	1.349417	0.051335	-0.864429
F351	F	1.599417	0.301335	-0.614429
F352	F	1.849417	0.551335	-0.364429
F353	F	0.417470	-0.185425	-0.466394
F354	F	0.667470	0.064575	-0.216394
F355	F	0.917470	0.314575	0.033606
F356	F	1.167470	0.564575	0.283606
F357	F	0.898441	-0.558461	-0.250678
F358	F	1.148441	-0.308461	-0.000678
F359	F	1.398441	-0.058461	0.249322
F360	F	1.648441	0.191539	0.499322
F361	F	0.596043	-0.220409	-0.431097
F362	F	0.846043	0.029591	-0.181097
F363	F	1.096043	0.279591	0.068903
F364	F	1.346043	0.529591	0.318903
F365	F	0.905598	-0.392355	-1.098404
F366	F	1.155598	-0.142355	-0.848404
F367	F	1.405598	0.107645	-0.598404
F368	F	1.655598	0.357645	-0.348404
H369	H	0.400717	-0.360125	-0.290310
H370	H	0.650717	-0.110125	-0.040310
H371	H	0.900717	0.139875	0.209690
H372	H	1.150717	0.389875	0.459690
