data_functionalizedCrystal
_audit_creation_method	'MofGen! by Chris Wilmer'
_symmetry_space_group_name_H-M	'P1'
_symmetry_Int_Tables_number	1
_symmetry_cell_setting	triclinic
loop_
_symmetry_equiv_pos_as_xyz
  x,y,z
_cell_length_a	14.519731
_cell_length_b	13.596369
_cell_length_c	9.065218
_cell_angle_alpha	89.995874
_cell_angle_beta	95.647631
_cell_angle_gamma	90.005416
loop_
_atom_site_label
_atom_site_type_symbol
_atom_site_fract_x
_atom_site_fract_y
_atom_site_fract_z
O1	O	1.225273	0.081789	-0.193547
O2	O	1.475273	0.331789	0.056453
O3	O	1.725273	0.581789	0.306453
O4	O	1.975273	0.831789	0.556453
O5	O	0.956966	0.081791	-0.216289
O6	O	1.206966	0.331791	0.033711
O7	O	1.456966	0.581791	0.283711
O8	O	1.706966	0.831791	0.533711
O9	O	1.096665	0.081788	0.009828
O10	O	1.346665	0.331788	0.259828
O11	O	1.596665	0.581788	0.509828
O12	O	1.846665	0.831788	0.759828
O13	O	1.085574	0.081792	-0.419663
O14	O	1.335574	0.331792	-0.169663
O15	O	1.585574	0.581792	0.080337
O16	O	1.835574	0.831792	0.330337
O17	O	1.096651	-0.081795	0.009840
O18	O	1.346651	0.168205	0.259840
O19	O	1.596651	0.418205	0.509840
O20	O	1.846651	0.668205	0.759840
O21	O	0.956952	-0.081792	-0.216277
O22	O	1.206952	0.168208	0.033723
O23	O	1.456952	0.418208	0.283723
O24	O	1.706952	0.668208	0.533723
O25	O	1.225259	-0.081793	-0.193535
O26	O	1.475259	0.168207	0.056465
O27	O	1.725259	0.418207	0.306465
O28	O	1.975259	0.668207	0.556465
Zn29	Zn	1.091103	-0.107765	-0.204904
Zn30	Zn	1.341103	0.142235	0.045096
Zn31	Zn	1.591103	0.392235	0.295096
Zn32	Zn	1.841103	0.642235	0.545096
Zn33	Zn	1.091122	0.107762	-0.204919
Zn34	Zn	1.341122	0.357762	0.045081
Zn35	Zn	1.591122	0.607762	0.295081
Zn36	Zn	1.841122	0.857762	0.545081
O37	O	1.085560	-0.081791	-0.419651
O38	O	1.335560	0.168209	-0.169651
O39	O	1.585560	0.418209	0.080349
O40	O	1.835560	0.668209	0.330349
C41	C	0.922591	-0.000001	-0.215217
C42	C	1.172591	0.249999	0.034783
C43	C	1.422591	0.499999	0.284783
C44	C	1.672591	0.749999	0.534783
C45	C	0.820188	-0.000000	-0.212024
C46	C	1.070188	0.250000	0.037976
C47	C	1.320188	0.500000	0.287976
C48	C	1.570188	0.750000	0.537976
C49	C	0.737025	0.000004	-0.209429
C50	C	0.987025	0.250004	0.040571
C51	C	1.237025	0.500004	0.290571
C52	C	1.487025	0.750004	0.540571
C53	C	0.632692	0.000004	-0.206187
C54	C	0.882692	0.250004	0.043813
C55	C	1.132692	0.500004	0.293813
C56	C	1.382692	0.750004	0.543813
C57	C	0.549534	0.000004	-0.203614
C58	C	0.799534	0.250004	0.046386
C59	C	1.049534	0.500004	0.296386
C60	C	1.299534	0.750004	0.546386
C61	C	0.445195	0.000006	-0.200372
C62	C	0.695195	0.250006	0.049628
C63	C	0.945195	0.500006	0.299628
C64	C	1.195195	0.750006	0.549628
N65	N	1.091097	-0.254857	-0.204892
N66	N	1.341097	-0.004857	0.045108
N67	N	1.591097	0.245143	0.295108
N68	N	1.841097	0.495143	0.545108
C69	C	1.091121	-0.656148	-0.204921
C70	C	1.341121	-0.406148	0.045079
C71	C	1.591121	-0.156148	0.295079
C72	C	1.841121	0.093852	0.545079
C73	C	1.091111	-0.544497	-0.204918
C74	C	1.341111	-0.294497	0.045082
C75	C	1.591111	-0.044497	0.295082
C76	C	1.841111	0.205503	0.545082
C77	C	1.091109	-0.455506	-0.204908
C78	C	1.341109	-0.205506	0.045092
C79	C	1.591109	0.044494	0.295092
C80	C	1.841109	0.294494	0.545092
C81	C	1.091099	-0.343848	-0.204902
C82	C	1.341099	-0.093848	0.045098
C83	C	1.591099	0.156152	0.295098
C84	C	1.841099	0.406152	0.545098
C85	C	1.259634	0.000000	-0.194606
C86	C	1.509634	0.250000	0.055394
C87	C	1.759634	0.500000	0.305394
C88	C	2.009634	0.750000	0.555394
C89	C	1.362037	0.000006	-0.197799
C90	C	1.612037	0.250006	0.052201
C91	C	1.862037	0.500006	0.302201
C92	C	2.112037	0.750006	0.552201
C93	C	1.095592	-0.000002	0.064801
C94	C	1.345592	0.249998	0.314801
C95	C	1.595592	0.499998	0.564801
C96	C	1.845592	0.749998	0.814801
C97	C	1.092405	0.000003	0.228584
C98	C	1.342405	0.250003	0.478584
C99	C	1.592405	0.500003	0.728584
C100	C	1.842405	0.750003	0.978584
N101	N	1.091135	0.254854	-0.204919
N102	N	1.341135	0.504854	0.045081
N103	N	1.591135	0.754854	0.295081
N104	N	1.841135	1.004854	0.545081
C105	C	1.086633	0.000001	-0.474624
C106	C	1.336633	0.250001	-0.224624
C107	C	1.586633	0.500001	0.025376
C108	C	1.836633	0.750001	0.275376
C109	C	1.089820	0.000003	-0.638408
C110	C	1.339820	0.250003	-0.388408
C111	C	1.589820	0.500003	-0.138408
C112	C	1.839820	0.750003	0.111592
