data_functionalizedCrystal
_audit_creation_method	'MofGen! by Chris Wilmer'
_symmetry_space_group_name_H-M	'P1'
_symmetry_Int_Tables_number	1
_symmetry_cell_setting	triclinic
loop_
_symmetry_equiv_pos_as_xyz
  x,y,z
_cell_length_a	14.971486
_cell_length_b	13.448316
_cell_length_c	14.971486
_cell_angle_alpha	90.007486
_cell_angle_beta	83.614129
_cell_angle_gamma	89.996448
loop_
_atom_site_label
_atom_site_type_symbol
_atom_site_fract_x
_atom_site_fract_y
_atom_site_fract_z
O1	O	-1.186940	-0.082578	-0.116566
O2	O	-0.853607	0.250755	0.216767
O3	O	-0.520274	0.584089	0.550100
O4	O	-0.926540	-0.082605	-0.130525
O5	O	-0.593207	0.250728	0.202808
O6	O	-0.259873	0.584062	0.536141
O7	O	-1.063720	-0.082584	0.006654
O8	O	-0.730386	0.250750	0.339988
O9	O	-0.397053	0.584083	0.673321
O10	O	-1.049761	-0.082599	-0.253746
O11	O	-0.716427	0.250734	0.079587
O12	O	-0.383094	0.584067	0.412921
O13	O	-1.063717	0.082800	0.006666
O14	O	-0.730383	0.416133	0.339999
O15	O	-0.397050	0.749467	0.673333
O16	O	-0.926537	0.082779	-0.130513
O17	O	-0.593204	0.416112	0.202820
O18	O	-0.259870	0.749445	0.536153
O19	O	-1.186937	0.082806	-0.116555
O20	O	-0.853604	0.416139	0.216779
O21	O	-0.520271	0.749473	0.550112
Cu22	Cu	-1.056737	0.097893	-0.123533
Cu23	Cu	-0.723404	0.431226	0.209800
Cu24	Cu	-0.390070	0.764560	0.543134
Cu25	Cu	-1.056740	-0.097692	-0.123547
Cu26	Cu	-0.723407	0.235641	0.209786
Cu27	Cu	-0.390074	0.568974	0.543120
O28	O	-1.049758	0.082784	-0.253734
O29	O	-0.716424	0.416118	0.079599
O30	O	-0.383091	0.749451	0.412933
C31	C	-0.893214	0.000083	-0.129895
C32	C	-0.559881	0.333417	0.203438
C33	C	-0.226547	0.666750	0.536772
C34	C	-0.793917	0.000073	-0.128024
C35	C	-0.460583	0.333407	0.205309
C36	C	-0.127250	0.666740	0.538642
N37	N	-1.056744	-0.235257	-0.123550
N38	N	-0.723410	0.098077	0.209783
N39	N	-0.390077	0.431410	0.543116
C40	C	-1.220263	0.000115	-0.117185
C41	C	-0.886930	0.333448	0.216149
C42	C	-0.553597	0.666782	0.549482
C43	C	-1.319561	0.000119	-0.119056
C44	C	-0.986227	0.333452	0.214278
C45	C	-0.652894	0.666785	0.547611
C46	C	-1.063094	0.000108	0.039985
C47	C	-0.729761	0.333441	0.373318
C48	C	-0.396427	0.666774	0.706652
C49	C	-1.061223	0.000107	0.139282
C50	C	-0.727890	0.333440	0.472615
C51	C	-0.394556	0.666773	0.805949
C52	C	-0.736692	0.000070	-0.208614
C53	C	-0.403358	0.333403	0.124720
C54	C	-0.070025	0.666736	0.458053
C55	C	-0.643392	0.000085	-0.206850
C56	C	-0.310059	0.333418	0.126483
C57	C	0.023275	0.666751	0.459816
C58	C	-0.607320	0.000096	-0.124497
C59	C	-0.273986	0.333429	0.208836
C60	C	0.059347	0.666763	0.542169
C61	C	-0.664552	0.000102	-0.043902
C62	C	-0.331219	0.333436	0.289431
C63	C	0.002114	0.666769	0.622765
C64	C	-0.757850	0.000095	-0.045666
C65	C	-0.424517	0.333428	0.287667
C66	C	-0.091183	0.666761	0.621001
C67	C	-0.470090	0.000116	-0.040231
C68	C	-0.136757	0.333450	0.293103
C69	C	0.196577	0.666783	0.626436
C70	C	-0.376786	0.000122	-0.038466
C71	C	-0.043453	0.333456	0.294867
C72	C	0.289881	0.666789	0.628200
C73	C	-0.355632	0.000106	-0.201415
C74	C	-0.022299	0.333440	0.131918
C75	C	0.311035	0.666773	0.465251
C76	C	-0.448930	0.000099	-0.203179
C77	C	-0.115596	0.333432	0.130154
C78	C	0.217737	0.666765	0.463487
C79	C	-0.506156	0.000103	-0.122584
C80	C	-0.172822	0.333436	0.210750
C81	C	0.160511	0.666770	0.544083
C82	C	-1.117600	-0.287288	-0.062927
C83	C	-0.784267	0.046046	0.270406
C84	C	-0.450933	0.379379	0.603740
C85	C	-1.117604	-0.391391	-0.062924
C86	C	-0.784270	-0.058058	0.270409
C87	C	-0.450937	0.275276	0.603742
C88	C	-1.056746	-0.443461	-0.123542
C89	C	-0.723413	-0.110128	0.209792
C90	C	-0.390079	0.223205	0.543125
C91	C	-0.995887	-0.391423	-0.184171
C92	C	-0.662553	-0.058090	0.149162
C93	C	-0.329220	0.275244	0.482495
C94	C	-0.995888	-0.287322	-0.184177
C95	C	-0.662555	0.046012	0.149156
C96	C	-0.329221	0.379345	0.482489
C97	C	-0.995887	-0.608403	-0.184153
C98	C	-0.662554	-0.275070	0.149180
C99	C	-0.329220	0.058264	0.482514
C100	C	-0.995884	-0.712512	-0.184146
C101	C	-0.662551	-0.379178	0.149187
C102	C	-0.329218	-0.045845	0.482521
C103	C	-1.117603	-0.712472	-0.062900
C104	C	-0.784270	-0.379139	0.270433
C105	C	-0.450936	-0.045806	0.603767
C106	C	-1.117604	-0.608371	-0.062906
C107	C	-0.784271	-0.275038	0.270427
C108	C	-0.450937	0.058296	0.603761
C109	C	-1.056743	-0.556340	-0.123535
C110	C	-0.723410	-0.223007	0.209799
C111	C	-0.390077	0.110327	0.543132
N112	N	-1.056741	0.235457	-0.123523
N113	N	-0.723408	0.568791	0.209811
N114	N	-0.390074	0.902124	0.543144
C115	C	-1.050384	0.000091	-0.287065
C116	C	-0.717050	0.333424	0.046269
C117	C	-0.383717	0.666757	0.379602
C118	C	-1.052254	0.000085	-0.386362
C119	C	-0.718921	0.333419	-0.053028
C120	C	-0.385588	0.666752	0.280305
C121	C	-1.141812	0.000116	0.196507
C122	C	-0.808479	0.333449	0.529841
C123	C	-0.475146	0.666783	0.863174
C124	C	-1.140049	0.000106	0.289807
C125	C	-0.806716	0.333439	0.623140
C126	C	-0.473383	0.666772	0.956473
C127	C	-1.057696	0.000093	0.325879
C128	C	-0.724363	0.333427	0.659212
C129	C	-0.391029	0.666760	0.992546
C130	C	-0.977101	0.000081	0.268646
C131	C	-0.643767	0.333415	0.601980
C132	C	-0.310434	0.666748	0.935313
C133	C	-0.978865	0.000084	0.175349
C134	C	-0.645531	0.333418	0.508682
C135	C	-0.312198	0.666751	0.842015
C136	C	-0.973430	0.000077	0.463109
C137	C	-0.640096	0.333411	0.796442
C138	C	-0.306763	0.666744	1.129776
C139	C	-0.971665	0.000076	0.556413
C140	C	-0.638332	0.333409	0.889746
C141	C	-0.304998	0.666743	1.223080
C142	C	-1.134614	0.000099	0.577567
C143	C	-0.801281	0.333432	0.910900
C144	C	-0.467947	0.666765	1.244233
C145	C	-1.136378	0.000102	0.484269
C146	C	-0.803045	0.333435	0.817603
C147	C	-0.469712	0.666768	1.150936
C148	C	-1.055782	0.000091	0.427043
C149	C	-0.722449	0.333425	0.760376
C150	C	-0.389116	0.666758	1.093710
H151	H	-0.766054	0.000060	-0.275675
H152	H	-0.432720	0.333393	0.057658
H153	H	-0.099387	0.666727	0.390992
F154	F	-1.224028	0.000112	0.445880
F155	F	-0.890694	0.333446	0.779214
F156	F	-0.557361	0.666779	1.112547
H157	H	-0.946334	-0.244959	-0.233544
H158	H	-0.613000	0.088374	0.099789
H159	H	-0.279667	0.421708	0.433123
F160	F	-1.220391	0.000105	0.638472
F161	F	-0.887058	0.333438	0.971805
F162	F	-0.553724	0.666772	1.305139
F163	F	-1.182375	-0.446766	0.001596
F164	F	-0.849042	-0.113433	0.334930
F165	F	-0.515708	0.219900	0.668263
H166	H	-1.167155	-0.565975	-0.013543
H167	H	-0.833821	-0.232642	0.319791
H168	H	-0.500488	0.100691	0.653124
H169	H	-1.208874	0.000132	0.167145
H170	H	-0.875541	0.333465	0.500478
H171	H	-0.542207	0.666799	0.833812
H172	H	-0.516682	0.000121	0.025399
H173	H	-0.183348	0.333455	0.358732
H174	H	0.149985	0.666788	0.692066
H175	H	-0.347419	0.000133	0.028593
H176	H	-0.014086	0.333466	0.361926
H177	H	0.319247	0.666799	0.695260
F178	F	-1.225824	0.000117	0.350707
F179	F	-0.892490	0.333451	0.684040
F180	F	-0.559157	0.666784	1.017373
H181	H	-1.167154	-0.244899	-0.013562
H182	H	-0.833820	0.088435	0.319772
H183	H	-0.500487	0.421768	0.653105
F184	F	-0.887650	0.000064	0.402206
F185	F	-0.554316	0.333398	0.735539
F186	F	-0.220983	0.666731	1.068873
F187	F	-0.294727	0.000103	-0.287192
F188	F	0.038607	0.333437	0.046141
F189	F	0.371940	0.666770	0.379475
F190	F	-0.889454	0.000057	0.307040
F191	F	-0.556120	0.333390	0.640373
F192	F	-0.222787	0.666724	0.973706
F193	F	-1.182374	-0.767851	0.001626
F194	F	-0.849040	-0.434518	0.334960
F195	F	-0.515707	-0.101185	0.668293
H196	H	-0.596802	0.000081	-0.272474
H197	H	-0.263469	0.333414	0.060859
H198	H	0.069864	0.666747	0.394192
H199	H	-0.913240	0.000077	0.128756
H200	H	-0.579907	0.333410	0.462089
H201	H	-0.246574	0.666743	0.795423
F202	F	-0.931114	-0.553032	-0.248685
F203	F	-0.597780	-0.219699	0.084648
F204	F	-0.264447	0.113634	0.417982
H205	H	-0.478296	0.000080	-0.270239
H206	H	-0.144963	0.333413	0.063095
H207	H	0.188370	0.666747	0.396428
F208	F	-0.931112	-0.767922	-0.248665
F209	F	-0.597779	-0.434588	0.084669
F210	F	-0.264446	-0.101255	0.418002
F211	F	-0.931121	-0.446841	-0.248690
F212	F	-0.597787	-0.113508	0.084643
F213	F	-0.264454	0.219826	0.417977
H214	H	-0.635175	0.000126	0.023152
H215	H	-0.301842	0.333459	0.356485
H216	H	0.031492	0.666792	0.689818
F217	F	-0.818754	0.000102	0.040108
F218	F	-0.485420	0.333435	0.373442
F219	F	-0.152087	0.666768	0.706775
H220	H	-0.904606	0.000082	0.585780
H221	H	-0.571273	0.333416	0.919113
H222	H	-0.237939	0.666749	1.252446
