data_functionalizedCrystal
_audit_creation_method	'MofGen! by Chris Wilmer'
_symmetry_space_group_name_H-M	'P1'
_symmetry_Int_Tables_number	1
_symmetry_cell_setting	triclinic
loop_
_symmetry_equiv_pos_as_xyz
  x,y,z
_cell_length_a	17.699083
_cell_length_b	19.188930
_cell_length_c	16.776229
_cell_angle_alpha	89.988225
_cell_angle_beta	89.998886
_cell_angle_gamma	83.213899
loop_
_atom_site_label
_atom_site_type_symbol
_atom_site_fract_x
_atom_site_fract_y
_atom_site_fract_z
O1	O	1.003962	0.088294	-0.066185
O2	O	0.783569	0.099782	-0.066213
O3	O	0.900126	-0.007611	-0.066183
O4	O	0.887405	0.195686	-0.066215
O5	O	0.900110	-0.007617	0.066394
O6	O	0.783553	0.099775	0.066364
O7	O	1.003947	0.088288	0.066391
Zn8	Zn	0.893748	0.094030	0.087427
Zn9	Zn	0.893768	0.094039	-0.087249
O10	O	0.887390	0.195680	0.066361
C11	C	0.755365	0.099367	0.000072
C12	C	0.671348	0.098132	0.000062
C13	C	0.622644	0.161169	0.000053
C14	C	0.543702	0.160004	0.000063
C15	C	0.513466	0.095802	0.000078
C16	C	0.562176	0.032761	0.000090
C17	C	0.641117	0.033926	0.000085
C18	C	0.243819	0.028060	0.000111
C19	C	0.164873	0.026900	0.000113
C20	C	0.146405	0.154139	0.000088
C21	C	0.225345	0.155304	0.000084
C22	C	0.274049	0.092263	0.000100
C23	C	0.359646	0.093526	0.000090
C24	C	0.427870	0.094538	0.000082
C25	C	0.899706	-0.033625	0.000108
C26	C	0.898469	-0.111131	0.000114
C27	C	0.966861	-0.155978	0.000127
C28	C	0.965699	-0.228804	0.000114
C29	C	0.896142	-0.256778	0.000105
C30	C	0.827741	-0.211921	0.000088
C31	C	0.828905	-0.139098	0.000093
N32	N	0.842969	-0.364845	0.045216
N33	N	0.841868	-0.434025	0.045213
C34	C	0.892632	-0.476191	0.000088
N35	N	0.944550	-0.446565	-0.045024
N36	N	0.945653	-0.377379	-0.045018
C37	C	0.894873	-0.335742	0.000099
C38	C	0.959769	-0.600004	0.000085
C39	C	0.958604	-0.672830	0.000067
C40	C	0.820644	-0.655946	0.000049
C41	C	0.821811	-0.583121	0.000059
C42	C	0.891375	-0.555155	0.000081
C43	C	1.032151	0.088703	0.000104
C44	C	1.116167	0.089938	0.000109
C45	C	0.887810	0.221695	0.000069
C46	C	0.889046	0.299201	0.000057
N47	N	0.893739	0.094024	0.206638
N48	N	0.893782	0.094040	-0.206460
C49	C	0.945366	0.046490	0.248368
C50	C	0.945370	0.046490	0.331821
C51	C	0.893751	0.094027	0.373541
C52	C	0.842118	0.141563	0.331805
C53	C	0.842111	0.141559	0.248354
C54	C	0.842146	0.141576	0.668352
C55	C	0.842158	0.141578	0.751808
C56	C	0.945405	0.046507	0.751818
C57	C	0.945398	0.046503	0.668368
C58	C	0.893763	0.094037	0.626639
C59	C	0.893758	0.094036	0.536150
C60	C	0.893759	0.094031	0.464028
H61	H	0.283465	-0.023272	0.000125
O62	O	1.025114	-0.716298	0.000114
C63	C	1.162071	-0.725356	0.000101
C64	C	1.086805	-0.676048	0.000066
H65	H	1.211969	-0.692834	0.000045
H66	H	1.165016	-0.759873	0.055593
H67	H	1.164945	-0.759872	-0.055373
H68	H	1.083881	-0.641488	0.055502
H69	H	1.083892	-0.641578	-0.055463
H70	H	0.766119	-0.546605	0.000054
H71	H	1.021394	-0.265325	0.000121
H72	H	1.023506	-0.133213	0.000142
O73	O	0.760221	-0.239175	-0.000026
C74	C	0.678834	-0.311551	-0.068750
C75	C	0.755337	-0.280748	-0.068706
H76	H	0.674854	-0.345157	-0.124280
H77	H	0.674821	-0.345279	-0.013306
H78	H	0.630163	-0.266973	-0.068719
H79	H	0.804053	-0.325280	-0.068765
H80	H	0.759284	-0.247001	-0.124145
H81	H	0.987434	0.007797	0.634402
H82	H	0.773210	-0.102582	0.000083
H83	H	0.987409	0.007784	0.365797
O84	O	0.651921	0.223580	-0.000069
C85	C	0.660314	0.332677	-0.068797
C86	C	0.627096	0.262027	-0.068752
H87	H	0.640269	0.363776	-0.124329
H88	H	0.640217	0.363867	-0.013355
H89	H	0.725099	0.322669	-0.068761
H90	H	0.562310	0.271972	-0.068815
H91	H	0.647253	0.230860	-0.124188
O92	O	0.254748	0.217654	-0.000079
C93	C	0.333178	0.292801	-0.068771
C94	C	0.299920	0.222170	-0.068694
H95	H	0.369719	0.296469	-0.124232
H96	H	0.284832	0.337681	-0.068829
H97	H	0.369646	0.296522	-0.013268
H98	H	0.263461	0.218381	-0.124187
H99	H	0.348302	0.177324	-0.068594
H100	H	0.987447	0.007800	0.785803
O101	O	0.135627	-0.035531	0.000168
C102	C	0.162271	-0.161617	0.000155
C103	C	0.195494	-0.090970	0.000113
H104	H	0.210657	-0.206458	0.000094
H105	H	0.125801	-0.165387	0.055652
H106	H	0.125748	-0.165305	-0.055314
H107	H	0.232050	-0.087235	0.055545
H108	H	0.231920	-0.087230	-0.055421
H109	H	0.764009	-0.678722	0.000038
O110	O	0.791965	0.187819	0.627947
C111	C	0.689528	0.282094	0.636751
C112	C	0.746330	0.229770	0.682613
H113	H	0.652606	0.316015	0.680929
H114	H	0.722039	0.316985	0.597687
H115	H	0.651849	0.251979	0.597676
H116	H	0.784023	0.259828	0.721732
H117	H	0.713771	0.194880	0.721626
O118	O	1.027291	-0.572747	-0.000010
C119	C	1.108690	-0.500337	-0.068702
C120	C	1.032188	-0.531144	-0.068683
H121	H	1.112681	-0.466706	-0.124226
H122	H	1.112690	-0.466634	-0.013252
H123	H	1.157363	-0.544914	-0.068665
H124	H	0.983471	-0.486612	-0.068748
H125	H	1.028254	-0.564866	-0.124128
O126	O	0.532933	-0.029667	0.000137
C127	C	0.559590	-0.155753	0.000104
C128	C	0.592806	-0.085101	0.000075
H129	H	0.607980	-0.200590	0.000037
H130	H	0.523121	-0.159532	0.055601
H131	H	0.523068	-0.159436	-0.055365
H132	H	0.629361	-0.081370	0.055507
H133	H	0.629231	-0.081352	-0.055458
H134	H	0.987404	0.007783	0.214405
H135	H	0.106741	0.205470	0.000079
O136	O	0.792047	0.187714	0.372453
C137	C	0.746271	0.229831	0.501005
C138	C	0.803028	0.177535	0.455074
H139	H	0.755118	0.221610	0.567813
H140	H	0.755942	0.285758	0.484637
H141	H	0.685690	0.220809	0.484561
H142	H	0.863631	0.186493	0.471493
H143	H	0.793290	0.121627	0.471446
O144	O	0.791934	0.187803	0.207938
C145	C	0.689493	0.282076	0.216730
C146	C	0.746294	0.229756	0.262598
H147	H	0.652568	0.315998	0.260903
H148	H	0.722007	0.316966	0.177667
H149	H	0.651818	0.251958	0.177653
H150	H	0.783983	0.259816	0.301718
H151	H	0.713733	0.194867	0.301611
H152	H	0.680771	-0.017406	0.000093
H153	H	0.504050	0.211335	0.000054
H154	H	0.800120	0.180289	0.785776
