data_functionalizedCrystal
_audit_creation_method	'MofGen! by Chris Wilmer'
_symmetry_space_group_name_H-M	'P1'
_symmetry_Int_Tables_number	1
_symmetry_cell_setting	triclinic
loop_
_symmetry_equiv_pos_as_xyz
  x,y,z
_cell_length_a	12.759401
_cell_length_b	16.625545
_cell_length_c	12.759393
_cell_angle_alpha	90.032830
_cell_angle_beta	90.019802
_cell_angle_gamma	90.024644
loop_
_atom_site_label
_atom_site_type_symbol
_atom_site_fract_x
_atom_site_fract_y
_atom_site_fract_z
Zn1	Zn	1.606187	-0.320982	0.593971
Zn2	Zn	2.106187	0.179018	1.093971
Zn3	Zn	1.606045	-0.455837	0.418284
Zn4	Zn	2.106045	0.044163	0.918284
Zn5	Zn	1.430486	-0.321019	0.418310
Zn6	Zn	1.930486	0.178981	0.918310
Zn7	Zn	1.430444	-0.455774	0.593925
Zn8	Zn	1.930444	0.044226	1.093925
O9	O	1.518291	-0.388403	0.506122
O10	O	2.018291	0.111597	1.006122
O11	O	1.753189	-0.338881	0.570675
O12	O	2.253189	0.161119	1.070675
O13	O	1.582714	-0.437994	0.271266
O14	O	2.082714	0.062006	0.771266
O15	O	1.453870	-0.208182	0.441642
O16	O	1.953870	0.291818	0.941642
O17	O	1.753085	-0.437958	0.441598
O18	O	2.253085	0.062042	0.941598
O19	O	1.582957	-0.208155	0.570699
O20	O	2.082957	0.291845	1.070699
O21	O	1.453732	-0.338945	0.271285
O22	O	1.953732	0.161055	0.771285
O23	O	1.283459	-0.338885	0.441597
O24	O	1.783459	0.161115	0.941597
O25	O	1.453799	-0.437852	0.740952
O26	O	1.953799	0.062148	1.240952
O27	O	1.283429	-0.437889	0.570620
O28	O	1.783429	0.062111	1.070620
O29	O	1.582917	-0.338821	0.740986
O30	O	2.082917	0.161179	1.240986
O31	O	1.582674	-0.568661	0.441553
O32	O	2.082674	-0.068661	0.941553
O33	O	1.453661	-0.568615	0.570596
O34	O	1.953661	-0.068615	1.070596
C35	C	1.245323	-0.388384	0.506107
C36	C	1.745323	0.111616	1.006107
C37	C	1.128547	-0.388396	0.506125
C38	C	1.628547	0.111604	1.006125
C39	C	0.964002	-0.336918	0.573447
C40	C	1.464002	0.163082	1.073447
C41	C	1.073727	-0.336903	0.573440
C42	C	1.573727	0.163097	1.073440
C43	C	1.073637	-0.439914	0.438821
C44	C	1.573637	0.060086	0.938821
C45	C	0.963915	-0.439933	0.438834
C46	C	1.463915	0.060067	0.938834
C47	C	1.518176	-0.597894	0.506089
C48	C	2.018176	-0.097894	1.006089
C49	C	1.518224	-0.687515	0.506110
C50	C	2.018224	-0.187515	1.006110
C51	C	1.518264	-0.760298	0.506131
C52	C	2.018264	-0.260298	1.006131
C53	C	1.518326	-0.851606	0.506155
C54	C	2.018326	-0.351606	1.006155
C55	C	1.518380	-0.924382	0.506168
C56	C	2.018380	-0.424382	1.006168
C57	C	1.518440	-1.015697	0.506189
C58	C	2.018440	-0.515697	1.006189
C59	C	1.792324	-0.388423	0.506139
C60	C	2.292324	0.111577	1.006139
C61	C	1.909100	-0.388431	0.506145
C62	C	2.409100	0.111569	1.006145
C63	C	1.518369	-0.388326	0.780156
C64	C	2.018369	0.111674	1.280156
C65	C	1.518403	-0.388293	0.896933
C66	C	2.018403	0.111707	1.396933
C67	C	1.518434	-0.178094	0.506179
C68	C	2.018434	0.321906	1.006179
C69	C	1.518495	-0.088473	0.506203
C70	C	2.018495	0.411527	1.006203
C71	C	1.518273	-0.388422	0.233155
C72	C	2.018273	0.111578	0.733155
C73	C	1.518443	-0.388228	0.116379
C74	C	2.018443	0.111772	0.616379
C75	C	1.585639	-0.336719	0.951814
C76	C	2.085639	0.163281	1.451814
C77	C	1.585657	-0.336684	1.061538
C78	C	2.085657	0.163316	1.561538
C79	C	1.451199	-0.439804	1.061490
C80	C	1.951199	0.060196	1.561490
C81	C	1.451177	-0.439834	0.951768
C82	C	1.951177	0.060166	1.451768
H83	H	1.118280	-0.481844	0.384017
H84	H	1.618280	0.018156	0.884017
C85	C	1.378134	-0.495922	0.892363
C86	C	1.878134	0.004078	1.392363
C87	C	1.319292	-0.541074	0.963867
C88	C	1.819292	-0.041074	1.463867
C89	C	1.252006	-0.592753	0.909182
C90	C	1.752006	-0.092753	1.409182
H91	H	1.332279	-0.465175	0.849559
H92	H	1.832279	0.034825	1.349559
H93	H	1.418270	-0.531111	0.849579
H94	H	1.918270	-0.031111	1.349579
H95	H	1.279160	-0.505889	1.006634
H96	H	1.779160	-0.005889	1.506634
H97	H	1.365119	-0.571838	1.006674
H98	H	1.865119	-0.071838	1.506674
H99	H	1.292142	-0.627942	0.866397
H100	H	1.792142	-0.127942	1.366397
H101	H	1.206158	-0.561999	0.866379
H102	H	1.706158	-0.061999	1.366379
H103	H	1.212081	-0.623400	0.957689
H104	H	1.712081	-0.123400	1.457689
H105	H	1.640406	-0.294686	1.106218
H106	H	2.140406	0.205314	1.606218
H107	H	0.919212	-0.481886	0.384029
H108	H	1.419212	0.018114	0.884029
H109	H	1.396468	-0.481769	1.106150
H110	H	1.896468	0.018231	1.606150
C111	C	0.904678	-0.280980	0.646649
C112	C	1.404678	0.219020	1.146649
C113	C	0.976250	-0.235882	0.705608
C114	C	1.476250	0.264118	1.205608
C115	C	0.921642	-0.184352	0.773068
C116	C	1.421642	0.315648	1.273068
H117	H	0.861861	-0.245746	0.606668
H118	H	1.361861	0.254254	1.106668
H119	H	0.861912	-0.311859	0.692415
H120	H	1.361912	0.188141	1.192415
H121	H	1.018997	-0.205006	0.659848
H122	H	1.518997	0.294994	1.159848
H123	H	1.019069	-0.271095	0.745611
H124	H	1.519069	0.228905	1.245611
H125	H	0.878877	-0.215231	0.818834
H126	H	1.378877	0.284769	1.318834
H127	H	0.878827	-0.149123	0.733078
H128	H	1.378827	0.350877	1.233078
H129	H	0.970195	-0.153752	0.813087
H130	H	1.470195	0.346248	1.313087
C131	C	1.133389	-0.281106	0.646638
C132	C	1.633389	0.218894	1.146638
C133	C	1.196374	-0.326811	0.713889
C134	C	1.696374	0.173189	1.213889
C135	C	1.251339	-0.275439	0.781348
C136	C	1.751339	0.224561	1.281348
H137	H	1.176272	-0.245916	0.606648
H138	H	1.676272	0.254084	1.106648
H139	H	1.085058	-0.250453	0.686787
H140	H	1.585058	0.249547	1.186787
H141	H	1.244700	-0.357450	0.673745
H142	H	1.744700	0.142550	1.173745
H143	H	1.153518	-0.361999	0.753902
H144	H	1.653518	0.138001	1.253902
H145	H	1.203008	-0.244786	0.821496
H146	H	1.703008	0.255214	1.321496
H147	H	1.294215	-0.240250	0.741349
H148	H	1.794215	0.259750	1.241349
H149	H	1.294073	-0.306442	0.826992
H150	H	1.794073	0.193558	1.326992
H151	H	1.640376	-0.294749	0.907171
H152	H	2.140376	0.205251	1.407171
