data_functionalizedCrystal
_audit_creation_method	'MofGen! by Chris Wilmer'
_symmetry_space_group_name_H-M	'P1'
_symmetry_Int_Tables_number	1
_symmetry_cell_setting	triclinic
loop_
_symmetry_equiv_pos_as_xyz
  x,y,z
_cell_length_a	25.639239
_cell_length_b	18.050591
_cell_length_c	25.639243
_cell_angle_alpha	89.987189
_cell_angle_beta	90.009355
_cell_angle_gamma	89.968232
loop_
_atom_site_label
_atom_site_type_symbol
_atom_site_fract_x
_atom_site_fract_y
_atom_site_fract_z
Zn1	Zn	-0.208359	-1.135156	0.295746
Zn2	Zn	-0.295764	-1.135069	0.208311
Zn3	Zn	-0.208334	-1.011000	0.208310
Zn4	Zn	-0.295755	-1.010901	0.295700
O5	O	-0.252053	-1.073031	0.252017
O6	O	-0.219968	-1.239069	0.284168
O7	O	-0.284159	-1.118615	0.135146
O8	O	-0.135172	-1.027548	0.219928
O9	O	-0.284184	-1.239005	0.219929
O10	O	-0.135191	-1.118765	0.284167
O11	O	-0.219924	-1.027463	0.135145
O12	O	-0.219916	-0.907062	0.219883
O13	O	-0.284169	-1.027379	0.368872
O14	O	-0.284144	-0.906990	0.284088
O15	O	-0.219960	-1.118669	0.368906
O16	O	-0.368928	-1.118519	0.219884
O17	O	-0.368921	-1.027294	0.284089
C18	C	-0.252027	-0.880079	0.251981
C19	C	-0.252028	-0.797534	0.251978
C20	C	-0.387896	-1.072907	0.251993
C21	C	-0.446010	-1.072921	0.252000
C22	C	-0.217053	-0.598101	0.217136
C23	C	-0.264735	-0.548672	0.204265
C24	C	-0.252038	-0.646403	0.251996
C25	C	-0.204367	-0.548750	0.264859
C26	C	-0.252044	-0.500418	0.252012
C27	C	-0.299746	-0.598062	0.239100
C28	C	-0.239345	-0.598144	0.299716
C29	C	-0.287061	-0.548738	0.286864
C30	C	-0.252034	-0.730502	0.251985
C31	C	-0.252054	-0.416322	0.252023
C32	C	-0.806363	-1.120657	0.218643
C33	C	-0.860968	-1.120685	0.218650
O34	O	-0.889197	-1.161142	0.190261
N35	N	-0.888292	-1.073162	0.252052
C36	C	-0.861009	-1.025612	0.285453
O37	O	-0.889265	-0.985193	0.313865
C38	C	-0.806406	-1.025588	0.285448
C39	C	-0.779084	-1.073109	0.252040
C40	C	-0.779042	-1.168174	0.185238
C41	C	-0.724441	-1.168144	0.185230
C42	C	-0.697162	-1.120597	0.218627
C43	C	-0.724484	-1.073079	0.252032
C44	C	-0.779124	-0.978042	0.318851
C45	C	-0.724517	-0.978022	0.318844
C46	C	-0.697196	-1.025543	0.285436
C47	C	-0.642604	-1.025501	0.285422
N48	N	-0.615280	-1.073024	0.252020
C49	C	-0.642559	-1.120572	0.218623
C50	C	-0.975680	-1.025668	0.285461
C51	C	-1.030282	-1.025688	0.285463
C52	C	-1.030237	-1.120763	0.218661
C53	C	-0.975634	-1.120738	0.218656
C54	C	-0.948356	-1.073191	0.252059
C55	C	-0.527894	-1.120505	0.218609
C56	C	-0.473289	-1.120469	0.218603
C57	C	-0.473339	-1.025398	0.285407
C58	C	-0.527939	-1.025431	0.285411
C59	C	-0.555216	-1.072991	0.252011
O60	O	-0.614341	-0.985067	0.313797
O61	O	-0.614297	-1.160991	0.190220
C62	C	-0.115680	-1.073177	0.252052
C63	C	-0.057566	-1.073239	0.252068
C64	C	-0.252066	-1.073023	0.388390
C65	C	-0.252072	-1.073019	0.446504
C66	C	-0.252071	-0.266737	0.252044
C67	C	-0.252055	-0.349283	0.252031
C68	C	-0.285491	-1.025489	0.697674
C69	C	-0.285492	-1.025485	0.643070
O70	O	-0.313909	-0.985046	0.614813
N71	N	-0.252064	-1.073017	0.615778
C72	C	-0.218630	-1.120549	0.643093
O73	O	-0.190197	-1.160977	0.614865
C74	C	-0.218627	-1.120548	0.697696
C75	C	-0.252061	-1.073019	0.724985
C76	C	-0.318922	-0.977963	0.724963
C77	C	-0.318922	-0.977967	0.779564
C78	C	-0.285491	-1.025497	0.806875
C79	C	-0.252061	-1.073023	0.779586
C80	C	-0.185191	-1.168076	0.725011
C81	C	-0.185191	-1.168070	0.779618
C82	C	-0.218624	-1.120541	0.806907
C83	C	-0.218630	-1.120558	0.861498
N84	N	-0.252058	-1.073026	0.888790
C85	C	-0.285488	-1.025496	0.861478
C86	C	-0.218638	-1.120547	0.528423
C87	C	-0.218643	-1.120552	0.473820
C88	C	-0.285504	-1.025487	0.473801
C89	C	-0.285501	-1.025486	0.528404
C90	C	-0.252066	-1.073016	0.555714
C91	C	-0.285486	-1.025509	0.976144
C92	C	-0.285485	-1.025520	1.030749
C93	C	-0.218622	-1.120582	1.030764
C94	C	-0.218625	-1.120574	0.976163
C95	C	-0.252059	-1.073032	0.948854
O96	O	-0.190226	-1.160974	0.889789
O97	O	-0.313912	-0.985068	0.889713
C98	C	-0.252054	-1.073038	1.116174
C99	C	-0.252054	-1.073050	1.058060
H100	H	-0.275477	-0.526943	0.163916
C101	C	-0.182291	-1.172191	0.444290
C102	C	-0.153007	-1.213800	0.479902
C103	C	-0.119506	-1.261368	0.452720
H104	H	-0.202235	-1.204594	0.422988
H105	H	-0.159475	-1.143824	0.423001
H106	H	-0.175820	-1.242165	0.501182
H107	H	-0.133052	-1.181416	0.501205
H108	H	-0.096691	-1.233001	0.431432
H109	H	-0.139455	-1.293766	0.431419
H110	H	-0.099630	-1.289600	0.476879
C111	C	-0.355281	-0.926328	0.695411
C112	C	-0.384561	-0.884726	0.731007
C113	C	-0.418071	-0.837161	0.703807
H114	H	-0.335342	-0.893919	0.674103
H115	H	-0.378097	-0.954696	0.674126
H116	H	-0.361748	-0.856360	0.752283
H117	H	-0.404511	-0.917115	0.752316
H118	H	-0.440887	-0.865529	0.682522
H119	H	-0.398128	-0.804757	0.682501
H120	H	-0.437945	-0.808934	0.727955
H121	H	-0.550185	-0.986738	0.312617
C122	C	-0.150640	-0.519720	0.279327
C123	C	-0.151474	-0.442162	0.279588
C124	C	-0.101987	-0.415396	0.292901
H125	H	-0.141330	-0.537305	0.312987
H126	H	-0.125814	-0.536579	0.254510
H127	H	-0.176291	-0.425310	0.304404
H128	H	-0.160774	-0.424557	0.245933
H129	H	-0.077162	-0.432255	0.268085
H130	H	-0.092682	-0.432987	0.326561
H131	H	-0.102545	-0.362771	0.293076
H132	H	-0.312726	-0.986783	0.550619
H133	H	-0.801247	-1.206897	0.158042
C134	C	-0.321741	-0.973905	0.444047
C135	C	-0.314573	-0.984068	0.390388
C136	C	-0.347938	-0.936560	0.362962
H137	H	-0.356895	-0.984684	0.452926
H138	H	-0.314075	-0.923998	0.452958
H139	H	-0.322243	-1.033963	0.381481
H140	H	-0.279426	-0.973284	0.381494
H141	H	-0.340272	-0.886654	0.371873
H142	H	-0.383090	-0.947343	0.371845
H143	H	-0.343076	-0.943444	0.326552
C144	C	-0.443809	-0.973704	0.321692
C145	C	-0.479419	-0.932081	0.350946
C146	C	-0.452234	-0.884454	0.384377
H147	H	-0.422485	-1.002006	0.344533
H148	H	-0.422542	-0.941318	0.301682
H149	H	-0.500677	-0.964464	0.370955
H150	H	-0.500744	-0.903764	0.328119
H151	H	-0.430967	-0.852067	0.364367
H152	H	-0.430911	-0.912762	0.407214
H153	H	-0.476391	-0.856202	0.404226
H154	H	-0.316683	-0.527200	0.316351
H155	H	-0.451045	-1.159166	0.191396
C156	C	-0.557409	-1.172165	0.182286
C157	C	-0.521786	-1.213753	0.153023
C158	C	-0.548955	-1.261338	0.119550
H159	H	-0.578685	-1.204582	0.202250
H160	H	-0.578722	-1.143812	0.159457
H161	H	-0.500481	-1.242104	0.175850
H162	H	-0.500508	-1.181356	0.133048
H163	H	-0.570268	-1.232985	0.096721
H164	H	-0.570230	-1.293750	0.139519
H165	H	-0.524789	-1.289556	0.099688
C166	C	-0.694714	-1.219788	0.149048
C167	C	-0.663320	-1.267327	0.178684
C168	C	-0.635927	-1.314909	0.145371
H169	H	-0.718726	-1.248180	0.129150
H170	H	-0.673407	-1.191423	0.126248
H171	H	-0.684626	-1.295689	0.201475
H172	H	-0.639299	-1.238956	0.198581
H173	H	-0.614619	-1.286544	0.122571
H174	H	-0.659942	-1.343295	0.125474
H175	H	-0.614619	-1.347164	0.165474
C176	C	-0.224898	-0.627107	0.353483
C177	C	-0.174923	-0.602183	0.366742
C178	C	-0.161588	-0.628859	0.416265
H179	H	-0.249356	-0.609489	0.378394
H180	H	-0.225286	-0.679735	0.353169
H181	H	-0.174539	-0.549566	0.367061
H182	H	-0.150454	-0.619800	0.341845
H183	H	-0.161976	-0.681487	0.415951
H184	H	-0.186049	-0.611238	0.441172
H185	H	-0.127677	-0.611957	0.425266
C186	C	-0.694873	-0.926521	0.355174
C187	C	-0.663498	-0.968516	0.388722
C188	C	-0.636188	-0.921100	0.422200
H189	H	-0.673556	-0.894159	0.335210
H190	H	-0.718950	-0.898239	0.375101
H191	H	-0.639423	-0.996786	0.368798
H192	H	-0.684802	-1.000877	0.408698
H193	H	-0.660266	-0.892818	0.442126
H194	H	-0.614875	-0.888740	0.402231
H195	H	-0.614902	-0.949587	0.444969
H196	H	-0.953392	-1.159434	0.191453
H197	H	-0.191405	-1.159282	0.953943
C198	C	-1.059955	-1.172423	0.182501
C199	C	-1.113621	-1.162311	0.189690
C200	C	-1.141014	-1.209917	0.156415
H201	H	-1.051112	-1.161702	0.147325
H202	H	-1.050982	-1.222304	0.190237
H203	H	-1.122590	-1.112442	0.181950
H204	H	-1.122479	-1.173037	0.224859
H205	H	-1.132041	-1.259797	0.164151
H206	H	-1.132167	-1.199192	0.121241
H207	H	-1.177429	-1.203067	0.161291
H208	H	-1.052523	-0.986985	0.312662
H209	H	-0.187501	-0.619775	0.187626
C210	C	-0.946160	-0.973953	0.321744
C211	C	-0.981782	-0.932331	0.350984
C212	C	-0.954611	-0.884678	0.384408
H213	H	-0.924834	-1.002236	0.344594
H214	H	-0.924897	-0.941567	0.301729
H215	H	-1.003036	-0.964713	0.370997
H216	H	-1.003109	-0.904032	0.328148
H217	H	-0.933347	-0.852292	0.364394
H218	H	-0.933286	-0.912967	0.407254
H219	H	-0.978776	-0.856427	0.404248
H220	H	-0.312712	-0.986816	1.052965
C221	C	-0.355289	-0.926485	0.809210
C222	C	-0.388820	-0.968495	0.840546
C223	C	-0.422337	-0.921093	0.867853
H224	H	-0.335351	-0.894126	0.830553
H225	H	-0.375225	-0.898198	0.785131
H226	H	-0.368886	-0.996770	0.864623
H227	H	-0.408769	-1.000852	0.819217
H228	H	-0.442273	-0.892807	0.843773
H229	H	-0.402395	-0.888737	0.889192
H230	H	-0.445095	-0.949591	0.889114
H231	H	-0.312707	-0.986789	0.953915
C232	C	-0.182273	-1.172038	0.558098
C233	C	-0.148740	-1.130030	0.589432
C234	C	-0.115228	-1.177435	0.616767
H235	H	-0.202213	-1.204393	0.579444
H236	H	-0.162337	-1.200329	0.534035
H237	H	-0.168673	-1.101751	0.613492
H238	H	-0.128788	-1.097677	0.568099
H239	H	-0.095292	-1.205726	0.592705
H240	H	-0.135172	-1.209787	0.638110
H241	H	-0.092468	-1.148939	0.638027
H242	H	-0.157966	-1.206780	0.702801
H243	H	-0.157960	-1.206772	0.801851
H244	H	-0.191405	-1.159282	1.053011
H245	H	-0.801360	-0.939342	0.346053
H246	H	-0.340075	-0.619633	0.228183
