data_functionalizedCrystal
_audit_creation_method	'MofGen! by Chris Wilmer'
_symmetry_space_group_name_H-M	'P1'
_symmetry_Int_Tables_number	1
_symmetry_cell_setting	triclinic
loop_
_symmetry_equiv_pos_as_xyz
  x,y,z
_cell_length_a	23.532407
_cell_length_b	15.500227
_cell_length_c	17.038272
_cell_angle_alpha	86.966746
_cell_angle_beta	93.019883
_cell_angle_gamma	87.178713
loop_
_atom_site_label
_atom_site_type_symbol
_atom_site_fract_x
_atom_site_fract_y
_atom_site_fract_z
O1	O	0.762716	-0.071836	-0.091231
O2	O	0.597575	-0.071862	-0.104957
O3	O	0.679164	-0.071842	0.015714
O4	O	0.681127	-0.071856	-0.211902
O5	O	0.674211	0.072045	0.008420
O6	O	0.592623	0.072026	-0.112251
O7	O	0.757763	0.072051	-0.098525
Cu8	Cu	0.674741	0.085177	-0.106054
Cu9	Cu	0.680598	-0.084987	-0.097428
O10	O	0.676175	0.072032	-0.219196
C11	C	0.573865	0.000079	-0.108255
C12	C	0.510593	0.000069	-0.107203
N13	N	0.670626	0.204861	-0.112121
C14	C	0.674902	0.000101	0.041182
C15	C	0.669576	0.000100	0.127935
C16	C	0.114896	0.000105	-0.172024
C17	C	0.055444	0.000110	-0.171048
O18	O	0.021858	0.000138	-0.231137
N19	N	0.029046	0.000113	-0.099309
C20	C	0.062103	0.000119	-0.028541
O21	O	0.034191	0.000123	0.032568
C22	C	0.121554	0.000120	-0.029518
C23	C	0.147949	0.000108	-0.101262
C24	C	0.141291	0.000094	-0.243762
C25	C	0.200739	0.000087	-0.244737
C26	C	0.233791	0.000091	-0.173975
C27	C	0.207396	0.000101	-0.102238
C28	C	0.154610	0.000132	0.041248
C29	C	0.214064	0.000134	0.040264
C30	C	0.240458	0.000122	-0.031479
C31	C	0.299897	0.000098	-0.032451
N32	N	0.326294	0.000095	-0.104190
C33	C	0.293242	0.000092	-0.174952
C34	C	-0.062747	0.000119	-0.026495
C35	C	-0.122196	0.000112	-0.025516
C36	C	-0.128851	0.000104	-0.168023
C37	C	-0.069401	0.000105	-0.169000
C38	C	-0.036349	0.000116	-0.098234
C39	C	0.418087	0.000076	-0.176996
C40	C	0.477540	0.000066	-0.177965
C41	C	0.484190	0.000078	-0.035459
C42	C	0.424742	0.000084	-0.034489
C43	C	0.391691	0.000086	-0.105264
O44	O	0.333519	0.000074	0.027606
O45	O	0.321162	0.000099	-0.236052
C46	C	0.781474	0.000109	-0.095228
C47	C	0.844746	0.000113	-0.096279
N48	N	0.684717	-0.204671	-0.091355
C49	C	0.705211	0.250146	-0.061007
C50	C	0.702105	0.340718	-0.065602
C51	C	0.664415	0.386003	-0.121316
C52	C	0.629825	0.340712	-0.172432
C53	C	0.632929	0.250142	-0.167832
C54	C	0.653232	0.659467	-0.137872
C55	C	0.650131	0.750044	-0.142469
C56	C	0.722410	0.750044	-0.035638
C57	C	0.725514	0.659471	-0.031047
C58	C	0.690922	0.614188	-0.082160
C59	C	0.661240	0.478582	-0.126016
C60	C	0.694095	0.521611	-0.077456
C61	C	0.680436	0.000087	-0.244664
C62	C	0.685763	0.000082	-0.331417
C63	C	0.718480	0.000109	0.178411
C64	C	0.713472	0.000100	0.259925
C65	C	0.659559	0.000088	0.290961
C66	C	0.610651	0.000077	0.240479
C67	C	0.615660	0.000080	0.158967
C68	C	0.641864	0.000074	0.536589
C69	C	0.636859	0.000074	0.618107
C70	C	0.739681	0.000094	0.637548
C71	C	0.744684	0.000102	0.556033
C72	C	0.695777	0.000087	0.505558
C73	C	0.654438	0.000082	0.374281
C74	C	0.700898	0.000087	0.422240
H75	H	0.499027	0.000056	-0.236390
H76	H	0.599134	0.377589	-0.217792
H77	H	0.730267	0.377588	-0.023981
F78	F	0.589811	0.000055	0.482880
H79	H	0.750573	0.786922	0.005977
F80	F	-0.150280	0.000105	0.050844
H81	H	0.114385	0.000094	-0.301388
F82	F	0.596116	0.201947	-0.222233
H83	H	0.744794	0.000077	0.396968
F84	F	0.791728	0.000110	0.691272
H85	H	0.610542	0.000075	0.399560
F86	F	0.228822	0.000079	-0.321097
H87	H	0.403251	0.000080	0.023931
F88	F	0.126532	0.000133	0.117609
H89	H	-0.035839	0.000120	0.031136
F90	F	0.734204	0.473413	-0.018160
H91	H	0.575836	0.000073	0.117869
F92	F	0.519377	0.000083	0.039847
F93	F	0.745329	0.201958	-0.001712
F94	F	0.765628	0.611276	0.028248
H95	H	0.619438	0.786912	-0.187841
H96	H	0.630553	0.515461	-0.171380
F97	F	0.382920	0.000079	-0.252323
H98	H	0.625067	0.622605	-0.179492
H99	H	0.753295	0.000108	0.301020
H100	H	0.762382	0.000123	0.153148
F101	F	0.802067	0.000092	0.523010
H102	H	-0.047914	0.000101	-0.227420
F103	F	-0.164039	0.000104	-0.243335
F104	F	0.579474	0.000066	0.651135
F105	F	0.553272	0.000056	0.273512
F106	F	0.249236	0.000148	0.115586
