data_functionalizedCrystal
_audit_creation_method	'MofGen! by Chris Wilmer'
_symmetry_space_group_name_H-M	'P1'
_symmetry_Int_Tables_number	1
_symmetry_cell_setting	triclinic
loop_
_symmetry_equiv_pos_as_xyz
  x,y,z
_cell_length_a	25.639239
_cell_length_b	17.077404
_cell_length_c	25.639233
_cell_angle_alpha	89.987837
_cell_angle_beta	89.981253
_cell_angle_gamma	90.036656
loop_
_atom_site_label
_atom_site_type_symbol
_atom_site_fract_x
_atom_site_fract_y
_atom_site_fract_z
Zn1	Zn	-0.208243	1.199920	-0.295603
Zn2	Zn	0.291757	1.699920	0.204397
Zn3	Zn	-0.295662	1.199805	-0.208167
Zn4	Zn	0.204338	1.699805	0.291833
Zn5	Zn	-0.208239	1.068666	-0.208182
Zn6	Zn	0.291761	1.568666	0.291818
Zn7	Zn	-0.295646	1.068584	-0.295572
Zn8	Zn	0.204354	1.568584	0.204428
O9	O	-0.251947	1.134244	-0.251881
O10	O	0.248053	1.634244	0.248119
O11	O	-0.219847	1.309752	-0.284011
O12	O	0.280153	1.809752	0.215989
O13	O	-0.284070	1.182396	-0.135004
O14	O	0.215930	1.682396	0.364996
O15	O	-0.135074	1.086160	-0.219798
O16	O	0.364926	1.586160	0.280202
O17	O	-0.284073	1.309668	-0.219772
O18	O	0.215927	1.809668	0.280228
O19	O	-0.135077	1.182592	-0.284025
O20	O	0.364923	1.682592	0.215975
O21	O	-0.219841	1.086049	-0.135015
O22	O	0.280159	1.586049	0.364985
O23	O	-0.219825	0.958809	-0.219768
O24	O	0.280175	1.458809	0.280232
O25	O	-0.284047	1.086020	-0.368741
O26	O	0.215953	1.586020	0.131259
O27	O	-0.284043	0.958748	-0.283973
O28	O	0.215957	1.458748	0.216027
O29	O	-0.219832	1.182512	-0.368764
O30	O	0.280168	1.682512	0.131236
O31	O	-0.368825	1.182316	-0.219743
O32	O	0.131175	1.682316	0.280257
O33	O	-0.368813	1.085908	-0.283959
O34	O	0.131187	1.585908	0.216041
C35	C	-0.251932	0.930296	-0.251869
C36	C	0.248068	1.430296	0.248131
C37	C	-0.251939	0.843046	-0.251877
C38	C	0.248061	1.343046	0.248123
C39	C	-0.218556	0.802101	-0.285377
C40	C	0.281444	1.302101	0.214623
C41	C	-0.218559	0.720120	-0.285379
C42	C	0.281441	1.220120	0.214621
C43	C	-0.251948	0.679087	-0.251884
C44	C	0.248052	1.179087	0.248116
C45	C	-0.285333	0.720038	-0.218380
C46	C	0.214667	1.220038	0.281620
C47	C	-0.285327	0.802017	-0.218375
C48	C	0.214673	1.302017	0.281625
C49	C	-0.285345	0.549168	-0.218393
C50	C	0.214655	1.049168	0.281607
C51	C	-0.285352	0.467184	-0.218398
C52	C	0.214648	0.967184	0.281602
C53	C	-0.218577	0.467271	-0.285397
C54	C	0.281423	0.967271	0.214603
C55	C	-0.218571	0.549250	-0.285392
C56	C	0.281429	1.049250	0.214608
C57	C	-0.251956	0.590196	-0.251889
C58	C	0.248044	1.090196	0.248111
C59	C	-0.387790	1.134112	-0.251857
C60	C	0.112210	1.634112	0.248143
C61	C	-0.445904	1.134127	-0.251864
C62	C	0.054096	1.634127	0.248136
C63	C	-0.806260	1.184575	-0.218501
C64	C	-0.306260	1.684575	0.281499
C65	C	-0.860865	1.184605	-0.218508
C66	C	-0.360865	1.684605	0.281492
O67	O	-0.889096	1.227360	-0.190114
O68	O	-0.389096	1.727360	0.309886
N69	N	-0.888186	1.134382	-0.251916
N70	N	-0.388186	1.634382	0.248084
C71	C	-0.860901	1.084131	-0.285323
C72	C	-0.360901	1.584131	0.214677
O73	O	-0.889154	1.041416	-0.313740
O74	O	-0.389154	1.541416	0.186260
C75	C	-0.806297	1.084105	-0.285318
C76	C	-0.306297	1.584105	0.214682
C77	C	-0.778979	1.134326	-0.251904
C78	C	-0.278979	1.634326	0.248096
C79	C	-0.778941	1.234792	-0.185090
C80	C	-0.278941	1.734792	0.314910
C81	C	-0.724341	1.234760	-0.185082
C82	C	-0.224341	1.734760	0.314918
C83	C	-0.697059	1.184511	-0.218486
C84	C	-0.197059	1.684511	0.281514
C85	C	-0.724378	1.134294	-0.251896
C86	C	-0.224378	1.634294	0.248104
C87	C	-0.779013	1.033858	-0.318727
C88	C	-0.279013	1.533858	0.181273
C89	C	-0.724406	1.033837	-0.318720
C90	C	-0.224406	1.533837	0.181280
C91	C	-0.697087	1.084058	-0.285306
C92	C	-0.197087	1.584058	0.214694
C93	C	-0.642496	1.084014	-0.285292
C94	C	-0.142496	1.584014	0.214708
N95	N	-0.615174	1.134237	-0.251884
N96	N	-0.115174	1.634237	0.248116
C97	C	-0.642456	1.184485	-0.218481
C98	C	-0.142456	1.684485	0.281519
C99	C	-0.975571	1.084190	-0.285331
C100	C	-0.475571	1.584190	0.214669
C101	C	-1.030174	1.084211	-0.285333
C102	C	-0.530174	1.584211	0.214667
C103	C	-1.030134	1.184687	-0.218519
C104	C	-0.530134	1.684687	0.281481
C105	C	-0.975530	1.184661	-0.218514
C106	C	-0.475530	1.684661	0.281486
C107	C	-0.948250	1.134413	-0.251923
C108	C	-0.448250	1.634413	0.248077
C109	C	-0.527791	1.184415	-0.218467
C110	C	-0.027791	1.684415	0.281533
C111	C	-0.473186	1.184376	-0.218461
C112	C	0.026814	1.684376	0.281539
C113	C	-0.473230	1.083904	-0.285277
C114	C	0.026770	1.583904	0.214723
C115	C	-0.527831	1.083939	-0.285282
C116	C	-0.027831	1.583939	0.214718
C117	C	-0.555110	1.134201	-0.251875
C118	C	-0.055110	1.634201	0.248125
O119	O	-0.614230	1.041282	-0.313672
O120	O	-0.114230	1.541282	0.186328
O121	O	-0.614196	1.227201	-0.190073
O122	O	-0.114196	1.727201	0.309927
C123	C	-0.115574	1.134398	-0.251916
C124	C	0.384426	1.634398	0.248084
C125	C	-0.057460	1.134464	-0.251932
C126	C	0.442540	1.634464	0.248068
C127	C	-0.251938	1.134269	-0.388254
C128	C	0.248062	1.634269	0.111746
C129	C	-0.251934	1.134280	-0.446368
C130	C	0.248066	1.634280	0.053632
C131	C	-0.251963	1.338988	-0.251893
C132	C	0.248037	1.838988	0.248107
C133	C	-0.251969	1.426238	-0.251898
C134	C	0.248031	1.926238	0.248102
C135	C	-0.218398	1.184587	-0.806749
C136	C	0.281602	1.684587	-0.306749
C137	C	-0.218384	1.184597	-0.861353
C138	C	0.281616	1.684597	-0.361353
O139	O	-0.189932	1.227307	-0.889604
O140	O	0.310068	1.727307	-0.389604
N141	N	-0.251812	1.134367	-0.888651
N142	N	0.248188	1.634367	-0.388651
C143	C	-0.285252	1.084118	-0.861341
C144	C	0.214748	1.584118	-0.361341
O145	O	-0.313684	1.041393	-0.889574
O146	O	0.186316	1.541393	-0.389574
C147	C	-0.285264	1.084105	-0.806738
C148	C	0.214736	1.584105	-0.306738
C149	C	-0.251837	1.134344	-0.779443
C150	C	0.248163	1.634344	-0.279443
C151	C	-0.184974	1.234822	-0.779454
C152	C	0.315026	1.734822	-0.279454
C153	C	-0.184990	1.234813	-0.724853
C154	C	0.315010	1.734813	-0.224853
C155	C	-0.218429	1.184570	-0.697548
C156	C	0.281571	1.684570	-0.197548
C157	C	-0.251853	1.134335	-0.724843
C158	C	0.248147	1.634335	-0.224843
C159	C	-0.318701	1.033852	-0.779430
C160	C	0.181299	1.533852	-0.279430
C161	C	-0.318710	1.033843	-0.724823
C162	C	0.181290	1.533843	-0.224823
C163	C	-0.285283	1.084082	-0.697528
C164	C	0.214717	1.584082	-0.197528
C165	C	-0.285307	1.084083	-0.642936
C166	C	0.214693	1.584083	-0.142936
N167	N	-0.251879	1.134313	-0.615639
N168	N	0.248121	1.634313	-0.115639
C169	C	-0.218440	1.184557	-0.642944
C170	C	0.281560	1.684557	-0.142944
C171	C	-0.285225	1.084148	-0.976012
C172	C	0.214775	1.584148	-0.476012
C173	C	-0.285217	1.084164	-1.030614
C174	C	0.214783	1.584164	-0.530614
C175	C	-0.218347	1.184643	-1.030622
C176	C	0.281653	1.684643	-0.530622
C177	C	-0.218359	1.184630	-0.976019
C178	C	0.281641	1.684630	-0.476019
C179	C	-0.251797	1.134378	-0.948714
C180	C	0.248203	1.634378	-0.448714
C181	C	-0.218475	1.184535	-0.528279
C182	C	0.281525	1.684535	-0.028279
C183	C	-0.218495	1.184524	-0.473674
C184	C	0.281505	1.684524	0.026326
C185	C	-0.285362	1.084043	-0.473671
C186	C	0.214638	1.584043	0.026329
C187	C	-0.285345	1.084056	-0.528271
C188	C	0.214655	1.584056	-0.028271
C189	C	-0.251897	1.134305	-0.555574
C190	C	0.248103	1.634305	-0.055574
O191	O	-0.313743	1.041393	-0.614650
O192	O	0.186257	1.541393	-0.114650
O193	O	-0.190009	1.227267	-0.614705
O194	O	0.309991	1.727267	-0.114705
C195	C	-0.251919	1.134264	-0.116039
C196	C	0.248081	1.634264	0.383961
C197	C	-0.251775	1.134405	-0.057925
C198	C	0.248225	1.634405	0.442075
H199	H	-0.191385	0.582658	-0.312670
H200	H	0.308615	1.082658	0.187330
H201	H	-0.953362	1.043266	-0.312535
H202	H	-0.453362	1.543266	0.187465
C203	C	-0.809052	0.978620	-0.355487
C204	C	-0.309052	1.478620	0.144513
H205	H	-0.784976	0.948703	-0.375382
H206	H	-0.284976	1.448703	0.124618
H207	H	-0.830386	0.944442	-0.335477
H208	H	-0.330386	1.444442	0.164523
H209	H	-0.830320	1.008643	-0.378291
H210	H	-0.330320	1.508643	0.121709
C211	C	-0.148215	1.290069	-0.694835
C212	C	0.351785	1.790069	-0.194835
H213	H	-0.128297	1.319984	-0.718924
H214	H	0.371703	1.819984	-0.218924
H215	H	-0.168217	1.324250	-0.673533
H216	H	0.331783	1.824250	-0.173533
H217	H	-0.125433	1.260058	-0.673538
H218	H	0.374567	1.760058	-0.173538
H219	H	-0.191367	0.835504	-0.312654
H220	H	0.308633	1.335504	0.187346
H221	H	-0.191393	0.433930	-0.312675
H222	H	0.308607	0.933930	0.187325
H223	H	-1.052356	1.225605	-0.191322
H224	H	-0.552356	1.725605	0.308678
C225	C	-0.181839	0.675084	-0.322230
C226	C	0.318161	1.175084	0.177770
H227	H	-0.161957	0.711263	-0.342183
H228	H	0.338043	1.211263	0.157817
H229	H	-0.159029	0.643114	-0.302275
H230	H	0.340971	1.143114	0.197725
H231	H	-0.201879	0.643097	-0.344978
H232	H	0.298121	1.143097	0.155022
C233	C	-0.322073	0.422044	-0.181550
C234	C	0.177927	0.922044	0.318450
H235	H	-0.317298	0.367357	-0.186356
H236	H	0.182702	0.867357	0.313644
H237	H	-0.314363	0.435467	-0.146435
H238	H	0.185637	0.935467	0.353565
H239	H	-0.357217	0.435452	-0.189134
H240	H	0.142783	0.935452	0.310866
C241	C	-0.322140	1.028775	-0.443628
C242	C	0.177860	1.528775	0.056372
H243	H	-0.317354	1.035962	-0.407199
H244	H	0.182646	1.535962	0.092801
H245	H	-0.357270	1.040215	-0.452570
H246	H	0.142730	1.540215	0.047430
H247	H	-0.314474	0.976042	-0.452573
H248	H	0.185526	1.476042	0.047427
H249	H	-0.312530	0.582503	-0.191110
H250	H	0.187470	1.082503	0.308890
C251	C	-0.322062	0.674907	-0.181535
C252	C	0.177938	1.174907	0.318465
H253	H	-0.341940	0.711036	-0.161580
H254	H	0.158060	1.211036	0.338420
H255	H	-0.344875	0.642919	-0.201496
H256	H	0.155125	1.142919	0.298504
H257	H	-0.302028	0.642933	-0.158790
H258	H	0.197972	1.142933	0.341210
C259	C	-1.060219	1.028964	-0.322085
C260	C	-0.560219	1.528964	0.177915
H261	H	-1.036146	0.999040	-0.341979
H262	H	-0.536146	1.499040	0.158021
H263	H	-1.081553	0.994792	-0.302071
H264	H	-0.581553	1.494792	0.197929
H265	H	-1.081486	1.058984	-0.344891
H266	H	-0.581486	1.558984	0.155109
H267	H	-0.312510	0.835354	-0.191096
H268	H	0.187490	1.335354	0.308904
H269	H	-0.450944	1.225272	-0.191250
H270	H	0.049056	1.725272	0.308750
C271	C	-0.181585	1.239884	-0.945999
C272	C	0.318415	1.739884	-0.445999
H273	H	-0.161667	1.269802	-0.970087
H274	H	0.338333	1.769802	-0.470087
H275	H	-0.201587	1.274061	-0.924694
H276	H	0.298413	1.774061	-0.424694
H277	H	-0.158802	1.209870	-0.924704
H278	H	0.341198	1.709870	-0.424704
C279	C	-0.557790	1.239695	-0.181717
C280	C	-0.057790	1.739695	0.318283
H281	H	-0.533693	1.269588	-0.161816
H282	H	-0.033693	1.769588	0.338184
H283	H	-0.579060	1.273894	-0.201734
H284	H	-0.079060	1.773894	0.298266
H285	H	-0.579119	1.209696	-0.158917
H286	H	-0.079119	1.709696	0.341083
H287	H	-0.191275	1.225437	-0.451452
H288	H	0.308725	1.725437	0.048548
H289	H	-0.191237	1.225449	-0.550503
H290	H	0.308763	1.725449	-0.050503
H291	H	-0.702197	0.992920	-0.345927
H292	H	-0.202197	1.492920	0.154073
C293	C	-0.694297	1.290013	-0.148333
C294	C	-0.194297	1.790013	0.351667
H295	H	-0.718372	1.319946	-0.128447
H296	H	-0.218372	1.819946	0.371553
H297	H	-0.673023	1.260009	-0.125528
H298	H	-0.173023	1.760009	0.374472
H299	H	-0.672969	1.324188	-0.168356
H300	H	-0.172969	1.824188	0.331644
H301	H	-0.953291	1.225555	-0.191306
H302	H	-0.453291	1.725555	0.308694
C303	C	-0.808943	1.290066	-0.148340
C304	C	-0.308943	1.790066	0.351660
H305	H	-0.784845	1.319960	-0.128441
H306	H	-0.284845	1.819960	0.371559
H307	H	-0.830216	1.324264	-0.168354
H308	H	-0.330216	1.824264	0.331646
H309	H	-0.830269	1.260066	-0.125539
H310	H	-0.330269	1.760066	0.374461
C311	C	-0.557883	1.028697	-0.322035
C312	C	-0.057883	1.528697	0.177965
H313	H	-0.533812	0.998770	-0.341929
H314	H	-0.033812	1.498770	0.158071
H315	H	-0.579221	0.994528	-0.302022
H316	H	-0.079221	1.494528	0.197978
H317	H	-0.579147	1.058724	-0.344840
H318	H	-0.079147	1.558724	0.155160
C319	C	-0.443214	1.028638	-0.322020
C320	C	0.056786	1.528638	0.177980
H321	H	-0.406782	1.035824	-0.317232
H322	H	0.093218	1.535824	0.182768
H323	H	-0.452196	0.975906	-0.314345
H324	H	0.047804	1.475906	0.185655
H325	H	-0.452138	1.040106	-0.357159
H326	H	0.047862	1.540106	0.142841
C327	C	-0.148191	1.290099	-0.809481
C328	C	0.351809	1.790099	-0.309481
H329	H	-0.128293	1.320014	-0.785398
H330	H	0.371707	1.820014	-0.285398
H331	H	-0.125399	1.260115	-0.830786
H332	H	0.374601	1.760115	-0.330786
H333	H	-0.168194	1.324290	-0.830777
H334	H	0.331806	1.824290	-0.330777
H335	H	-0.191118	1.225552	-1.052864
H336	H	0.308882	1.725552	-0.552864
H337	H	-0.312441	1.043263	-1.052833
H338	H	0.187559	1.543263	-0.552833
H339	H	-0.312458	1.043226	-0.953784
H340	H	0.187542	1.543226	-0.453784
H341	H	-0.345934	0.992913	-0.702594
H342	H	0.154066	1.492913	-0.202594
C343	C	-0.355466	0.978581	-0.809442
C344	C	0.144534	1.478581	-0.309442
H345	H	-0.375374	0.948653	-0.785353
H346	H	0.124626	1.448653	-0.285353
H347	H	-0.378250	1.008572	-0.830746
H348	H	0.121750	1.508572	-0.330746
H349	H	-0.335452	0.944402	-0.830739
H350	H	0.164548	1.444402	-0.330739
H351	H	-0.312568	1.043155	-0.550496
H352	H	0.187432	1.543155	-0.050496
