data_functionalizedCrystal
_audit_creation_method	'MofGen! by Chris Wilmer'
_symmetry_space_group_name_H-M	'P1'
_symmetry_Int_Tables_number	1
_symmetry_cell_setting	triclinic
loop_
_symmetry_equiv_pos_as_xyz
  x,y,z
_cell_length_a	17.077404
_cell_length_b	19.076808
_cell_length_c	17.077396
_cell_angle_alpha	87.669711
_cell_angle_beta	89.982756
_cell_angle_gamma	92.323651
loop_
_atom_site_label
_atom_site_type_symbol
_atom_site_fract_x
_atom_site_fract_y
_atom_site_fract_z
Zn1	Zn	1.187469	-0.280207	-0.431272
Zn2	Zn	1.687469	0.219793	0.068728
Zn3	Zn	1.182101	-0.397919	-0.294725
Zn4	Zn	1.682101	0.102081	0.205275
Zn5	Zn	1.056204	-0.280234	-0.300018
Zn6	Zn	1.556204	0.219766	0.199982
Zn7	Zn	1.050890	-0.397876	-0.425950
Zn8	Zn	1.550890	0.102124	0.074050
O9	O	1.119166	-0.339059	-0.362991
O10	O	1.619166	0.160941	0.137009
O11	O	1.296603	-0.295829	-0.413170
O12	O	1.796603	0.204171	0.086830
O13	O	1.165378	-0.382337	-0.185579
O14	O	1.665378	0.117663	0.314421
O15	O	1.078087	-0.181733	-0.321872
O16	O	1.578087	0.318267	0.178128
O17	O	1.292659	-0.382312	-0.312850
O18	O	1.792659	0.117688	0.187150
O19	O	1.174526	-0.181714	-0.418303
O20	O	1.674526	0.318286	0.081697
O21	O	1.072882	-0.295874	-0.189468
O22	O	1.572882	0.204126	0.310532
O23	O	0.945653	-0.295832	-0.316712
O24	O	1.445653	0.204168	0.183288
O25	O	1.069030	-0.382238	-0.536504
O26	O	1.569030	0.117762	-0.036504
O27	O	0.941749	-0.382263	-0.409234
O28	O	1.441749	0.117737	0.090766
O29	O	1.169374	-0.295787	-0.540414
O30	O	1.669374	0.204213	-0.040414
O31	O	1.160225	-0.496410	-0.307690
O32	O	1.660225	0.003590	0.192310
O33	O	1.063825	-0.496378	-0.404100
O34	O	1.563825	0.003622	0.095900
C35	C	0.915219	-0.339046	-0.362970
C36	C	1.415219	0.160954	0.137030
C37	C	0.827968	-0.339058	-0.362979
C38	C	1.327968	0.160942	0.137021
C39	C	1.110887	-0.521933	-0.354760
C40	C	1.610887	-0.021933	0.145240
C41	C	1.107418	-0.600168	-0.351265
C42	C	1.607418	-0.100168	0.148735
C43	C	0.784963	-0.384130	-0.411071
C44	C	1.284963	0.115870	0.088929
C45	C	0.702982	-0.384132	-0.411084
C46	C	1.202982	0.115868	0.088916
C47	C	0.664009	-0.339064	-0.362999
C48	C	1.164009	0.160936	0.137001
C49	C	0.707020	-0.293986	-0.314905
C50	C	1.207020	0.206014	0.185095
C51	C	0.788999	-0.293982	-0.314897
C52	C	1.288999	0.206018	0.185103
C53	C	0.536150	-0.294000	-0.314923
C54	C	1.036150	0.206000	0.185077
C55	C	0.454165	-0.294005	-0.314930
C56	C	0.954165	0.205995	0.185070
C57	C	0.450132	-0.384150	-0.411110
C58	C	0.950132	0.115850	0.088890
C59	C	0.532112	-0.384146	-0.411102
C60	C	1.032112	0.115854	0.088898
C61	C	0.575117	-0.339069	-0.363006
C62	C	1.075117	0.160931	0.136994
C63	C	1.155961	-0.636852	-0.399870
C64	C	1.655961	-0.136852	0.100130
C65	C	1.152697	-0.710361	-0.396588
C66	C	1.652697	-0.210361	0.103412
C67	C	1.100894	-0.747185	-0.344696
C68	C	1.600894	-0.247185	0.155304
C69	C	1.052346	-0.710496	-0.296088
C70	C	1.552346	-0.210496	0.203912
C71	C	1.055606	-0.636988	-0.299375
C72	C	1.555606	-0.136988	0.200625
C73	C	1.085761	-0.967039	-0.329480
C74	C	1.585761	-0.467039	0.170520
C75	C	1.082506	-1.040552	-0.326195
C76	C	1.582506	-0.540552	0.173805
C77	C	1.182857	-1.040412	-0.426696
C78	C	1.682857	-0.540412	0.073304
C79	C	1.186115	-0.966902	-0.429975
C80	C	1.686115	-0.466902	0.070025
C81	C	1.137564	-0.930220	-0.381371
C82	C	1.637564	-0.430220	0.118629
N83	N	1.097559	-0.822324	-0.341337
N84	N	1.597559	-0.322324	0.158663
N85	N	1.140896	-0.855083	-0.384734
N86	N	1.640896	-0.355083	0.115266
C87	C	1.323910	-0.339072	-0.363013
C88	C	1.823910	0.160928	0.136987
C89	C	1.411159	-0.339078	-0.363022
C90	C	1.911159	0.160922	0.136978
C91	C	1.119208	-0.339004	-0.567738
C92	C	1.619208	0.160996	-0.067738
C93	C	1.119226	-0.338981	-0.654989
C94	C	1.619226	0.161019	-0.154989
C95	C	1.127498	-0.155471	-0.371272
C96	C	1.627498	0.344529	0.128728
C97	C	1.131049	-0.077236	-0.374800
C98	C	1.631049	0.422764	0.125200
C99	C	1.071079	-0.293954	-0.698004
C100	C	1.571079	0.206046	-0.198004
C101	C	1.071092	-0.293938	-0.779985
C102	C	1.571092	0.206062	-0.279985
C103	C	1.119257	-0.338946	-0.818950
C104	C	1.619257	0.161054	-0.318950
C105	C	1.167406	-0.383978	-0.775929
C106	C	1.667406	0.116022	-0.275929
C107	C	1.167388	-0.383997	-0.693949
C108	C	1.667388	0.116003	-0.193949
C109	C	1.167442	-0.383934	-0.946801
C110	C	1.667442	0.116066	-0.446801
C111	C	1.167462	-0.383914	-1.028787
C112	C	1.667462	0.116086	-0.528787
C113	C	1.071146	-0.293875	-1.032837
C114	C	1.571146	0.206125	-0.532837
C115	C	1.071128	-0.293894	-0.950857
C116	C	1.571128	0.206106	-0.450857
C117	C	1.119278	-0.338925	-0.907842
C118	C	1.619278	0.161075	-0.407842
C119	C	1.119172	-0.339062	-0.159043
C120	C	1.619172	0.160938	0.340957
C121	C	1.119315	-0.338887	-0.071802
C122	C	1.619315	0.161113	0.428198
H123	H	0.816689	-0.420832	-0.450225
H124	H	1.316689	0.079168	0.049775
H125	H	0.675282	-0.257288	-0.275757
H126	H	1.175282	0.242712	0.224243
H127	H	0.563841	-0.420848	-0.450252
H128	H	1.063841	0.079152	0.049748
C129	C	0.836305	-0.244400	-0.261990
C130	C	1.336305	0.255600	0.238010
N131	N	0.871935	-0.207052	-0.222140
N132	N	1.371935	0.292948	0.277860
H133	H	1.031912	-0.257242	-0.919135
H134	H	1.531912	0.242758	-0.419135
H135	H	1.198148	-0.606874	-0.442123
H136	H	1.698148	-0.106874	0.057877
H137	H	1.040318	-1.070532	-0.283937
H138	H	1.540318	-0.570532	0.216063
H139	H	1.046230	-0.937177	-0.289903
H140	H	1.546230	-0.437177	0.210097
H141	H	0.422435	-0.257298	-0.275785
H142	H	0.922435	0.242702	0.224215
H143	H	0.667971	-0.420835	-0.450245
H144	H	1.167971	0.079165	0.049755
H145	H	1.016076	-0.607120	-0.259797
H146	H	1.516076	-0.107120	0.240203
C147	C	1.206109	-0.750710	-0.450047
C148	C	1.706109	-0.250710	0.049953
N149	N	1.246345	-0.781101	-0.490313
N150	N	1.746345	-0.281101	0.009687
H151	H	1.031862	-0.257300	-0.666285
H152	H	1.531862	0.242700	-0.166285
C153	C	1.220203	-0.433646	-0.818786
C154	C	1.720203	0.066354	-0.318786
N155	N	1.259906	-0.471113	-0.851062
N156	N	1.759906	0.028887	-0.351062
H157	H	0.415113	-0.420851	-0.450274
H158	H	0.915113	0.079149	0.049726
H159	H	1.228298	-0.936922	-0.472230
H160	H	1.728298	-0.436922	0.027770
H161	H	1.206600	-0.420657	-0.658928
H162	H	1.706600	0.079343	-0.158928
C163	C	1.236254	-1.080769	-0.480162
C164	C	1.736254	-0.580769	0.019838
N165	N	1.276472	-1.111166	-0.520438
N166	N	1.776472	-0.611166	-0.020438
H167	H	1.010163	-0.740484	-0.253840
H168	H	1.510163	-0.240484	0.246160
C169	C	1.018135	-0.244398	-0.827298
C170	C	1.518135	0.255602	-0.327298
N171	N	0.978248	-0.207080	-0.862934
N172	N	1.478248	0.292920	-0.362934
H173	H	1.031942	-0.257209	-1.067864
H174	H	1.531942	0.242791	-0.567864
H175	H	1.206682	-0.420563	-1.060510
H176	H	1.706682	0.079437	-0.560510
H177	H	1.206659	-0.420597	-0.911781
H178	H	1.706659	0.079403	-0.411781
H179	H	0.571163	-0.257287	-0.275766
H180	H	1.071163	0.242713	0.224234
