data_functionalizedCrystal
_audit_creation_method	'MofGen! by Chris Wilmer'
_symmetry_space_group_name_H-M	'P1'
_symmetry_Int_Tables_number	1
_symmetry_cell_setting	triclinic
loop_
_symmetry_equiv_pos_as_xyz
  x,y,z
_cell_length_a	10.654562
_cell_length_b	10.489716
_cell_length_c	9.130313
_cell_angle_alpha	90.001710
_cell_angle_beta	90.009063
_cell_angle_gamma	84.509620
loop_
_atom_site_label
_atom_site_type_symbol
_atom_site_fract_x
_atom_site_fract_y
_atom_site_fract_z
O1	O	1.667903	0.179243	0.121881
O2	O	1.302433	0.196295	0.121862
O3	O	1.493501	0.002166	0.121877
O4	O	1.476836	0.373373	0.121866
O5	O	1.493478	0.002156	-0.121722
O6	O	1.302411	0.196286	-0.121737
O7	O	1.667881	0.179233	-0.121717
Cu8	Cu	1.485144	0.187759	-0.143970
Cu9	Cu	1.485171	0.187770	0.144114
O10	O	1.476813	0.373363	-0.121733
C11	C	1.255624	0.195035	0.000060
C12	C	1.116180	0.191279	0.000053
C13	C	1.050636	0.189522	-0.132721
C14	C	0.919613	0.186003	-0.132696
C15	C	0.919688	0.186003	0.132888
C16	C	1.050710	0.189513	0.132862
C17	C	1.116106	0.191288	-0.265530
C18	C	1.050562	0.189532	-0.398315
C19	C	0.919539	0.186013	-0.398290
C20	C	0.854059	0.184249	-0.265481
C21	C	1.492237	-0.045371	0.000082
C22	C	1.488491	-0.187000	0.000095
C23	C	1.605659	-0.284725	0.000088
C24	C	1.543756	-0.362054	0.120188
C25	C	1.543707	-0.362027	-0.119981
C26	C	1.426637	-0.262464	0.120294
C27	C	1.426605	-0.262432	-0.119983
C28	C	1.364615	-0.339711	0.000146
C29	C	1.714690	0.180493	0.000088
C30	C	1.854134	0.184250	0.000104
C31	C	1.478077	0.420899	0.000065
C32	C	1.481823	0.562529	0.000062
N33	N	1.485134	0.187750	-0.346592
C34	C	1.400556	0.273696	-0.576627
C35	C	1.400524	0.273684	-0.423290
C36	C	1.569772	0.101814	-0.423240
C37	C	1.569797	0.101820	-0.576574
C38	C	1.315949	0.359644	-0.653316
C39	C	1.231308	0.445579	-0.576680
C40	C	1.231276	0.445568	-0.423343
C41	C	1.315885	0.359621	-0.346643
N42	N	1.485190	0.187768	0.346737
H43	H	0.747371	0.181380	-0.265472
N44	N	0.849063	0.184124	0.276122
H45	H	0.910467	0.185769	0.360233
H46	H	0.804161	0.103732	0.281919
N47	N	1.315837	0.359602	-0.181258
H48	H	1.334868	0.446443	-0.144298
H49	H	1.382271	0.292066	-0.144417
N50	N	1.121188	0.191435	-0.541546
H51	H	1.088901	0.269756	-0.599594
H52	H	1.107818	0.111834	-0.599482
N53	N	1.257424	0.195073	-0.265573
H54	H	1.298463	0.116982	-0.213451
H55	H	1.279432	0.274901	-0.213469
H56	H	1.638659	0.031840	-0.360780
H57	H	1.315969	0.359664	-0.778171
N58	N	0.848783	0.183923	-0.541443
H59	H	0.784881	0.261333	-0.547431
H60	H	0.804042	0.103418	-0.547049
N61	N	1.609240	-0.419624	-0.254483
H62	H	1.565920	-0.381964	-0.345198
H63	H	1.605476	-0.515462	-0.253871
H64	H	1.162415	0.515547	-0.639137
N65	N	1.139978	0.538233	-0.340680
H66	H	1.086385	0.592675	-0.412535
H67	H	1.188543	0.595079	-0.277026
H68	H	1.638713	0.031849	-0.638972
N69	N	1.121405	0.191412	0.276071
H70	H	1.166310	0.271801	0.281978
H71	H	1.185161	0.113877	0.281888
N72	N	1.361170	-0.205070	0.254938
H73	H	1.422690	-0.159093	0.314676
H74	H	1.328928	-0.275442	0.315770
N75	N	1.740656	-0.252095	0.000238
H76	H	1.784782	-0.288526	0.091052
H77	H	1.742168	-0.155977	-0.000742
N78	N	1.609275	-0.419699	0.254694
H79	H	1.700262	-0.400119	0.254614
H80	H	1.605411	-0.515524	0.254090
N81	N	1.229537	-0.372081	0.000249
H82	H	1.185458	-0.335528	0.091020
H83	H	1.227871	-0.468182	-0.000661
N84	N	1.361126	-0.204757	-0.254487
H85	H	1.405482	-0.241139	-0.345169
H86	H	1.363475	-0.108745	-0.252829
