data_functionalizedCrystal
_audit_creation_method	'MofGen! by Chris Wilmer'
_symmetry_space_group_name_H-M	'P1'
_symmetry_Int_Tables_number	1
_symmetry_cell_setting	triclinic
loop_
_symmetry_equiv_pos_as_xyz
  x,y,z
_cell_length_a	23.532407
_cell_length_b	23.532407
_cell_length_c	22.610064
_cell_angle_alpha	90.000603
_cell_angle_beta	89.997161
_cell_angle_gamma	97.151322
loop_
_atom_site_label
_atom_site_type_symbol
_atom_site_fract_x
_atom_site_fract_y
_atom_site_fract_z
O1	O	0.755263	-0.069127	-0.049117
O2	O	1.255263	0.430873	0.450883
O3	O	0.589400	-0.079130	-0.049135
O4	O	1.089400	0.420870	0.450865
O5	O	0.677333	0.008803	-0.049114
O6	O	1.177333	0.508803	0.450886
O7	O	0.667330	-0.157060	-0.049137
O8	O	1.167330	0.342940	0.450863
O9	O	0.677318	0.008790	0.049255
O10	O	1.177318	0.508790	0.549255
O11	O	0.589385	-0.079143	0.049234
O12	O	1.089385	0.420857	0.549234
O13	O	0.755248	-0.069140	0.049252
O14	O	1.255248	0.430860	0.549252
Zn15	Zn	0.672314	-0.074144	0.064862
Zn16	Zn	1.172314	0.425856	0.564862
Zn17	Zn	0.672334	-0.074127	-0.064744
Zn18	Zn	1.172334	0.425873	0.435256
O19	O	0.667315	-0.157073	0.049232
O20	O	1.167315	0.342927	0.549232
C21	C	0.568176	-0.078882	0.000048
C22	C	1.068176	0.421118	0.500048
C23	C	0.504959	-0.078116	0.000041
C24	C	1.004959	0.421884	0.500041
C25	C	0.105856	-0.125350	0.000061
C26	C	0.605856	0.374650	0.500061
C27	C	0.046456	-0.124638	0.000065
C28	C	0.546456	0.375362	0.500065
O29	O	0.009711	-0.168424	0.000081
O30	O	0.509711	0.331576	0.500081
N31	N	0.023830	-0.072362	0.000071
N32	N	0.523830	0.427638	0.500071
C33	C	0.060607	-0.020794	0.000080
C34	C	0.560607	0.479206	0.500080
O35	O	0.035908	0.023737	0.000086
O36	O	0.535908	0.523737	0.500086
C37	C	0.120006	-0.021506	0.000080
C38	C	0.620006	0.478494	0.500080
C39	C	0.142629	-0.073785	0.000068
C40	C	0.642629	0.426215	0.500068
C41	C	0.128479	-0.177625	0.000050
C42	C	0.628479	0.322375	0.500050
C43	C	0.187876	-0.178336	0.000045
C44	C	0.687876	0.321664	0.500045
C45	C	0.224649	-0.126772	0.000052
C46	C	0.724649	0.373228	0.500052
C47	C	0.202025	-0.074497	0.000063
C48	C	0.702025	0.425503	0.500063
C49	C	0.156783	0.030062	0.000093
C50	C	0.656783	0.530062	0.500093
C51	C	0.216185	0.029345	0.000094
C52	C	0.716185	0.529345	0.500094
C53	C	0.238808	-0.022934	0.000082
C54	C	0.738808	0.477066	0.500082
C55	C	0.298194	-0.023643	0.000065
C56	C	0.798194	0.476357	0.500065
N57	N	0.320820	-0.075920	0.000059
N58	N	0.820820	0.424080	0.500059
C59	C	0.284048	-0.127484	0.000052
C60	C	0.784048	0.372516	0.500052
C61	C	-0.064135	-0.019302	0.000080
C62	C	0.435865	0.480698	0.500080
C63	C	-0.123533	-0.018589	0.000075
C64	C	0.376467	0.481411	0.500075
C65	C	-0.137680	-0.122434	0.000061
C66	C	0.362320	0.377566	0.500061
C67	C	-0.078281	-0.123146	0.000062
C68	C	0.421719	0.376854	0.500062
C69	C	-0.041509	-0.071578	0.000074
C70	C	0.458491	0.428422	0.500074
C71	C	0.408784	-0.128974	0.000042
C72	C	0.908784	0.371026	0.500042
C73	C	0.468186	-0.129680	0.000034
C74	C	0.968186	0.370320	0.500034
C75	C	0.482329	-0.025836	0.000051
C76	C	0.982329	0.474164	0.500051
C77	C	0.422932	-0.025129	0.000055
C78	C	0.922932	0.474871	0.500055
C79	C	0.386160	-0.076702	0.000052
C80	C	0.886160	0.423298	0.500052
O81	O	0.334974	0.020119	0.000052
O82	O	0.834974	0.520119	0.500052
O83	O	0.308755	-0.172007	0.000054
O84	O	0.808755	0.327993	0.500054
C85	C	0.677071	0.030013	0.000072
C86	C	1.177071	0.530013	0.500072
C87	C	0.676305	0.093230	0.000076
C88	C	1.176305	0.593230	0.500076
C89	C	0.776472	-0.069388	0.000069
C90	C	1.276472	0.430612	0.500069
C91	C	0.839689	-0.070154	0.000071
C92	C	1.339689	0.429846	0.500071
C93	C	0.667577	-0.178283	0.000045
C94	C	1.167577	0.321717	0.500045
C95	C	0.668343	-0.241500	0.000036
C96	C	1.168343	0.258500	0.500036
N97	N	0.672304	-0.074155	0.153314
N98	N	1.172304	0.425845	0.653314
C99	C	0.723539	0.492333	0.000049
C100	C	1.223539	0.992333	0.500049
C101	C	0.722827	0.551733	0.000044
C102	C	1.222827	1.051733	0.500044
O103	O	0.766613	0.588478	0.000027
O104	O	1.266613	1.088478	0.500027
N105	N	0.670551	0.574359	0.000039
N106	N	1.170551	1.074359	0.500039
C107	C	0.618983	0.537582	0.000032
C108	C	1.118983	1.037582	0.500032
O109	O	0.574452	0.562281	0.000027
O110	O	1.074452	1.062281	0.500027
C111	C	0.619695	0.478182	0.000033
C112	C	1.119695	0.978182	0.500033
C113	C	0.671974	0.455560	0.000044
C114	C	1.171974	0.955560	0.500044
C115	C	0.775814	0.469710	0.000060
C116	C	1.275814	0.969710	0.500060
C117	C	0.776525	0.410313	0.000065
C118	C	1.276525	0.910313	0.500065
C119	C	0.724961	0.373540	0.000060
C120	C	1.224961	0.873540	0.500060
C121	C	0.672685	0.396164	0.000050
C122	C	1.172685	0.896164	0.500050
C123	C	0.568127	0.441406	0.000022
C124	C	1.068127	0.941406	0.500022
C125	C	0.568844	0.382004	0.000021
C126	C	1.068844	0.882004	0.500021
C127	C	0.621123	0.359381	0.000033
C128	C	1.121123	0.859381	0.500033
C129	C	0.621832	0.299995	0.000050
C130	C	1.121832	0.799995	0.500050
N131	N	0.674109	0.277368	0.000056
N132	N	1.174109	0.777368	0.500056
C133	C	0.725673	0.314141	0.000061
C134	C	1.225673	0.814141	0.500061
C135	C	0.617491	0.662324	0.000031
C136	C	1.117491	1.162324	0.500031
C137	C	0.616778	0.721722	0.000034
C138	C	1.116778	1.221722	0.500034
C139	C	0.720623	0.735869	0.000045
C140	C	1.220623	1.235869	0.500045
C141	C	0.721335	0.676470	0.000046
C142	C	1.221335	1.176470	0.500046
C143	C	0.669767	0.639698	0.000036
C144	C	1.169767	1.139698	0.500036
C145	C	0.727163	0.189405	0.000073
C146	C	1.227163	0.689405	0.500073
C147	C	0.727869	0.130003	0.000081
C148	C	1.227869	0.630003	0.500081
C149	C	0.624025	0.115860	0.000067
C150	C	1.124025	0.615860	0.500067
C151	C	0.623318	0.175257	0.000062
C152	C	1.123318	0.675257	0.500062
C153	C	0.674891	0.212029	0.000063
C154	C	1.174891	0.712029	0.500063
O155	O	0.578070	0.263215	0.000065
O156	O	1.078070	0.763215	0.500065
O157	O	0.770196	0.289433	0.000058
O158	O	1.270196	0.789433	0.500058
N159	N	0.672349	-0.074111	-0.153196
N160	N	1.172349	0.425889	0.346804
C161	C	0.711273	-0.035196	0.561965
C162	C	1.211273	0.464804	1.061965
C163	C	0.711276	-0.035192	0.623884
C164	C	1.211276	0.464808	1.123884
O165	O	0.744384	-0.002076	0.655911
O166	O	1.244384	0.497924	1.155911
N167	N	0.672334	-0.074115	0.654851
N168	N	1.172334	0.425885	1.154851
C169	C	0.633383	-0.113041	0.623895
C170	C	1.133383	0.386959	1.123895
O171	O	0.600259	-0.146147	0.655920
O172	O	1.100259	0.353853	1.155920
C173	C	0.633377	-0.113042	0.561976
C174	C	1.133377	0.386958	1.061976
C175	C	0.672326	-0.074120	0.531013
C176	C	1.172326	0.425880	1.031013
C177	C	0.750218	0.003724	0.531001
C178	C	1.250218	0.503724	1.031001
C179	C	0.750215	0.003719	0.469085
C180	C	1.250215	0.503719	0.969085
C181	C	0.711268	-0.035206	0.438133
C182	C	1.211268	0.464794	0.938133
C183	C	0.672323	-0.074125	0.469097
C184	C	1.172323	0.425875	0.969097
C185	C	0.594424	-0.151965	0.531021
C186	C	1.094424	0.348035	1.031021
C187	C	0.594422	-0.151962	0.469098
C188	C	1.094422	0.348038	0.969098
C189	C	0.633370	-0.113040	0.438134
C190	C	1.133370	0.386960	0.938134
C191	C	0.633374	-0.113054	0.376229
C192	C	1.133374	0.386946	0.876229
N193	N	0.672316	-0.074131	0.345262
N194	N	1.172316	0.425869	0.845262
C195	C	0.711263	-0.035207	0.376214
C196	C	1.211263	0.464793	0.876214
C197	C	0.633396	-0.113035	0.753928
C198	C	1.133396	0.386965	1.253928
C199	C	0.633403	-0.113037	0.815846
C200	C	1.133403	0.386963	1.315846
C201	C	0.711296	-0.035187	0.815831
C202	C	1.211296	0.464813	1.315831
C203	C	0.711291	-0.035188	0.753913
C204	C	1.211291	0.464812	1.253913
C205	C	0.672338	-0.074112	0.722962
C206	C	1.172338	0.425888	1.222962
C207	C	0.711255	-0.035220	0.246187
C208	C	1.211255	0.464780	0.746187
C209	C	0.711251	-0.035230	0.184266
C210	C	1.211251	0.464770	0.684266
C211	C	0.633357	-0.113078	0.184286
C212	C	1.133357	0.386922	0.684286
C213	C	0.633363	-0.113071	0.246202
C214	C	1.133363	0.386929	0.746202
C215	C	0.672314	-0.074137	0.277151
C216	C	1.172314	0.425863	0.777151
O217	O	0.600281	-0.146152	0.344163
O218	O	1.100281	0.353848	0.844163
O219	O	0.744376	-0.002101	0.344182
O220	O	1.244376	0.497899	0.844182
H221	H	0.770443	0.111587	0.000092
H222	H	1.270443	0.611587	0.500092
H223	H	0.525555	0.459814	0.000009
H224	H	1.025555	0.959814	0.500009
H225	H	0.819097	0.391900	0.000072
H226	H	1.319097	0.891900	0.500072
C227	C	0.753488	0.007144	0.849475
C228	C	1.253488	0.507144	1.349475
C229	C	0.723347	0.041861	0.885012
C230	C	1.223347	0.541861	1.385012
C231	C	0.762192	0.080865	0.916007
C232	C	1.262192	0.580865	1.416007
H233	H	0.777093	-0.013154	0.873677
H234	H	1.277093	0.486846	1.373677
H235	H	0.776675	0.030360	0.822187
H236	H	1.276675	0.530360	1.322187
H237	H	0.700170	0.018647	0.912296
H238	H	1.200170	0.518647	1.412296
H239	H	0.699744	0.062172	0.860824
H240	H	1.199744	0.562172	1.360824
H241	H	0.785379	0.104081	0.888720
H242	H	1.285379	0.604081	1.388720
H243	H	0.785796	0.060562	0.940206
H244	H	1.285796	0.560562	1.440206
H245	H	0.741747	0.104428	0.940119
H246	H	1.241747	0.604428	1.440119
H247	H	0.098544	-0.219617	0.000046
H248	H	0.598544	0.280383	0.500046
H249	H	0.526850	0.352066	0.000013
H250	H	1.026850	0.852066	0.500013
C251	C	0.783113	0.229389	0.000170
C252	C	1.283113	0.729389	0.500170
C253	C	0.785727	0.263915	0.050769
C254	C	1.285727	0.763915	0.550769
C255	C	0.837255	0.300760	0.050879
C256	C	1.337255	0.800760	0.550879
H257	H	0.814392	0.207472	0.000208
H258	H	1.314392	0.707472	0.500208
H259	H	0.785011	0.252887	-0.034117
H260	H	1.285011	0.752887	0.465883
H261	H	0.783835	0.240420	0.085047
H262	H	1.283835	0.740420	0.585047
H263	H	0.754460	0.285844	0.050742
H264	H	1.254460	0.785844	0.550742
H265	H	0.839153	0.324258	0.016592
H266	H	1.339153	0.824258	0.516592
H267	H	0.868530	0.278839	0.050915
H268	H	1.368530	0.778839	0.550915
H269	H	0.839033	0.324194	0.085207
H270	H	1.339033	0.824194	0.585207
C271	C	0.591056	-0.155326	0.849353
C272	C	1.091056	0.344674	1.349353
C273	C	0.556941	-0.189403	0.808986
C274	C	1.056941	0.310597	1.308986
C275	C	0.517916	-0.228359	0.839828
C276	C	1.017916	0.271641	1.339828
H277	H	0.611338	-0.178985	0.873509
H278	H	1.111338	0.321015	1.373509
H279	H	0.567434	-0.134973	0.873494
H280	H	1.067434	0.365027	1.373494
H281	H	0.580560	-0.209754	0.784854
H282	H	1.080560	0.290246	1.284854
H283	H	0.536647	-0.165759	0.784828
H284	H	1.036647	0.334241	1.284828
H285	H	0.494294	-0.208005	0.863969
H286	H	0.994294	0.291995	1.363969
H287	H	0.538202	-0.252014	0.863983
H288	H	1.038202	0.247986	1.363983
H289	H	0.494761	-0.251481	0.812443
H290	H	0.994761	0.248519	1.312443
C291	C	-0.177584	-0.178439	-0.000062
C292	C	0.322416	0.321561	0.499938
C293	C	-0.167418	-0.209928	-0.050682
C294	C	0.332582	0.290072	0.449318
C295	C	-0.204173	-0.261515	-0.050821
C296	C	0.295827	0.238485	0.449179
H297	H	-0.170793	-0.199961	0.034198
H298	H	0.329207	0.300039	0.534198
H299	H	-0.216208	-0.170548	-0.000091
H300	H	0.283792	0.329452	0.499909
H301	H	-0.128804	-0.217820	-0.050648
H302	H	0.371196	0.282180	0.449352
H303	H	-0.174213	-0.188423	-0.084951
H304	H	0.325787	0.311577	0.415049
H305	H	-0.242796	-0.253624	-0.050849
H306	H	0.257204	0.246376	0.449151
H307	H	-0.197378	-0.283032	-0.016558
H308	H	0.302622	0.216968	0.483442
H309	H	-0.197284	-0.282885	-0.085168
H310	H	0.302716	0.217115	0.414832
C311	C	0.567982	0.076023	0.000086
C312	C	1.067982	0.576023	0.500086
C313	C	0.522042	0.108543	0.000088
C314	C	1.022042	0.608543	0.500088
C315	C	0.470407	0.071864	0.000107
C316	C	0.970407	0.571864	0.500107
H317	H	0.566034	0.052546	-0.034209
H318	H	1.066034	0.552546	0.465791
H319	H	0.566062	0.052564	0.034402
H320	H	1.066062	0.552564	0.534402
H321	H	0.523961	0.131993	-0.034225
H322	H	1.023961	0.631993	0.465775
H323	H	0.523971	0.132019	0.034381
H324	H	1.023971	0.632019	0.534381
H325	H	0.468487	0.048405	0.034424
H326	H	0.968487	0.548405	0.534424
H327	H	0.468465	0.048388	-0.034188
H328	H	0.968465	0.548388	0.465812
H329	H	0.439231	0.093923	0.000114
H330	H	0.939231	0.593923	0.500114
C331	C	0.831865	0.509534	0.000098
C332	C	1.331865	1.009534	0.500098
C333	C	0.877790	0.476996	0.000122
C334	C	1.377790	0.976996	0.500122
C335	C	0.929437	0.513658	0.000171
C336	C	1.429437	1.013658	0.500171
H337	H	0.833842	0.533016	-0.034194
H338	H	1.333842	1.033016	0.465806
H339	H	0.833773	0.532990	0.034417
H340	H	1.333773	1.032990	0.534417
H341	H	0.875883	0.453550	-0.034194
H342	H	1.375883	0.953550	0.465806
H343	H	0.875833	0.453515	0.034412
H344	H	1.375833	0.953515	0.534412
H345	H	0.931345	0.537113	0.034490
H346	H	1.431345	1.037113	0.534490
H347	H	0.931408	0.537138	-0.034122
H348	H	1.431408	1.037138	0.465878
H349	H	0.960603	0.491586	0.000193
H350	H	1.460603	0.991586	0.500193
C351	C	0.591199	-0.155334	0.720252
C352	C	1.091199	0.344666	1.220252
C353	C	0.621333	-0.190038	0.684692
C354	C	1.121333	0.309962	1.184692
C355	C	0.582481	-0.229005	0.653660
C356	C	1.082481	0.270995	1.153660
H357	H	0.567995	-0.178569	0.747500
H358	H	1.067995	0.321431	1.247500
H359	H	0.567611	-0.134989	0.696065
H360	H	1.067611	0.365011	1.196065
H361	H	0.644911	-0.210382	0.708877
H362	H	1.144911	0.289618	1.208877
H363	H	0.644535	-0.166819	0.657434
H364	H	1.144535	0.333181	1.157434
H365	H	0.558894	-0.208659	0.629473
H366	H	1.058894	0.291341	1.129473
H367	H	0.559279	-0.252235	0.680911
H368	H	1.059279	0.247765	1.180911
H369	H	0.602922	-0.252552	0.629525
H370	H	1.102922	0.247448	1.129525
C371	C	0.561542	0.622335	0.000121
C372	C	1.061542	1.122335	0.500121
C373	C	0.558912	0.587811	0.050723
C374	C	1.058912	1.087811	0.550723
C375	C	0.507385	0.550964	0.050821
C376	C	1.007385	1.050964	0.550821
H377	H	0.530262	0.644249	0.000149
H378	H	1.030262	1.144249	0.500149
H379	H	0.559657	0.598834	-0.034164
H380	H	1.059657	1.098834	0.465836
H381	H	0.560791	0.611308	0.084999
H382	H	1.060791	1.111308	0.584999
H383	H	0.590180	0.565884	0.050706
H384	H	1.090180	1.065884	0.550706
H385	H	0.505500	0.527464	0.016536
H386	H	1.005500	1.027464	0.516536
H387	H	0.476109	0.572883	0.050847
H388	H	0.976109	1.072883	0.550847
H389	H	0.505597	0.527532	0.085151
H390	H	1.005597	1.027532	0.585151
H391	H	0.742969	-0.003535	0.159057
H392	H	1.242969	0.496465	0.659057
H393	H	0.743005	-0.003494	0.728706
H394	H	1.243005	0.496506	1.228706
H395	H	0.781929	0.035414	0.443878
H396	H	1.281929	0.535414	0.943878
C397	C	0.566601	0.199903	-0.000037
C398	C	1.066601	0.699903	0.499963
C399	C	0.563174	0.233595	-0.050645
C400	C	1.063174	0.733595	0.449355
C401	C	0.510938	0.256310	-0.050758
C402	C	1.010938	0.756310	0.449242
H403	H	0.535943	0.169553	-0.000067
H404	H	1.035943	0.669553	0.499933
H405	H	0.564154	0.222818	0.034244
H406	H	1.064154	0.722818	0.534244
H407	H	0.565615	0.210681	-0.084917
H408	H	1.065615	0.710681	0.415083
H409	H	0.593820	0.263954	-0.050625
H410	H	1.093820	0.763954	0.449375
H411	H	0.508491	0.279226	-0.016477
H412	H	1.008491	0.779226	0.483523
H413	H	0.480284	0.225957	-0.050787
H414	H	0.980284	0.725957	0.449213
H415	H	0.508608	0.279177	-0.085092
H416	H	1.008608	0.779177	0.414908
H417	H	0.781933	0.035423	0.556197
H418	H	1.281933	0.535423	1.056197
C419	C	0.492665	-0.186487	-0.000070
C420	C	0.992665	0.313513	0.499930
C421	C	0.473931	-0.217636	-0.050675
C422	C	0.973931	0.282364	0.449325
C423	C	0.496460	-0.269970	-0.050787
C424	C	0.996460	0.230030	0.449213
H425	H	0.533306	-0.179614	-0.000104
H426	H	1.033306	0.320386	0.499896
H427	H	0.480005	-0.207739	0.034213
H428	H	0.980005	0.292261	0.534213
H429	H	0.486595	-0.196389	-0.084949
H430	H	0.986595	0.303611	0.415051
H431	H	0.433293	-0.224524	-0.050652
H432	H	0.933293	0.275476	0.449348
H433	H	0.483799	-0.291222	-0.016504
H434	H	0.983799	0.208778	0.483496
H435	H	0.537100	-0.263091	-0.050819
H436	H	1.037100	0.236909	0.449181
H437	H	0.483748	-0.291113	-0.085119
H438	H	0.983748	0.208887	0.414881
H439	H	0.742973	-0.003516	0.271379
H440	H	1.242973	0.496484	0.771379
C441	C	0.552070	-0.194249	0.564521
C442	C	1.052070	0.305751	1.064521
C443	C	0.517955	-0.228319	0.524149
C444	C	1.017955	0.271681	1.024149
C445	C	0.478925	-0.267274	0.554986
C446	C	0.978925	0.232726	1.054986
H447	H	0.572348	-0.217912	0.588676
H448	H	1.072348	0.282088	1.088676
H449	H	0.528449	-0.173895	0.588663
H450	H	1.028449	0.326105	1.088663
H451	H	0.541573	-0.248671	0.500017
H452	H	1.041573	0.251329	1.000017
H453	H	0.497664	-0.204671	0.499992
H454	H	0.997664	0.295329	0.999992
H455	H	0.455304	-0.246920	0.579129
H456	H	0.955304	0.253080	1.079129
H457	H	0.499207	-0.290934	0.579141
H458	H	0.999207	0.209066	1.079141
H459	H	0.455769	-0.290392	0.527599
H460	H	0.955769	0.209608	1.027599
C461	C	0.552221	-0.194253	0.435419
C462	C	1.052221	0.305747	0.935419
C463	C	0.582353	-0.228960	0.399860
C464	C	1.082353	0.271040	0.899860
C465	C	0.543499	-0.267920	0.368823
C466	C	1.043499	0.232080	0.868823
H467	H	0.529012	-0.217486	0.462664
H468	H	1.029012	0.282514	0.962664
H469	H	0.528639	-0.173903	0.411231
H470	H	1.028639	0.326097	0.911231
H471	H	0.605925	-0.249309	0.424046
H472	H	1.105925	0.250691	0.924046
H473	H	0.605560	-0.205742	0.372605
H474	H	1.105560	0.294258	0.872605
H475	H	0.519916	-0.247570	0.344635
H476	H	1.019916	0.252430	0.844635
H477	H	0.520292	-0.291149	0.396071
H478	H	1.020292	0.208851	0.896071
H479	H	0.563937	-0.291469	0.344688
H480	H	1.063937	0.208531	0.844688
C481	C	0.132121	0.086766	0.000078
C482	C	0.632121	0.586766	0.500078
C483	C	0.072230	0.076367	0.000062
C484	C	0.572230	0.576367	0.500062
C485	C	0.049494	0.128592	0.000040
C486	C	0.549494	0.628592	0.500040
H487	H	0.144703	0.108017	0.034376
H488	H	0.644703	0.608017	0.534376
H489	H	0.144736	0.107993	-0.034235
H490	H	0.644736	0.607993	0.465765
H491	H	0.059620	0.055149	0.034372
H492	H	0.559620	0.555149	0.534372
H493	H	0.059633	0.055124	-0.034234
H494	H	0.559633	0.555124	0.465766
H495	H	0.062109	0.149819	-0.034273
H496	H	0.562109	0.649819	0.465727
H497	H	0.062080	0.149839	0.034339
H498	H	0.562080	0.649839	0.534339
H499	H	0.008856	0.121543	0.000024
H500	H	0.508856	0.621543	0.500024
C501	C	0.591012	-0.155353	0.279716
C502	C	1.091012	0.344647	0.779716
C503	C	0.556894	-0.189432	0.239353
C504	C	1.056894	0.310568	0.739353
C505	C	0.517863	-0.228378	0.270200
C506	C	1.017863	0.271622	0.770200
H507	H	0.611289	-0.179011	0.303879
H508	H	1.111289	0.320989	0.803879
H509	H	0.567392	-0.134992	0.303853
H510	H	1.067392	0.365008	0.803853
H511	H	0.580511	-0.209792	0.215227
H512	H	1.080511	0.290208	0.715227
H513	H	0.536605	-0.165789	0.215190
H514	H	1.036605	0.334211	0.715190
H515	H	0.494243	-0.208017	0.294337
H516	H	0.994243	0.291983	0.794337
H517	H	0.538145	-0.252032	0.294362
H518	H	1.038145	0.247968	0.794362
H519	H	0.494706	-0.251502	0.242819
H520	H	0.994706	0.248498	0.742819
H521	H	0.601648	-0.144772	0.159075
H522	H	1.101648	0.355228	0.659075
H523	H	0.378851	-0.170970	0.000041
H524	H	0.878851	0.329030	0.500041
H525	H	-0.141947	0.023982	0.000076
H526	H	0.358053	0.523982	0.500076
H527	H	0.206289	-0.220908	0.000035
H528	H	0.706289	0.279092	0.500035
H529	H	0.512280	0.016146	0.000054
H530	H	1.012280	0.516146	0.500054
H531	H	-0.059867	-0.165717	0.000055
H532	H	0.440133	0.334283	0.500055
H533	H	-0.034198	0.022693	0.000084
H534	H	0.465802	0.522693	0.500084
H535	H	0.246123	0.071339	0.000104
H536	H	0.746123	0.571339	0.500104
H537	H	0.763906	0.658056	0.000054
H538	H	1.263906	1.158056	0.500054
H539	H	0.404512	0.017441	0.000056
H540	H	0.904512	0.517441	0.500056
H541	H	0.762610	0.765821	0.000047
H542	H	1.262610	1.265821	0.500047
H543	H	0.574207	0.740136	0.000035
H544	H	1.074207	1.240136	0.500035
