data_functionalizedCrystal
_audit_creation_method	'MofGen! by Chris Wilmer'
_symmetry_space_group_name_H-M	'P1'
_symmetry_Int_Tables_number	1
_symmetry_cell_setting	triclinic
loop_
_symmetry_equiv_pos_as_xyz
  x,y,z
_cell_length_a	10.967874
_cell_length_b	11.026607
_cell_length_c	14.048226
_cell_angle_alpha	89.996210
_cell_angle_beta	77.864862
_cell_angle_gamma	96.380181
loop_
_atom_site_label
_atom_site_type_symbol
_atom_site_fract_x
_atom_site_fract_y
_atom_site_fract_z
O1	O	1.694036	0.170538	-0.357044
O2	O	1.334398	0.186857	-0.298052
O3	O	1.484411	0.001796	-0.322655
O4	O	1.544024	0.355599	-0.332441
O5	O	1.484385	0.001785	-0.164330
O6	O	1.334373	0.186846	-0.139726
O7	O	1.694011	0.170527	-0.198719
Zn8	Zn	1.514188	0.178685	-0.144085
Zn9	Zn	1.514221	0.178699	-0.352686
O10	O	1.543998	0.355588	-0.174115
C11	C	1.287629	0.185663	-0.211219
C12	C	1.148304	0.182108	-0.188365
C13	C	1.086202	0.180529	-0.260194
C14	C	0.942203	0.176855	-0.236575
C15	C	1.473401	-0.043512	-0.241690
C16	C	1.440617	-0.178499	-0.236315
C17	C	1.531139	-0.251550	-0.251165
C18	C	1.497257	-0.391067	-0.245611
C19	C	1.740780	0.171721	-0.285553
C20	C	1.880105	0.175276	-0.308414
C21	C	1.555008	0.400896	-0.255083
C22	C	1.587792	0.535883	-0.260463
N23	N	1.514174	0.178674	-0.001722
N24	N	1.514243	0.178701	-0.495050
C25	C	1.580633	0.096763	0.037196
C26	C	1.580642	0.096763	0.136852
C27	C	1.514197	0.178680	0.197588
C28	C	1.447729	0.260594	0.158664
C29	C	1.447714	0.260588	0.059011
C30	C	1.447767	0.260603	0.366372
C31	C	1.447783	0.260611	0.466032
C32	C	1.580695	0.096778	0.444214
C33	C	1.580680	0.096772	0.344560
C34	C	1.514213	0.178688	0.305643
H35	H	1.394668	-0.431808	-0.228789
N36	N	1.723687	-0.410169	-0.282762
H37	H	1.728632	-0.318151	-0.283572
H38	H	1.766651	-0.438201	-0.231118
H39	H	1.139642	0.181904	-0.339174
H40	H	1.634813	0.030079	0.475905
N41	N	1.304734	-0.232469	-0.214022
H42	H	1.261675	-0.204544	-0.148267
H43	H	1.261789	-0.204515	-0.265704
N44	N	0.950881	0.177080	-0.413038
H45	H	0.921384	0.101266	-0.445948
H46	H	0.934936	0.251784	-0.448106
H47	H	1.094866	0.180747	-0.109385
N48	N	1.652275	0.008398	-0.028314
H49	H	1.718062	0.055339	-0.080473
H50	H	1.694294	-0.043484	0.011531
N51	N	1.376134	0.348973	0.531541
H52	H	1.334022	0.400863	0.491768
H53	H	1.310421	0.301941	0.583691
N54	N	1.667026	-0.197594	-0.273444
H55	H	1.671968	-0.105576	-0.274248
H56	H	1.709971	-0.225633	-0.221791
H57	H	1.393638	0.327304	0.334691
N58	N	1.652375	0.008459	0.178821
H59	H	1.694490	-0.043416	0.125220
H60	H	1.718094	0.055550	0.209355
H61	H	1.634791	0.030075	0.295108
N62	N	0.871393	0.174527	-0.131940
H63	H	0.778540	0.171985	-0.129896
H64	H	0.887622	0.099701	-0.097181
N65	N	1.376057	0.348939	0.224175
H66	H	1.435931	0.403201	0.255684
H67	H	1.333951	0.400745	0.184340
N68	N	1.376025	0.348927	0.017031
H69	H	1.333934	0.400824	0.070626
H70	H	1.435949	0.403102	-0.034164
