data_functionalizedCrystal
_audit_creation_method	'MofGen! by Chris Wilmer'
_symmetry_space_group_name_H-M	'P1'
_symmetry_Int_Tables_number	1
_symmetry_cell_setting	triclinic
loop_
_symmetry_equiv_pos_as_xyz
  x,y,z
_cell_length_a	19.121459
_cell_length_b	19.805407
_cell_length_c	19.121256
_cell_angle_alpha	87.549788
_cell_angle_beta	90.113108
_cell_angle_gamma	92.416784
loop_
_atom_site_label
_atom_site_type_symbol
_atom_site_fract_x
_atom_site_fract_y
_atom_site_fract_z
Zn1	Zn	-0.296141	-1.062643	0.384547
Zn2	Zn	-0.408348	-1.062173	0.262317
Zn3	Zn	-0.291129	-0.944457	0.267320
Zn4	Zn	-0.413336	-0.954035	0.379510
O5	O	-0.352238	-1.005827	0.323424
O6	O	-0.311035	-1.157298	0.368348
O7	O	-0.388613	-1.042352	0.164876
O8	O	-0.193692	-0.956323	0.287073
O9	O	-0.393473	-1.156953	0.278546
O10	O	-0.197374	-1.043154	0.373199
O11	O	-0.302494	-0.955867	0.168551
O12	O	-0.307330	-0.851010	0.282188
O13	O	-0.401975	-0.972647	0.478283
O14	O	-0.397115	-0.858046	0.364613
O15	O	-0.315872	-1.052441	0.481984
O16	O	-0.507112	-1.051640	0.273661
O17	O	-0.510777	-0.972191	0.359762
C18	C	-0.352221	-0.829969	0.323397
C19	C	-0.352231	-0.754737	0.323401
C20	C	-0.399045	-0.723075	0.366244
C21	C	-0.399045	-0.652387	0.366252
C22	C	-0.352234	-0.613363	0.323413
C23	C	-0.305415	-0.645030	0.280569
C24	C	-0.305411	-0.715717	0.280565
C25	C	-0.305425	-0.359958	0.280584
C26	C	-0.305434	-0.289266	0.280590
C27	C	-0.399059	-0.296627	0.366271
C28	C	-0.399056	-0.367314	0.366267
C29	C	-0.352235	-0.398976	0.323426
C30	C	-0.352234	-0.475624	0.323419
C31	C	-0.352237	-0.536716	0.323416
C32	C	-0.534382	-1.012923	0.315637
C33	C	-0.612304	-1.016021	0.312330
C34	C	-1.052922	-1.035636	0.291358
C35	C	-0.979705	-1.032718	0.294467
C36	C	-0.945032	-0.989863	0.340816
C37	C	-0.983578	-0.949918	0.384053
C38	C	-1.056793	-0.952832	0.380939
C39	C	-0.724066	-0.978990	0.352453
C40	C	-0.650846	-0.976080	0.355565
C41	C	-0.646978	-1.058880	0.265978
C42	C	-0.720195	-1.061794	0.262872
C43	C	-0.758735	-1.021846	0.306106
C44	C	-0.870193	-0.986882	0.343997
C45	C	-0.833572	-1.024824	0.302922
C46	C	-0.169385	-0.998722	0.331256
C47	C	-0.091463	-0.995695	0.334593
C48	C	-0.360039	-1.013665	0.506283
C49	C	-0.363363	-1.017005	0.584206
C50	C	-0.352252	-0.182371	0.323444
C51	C	-0.352245	-0.257602	0.323436
C52	C	-0.320087	-0.973548	0.622728
C53	C	-0.323217	-0.976684	0.695945
C54	C	-0.369618	-1.023281	0.730640
C55	C	-0.412898	-1.066740	0.692113
C56	C	-0.409772	-1.063600	0.618896
C57	C	-0.381303	-1.035010	0.951609
C58	C	-0.384424	-1.038148	1.024830
C59	C	-0.294743	-0.948091	1.028658
C60	C	-0.291618	-0.944958	0.955441
C61	C	-0.334901	-0.988415	0.916920
C62	C	-0.372816	-1.026489	0.805479
C63	C	-0.331706	-0.985203	0.842081
C64	C	-0.344481	-0.998019	1.141275
C65	C	-0.341149	-0.994691	1.063352
H66	H	-0.437167	-0.626610	0.401138
H67	H	-1.081148	-1.070537	0.253620
Br68	Br	-0.241900	-0.236305	0.222447
H69	H	-0.267306	-0.385728	0.245695
Br70	Br	-0.927402	-1.086934	0.235795
Br71	Br	-0.462592	-0.420272	0.424403
H72	H	-0.267297	-0.613251	0.245692
Br73	Br	-0.475879	-1.129974	0.739196
H74	H	-1.088173	-0.920311	0.416150
H75	H	-0.437181	-0.270840	0.401157
H76	H	-0.267287	-0.741496	0.245682
Br77	Br	-0.823130	-0.928729	0.406903
Br78	Br	-0.767247	-1.119962	0.199973
H79	H	-0.259506	-0.912710	1.060029
Br80	Br	-0.228639	-0.881720	0.908360
Br81	Br	-0.257106	-0.910310	0.575650
Br82	Br	-0.594671	-1.113092	0.207306
Br83	Br	-0.462583	-0.776029	0.424380
H84	H	-0.287980	-0.941294	0.727307
Br85	Br	-0.468511	-1.122575	0.566616
H86	H	-0.622618	-0.941180	0.393310
Br87	Br	-0.447393	-1.101399	1.071916
Br88	Br	-0.936522	-0.891755	0.446954
H89	H	-0.755436	-0.946456	0.387653
Br90	Br	-0.440040	-1.093992	0.899340
H91	H	-0.861807	-1.059714	0.265183
Br92	Br	-0.268734	-0.921967	0.794995
H93	H	-0.410597	-1.064428	0.833736
