data_functionalizedCrystal
_audit_creation_method	'MofGen! by Chris Wilmer'
_symmetry_space_group_name_H-M	'P1'
_symmetry_Int_Tables_number	1
_symmetry_cell_setting	triclinic
loop_
_symmetry_equiv_pos_as_xyz
  x,y,z
_cell_length_a	14.044220
_cell_length_b	12.503572
_cell_length_c	14.044220
_cell_angle_alpha	86.156832
_cell_angle_beta	93.188878
_cell_angle_gamma	93.835250
loop_
_atom_site_label
_atom_site_type_symbol
_atom_site_fract_x
_atom_site_fract_y
_atom_site_fract_z
O1	O	1.282200	0.089210	0.225116
O2	O	1.005530	0.089237	0.216809
O3	O	1.139712	0.089213	0.082627
O4	O	1.148019	0.089234	0.359298
O5	O	1.129622	-0.089427	0.092737
O6	O	0.995440	-0.089403	0.226918
O7	O	1.272110	-0.089430	0.235226
Cu8	Cu	1.132854	-0.105728	0.231995
Cu9	Cu	1.144786	0.105535	0.220040
O10	O	1.137929	-0.089406	0.369407
C11	C	0.964864	-0.000080	0.218228
C12	C	0.858721	-0.000070	0.207383
N13	N	1.124469	-0.254319	0.240404
C14	C	0.664382	-0.000092	0.187558
C15	C	0.613253	-0.000091	0.264472
C16	C	0.505116	-0.000104	0.253441
C17	C	0.772529	-0.000080	0.198587
C18	C	1.112134	-0.473432	0.252782
C19	C	1.165511	-0.526768	0.199249
C20	C	1.158648	-0.648690	0.206136
C21	C	1.118996	-0.351499	0.245896
C22	C	1.312777	-0.000111	0.233807
C23	C	1.418920	-0.000114	0.244651
C24	C	1.131031	-0.000107	0.052060
C25	C	1.120187	-0.000107	-0.054082
N26	N	1.153179	0.254126	0.211624
C27	C	1.100361	-0.000090	-0.248421
C28	C	1.177275	-0.000094	-0.299551
C29	C	1.166244	-0.000084	-0.407687
C30	C	1.111391	-0.000099	-0.140274
C31	C	1.146609	-0.000084	0.399974
C32	C	1.157454	-0.000077	0.506117
H33	H	0.650692	-0.000081	0.338605
C34	C	0.613812	-0.000093	0.087417
H35	H	0.546714	-0.000089	0.093047
H36	H	0.628242	-0.062384	0.057229
H37	H	0.635265	0.062216	0.050197
H38	H	1.216364	-0.480864	0.148245
H39	H	1.061285	-0.519330	0.303783
C40	C	1.277422	-0.000128	-0.248978
H41	H	1.271796	-0.000145	-0.181878
H42	H	1.314656	0.062158	-0.270435
H43	H	1.307589	-0.062441	-0.263408
C44	C	1.000220	-0.000089	-0.298992
H45	H	1.005851	-0.000095	-0.366090
H46	H	0.970026	0.062203	-0.284571
H47	H	0.963008	-0.062396	-0.277529
