data_functionalizedCrystal
_audit_creation_method	'MofGen! by Chris Wilmer'
_symmetry_space_group_name_H-M	'P1'
_symmetry_Int_Tables_number	1
_symmetry_cell_setting	triclinic
loop_
_symmetry_equiv_pos_as_xyz
  x,y,z
_cell_length_a	13.897448
_cell_length_b	12.645331
_cell_length_c	13.897441
_cell_angle_alpha	89.986527
_cell_angle_beta	90.030599
_cell_angle_gamma	89.984154
loop_
_atom_site_label
_atom_site_type_symbol
_atom_site_fract_x
_atom_site_fract_y
_atom_site_fract_z
Zn1	Zn	-0.384032	-1.620725	0.545194
Zn2	Zn	0.115968	-1.120725	1.045194
Zn3	Zn	-0.545353	-1.620608	0.383896
Zn4	Zn	-0.045353	-1.120608	0.883896
Zn5	Zn	-0.384069	-1.443441	0.383933
Zn6	Zn	0.115931	-0.943441	0.883933
Zn7	Zn	-0.545281	-1.443421	0.545169
Zn8	Zn	-0.045281	-0.943421	1.045169
O9	O	-0.464684	-1.532049	0.464548
O10	O	0.035316	-1.032049	0.964548
O11	O	-0.405446	-1.769057	0.523793
O12	O	0.094554	-1.269057	1.023793
O13	O	-0.524004	-1.597066	0.248919
O14	O	-0.024004	-1.097066	0.748919
O15	O	-0.249082	-1.467016	0.405351
O16	O	0.250918	-0.967016	0.905351
O17	O	-0.523968	-1.768971	0.405287
O18	O	-0.023968	-1.268971	0.905287
O19	O	-0.249055	-1.597265	0.523829
O20	O	0.250945	-1.097265	1.023829
O21	O	-0.405509	-1.466903	0.248946
O22	O	0.094491	-0.966903	0.748946
O23	O	-0.405439	-1.295091	0.405326
O24	O	0.094561	-0.795091	0.905326
O25	O	-0.523845	-1.466981	0.680154
O26	O	-0.023845	-0.966981	1.180154
O27	O	-0.523881	-1.295077	0.523785
O28	O	-0.023881	-0.795077	1.023785
O29	O	-0.405376	-1.597246	0.680173
O30	O	0.094624	-1.097246	1.180173
O31	O	-0.680326	-1.597047	0.405263
O32	O	-0.180326	-1.097047	0.905263
O33	O	-0.680272	-1.466868	0.523749
O34	O	-0.180272	-0.966868	1.023749
C35	C	-0.464657	-1.256619	0.464558
C36	C	0.035343	-0.756619	0.964558
C37	C	-0.464669	-1.138789	0.464585
C38	C	0.035331	-0.638789	0.964585
C39	C	-0.539587	-0.971251	0.538723
C40	C	-0.039587	-0.471251	1.038723
C41	C	-0.539347	-1.093811	0.539030
C42	C	-0.039347	-0.593811	1.039030
C43	C	-0.363072	-1.094311	0.492363
C44	C	0.136928	-0.594311	0.992363
C45	C	-0.363527	-0.971713	0.492889
C46	C	0.136473	-0.471713	0.992889
C47	C	-0.490524	-0.971545	0.362443
C48	C	0.009476	-0.471545	0.862443
C49	C	-0.492748	-1.094151	0.362990
C50	C	0.007252	-0.594151	0.862990
C51	C	-0.715298	-1.531972	0.464520
C52	C	-0.215298	-1.031972	0.964520
C53	C	-0.822512	-1.532036	0.464540
C54	C	-0.322512	-1.032036	0.964540
C55	C	-1.018807	-1.532147	0.464601
C56	C	-0.518807	-1.032147	0.964601
C57	C	-0.909575	-1.532082	0.464570
C58	C	-0.409575	-1.032082	0.964570
C59	C	-0.213091	-1.532156	0.464597
C60	C	0.286909	-1.032156	0.964597
C61	C	-0.105877	-1.532201	0.464618
C62	C	0.394123	-1.032201	0.964618
C63	C	-0.464599	-1.532124	0.716141
C64	C	0.035401	-1.032124	1.216141
C65	C	-0.464562	-1.532156	0.823355
C66	C	0.035438	-1.032156	1.323355
C67	C	-0.464707	-0.808554	0.464545
C68	C	0.035293	-0.308554	0.964545
C69	C	-0.464706	-0.926384	0.464561
C70	C	0.035294	-0.426384	0.964561
C71	C	-0.464699	-1.532035	0.213934
C72	C	0.035301	-1.032035	0.713934
C73	C	-0.464464	-1.532208	0.106720
C74	C	0.035536	-1.032208	0.606720
C75	C	-0.464497	-1.532185	1.019650
C76	C	0.035503	-1.032185	1.519650
C77	C	-0.464536	-1.532166	0.910418
C78	C	0.035464	-1.032166	1.410418
H79	H	-0.563344	-0.940623	0.337197
H80	H	-0.063344	-0.440623	0.837197
C81	C	-0.593735	-1.133450	0.334675
C82	C	-0.093735	-0.633450	0.834675
H83	H	-0.618688	-1.176883	0.384552
H84	H	-0.118688	-0.676883	0.884552
H85	H	-0.635096	-1.074540	0.325184
H86	H	-0.135096	-0.574540	0.825184
H87	H	-0.589712	-1.173204	0.276822
H88	H	-0.089712	-0.673204	0.776822
C89	C	-0.424413	-1.135499	0.284334
C90	C	0.075587	-0.635499	0.784334
H91	H	-0.377651	-1.180722	0.312551
H92	H	0.122349	-0.680722	0.812551
H93	H	-0.460289	-1.173775	0.237725
H94	H	0.039711	-0.673775	0.737725
H95	H	-0.393120	-1.077500	0.254212
H96	H	0.106880	-0.577500	0.754212
H97	H	-0.435981	-0.942528	0.307185
H98	H	0.064019	-0.442528	0.807185
H99	H	-0.614687	-1.123884	0.521620
H100	H	-0.114687	-0.623884	1.021620
H101	H	-0.341629	-0.943137	0.567542
H102	H	0.158371	-0.443137	1.067542
C103	C	-0.285593	-0.931611	0.423118
C104	C	0.214407	-0.431611	0.923118
H105	H	-0.253790	-0.990249	0.394584
H106	H	0.246210	-0.490249	0.894584
H107	H	-0.314693	-0.889853	0.374285
H108	H	0.185307	-0.389853	0.874285
H109	H	-0.240199	-0.890005	0.457457
H110	H	0.259801	-0.390005	0.957457
C111	C	-0.285649	-1.133671	0.421681
C112	C	0.214351	-0.633671	0.921681
H113	H	-0.314667	-1.177689	0.374491
H114	H	0.185333	-0.677689	0.874491
H115	H	-0.256200	-1.074804	0.391106
H116	H	0.243800	-0.574804	0.891106
H117	H	-0.238323	-1.172824	0.455842
H118	H	0.261677	-0.672824	0.955842
C119	C	-0.641701	-0.931405	0.515478
C120	C	-0.141701	-0.431405	1.015478
H121	H	-0.639586	-0.887042	0.460340
H122	H	-0.139586	-0.387042	0.960340
H123	H	-0.682558	-0.990055	0.503075
H124	H	-0.182558	-0.490055	1.003075
H125	H	-0.665952	-0.892507	0.568678
H126	H	-0.165952	-0.392507	1.068678
H127	H	-0.522261	-1.123159	0.614694
H128	H	-0.022261	-0.623159	1.114694
C129	C	-0.516800	-0.929672	0.640350
C130	C	-0.016800	-0.429672	1.140350
H131	H	-0.461847	-0.885091	0.637781
H132	H	0.038153	-0.385091	1.137781
H133	H	-0.570235	-0.890664	0.663937
H134	H	-0.070235	-0.390664	1.163937
H135	H	-0.504237	-0.987618	0.682028
H136	H	-0.004237	-0.487618	1.182028
H137	H	-0.340776	-1.125035	0.566206
H138	H	0.159224	-0.625035	1.066206
