data_functionalizedCrystal
_audit_creation_method	'MofGen! by Chris Wilmer'
_symmetry_space_group_name_H-M	'P1'
_symmetry_Int_Tables_number	1
_symmetry_cell_setting	triclinic
loop_
_symmetry_equiv_pos_as_xyz
  x,y,z
_cell_length_a	16.109302
_cell_length_b	15.995350
_cell_length_c	15.186229
_cell_angle_alpha	89.998487
_cell_angle_beta	89.994701
_cell_angle_gamma	83.477078
loop_
_atom_site_label
_atom_site_type_symbol
_atom_site_fract_x
_atom_site_fract_y
_atom_site_fract_z
O1	O	1.103159	0.107627	-0.073264
O2	O	1.603159	0.607627	0.426736
O3	O	0.861101	0.121020	-0.073256
O4	O	1.361101	0.621020	0.426744
O5	O	0.988747	-0.007566	-0.073259
O6	O	1.488747	0.492434	0.426741
O7	O	0.975513	0.236213	-0.073261
O8	O	1.475513	0.736213	0.426739
O9	O	0.988738	-0.007568	0.073198
O10	O	1.488738	0.492432	0.573198
O11	O	0.861092	0.121018	0.073201
O12	O	1.361092	0.621018	0.573201
O13	O	1.103151	0.107625	0.073194
O14	O	1.603151	0.607625	0.573194
Zn15	Zn	0.982120	0.114321	0.096451
Zn16	Zn	1.482120	0.614321	0.596451
Zn17	Zn	0.982131	0.114324	-0.096513
Zn18	Zn	1.482131	0.614324	0.403487
O19	O	0.975505	0.236211	0.073197
O20	O	1.475505	0.736211	0.573197
C21	C	0.830122	0.120476	-0.000027
C22	C	1.330122	0.620476	0.499973
C23	C	0.737826	0.118850	-0.000024
C24	C	1.237826	0.618850	0.499976
C25	C	0.525479	0.115087	0.079801
C26	C	1.025479	0.615087	0.579801
C27	C	0.438759	0.113549	0.079798
C28	C	0.938759	0.613549	0.579798
C29	C	0.438779	0.113556	-0.079878
C30	C	0.938779	0.613556	0.420122
C31	C	0.525498	0.115087	-0.079874
C32	C	1.025498	0.615087	0.420126
C33	C	0.568846	0.115857	-0.000032
C34	C	1.068846	0.615857	0.499968
C35	C	0.395406	0.112788	-0.000039
C36	C	0.895406	0.612788	0.499961
C37	C	0.301380	0.111121	-0.000043
C38	C	0.801380	0.611121	0.499957
C39	C	0.662878	0.117523	-0.000027
C40	C	1.162878	0.617523	0.499973
C41	C	0.988196	-0.038761	-0.000032
C42	C	1.488196	0.461239	0.499968
C43	C	0.986555	-0.131711	-0.000037
C44	C	1.486555	0.368289	0.499963
C45	C	0.980665	-0.469457	-0.000034
C46	C	1.480665	0.030543	0.499966
C47	C	0.889758	-0.421999	-0.000360
C48	C	1.389758	0.078001	0.499640
C49	C	0.891398	-0.325309	-0.000030
C50	C	1.391398	0.174691	0.499970
C51	C	0.983587	-0.301898	-0.000036
C52	C	1.483587	0.198102	0.499964
C53	C	1.028420	-0.342988	0.083595
C54	C	1.528420	0.157012	0.583595
C55	C	1.026137	-0.439623	0.083665
C56	C	1.526137	0.060377	0.583665
C57	C	1.028024	-0.439980	-0.082884
C58	C	1.528024	0.060020	0.417116
C59	C	1.028003	-0.343035	-0.083989
C60	C	1.528003	0.156965	0.416011
C61	C	0.985243	-0.207201	-0.000034
C62	C	1.485243	0.292799	0.499966
C63	C	0.979012	-0.564155	-0.000030
C64	C	1.479012	-0.064155	0.499970
C65	C	1.134130	0.108169	-0.000038
C66	C	1.634130	0.608169	0.499962
C67	C	1.226426	0.109796	-0.000046
C68	C	1.726426	0.609796	0.499954
C69	C	0.976056	0.267407	-0.000032
C70	C	1.476056	0.767407	0.499968
C71	C	0.977696	0.360357	-0.000033
C72	C	1.477696	0.860357	0.499967
N73	N	0.982119	0.114319	0.228143
N74	N	1.482119	0.614319	0.728143
N75	N	0.982140	0.114319	-0.228206
N76	N	1.482140	0.614319	0.271794
C77	C	1.038660	0.057401	0.453865
C78	C	1.538660	0.557401	0.953865
C79	C	1.038662	0.057399	0.546054
C80	C	1.538662	0.557399	1.046054
C81	C	0.925593	0.171241	0.546066
C82	C	1.425593	0.671241	1.046066
C83	C	0.925587	0.171238	0.453878
C84	C	1.425587	0.671238	0.953878
C85	C	0.982125	0.114319	0.407780
C86	C	1.482125	0.614319	0.907780
C87	C	0.982133	0.114320	0.592157
C88	C	1.482133	0.614320	1.092157
C89	C	0.982136	0.114318	0.692114
C90	C	1.482136	0.614318	1.192114
C91	C	0.982122	0.114319	0.307817
C92	C	1.482122	0.614319	0.807817
H93	H	0.856156	-0.296877	-0.059980
H94	H	1.356156	0.203123	0.440020
H95	H	0.403454	0.112923	0.144806
H96	H	0.903454	0.612923	0.644806
H97	H	0.403474	0.112930	-0.144882
H98	H	0.903474	0.612930	0.355118
F99	F	0.842350	-0.447879	0.077382
F100	F	1.342350	0.052121	0.577382
F101	F	0.865426	0.231817	0.595133
F102	F	1.365426	0.731817	1.095133
F103	F	0.842267	-0.446205	-0.078750
F104	F	1.342267	0.053795	0.421250
H105	H	0.560809	0.115712	-0.144887
H106	H	1.060809	0.615712	0.355113
F107	F	0.865409	0.231818	0.404827
F108	F	1.365409	0.731818	0.904827
H109	H	0.993437	-0.457917	0.146185
H110	H	1.493437	0.042083	0.646185
F111	F	0.571611	0.115903	0.164776
F112	F	1.071611	0.615903	0.664776
H113	H	0.855912	-0.297435	0.060025
H114	H	1.355912	0.202565	0.560025
H115	H	1.092879	-0.471890	0.087455
H116	H	1.592879	0.028110	0.587455
H117	H	1.084697	0.011050	0.583574
H118	H	1.584697	0.511050	1.083574
H119	H	1.096149	-0.328881	0.086701
H120	H	1.596149	0.171119	0.586701
H121	H	0.997274	-0.314599	0.145835
H122	H	1.497274	0.185401	0.645835
H123	H	0.998306	-0.460511	-0.146272
H124	H	1.498306	0.039489	0.353728
F125	F	1.115874	-0.322975	-0.090602
F126	F	1.615874	0.177025	0.409398
F127	F	0.985488	-0.307017	-0.164868
F128	F	1.485488	0.192983	0.335132
F129	F	1.115631	-0.481518	-0.083627
F130	F	1.615631	0.018482	0.416373
F131	F	1.098830	-0.003180	0.404807
F132	F	1.598830	0.496820	0.904807
