data_functionalizedCrystal
_audit_creation_method	'MofGen! by Chris Wilmer'
_symmetry_space_group_name_H-M	'P1'
_symmetry_Int_Tables_number	1
_symmetry_cell_setting	triclinic
loop_
_symmetry_equiv_pos_as_xyz
  x,y,z
_cell_length_a	11.026607
_cell_length_b	9.065218
_cell_length_c	8.140239
_cell_angle_alpha	90.001686
_cell_angle_beta	90.002244
_cell_angle_gamma	96.800951
loop_
_atom_site_label
_atom_site_type_symbol
_atom_site_fract_x
_atom_site_fract_y
_atom_site_fract_z
O1	O	-1.616970	-0.619585	-0.136603
O2	O	-1.116970	-0.119585	0.363397
O3	O	-1.262889	-0.549033	-0.136606
O4	O	-0.762889	-0.049033	0.363394
O5	O	-1.447248	-0.371492	-0.136601
O6	O	-0.947248	0.128508	0.363399
O7	O	-1.432611	-0.797126	-0.136608
O8	O	-0.932611	-0.297126	0.363392
O9	O	-1.447238	-0.371487	0.136626
O10	O	-0.947238	0.128513	0.636626
O11	O	-1.262878	-0.549028	0.136621
O12	O	-0.762878	-0.049028	0.636621
O13	O	-1.616960	-0.619580	0.136625
O14	O	-1.116960	-0.119580	0.636625
Zn15	Zn	-1.439918	-0.584303	0.180003
Zn16	Zn	-0.939918	-0.084303	0.680003
Zn17	Zn	-1.439931	-0.584310	-0.179985
Zn18	Zn	-0.939931	-0.084310	0.320015
O19	O	-1.432600	-0.797121	0.136619
O20	O	-0.932600	-0.297121	0.636619
C21	C	-1.217530	-0.536015	0.000007
C22	C	-0.717530	-0.036015	0.500007
C23	C	-1.082389	-0.497214	0.000006
C24	C	-0.582389	0.002786	0.500006
N25	N	-1.439917	-0.584300	0.425686
N26	N	-0.939917	-0.084300	0.925686
C27	C	-1.662319	-0.632598	0.000008
C28	C	-1.162319	-0.132598	0.500008
C29	C	-1.797460	-0.671399	-0.000001
C30	C	-1.297460	-0.171399	0.499999
C31	C	-1.009761	-0.604348	0.000003
C32	C	-0.509761	-0.104348	0.500003
C33	C	-0.870086	-0.564249	0.000001
C34	C	-0.370086	-0.064249	0.500001
C35	C	-1.445836	-0.316152	0.000010
C36	C	-0.945836	0.183848	0.500010
C37	C	-1.441630	-0.151260	0.000002
C38	C	-0.941630	0.348740	0.500002
C39	C	-1.434012	-0.852461	0.000005
C40	C	-0.934012	-0.352461	0.500005
C41	C	-1.438219	-1.017353	0.000002
C42	C	-0.938219	-0.517353	0.500002
N43	N	-1.439941	-0.584304	-0.425668
N44	N	-0.939941	-0.084304	0.074332
H45	H	-1.050987	-0.725756	0.000010
H46	H	-0.550987	-0.225756	0.500010
Br47	Br	-1.013691	-0.294853	0.000027
Br48	Br	-0.513691	0.205147	0.500027
Br49	Br	-0.801393	-0.361879	0.000023
Br50	Br	-0.301393	0.138121	0.500023
Br51	Br	-0.866149	-0.873770	0.000026
Br52	Br	-0.366149	-0.373770	0.500026
