data_functionalizedCrystal
_audit_creation_method	'MofGen! by Chris Wilmer'
_symmetry_space_group_name_H-M	'P1'
_symmetry_Int_Tables_number	1
_symmetry_cell_setting	triclinic
loop_
_symmetry_equiv_pos_as_xyz
  x,y,z
_cell_length_a	14.044220
_cell_length_b	16.098538
_cell_length_c	17.000383
_cell_angle_alpha	92.506243
_cell_angle_beta	95.605410
_cell_angle_gamma	92.982557
loop_
_atom_site_label
_atom_site_type_symbol
_atom_site_fract_x
_atom_site_fract_y
_atom_site_fract_z
O1	O	1.246317	0.069165	-0.187530
O2	O	1.746317	0.569165	0.312470
O3	O	0.970923	0.069186	-0.180645
O4	O	1.470923	0.569186	0.319355
O5	O	1.125718	0.069171	-0.069435
O6	O	1.625718	0.569171	0.430565
O7	O	1.091522	0.069180	-0.298739
O8	O	1.591522	0.569180	0.201261
O9	O	1.116678	-0.069341	-0.075904
O10	O	1.616678	0.430659	0.424096
O11	O	0.961883	-0.069326	-0.187113
O12	O	1.461883	0.430674	0.312887
O13	O	1.237277	-0.069347	-0.193998
O14	O	1.737277	0.430653	0.306002
Zn15	Zn	1.098145	-0.091328	-0.191583
Zn16	Zn	1.598145	0.408672	0.308417
Zn17	Zn	1.110055	0.091167	-0.183060
Zn18	Zn	1.610055	0.591167	0.316940
O19	O	1.082482	-0.069332	-0.305208
O20	O	1.582482	0.430668	0.194792
C21	C	0.931340	-0.000067	-0.180866
C22	C	1.431340	0.499933	0.319134
C23	C	0.826864	-0.000059	-0.171877
C24	C	1.326864	0.499941	0.328123
N25	N	1.090023	-0.215877	-0.197399
N26	N	1.590023	0.284123	0.302601
C27	C	0.635571	-0.000076	-0.155446
C28	C	1.135571	0.499924	0.344554
C29	C	0.572625	-0.000077	-0.219193
C30	C	1.072625	0.499923	0.280807
C31	C	0.466183	-0.000087	-0.210050
C32	C	0.966183	0.499913	0.289950
C33	C	0.742023	-0.000067	-0.164588
C34	C	1.242023	0.499933	0.335412
C35	C	1.155745	-0.259468	-0.150217
C36	C	1.655745	0.240532	0.349783
C37	C	1.150072	-0.346656	-0.154294
C38	C	1.650072	0.153344	0.345706
C39	C	1.078679	-0.390252	-0.205558
C40	C	1.578679	0.109748	0.294442
C41	C	1.012951	-0.346654	-0.252741
C42	C	1.512951	0.153346	0.247259
C43	C	1.018620	-0.259467	-0.248660
C44	C	1.518620	0.240533	0.251340
C45	C	1.058126	-0.653500	-0.220340
C46	C	1.558126	-0.153500	0.279660
C47	C	1.052463	-0.740693	-0.224420
C48	C	1.552463	-0.240693	0.275580
C49	C	1.189584	-0.740689	-0.125971
C50	C	1.689584	-0.240689	0.374029
C51	C	1.195251	-0.653500	-0.121898
C52	C	1.695251	-0.153500	0.378102
C53	C	1.129519	-0.609910	-0.169078
C54	C	1.629519	-0.109910	0.330922
C55	C	1.072880	-0.479372	-0.209728
C56	C	1.572880	0.020628	0.290272
C57	C	1.135314	-0.520791	-0.164903
C58	C	1.635314	-0.020791	0.335097
C59	C	1.276860	-0.000092	-0.193777
C60	C	1.776860	0.499908	0.306223
C61	C	1.381337	-0.000094	-0.202765
C62	C	1.881337	0.499906	0.297235
C63	C	1.123035	-0.000084	-0.043146
C64	C	1.623035	0.499916	0.456854
C65	C	1.128496	-0.000082	0.044824
C66	C	1.628496	0.499918	0.544824
N67	N	1.118185	0.215716	-0.177238
N68	N	1.618185	0.715716	0.322762
C69	C	1.085165	-0.000075	-0.331497
C70	C	1.585165	0.499925	0.168503
C71	C	1.079704	-0.000072	-0.419467
C72	C	1.579704	0.499928	0.080533
C73	C	1.163761	-0.000081	0.542538
C74	C	1.663761	0.499919	1.042538
C75	C	1.158622	-0.000086	0.459879
C76	C	1.658622	0.499914	0.959879
C77	C	1.069425	-0.000075	0.415218
C78	C	1.569425	0.499925	0.915218
C79	C	0.985362	-0.000068	0.453219
C80	C	1.485362	0.499932	0.953219
C81	C	0.990502	-0.000069	0.535875
C82	C	1.490502	0.499931	1.035875
C83	C	1.049573	-0.000076	0.165482
C84	C	1.549573	0.499924	0.665482
C85	C	1.044440	-0.000072	0.082820
C86	C	1.544440	0.499928	0.582820
C87	C	1.217700	-0.000092	0.089486
C88	C	1.717700	0.499908	0.589486
C89	C	1.222832	-0.000088	0.172144
C90	C	1.722832	0.499912	0.672144
C91	C	1.138769	-0.000085	0.210137
C92	C	1.638769	0.499915	0.710137
C93	C	1.064170	-0.000077	0.330728
C94	C	1.564170	0.499923	0.830728
C95	C	1.144024	-0.000089	0.294626
C96	C	1.644024	0.499911	0.794626
H97	H	0.598676	-0.000071	-0.280634
H98	H	1.098676	0.499929	0.219366
H99	H	0.981123	-0.000064	0.196406
H100	H	1.481123	0.499936	0.696406
F101	F	1.248088	-0.000080	0.419447
F102	F	1.748088	0.499920	0.919447
F103	F	1.258698	-0.000086	0.590063
F104	F	1.758698	0.499914	1.090063
H105	H	0.991547	-0.000065	0.294356
H106	H	1.491547	0.499935	0.794356
F107	F	1.238950	-0.000106	0.342159
F108	F	1.738950	0.499894	0.842159
H109	H	0.994324	-0.776184	-0.266168
H110	H	1.494324	-0.276184	0.233832
H111	H	1.193439	-0.485294	-0.123161
H112	H	1.693439	0.014706	0.376839
F113	F	0.601522	-0.000082	-0.075143
F114	F	1.101522	0.499918	0.424857
F115	F	1.220020	-0.393050	-0.104077
F116	F	1.720020	0.106950	0.395923
F117	F	1.317767	-0.000102	0.219670
F118	F	1.817767	0.499898	0.719670
H119	H	1.213884	-0.223978	-0.108477
H120	H	1.713884	0.276022	0.391523
H121	H	1.004606	-0.618016	-0.258758
H122	H	1.504606	-0.118016	0.241242
H123	H	0.912736	-0.000064	0.416849
H124	H	1.412736	0.499936	0.916849
F125	F	0.948667	-0.213075	-0.298875
F126	F	1.448667	0.286925	0.201125
F127	F	1.271235	-0.607104	-0.067338
F128	F	1.771235	-0.107104	0.432662
F129	F	0.936964	-0.393052	-0.307297
F130	F	1.436964	0.106948	0.192703
H131	H	1.243099	-0.776188	-0.087558
H132	H	1.743099	-0.276188	0.412442
H133	H	1.014753	-0.514875	-0.251469
H134	H	1.514753	-0.014875	0.248531
H135	H	0.922053	-0.000069	0.566809
H136	H	1.422053	0.499931	1.066809
H137	H	1.286140	-0.000087	0.058543
H138	H	1.786140	0.499913	0.558543
H139	H	0.971801	-0.000066	0.046458
H140	H	1.471801	0.499934	0.546458
