data_functionalizedCrystal
_audit_creation_method	'MofGen! by Chris Wilmer'
_symmetry_space_group_name_H-M	'P1'
_symmetry_Int_Tables_number	1
_symmetry_cell_setting	triclinic
loop_
_symmetry_equiv_pos_as_xyz
  x,y,z
_cell_length_a	6.817900
_cell_length_b	13.168018
_cell_length_c	12.908943
_cell_angle_alpha	100.243938
_cell_angle_beta	100.860631
_cell_angle_gamma	105.756000
loop_
_atom_site_label
_atom_site_type_symbol
_atom_site_fract_x
_atom_site_fract_y
_atom_site_fract_z
V1	V	-4.014055	-0.147492	-0.343109
O2	O	-3.983285	0.008469	-0.321597
O3	O	-3.983476	-0.293780	-0.355170
O4	O	-3.951985	-0.144617	-0.486177
O5	O	-4.014995	-0.141727	-0.189683
V6	V	-4.497146	-0.128909	-0.323008
O7	O	-4.276263	-0.188255	-0.387203
O8	O	-4.685135	-0.088145	-0.278914
O9	O	-4.304518	0.017380	-0.310946
O10	O	-4.645313	-0.284870	-0.344520
O11	O	-4.613603	-0.134674	-0.476434
O12	O	-4.336010	-0.131784	-0.179939
C13	C	-3.833255	-0.329461	-0.353475
C14	C	-3.889449	-0.449050	-0.364290
C15	C	-4.001729	-0.632570	-0.477531
C16	C	-3.948936	-0.520207	-0.467374
C17	C	-3.882762	-0.490265	-0.271358
C18	C	-3.935554	-0.602628	-0.281516
C19	C	-3.995034	-0.673778	-0.384606
C20	C	-4.047814	-0.786143	-0.394763
C21	C	-3.981653	-0.756199	-0.198749
C22	C	-3.928860	-0.643836	-0.188591
C23	C	-3.793083	-0.139187	-0.520586
C24	C	-3.823734	-0.137804	-0.637640
C25	C	-4.245883	-0.145881	-0.869377
C26	C	-4.274693	-0.144583	-0.979359
C27	C	-3.910162	-0.133901	-0.967588
C28	C	-3.881352	-0.135199	-0.857606
C29	C	-4.049222	-0.141191	-0.808504
C30	C	-4.020414	-0.142498	-0.698521
C31	C	-3.655881	-0.131808	-0.686751
C32	C	-3.684691	-0.130510	-0.796733
C33	C	-4.118083	0.053055	-0.312639
C34	C	-4.041127	0.172643	-0.301831
C35	C	-4.158255	-0.137217	-0.145525
C36	C	-4.106841	-0.138594	-0.028470
H37	H	-3.976190	-0.789760	-0.123082
H38	H	-3.880434	-0.585891	-0.104659
C39	C	-4.205071	-0.149084	-0.644510
N40	N	-4.344159	-0.154040	-0.603831
C41	C	-4.491034	-0.149743	-1.046316
N42	N	-4.653989	-0.153629	-1.096747
H43	H	-4.096234	-0.844072	-0.478703
H44	H	-3.548021	-0.125627	-0.836726
C45	C	-4.067146	-0.710837	-0.590929
N46	N	-4.116421	-0.769786	-0.676343
H47	H	-3.773496	-0.129015	-1.007584
C48	C	-3.956289	-0.474883	-0.569599
N49	N	-3.961826	-0.440746	-0.646599
H50	H	-3.834349	-0.432317	-0.187429
H51	H	-4.382576	-0.150772	-0.829400
H52	H	-3.495743	-0.127994	-0.637177
