data_functionalizedCrystal
_audit_creation_method	'MofGen! by Chris Wilmer'
_symmetry_space_group_name_H-M	'P1'
_symmetry_Int_Tables_number	1
_symmetry_cell_setting	triclinic
loop_
_symmetry_equiv_pos_as_xyz
  x,y,z
_cell_length_a	8.559649
_cell_length_b	8.559649
_cell_length_c	16.176319
_cell_angle_alpha	89.992050
_cell_angle_beta	90.002182
_cell_angle_gamma	69.778664
loop_
_atom_site_label
_atom_site_type_symbol
_atom_site_fract_x
_atom_site_fract_y
_atom_site_fract_z
O1	O	2.126886	-0.055062	0.068734
O2	O	2.626886	0.444938	0.568734
O3	O	1.651401	0.028720	0.068737
O4	O	2.151401	0.528720	0.568737
O5	O	1.931034	-0.250913	0.068734
O6	O	2.431034	0.249087	0.568734
O7	O	1.847253	0.224571	0.068736
O8	O	2.347253	0.724571	0.568736
O9	O	1.931005	-0.250865	-0.068759
O10	O	2.431005	0.249135	0.431241
O11	O	1.651372	0.028768	-0.068756
O12	O	2.151372	0.528768	0.431244
O13	O	2.126856	-0.055014	-0.068760
O14	O	2.626856	0.444986	0.431240
Cu15	Cu	1.889111	-0.013119	-0.081312
Cu16	Cu	2.389111	0.486881	0.418688
Cu17	Cu	1.889146	-0.013175	0.081289
Cu18	Cu	2.389146	0.486825	0.581289
O19	O	1.847223	0.224619	-0.068757
O20	O	2.347223	0.724619	0.431243
C21	C	1.591077	0.035093	-0.000009
C22	C	2.091077	0.535093	0.499991
C23	C	1.411378	0.053992	-0.000008
C24	C	1.911378	0.553992	0.499992
C25	C	1.937369	-0.311198	-0.000011
C26	C	2.437369	0.188802	0.499989
C27	C	1.956268	-0.490898	-0.000007
C28	C	2.456268	0.009102	0.499993
C29	C	2.187180	-0.061387	-0.000012
C30	C	2.687180	0.438613	0.499988
C31	C	2.366879	-0.080286	-0.000008
C32	C	2.866879	0.419714	0.499992
C33	C	1.840889	0.284904	-0.000010
C34	C	2.340889	0.784904	0.499990
C35	C	1.821990	0.464604	-0.000009
C36	C	2.321990	0.964604	0.499991
N37	N	1.889099	-0.013081	-0.195677
N38	N	2.389099	0.486919	0.304323
C39	C	1.802865	-0.099591	-0.761067
C40	C	2.302865	0.400409	-0.261067
C41	C	1.802860	-0.099578	-0.674520
C42	C	2.302860	0.400422	-0.174520
C43	C	1.889155	-0.013190	-0.631253
C44	C	2.389155	0.486810	-0.131253
C45	C	1.975474	0.073176	-0.674537
C46	C	2.475474	0.573176	-0.174537
C47	C	1.975487	0.073152	-0.761083
C48	C	2.475487	0.573152	-0.261083
C49	C	1.975423	0.073273	-0.325509
C50	C	2.475423	0.573273	0.174491
C51	C	1.975398	0.073294	-0.238957
C52	C	2.475398	0.573294	0.261043
C53	C	1.802795	-0.099458	-0.238946
C54	C	2.302795	0.400542	0.261054
C55	C	1.802809	-0.099482	-0.325492
C56	C	2.302809	0.400518	0.174508
C57	C	1.889135	-0.013123	-0.368769
C58	C	2.389135	0.486877	0.131231
C59	C	1.889141	-0.013141	-0.462613
C60	C	2.389141	0.486859	0.037387
C61	C	1.889139	-0.013162	-0.537410
C62	C	2.389139	0.486838	-0.037410
N63	N	1.889173	-0.013227	0.195655
N64	N	2.389173	0.486773	0.695655
H65	H	1.466258	-0.209705	-0.000004
H66	H	1.966258	0.290295	0.499996
O67	O	2.127713	-0.622540	-0.000018
O68	O	2.627713	-0.122540	0.499982
H69	H	2.223095	-0.561680	-0.000022
H70	H	2.723095	-0.061680	0.499978
O71	O	1.709826	-0.192804	-0.807733
O72	O	2.209826	0.307196	-0.307733
H73	H	1.649836	-0.252881	-0.763096
H74	H	2.149836	0.247119	-0.263096
O75	O	2.068567	0.166309	-0.807768
O76	O	2.568567	0.666309	-0.307768
H77	H	2.128558	0.226399	-0.763144
H78	H	2.628558	0.726399	-0.263144
O79	O	1.279743	0.225442	-0.000004
O80	O	1.779743	0.725442	0.499996
H81	H	1.294081	0.294108	-0.056042
H82	H	1.794081	0.794108	0.443958
H83	H	2.045745	0.143506	-0.639302
H84	H	2.545745	0.643506	-0.139302
H85	H	1.732585	-0.169910	-0.639287
H86	H	2.232585	0.330090	-0.139287
H87	H	1.732532	-0.169821	-0.360716
H88	H	2.232532	0.330179	0.139284
H89	H	1.692570	-0.436018	-0.000011
H90	H	2.192570	0.063982	0.499989
O91	O	1.709783	-0.192711	-0.192271
O92	O	2.209783	0.307289	0.307729
H93	H	1.724312	-0.178234	-0.124821
H94	H	2.224312	0.321766	0.375179
H95	H	2.045674	0.143645	-0.203731
H96	H	2.545674	0.643645	0.296269
H97	H	2.045713	0.143593	-0.360734
H98	H	2.545713	0.643593	0.139266
