data_functionalizedCrystal
_audit_creation_method	'MofGen! by Chris Wilmer'
_symmetry_space_group_name_H-M	'P1'
_symmetry_Int_Tables_number	1
_symmetry_cell_setting	triclinic
loop_
_symmetry_equiv_pos_as_xyz
  x,y,z
_cell_length_a	20.919286
_cell_length_b	12.477989
_cell_length_c	12.477989
_cell_angle_alpha	60.281621
_cell_angle_beta	93.142058
_cell_angle_gamma	57.419691
loop_
_atom_site_label
_atom_site_type_symbol
_atom_site_fract_x
_atom_site_fract_y
_atom_site_fract_z
Zr1	Zr	0.570276	1.179656	-0.011816
O2	O	0.451427	1.427574	-0.190120
O3	O	0.612330	0.949298	0.032569
O4	O	0.593675	1.203255	-0.191755
O5	O	0.478404	1.148879	0.222842
O6	O	0.699490	1.201894	-0.181357
O7	O	0.470082	1.173617	0.034204
O8	O	0.732860	0.747612	0.219917
O9	O	0.445034	1.603161	-0.178432
O10	O	0.702444	1.036528	0.071672
O11	O	0.629686	1.019081	0.204691
O12	O	0.607723	1.318083	-0.059422
O13	O	0.534965	1.300636	0.073597
Zr14	Zr	0.752312	1.138030	0.305624
Zr15	Zr	0.739039	1.177486	0.004768
Zr16	Zr	0.583550	1.140200	0.289040
Zr17	Zr	0.560081	1.459696	0.006825
Zr18	Zr	0.762508	0.857990	0.286983
O19	O	0.710259	1.368388	0.261240
O20	O	0.691386	1.424489	-0.166540
O21	O	0.470300	1.371473	0.237659
O22	O	0.871162	0.890112	0.483928
O23	O	0.852289	0.946213	0.056149
O24	O	0.631203	0.893197	0.460348
O25	O	0.844184	1.168808	0.070966
O26	O	0.728914	1.114431	0.485563
O27	O	0.623099	1.115792	0.475165
O28	O	0.852507	1.144069	0.259604
O29	O	0.579178	1.601436	-0.165250
O30	O	0.743411	0.716250	0.459058
O31	O	0.877554	0.714525	0.472240
O32	O	0.867004	0.745887	0.233099
O33	O	0.455585	1.571799	0.060709
O34	O	0.589729	1.570074	0.073891
O35	O	0.714866	0.999604	0.353230
O36	O	0.787623	1.017051	0.220211
O37	O	0.692902	1.298605	0.089117
O38	O	0.620145	1.281158	0.222136
C39	C	0.674048	0.808555	0.123587
C40	C	0.678376	0.689671	0.115673
C41	C	0.450198	1.161557	0.126160
C42	C	0.378554	1.162478	0.119120
C43	C	-0.026893	1.168406	0.074072
C44	C	0.040423	1.167544	0.080688
C45	C	0.078670	1.153471	0.187928
C46	C	0.049593	1.140276	0.288550
C47	C	-0.017727	1.141151	0.281927
C48	C	0.282157	1.150158	0.213119
C49	C	0.349482	1.149280	0.219736
C50	C	0.340307	1.176550	0.011873
C51	C	0.272990	1.177414	0.005264
C52	C	0.243915	1.164228	0.105882
C53	C	0.147481	1.152583	0.194696
C54	C	0.175102	1.165127	0.099107
C55	C	0.872391	1.156129	0.167648
C56	C	0.944035	1.155208	0.174688
C57	C	0.644691	1.208196	-0.229422
C58	C	0.639056	1.224946	-0.357143
C59	C	0.648541	1.509131	0.170221
C60	C	0.644213	1.628015	0.178135
C61	C	0.677897	1.109490	0.523230
C62	C	0.683532	1.092740	0.650951
C63	C	0.885144	0.805841	0.144331
C64	C	0.961116	0.686036	0.143458
C65	C	0.690651	0.759202	0.499913
C66	C	0.700614	0.623568	0.619721
C67	C	0.901747	0.756488	0.520657
C68	C	0.983355	0.619933	0.647505
C69	C	0.420842	1.561198	-0.226849
C70	C	0.339234	1.697754	-0.353697
C71	C	0.437445	1.511845	0.149477
C72	C	0.361472	1.631651	0.150350
C73	C	0.631938	1.558484	-0.206105
C74	C	0.621975	1.694119	-0.325913
C75	C	0.952331	0.639943	0.065499
C76	C	1.023706	0.527392	0.064651
C77	C	1.103868	0.460927	0.141770
C78	C	1.112652	0.507031	0.219731
C79	C	1.041276	0.619589	0.220571
C80	C	1.059664	0.564912	0.637641
C81	C	1.136348	0.436620	0.756818
C82	C	1.136721	0.363344	0.885858
C83	C	1.060404	0.418376	0.895720
C84	C	0.983721	0.546673	0.776544
C85	C	0.262924	1.752788	-0.343832
C86	C	0.186239	1.881114	-0.463007
C87	C	0.185865	1.954396	-0.592047
C88	C	0.262183	1.899357	-0.601909
C89	C	0.338867	1.771040	-0.482734
C90	C	0.370257	1.677757	0.228297
C91	C	0.298879	1.790343	0.229114
C92	C	0.218717	1.856812	0.151991
C93	C	0.209933	1.810702	0.074035
C94	C	0.281310	1.698127	0.073211
H95	H	0.611647	0.666189	0.237656
Cl96	Cl	0.573598	1.419500	-0.518710
Cl97	Cl	0.851564	0.723483	-0.031469
Cl98	Cl	0.748978	0.898195	-0.187491
H99	H	0.258491	1.139418	0.295048
Cl100	Cl	1.012645	0.469449	-0.033358
Cl101	Cl	0.562751	0.858452	0.603818
Cl102	Cl	0.728647	0.630754	0.023750
Cl103	Cl	1.193591	0.319422	0.140703
H104	H	0.754731	0.492251	0.665053
Cl105	Cl	-0.074965	1.186088	-0.060746
Cl106	Cl	0.261700	1.991495	-0.764142
Cl107	Cl	0.076971	1.184138	-0.045804
H108	H	0.241850	1.188873	-0.082059
Cl109	Cl	0.376858	1.193135	-0.114615
Cl110	Cl	1.213434	0.423453	0.316680
H111	H	0.380621	1.137818	0.307070
H112	H	0.080734	1.128828	0.375863
H113	H	1.048442	0.657101	0.284062
Cl114	Cl	0.109152	1.894271	-0.022906
Cl115	Cl	-0.054276	1.124566	0.408419
Cl116	Cl	0.127017	1.182826	-0.035707
Cl117	Cl	1.059217	0.657015	0.475434
Cl118	Cl	0.195567	1.134886	0.329512
H119	H	1.198482	0.391828	0.748764
Cl120	Cl	1.060887	0.326238	1.057953
Cl121	Cl	0.887793	0.615816	0.788969
H122	H	1.199167	0.258878	0.982888
Cl123	Cl	0.263371	1.660687	-0.181625
H124	H	0.124106	1.925905	-0.454950
Cl125	Cl	0.434796	1.701860	-0.495161
Cl126	Cl	0.471023	1.594226	0.325257
H127	H	0.306047	1.827865	0.292600
Cl128	Cl	0.128993	1.998332	0.153046
H129	H	0.123419	2.058878	-0.689075
H130	H	0.274146	1.660591	0.009742
