data_functionalizedCrystal
_audit_creation_method	'MofGen! by Chris Wilmer'
_symmetry_space_group_name_H-M	'P1'
_symmetry_Int_Tables_number	1
_symmetry_cell_setting	triclinic
loop_
_symmetry_equiv_pos_as_xyz
  x,y,z
_cell_length_a	21.395364
_cell_length_b	17.077402
_cell_length_c	21.395355
_cell_angle_alpha	90.018045
_cell_angle_beta	90.024552
_cell_angle_gamma	90.037834
loop_
_atom_site_label
_atom_site_type_symbol
_atom_site_fract_x
_atom_site_fract_y
_atom_site_fract_z
Zn1	Zn	0.957893	-0.312286	0.354264
Zn2	Zn	0.957810	-0.443534	0.249487
Zn3	Zn	0.853108	-0.312320	0.249500
Zn4	Zn	0.853092	-0.443548	0.354227
O5	O	0.905476	-0.377922	0.301869
O6	O	1.045560	-0.329676	0.340374
O7	O	0.943893	-0.426137	0.161811
O8	O	0.867050	-0.202469	0.263418
O9	O	1.045499	-0.426103	0.263395
O10	O	0.944035	-0.202444	0.340387
O11	O	0.866969	-0.329735	0.161821
O12	O	0.765428	-0.329748	0.263383
O13	O	0.867022	-0.426127	0.441910
O14	O	0.765416	-0.426161	0.340325
O15	O	0.944019	-0.329690	0.441937
O16	O	0.943877	-0.553383	0.263360
O17	O	0.866941	-0.553393	0.340312
C18	C	0.905415	-0.581870	0.301844
C19	C	0.905447	-0.669120	0.301855
C20	C	0.742688	-0.377960	0.301852
C21	C	0.673047	-0.377995	0.301859
C22	C	0.945548	-0.710078	0.261829
C23	C	0.945579	-0.792059	0.261845
C24	C	0.905504	-0.833079	0.301884
C25	C	0.865401	-0.792115	0.341914
C26	C	0.865374	-0.710136	0.341901
C27	C	0.865459	-0.962985	0.341938
C28	C	0.865485	-1.044969	0.341951
C29	C	0.945664	-1.044908	0.261882
C30	C	0.945637	-0.962929	0.261869
C31	C	0.905533	-0.921970	0.301898
C32	C	0.640388	-0.327868	0.342004
C33	C	0.574953	-0.327847	0.342006
C34	C	0.542179	-0.377968	0.301871
C35	C	0.574845	-0.428099	0.261718
C36	C	0.640280	-0.428113	0.261712
C37	C	0.438462	-0.448659	0.296834
C38	C	0.373029	-0.448647	0.296844
C39	C	0.340358	-0.377924	0.301885
C40	C	0.373128	-0.307213	0.306929
C41	C	0.438562	-0.307227	0.306923
C42	C	0.471226	-0.377958	0.301872
C43	C	0.236746	-0.327770	0.342034
C44	C	0.171310	-0.327748	0.342032
C45	C	0.171204	-0.428007	0.261747
C46	C	0.236639	-0.428022	0.261746
C47	C	0.269407	-0.377905	0.301893
C48	C	1.068899	-0.377884	0.301887
C49	C	1.138540	-0.377868	0.301895
C50	C	0.905528	-0.377906	0.465293
C51	C	0.905550	-0.377899	0.534934
C52	C	0.905554	-0.173178	0.301908
C53	C	0.905587	-0.085928	0.301925
C54	C	0.905460	-0.377881	0.139082
C55	C	0.905559	-0.377667	0.069441
C56	C	0.945641	-0.327682	0.567662
C57	C	0.945640	-0.327648	0.633098
C58	C	0.905555	-0.377846	0.665802
C59	C	0.865456	-0.428067	0.633067
C60	C	0.865454	-0.428093	0.567632
C61	C	0.900587	-0.448527	0.769468
C62	C	0.900593	-0.448502	0.834901
C63	C	0.905559	-0.377763	0.867623
C64	C	0.910530	-0.307047	0.834904
C65	C	0.910528	-0.307074	0.769470
C66	C	0.905553	-0.377822	0.736755
C67	C	0.945651	-0.327505	0.971304
C68	C	0.945645	-0.327470	1.036741
C69	C	0.865465	-0.427895	1.036708
C70	C	0.865467	-0.427923	0.971273
C71	C	0.905563	-0.377729	0.938575
H72	H	0.978179	-0.676685	0.229221
C73	C	0.915991	-0.229228	0.870893
N74	N	0.920105	-0.170616	0.898003
H75	H	0.978265	-0.929530	0.229263
C76	C	0.821260	-0.665082	0.385933
N77	N	0.788033	-0.631148	0.419101
C78	C	0.336988	-0.526430	0.291288
N79	N	0.309844	-0.585018	0.287100
H80	H	0.978296	-0.286630	0.944680
H81	H	0.832804	-0.468985	0.540985
H82	H	0.978233	-0.825404	0.229251
H83	H	0.978321	-1.078260	0.229290
H84	H	0.832821	-0.468759	1.063336
C85	C	0.474394	-0.526465	0.291291
N86	N	0.501456	-0.585066	0.287118
C87	C	0.337195	-0.229411	0.312468
N88	N	0.310127	-0.170813	0.316639
H89	H	0.548357	-0.287023	0.374696
C90	C	0.135385	-0.272600	0.386196
N91	N	0.108326	-0.231062	0.419463
C92	C	0.135156	-0.483140	0.217596
N93	N	0.108002	-0.524666	0.184340
H94	H	0.832865	-1.078366	0.374566
H95	H	0.832804	-0.929639	0.374537
C96	C	0.989750	-0.272222	1.072741
N97	N	1.022971	-0.230610	1.099858
H98	H	0.548157	-0.468907	0.229039
H99	H	0.263427	-0.286957	0.374720
C100	C	0.676428	-0.272727	0.386159
N101	N	0.703575	-0.231192	0.419415
C102	C	0.895124	-0.526290	0.870886
N103	N	0.891003	-0.584882	0.897989
C104	C	0.272566	-0.483173	0.217588
N105	N	0.299625	-0.524715	0.184325
C106	C	0.989748	-0.272408	0.669106
N107	N	1.022973	-0.230803	0.696225
C108	C	0.676205	-0.483263	0.217551
N109	N	0.703266	-0.524805	0.184289
H110	H	0.465240	-0.249651	0.311028
C111	C	0.989739	-0.272457	0.531698
N112	N	1.022952	-0.230857	0.504609
C113	C	0.821317	-0.837240	0.385956
N114	N	0.788108	-0.871227	0.419126
C115	C	0.821366	-0.483170	0.935271
N116	N	0.788146	-0.524783	0.908154
C117	C	0.895136	-0.526352	0.733481
N118	N	0.891035	-0.584968	0.706376
C119	C	0.915988	-0.229288	0.733481
N120	N	0.920096	-0.170697	0.706375
C121	C	0.821360	-0.483280	0.669043
N122	N	0.788143	-0.524866	0.696141
