data_functionalizedCrystal
_audit_creation_method	'MofGen! by Chris Wilmer'
_symmetry_space_group_name_H-M	'P1'
_symmetry_Int_Tables_number	1
_symmetry_cell_setting	triclinic
loop_
_symmetry_equiv_pos_as_xyz
  x,y,z
_cell_length_a	12.837943
_cell_length_b	9.065218
_cell_length_c	8.140239
_cell_angle_alpha	90.003016
_cell_angle_beta	90.000440
_cell_angle_gamma	90.077587
loop_
_atom_site_label
_atom_site_type_symbol
_atom_site_fract_x
_atom_site_fract_y
_atom_site_fract_z
O1	O	1.379054	-0.384031	-0.136571
O2	O	1.077070	-0.365061	-0.136582
O3	O	1.234304	-0.160663	-0.136573
O4	O	1.221820	-0.588429	-0.136580
O5	O	1.234301	-0.160653	0.136654
O6	O	1.077068	-0.365051	0.136646
O7	O	1.379051	-0.384022	0.136656
Zn8	Zn	1.228059	-0.374535	0.180031
Zn9	Zn	1.228062	-0.374548	-0.179957
O10	O	1.221818	-0.588420	0.136647
C11	C	1.038388	-0.358647	0.000031
C12	C	0.923132	-0.339534	0.000027
C13	C	1.233103	-0.105525	0.000038
C14	C	1.229515	0.058754	0.000030
N15	N	1.228065	-0.374545	-0.425640
C16	C	0.684331	-0.569311	0.000046
C17	C	0.576036	-0.551359	0.000044
C18	C	0.598246	-0.285680	0.000031
C19	C	0.706541	-0.303632	0.000033
C20	C	0.749579	-0.445452	0.000038
C21	C	0.857875	-0.463402	0.000029
C22	C	0.880083	-0.197725	0.000028
C23	C	0.771789	-0.179773	0.000025
C24	C	1.417733	-0.390435	0.000040
C25	C	1.532990	-0.409548	0.000033
C26	C	1.223019	-0.643557	0.000033
C27	C	1.226606	-0.807836	0.000030
N28	N	1.228064	-0.374527	0.425714
H29	H	0.892914	-0.578879	0.000037
C30	C	0.504266	-0.687615	0.000053
N31	N	0.450209	-0.790248	0.000063
C32	C	0.550885	-0.129690	0.000043
N33	N	0.515211	-0.012197	0.000053
C34	C	0.731675	-0.725312	0.000041
N35	N	0.767332	-0.842815	0.000039
H36	H	0.736732	-0.064307	0.000040
C37	C	0.951866	-0.061471	0.000015
N38	N	1.005933	0.041153	0.000000
