data_functionalizedCrystal
_audit_creation_method	'MofGen! by Chris Wilmer'
_symmetry_space_group_name_H-M	'P1'
_symmetry_Int_Tables_number	1
_symmetry_cell_setting	triclinic
loop_
_symmetry_equiv_pos_as_xyz
  x,y,z
_cell_length_a	29.839134
_cell_length_b	29.839131
_cell_length_c	29.839125
_cell_angle_alpha	90.025363
_cell_angle_beta	90.021980
_cell_angle_gamma	90.030088
loop_
_atom_site_label
_atom_site_type_symbol
_atom_site_fract_x
_atom_site_fract_y
_atom_site_fract_z
Zn1	Zn	0.686739	-0.178978	0.254101
Zn2	Zn	0.686679	-0.254090	0.178961
Zn3	Zn	0.611622	-0.178968	0.178971
Zn4	Zn	0.611578	-0.254075	0.254049
O5	O	0.649154	-0.216528	0.216521
O6	O	0.749598	-0.188952	0.244151
O7	O	0.676716	-0.244127	0.116095
O8	O	0.621630	-0.116102	0.188963
O9	O	0.749554	-0.244137	0.188946
O10	O	0.676818	-0.116109	0.244161
O11	O	0.621572	-0.188935	0.116102
O12	O	0.548749	-0.188921	0.188912
O13	O	0.621554	-0.244111	0.316923
O14	O	0.548716	-0.244101	0.244072
O15	O	0.676775	-0.188937	0.316961
O16	O	0.676673	-0.316955	0.188896
O17	O	0.621497	-0.316944	0.244063
C18	C	0.532432	-0.216509	0.216488
C19	C	0.482497	-0.216511	0.216485
C20	C	0.172847	-0.245303	0.245207
C21	C	-0.014827	-0.245315	0.245227
O22	O	-0.039098	-0.269774	0.269629
N23	N	-0.038288	-0.216544	0.216554
C24	C	-0.014828	-0.187766	0.187877
O25	O	-0.039089	-0.163291	0.163492
C26	C	0.172844	-0.187751	0.187859
C27	C	0.196303	-0.216527	0.216531
C28	C	0.196305	-0.274076	0.273877
C29	C	0.243221	-0.274075	0.273870
C30	C	0.266677	-0.245299	0.245193
C31	C	0.243219	-0.216526	0.216524
C32	C	0.196303	-0.158971	0.159184
C33	C	0.243224	-0.158969	0.159183
C34	C	0.266683	-0.187745	0.187855
C35	C	0.313591	-0.187749	0.187840
N36	N	0.337052	-0.216520	0.216513
C37	C	0.313595	-0.245295	0.245189
C38	C	-0.113358	-0.187776	0.187887
C39	C	-0.160276	-0.187780	0.187891
C40	C	-0.160272	-0.245329	0.245242
C41	C	-0.113353	-0.245327	0.245236
C42	C	-0.089897	-0.216547	0.216560
C43	C	0.412121	-0.245290	0.245172
C44	C	0.459041	-0.245287	0.245161
C45	C	0.459032	-0.187736	0.187812
C46	C	0.412117	-0.187740	0.187821
C47	C	0.388662	-0.216519	0.216505
O48	O	0.337891	-0.163299	0.163455
O49	O	0.337865	-0.269759	0.269577
C50	C	0.125931	-0.245304	0.245214
C51	C	0.102472	-0.216531	0.216545
C52	C	0.125929	-0.187755	0.187868
C53	C	0.055554	-0.216535	0.216548
C54	C	0.032098	-0.245310	0.245225
C55	C	0.055559	-0.274082	0.273898
C56	C	0.102474	-0.274080	0.273891
C57	C	0.102468	-0.158984	0.159196
C58	C	0.055552	-0.158989	0.159205
C59	C	0.032096	-0.187764	0.187881
C60	C	0.649086	-0.333250	0.216483
C61	C	0.649098	-0.383185	0.216482
C62	C	0.677885	-0.692797	0.245303
C63	C	0.677933	-0.880470	0.245330
O64	O	0.702342	-0.904708	0.269807
N65	N	0.649231	-0.903970	0.216570
C66	C	0.620512	-0.880548	0.187804
O67	O	0.596096	-0.904843	0.163346
C68	C	0.620461	-0.692876	0.187780
C69	C	0.649169	-0.669379	0.216538
C70	C	0.706590	-0.669300	0.274059
C71	C	0.706579	-0.622384	0.274051
C72	C	0.677863	-0.598966	0.245286
C73	C	0.649158	-0.622463	0.216529
C74	C	0.591740	-0.669456	0.159016
C75	C	0.591729	-0.622535	0.159013
C76	C	0.620437	-0.599037	0.187771
C77	C	0.620431	-0.552130	0.187755
N78	N	0.649134	-0.528630	0.216515
C79	C	0.677850	-0.552048	0.245280
C80	C	0.620541	-0.979079	0.187818
C81	C	0.620554	-1.025997	0.187824
C82	C	0.677975	-1.025915	0.245351
C83	C	0.677964	-0.978996	0.245342
C84	C	0.649244	-0.955579	0.216578
C85	C	0.677826	-0.453522	0.245259
C86	C	0.677814	-0.406603	0.245247
C87	C	0.620391	-0.406688	0.187722
C88	C	0.620404	-0.453604	0.187732
C89	C	0.649123	-0.477020	0.216505
O90	O	0.596032	-0.527863	0.163295
O91	O	0.702255	-0.527746	0.269742
C92	C	0.677895	-0.739712	0.245312
C93	C	0.649190	-0.763210	0.216556
C94	C	0.620474	-0.739792	0.187790
C95	C	0.649203	-0.810128	0.216561
C96	C	0.677919	-0.833546	0.245326
C97	C	0.706622	-0.810046	0.274086
C98	C	0.706611	-0.763130	0.274077
C99	C	0.591772	-0.763291	0.159031
C100	C	0.591785	-0.810207	0.159041
C101	C	0.620501	-0.833625	0.187807
C102	C	0.766333	-0.216547	0.216553
C103	C	0.816267	-0.216555	0.216567
C104	C	0.649167	-0.216524	0.333699
C105	C	0.649172	-0.216522	0.383633
C106	C	0.649235	-0.099349	0.216568
C107	C	0.649270	-0.049415	0.216589
C108	C	0.649168	-0.216499	0.099798
C109	C	0.649250	-0.216374	0.049864
C110	C	0.677955	-0.187718	0.693300
C111	C	0.677978	-0.187680	0.880973
O112	O	0.702417	-0.163232	0.905257
N113	N	0.649231	-0.216402	0.904419
C114	C	0.620475	-0.245133	0.880943
O115	O	0.596022	-0.269559	0.905192
C116	C	0.620451	-0.245169	0.693271
C117	C	0.649202	-0.216448	0.669828
C118	C	0.706704	-0.158999	0.669856
C119	C	0.706700	-0.159011	0.622941
C120	C	0.677947	-0.187741	0.599469
C121	C	0.649198	-0.216460	0.622912
C122	C	0.591693	-0.273898	0.669797
C123	C	0.591689	-0.273903	0.622876
C124	C	0.620440	-0.245183	0.599432
C125	C	0.620441	-0.245202	0.552525
N126	N	0.649188	-0.216480	0.529079
C127	C	0.677941	-0.187749	0.552551
C128	C	0.620491	-0.245113	0.979474
C129	C	0.620497	-0.245105	1.026392
C130	C	0.677999	-0.187650	1.026418
C131	C	0.677994	-0.187661	0.979499
C132	C	0.649237	-0.216391	0.956028
C133	C	0.677930	-0.187776	0.454025
C134	C	0.677925	-0.187792	0.407105
C135	C	0.620421	-0.245244	0.407083
C136	C	0.620428	-0.245230	0.453999
C137	C	0.649184	-0.216493	0.477469
O138	O	0.596011	-0.269633	0.528212
O139	O	0.702383	-0.163320	0.528294
C140	C	0.677959	-0.187706	0.740215
C141	C	0.649211	-0.216425	0.763659
C142	C	0.620458	-0.245155	0.740187
C143	C	0.649217	-0.216417	0.810577
C144	C	0.677970	-0.187686	0.834049
C145	C	0.706717	-0.158964	0.810603
C146	C	0.706712	-0.158976	0.763687
C147	C	0.591711	-0.273877	0.763633
C148	C	0.591718	-0.273864	0.810548
C149	C	0.620471	-0.245133	0.834020
H150	H	0.262320	-0.135529	0.135834
F151	F	0.387149	-0.157120	0.157299
F152	F	0.484005	-0.275917	0.275678
H153	H	0.597182	-1.045124	0.164401
F154	F	0.387166	-0.275919	0.275701
H155	H	0.597073	-0.268511	0.960368
F156	F	0.708537	-1.050846	0.275964
H157	H	0.262317	-0.297506	0.297218
F158	F	0.708528	-0.157223	0.382158
F159	F	0.589969	-0.954162	0.157202
F160	F	0.171348	-0.304705	0.304401
F161	F	0.561183	-0.694453	0.128408
H162	H	0.701344	-0.164374	0.473128
H163	H	0.597020	-0.268621	0.473087
F164	F	0.737299	-0.128440	0.597996
H165	H	0.730118	-0.135601	0.688962
H166	H	0.597090	-0.268497	1.045476
H167	H	0.478139	-0.164309	0.164463
F168	F	0.708595	-0.157093	0.954553
F169	F	0.127435	-0.304708	0.304407
H170	H	0.701411	-0.164257	1.045537
H171	H	-0.094256	-0.268759	0.268583
H172	H	0.701340	-0.959868	0.268760
F173	F	0.561159	-0.597615	0.128397
H174	H	0.568280	-0.297285	0.688876
H175	H	0.568265	-0.297294	0.603768
H176	H	0.568297	-0.297274	0.744526
F177	F	0.561230	-0.835209	0.128428
F178	F	0.737154	-0.694216	0.304680
F179	F	0.589856	-0.478612	0.157119
H180	H	0.597013	-0.268637	0.387964
F181	F	-0.185244	-0.275953	0.275764
H182	H	0.597012	-0.387614	0.164300
H183	H	-0.179372	-0.164352	0.164539
F184	F	0.561204	-0.738374	0.128415
H185	H	0.036452	-0.297513	0.297246
H186	H	0.177211	-0.135539	0.135836
H187	H	0.121561	-0.135551	0.135843
F188	F	-0.088401	-0.157142	0.157365
F189	F	0.737185	-0.834977	0.304698
H190	H	0.036456	-0.135556	0.135853
H191	H	0.701192	-0.387473	0.268665
F192	F	0.737314	-0.128407	0.738743
H193	H	0.701208	-0.472582	0.268692
H194	H	0.730130	-0.135573	0.829722
H195	H	0.729988	-0.744002	0.297495
H196	H	0.568306	-0.297256	0.829632
H197	H	0.729954	-0.603255	0.297470
