data_functionalizedCrystal
_audit_creation_method	'MofGen! by Chris Wilmer'
_symmetry_space_group_name_H-M	'P1'
_symmetry_Int_Tables_number	1
_symmetry_cell_setting	triclinic
loop_
_symmetry_equiv_pos_as_xyz
  x,y,z
_cell_length_a	21.395362
_cell_length_b	19.805405
_cell_length_c	21.395355
_cell_angle_alpha	89.981337
_cell_angle_beta	90.043940
_cell_angle_gamma	89.950948
loop_
_atom_site_label
_atom_site_type_symbol
_atom_site_fract_x
_atom_site_fract_y
_atom_site_fract_z
Zn1	Zn	0.957849	0.269255	0.354585
Zn2	Zn	1.291182	0.602588	0.687918
Zn3	Zn	1.624515	0.935921	1.021252
Zn4	Zn	0.957747	0.382425	0.249807
Zn5	Zn	1.291080	0.715758	0.583141
Zn6	Zn	1.624413	1.049091	0.916474
Zn7	Zn	0.853064	0.269286	0.249786
Zn8	Zn	1.186397	0.602620	0.583120
Zn9	Zn	1.519730	0.935953	0.916453
Zn10	Zn	0.853028	0.382439	0.354512
Zn11	Zn	1.186362	0.715772	0.687845
Zn12	Zn	1.519695	1.049105	1.021179
O13	O	0.905422	0.325851	0.302173
O14	O	1.238755	0.659184	0.635506
O15	O	1.572089	0.992518	0.968839
O16	O	1.045513	0.284248	0.340725
O17	O	1.378846	0.617581	0.674059
O18	O	1.712180	0.950915	1.007392
O19	O	0.943832	0.367424	0.162126
O20	O	1.277166	0.700757	0.495460
O21	O	1.610499	1.034091	0.828793
O22	O	0.867021	0.174565	0.263710
O23	O	1.200354	0.507899	0.597043
O24	O	1.533688	0.841232	0.930376
O25	O	1.045438	0.367393	0.263746
O26	O	1.378772	0.700727	0.597079
O27	O	1.712105	1.034060	0.930412
O28	O	0.944006	0.174542	0.340705
O29	O	1.277340	0.507876	0.674038
O30	O	1.610673	0.841209	1.007372
O31	O	0.866922	0.284302	0.162111
O32	O	1.200256	0.617635	0.495444
O33	O	1.533589	0.950968	0.828778
O34	O	0.765381	0.284315	0.263639
O35	O	1.098714	0.617648	0.596972
O36	O	1.432048	0.950982	0.930306
O37	O	0.866961	0.367417	0.442200
O38	O	1.200294	0.700750	0.775533
O39	O	1.533628	1.034084	1.108866
O40	O	0.765355	0.367448	0.340580
O41	O	1.098688	0.700781	0.673914
O42	O	1.432022	1.034114	1.007247
O43	O	0.943972	0.284261	0.442253
O44	O	1.277305	0.617595	0.775587
O45	O	1.610639	0.950928	1.108920
O46	O	0.943798	0.477143	0.263675
O47	O	1.277131	0.810476	0.597008
O48	O	1.610465	1.143810	0.930341
O49	O	0.866862	0.477153	0.340601
O50	O	1.200195	0.810487	0.673934
O51	O	1.533529	1.143820	1.007267
C52	C	0.742634	0.325887	0.302100
C53	C	1.075968	0.659220	0.635433
C54	C	1.409301	0.992553	0.968767
C55	C	0.672993	0.325918	0.302084
C56	C	1.006326	0.659252	0.635417
C57	C	1.339660	0.992585	0.968750
C58	C	0.640283	0.369263	0.342087
C59	C	0.973616	0.702596	0.675420
C60	C	1.306949	1.035930	1.008754
C61	C	0.574847	0.369246	0.342115
C62	C	0.908181	0.702580	0.675448
C63	C	1.241514	1.035913	1.008782
C64	C	0.542125	0.325892	0.302128
C65	C	0.875458	0.659226	0.635462
C66	C	1.208791	0.992559	0.968795
C67	C	0.574843	0.282539	0.262122
C68	C	0.908176	0.615873	0.595455
C69	C	1.241509	0.949206	0.928789
C70	C	0.640277	0.282553	0.262100
C71	C	0.973610	0.615886	0.595433
C72	C	1.306944	0.949219	0.928766
C73	C	0.438400	0.320440	0.245723
C74	C	0.771733	0.653773	0.579056
C75	C	1.105067	0.987106	0.912390
C76	C	0.372967	0.320431	0.245744
C77	C	0.706301	0.653765	0.579078
C78	C	1.039634	0.987098	0.912411
C79	C	0.340304	0.325848	0.302197
C80	C	0.673637	0.659182	0.635531
C81	C	1.006971	0.992515	0.968864
C82	C	0.373082	0.331288	0.358631
C83	C	0.706415	0.664621	0.691964
C84	C	1.039748	0.997954	1.025298
C85	C	0.438516	0.331301	0.358609
C86	C	0.771849	0.664634	0.691942
C87	C	1.105183	0.997967	1.025275
C88	C	0.471172	0.325873	0.302148
C89	C	0.804506	0.659206	0.635482
C90	C	1.137839	0.992540	0.968815
C91	C	0.236641	0.369177	0.342235
C92	C	0.569975	0.702510	0.675568
C93	C	0.903308	1.035844	1.008901
C94	C	0.171205	0.369156	0.342264
C95	C	0.504538	0.702489	0.675597
C96	C	0.837871	1.035822	1.008930
C97	C	0.171201	0.282452	0.262265
C98	C	0.504535	0.615786	0.595598
C99	C	0.837868	0.949119	0.928932
C100	C	0.236637	0.282470	0.262242
C101	C	0.569970	0.615804	0.595575
C102	C	0.903303	0.949137	0.928908
C103	C	0.269353	0.325836	0.302226
C104	C	0.602686	0.659169	0.635559
C105	C	0.936019	0.992503	0.968892
C106	C	0.905332	0.501707	0.302146
C107	C	1.238666	0.835040	0.635479
C108	C	1.571999	1.168374	0.968812
C109	C	0.905351	0.576939	0.302155
C110	C	1.238684	0.910272	0.635489
C111	C	1.572018	1.243606	0.968822
C112	C	0.945410	0.612213	0.342277
C113	C	1.278743	0.945546	0.675611
C114	C	1.612077	1.278880	1.008944
C115	C	0.945425	0.682901	0.342287
C116	C	1.278758	1.016235	0.675621
C117	C	1.612092	1.349568	1.008954
C118	C	0.905384	0.718315	0.302172
C119	C	1.238718	1.051648	0.635505
C120	C	1.572051	1.384981	0.968838
C121	C	0.865321	0.683036	0.262048
C122	C	1.198654	1.016369	0.595381
C123	C	1.531988	1.349702	0.928715
C124	C	0.865303	0.612349	0.262042
C125	C	1.198637	0.945682	0.595375
C126	C	1.531970	1.279015	0.928708
C127	C	0.865392	0.968109	0.262073
C128	C	1.198725	1.301442	0.595407
C129	C	1.532059	1.634776	0.928740
C130	C	0.865414	1.038801	0.262082
C131	C	1.198748	1.372134	0.595415
C132	C	1.532081	1.705468	0.928748
C133	C	0.945514	1.038662	0.342319
C134	C	1.278847	1.371995	0.675652
C135	C	1.612181	1.705328	1.008986
C136	C	0.945496	0.967975	0.342313
C137	C	1.278829	1.301308	0.675646
C138	C	1.612163	1.634641	1.008979
C139	C	0.905431	0.932702	0.302192
C140	C	1.238764	1.266035	0.635525
C141	C	1.572098	1.599369	0.968858
C142	C	0.905414	0.856054	0.302182
C143	C	1.238747	1.189387	0.635515
C144	C	1.572081	1.522720	0.968849
C145	C	0.905404	0.794962	0.302178
C146	C	1.238737	1.128295	0.635511
C147	C	1.572071	1.461628	0.968844
C148	C	1.068845	0.325816	0.302246
C149	C	1.402179	0.659149	0.635579
C150	C	1.735512	0.992482	0.968913
C151	C	1.138487	0.325800	0.302277
C152	C	1.471820	0.659134	0.635610
C153	C	1.805153	0.992467	0.968944
C154	C	0.905474	0.325837	0.465596
C155	C	1.238807	0.659171	0.798929
C156	C	1.572141	0.992504	1.132263
C157	C	0.905496	0.325831	0.535237
C158	C	1.238829	0.659165	0.868571
C159	C	1.572163	0.992498	1.201904
C160	C	0.905503	1.149308	0.302207
C161	C	1.238836	1.482642	0.635541
C162	C	1.572170	1.815975	0.968874
C163	C	0.905471	1.074076	0.302207
C164	C	1.238804	1.407410	0.635541
C165	C	1.572137	1.740743	0.968874
C166	C	0.905406	0.325816	0.139385
C167	C	1.238739	0.659149	0.472718
C168	C	1.572073	0.992483	0.806052
C169	C	0.905505	0.325631	0.069744
C170	C	1.238839	0.658964	0.403077
C171	C	1.572172	0.992298	0.736411
C172	C	0.945594	0.282530	0.567979
C173	C	1.278927	0.615864	0.901313
C174	C	1.612261	0.949197	1.234646
C175	C	0.945593	0.282501	0.633415
C176	C	1.278927	0.615835	0.966748
C177	C	1.612260	0.949168	1.300081
C178	C	0.905501	0.325785	0.666106
C179	C	1.238834	0.659119	0.999439
C180	C	1.572168	0.992452	1.332772
C181	C	0.865395	0.369089	0.633356
C182	C	1.198729	0.702423	0.966689
C183	C	1.532062	1.035756	1.300022
C184	C	0.865393	0.369112	0.567921
C185	C	1.198726	0.702446	0.901255
C186	C	1.532059	1.035779	1.234588
C187	C	0.900523	0.386731	0.769769
C188	C	1.233856	0.720064	1.103103
C189	C	1.567189	1.053398	1.436436
C190	C	0.900529	0.386709	0.835202
C191	C	1.233863	0.720043	1.168536
C192	C	1.567196	1.053376	1.501869
C193	C	0.905505	0.325714	0.867926
C194	C	1.238838	0.659047	1.201260
C195	C	1.572172	0.992380	1.534593
C196	C	0.910487	0.264738	0.835210
C197	C	1.243820	0.598072	1.168543
C198	C	1.577153	0.931405	1.501876
C199	C	0.910484	0.264762	0.769775
C200	C	1.243817	0.598095	1.103109
C201	C	1.577151	0.931428	1.436442
C202	C	0.905499	0.325765	0.737058
C203	C	1.238832	0.659098	1.070391
C204	C	1.572166	0.992432	1.403725
C205	C	0.945604	0.282378	0.971621
C206	C	1.278937	0.615711	1.304954
C207	C	1.612271	0.949044	1.638288
C208	C	0.945599	0.282347	1.037058
C209	C	1.278932	0.615681	1.370391
C210	C	1.612265	0.949014	1.703724
C211	C	0.865404	0.368941	1.036997
C212	C	1.198737	0.702275	1.370331
C213	C	1.532071	1.035608	1.703664
C214	C	0.865406	0.368966	0.971562
C215	C	1.198739	0.702299	1.304895
C216	C	1.532073	1.035632	1.638229
C217	C	0.905509	0.325685	0.938878
C218	C	1.238843	0.659018	1.272211
C219	C	1.572176	0.992351	1.605544
H220	H	0.346285	0.316007	0.199793
H221	H	0.679618	0.649340	0.533126
H222	H	1.012951	0.982673	0.866459
H223	H	0.832805	1.067633	0.229414
H224	H	1.166139	1.400966	0.562747
H225	H	1.499472	1.734299	0.896080
H226	H	0.978103	0.939143	0.374976
H227	H	1.311436	1.272477	0.708310
H228	H	1.644770	1.605810	1.041643
H229	H	0.832737	0.404372	0.541263
H230	H	1.166071	0.737706	0.874597
H231	H	1.499404	1.071039	1.207930
H232	H	0.896303	0.436388	0.743131
H233	H	1.229637	0.769722	1.076464
H234	H	1.562970	1.103055	1.409797
H235	H	0.914539	0.215070	0.861852
H236	H	1.247872	0.548404	1.195185
H237	H	1.581206	0.881737	1.528519
O238	O	0.135910	0.235695	0.219136
O239	O	0.469244	0.569028	0.552470
O240	O	0.802577	0.902361	0.885803
H241	H	0.148527	0.182591	0.229969
H242	H	0.481860	0.515925	0.563302
H243	H	0.815194	0.849258	0.896635
H244	H	0.978135	1.067389	0.374990
H245	H	1.311468	1.400723	0.708323
H246	H	1.644802	1.734056	1.041656
O247	O	0.675570	0.416031	0.385214
O248	O	1.008903	0.749364	0.718547
O249	O	1.342236	1.082698	1.051880
H250	H	0.705449	0.385794	0.417129
H251	H	1.038782	0.719127	0.750462
H252	H	1.372115	1.052461	1.083795
O253	O	0.822194	0.930068	0.218790
O254	O	1.155527	1.263401	0.552123
O255	O	1.488861	1.596735	0.885456
H256	H	0.794364	0.966571	0.190889
H257	H	1.127697	1.299904	0.524222
H258	H	1.461031	1.633238	0.857556
O259	O	0.822140	0.721226	0.218770
O260	O	1.155474	1.054560	0.552103
O261	O	1.488807	1.387893	0.885437
H262	H	0.828890	0.776306	0.225506
H263	H	1.162223	1.109639	0.558840
H264	H	1.495556	1.442973	0.892173
O265	O	0.473872	0.337153	0.419471
O266	O	0.807205	0.670486	0.752804
O267	O	1.140539	1.003819	1.086138
H268	H	0.440172	0.340911	0.458734
H269	H	0.773505	0.674244	0.792067
H270	H	1.106838	1.007578	1.125400
H271	H	0.978244	0.247237	0.660079
H272	H	1.311578	0.580570	0.993412
H273	H	1.644911	0.913904	1.326745
H274	H	0.978249	0.247287	0.541372
H275	H	1.311582	0.580620	0.874705
H276	H	1.644915	0.913954	1.208038
H277	H	0.832682	0.583629	0.229371
H278	H	1.166016	0.916963	0.562704
H279	H	1.499349	1.250296	0.896038
O280	O	0.135924	0.415907	0.385417
O281	O	0.469258	0.749241	0.718750
O282	O	0.802591	1.082574	1.052083
H283	H	0.084927	0.408607	0.378723
H284	H	0.418260	0.741941	0.712056
H285	H	0.751593	1.075274	1.045389
H286	H	0.914539	0.215113	0.743140
H287	H	1.247872	0.548447	1.076473
H288	H	1.581205	0.881780	1.409807
O289	O	0.337864	0.337125	0.419528
O290	O	0.671198	0.670458	0.752861
O291	O	1.004531	1.003792	1.086194
H292	H	0.286857	0.336192	0.410066
H293	H	0.620191	0.669526	0.743400
H294	H	0.953524	1.002859	1.076733
O295	O	0.539568	0.416026	0.385248
O296	O	0.872901	0.749359	0.718581
O297	O	1.206235	1.082692	1.051915
H298	H	0.552190	0.404525	0.434443
H299	H	0.885524	0.737859	0.767777
H300	H	1.218857	1.071192	1.101110
H301	H	0.263270	0.247178	0.229663
H302	H	0.596603	0.580511	0.562997
H303	H	0.929936	0.913844	0.896330
H304	H	0.548196	0.247239	0.229566
H305	H	0.881529	0.580573	0.562899
H306	H	1.214863	0.913906	0.896232
H307	H	0.978255	0.247132	0.945008
H308	H	1.311588	0.580465	1.278342
H309	H	1.644922	0.913799	1.611675
O310	O	0.988850	0.235643	1.072378
O311	O	1.322184	0.568977	1.405711
O312	O	1.655517	0.902310	1.739044
H313	H	1.016739	0.205559	1.038654
H314	H	1.350072	0.538892	1.371988
H315	H	1.683405	0.872225	1.705321
O316	O	0.822159	0.415628	1.072246
O317	O	1.155492	0.748961	1.405579
O318	O	1.488826	1.082295	1.738913
H319	H	0.828898	0.408340	1.123248
H320	H	1.162232	0.741674	1.456581
H321	H	1.495565	1.075007	1.789915
H322	H	0.832758	0.404230	0.944903
H323	H	1.166091	0.737563	1.278236
H324	H	1.499424	1.070897	1.611570
O325	O	0.675564	0.235814	0.218940
O326	O	1.008897	0.569147	0.552273
O327	O	1.342230	0.902480	0.885607
H328	H	0.641819	0.205668	0.191133
H329	H	0.975153	0.539001	0.524466
H330	H	1.308486	0.872334	0.857800
O331	O	0.895150	0.452470	0.870489
O332	O	1.228483	0.785803	1.203822
O333	O	1.561816	1.119137	1.537156
H334	H	0.891674	0.494886	0.836743
H335	H	1.225008	0.828220	1.170076
H336	H	1.558341	1.161553	1.503409
O337	O	0.988603	0.574018	0.385539
O338	O	1.321936	0.907351	0.718873
O339	O	1.655269	1.240684	1.052206
H340	H	1.016458	0.610425	0.413442
H341	H	1.349791	0.943758	0.746776
H342	H	1.683125	1.277091	1.080109
O343	O	0.822150	0.415774	0.668609
O344	O	1.155483	0.749108	1.001943
O345	O	1.488816	1.082441	1.335276
H346	H	0.828891	0.408488	0.719611
H347	H	1.162225	0.741821	1.052944
H348	H	1.495558	1.075155	1.386278
H349	H	0.263280	0.404485	0.374795
H350	H	0.596613	0.737818	0.708128
H351	H	0.929947	1.071151	1.041462
H352	H	0.464989	0.316026	0.199749
H353	H	0.798322	0.649359	0.533082
H354	H	1.131656	0.982692	0.866416
O355	O	0.988632	0.720950	0.385561
O356	O	1.321965	1.054283	0.718894
O357	O	1.655298	1.387616	1.052227
H358	H	1.016477	0.684449	0.413448
H359	H	1.349810	1.017782	0.746782
H360	H	1.683143	1.351116	1.080115
