data_functionalizedCrystal
_audit_creation_method	'MofGen! by Chris Wilmer'
_symmetry_space_group_name_H-M	'P1'
_symmetry_Int_Tables_number	1
_symmetry_cell_setting	triclinic
loop_
_symmetry_equiv_pos_as_xyz
  x,y,z
_cell_length_a	12.594517
_cell_length_b	12.594516
_cell_length_c	19.805399
_cell_angle_alpha	90.020797
_cell_angle_beta	90.011919
_cell_angle_gamma	90.016010
loop_
_atom_site_label
_atom_site_type_symbol
_atom_site_fract_x
_atom_site_fract_y
_atom_site_fract_z
Zn1	Zn	1.627242	-0.423768	0.382613
Zn2	Zn	1.627140	-0.601762	0.269438
Zn3	Zn	1.449253	-0.423797	0.269453
Zn4	Zn	1.449228	-0.601705	0.382600
O5	O	1.538216	-0.512758	0.326026
O6	O	1.776174	-0.447391	0.367600
O7	O	1.603511	-0.578190	0.174724
O8	O	1.472917	-0.274848	0.284476
O9	O	1.776099	-0.578162	0.284451
O10	O	1.603684	-0.274826	0.367614
O11	O	1.472818	-0.447441	0.174734
O12	O	1.300304	-0.447386	0.284463
O13	O	1.472874	-0.578065	0.477319
O14	O	1.300285	-0.578093	0.367592
O15	O	1.603660	-0.447336	0.477328
O16	O	1.603487	-0.750700	0.284438
O17	O	1.472775	-0.750658	0.367578
C18	C	1.261675	-0.512737	0.326028
C19	C	1.143369	-0.512754	0.326045
C20	C	1.003373	-0.583975	0.371175
C21	C	1.074148	-0.609873	0.309402
C22	C	1.074166	-0.486903	0.387811
C23	C	1.003358	-0.538737	0.264219
C24	C	1.003370	-0.415722	0.342670
C25	C	1.074113	-0.441583	0.280854
C26	C	1.538146	-0.789299	0.326020
C27	C	1.538213	-0.907604	0.326039
C28	C	1.467113	-0.976873	0.371227
C29	C	1.441183	-1.047730	0.309467
C30	C	1.564240	-1.047547	0.387810
C31	C	1.512233	-0.976902	0.264247
C32	C	1.635334	-0.976714	0.342631
C33	C	1.609442	-1.047538	0.280829
C34	C	1.815837	-0.512779	0.326025
C35	C	1.934142	-0.512789	0.326025
C36	C	1.538275	-0.512691	0.502569
C37	C	1.538301	-0.512662	0.577801
C38	C	1.538315	-0.235137	0.326048
C39	C	1.538357	-0.116832	0.326057
C40	C	1.538218	-0.512748	0.150170
C41	C	1.538398	-0.512477	0.074939
C42	C	1.606403	-0.444588	0.613151
C43	C	1.606414	-0.444557	0.683840
C44	C	1.538327	-0.512607	0.719177
C45	C	1.470218	-0.580684	0.683822
C46	C	1.470202	-0.580709	0.613134
C47	C	1.470278	-0.580585	0.968895
C48	C	1.470301	-0.580557	1.039587
C49	C	1.606489	-0.444433	1.039600
C50	C	1.606474	-0.444458	0.968913
C51	C	1.538361	-0.512531	0.933564
C52	C	1.538348	-0.512562	0.856916
C53	C	1.538344	-0.512582	0.795824
H54	H	1.105236	-0.691946	0.295327
H55	H	0.972386	-0.560717	0.211961
H56	H	1.661871	-0.389127	0.712619
H57	H	1.104977	-0.381369	0.242637
H58	H	1.359117	-1.078947	0.295448
H59	H	0.972258	-0.333673	0.356762
H60	H	1.661946	-0.389001	1.068390
C61	C	1.396305	-0.654505	0.574629
C62	C	1.410841	-0.639941	0.505162
C63	C	1.342770	-0.707892	0.469671
H64	H	1.411789	-0.726061	0.586125
H65	H	1.324776	-0.638905	0.586174
H66	H	1.482354	-0.655549	0.493622
H67	H	1.395350	-0.568399	0.493646
H68	H	1.271241	-0.692292	0.481216
H69	H	1.358260	-0.779444	0.481172
H70	H	1.352617	-0.698013	0.422534
C71	C	1.689834	-1.088726	0.229938
C72	C	1.766409	-1.149760	0.263385
C73	C	1.840482	-1.187713	0.216526
H74	H	1.654673	-1.131322	0.197259
H75	H	1.723315	-1.030463	0.208149
H76	H	1.732931	-1.208014	0.285163
H77	H	1.801596	-1.107187	0.296060
H78	H	1.873963	-1.129450	0.194737
H79	H	1.805312	-1.230304	0.183850
H80	H	1.892452	-1.229120	0.239214
H81	H	1.414852	-0.635973	1.068357
C82	C	1.115848	-0.457788	0.457431
C83	C	1.227003	-0.457247	0.456367
C84	C	1.265433	-0.430454	0.520492
H85	H	1.090687	-0.389322	0.469622
H86	H	1.091688	-0.508463	0.489460
H87	H	1.251152	-0.406573	0.424348
H88	H	1.252191	-0.525703	0.444189
H89	H	1.241273	-0.481130	0.552521
H90	H	1.240266	-0.361990	0.532677
H91	H	1.340855	-0.430093	0.519780
C92	C	1.396206	-0.654311	0.930478
C93	C	1.327983	-0.594042	0.889916
C94	C	1.259723	-0.661921	0.854517
H95	H	1.436774	-0.700717	0.902843
H96	H	1.355594	-0.694822	0.961622
H97	H	1.368591	-0.553548	0.858776
H98	H	1.287392	-0.547638	0.917535
H99	H	1.219111	-0.702433	0.885660
H100	H	1.300300	-0.708325	0.826885
H101	H	1.213420	-0.621039	0.826996
C102	C	1.396356	-0.654740	0.722100
C103	C	1.419471	-0.760057	0.704882
C104	C	1.351444	-0.828309	0.740122
H105	H	1.406053	-0.645123	0.769272
H106	H	1.324826	-0.639224	0.710500
H107	H	1.490984	-0.775567	0.716486
H108	H	1.409768	-0.769707	0.657716
H109	H	1.279913	-0.812793	0.728523
H110	H	1.361146	-0.818683	0.787293
H111	H	1.367111	-0.899773	0.728441
H112	H	1.406878	-0.945845	0.409386
H113	H	0.972313	-0.644236	0.409300
H114	H	1.490183	-0.945999	0.212001
C115	C	1.744698	-0.935139	0.361499
C116	C	1.771463	-0.970846	0.426241
C117	C	1.872194	-0.932556	0.443657
H118	H	1.795543	-0.960361	0.329920
H119	H	1.744020	-0.859713	0.360987
H120	H	1.772149	-1.046257	0.426749
H121	H	1.720646	-0.945628	0.457835
H122	H	1.871517	-0.857130	0.443145
H123	H	1.923030	-0.957780	0.412073
H124	H	1.890363	-0.956769	0.487588
C125	C	1.593453	-1.089134	0.457414
C126	C	1.594052	-1.200290	0.456351
C127	C	1.620935	-1.238632	0.520461
H128	H	1.661919	-1.063888	0.469568
H129	H	1.542800	-1.065000	0.489471
H130	H	1.644703	-1.224414	0.424305
H131	H	1.525596	-1.225564	0.444210
H132	H	1.570281	-1.214498	0.552518
H133	H	1.689399	-1.213379	0.532609
H134	H	1.621335	-1.314054	0.519750
C135	C	1.680436	-0.370457	0.930670
C136	C	1.740060	-0.310811	0.976759
C137	C	1.808192	-0.242616	0.941555
H138	H	1.726886	-0.411066	0.903090
H139	H	1.639750	-0.324032	0.903113
H140	H	1.780743	-0.357230	1.004305
H141	H	1.693638	-0.270181	1.004341
H142	H	1.767507	-0.196191	0.913998
H143	H	1.854635	-0.283233	0.913976
H144	H	1.848648	-0.202131	0.972821
H145	H	1.661850	-0.389178	0.584385
