data_functionalizedCrystal
_audit_creation_method	'MofGen! by Chris Wilmer'
_symmetry_space_group_name_H-M	'P1'
_symmetry_Int_Tables_number	1
_symmetry_cell_setting	triclinic
loop_
_symmetry_equiv_pos_as_xyz
  x,y,z
_cell_length_a	13.635800
_cell_length_b	11.020140
_cell_length_c	11.102291
_cell_angle_alpha	76.605298
_cell_angle_beta	108.605752
_cell_angle_gamma	107.292163
loop_
_atom_site_label
_atom_site_type_symbol
_atom_site_fract_x
_atom_site_fract_y
_atom_site_fract_z
V1	V	1.967842	-0.175855	0.396259
O2	O	2.039503	0.008434	0.388716
O3	O	1.869820	-0.348675	0.393548
O4	O	1.957583	-0.173157	0.569081
O5	O	1.951132	-0.168299	0.211968
V6	V	2.217415	-0.153811	0.374216
O7	O	2.081336	-0.224210	0.444611
O8	O	2.329020	-0.105456	0.325864
O9	O	2.203833	0.019009	0.376926
O10	O	2.204453	-0.338100	0.381759
O11	O	2.292823	-0.161367	0.558507
O12	O	2.116070	-0.156509	0.201394
V13	V	2.467842	-0.175855	0.396259
O14	O	2.539503	0.008434	0.388716
O15	O	2.369820	-0.348675	0.393548
O16	O	2.457583	-0.173157	0.569081
O17	O	2.451132	-0.168299	0.211968
V18	V	2.717415	-0.153811	0.374216
O19	O	2.581336	-0.224210	0.444611
O20	O	2.829020	-0.105456	0.325864
O21	O	2.703833	0.019009	0.376926
O22	O	2.704453	-0.338100	0.381759
O23	O	2.792823	-0.161367	0.558507
O24	O	2.616070	-0.156509	0.201394
C25	C	2.273911	-0.390805	0.387297
C26	C	2.234503	-0.532087	0.386233
C27	C	2.304756	-0.604936	0.392073
C28	C	2.267724	-0.737687	0.391084
C29	C	2.090181	-0.724729	0.378410
C30	C	2.127215	-0.591981	0.379408
C31	C	2.407258	-0.612418	0.399385
C32	C	2.370226	-0.745169	0.398396
C33	C	1.773911	-0.390805	0.387297
C34	C	1.734503	-0.532087	0.386233
C35	C	1.885861	-0.166913	0.611205
C36	C	1.917627	-0.165850	0.752488
C37	C	2.131411	0.061132	0.383174
C38	C	2.160438	0.202413	0.384246
C39	C	2.019461	-0.162758	0.159263
C40	C	1.977317	-0.163813	0.017979
C41	C	2.385861	-0.166913	0.611205
C42	C	2.417627	-0.165850	0.752488
C43	C	2.021384	-0.171690	0.825336
C44	C	2.051232	-0.170667	0.958082
C45	C	1.873552	-0.157970	0.945121
C46	C	1.843708	-0.158984	0.812376
C47	C	2.123965	-0.179026	0.832821
C48	C	2.153813	-0.178003	0.965567
C49	C	2.631411	0.061132	0.383174
C50	C	2.660438	0.202413	0.384246
C51	C	2.519461	-0.162758	0.159263
C52	C	2.477317	-0.163813	0.017979
C53	C	1.804756	-0.604936	0.392073
C54	C	1.767724	-0.737687	0.391084
C55	C	1.590181	-0.724729	0.378410
C56	C	1.627215	-0.591981	0.379408
C57	C	1.907258	-0.612418	0.399385
C58	C	1.870226	-0.745169	0.398396
C59	C	2.521384	-0.171690	0.825336
C60	C	2.551232	-0.170667	0.958082
C61	C	2.373552	-0.157970	0.945121
C62	C	2.343708	-0.158984	0.812376
C63	C	2.623965	-0.179026	0.832821
C64	C	2.653813	-0.178003	0.965567
H65	H	2.070007	-0.532675	0.374667
O66	O	2.737724	-0.058470	1.004107
H67	H	2.810184	-0.086080	1.071724
O68	O	1.919146	-0.821845	0.523130
H69	H	1.975043	-0.755140	0.590055
H70	H	2.433907	-0.559187	0.309776
H71	H	1.972801	-0.593201	0.491815
O72	O	1.974465	-0.789327	0.371049
H73	H	1.960513	-0.893873	0.371334
O74	O	2.688118	-0.299723	1.035587
H75	H	2.681232	-0.360132	0.964592
H76	H	1.759221	-0.154230	0.753067
H77	H	2.472801	-0.593201	0.491815
H78	H	2.407196	-0.803040	0.492551
H79	H	2.217162	-0.087766	0.994669
O80	O	2.193975	-0.064760	0.770416
H81	H	2.251913	-0.008005	0.845138
H82	H	1.883396	-0.770135	0.311581
O83	O	2.387654	-0.778258	0.283400
H84	H	2.425544	-0.689176	0.227877
O85	O	2.124340	-0.304576	0.800396
H86	H	2.148685	-0.370315	0.890558
H87	H	1.502826	-0.773511	0.372854
H88	H	2.179714	-0.269897	1.018414
O89	O	1.551444	-0.513414	0.373134
H90	H	1.548354	-0.439040	0.286269
H91	H	1.813375	-0.152377	0.993897
H92	H	1.933907	-0.559187	0.309776
O93	O	2.231804	-0.152660	0.733796
H94	H	2.192933	-0.239834	0.686576
H95	H	2.313375	-0.152377	0.993897
H96	H	2.676833	-0.092765	0.785725
H97	H	2.624274	-0.273804	0.808357
