data_functionalizedCrystal
_audit_creation_method	'MofGen! by Chris Wilmer'
_symmetry_space_group_name_H-M	'P1'
_symmetry_Int_Tables_number	1
_symmetry_cell_setting	triclinic
loop_
_symmetry_equiv_pos_as_xyz
  x,y,z
_cell_length_a	19.188930
_cell_length_b	27.732048
_cell_length_c	17.666332
_cell_angle_alpha	89.988553
_cell_angle_beta	89.976766
_cell_angle_gamma	82.893716
loop_
_atom_site_label
_atom_site_type_symbol
_atom_site_fract_x
_atom_site_fract_y
_atom_site_fract_z
O1	O	0.925765	0.060348	-0.063200
O2	O	0.722402	0.068472	-0.063149
O3	O	0.830399	-0.005968	-0.063161
O4	O	0.817767	0.134787	-0.063187
O5	O	0.830380	-0.005971	0.062735
O6	O	0.722383	0.068468	0.062748
O7	O	0.925746	0.060344	0.062697
Cu8	Cu	0.824063	0.064406	0.074218
Cu9	Cu	0.824085	0.064410	-0.074670
O10	O	0.817748	0.134783	0.062710
C11	C	0.696383	0.068207	-0.000194
C12	C	0.618883	0.067417	-0.000174
C13	C	0.830125	-0.023977	-0.000211
C14	C	0.829326	-0.077635	-0.000204
C15	C	0.573681	0.111096	-0.000194
C16	C	0.500862	0.110354	-0.000202
C17	C	0.473249	0.065931	-0.000205
C18	C	0.518461	0.022246	-0.000181
C19	C	0.591278	0.022990	-0.000165
N20	N	0.365491	0.031976	-0.043078
N21	N	0.296317	0.031273	-0.043094
C22	C	0.253854	0.063689	-0.000251
N23	N	0.283177	0.096841	0.042600
N24	N	0.352357	0.097546	0.042613
C25	C	0.394291	0.065120	-0.000222
C26	C	0.129692	0.106566	-0.000279
C27	C	0.056872	0.105822	-0.000282
C28	C	0.074473	0.017714	-0.000269
C29	C	0.147292	0.018459	-0.000258
C30	C	0.174897	0.062886	-0.000267
C31	C	0.888119	-0.416270	-0.000258
C32	C	0.885157	-0.617939	-0.000268
O33	O	0.938918	-0.649030	-0.000314
N34	N	0.821118	-0.637258	-0.000251
C35	C	0.757816	-0.606157	-0.000237
O36	O	0.703280	-0.627217	-0.000231
C37	C	0.760780	-0.404489	-0.000233
C38	C	0.824822	-0.385173	-0.000242
C39	C	0.952156	-0.396953	-0.000268
C40	C	0.952896	-0.346539	-0.000261
C41	C	0.889599	-0.315441	-0.000245
C42	C	0.825562	-0.334759	-0.000235
C43	C	0.697478	-0.373389	-0.000224
C44	C	0.698225	-0.322969	-0.000225
C45	C	0.762267	-0.303653	-0.000234
C46	C	0.763005	-0.253247	-0.000212
N47	N	0.827043	-0.233928	-0.000229
C48	C	0.890340	-0.265025	-0.000245
C49	C	0.756265	-0.712036	-0.000238
C50	C	0.755524	-0.762452	-0.000238
C51	C	0.882865	-0.774231	-0.000270
C52	C	0.883605	-0.723813	-0.000265
C53	C	0.820303	-0.692716	-0.000254
C54	C	0.891889	-0.159151	-0.000231
C55	C	0.892623	-0.108732	-0.000221
C56	C	0.765283	-0.096958	-0.000193
C57	C	0.764549	-0.147373	-0.000198
C58	C	0.827857	-0.178468	-0.000220
O59	O	0.709272	-0.222127	-0.000174
O60	O	0.944868	-0.243956	-0.000268
C61	C	0.887379	-0.466684	-0.000265
C62	C	0.823342	-0.486001	-0.000255
C63	C	0.760045	-0.454904	-0.000238
C64	C	0.822601	-0.536418	-0.000254
C65	C	0.885898	-0.567515	-0.000271
C66	C	0.949936	-0.548195	-0.000288
C67	C	0.950676	-0.497781	-0.000281
C68	C	0.696007	-0.474223	-0.000222
C69	C	0.695272	-0.524638	-0.000227
C70	C	0.758569	-0.555735	-0.000244
C71	C	0.951765	0.060609	-0.000260
C72	C	1.029264	0.061399	-0.000285
C73	C	0.818023	0.152793	-0.000243
C74	C	0.818821	0.206450	-0.000254
N75	N	0.824052	0.064402	0.178937
N76	N	0.824101	0.064410	-0.179389
C77	C	0.871889	0.031456	0.218541
C78	C	0.871893	0.031454	0.297789
C79	C	0.824067	0.064406	0.337429
C80	C	0.776221	0.097354	0.297816
C81	C	0.776214	0.097352	0.218570
N82	N	0.814718	0.107196	0.461842
N83	N	0.814729	0.107196	0.537122
C84	C	0.824085	0.064412	0.576193
N85	N	0.833444	0.021627	0.537140
N86	N	0.833436	0.021628	0.461853
C87	C	0.824069	0.064411	0.423359
C88	C	0.871929	0.031462	0.701727
C89	C	0.871928	0.031459	0.780976
C90	C	0.776260	0.097363	0.781001
C91	C	0.776257	0.097361	0.701754
C92	C	0.824096	0.064411	0.662121
H93	H	0.596152	0.147272	-0.000202
C94	C	0.446823	-0.029701	-0.064920
C95	C	0.488113	-0.026585	-0.000189
H96	H	0.428092	-0.059850	-0.064923
H97	H	0.409481	-0.003796	-0.064927
H98	H	0.474898	-0.027578	-0.108810
H99	H	0.460036	-0.028705	0.043701
H100	H	0.525460	-0.052497	-0.000175
H101	H	0.628083	-0.012580	-0.000150
H102	H	0.910840	0.004625	0.186275
C103	C	0.490771	0.197520	-0.000240
C104	C	0.451163	0.158368	-0.000234
H105	H	0.460089	0.227161	-0.000267
H106	H	0.519508	0.195983	0.043669
H107	H	0.519569	0.195971	-0.044137
H108	H	0.422368	0.159915	0.043665
H109	H	0.422414	0.159906	-0.044149
H110	H	0.643117	-0.540360	-0.000213
C111	C	0.680822	-0.812304	-0.064938
C112	C	0.685128	-0.783683	-0.000220
H113	H	0.637363	-0.825411	-0.064926
H114	H	0.683766	-0.792874	-0.108832
H115	H	0.718414	-0.838042	-0.064938
H116	H	0.647539	-0.757943	-0.000223
H117	H	0.682177	-0.803113	0.043686
H118	H	0.184097	-0.017109	-0.000246
C119	C	0.104984	0.193582	-0.000284
C120	C	0.160042	0.155399	-0.000276
H121	H	0.123720	0.223729	-0.000278
H122	H	0.076972	0.191463	-0.044189
H123	H	0.076926	0.191453	0.043617
H124	H	0.188097	0.157526	-0.044181
H125	H	0.188065	0.157519	0.043633
H126	H	0.713749	-0.071630	-0.000177
C127	C	0.683210	-0.648504	-0.064941
C128	C	0.686676	-0.677859	-0.000223
H129	H	0.640246	-0.627410	-0.064930
H130	H	0.721443	-0.629779	-0.064946
H131	H	0.685580	-0.668418	-0.108839
H132	H	0.684311	-0.657946	0.043676
H133	H	0.648433	-0.696586	-0.000211
C134	C	1.075888	-0.554788	-0.000317
C135	C	1.019515	-0.582384	-0.000307
H136	H	1.118839	-0.575897	-0.000328
H137	H	1.073537	-0.534872	-0.044214
H138	H	1.073523	-0.534885	0.043592
H139	H	1.021876	-0.602284	-0.044219
H140	H	1.021866	-0.602308	0.043595
H141	H	0.910848	0.004625	0.330041
H142	H	1.002826	-0.482059	-0.000289
C143	C	0.655053	0.125941	0.322279
C144	C	0.723649	0.133573	0.341387
H145	H	0.622596	0.148299	0.349182
H146	H	0.648205	0.130658	0.269421
H147	H	0.647836	0.093691	0.335286
H148	H	0.730868	0.165822	0.328375
H149	H	0.730500	0.128861	0.394257
C150	C	-0.035192	0.156097	-0.065031
C151	C	0.007181	0.153838	-0.000306
H152	H	-0.065871	0.185739	-0.065043
H153	H	-0.006395	0.154555	-0.108920
H154	H	-0.062054	0.129532	-0.065019
H155	H	0.034048	0.180401	-0.000321
H156	H	-0.021618	0.155384	0.043595
C157	C	-0.029332	-0.022547	-0.000296
C158	C	0.044129	-0.031118	-0.000277
H159	H	-0.048065	-0.052695	-0.000305
H160	H	-0.044900	-0.004575	0.043600
H161	H	-0.044849	-0.004565	-0.044206
H162	H	0.059647	-0.049097	0.043636
H163	H	0.059704	-0.049097	-0.044178
H164	H	0.944776	-0.093007	-0.000226
H165	H	0.644461	-0.448908	-0.000210
H166	H	0.737259	0.124181	0.186323
C167	C	0.966486	-0.033685	0.709659
C168	C	0.924503	-0.004761	0.658157
H169	H	0.998940	-0.056049	0.682760
H170	H	0.991384	-0.013608	0.740546
H171	H	0.937606	-0.051021	0.740590
H172	H	0.953383	0.012577	0.627229
H173	H	0.899604	-0.024841	0.627257
H174	H	0.645328	-0.389107	-0.000221
C175	C	1.017835	-0.165715	-0.000251
C176	C	0.961478	-0.193326	-0.000248
H177	H	1.060795	-0.186814	-0.000254
H178	H	1.015480	-0.145801	-0.044150
H179	H	1.015454	-0.145810	0.043656
H180	H	0.963856	-0.213229	-0.044159
H181	H	0.963834	-0.213249	0.043655
H182	H	1.005046	-0.330816	-0.000272
C183	C	0.655091	0.125954	0.805450
C184	C	0.723686	0.133583	0.824565
H185	H	0.622633	0.148313	0.832351
H186	H	0.648247	0.130670	0.752592
H187	H	0.647870	0.093704	0.818457
H188	H	0.730908	0.165832	0.811552
H189	H	0.730533	0.128871	0.877435
H190	H	0.910880	0.004628	0.813222
C191	C	1.078095	-0.403517	-0.000286
C192	C	1.021741	-0.431130	-0.000279
H193	H	1.121056	-0.424615	-0.000284
H194	H	1.075741	-0.383606	-0.044188
H195	H	1.075712	-0.383609	0.043618
H196	H	1.024121	-0.451036	-0.044187
H197	H	1.024096	-0.451049	0.043627
H198	H	0.935754	-0.708089	-0.000273
H199	H	0.934404	-0.799559	-0.000283
H200	H	0.646676	-0.297652	-0.000217
C201	C	0.760393	0.163172	0.612620
C202	C	0.723682	0.133583	0.658216
H203	H	0.727932	0.185532	0.585740
H204	H	0.789263	0.180507	0.643515
H205	H	0.788873	0.143541	0.577675
H206	H	0.695206	0.153213	0.693165
H207	H	0.694800	0.116247	0.627318
C208	C	0.638753	-0.130664	-0.000174
C209	C	0.694153	-0.168608	-0.000189
H210	H	0.595294	-0.143772	-0.000180
H211	H	0.641679	-0.111257	0.043733
H212	H	0.641708	-0.111233	-0.044073
H213	H	0.691202	-0.188037	0.043713
H214	H	0.691226	-0.188023	-0.044101
