data_functionalizedCrystal
_audit_creation_method	'MofGen! by Chris Wilmer'
_symmetry_space_group_name_H-M	'P1'
_symmetry_Int_Tables_number	1
_symmetry_cell_setting	triclinic
loop_
_symmetry_equiv_pos_as_xyz
  x,y,z
_cell_length_a	14.971482
_cell_length_b	19.288865
_cell_length_c	13.448316
_cell_angle_alpha	89.988163
_cell_angle_beta	89.993798
_cell_angle_gamma	83.374428
loop_
_atom_site_label
_atom_site_type_symbol
_atom_site_fract_x
_atom_site_fract_y
_atom_site_fract_z
O1	O	1.186460	0.090505	-0.082691
O2	O	0.926001	0.101347	-0.082697
O3	O	1.063757	-0.005180	-0.082674
O4	O	1.048704	0.197032	-0.082714
O5	O	1.063739	-0.005186	0.082710
O6	O	0.925984	0.101341	0.082687
O7	O	1.186443	0.090499	0.082693
Cu8	Cu	1.056212	0.095919	0.097791
Cu9	Cu	1.056232	0.095927	-0.097795
O10	O	1.048687	0.197026	0.082670
C11	C	0.892670	0.100860	-0.000006
C12	C	0.793381	0.099408	-0.000007
C13	C	0.746730	0.098721	0.090145
C14	C	0.653439	0.097346	0.090146
C15	C	0.606800	0.096663	-0.000006
C16	C	0.653457	0.097348	-0.090164
C17	C	0.746747	0.098718	-0.090165
C18	C	0.459010	0.094494	-0.090157
C19	C	0.365713	0.093125	-0.090158
C20	C	0.365703	0.093121	0.090153
C21	C	0.458993	0.094492	0.090153
C22	C	0.505643	0.095178	-0.000006
C23	C	1.063264	-0.031061	0.000021
C24	C	1.061810	-0.108169	0.000030
C25	C	1.142639	-0.152603	0.000036
C26	C	1.141273	-0.225054	0.000021
C27	C	1.059073	-0.253069	0.000018
C28	C	0.978234	-0.208626	0.000006
C29	C	0.979602	-0.136176	0.000011
C30	C	0.994449	-0.361569	0.057947
C31	C	0.993084	-0.434018	0.057947
C32	C	1.054850	-0.476528	-0.000004
C33	C	1.117996	-0.446583	-0.057943
C34	C	1.119364	-0.374133	-0.057938
C35	C	1.057581	-0.331628	0.000011
C36	C	1.134203	-0.599523	-0.000016
C37	C	1.132834	-0.671975	-0.000038
C38	C	0.969793	-0.655545	-0.000043
C39	C	0.971165	-0.583094	-0.000031
C40	C	1.053372	-0.555088	-0.000013
C41	C	1.219774	0.090986	-0.000001
C42	C	1.319063	0.092438	-0.000006
C43	C	1.049180	0.222907	-0.000027
C44	C	1.050634	0.300015	-0.000042
N45	N	1.056204	0.095913	0.235355
N46	N	1.056247	0.095927	-0.235359
C47	C	1.117221	0.048762	0.287406
C48	C	1.117226	0.048762	0.391509
C49	C	1.056219	0.095916	0.443560
C50	C	0.995195	0.143069	0.391502
C51	C	0.995186	0.143066	0.287400
C52	C	0.995220	0.143074	0.608482
C53	C	0.995230	0.143078	0.712590
C54	C	1.117260	0.048770	0.712590
C55	C	1.117251	0.048767	0.608489
C56	C	1.056229	0.095921	0.556438
H57	H	0.784728	0.099279	-0.163576
C58	C	0.928060	0.194918	0.448750
H59	H	0.891705	0.222989	0.402838
H60	H	0.960091	0.223884	0.489357
H61	H	0.890943	0.169860	0.489362
C62	C	1.184386	-0.003100	0.769837
H63	H	1.220726	-0.031177	0.723927
H64	H	1.152340	-0.032058	0.810465
H65	H	1.221518	0.021943	0.810427
C66	C	0.928121	0.194941	0.769850
H67	H	0.936876	0.188193	0.839303
H68	H	0.868458	0.187318	0.752812
H69	H	0.937641	0.241314	0.752770
C70	C	0.798030	0.099473	0.189310
H71	H	0.860271	0.100394	0.176402
H72	H	0.789726	0.058774	0.226362
H73	H	0.775747	0.139726	0.226342
C74	C	1.224626	-0.568712	-0.000007
H75	H	1.272571	-0.605555	-0.000020
H76	H	1.228544	-0.540803	0.057670
H77	H	1.228553	-0.540779	-0.057683
C78	C	0.928071	0.194934	0.230145
H79	H	0.891744	0.223023	0.276052
H80	H	0.890939	0.169899	0.189552
H81	H	0.960129	0.223890	0.189518
H82	H	0.496964	0.095052	0.163563
H83	H	0.905345	-0.546915	-0.000031
H84	H	0.615463	0.096774	0.163557
H85	H	0.327715	0.092563	0.163564
H86	H	1.209578	-0.129805	0.000048
C87	C	0.314408	0.092390	-0.189321
H88	H	0.355551	0.092992	-0.243017
H89	H	0.271037	0.132336	-0.193062
H90	H	0.284993	0.051384	-0.193069
C91	C	0.510323	0.095254	-0.189331
H92	H	0.469185	0.094660	-0.243022
H93	H	0.553707	0.055318	-0.193077
H94	H	0.539723	0.136269	-0.193079
H95	H	1.207095	-0.261239	0.000022
C96	C	1.188809	-0.341193	-0.121675
H97	H	1.225397	-0.376882	-0.156198
H98	H	1.225454	-0.316574	-0.079904
H99	H	1.158412	-0.309809	-0.168266
C100	C	1.185937	-0.493334	-0.121700
H101	H	1.176073	-0.540771	-0.113419
H102	H	1.245339	-0.487431	-0.101330
H103	H	1.178298	-0.480651	-0.189692
C104	C	1.184329	-0.003109	0.230159
H105	H	1.220663	-0.031194	0.276072
H106	H	1.221456	0.021921	0.189529
H107	H	1.152263	-0.032068	0.189570
C108	C	1.221750	-0.720853	-0.000029
H109	H	1.270902	-0.693794	-0.000007
H110	H	1.224620	-0.749447	-0.057704
H111	H	1.224591	-0.749466	0.057649
H112	H	0.902865	-0.678354	-0.000050
H113	H	0.615476	0.096787	-0.163567
H114	H	0.941663	-0.458393	0.105119
C115	C	0.926502	-0.314813	0.121697
H116	H	0.888709	-0.343023	0.156211
H117	H	0.890924	-0.282904	0.079927
H118	H	0.957960	-0.289676	0.168294
H119	H	1.166933	0.010374	0.566109
C120	C	0.887817	-0.239439	0.000006
H121	H	0.898578	-0.288952	0.000014
H122	H	0.854552	-0.224183	-0.057667
H123	H	0.854543	-0.224199	0.057686
C124	C	0.890687	-0.087297	0.000013
H125	H	0.841534	-0.114355	0.000014
H126	H	0.887838	-0.058679	-0.057654
H127	H	0.887828	-0.058707	0.057700
H128	H	1.166910	0.010368	0.433888
H129	H	0.945526	0.181469	0.566106
