data_functionalizedCrystal
_audit_creation_method	'MofGen! by Chris Wilmer'
_symmetry_space_group_name_H-M	'P1'
_symmetry_Int_Tables_number	1
_symmetry_cell_setting	triclinic
loop_
_symmetry_equiv_pos_as_xyz
  x,y,z
_cell_length_a	10.654541
_cell_length_b	10.654550
_cell_length_c	9.730223
_cell_angle_alpha	90.004253
_cell_angle_beta	90.001941
_cell_angle_gamma	84.484429
loop_
_atom_site_label
_atom_site_type_symbol
_atom_site_fract_x
_atom_site_fract_y
_atom_site_fract_z
O1	O	-1.667842	-0.176384	-0.114247
O2	O	-1.302363	-0.193193	-0.114259
O3	O	-1.493505	-0.002049	-0.114244
O4	O	-1.476699	-0.367528	-0.114262
O5	O	-1.493493	-0.002044	0.114335
O6	O	-1.302350	-0.193188	0.114321
O7	O	-1.667829	-0.176379	0.114333
Zn8	Zn	-1.485088	-0.184782	0.150619
Zn9	Zn	-1.485104	-0.184789	-0.150545
O10	O	-1.476687	-0.367523	0.114318
C11	C	-1.492265	0.044751	0.000045
C12	C	-1.488573	0.184195	0.000043
C13	C	-1.255558	-0.191957	0.000029
C14	C	-1.116115	-0.188266	0.000025
C15	C	-1.714634	-0.177615	0.000041
C16	C	-1.854077	-0.181306	0.000036
C17	C	-1.088144	-0.416831	-0.000004
C18	C	-1.008650	-0.529374	-0.000023
C19	C	-0.877632	-0.525898	-0.000024
C20	C	-0.826107	-0.409867	-0.000002
C21	C	-0.905601	-0.297324	0.000018
C22	C	-1.036620	-0.300812	0.000015
C23	C	-0.933571	-0.068763	0.000056
C24	C	-1.064590	-0.072235	0.000047
C25	C	-0.882046	0.047269	0.000079
C26	C	-0.961541	0.159814	0.000088
C27	C	-1.092566	0.156334	0.000088
C28	C	-1.144084	0.040308	0.000067
C29	C	-1.477927	-0.414323	0.000025
C30	C	-1.481619	-0.553766	0.000019
N31	N	-1.485086	-0.184777	0.356155
C32	C	-1.601115	0.263681	0.000046
C33	C	-1.597638	0.394702	0.000029
C34	C	-1.369069	0.366737	0.000011
C35	C	-1.372546	0.235718	0.000018
N36	N	-1.485116	-0.184785	-0.356082
C37	C	-1.569753	-0.100175	0.428087
C38	C	-1.569765	-0.100175	0.571970
C39	C	-1.400440	-0.269392	0.571976
C40	C	-1.400422	-0.269384	0.428095
H41	H	-1.194824	-0.419672	-0.000033
H42	H	-1.638707	-0.031283	0.630534
F43	F	-1.310342	-0.359435	0.648549
F44	F	-1.659856	-0.010125	0.351529
F45	F	-1.717421	0.479293	0.000029
H46	H	-1.695591	0.221735	0.000062
H47	H	-1.331470	-0.338278	0.369524
H48	H	-1.250764	0.037463	0.000051
H49	H	-1.050616	-0.623844	-0.000038
H50	H	-0.719424	-0.407048	0.000014
F51	F	-0.742604	0.050965	0.000085
F52	F	-0.793026	-0.645678	-0.000034
H53	H	-0.919577	0.254278	0.000106
F54	F	-1.177161	0.276121	0.000119
H55	H	-1.274603	0.408704	-0.000006
F56	F	-1.252757	0.151117	0.000005
