data_functionalizedCrystal
_audit_creation_method	'MofGen! by Chris Wilmer'
_symmetry_space_group_name_H-M	'P1'
_symmetry_Int_Tables_number	1
_symmetry_cell_setting	triclinic
loop_
_symmetry_equiv_pos_as_xyz
  x,y,z
_cell_length_a	21.395362
_cell_length_b	17.637651
_cell_length_c	21.395355
_cell_angle_alpha	78.767767
_cell_angle_beta	89.956060
_cell_angle_gamma	101.230465
loop_
_atom_site_label
_atom_site_type_symbol
_atom_site_fract_x
_atom_site_fract_y
_atom_site_fract_z
Zn1	Zn	0.907526	-0.314524	-0.304123
Zn2	Zn	1.407526	0.185476	0.195877
Zn3	Zn	0.886274	-0.446721	-0.178135
Zn4	Zn	1.386274	0.053279	0.321865
Zn5	Zn	0.802736	-0.314561	-0.199318
Zn6	Zn	1.302736	0.185439	0.300682
Zn7	Zn	0.781553	-0.446737	-0.282837
Zn8	Zn	1.281553	0.053263	0.217163
O9	O	0.844522	-0.380636	-0.241103
O10	O	1.344522	0.119364	0.258897
O11	O	0.992389	-0.332038	-0.287453
O12	O	1.492389	0.167962	0.212547
O13	O	0.875163	-0.429198	-0.093266
O14	O	1.375163	0.070802	0.406734
O15	O	0.834396	-0.203915	-0.230994
O16	O	1.334396	0.296085	0.269006
O17	O	0.976774	-0.429162	-0.194891
O18	O	1.476774	0.070838	0.305109
O19	O	0.911385	-0.203888	-0.307993
O20	O	1.411385	0.296112	0.192007
O21	O	0.813788	-0.332101	-0.108829
O22	O	1.313788	0.167899	0.391171
O23	O	0.712244	-0.332116	-0.210354
O24	O	1.212244	0.167884	0.289646
O25	O	0.798293	-0.429190	-0.373340
O26	O	1.298293	0.070810	0.126660
O27	O	0.696681	-0.429226	-0.271715
O28	O	1.196681	0.070774	0.228285
O29	O	0.890845	-0.332054	-0.388978
O30	O	1.390845	0.167946	0.111022
O31	O	0.854623	-0.557364	-0.174251
O32	O	1.354623	-0.057364	0.325749
O33	O	0.777685	-0.557376	-0.251175
O34	O	1.277685	-0.057376	0.248825
C35	C	0.681728	-0.380677	-0.241024
C36	C	1.181728	0.119323	0.258976
C37	C	0.612080	-0.380714	-0.241002
C38	C	1.112080	0.119286	0.258998
C39	C	0.811566	-0.586058	-0.208119
C40	C	1.311566	-0.086058	0.291881
C41	C	0.797524	-0.673938	-0.194028
C42	C	1.297524	-0.173938	0.305972
C43	C	0.571269	-0.431346	-0.272882
C44	C	1.071269	0.068654	0.227118
C45	C	0.505837	-0.431327	-0.272913
C46	C	1.005837	0.068673	0.227087
C47	C	0.481217	-0.380684	-0.241051
C48	C	0.981217	0.119316	0.258949
C49	C	0.522038	-0.330042	-0.209170
C50	C	1.022038	0.169958	0.290830
C51	C	0.587469	-0.330057	-0.209145
C52	C	1.087469	0.169943	0.290855
C53	C	0.378512	-0.374314	-0.185668
C54	C	0.878512	0.125686	0.314332
C55	C	0.313080	-0.374305	-0.185691
C56	C	0.813080	0.125695	0.314309
C57	C	0.279405	-0.380632	-0.241129
C58	C	0.779405	0.119368	0.258871
C59	C	0.311166	-0.386986	-0.296543
C60	C	0.811166	0.113014	0.203457
C61	C	0.376598	-0.387001	-0.296518
C62	C	0.876598	0.112999	0.203482
C63	C	0.410268	-0.380661	-0.241075
C64	C	0.910268	0.119339	0.258925
C65	C	0.167644	-0.431246	-0.273045
C66	C	0.667644	0.068754	0.226955
C67	C	0.102211	-0.431221	-0.273078
C68	C	0.602211	0.068779	0.226922
C69	C	0.118413	-0.329940	-0.209329
C70	C	0.618413	0.170060	0.290671
C71	C	0.183845	-0.329961	-0.209303
C72	C	0.683845	0.170039	0.290697
C73	C	0.208456	-0.380618	-0.241159
C74	C	0.708456	0.119382	0.258841
C75	C	0.951601	-0.962602	-0.348342
C76	C	1.451601	-0.462602	0.151658
C77	C	0.938387	-1.045179	-0.335091
C78	C	1.438387	-0.545179	0.164909
C79	C	0.858271	-1.045314	-0.254834
C80	C	1.358271	-0.545314	0.245166
C81	C	0.871481	-0.962736	-0.268076
C82	C	1.371481	-0.462736	0.231924
C83	C	0.918146	-0.921386	-0.314831
C84	C	1.418146	-0.421386	0.185169
C85	C	0.838026	-0.921520	-0.234565
C86	C	1.338026	-0.421520	0.265435
C87	C	0.851232	-0.838948	-0.247808
C88	C	1.351232	-0.338948	0.252192
C89	C	0.897893	-0.797592	-0.294562
C90	C	1.397893	-0.297592	0.205438
C91	C	0.931352	-0.838814	-0.328074
C92	C	1.431352	-0.338814	0.171926
C93	C	0.791358	-0.962871	-0.187813
C94	C	1.291358	-0.462871	0.312187
C95	C	0.757902	-0.921655	-0.154302
C96	C	1.257902	-0.421655	0.345698
C97	C	0.771112	-0.839082	-0.167542
C98	C	1.271112	-0.339082	0.332458
C99	C	0.817773	-0.797726	-0.214296
C100	C	1.317773	-0.297726	0.285704
C101	C	0.737653	-0.797860	-0.134030
C102	C	1.237653	-0.297860	0.365970
C103	C	0.750859	-0.715288	-0.147274
C104	C	1.250859	-0.215288	0.352726
C105	C	0.830979	-0.715154	-0.227539
C106	C	1.330979	-0.215154	0.272461
C107	C	1.007952	-0.380594	-0.241183
C108	C	1.507952	0.119406	0.258817
C109	C	1.077596	-0.380577	-0.241217
C110	C	1.577596	0.119423	0.258783
C111	C	0.844577	-0.380620	-0.404529
C112	C	1.344577	0.119380	0.095471
C113	C	0.844600	-0.380613	-0.474172
C114	C	1.344600	0.119387	0.025828
C115	C	0.877624	-0.174411	-0.274231
C116	C	1.377624	0.325589	0.225769
C117	C	0.891730	-0.086530	-0.288348
C118	C	1.391730	0.413470	0.211652
C119	C	0.892791	-0.330032	-0.515029
C120	C	1.392791	0.169968	-0.015029
C121	C	0.892795	-0.329998	-0.580470
C122	C	1.392795	0.170002	-0.080470
C123	C	0.844613	-0.380559	-0.605049
C124	C	1.344613	0.119441	-0.105049
C125	C	0.796414	-0.431143	-0.564183
C126	C	1.296414	0.068857	-0.064183
C127	C	0.796408	-0.431170	-0.498744
C128	C	1.296408	0.068830	0.001256
C129	C	0.828245	-0.451751	-0.697290
C130	C	1.328245	0.048249	-0.197290
C131	C	0.828256	-0.451726	-0.762727
C132	C	1.328256	0.048274	-0.262727
C133	C	0.844631	-0.380475	-0.806883
C134	C	1.344631	0.119525	-0.306883
C135	C	0.861008	-0.309248	-0.785594
C136	C	1.361008	0.190752	-0.285594
C137	C	0.861002	-0.309275	-0.720155
C138	C	1.361002	0.190725	-0.220155
C139	C	0.844615	-0.380535	-0.676005
C140	C	1.344615	0.119465	-0.176005
C141	C	0.892829	-0.329853	-0.918699
C142	C	1.392829	0.170147	-0.418699
C143	C	0.892830	-0.329818	-0.984142
C144	C	1.392830	0.170182	-0.484142
C145	C	0.796451	-0.430971	-0.967852
C146	C	1.296451	0.069029	-0.467852
C147	C	0.796448	-0.430999	-0.902413
C148	C	1.296448	0.069001	-0.402413
C149	C	0.844641	-0.380441	-0.877840
C150	C	1.344641	0.119559	-0.377840
C151	C	0.844513	-0.380594	-0.078322
C152	C	1.344513	0.119406	0.421678
C153	C	0.844647	-0.380379	-0.008716
C154	C	1.344647	0.119621	0.491284
H155	H	0.591303	-0.472594	-0.298823
H156	H	1.091303	0.027406	0.201177
Br157	Br	0.794936	-1.101439	-0.191389
Br158	Br	1.294936	-0.601439	0.308611
Br159	Br	0.983799	-1.101114	-0.380573
Br160	Br	1.483799	-0.601114	0.119427
Br161	Br	0.694567	-0.977779	-0.090858
Br162	Br	1.194567	-0.477779	0.409142
H163	H	0.989605	-0.928933	-0.386410
H164	H	1.489605	-0.428933	0.113590
H165	H	0.908645	-0.730357	-0.305343
H166	H	1.408645	-0.230357	0.194657
H167	H	0.932032	-0.288863	-0.495027
H168	H	1.432032	0.211137	0.004973
Br169	Br	0.806038	-0.548390	-0.791613
Br170	Br	1.306038	-0.048390	-0.291613
H171	H	0.780601	-1.030106	-0.177038
H172	H	1.280601	-0.530106	0.322962
Br173	Br	0.731044	-0.499650	-0.846959
Br174	Br	1.231044	0.000350	-0.346959
Br175	Br	0.731054	-0.499581	-1.001204
Br176	Br	1.231054	0.000419	-0.501204
Br177	Br	0.674312	-0.853987	-0.070592
Br178	Br	1.174312	-0.353987	0.429408
H179	H	0.969356	-0.805146	-0.366142
H180	H	1.469356	-0.305146	0.133858
Br181	Br	0.806038	-0.548459	-0.637370
Br182	Br	1.306038	-0.048459	-0.137370
H183	H	0.723616	-0.681730	-0.119986
H184	H	1.223616	-0.181730	0.380014
Br185	Br	0.958189	-0.261327	-0.635933
Br186	Br	1.458189	0.238673	-0.135933
Br187	Br	0.424208	-0.365727	-0.110424
Br188	Br	0.924208	0.134273	0.389576
Br189	Br	0.958245	-0.261178	-1.039592
Br190	Br	1.458245	0.238822	-0.539592
H191	H	0.283749	-0.392137	-0.341686
H192	H	0.783749	0.107863	0.158314
H193	H	0.874335	-0.251280	-0.702825
H194	H	1.374335	0.248720	-0.202825
H195	H	0.874344	-0.251229	-0.821545
H196	H	1.374344	0.248771	-0.321545
H197	H	0.932067	-0.288682	-0.898692
H198	H	1.432067	0.211318	-0.398692
H199	H	0.472603	-0.472557	-0.298876
H200	H	0.972603	0.027443	0.201124
Br201	Br	0.731021	-0.499757	-0.597539
Br202	Br	1.231021	0.000243	-0.097539
H203	H	0.757162	-0.472359	-0.465478
H204	H	1.257162	0.027641	0.034522
H205	H	0.402455	-0.392173	-0.341639
H206	H	0.902455	0.107827	0.158361
H207	H	0.187684	-0.472490	-0.298989
H208	H	0.687684	0.027510	0.201011
H209	H	0.068983	-0.472450	-0.299043
H210	H	0.568983	0.027550	0.200957
H211	H	0.098368	-0.288702	-0.183390
H212	H	0.598368	0.211298	0.316610
H213	H	0.501988	-0.288807	-0.183230
H214	H	1.001988	0.211193	0.316770
H215	H	0.217073	-0.288735	-0.183339
H216	H	0.717073	0.211265	0.316661
H217	H	0.287225	-0.369136	-0.140568
H218	H	0.787225	0.130864	0.359432
H219	H	0.868984	-0.681486	-0.265607
H220	H	1.368984	-0.181486	0.234393
Br221	Br	0.642860	-0.261336	-0.165878
Br222	Br	1.142860	0.238664	0.334122
