data_functionalizedCrystal
_audit_creation_method	'MofGen! by Chris Wilmer'
_symmetry_space_group_name_H-M	'P1'
_symmetry_Int_Tables_number	1
_symmetry_cell_setting	triclinic
loop_
_symmetry_equiv_pos_as_xyz
  x,y,z
_cell_length_a	16.992694
_cell_length_b	15.995350
_cell_length_c	15.455313
_cell_angle_alpha	92.667328
_cell_angle_beta	87.142206
_cell_angle_gamma	87.080299
loop_
_atom_site_label
_atom_site_type_symbol
_atom_site_fract_x
_atom_site_fract_y
_atom_site_fract_z
O1	O	1.043823	0.174116	-0.072015
O2	O	0.815539	0.172167	-0.072041
O3	O	0.935921	0.051671	-0.072026
O4	O	0.923440	0.294611	-0.072029
O5	O	0.929037	0.058531	0.072235
O6	O	0.808655	0.179027	0.072221
O7	O	1.036939	0.180976	0.072246
Cu8	Cu	0.922168	0.180628	0.085406
Cu9	Cu	0.930309	0.172515	-0.085200
O10	O	0.916556	0.301471	0.072232
C11	C	0.782884	0.173091	0.000087
C12	C	0.695840	0.165614	0.000077
C13	C	0.645600	0.237750	0.000077
C14	C	0.563813	0.230720	0.000089
C15	C	0.532268	0.151555	0.000095
C16	C	0.582515	0.079414	0.000098
C17	C	0.664300	0.086445	0.000092
C18	C	0.288669	0.122418	0.000118
C19	C	0.206878	0.115393	0.000122
C20	C	0.188181	0.266700	0.000114
C21	C	0.269969	0.273723	0.000103
C22	C	0.320208	0.201582	0.000111
N23	N	0.448669	0.144368	0.000104
N24	N	0.403806	0.208770	0.000107
C25	C	0.931963	0.023872	0.000103
C26	C	0.930416	-0.069182	0.000098
C27	C	0.924861	-0.407301	0.000100
C28	C	0.839142	-0.365620	-0.000233
C29	C	0.840674	-0.268811	0.000092
C30	C	0.927617	-0.239556	0.000098
C31	C	0.965973	-0.273887	0.082482
C32	C	0.963816	-0.370663	0.082550
C33	C	0.973415	-0.378704	-0.081501
C34	C	0.973447	-0.281812	-0.082590
C35	C	0.929178	-0.144754	0.000100
C36	C	0.923301	-0.502103	0.000104
C37	C	1.069593	0.180052	0.000117
C38	C	1.156637	0.187528	0.000121
C39	C	0.920514	0.329271	0.000101
C40	C	0.922061	0.422324	0.000101
N41	N	0.916448	0.186334	0.205401
N42	N	0.936036	0.166802	-0.205195
C43	C	0.967608	0.135164	0.250801
C44	C	0.963289	0.139488	0.341608
C45	C	0.907813	0.194986	0.387014
C46	C	0.856647	0.246157	0.341607
C47	C	0.860963	0.241829	0.250801
C48	C	0.889185	0.213646	0.658593
C49	C	0.884875	0.217972	0.749405
C50	C	0.991517	0.111301	0.749400
C51	C	0.995831	0.106981	0.658592
C52	C	0.944662	0.158150	0.613194
N53	N	0.903399	0.199408	0.479833
N54	N	0.949073	0.153722	0.520376
H55	H	0.810251	-0.245421	-0.058964
H56	H	1.037086	-0.262444	-0.087560
H57	H	0.522910	0.289461	0.000087
O58	O	1.057180	-0.415210	-0.082243
H59	H	1.064237	-0.453539	-0.024809
O60	O	0.940265	-0.412373	-0.164212
H61	H	0.975522	-0.391359	-0.220783
H62	H	0.295647	0.338187	0.000088
O63	O	0.936410	-0.252228	-0.163328
H64	H	0.885575	-0.207611	-0.144653
H65	H	1.012786	0.089976	0.213838
O66	O	0.342849	0.044611	0.000118
H67	H	0.377754	0.046987	0.058919
H68	H	0.933677	-0.244555	0.143784
H69	H	0.807694	-0.389254	-0.059312
O70	O	1.018483	0.084315	0.390579
H71	H	1.057795	0.045010	0.343750
O72	O	0.792624	-0.231137	0.078453
H73	H	0.730855	-0.250141	0.075585
H74	H	0.802224	-0.384703	0.058509
H75	H	0.147268	0.325432	0.000110
O76	O	0.548497	-0.005974	0.000112
H77	H	0.514486	-0.015600	-0.058688
O78	O	1.055672	0.047134	0.609613
H79	H	1.024641	0.002244	0.568239
O80	O	0.718494	0.008643	0.000089
H81	H	0.682821	-0.047588	0.000087
H82	H	0.181198	0.050923	0.000126
H83	H	0.930041	-0.388100	0.144129
O84	O	1.046950	-0.407575	0.087529
H85	H	1.088514	-0.356287	0.089883
H86	H	1.029701	-0.255341	0.085550
O87	O	1.046698	0.056106	0.798363
H88	H	1.034375	0.068431	0.869134
O89	O	0.825029	0.277822	0.798384
H90	H	0.790165	0.312668	0.751561
O91	O	0.834007	0.268839	0.609631
H92	H	0.794715	0.308164	0.656463
O93	O	0.796816	0.306024	0.390574
H94	H	0.756746	0.270184	0.431965
O95	O	0.679622	0.323136	0.000079
H96	H	0.630943	0.372115	0.000092
O97	O	0.805788	0.297022	0.201827
H98	H	0.766492	0.336347	0.248654
