data_functionalizedCrystal
_audit_creation_method	'MofGen! by Chris Wilmer'
_symmetry_space_group_name_H-M	'P1'
_symmetry_Int_Tables_number	1
_symmetry_cell_setting	triclinic
loop_
_symmetry_equiv_pos_as_xyz
  x,y,z
_cell_length_a	14.519710
_cell_length_b	10.654550
_cell_length_c	9.730223
_cell_angle_alpha	90.004253
_cell_angle_beta	89.997653
_cell_angle_gamma	95.917462
loop_
_atom_site_label
_atom_site_type_symbol
_atom_site_fract_x
_atom_site_fract_y
_atom_site_fract_z
O1	O	1.224719	-0.164623	-0.114259
O2	O	0.956343	-0.184009	-0.114269
O3	O	1.096702	0.008483	-0.114255
O4	O	1.084361	-0.357114	-0.114273
O5	O	1.096693	0.008488	0.114325
O6	O	0.956334	-0.184004	0.114311
O7	O	1.224710	-0.164617	0.114320
Zn8	Zn	1.090521	-0.174310	0.150608
Zn9	Zn	1.090533	-0.174317	-0.150556
O10	O	1.084352	-0.357109	0.114307
C11	C	1.095791	0.055275	0.000034
C12	C	1.093080	0.194692	0.000032
C13	C	0.921974	-0.183103	0.000020
C14	C	0.819579	-0.180396	0.000017
C15	C	1.259079	-0.165524	0.000029
C16	C	1.361475	-0.168231	0.000023
C17	C	1.736422	-0.178198	0.000022
C18	C	1.632100	-0.175430	0.000022
C19	C	1.548952	-0.173215	0.000021
C20	C	1.444623	-0.170446	0.000024
C21	C	1.085262	-0.403901	0.000015
C22	C	1.087973	-0.543318	0.000008
N23	N	1.090519	-0.174304	0.356144
C24	C	1.175721	0.274972	0.000034
C25	C	1.173168	0.405968	0.000017
C26	C	1.005326	0.376391	0.000001
C27	C	1.007880	0.245397	0.000008
N28	N	1.090541	-0.174312	-0.356092
C29	C	1.152691	-0.089105	0.428076
C30	C	1.152701	-0.089105	0.571959
C31	C	1.028363	-0.259516	0.571966
C32	C	1.028350	-0.259508	0.428085
H33	H	1.245096	0.233692	0.000050
H34	H	1.240463	0.471328	0.000016
O35	O	0.927659	0.167276	0.000189
C36	C	0.924098	0.090648	0.118590
H37	H	0.997339	0.083874	0.158069
H38	H	0.890384	-0.007730	0.091960
H39	H	0.881690	0.133835	0.201480
H40	H	0.935959	0.417692	-0.000015
H41	H	1.203326	-0.019727	0.630522
O42	O	0.968069	-0.342240	0.642065
C43	C	0.981397	-0.323961	0.784483
H44	H	1.054419	-0.277248	0.804121
H45	H	0.971747	-0.419040	0.839150
H46	H	0.928803	-0.260816	0.825341
O47	O	1.213003	-0.006404	0.357979
C48	C	1.199627	-0.024614	0.215560
H49	H	1.165848	-0.124378	0.195879
H50	H	1.269358	-0.010757	0.160832
H51	H	1.152863	0.046566	0.174805
O52	O	0.967919	-0.342399	0.358414
C53	C	0.913039	-0.417590	0.452761
H54	H	0.950864	-0.419138	0.555315
H55	H	0.899601	-0.517836	0.411170
H56	H	0.844276	-0.376600	0.468088
