data_functionalizedCrystal
_audit_creation_method	'MofGen! by Chris Wilmer'
_symmetry_space_group_name_H-M	'P1'
_symmetry_Int_Tables_number	1
_symmetry_cell_setting	triclinic
loop_
_symmetry_equiv_pos_as_xyz
  x,y,z
_cell_length_a	10.654541
_cell_length_b	27.732048
_cell_length_c	9.130307
_cell_angle_alpha	89.991788
_cell_angle_beta	89.999822
_cell_angle_gamma	83.563292
loop_
_atom_site_label
_atom_site_type_symbol
_atom_site_fract_x
_atom_site_fract_y
_atom_site_fract_z
O1	O	1.664985	0.067880	-0.121772
O2	O	1.299234	0.074349	-0.121787
O3	O	1.493469	0.000788	-0.121751
O4	O	1.470750	0.141440	-0.121808
O5	O	1.493463	0.000787	0.121848
O6	O	1.299228	0.074348	0.121812
O7	O	1.664979	0.067879	0.121827
Cu8	Cu	1.482103	0.071113	0.144062
Cu9	Cu	1.482110	0.071114	-0.144022
O10	O	1.470744	0.141439	0.121791
C11	C	1.252453	0.073873	0.000011
C12	C	1.113069	0.072453	0.000007
C13	C	1.081401	0.160415	-0.000047
C14	C	1.000086	0.203726	-0.000079
C15	C	0.869124	0.202389	-0.000080
C16	C	0.819476	0.157735	-0.000044
C17	C	0.900791	0.114423	-0.000012
C18	C	1.031754	0.115766	-0.000015
C19	C	0.932459	0.026463	0.000053
C20	C	1.063421	0.027799	0.000043
C21	C	0.882811	-0.018191	0.000089
C22	C	0.964126	-0.061504	0.000111
C23	C	1.095095	-0.060164	0.000110
C24	C	1.144736	-0.015512	0.000076
C25	C	1.492989	-0.017222	0.000052
C26	C	1.491553	-0.070886	0.000064
C27	C	1.597293	-0.409043	-0.000007
C28	C	1.591965	-0.610736	-0.000027
O29	O	1.688656	-0.641390	-0.000088
N30	N	1.476791	-0.630576	-0.000031
C31	C	1.362942	-0.599990	-0.000038
O32	O	1.264858	-0.621494	-0.000056
C33	C	1.368271	-0.398299	-0.000028
C34	C	1.483452	-0.378461	-0.000010
C35	C	1.712464	-0.389205	0.000010
C36	C	1.713795	-0.338785	0.000023
C37	C	1.599954	-0.308203	0.000020
C38	C	1.484783	-0.328041	0.000003
C39	C	1.254423	-0.367713	-0.000046
C40	C	1.255766	-0.317288	-0.000047
C41	C	1.370947	-0.297450	-0.000029
C42	C	1.372273	-0.247038	0.000013
N43	N	1.487446	-0.227198	0.000016
C44	C	1.601287	-0.257780	0.000019
C45	C	1.360152	-0.705882	-0.000041
C46	C	1.358819	-0.756305	-0.000041
C47	C	1.587843	-0.767046	-0.000032
C48	C	1.589174	-0.716623	-0.000022
C49	C	1.475325	-0.686041	-0.000037
C50	C	1.604073	-0.151893	0.000048
C51	C	1.605394	-0.101468	0.000068
C52	C	1.376371	-0.090731	0.000052
C53	C	1.375050	-0.141151	0.000040
C54	C	1.488911	-0.171732	0.000034
O55	O	1.275633	-0.216356	0.000057
O56	O	1.699357	-0.236267	0.000005
C57	C	1.595962	-0.459463	-0.000020
C58	C	1.480790	-0.479301	-0.000036
C59	C	1.366950	-0.448719	-0.000040
C60	C	1.479458	-0.529724	-0.000036
C61	C	1.593298	-0.560306	-0.000033
C62	C	1.708472	-0.540466	-0.000030
C63	C	1.709803	-0.490045	-0.000017
C64	C	1.251777	-0.468560	-0.000043
C65	C	1.250455	-0.518981	-0.000054
C66	C	1.364296	-0.549563	-0.000051
C67	C	1.711760	0.068354	0.000025
C68	C	1.851144	0.069774	0.000020
C69	C	1.471224	0.159450	-0.000016
C70	C	1.472660	0.213113	-0.000037
N71	N	1.482107	0.071112	0.346685
N72	N	1.482116	0.071111	-0.346645
C73	C	1.654171	0.005994	0.346706
C74	C	1.740211	-0.026564	0.423384
C75	C	1.740224	-0.026565	0.576717
C76	C	1.654184	0.005996	0.653377
C77	C	1.568144	0.038554	0.576699
C78	C	1.568143	0.038551	0.423362
C79	C	1.396076	0.103669	0.576678
C80	C	1.396067	0.103673	0.423344
C81	C	1.310037	0.136229	0.653337
C82	C	1.224000	0.168790	0.576660
C83	C	1.223992	0.168790	0.423317
C84	C	1.310027	0.136230	0.346667
H85	H	1.699192	-0.085319	0.000086
N86	N	1.128979	-0.435582	-0.000033
H87	H	1.124422	-0.414430	0.090277
H88	H	1.124483	-0.414446	-0.090387
H89	H	1.153948	0.195296	0.639085
H90	H	1.654189	0.005989	0.778229
H91	H	1.805172	-0.414100	0.000007
H92	H	1.310045	0.136226	0.778189
H93	H	0.712838	0.156650	-0.000027
H94	H	1.251370	-0.014417	0.000058
N95	N	1.222649	0.161863	-0.000053
H96	H	1.260415	0.144922	0.090262
H97	H	1.260308	0.144923	-0.090402
N98	N	1.182793	-0.106880	0.000136
H99	H	1.273292	-0.099260	0.000128
H100	H	1.166813	-0.126316	0.090458
H101	H	1.803594	-0.473898	-0.000002
N102	N	1.838035	-0.317398	0.000011
H103	H	1.843695	-0.296715	-0.090294
H104	H	1.843643	-0.296747	0.090370
N105	N	1.726877	-0.184872	0.000041
H106	H	1.800030	-0.164647	0.000057
H107	H	1.731314	-0.206032	0.090344
H108	H	0.923691	-0.097857	0.000139
N109	N	1.831259	-0.573455	-0.000013
H110	H	1.812925	-0.608407	-0.000021
H111	H	1.881502	-0.566985	-0.090314
N112	N	1.713406	-0.695231	-0.000007
H113	H	1.719077	-0.674546	-0.090308
H114	H	1.718986	-0.674579	0.090356
N115	N	1.132969	-0.284303	-0.000071
H116	H	1.059810	-0.304525	-0.000083
H117	H	1.128521	-0.263154	0.090237
N118	N	0.741559	-0.019629	0.000088
H119	H	0.716230	-0.037223	-0.090201
H120	H	0.716318	-0.037203	0.090463
H121	H	1.156654	-0.535127	-0.000056
H122	H	1.680536	-0.791955	-0.000029
H123	H	1.810280	-0.053078	0.639148
H124	H	1.654180	0.005995	0.221854
N125	N	1.131178	0.203905	0.340629
H126	H	1.144956	0.238262	0.367301
H127	H	1.144266	0.198925	0.231885
H128	H	0.802916	0.237657	-0.000096
H129	H	1.267437	-0.680986	-0.000053
N130	N	1.053632	0.251887	-0.000113
H131	H	1.148934	0.246165	-0.000112
H132	H	1.023826	0.270855	-0.090433
N133	N	1.234581	-0.777692	-0.000044
H134	H	1.228918	-0.798368	-0.090347
H135	H	1.228984	-0.798352	0.090317
H136	H	1.310033	0.136229	0.221815
N137	N	1.253604	-0.057733	0.000046
H138	H	1.203311	-0.064149	-0.090263
H139	H	1.203395	-0.064173	0.090401
N140	N	1.250819	-0.162548	0.000032
H141	H	1.245164	-0.183220	-0.090281
H142	H	1.245231	-0.183213	0.090383
N143	N	1.832978	-0.061693	0.340704
H144	H	1.819913	-0.056757	0.231932
H145	H	1.921957	-0.055798	0.367480
H146	H	1.160631	-0.383856	-0.000070
