data_functionalizedCrystal
_audit_creation_method	'MofGen! by Chris Wilmer'
_symmetry_space_group_name_H-M	'P1'
_symmetry_Int_Tables_number	1
_symmetry_cell_setting	triclinic
loop_
_symmetry_equiv_pos_as_xyz
  x,y,z
_cell_length_a	17.019372
_cell_length_b	17.019294
_cell_length_c	13.930277
_cell_angle_alpha	86.116472
_cell_angle_beta	93.869203
_cell_angle_gamma	83.656821
loop_
_atom_site_label
_atom_site_type_symbol
_atom_site_fract_x
_atom_site_fract_y
_atom_site_fract_z
O1	O	1.046553	0.100471	-0.001693
O2	O	1.379887	0.433804	0.331640
O3	O	1.713220	0.767138	0.664974
O4	O	0.816877	0.113292	-0.021725
O5	O	1.150211	0.446625	0.311608
O6	O	1.483544	0.779959	0.644942
O7	O	0.938122	-0.007959	-0.001682
O8	O	1.271455	0.325375	0.331651
O9	O	1.604789	0.658708	0.664985
O10	O	0.925309	0.221722	-0.021736
O11	O	1.258642	0.555055	0.311597
O12	O	1.591975	0.888388	0.644930
O13	O	0.938105	-0.007961	0.157979
O14	O	1.271439	0.325372	0.491312
O15	O	1.604772	0.658705	0.824645
O16	O	0.816861	0.113290	0.137936
O17	O	1.150194	0.446623	0.471269
O18	O	1.483527	0.779956	0.804602
O19	O	1.046536	0.100468	0.157968
O20	O	1.379870	0.433802	0.491301
O21	O	1.713203	0.767135	0.824634
Zn22	Zn	0.931696	0.106879	0.173301
Zn23	Zn	1.265029	0.440212	0.506634
Zn24	Zn	1.598363	0.773545	0.839968
Zn25	Zn	0.931718	0.106882	-0.037059
Zn26	Zn	1.265051	0.440215	0.296275
Zn27	Zn	1.598385	0.773549	0.629608
O28	O	0.925292	0.221719	0.137924
O29	O	1.258625	0.555052	0.471258
O30	O	1.591958	0.888386	0.804591
C31	C	0.787481	0.112806	0.055718
C32	C	1.120814	0.446139	0.389051
C33	C	1.454148	0.779472	0.722384
C34	C	0.699914	0.111351	0.048605
C35	C	1.033247	0.444684	0.381938
C36	C	1.366580	0.778017	0.715271
C37	C	0.204655	0.103095	0.003947
C38	C	0.537988	0.436428	0.337280
C39	C	0.871322	0.769761	0.670613
C40	C	0.286934	0.104462	0.010643
C41	C	0.620267	0.437795	0.343976
C42	C	0.953601	0.771129	0.677310
C43	C	0.328055	0.105150	0.101023
C44	C	0.661389	0.438483	0.434356
C45	C	0.994722	0.771817	0.767689
C46	C	0.286895	0.104463	0.184712
C47	C	0.620228	0.437796	0.518045
C48	C	0.953562	0.771129	0.851378
C49	C	0.204618	0.103090	0.178015
C50	C	0.537952	0.436423	0.511348
C51	C	0.871285	0.769756	0.844682
C52	C	0.576477	0.109290	0.125597
C53	C	0.909810	0.442624	0.458930
C54	C	1.243144	0.775957	0.792264
C55	C	0.658759	0.110666	0.132287
C56	C	0.992092	0.443999	0.465621
C57	C	1.325425	0.777332	0.798954
C58	C	0.658792	0.110663	-0.041782
C59	C	0.992126	0.443997	0.291551
C60	C	1.325459	0.777330	0.624885
C61	C	0.576514	0.109295	-0.048471
C62	C	0.909847	0.442629	0.284862
C63	C	1.243180	0.775962	0.618195
C64	C	0.535361	0.108604	0.035218
C65	C	0.868694	0.441937	0.368552
C66	C	1.202028	0.775271	0.701885
C67	C	0.412157	0.106550	0.107869
C68	C	0.745490	0.439883	0.441203
C69	C	1.078824	0.773217	0.774536
C70	C	0.451261	0.107198	0.028371
C71	C	0.784595	0.440531	0.361704
C72	C	1.117928	0.773865	0.695038
C73	C	0.937628	-0.037349	0.080537
C74	C	1.270961	0.295985	0.413870
C75	C	1.604294	0.629318	0.747203
C76	C	0.936170	-0.124917	0.087653
C77	C	1.269503	0.208416	0.420986
C78	C	1.602836	0.541749	0.754319
C79	C	0.935496	-0.166051	0.003965
C80	C	1.268829	0.167282	0.337299
C81	C	1.602162	0.500615	0.670632
C82	C	0.934121	-0.248331	0.010654
C83	C	1.267454	0.085003	0.343987
C84	C	1.600787	0.418336	0.677321
C85	C	0.933425	-0.289475	0.101031
C86	C	1.266759	0.043858	0.434365
C87	C	1.600092	0.377191	0.767698
C88	C	0.934097	-0.248335	0.184725
C89	C	1.267430	0.084998	0.518058
C90	C	1.600764	0.418331	0.851391
C91	C	0.935466	-0.166057	0.178034
C92	C	1.268800	0.167277	0.511368
C93	C	1.602133	0.500610	0.844701
C94	C	0.929285	-0.537903	0.125585
C95	C	1.262619	-0.204570	0.458918
C96	C	1.595952	0.128763	0.792251
C97	C	0.927918	-0.620188	0.132269
C98	C	1.261252	-0.286855	0.465602
C99	C	1.594585	0.046478	0.798935
C100	C	0.927940	-0.620178	-0.041803
C101	C	1.261274	-0.286845	0.291530
C102	C	1.594607	0.046489	0.624864
C103	C	0.929315	-0.537898	-0.048485
C104	C	1.262648	-0.204565	0.284849
C105	C	1.595981	0.128768	0.618182
C106	C	0.929982	-0.496765	0.035208
C107	C	1.263315	-0.163431	0.368542
C108	C	1.596649	0.169902	0.701875
C109	C	0.932022	-0.373579	0.107871
C110	C	1.265356	-0.040245	0.441204
C111	C	1.598689	0.293088	0.774537
C112	C	0.931379	-0.412662	0.028368
C113	C	1.264713	-0.079329	0.361701
C114	C	1.598046	0.254004	0.695034
C115	C	1.075933	0.100955	0.080523
C116	C	1.409266	0.434288	0.413856
C117	C	1.742600	0.767621	0.747189
C118	C	1.163500	0.102410	0.087629
C119	C	1.496833	0.435743	0.420963
C120	C	1.830167	0.769077	0.754296
C121	C	0.925786	0.251109	0.055704
C122	C	1.259120	0.584442	0.389037
C123	C	1.592453	0.917776	0.722370
C124	C	0.927244	0.338678	0.048581
C125	C	1.260578	0.672011	0.381915
C126	C	1.593911	1.005344	0.715248
N127	N	0.931687	0.106876	0.316867
N128	N	1.265020	0.440209	0.650200
N129	N	1.598353	0.773542	0.983533
N130	N	0.931734	0.106878	-0.180623
N131	N	1.265067	0.440212	0.152710
N132	N	1.598400	0.773545	0.486043
C133	C	0.878029	0.160551	0.760265
C134	C	1.211362	0.493884	1.093598
C135	C	1.544696	0.827217	1.426931
C136	C	0.985429	0.053207	0.777983
C137	C	1.318762	0.386540	1.111317
C138	C	1.652096	0.719874	1.444650
C139	C	0.985420	0.053204	0.677487
C140	C	1.318753	0.386538	1.010820
C141	C	1.652086	0.719871	1.344154
C142	C	0.931715	0.106877	0.618375
C143	C	1.265048	0.440210	0.951708
C144	C	1.598381	0.773543	1.285041
C145	C	0.878019	0.160551	0.659759
C146	C	1.211353	0.493885	0.993092
C147	C	1.544686	0.827218	1.326425
C148	C	1.039119	-0.000464	0.636095
C149	C	1.372453	0.332869	0.969429
C150	C	1.705786	0.666203	1.302762
C151	C	1.039113	-0.000468	0.535593
C152	C	1.372446	0.332865	0.868926
C153	C	1.705779	0.666199	1.202260
C154	C	0.985403	0.053201	0.476479
C155	C	1.318737	0.386534	0.809812
C156	C	1.652070	0.719868	1.143146
C157	C	0.931705	0.106877	0.517869
C158	C	1.265039	0.440211	0.851202
C159	C	1.598372	0.773544	1.184535
C160	C	0.878001	0.160550	0.458756
C161	C	1.211334	0.493883	0.792090
C162	C	1.544667	0.827216	1.125423
C163	C	0.824298	0.214223	0.500144
C164	C	1.157631	0.547556	0.833478
C165	C	1.490965	0.880890	1.166811
C166	C	0.824310	0.214221	0.600644
C167	C	1.157644	0.547554	0.933978
C168	C	1.490977	0.880887	1.267311
C169	C	0.985391	0.053203	0.375979
C170	C	1.318725	0.386537	0.709312
C171	C	1.652058	0.719870	1.042646
C172	C	0.877991	0.160550	0.358251
C173	C	1.211324	0.493884	0.691584
C174	C	1.544658	0.827217	1.024917
H175	H	0.542982	0.108716	0.193744
H176	H	0.876315	0.442049	0.527078
H177	H	1.209648	0.775382	0.860411
F178	F	0.330662	0.105193	0.280901
F179	F	0.663995	0.438526	0.614235
F180	F	0.997329	0.771859	0.947568
H181	H	0.171110	0.102540	0.246158
H182	H	0.504443	0.435874	0.579491
H183	H	0.837777	0.769207	0.912825
F184	F	1.096278	-0.057579	0.699006
F185	F	1.429611	0.275755	1.032339
F186	F	1.762945	0.609088	1.365672
F187	F	0.767148	0.271348	0.437222
F188	F	1.100481	0.604681	0.770556
F189	F	1.433814	0.938014	1.103889
H190	H	0.417777	0.106635	-0.045215
H191	H	0.751111	0.439968	0.288118
H192	H	1.084444	0.773301	0.621451
H193	H	0.445647	0.107112	0.181457
H194	H	0.778980	0.440445	0.514790
H195	H	1.112314	0.773779	0.848123
F196	F	1.096265	-0.057592	0.491552
F197	F	1.429598	0.275742	0.824885
F198	F	1.762931	0.609075	1.158219
H199	H	0.543038	0.108734	-0.122068
H200	H	0.876372	0.442067	0.211265
H201	H	1.209705	0.775401	0.544599
H202	H	0.927348	-0.653685	0.205868
H203	H	1.260681	-0.320352	0.539201
H204	H	1.594015	0.012981	0.872535
F205	F	0.933404	-0.292105	-0.078418
F206	F	1.266738	0.041228	0.254915
F207	F	1.600071	0.374561	0.588249
H208	H	0.927396	-0.653678	-0.109941
H209	H	1.260729	-0.320344	0.223393
H210	H	1.594062	0.012989	0.556726
F211	F	0.929985	-0.494135	0.214658
F212	F	1.263319	-0.160802	0.547991
F213	F	1.596652	0.172531	0.881325
F214	F	0.933348	-0.292125	0.280911
F215	F	1.266682	0.041208	0.614244
F216	F	1.600015	0.374541	0.947577
F217	F	1.042588	-0.003908	0.840894
F218	F	1.375921	0.329426	1.174227
F219	F	1.709254	0.662759	1.507560
F220	F	0.820874	0.217668	0.804310
F221	F	1.154208	0.551002	1.137644
F222	F	1.487541	0.884335	1.470977
F223	F	1.042546	-0.003911	0.331936
F224	F	1.375879	0.329422	0.665270
F225	F	1.709213	0.662755	0.998603
H226	H	0.320439	0.105015	-0.057500
H227	H	0.653773	0.438348	0.275833
H228	H	0.987106	0.771681	0.609167
F229	F	0.936241	-0.122270	-0.092227
F230	F	1.269574	0.211063	0.241106
F231	F	1.602908	0.544396	0.574440
F232	F	0.702596	0.111395	-0.130844
F233	F	1.035930	0.444728	0.202490
F234	F	1.369263	0.778061	0.535823
H235	H	0.171179	0.102540	-0.069651
H236	H	0.504513	0.435873	0.263683
H237	H	0.837846	0.769207	0.597016
H238	H	0.692237	0.111231	0.205889
H239	H	1.025570	0.444565	0.539222
H240	H	1.358904	0.777898	0.872555
H241	H	0.931459	-0.407088	0.181456
H242	H	1.264792	-0.073755	0.514790
H243	H	1.598125	0.259579	0.848123
F244	F	0.930056	-0.494115	-0.144676
F245	F	1.263390	-0.160782	0.188657
F246	F	1.596723	0.172551	0.521990
F247	F	0.820826	0.217674	0.295346
F248	F	1.154159	0.551007	0.628679
F249	F	1.487493	0.884340	0.962012
F250	F	0.936183	-0.122279	0.267106
F251	F	1.269516	0.211055	0.600439
F252	F	1.602849	0.544388	0.933773
F253	F	0.767162	0.271341	0.644696
F254	F	1.100495	0.604674	0.978030
F255	F	1.433829	0.938007	1.311363
F256	F	0.932121	-0.368872	-0.067815
F257	F	1.265455	-0.035539	0.265518
F258	F	1.598788	0.297795	0.598851
