data_functionalizedCrystal
_audit_creation_method	'MofGen! by Chris Wilmer'
_symmetry_space_group_name_H-M	'P1'
_symmetry_Int_Tables_number	1
_symmetry_cell_setting	triclinic
loop_
_symmetry_equiv_pos_as_xyz
  x,y,z
_cell_length_a	18.050589
_cell_length_b	18.215407
_cell_length_c	18.215407
_cell_angle_alpha	89.992262
_cell_angle_beta	90.004591
_cell_angle_gamma	89.976159
loop_
_atom_site_label
_atom_site_type_symbol
_atom_site_fract_x
_atom_site_fract_y
_atom_site_fract_z
Zn1	Zn	-0.295893	-1.124982	0.416097
Zn2	Zn	0.037440	-0.791649	0.749431
Zn3	Zn	0.370773	-0.458315	1.082764
Zn4	Zn	-0.420047	-1.124905	0.293041
Zn5	Zn	-0.086714	-0.791571	0.626374
Zn6	Zn	0.246620	-0.458238	0.959707
Zn7	Zn	-0.295866	-1.001936	0.293049
Zn8	Zn	0.037467	-0.668603	0.626383
Zn9	Zn	0.370801	-0.335269	0.959716
Zn10	Zn	-0.420036	-1.001873	0.416070
Zn11	Zn	-0.086703	-0.668540	0.749403
Zn12	Zn	0.246630	-0.335207	1.082736
O13	O	-0.357961	-1.063424	0.354564
O14	O	-0.024627	-0.730091	0.687898
O15	O	0.308706	-0.396757	1.021231
O16	O	-0.312378	-1.227956	0.399782
O17	O	0.020955	-0.894623	0.733115
O18	O	0.354288	-0.561289	1.066448
O19	O	-0.403567	-1.108587	0.190057
O20	O	-0.070234	-0.775253	0.523391
O21	O	0.263100	-0.441920	0.856724
O22	O	-0.191945	-1.018317	0.309387
O23	O	0.141388	-0.684984	0.642720
O24	O	0.474722	-0.351650	0.976054
O25	O	-0.403594	-1.227899	0.309372
O26	O	-0.070260	-0.894566	0.642706
O27	O	0.263073	-0.561233	0.976039
O28	O	-0.191965	-1.108718	0.399790
O29	O	0.141368	-0.775385	0.733123
O30	O	0.474702	-0.442052	1.066457
O31	O	-0.312332	-1.018242	0.190064
O32	O	0.021002	-0.684909	0.523397
O33	O	0.354335	-0.351575	0.856731
O34	O	-0.312321	-0.898943	0.309360
O35	O	0.021012	-0.565610	0.642694
O36	O	0.354345	-0.232277	0.976027
O37	O	-0.403576	-1.018210	0.519058
O38	O	-0.070242	-0.684876	0.852391
O39	O	0.263091	-0.351543	1.185724
O40	O	-0.403549	-0.898897	0.399743
O41	O	-0.070216	-0.565564	0.733076
O42	O	0.263118	-0.232231	1.066410
O43	O	-0.312368	-1.108657	0.519078
O44	O	0.020965	-0.775324	0.852411
O45	O	0.354299	-0.441991	1.185745
O46	O	-0.523970	-1.108526	0.309345
O47	O	-0.190637	-0.775192	0.642679
O48	O	0.142696	-0.441859	0.976012
O49	O	-0.523962	-1.018135	0.399734
O50	O	-0.190629	-0.684802	0.733068
O51	O	0.142704	-0.351468	1.066401
C52	C	-0.357932	-0.872218	0.354550
C53	C	-0.024598	-0.538884	0.687883
C54	C	0.308735	-0.205551	1.021217
C55	C	-0.357937	-0.790419	0.354561
C56	C	-0.024604	-0.457085	0.687895
C57	C	0.308730	-0.123752	1.021228
C58	C	-0.310533	-0.602253	0.401711
C59	C	0.022800	-0.268920	0.735044
C60	C	0.356134	0.064413	1.068377
C61	C	-0.310537	-0.525395	0.401712
C62	C	0.022796	-0.192061	0.735046
C63	C	0.356130	0.141272	1.068379
C64	C	-0.405377	-0.525347	0.307424
C65	C	-0.072044	-0.192013	0.640757
C66	C	0.261290	0.141320	0.974090
C67	C	-0.405369	-0.602204	0.307419
C68	C	-0.072035	-0.268871	0.640752
C69	C	0.261298	0.064463	0.974085
C70	C	-0.357948	-0.640655	0.354566
C71	C	-0.024615	-0.307322	0.687900
C72	C	0.308719	0.026011	1.021233
C73	C	-0.357960	-0.486939	0.354573
C74	C	-0.024627	-0.153606	0.687907
C75	C	0.308707	0.179727	1.021240
C76	C	-0.357965	-0.403606	0.354575
C77	C	-0.024631	-0.070272	0.687908
C78	C	0.308702	0.263061	1.021242
C79	C	-0.357942	-0.723994	0.354564
C80	C	-0.024609	-0.390661	0.687897
C81	C	0.308725	-0.057328	1.021230
C82	C	-0.550913	-1.063335	0.354552
C83	C	-0.217579	-0.730002	0.687885
C84	C	0.115754	-0.396668	1.021219
C85	C	-0.633459	-1.063364	0.354571
C86	C	-0.300125	-0.730031	0.687905
C87	C	0.033208	-0.396698	1.021238
C88	C	-0.832932	-1.014258	0.403708
C89	C	-0.499599	-0.680925	0.737041
C90	C	-0.166265	-0.347592	1.070375
C91	C	-0.882348	-0.996330	0.336554
C92	C	-0.549015	-0.662997	0.669888
C93	C	-0.215682	-0.329664	1.003221
C94	C	-0.784589	-1.063437	0.354581
C95	C	-0.451256	-0.730103	0.687914
C96	C	-0.117922	-0.396770	1.021248
C97	C	-0.882254	-1.081401	0.421742
C98	C	-0.548921	-0.748067	0.755076
C99	C	-0.215587	-0.414734	1.088409
C100	C	-0.930574	-1.063505	0.354596
C101	C	-0.597241	-0.730172	0.687930
C102	C	-0.263907	-0.396839	1.021263
C103	C	-0.832918	-1.045474	0.287392
C104	C	-0.499585	-0.712140	0.620725
C105	C	-0.166251	-0.378807	0.954059
C106	C	-0.832820	-1.130575	0.372625
C107	C	-0.499486	-0.797242	0.705959
C108	C	-0.166153	-0.463909	1.039292
C109	C	-0.882214	-1.112673	0.305425
C110	C	-0.548880	-0.779339	0.638759
C111	C	-0.215547	-0.446006	0.972092
C112	C	-0.700491	-1.063395	0.354573
C113	C	-0.367157	-0.730062	0.687907
C114	C	-0.033824	-0.396729	1.021240
C115	C	-1.014670	-1.063547	0.354596
C116	C	-0.681337	-0.730213	0.687930
C117	C	-0.348004	-0.396880	1.021263
C118	C	-0.164255	-1.063533	0.354593
C119	C	0.169078	-0.730200	0.687926
C120	C	0.502412	-0.396867	1.021259
C121	C	-0.081709	-1.063580	0.354605
C122	C	0.251624	-0.730246	0.687938
C123	C	0.584957	-0.396913	1.021271
C124	C	-0.357974	-1.063435	0.546517
C125	C	-0.024640	-0.730102	0.879851
C126	C	0.308693	-0.396768	1.213184
C127	C	-0.357979	-1.063440	0.628316
C128	C	-0.024646	-0.730107	0.961649
C129	C	0.308687	-0.396773	1.294983
C130	C	-0.357982	-0.255377	0.354577
C131	C	-0.024649	0.077957	0.687911
C132	C	0.308684	0.411290	1.021244
C133	C	-0.357971	-0.337176	0.354578
C134	C	-0.024637	-0.003842	0.687912
C135	C	0.308696	0.329491	1.021245
C136	C	-0.405471	-1.110471	0.893375
C137	C	-0.072138	-0.777138	1.226708
C138	C	0.261196	-0.443804	1.560041
C139	C	-0.405474	-1.110473	0.816516
C140	C	-0.072141	-0.777140	1.149849
C141	C	0.261192	-0.443806	1.483183
C142	C	-0.310476	-1.016388	0.816506
C143	C	0.022857	-0.683054	1.149839
C144	C	0.356191	-0.349721	1.483173
C145	C	-0.310477	-1.016383	0.893363
C146	C	0.022856	-0.683049	1.226697
C147	C	0.356190	-0.349716	1.560030
C148	C	-0.357973	-1.063429	0.931796
C149	C	-0.024640	-0.730095	1.265129
C150	C	0.308693	-0.396762	1.598462
C151	C	-0.357976	-1.063435	0.778080
C152	C	-0.024642	-0.730102	1.111413
C153	C	0.308691	-0.396769	1.444746
C154	C	-0.357979	-1.063437	0.694746
C155	C	-0.024646	-0.730104	1.028079
C156	C	0.308688	-0.396770	1.361413
C157	C	-0.357971	-1.063426	1.015135
C158	C	-0.024638	-0.730093	1.348468
C159	C	0.308696	-0.396760	1.681801
C160	C	-0.357967	-1.063413	1.163358
C161	C	-0.024634	-0.730079	1.496691
C162	C	0.308700	-0.396746	1.830025
C163	C	-0.357970	-1.063424	1.081559
C164	C	-0.024636	-0.730091	1.414892
C165	C	0.308697	-0.396757	1.748226
H166	H	-0.443986	-0.494030	0.269039
H167	H	-0.110653	-0.160697	0.602372
H168	H	0.222681	0.172637	0.935705
H169	H	-0.271805	-0.978086	0.785205
H170	H	0.061528	-0.644752	1.118538
H171	H	0.394861	-0.311419	1.451872
H172	H	-0.271926	-0.494131	0.440101
H173	H	0.061407	-0.160798	0.773434
H174	H	0.394741	0.172536	1.106768
O175	O	-0.451646	-1.156063	0.930790
O176	O	-0.118313	-0.822730	1.264124
O177	O	0.215020	-0.489397	1.597457
C178	C	-0.499621	-1.114137	0.975223
C179	C	-0.166288	-0.780804	1.308556
C180	C	0.167046	-0.447471	1.641889
H181	H	-0.473423	-1.058379	0.986729
H182	H	-0.140090	-0.725045	1.320062
H183	H	0.193243	-0.391712	1.653396
H184	H	-0.509576	-1.144106	1.029273
H185	H	-0.176243	-0.810773	1.362607
H186	H	0.157090	-0.477440	1.695940
H187	H	-0.554656	-1.106025	0.945596
H188	H	-0.221322	-0.772692	1.278930
H189	H	0.112011	-0.439358	1.612263
O190	O	-0.806876	-1.198233	0.390980
O191	O	-0.473542	-0.864899	0.724313
O192	O	-0.140209	-0.531566	1.057647
C193	C	-0.831983	-1.216933	0.461848
C194	C	-0.498650	-0.883600	0.795181
C195	C	-0.165316	-0.550266	1.128515
H196	H	-0.845896	-1.164765	0.493553
H197	H	-0.512563	-0.831432	0.826887
H198	H	-0.179230	-0.498099	1.160220
H199	H	-0.786740	-1.248491	0.492057
H200	H	-0.453407	-0.915157	0.825390
H201	H	-0.120074	-0.581824	1.158723
H202	H	-0.883613	-1.252664	0.457240
H203	H	-0.550280	-0.919331	0.790574
H204	H	-0.216946	-0.585997	1.123907
O205	O	-0.264264	-0.970660	0.930576
O206	O	0.069069	-0.637326	1.263910
O207	O	0.402403	-0.303993	1.597243
C208	C	-0.222351	-0.929128	0.880176
C209	C	0.110982	-0.595795	1.213509
C210	C	0.444315	-0.262462	1.546843
H211	H	-0.219778	-0.959275	0.825395
H212	H	0.113556	-0.625942	1.158728
H213	H	0.446889	-0.292608	1.492062
H214	H	-0.163839	-0.921305	0.902390
H215	H	0.169494	-0.587971	1.235724
H216	H	0.502827	-0.254638	1.569057
H217	H	-0.249543	-0.873223	0.871988
H218	H	0.083790	-0.539890	1.205322
H219	H	0.417124	-0.206556	1.538655
H220	H	-0.903717	-1.154291	0.263839
H221	H	-0.570383	-0.820957	0.597172
H222	H	-0.237050	-0.487624	0.930506
O223	O	-0.807144	-0.964475	0.453118
O224	O	-0.473810	-0.631141	0.786451
O225	O	-0.140477	-0.297808	1.119784
C226	C	-0.832400	-0.893801	0.433831
C227	C	-0.499067	-0.560467	0.767164
C228	C	-0.165733	-0.227134	1.100497
H229	H	-0.846266	-0.892465	0.372787
H230	H	-0.512933	-0.559132	0.706121
H231	H	-0.179600	-0.225798	1.039454
H232	H	-0.787265	-0.851787	0.446063
H233	H	-0.453932	-0.518454	0.779396
H234	H	-0.120598	-0.185120	1.112730
H235	H	-0.884089	-0.880000	0.467044
H236	H	-0.550756	-0.546667	0.800378
H237	H	-0.217423	-0.213333	1.133711
O238	O	-0.264398	-0.639492	0.447528
O239	O	0.068936	-0.306159	0.780862
O240	O	0.402269	0.027175	1.114195
C241	C	-0.222563	-0.589112	0.489152
C242	C	0.110770	-0.255779	0.822485
C243	C	0.444104	0.077555	1.155818
H244	H	-0.219949	-0.534321	0.459014
H245	H	0.113384	-0.200988	0.792347
H246	H	0.446718	0.132345	1.125681
H247	H	-0.164060	-0.611338	0.497098
H248	H	0.169273	-0.278005	0.830432
H249	H	0.502606	0.055329	1.163765
H250	H	-0.249849	-0.580939	0.545000
H251	H	0.083484	-0.247605	0.878333
H252	H	0.416818	0.085728	1.211666
O253	O	-0.451501	-0.639399	0.261597
O254	O	-0.118168	-0.306065	0.594930
O255	O	0.215166	0.027268	0.928264
C256	C	-0.493349	-0.588982	0.219976
C257	C	-0.160016	-0.255648	0.553309
C258	C	0.173318	0.077685	0.886643
H259	H	-0.495978	-0.534199	0.250117
H260	H	-0.162645	-0.200866	0.583450
H261	H	0.170688	0.132467	0.916784
H262	H	-0.551845	-0.611172	0.212027
H263	H	-0.218512	-0.277839	0.545361
H264	H	0.114821	0.055494	0.878694
H265	H	-0.466064	-0.580805	0.164129
H266	H	-0.132731	-0.247471	0.497462
H267	H	0.200602	0.085862	0.830796
H268	H	-0.904120	-0.939586	0.321306
H269	H	-0.570787	-0.606252	0.654640
H270	H	-0.237454	-0.272919	0.987973
H271	H	-0.811337	-1.030241	0.230585
H272	H	-0.478004	-0.696908	0.563918
H273	H	-0.144670	-0.363574	0.897252
H274	H	-0.903925	-1.096568	0.478534
H275	H	-0.570591	-0.763234	0.811867
H276	H	-0.237258	-0.429901	1.145200
O277	O	-0.451636	-1.156241	0.779308
O278	O	-0.118302	-0.822908	1.112641
O279	O	0.215031	-0.489574	1.445975
C280	C	-0.493568	-1.197746	0.829714
C281	C	-0.160235	-0.864413	1.163047
C282	C	0.173098	-0.531080	1.496380
H283	H	-0.463148	-1.200306	0.884502
H284	H	-0.129814	-0.866973	1.217835
H285	H	0.203519	-0.533639	1.551169
H286	H	-0.501495	-1.255727	0.807517
H287	H	-0.168161	-0.922394	1.140851
H288	H	0.165172	-0.589061	1.474184
H289	H	-0.549970	-1.170770	0.837880
H290	H	-0.216636	-0.837437	1.171214
H291	H	0.116697	-0.504103	1.504547
