data_functionalizedCrystal
_audit_creation_method	'MofGen! by Chris Wilmer'
_symmetry_space_group_name_H-M	'P1'
_symmetry_Int_Tables_number	1
_symmetry_cell_setting	triclinic
loop_
_symmetry_equiv_pos_as_xyz
  x,y,z
_cell_length_a	10.654559
_cell_length_b	16.974813
_cell_length_c	16.053802
_cell_angle_alpha	88.912550
_cell_angle_beta	87.393561
_cell_angle_gamma	83.940827
loop_
_atom_site_label
_atom_site_type_symbol
_atom_site_fract_x
_atom_site_fract_y
_atom_site_fract_z
O1	O	1.671964	0.107445	-0.076692
O2	O	1.306377	0.117985	-0.077405
O3	O	1.498772	-0.001964	-0.069296
O4	O	1.479570	0.227394	-0.084800
O5	O	1.488182	0.004611	0.069118
O6	O	1.295787	0.124559	0.061010
O7	O	1.661374	0.114020	0.061723
Zn8	Zn	1.476900	0.120334	0.083342
Zn9	Zn	1.490852	0.111671	-0.099025
O10	O	1.468980	0.233969	0.053614
C11	C	1.254293	0.120497	-0.008145
C12	C	1.114874	0.118177	-0.007988
C13	C	1.064095	0.045373	-0.003065
C14	C	0.933096	0.043198	-0.002924
C15	C	0.903666	0.186637	-0.012627
C16	C	1.034663	0.188811	-0.012774
C17	C	1.081085	-0.037441	0.002541
C18	C	0.950086	-0.039616	0.002682
C19	C	1.492550	-0.028045	0.001895
C20	C	1.489772	-0.115554	0.007805
C21	C	1.494243	-0.160245	-0.064868
C22	C	1.491625	-0.242468	-0.059312
C23	C	1.484545	-0.279999	0.018918
C24	C	1.480070	-0.235301	0.091595
C25	C	1.482680	-0.153079	0.086039
C26	C	1.476115	-0.525522	0.043627
C27	C	1.473510	-0.607751	0.049178
C28	C	1.485062	-0.614911	-0.101730
C29	C	1.487678	-0.532688	-0.107279
C30	C	1.483196	-0.487997	-0.034602
N31	N	1.481873	-0.364044	0.024598
N32	N	1.485860	-0.403952	-0.040283
C33	C	1.713459	0.111508	-0.007539
C34	C	1.852878	0.113828	-0.007701
C35	C	1.475202	0.260050	-0.017579
C36	C	1.477980	0.347558	-0.023494
N37	N	1.467386	0.126245	0.207803
N38	N	1.500375	0.105753	-0.223485
C39	C	1.549280	0.075226	0.254946
C40	C	1.542637	0.079368	0.342073
C41	C	1.454106	0.134535	0.382055
C42	C	1.372203	0.185557	0.334906
C43	C	1.378841	0.181410	0.247781
C44	C	1.425111	0.152628	0.642241
C45	C	1.418481	0.156773	0.729372
C46	C	1.588915	0.050583	0.736534
C47	C	1.595550	0.046444	0.649407
C48	C	1.513643	0.097463	0.602265
N49	N	1.447316	0.138773	0.471112
N50	N	1.520428	0.093221	0.513210
H51	H	1.127590	-0.071401	-0.053272
Cl52	Cl	1.645590	0.015227	0.401340
H53	H	0.916623	-0.069247	0.062798
Cl54	Cl	0.802821	0.275430	-0.018645
H55	H	1.621378	0.030306	0.222399
Cl56	Cl	1.275878	0.245550	0.188516
H57	H	1.122415	-0.059621	0.063998
Cl58	Cl	1.098497	0.280339	-0.018983
H59	H	0.919304	-0.068832	-0.055300
Cl60	Cl	1.471155	-0.282482	0.189941
Cl61	Cl	1.322149	0.216768	0.582984
Cl62	Cl	1.503152	-0.113072	-0.163218
H63	H	1.495271	-0.278853	-0.118489
Cl64	Cl	1.477057	-0.096895	0.177403
Cl65	Cl	1.307175	0.226134	0.779629
H66	H	1.493444	-0.502136	-0.170982
Cl67	Cl	1.464617	-0.654932	0.147531
H68	H	1.488708	-0.651307	-0.160900
H69	H	1.472491	-0.489146	0.102807
Cl70	Cl	1.706850	-0.022909	0.599143
H71	H	1.655599	0.009044	0.774924
Cl72	Cl	1.260898	0.254908	0.385167
