data_functionalizedCrystal
_audit_creation_method	'MofGen! by Chris Wilmer'
_symmetry_space_group_name_H-M	'P1'
_symmetry_Int_Tables_number	1
_symmetry_cell_setting	triclinic
loop_
_symmetry_equiv_pos_as_xyz
  x,y,z
_cell_length_a	19.288874
_cell_length_b	19.288864
_cell_length_c	14.048226
_cell_angle_alpha	89.979690
_cell_angle_beta	89.993046
_cell_angle_gamma	83.138236
loop_
_atom_site_label
_atom_site_type_symbol
_atom_site_fract_x
_atom_site_fract_y
_atom_site_fract_z
O1	O	0.086649	0.921353	-0.079467
O2	O	0.419982	1.254686	0.253866
O3	O	0.753315	1.588020	0.587200
O4	O	0.098337	0.719093	-0.079402
O5	O	0.431671	1.052426	0.253931
O6	O	0.765004	1.385760	0.587265
O7	O	-0.008637	0.826064	-0.079429
O8	O	0.324697	1.159397	0.253904
O9	O	0.658030	1.492731	0.587238
O10	O	0.193623	0.814382	-0.079440
O11	O	0.526956	1.147716	0.253893
O12	O	0.860290	1.481049	0.587227
O13	O	-0.008643	0.826051	0.078892
O14	O	0.324690	1.159384	0.412226
O15	O	0.658024	1.492718	0.745559
O16	O	0.098331	0.719080	0.078919
O17	O	0.431665	1.052413	0.412253
O18	O	0.764998	1.385747	0.745586
O19	O	0.086643	0.921340	0.078854
O20	O	0.419976	1.254674	0.412188
O21	O	0.753309	1.588007	0.745521
Zn22	Zn	0.092486	0.820208	0.104024
Zn23	Zn	0.425819	1.153542	0.437357
Zn24	Zn	0.759153	1.486875	0.770690
Zn25	Zn	0.092494	0.820225	-0.104571
Zn26	Zn	0.425827	1.153558	0.228762
Zn27	Zn	0.759161	1.486892	0.562095
O28	O	0.193617	0.814369	0.078881
O29	O	0.526950	1.147703	0.412215
O30	O	0.860283	1.481036	0.745548
C31	C	-0.034516	0.825680	-0.000268
C32	C	0.298817	1.159014	0.333065
C33	C	0.632150	1.492347	0.666399
C34	C	-0.111619	0.824549	-0.000268
C35	C	0.221714	1.157882	0.333065
C36	C	0.555047	1.491215	0.666399
C37	C	0.097958	0.693210	-0.000233
C38	C	0.431292	1.026543	0.333100
C39	C	0.764625	1.359877	0.666434
C40	C	0.096829	0.616106	-0.000208
C41	C	0.430163	0.949440	0.333125
C42	C	0.763496	1.282773	0.666459
C43	C	-0.667192	0.816416	0.086012
C44	C	-0.333859	1.149749	0.419345
C45	C	-0.000525	1.483083	0.752679
C46	C	-0.594744	0.817472	0.086017
C47	C	-0.261411	1.150805	0.419350
C48	C	0.071922	1.484139	0.752684
C49	C	-0.558510	0.818010	-0.000283
C50	C	-0.225176	1.151343	0.333050
C51	C	0.108157	1.484677	0.666384
C52	C	-0.594727	0.817474	-0.086594
C53	C	-0.261393	1.150808	0.246739
C54	C	0.071940	1.484141	0.580072
C55	C	-0.667172	0.816412	-0.086597
C56	C	-0.333839	1.149745	0.246737
C57	C	-0.000505	1.483078	0.580070
C58	C	-0.449176	0.860381	-0.066412
C59	C	-0.115842	1.193714	0.266922
C60	C	0.217491	1.527047	0.600255
C61	C	-0.376732	0.861448	-0.066406
C62	C	-0.043399	1.194781	0.266928
C63	C	0.289934	1.528114	0.600261
C64	C	-0.335064	0.821285	-0.000279
C65	C	-0.001730	1.154618	0.333054
C66	C	0.331603	1.487952	0.666387
C67	C	-0.365849	0.780064	0.065857
C68	C	-0.032515	1.113397	0.399190
C69	C	0.300818	1.446730	0.732524
C70	C	-0.438294	0.779001	0.065855
C71	C	-0.104961	1.112334	0.399188
C72	C	0.228373	1.445668	0.732521
C73	C	-0.479955	0.819162	-0.000290
C74	C	-0.146622	1.152495	0.333043
C75	C	0.186712	1.485829	0.666376
C76	C	-0.220299	0.822960	0.086032
C77	C	0.113035	1.156294	0.419365
C78	C	0.446368	1.489627	0.752698
C79	C	-0.147849	0.824012	0.086033
C80	C	0.185484	1.157345	0.419366
C81	C	0.518818	1.490678	0.752700
C82	C	-0.147834	0.824021	-0.086581
C83	C	0.185500	1.157355	0.246752
C84	C	0.518833	1.490688	0.580086
C85	C	-0.220281	0.822963	-0.086580
C86	C	0.113052	1.156296	0.246754
C87	C	0.446386	1.489630	0.580087
C88	C	-0.256510	0.822436	-0.000271
C89	C	0.076824	1.155769	0.333063
C90	C	0.410157	1.489102	0.666396
C91	C	0.159597	0.571412	-0.000226
C92	C	0.492930	0.904746	0.333107
C93	C	0.826263	1.238079	0.666440
C94	C	0.158536	0.498965	-0.000237
C95	C	0.491869	0.832299	0.333096
C96	C	0.825203	1.165632	0.666430
C97	C	0.094704	0.471215	-0.000248
C98	C	0.428038	0.804549	0.333085
C99	C	0.761371	1.137882	0.666419
C100	C	0.031928	0.515919	-0.000224
C101	C	0.365262	0.849253	0.333109
C102	C	0.698595	1.182586	0.666443
C103	C	0.032991	0.588365	-0.000204
C104	C	0.366324	0.921698	0.333129
C105	C	0.699658	1.255032	0.666463
C106	C	0.044528	0.362956	-0.055744
C107	C	0.377861	0.696289	0.277589
C108	C	0.711194	1.029623	0.610922
C109	C	0.043468	0.290512	-0.055770
C110	C	0.376801	0.623845	0.277563
C111	C	0.710134	0.957178	0.610897
C112	C	0.091425	0.247770	-0.000305
C113	C	0.424758	0.581103	0.333028
C114	C	0.758091	0.914436	0.666361
C115	C	0.140453	0.277480	0.055173
C116	C	0.473787	0.610813	0.388506
C117	C	0.807120	0.944146	0.721840
C118	C	0.141516	0.349925	0.055193
C119	C	0.474849	0.683259	0.388526
C120	C	0.808182	1.016592	0.721860
C121	C	0.093545	0.392661	-0.000269
C122	C	0.426878	0.725995	0.333064
C123	C	0.760212	1.059328	0.666398
C124	C	0.153046	0.124520	-0.000334
C125	C	0.486380	0.457853	0.332999
C126	C	0.819713	0.791186	0.666333
C127	C	0.151983	0.052072	-0.000338
C128	C	0.485316	0.385405	0.332995
C129	C	0.818650	0.718738	0.666328
C130	C	0.025374	0.069027	-0.000335
C131	C	0.358707	0.402361	0.332998
C132	C	0.692040	0.735694	0.666331
C133	C	0.026439	0.141474	-0.000321
C134	C	0.359772	0.474807	0.333012
C135	C	0.693105	0.808140	0.666346
C136	C	0.090277	0.169215	-0.000325
C137	C	0.423610	0.502549	0.333008
C138	C	0.756944	0.835882	0.666342
C139	C	0.219496	0.814753	-0.000281
C140	C	0.552829	1.148086	0.333052
C141	C	0.886163	1.481419	0.666385
C142	C	0.296599	0.815884	-0.000288
C143	C	0.629933	1.149218	0.333046
C144	C	0.963266	1.482551	0.666379
C145	C	0.087022	0.947223	-0.000317
C146	C	0.420355	1.280557	0.333017
C147	C	0.753688	1.613890	0.666350
C148	C	0.088151	1.024327	-0.000348
C149	C	0.421484	1.357660	0.332985
C150	C	0.754817	1.690993	0.666319
N151	N	0.092480	0.820202	0.246384
N152	N	0.425813	1.153535	0.579718
N153	N	0.759146	1.486868	0.913051
N154	N	0.092495	0.820237	-0.246932
N155	N	0.425828	1.153570	0.086401
N156	N	0.759161	1.486904	0.419735
C157	C	0.045131	0.867583	0.296191
C158	C	0.378464	1.200917	0.629524
C159	C	0.711798	1.534250	0.962857
C160	C	0.045131	0.867588	0.395848
C161	C	0.378464	1.200921	0.729182
C162	C	0.711797	1.534255	1.062515
C163	C	0.092483	0.820214	0.445698
C164	C	0.425816	1.153547	0.779031
C165	C	0.759150	1.486881	1.112365
C166	C	0.139834	0.772827	0.395885
C167	C	0.473167	1.106161	0.729218
C168	C	0.806501	1.439494	1.062552
C169	C	0.139830	0.772820	0.296229
C170	C	0.473164	1.106153	0.629562
C171	C	0.806497	1.439487	0.962896
C172	C	0.139839	0.772847	0.603599
C173	C	0.473172	1.106181	0.936932
C174	C	0.806505	1.439514	1.270266
C175	C	0.139843	0.772856	0.703262
C176	C	0.473177	1.106189	1.036595
C177	C	0.806510	1.439522	1.369928
C178	C	0.045139	0.867615	0.703218
C179	C	0.378472	1.200949	1.036552
C180	C	0.711806	1.534282	1.369885
C181	C	0.045136	0.867608	0.603563
C182	C	0.378469	1.200941	0.936896
C183	C	0.711802	1.534275	1.270229
C184	C	0.092488	0.820222	0.553756
C185	C	0.425821	1.153555	0.887090
C186	C	0.759154	1.486889	1.220423
H187	H	-0.696685	0.815986	0.156292
H188	H	-0.363352	1.149319	0.489625
H189	H	-0.030018	1.482653	0.822958
H190	H	0.006583	0.906198	0.743776
H191	H	0.339917	1.239532	1.077110
H192	H	0.673250	1.572865	1.410443
H193	H	0.178387	0.734251	0.436478
H194	H	0.511720	1.067584	0.769812
H195	H	0.845053	1.400918	1.103145
H196	H	0.205027	0.147108	-0.000323
H197	H	0.538361	0.480441	0.333010
H198	H	0.871694	0.813775	0.666344
H199	H	0.203098	0.015682	-0.000348
H200	H	0.536432	0.349015	0.332985
H201	H	0.869765	0.682348	0.666319
H202	H	0.006581	0.906187	0.562975
H203	H	0.339915	1.239520	0.896308
H204	H	0.673248	1.572853	1.229642
Br205	Br	-0.023061	0.250197	-0.131074
Br206	Br	0.310272	0.583530	0.202259
Br207	Br	0.643605	0.916864	0.535593
H208	H	0.005474	0.397752	-0.100916
H209	H	0.338807	0.731085	0.232417
H210	H	0.672140	1.064418	0.565751
H211	H	-0.565219	0.817910	-0.156861
H212	H	-0.231886	1.151243	0.176473
H213	H	0.101447	1.484577	0.509806
Br214	Br	-0.269425	0.822246	-0.203708
Br215	Br	0.063908	1.155579	0.129625
Br216	Br	0.397241	1.488912	0.462959
Br217	Br	-0.061257	0.031375	-0.000334
Br218	Br	0.272076	0.364708	0.332999
Br219	Br	0.605410	0.698042	0.666332
H220	H	-0.118369	0.824443	0.156312
H221	H	0.214964	1.157776	0.489645
H222	H	0.548298	1.491109	0.822978
Br223	Br	-0.019132	0.931886	0.228548
Br224	Br	0.314202	1.265219	0.561881
Br225	Br	0.647535	1.598552	0.895215
Br226	Br	0.204110	0.708559	0.770908
Br227	Br	0.537443	1.041893	1.104241
Br228	Br	0.870776	1.375226	1.437575
Br229	Br	0.204088	0.708509	0.228635
Br230	Br	0.537421	1.041842	0.561968
Br231	Br	0.870754	1.375176	0.895301
H232	H	-0.696652	0.815978	-0.156875
H233	H	-0.363319	1.149311	0.176459
H234	H	-0.029986	1.482645	0.509792
H235	H	0.181434	0.374112	0.100368
H236	H	0.514768	0.707445	0.433702
H237	H	0.848101	1.040779	0.767035
Br238	Br	-0.052201	0.649026	-0.000177
Br239	Br	0.281133	0.982359	0.333156
Br240	Br	0.614466	1.315692	0.666490
H241	H	-0.463356	0.745438	0.119705
H242	H	-0.130023	1.078771	0.453039
H243	H	0.203311	1.412105	0.786372
Br244	Br	-0.545594	0.818199	0.203147
Br245	Br	-0.212260	1.151532	0.536480
Br246	Br	0.121073	1.484866	0.869813
Br247	Br	-0.309308	0.725559	0.155614
Br248	Br	0.024025	1.058892	0.488947
Br249	Br	0.357358	1.392226	0.822281
Br250	Br	-0.054701	0.478261	-0.000229
Br251	Br	0.278632	0.811595	0.333104
Br252	Br	0.611965	1.144928	0.666437
Br253	Br	0.204101	0.708533	0.536008
Br254	Br	0.537434	1.041867	0.869341
Br255	Br	0.870767	1.375200	1.202675
H256	H	-0.024674	0.177865	-0.000311
H257	H	0.308660	0.511198	0.333022
H258	H	0.641993	0.844532	0.666355
Br259	Br	0.246234	0.609059	-0.000230
Br260	Br	0.579567	0.942392	0.333103
Br261	Br	0.912901	1.275725	0.666437
H262	H	-0.249797	0.822525	0.156310
H263	H	0.083536	1.155858	0.489643
H264	H	0.416870	1.489192	0.822976
H265	H	0.006575	0.906169	0.436400
H266	H	0.339909	1.239502	0.769733
H267	H	0.673242	1.572836	1.103067
Br268	Br	0.243727	0.438297	-0.000256
Br269	Br	0.577060	0.771630	0.333077
Br270	Br	0.910393	1.104964	0.666411
H271	H	-0.118331	0.824451	-0.156848
H272	H	0.215002	1.157785	0.176485
H273	H	0.548336	1.491118	0.509818
Br274	Br	-0.334960	0.917394	-0.156155
Br275	Br	-0.001627	1.250727	0.177178
Br276	Br	0.331706	1.584061	0.510512
Br277	Br	-0.505717	0.914874	-0.156184
Br278	Br	-0.172384	1.248208	0.177150
Br279	Br	0.160950	1.581541	0.510483
H280	H	0.179504	0.242680	0.100338
H281	H	0.512837	0.576014	0.433672
H282	H	0.846171	0.909347	0.767005
