data_functionalizedCrystal
_audit_creation_method	'MofGen! by Chris Wilmer'
_symmetry_space_group_name_H-M	'P1'
_symmetry_Int_Tables_number	1
_symmetry_cell_setting	triclinic
loop_
_symmetry_equiv_pos_as_xyz
  x,y,z
_cell_length_a	13.635800
_cell_length_b	19.385979
_cell_length_c	11.102291
_cell_angle_alpha	91.929244
_cell_angle_beta	71.394248
_cell_angle_gamma	119.613837
loop_
_atom_site_label
_atom_site_type_symbol
_atom_site_fract_x
_atom_site_fract_y
_atom_site_fract_z
V1	V	-2.087176	-0.109777	0.396131
O2	O	-2.033779	0.005265	0.388722
O3	O	-2.106429	-0.217660	0.393296
O4	O	-2.075087	-0.108093	0.568955
O5	O	-2.065339	-0.105060	0.211846
V6	V	-2.321790	-0.096016	0.374105
O7	O	-2.233483	-0.139963	0.444449
O8	O	-2.400581	-0.065831	0.325787
O9	O	-2.190934	0.011866	0.376940
O10	O	-2.433885	-0.211059	0.381514
O11	O	-2.402326	-0.100733	0.558390
O12	O	-2.222276	-0.097700	0.201280
V13	V	-1.587176	-0.109777	0.396131
O14	O	-1.533779	0.005265	0.388722
O15	O	-1.606429	-0.217660	0.393296
O16	O	-1.575087	-0.108093	0.568955
O17	O	-1.565339	-0.105060	0.211846
V18	V	-1.821790	-0.096016	0.374105
O19	O	-1.733483	-0.139963	0.444449
O20	O	-1.900581	-0.065831	0.325787
O21	O	-1.690934	0.011866	0.376940
O22	O	-1.933885	-0.211059	0.381514
O23	O	-1.902326	-0.100733	0.558390
O24	O	-1.722276	-0.097700	0.201280
C25	C	-1.539108	-0.243959	0.387014
C26	C	-1.595574	-0.332155	0.385848
C27	C	-2.039108	-0.243959	0.387014
C28	C	-2.095574	-0.332155	0.385848
C29	C	-1.715262	-0.377630	0.391634
C30	C	-1.768313	-0.460500	0.390546
C31	C	-1.701673	-0.497892	0.383661
C32	C	-1.581976	-0.452410	0.377878
C33	C	-1.528929	-0.369543	0.378976
C34	C	-1.850337	-0.745295	0.379708
C35	C	-1.903394	-0.828168	0.378607
C36	C	-2.089729	-0.836252	0.391276
C37	C	-2.036670	-0.753382	0.392366
C38	C	-1.916980	-0.707909	0.386589
N39	N	-1.755897	-0.582597	0.382545
N40	N	-1.862761	-0.623206	0.387715
C41	C	-1.999127	-0.104195	0.611084
C42	C	-2.030172	-0.103532	0.752368
C43	C	-2.089927	0.038162	0.383218
C44	C	-2.023081	0.126356	0.384393
C45	C	-2.129907	-0.101601	0.159145
C46	C	-2.088480	-0.102260	0.017860
C47	C	-2.215266	-0.377618	0.391645
C48	C	-2.268341	-0.460489	0.390569
C49	C	-2.201720	-0.497895	0.383685
C50	C	-2.082019	-0.452427	0.377891
C51	C	-2.028948	-0.369558	0.378977
C52	C	-2.137892	-0.107177	0.825211
C53	C	-2.167045	-0.106538	0.957958
C54	C	-1.980749	-0.098612	0.945006
C55	C	-1.951594	-0.099245	0.812260
C56	C	-2.245451	-0.111757	0.832691
C57	C	-2.274604	-0.111118	0.965438
C58	C	-1.499127	-0.104195	0.611084
C59	C	-1.530172	-0.103532	0.752368
C60	C	-1.589927	0.038162	0.383218
C61	C	-1.523081	0.126356	0.384393
C62	C	-1.629907	-0.101601	0.159145
C63	C	-1.588480	-0.102260	0.017860
C64	C	-1.575884	0.171819	0.378599
C65	C	-1.513081	0.254690	0.379682
C66	C	-1.397479	0.292096	0.386568
C67	C	-1.344673	0.246627	0.392358
C68	C	-1.407472	0.163759	0.391266
C69	C	-1.637892	-0.107177	0.825211
C70	C	-1.667045	-0.106538	0.957958
C71	C	-1.480749	-0.098612	0.945006
C72	C	-1.451594	-0.099245	0.812260
C73	C	-1.745451	-0.111757	0.832691
C74	C	-1.774604	-0.111118	0.965438
H75	H	-1.769531	-0.347191	0.397228
H76	H	-1.916777	-0.095121	0.993787
H77	H	-1.363881	-0.096278	0.752956
H78	H	-2.239783	-0.057908	0.785658
Br79	Br	-2.305710	-0.326873	0.400997
Br80	Br	-2.127102	-0.702636	0.401650
H81	H	-2.310076	-0.170922	0.808159
H82	H	-1.250542	0.277096	0.397964
H83	H	-1.865770	-0.497523	0.395260
Br84	Br	-1.687905	-0.683591	0.371860
H85	H	-1.739783	-0.057908	0.785658
Br86	Br	-2.252161	-0.897969	0.399114
Br87	Br	-2.278135	-0.017235	1.014067
Br88	Br	-1.921713	-0.206722	1.053420
H89	H	-1.364467	0.126748	0.395996
H90	H	-1.776719	-0.054787	0.994605
H91	H	-2.244949	-0.565373	0.382802
Br92	Br	-1.991619	-0.503204	0.368546
H93	H	-2.362865	-0.168483	1.018218
H94	H	-1.849126	-0.858613	0.373030
Br95	Br	-1.732772	0.121073	0.369256
H96	H	-1.931484	-0.332547	0.374249
Br97	Br	-1.374115	-0.092795	1.026297
H98	H	-1.346356	0.359573	0.387455
Br99	Br	-1.366494	-0.307826	0.371136
Br100	Br	-1.491536	-0.503156	0.368548
Br101	Br	-2.430790	-0.522179	0.398429
H102	H	-1.810076	-0.170922	0.808159
H103	H	-1.863881	-0.096278	0.752956
Br104	Br	-1.584768	0.316379	0.371822
