data_functionalizedCrystal
_audit_creation_method	'MofGen! by Chris Wilmer'
_symmetry_space_group_name_H-M	'P1'
_symmetry_Int_Tables_number	1
_symmetry_cell_setting	triclinic
loop_
_symmetry_equiv_pos_as_xyz
  x,y,z
_cell_length_a	12.759394
_cell_length_b	12.759401
_cell_length_c	12.759393
_cell_angle_alpha	90.020120
_cell_angle_beta	89.969669
_cell_angle_gamma	89.989389
loop_
_atom_site_label
_atom_site_type_symbol
_atom_site_fract_x
_atom_site_fract_y
_atom_site_fract_z
Zn1	Zn	-0.418317	-1.606256	-0.594036
Zn2	Zn	-0.594036	-1.606150	-0.418360
Zn3	Zn	-0.418360	-1.430558	-0.418370
Zn4	Zn	-0.593943	-1.430547	-0.593996
O5	O	-0.506164	-1.518378	-0.506190
O6	O	-0.441649	-1.753263	-0.570744
O7	O	-0.570789	-1.582818	-0.271340
O8	O	-0.271333	-1.453913	-0.441694
O9	O	-0.570749	-1.753185	-0.441676
O10	O	-0.271302	-1.582998	-0.570754
O11	O	-0.441720	-1.453811	-0.271348
O12	O	-0.441630	-1.283535	-0.441655
O13	O	-0.570589	-1.453894	-0.741023
O14	O	-0.570630	-1.283527	-0.570687
O15	O	-0.441558	-1.582987	-0.741052
O16	O	-0.741045	-1.582807	-0.441637
O17	O	-0.740976	-1.453792	-0.570677
C18	C	-0.506125	-1.245410	-0.506169
C19	C	-0.506133	-1.128634	-0.506184
C20	C	-0.439035	-1.073805	-0.573493
C21	C	-0.439049	-0.964081	-0.573496
C22	C	-0.573269	-0.964024	-0.438880
C23	C	-0.573249	-1.073746	-0.438872
C24	C	-0.361547	-1.073837	-0.651216
C25	C	-0.361561	-0.964113	-0.651219
C26	C	-0.779132	-1.518316	-0.506174
C27	C	-0.895908	-1.518385	-0.506203
C28	C	-1.115350	-1.652952	-0.371978
C29	C	-1.060487	-1.720148	-0.304837
C30	C	-0.950766	-1.720094	-0.304816
C31	C	-0.895904	-1.652833	-0.371941
C32	C	-0.950767	-1.585636	-0.439082
C33	C	-1.060491	-1.585700	-0.439098
C34	C	-0.950771	-1.451188	-0.573344
C35	C	-1.060493	-1.451247	-0.573372
C36	C	-0.895910	-1.383927	-0.640469
C37	C	-0.950772	-1.316734	-0.707617
C38	C	-1.060500	-1.316793	-0.707636
C39	C	-1.115355	-1.384050	-0.640513
C40	C	-0.232131	-1.518469	-0.506230
C41	C	-0.115354	-1.518507	-0.506246
C42	C	-0.506058	-1.518451	-0.780224
C43	C	-0.506013	-1.518483	-0.897001
C44	C	-0.506191	-0.792411	-0.506206
C45	C	-0.506168	-0.909188	-0.506196
C46	C	-0.438820	-1.585710	-0.951880
C47	C	-0.438782	-1.585735	-1.061604
C48	C	-0.573139	-1.451302	-1.061560
C49	C	-0.573171	-1.451272	-0.951838
C50	C	-0.361253	-1.663328	-0.951905
C51	C	-0.361215	-1.663353	-1.061630
C52	C	-0.506194	-1.518365	-0.233223
C53	C	-0.505943	-1.518537	-0.116447
H54	H	-0.627877	-1.118383	-0.384053
H55	H	-0.390781	-1.107902	-0.728455
C56	C	-0.257094	-0.918119	-0.612043
N57	N	-0.178410	-0.883475	-0.582538
H58	H	-0.390427	-1.740600	-0.917872
H59	H	-0.627913	-0.919321	-0.384077
C60	C	-0.391145	-0.923924	-0.761095
N61	N	-0.413429	-0.893654	-0.843850
H62	H	-1.204691	-1.653013	-0.371998
C63	C	-0.251336	-1.633911	-0.911698
N64	N	-0.168549	-1.611752	-0.881415
H65	H	-0.283904	-1.634239	-1.095675
H66	H	-0.280146	-1.103604	-0.629561
H67	H	-0.383014	-1.744724	-1.091411
H68	H	-1.105168	-1.774908	-0.250183
C69	C	-0.890415	-1.794013	-0.230958
N70	N	-0.844959	-1.849690	-0.175329
H71	H	-1.204696	-1.384108	-0.640526
C72	C	-0.775208	-1.652787	-0.371925
N73	N	-0.684297	-1.652759	-0.371920
H74	H	-0.806568	-1.383884	-0.640443
C75	C	-0.890418	-1.242756	-0.781446
N76	N	-0.844955	-1.187036	-0.837058
C77	C	-1.120841	-1.242869	-0.781497
N78	N	-1.166285	-1.187188	-0.837133
H79	H	-0.627882	-1.396525	-0.907160
C80	C	-0.647007	-1.377373	-1.121892
N81	N	-0.702646	-1.321688	-1.167333
