data_functionalizedCrystal
_audit_creation_method	'MofGen! by Chris Wilmer'
_symmetry_space_group_name_H-M	'P1'
_symmetry_Int_Tables_number	1
_symmetry_cell_setting	triclinic
loop_
_symmetry_equiv_pos_as_xyz
  x,y,z
_cell_length_a	16.625547
_cell_length_b	16.625546
_cell_length_c	18.215385
_cell_angle_alpha	89.905583
_cell_angle_beta	89.930962
_cell_angle_gamma	90.022405
loop_
_atom_site_label
_atom_site_type_symbol
_atom_site_fract_x
_atom_site_fract_y
_atom_site_fract_z
Zn1	Zn	1.233033	-0.320492	-0.416191
Zn2	Zn	1.483033	-0.070492	-0.166191
Zn3	Zn	1.733033	0.179508	0.083809
Zn4	Zn	1.983033	0.429508	0.333809
Zn5	Zn	1.232832	-0.455486	-0.293122
Zn6	Zn	1.482832	-0.205486	-0.043122
Zn7	Zn	1.732832	0.044514	0.206878
Zn8	Zn	1.982832	0.294514	0.456878
Zn9	Zn	1.098090	-0.320671	-0.293129
Zn10	Zn	1.348090	-0.070671	-0.043129
Zn11	Zn	1.598090	0.179329	0.206871
Zn12	Zn	1.848090	0.429329	0.456871
Zn13	Zn	1.098165	-0.455286	-0.416138
Zn14	Zn	1.348165	-0.205286	-0.166138
Zn15	Zn	1.598165	0.044714	0.083862
Zn16	Zn	1.848165	0.294714	0.333862
O17	O	1.165530	-0.387984	-0.354645
O18	O	1.415530	-0.137984	-0.104645
O19	O	1.665530	0.112016	0.145355
O20	O	1.915530	0.362016	0.395355
O21	O	1.345838	-0.338408	-0.399885
O22	O	1.595838	-0.088408	-0.149885
O23	O	1.845838	0.161592	0.100115
O24	O	2.095838	0.411592	0.350115
O25	O	1.214843	-0.437760	-0.190138
O26	O	1.464843	-0.187760	0.059862
O27	O	1.714843	0.062240	0.309862
O28	O	1.964843	0.312240	0.559862
O29	O	1.116044	-0.207814	-0.309479
O30	O	1.366044	0.042186	-0.059479
O31	O	1.616044	0.292186	0.190521
O32	O	1.866044	0.542186	0.440521
O33	O	1.345691	-0.437587	-0.309466
O34	O	1.595691	-0.187587	-0.059466
O35	O	1.845691	0.062413	0.190534
O36	O	2.095691	0.312413	0.440534
O37	O	1.215185	-0.207683	-0.399892
O38	O	1.465185	0.042317	-0.149892
O39	O	1.715185	0.292317	0.100108
O40	O	1.965185	0.542317	0.350108
O41	O	1.115849	-0.338712	-0.190144
O42	O	1.365849	-0.088712	0.059856
O43	O	1.615849	0.161288	0.309856
O44	O	1.865849	0.411288	0.559856
O45	O	0.985268	-0.338519	-0.309428
O46	O	1.235268	-0.088519	-0.059428
O47	O	1.485268	0.161481	0.190572
O48	O	1.735268	0.411481	0.440572
O49	O	1.116171	-0.437247	-0.519130
O50	O	1.366171	-0.187247	-0.269130
O51	O	1.616171	0.062753	-0.019130
O52	O	1.866171	0.312753	0.230870
O53	O	0.985322	-0.437420	-0.399802
O54	O	1.235322	-0.187420	-0.149802
O55	O	1.485322	0.062580	0.100198
O56	O	1.735322	0.312580	0.350198
O57	O	1.215257	-0.338214	-0.519169
O58	O	1.465257	-0.088214	-0.269169
O59	O	1.715257	0.161786	-0.019169
O60	O	1.965257	0.411786	0.230831
O61	O	1.214915	-0.568292	-0.309415
O62	O	1.464915	-0.318292	-0.059415
O63	O	1.714915	-0.068292	0.190585
O64	O	1.964915	0.181708	0.440585
O65	O	1.115976	-0.568145	-0.399795
O66	O	1.365976	-0.318145	-0.149795
O67	O	1.615976	-0.068145	0.100205
O68	O	1.865976	0.181855	0.350205
C69	C	0.956039	-0.387968	-0.354610
C70	C	1.206039	-0.137968	-0.104610
C71	C	1.456039	0.112032	0.145390
C72	C	1.706039	0.362032	0.395390
C73	C	0.866418	-0.387981	-0.354613
C74	C	1.116418	-0.137981	-0.104613
C75	C	1.366418	0.112019	0.145387
C76	C	1.616418	0.362019	0.395387
C77	C	0.793635	-0.387982	-0.354622
C78	C	1.043635	-0.137982	-0.104622
C79	C	1.293635	0.112018	0.145378
C80	C	1.543635	0.362018	0.395378
C81	C	0.702327	-0.387986	-0.354640
C82	C	0.952327	-0.137986	-0.104640
C83	C	1.202327	0.112014	0.145360
C84	C	1.452327	0.362014	0.395360
C85	C	0.629551	-0.387994	-0.354659
C86	C	0.879551	-0.137994	-0.104659
C87	C	1.129551	0.112006	0.145341
C88	C	1.379551	0.362006	0.395341
C89	C	0.538236	-0.387999	-0.354677
C90	C	0.788236	-0.137999	-0.104677
C91	C	1.038236	0.112001	0.145323
C92	C	1.288236	0.362001	0.395323
C93	C	1.165454	-0.597474	-0.354614
C94	C	1.415454	-0.347474	-0.104614
C95	C	1.665454	-0.097474	0.145386
C96	C	1.915454	0.152526	0.395386
C97	C	1.165495	-0.687096	-0.354626
C98	C	1.415495	-0.437096	-0.104626
C99	C	1.665495	-0.187096	0.145374
C100	C	1.915495	0.062904	0.395374
C101	C	1.165635	-1.015271	-0.354702
C102	C	1.415635	-0.765271	-0.104702
C103	C	1.665635	-0.515271	0.145298
C104	C	1.915635	-0.265271	0.395298
C105	C	1.165594	-0.923963	-0.354683
C106	C	1.415594	-0.673963	-0.104683
C107	C	1.665594	-0.423963	0.145317
C108	C	1.915594	-0.173963	0.395317
C109	C	1.165564	-0.851186	-0.354664
C110	C	1.415564	-0.601186	-0.104664
C111	C	1.665564	-0.351186	0.145336
C112	C	1.915564	-0.101186	0.395336
C113	C	1.165524	-0.759872	-0.354645
C114	C	1.415524	-0.509872	-0.104645
C115	C	1.665524	-0.259872	0.145355
C116	C	1.915524	-0.009872	0.395355
C117	C	1.375839	-0.388000	-0.354680
C118	C	1.625839	-0.138000	-0.104680
C119	C	1.875839	0.112000	0.145320
C120	C	2.125839	0.362000	0.395320
C121	C	1.465460	-0.388007	-0.354695
C122	C	1.715460	-0.138007	-0.104695
C123	C	1.965460	0.111993	0.145305
C124	C	2.215460	0.361993	0.395305
C125	C	1.165745	-0.387688	-0.546599
C126	C	1.415745	-0.137688	-0.296599
C127	C	1.665745	0.112312	-0.046599
C128	C	1.915745	0.362312	0.203401
C129	C	1.165836	-0.387563	-0.628398
C130	C	1.415836	-0.137563	-0.378398
C131	C	1.665836	0.112437	-0.128398
C132	C	1.915836	0.362437	0.121602
C133	C	1.165628	-0.177675	-0.354692
C134	C	1.415628	0.072325	-0.104692
C135	C	1.665628	0.322325	0.145308
C136	C	1.915628	0.572325	0.395308
C137	C	1.165670	-0.088053	-0.354712
C138	C	1.415670	0.161947	-0.104712
C139	C	1.665670	0.411947	0.145288
C140	C	1.915670	0.661947	0.395288
C141	C	1.165362	-0.388219	-0.163438
C142	C	1.415362	-0.138219	0.086562
C143	C	1.665362	0.111781	0.336562
C144	C	1.915362	0.361781	0.586562
C145	C	1.165427	-0.388118	-0.081640
C146	C	1.415427	-0.138118	0.168360
C147	C	1.665427	0.111882	0.418360
C148	C	1.915427	0.361882	0.668360
C149	C	1.113685	-0.336693	0.106516
C150	C	1.363685	-0.086693	0.356516
C151	C	1.613685	0.163307	0.606516
C152	C	1.863685	0.413307	0.856516
C153	C	1.113755	-0.336597	0.183375
C154	C	1.363755	-0.086597	0.433375
C155	C	1.613755	0.163403	0.683375
C156	C	1.863755	0.413403	0.933375
C157	C	1.217584	-0.438990	0.183441
C158	C	1.467584	-0.188990	0.433441
C159	C	1.717584	0.061010	0.683441
C160	C	1.967584	0.311010	0.933441
C161	C	1.217517	-0.439081	0.106584
C162	C	1.467517	-0.189081	0.356584
C163	C	1.717517	0.060919	0.606584
C164	C	1.967517	0.310919	0.856584
C165	C	1.165563	-0.387934	0.068123
C166	C	1.415563	-0.137934	0.318123
C167	C	1.665563	0.112066	0.568123
C168	C	1.915563	0.362066	0.818123
C169	C	1.165700	-0.387747	0.221839
C170	C	1.415700	-0.137747	0.471839
C171	C	1.665700	0.112253	0.721839
C172	C	1.915700	0.362253	0.971839
C173	C	1.165777	-0.387643	0.305173
C174	C	1.415777	-0.137643	0.555173
C175	C	1.665777	0.112357	0.805173
C176	C	1.915777	0.362357	1.055173
C177	C	1.165487	-0.388037	-0.015215
C178	C	1.415487	-0.138037	0.234785
C179	C	1.665487	0.111963	0.484785
C180	C	1.915487	0.361963	0.734785
H181	H	1.071384	-0.295043	0.075204
H182	H	1.321384	-0.045043	0.325204
H183	H	1.571384	0.204957	0.575204
H184	H	1.821384	0.454957	0.825204
N185	N	1.270633	-0.491251	0.222728
N186	N	1.520633	-0.241251	0.472728
N187	N	1.770633	0.008749	0.722728
N188	N	2.020633	0.258749	0.972728
N189	N	1.265775	-0.565698	0.214336
N190	N	1.515775	-0.315698	0.464336
N191	N	1.765775	-0.065698	0.714336
N192	N	2.015775	0.184302	0.964336
H193	H	1.303240	-0.602612	0.242082
H194	H	1.553240	-0.352612	0.492082
H195	H	1.803240	-0.102612	0.742082
H196	H	2.053240	0.147388	0.992082
H197	H	1.071512	-0.294870	0.214631
H198	H	1.321512	-0.044870	0.464631
H199	H	1.571512	0.205130	0.714631
H200	H	1.821512	0.455130	0.964631
H201	H	1.259767	-0.480808	0.075323
H202	H	1.509767	-0.230808	0.325323
H203	H	1.759767	0.019192	0.575323
H204	H	2.009767	0.269192	0.825323
