data_functionalizedCrystal
_audit_creation_method	'MofGen! by Chris Wilmer'
_symmetry_space_group_name_H-M	'P1'
_symmetry_Int_Tables_number	1
_symmetry_cell_setting	triclinic
loop_
_symmetry_equiv_pos_as_xyz
  x,y,z
_cell_length_a	14.560432
_cell_length_b	23.196402
_cell_length_c	23.196401
_cell_angle_alpha	60.007332
_cell_angle_beta	90.014265
_cell_angle_gamma	60.004415
loop_
_atom_site_label
_atom_site_type_symbol
_atom_site_fract_x
_atom_site_fract_y
_atom_site_fract_z
Zr1	Zr	0.884841	0.630968	-0.075616
O2	O	0.738176	0.751232	-0.167666
O3	O	0.929788	0.510706	-0.047401
O4	O	0.929761	0.630969	-0.167667
O5	O	0.738239	0.630968	0.047471
O6	O	1.080902	0.630968	-0.167665
O7	O	0.738203	0.630969	-0.047400
O8	O	1.080949	0.415839	0.047469
O9	O	0.738191	0.846096	-0.167662
O10	O	1.061768	0.560170	-0.035363
O11	O	0.949000	0.560170	0.035437
O12	O	0.948969	0.701764	-0.106161
O13	O	0.836201	0.701764	-0.035361
Zr14	Zr	1.125950	0.630963	0.075696
Zr15	Zr	1.125893	0.630966	-0.075613
Zr16	Zr	0.884898	0.630966	0.075692
Zr17	Zr	0.884865	0.782265	-0.075611
Zr18	Zr	1.125926	0.479666	0.075691
O19	O	1.081003	0.751225	0.047481
O20	O	1.080921	0.751229	-0.167660
O21	O	0.738258	0.751229	0.047476
O22	O	1.272615	0.510699	0.167746
O23	O	1.272533	0.510703	-0.047396
O24	O	0.929870	0.510703	0.167740
O25	O	1.272552	0.630964	-0.047391
O26	O	1.081030	0.630962	0.167747
O27	O	0.929889	0.630964	0.167745
O28	O	1.272588	0.630962	0.047480
O29	O	0.929796	0.846094	-0.167659
O30	O	1.080995	0.415837	0.167739
O31	O	1.272600	0.415835	0.167742
O32	O	1.272554	0.415837	0.047472
O33	O	0.738237	0.846095	-0.047392
O34	O	0.929842	0.846093	-0.047389
O35	O	1.061822	0.560168	0.106240
O36	O	1.174590	0.560167	0.035441
O37	O	1.061791	0.701762	-0.035357
O38	O	0.949023	0.701762	0.035442
C39	C	1.005365	0.441716	0.000033
C40	C	1.005355	0.377486	0.000030
C41	C	1.088640	0.295056	0.052292
C42	C	1.088648	0.234696	0.052299
C43	C	1.005378	0.256770	0.000033
C44	C	0.922078	0.339215	-0.052234
C45	C	0.922066	0.399573	-0.052235
C46	C	0.979429	0.201184	-0.063760
C47	C	0.979448	0.140825	-0.063759
C48	C	1.005409	0.070609	0.000035
C49	C	1.031374	0.060749	0.063834
C50	C	1.031362	0.121107	0.063833
C51	C	1.005382	0.191328	0.000028
C52	C	1.088707	-0.077275	0.052309
C53	C	1.088708	-0.137634	0.052316
C54	C	0.922142	-0.033112	-0.052223
C55	C	0.922138	0.027244	-0.052224
C56	C	1.005426	0.005158	0.000041
C57	C	0.703876	0.630969	0.000035
C58	C	0.601543	0.630970	0.000033
C59	C	0.601479	0.630981	-0.104507
C60	C	0.553369	0.630990	-0.156776
C61	C	0.457220	0.630990	-0.156774
C62	C	0.409179	0.630979	-0.104495
C63	C	0.457288	0.630970	-0.052226
C64	C	0.553438	0.630973	-0.052235
C65	C	0.457357	0.630953	0.052316
C66	C	0.553502	0.630959	0.052312
C67	C	0.409317	0.630942	0.104595
C68	C	0.457421	0.630939	0.156863
C69	C	0.553576	0.630940	0.156858
C70	C	0.601612	0.630950	0.104582
C71	C	1.306915	0.630963	0.000045
C72	C	1.409248	0.630962	0.000046
C73	C	1.005323	0.630969	-0.189224
C74	C	1.005299	0.630970	-0.253459
C75	C	1.005426	0.820216	0.000047
C76	C	1.005436	0.884445	0.000049
C77	C	0.946425	0.704878	-0.320588
C78	C	0.946453	0.704879	-0.380943
C79	C	1.005341	0.630968	-0.374165
C80	C	1.064228	0.557049	-0.307024
C81	C	1.064207	0.557050	-0.246671
C82	C	0.996968	0.574342	-0.441485
C83	C	0.996981	0.574344	-0.501838
C84	C	1.005412	0.630961	-0.560313
C85	C	1.013807	0.687591	-0.558434
C86	C	1.013786	0.687592	-0.498080
C87	C	1.005371	0.630958	-0.439604
C88	C	0.946566	0.704876	-0.692889
C89	C	0.946602	0.704874	-0.753243
C90	C	1.064370	0.557042	-0.679322
C91	C	1.064341	0.557046	-0.618970
C92	C	1.005432	0.630966	-0.625758
C93	C	1.005468	0.630963	0.189304
C94	C	1.005492	0.630962	0.253539
C95	C	1.306885	0.441713	0.000038
C96	C	1.409207	0.377482	0.000037
C97	C	1.005437	0.441713	0.189297
C98	C	1.005451	0.377482	0.253529
C99	C	1.306957	0.441710	0.189302
C100	C	1.409304	0.377478	0.253536
C101	C	0.703834	0.820222	-0.189222
C102	C	0.601487	0.884453	-0.253456
C103	C	0.703906	0.820219	0.000042
C104	C	0.601584	0.884450	0.000043
C105	C	1.005354	0.820219	-0.189217
C106	C	1.005340	0.884449	-0.253450
C107	C	1.398367	0.347320	-0.036928
C108	C	1.494501	0.286977	-0.036943
C109	C	1.601474	0.256793	0.000012
C110	C	1.612312	0.286961	0.036978
C111	C	1.516179	0.347307	0.036989
C112	C	1.064350	0.347318	0.320658
C113	C	1.064359	0.286975	0.381017
C114	C	1.005475	0.256793	0.374245
C115	C	0.946570	0.286964	0.307109
C116	C	0.946555	0.347310	0.246752
C117	C	1.516241	0.347314	0.246744
C118	C	1.612416	0.286970	0.307093
C119	C	1.601652	0.256787	0.374233
C120	C	1.494704	0.286957	0.381023
C121	C	1.398531	0.347304	0.320675
C122	C	0.494550	0.914625	-0.246664
C123	C	0.398375	0.974988	-0.307013
C124	C	0.409139	1.005174	-0.374153
C125	C	0.516087	0.975000	-0.380943
C126	C	0.612260	0.914643	-0.320595
C127	C	0.612424	0.914618	0.037002
C128	C	0.516290	0.974978	0.037000
C129	C	0.409317	1.005164	0.000043
C130	C	0.398479	0.974993	-0.036921
C131	C	0.494612	0.914638	-0.036923
C132	C	1.064235	0.914612	-0.246655
C133	C	1.064243	0.974955	-0.307002
C134	C	1.005350	1.005139	-0.374143
C135	C	0.946453	0.974971	-0.380936
C136	C	0.946452	0.914624	-0.320590
H137	H	1.156459	0.277066	0.094852
Br138	Br	0.530677	1.015974	-0.472068
Br139	Br	1.253405	0.388230	0.329905
Br140	Br	0.618573	0.630998	-0.227720
Br141	Br	0.391934	0.630992	-0.227707
Br142	Br	0.479880	0.873699	-0.087083
Br143	Br	0.253246	1.015923	-0.297781
H144	H	0.699331	0.890078	-0.326134
H145	H	0.330820	1.054321	-0.423287
Br146	Br	1.066599	0.107727	0.150411
Br147	Br	1.144171	0.873661	-0.155543
Br148	Br	0.278705	0.630959	-0.104482
Br149	Br	1.144175	1.015888	-0.297766
H150	H	0.898628	0.262381	0.301606
Br151	Br	0.278834	0.630933	0.104606
H152	H	0.699518	0.890045	0.067101
Br153	Br	0.809123	-0.003145	-0.123152
Br154	Br	1.480114	0.245985	0.472147
Br155	Br	0.731953	0.631001	-0.104525
Br156	Br	0.479910	0.873669	-0.155554
Br157	Br	0.531025	1.015910	0.087170
Br158	Br	1.530881	0.388268	0.155633
H159	H	0.854279	0.357185	-0.094789
Br160	Br	1.005362	1.087040	-0.456036
Br161	Br	0.809025	0.511451	-0.123166
Br162	Br	0.985571	0.497499	-0.504388
H163	H	0.311369	0.999580	-0.067010
H164	H	0.331049	1.054309	0.000050
Br165	Br	0.866551	0.805191	-0.472059
H166	H	1.156470	0.167569	0.094859
Br167	Br	0.866520	1.015951	-0.472062
Br168	Br	1.757545	0.246036	0.297861
Br169	Br	0.866504	0.873703	-0.329824
H170	H	1.112331	0.262417	0.435676
H171	H	1.156521	-0.095259	0.094870
Br172	Br	1.066646	-0.034554	0.150421
H173	H	1.311273	0.371895	-0.067030
Br174	Br	1.201738	-0.249512	0.123256
H175	H	0.958310	0.148859	-0.115707
Br176	Br	0.944189	0.296479	-0.150346
Br177	Br	0.392230	0.630913	0.227811
Br178	Br	0.809102	0.139121	-0.123156
Br179	Br	1.005507	0.174894	0.456167
Br180	Br	1.732185	0.174886	0.456128
H181	H	1.112151	0.496863	-0.192010
H182	H	1.525021	0.371857	0.067094
Br183	Br	0.618867	0.630918	0.227805
H184	H	1.679742	0.207654	-0.000002
H185	H	0.679898	0.630955	0.104571
Br186	Br	1.025179	0.764442	-0.495529
Br187	Br	0.866449	0.805197	-0.329802
Br188	Br	1.144279	0.388261	0.329868
Br189	Br	1.025246	0.764437	-0.637788
H190	H	0.898600	0.765066	-0.698416
Br191	Br	0.866704	0.805188	-0.844353
H192	H	1.112278	0.496862	-0.564309
Br193	Br	1.144310	0.456731	-0.670116
Br194	Br	0.866617	0.388237	0.155650
Br195	Br	0.985632	0.497446	-0.362104
H196	H	1.112176	0.496870	-0.301509
H197	H	1.485655	0.262421	-0.067045
H198	H	1.699422	0.262376	0.067066
