data_functionalizedCrystal
_audit_creation_method	'MofGen! by Chris Wilmer'
_symmetry_space_group_name_H-M	'P1'
_symmetry_Int_Tables_number	1
_symmetry_cell_setting	triclinic
loop_
_symmetry_equiv_pos_as_xyz
  x,y,z
_cell_length_a	12.759401
_cell_length_b	12.594516
_cell_length_c	12.759393
_cell_angle_alpha	90.029726
_cell_angle_beta	90.020938
_cell_angle_gamma	90.013340
loop_
_atom_site_label
_atom_site_type_symbol
_atom_site_fract_x
_atom_site_fract_y
_atom_site_fract_z
Zn1	Zn	1.606287	-0.423647	0.594026
Zn2	Zn	1.606187	-0.601663	0.418348
Zn3	Zn	1.430586	-0.423704	0.418361
Zn4	Zn	1.430587	-0.601589	0.593985
O5	O	1.518412	-0.512651	0.506180
O6	O	1.753295	-0.447269	0.570733
O7	O	1.582851	-0.578111	0.271329
O8	O	1.453935	-0.274751	0.441685
O9	O	1.753222	-0.578056	0.441664
O10	O	1.583022	-0.274709	0.570746
O11	O	1.453838	-0.447365	0.271338
O12	O	1.283565	-0.447293	0.441646
O13	O	1.453936	-0.577930	0.741012
O14	O	1.283566	-0.577985	0.570677
O15	O	1.583023	-0.447197	0.741042
O16	O	1.582852	-0.750599	0.441625
O17	O	1.453839	-0.750545	0.570665
C18	C	1.245445	-0.512638	0.506159
C19	C	1.128668	-0.512658	0.506175
C20	C	1.073834	-0.580812	0.573256
C21	C	0.964110	-0.580816	0.573277
C22	C	0.964064	-0.444509	0.439127
C23	C	1.073786	-0.444500	0.439113
C24	C	1.518363	-0.789192	0.506162
C25	C	1.518439	-0.907497	0.506189
C26	C	1.588690	-0.976741	0.436079
C27	C	1.614368	-1.047434	0.531972
C28	C	1.492893	-1.047603	0.410357
C29	C	1.544165	-0.976632	0.602133
C30	C	1.422645	-0.976795	0.480453
C31	C	1.448286	-1.047456	0.576412
C32	C	1.792445	-0.512665	0.506202
C33	C	1.909222	-0.512671	0.506211
C34	C	1.518491	-0.512549	0.780214
C35	C	1.518524	-0.512505	0.896990
C36	C	1.518489	-0.235030	0.506221
C37	C	1.518522	-0.116725	0.506239
C38	C	1.518394	-0.512676	0.233213
C39	C	1.518564	-0.512420	0.116437
C40	C	1.585744	-0.444422	0.951869
C41	C	1.585762	-0.444376	1.061594
C42	C	1.451336	-0.580506	1.061550
C43	C	1.451314	-0.580546	0.951828
H44	H	0.919469	-0.636313	0.627902
N45	N	1.716037	-1.086373	0.559307
N46	N	1.755833	-1.062340	0.645653
H47	H	1.827641	-1.089838	0.664942
N48	N	1.382657	-0.650094	0.895747
N49	N	1.382647	-0.650114	0.797781
H50	H	1.334158	-0.699226	0.758171
N51	N	1.654371	-0.374898	0.895854
N52	N	1.617407	-0.307092	0.834637
H53	H	1.665873	-0.257985	0.795078
H54	H	1.640498	-0.388934	1.106271
H55	H	1.565726	-0.945590	0.683267
H56	H	1.648109	-0.945691	0.376843
H57	H	1.118516	-0.636308	0.627865
N58	N	1.373805	-1.086154	0.650908
N59	N	1.383365	-1.063165	0.745744
H60	H	1.330766	-1.090496	0.798360
N61	N	1.129805	-0.374862	0.370603
N62	N	1.117573	-0.276657	0.377746
H63	H	1.157137	-0.227474	0.329367
H64	H	0.919365	-0.389018	0.384526
N65	N	1.382692	-0.649997	1.117583
N66	N	1.382720	-0.649954	1.215548
H67	H	1.334240	-0.699034	1.255122
H68	H	1.341623	-0.945740	0.458628
N69	N	1.465753	-1.086706	0.308660
N70	N	1.521539	-1.064055	0.231324
H71	H	1.502380	-1.091668	0.159498
