data_functionalizedCrystal
_audit_creation_method	'MofGen! by Chris Wilmer'
_symmetry_space_group_name_H-M	'P1'
_symmetry_Int_Tables_number	1
_symmetry_cell_setting	triclinic
loop_
_symmetry_equiv_pos_as_xyz
  x,y,z
_cell_length_a	10.686285
_cell_length_b	10.686154
_cell_length_c	21.395355
_cell_angle_alpha	85.656391
_cell_angle_beta	85.619443
_cell_angle_gamma	89.657472
loop_
_atom_site_label
_atom_site_type_symbol
_atom_site_fract_x
_atom_site_fract_y
_atom_site_fract_z
Zn1	Zn	-0.352285	-1.956217	-0.266492
Zn2	Zn	0.147715	-1.456217	0.233508
Zn3	Zn	-0.562032	-1.972197	-0.153142
Zn4	Zn	-0.062032	-1.472197	0.346858
Zn5	Zn	-0.368393	-1.746431	-0.169095
Zn6	Zn	0.131607	-1.246431	0.330905
Zn7	Zn	-0.578097	-1.762542	-0.265245
Zn8	Zn	-0.078097	-1.262542	0.234755
O9	O	-0.465202	-1.859347	-0.213494
O10	O	0.034798	-1.359347	0.286506
O11	O	-0.366644	-2.133875	-0.245302
O12	O	0.133356	-1.633875	0.254698
O13	O	-0.536363	-1.942194	-0.067582
O14	O	-0.036363	-1.442194	0.432418
O15	O	-0.190715	-1.760830	-0.189213
O16	O	0.309285	-1.260830	0.310787
O17	O	-0.520744	-2.145615	-0.162024
O18	O	-0.020744	-1.645615	0.337976
O19	O	-0.178880	-1.914959	-0.260770
O20	O	0.321120	-1.414959	0.239230
O21	O	-0.394097	-1.776325	-0.079302
O22	O	0.105903	-1.276325	0.420698
O23	O	-0.409675	-1.573031	-0.188004
O24	O	0.090325	-1.073031	0.311996
O25	O	-0.548124	-1.788288	-0.353087
O26	O	-0.048124	-1.288288	0.146913
O27	O	-0.563744	-1.584867	-0.258645
O28	O	-0.063744	-1.084867	0.241355
O29	O	-0.382222	-1.930581	-0.354003
O30	O	0.117778	-1.430581	0.145997
O31	O	-0.739704	-1.957815	-0.160815
O32	O	-0.239704	-1.457815	0.339185
O33	O	-0.751507	-1.803783	-0.243177
O34	O	-0.251507	-1.303783	0.256823
C35	C	-0.490201	-1.533434	-0.224921
C36	C	0.009799	-1.033434	0.275079
C37	C	-0.500927	-1.394009	-0.229823
C38	C	-0.000927	-0.894009	0.270177
C39	C	-0.791119	-1.884315	-0.200142
C40	C	-0.291119	-1.384315	0.299858
C41	C	-0.930539	-1.895112	-0.194447
C42	C	-0.430539	-1.395112	0.305553
C43	C	-0.138009	-1.834315	-0.226910
C44	C	0.361991	-1.334315	0.273090
C45	C	0.001421	-1.823648	-0.232628
C46	C	0.501421	-1.323648	0.267372
C47	C	-0.465168	-1.859449	-0.376914
C48	C	0.034832	-1.359449	0.123086
C49	C	-0.465154	-1.859493	-0.446555
C50	C	0.034846	-1.359493	0.053445
C51	C	-0.440093	-1.186531	-0.202019
C52	C	0.059907	-0.686531	0.297981
C53	C	-0.429362	-1.325955	-0.197120
C54	C	0.070638	-0.825955	0.302880
C55	C	-0.378765	-1.933581	-0.479746
C56	C	0.121235	-1.433581	0.020254
C57	C	-0.378712	-1.933575	-0.545184
C58	C	0.121288	-1.433575	-0.045184
C59	C	-0.465068	-1.859496	-0.577426
C60	C	0.034932	-1.359496	-0.077426
C61	C	-0.551463	-1.785392	-0.544227
C62	C	-0.051463	-1.285392	-0.044227
C63	C	-0.551506	-1.785391	-0.478791
C64	C	-0.051506	-1.285391	0.021209
C65	C	-0.578778	-1.858244	-0.676821
C66	C	-0.078778	-1.358244	-0.176821
C67	C	-0.578736	-1.858255	-0.742256
C68	C	-0.078736	-1.358255	-0.242256
C69	C	-0.464935	-1.859493	-0.779252
C70	C	0.035065	-1.359493	-0.279252
C71	C	-0.351170	-1.860747	-0.750806
C72	C	0.148830	-1.360747	-0.250806
C73	C	-0.351213	-1.860746	-0.685370
C74	C	0.148787	-1.360746	-0.185370
C75	C	-0.465030	-1.859489	-0.648380
C76	C	0.034970	-1.359489	-0.148380
C77	C	-0.378481	-1.933579	-0.883399
C78	C	0.121519	-1.433579	-0.383399
C79	C	-0.378425	-1.933564	-0.948838
C80	C	0.121575	-1.433564	-0.448838
C81	C	-0.551188	-1.785389	-0.947880
C82	C	-0.051188	-1.285389	-0.447880
C83	C	-0.551232	-1.785396	-0.882442
C84	C	-0.051232	-1.285396	-0.382442
C85	C	-0.464880	-1.859498	-0.850205
C86	C	0.035120	-1.359498	-0.350205
C87	C	-0.465139	-1.859310	-0.050710
C88	C	0.034861	-1.359310	0.449290
C89	C	-0.464781	-1.859483	0.018924
C90	C	0.035219	-1.359483	0.518924
H91	H	-0.950172	-1.754206	-0.269674
H92	H	-0.450172	-1.254206	0.230326
F93	F	-0.993816	-1.985871	-0.146015
F94	F	-0.493816	-1.485871	0.353985
H95	H	-0.570412	-1.345604	-0.261570
H96	H	-0.070412	-0.845604	0.238430
H97	H	-0.308449	-1.993918	-0.453503
H98	H	0.191551	-1.493918	0.046497
F99	F	-0.338554	-1.389215	-0.155619
F100	F	0.161446	-0.889215	0.344381
F101	F	-0.230044	-1.862070	-0.790175
F102	F	0.269956	-1.362070	-0.290175
H103	H	-0.621586	-1.725074	-0.855417
H104	H	-0.121586	-1.225074	-0.355417
H105	H	-0.671370	-1.857241	-0.765411
H106	H	-0.171370	-1.357241	-0.265411
H107	H	-0.308357	-1.993903	-0.572214
H108	H	0.191643	-1.493903	-0.072214
F109	F	-0.230140	-1.862074	-0.655098
F110	F	0.269860	-1.362074	-0.155098
H111	H	-0.308161	-1.993909	-0.857151
H112	H	0.191839	-1.493909	-0.357151
H113	H	-0.621772	-1.725073	-0.570483
H114	H	-0.121772	-1.225073	-0.070483
F115	F	-0.286487	-2.012439	-0.984162
F116	F	0.213513	-1.512439	-0.484162
F117	F	-0.699909	-1.856955	-0.637452
F118	F	-0.199909	-1.356955	-0.137452
F119	F	-0.643087	-1.706538	-0.982191
F120	F	-0.143087	-1.206538	-0.482191
H121	H	-0.621853	-1.725054	-0.451768
H122	H	-0.121853	-1.225054	0.048232
