data_functionalizedCrystal
_audit_creation_method	'MofGen! by Chris Wilmer'
_symmetry_space_group_name_H-M	'P1'
_symmetry_Int_Tables_number	1
_symmetry_cell_setting	triclinic
loop_
_symmetry_equiv_pos_as_xyz
  x,y,z
_cell_length_a	15.995292
_cell_length_b	15.995350
_cell_length_c	14.586319
_cell_angle_alpha	89.997955
_cell_angle_beta	90.007026
_cell_angle_gamma	83.480495
loop_
_atom_site_label
_atom_site_type_symbol
_atom_site_fract_x
_atom_site_fract_y
_atom_site_fract_z
O1	O	1.111018	0.107689	0.076261
O2	O	0.867236	0.121067	0.076256
O3	O	0.995791	-0.007511	0.076258
O4	O	0.982463	0.236267	0.076259
O5	O	0.995775	-0.007503	-0.076223
O6	O	0.867221	0.121075	-0.076224
O7	O	1.111002	0.107697	-0.076220
Cu8	Cu	0.989110	0.114386	-0.090145
Cu9	Cu	0.989129	0.114377	0.090181
O10	O	0.982448	0.236275	-0.076222
C11	C	0.836033	0.120527	0.000016
C12	C	0.743080	0.118894	0.000014
C13	C	0.405341	0.112893	0.000024
C14	C	0.428654	0.205697	0.000365
C15	C	0.525329	0.207461	0.000018
C16	C	0.572897	0.115871	0.000020
C17	C	0.543787	0.069477	-0.087051
C18	C	0.446996	0.068360	-0.087120
C19	C	0.447158	0.066456	0.086279
C20	C	0.543651	0.069896	0.087426
C21	C	0.667593	0.117549	0.000014
C22	C	0.310646	0.111212	0.000024
C23	C	0.995232	-0.038702	0.000019
C24	C	0.993580	-0.131652	0.000024
C25	C	0.987648	-0.469398	0.000021
C26	C	0.896094	-0.421945	0.000361
C27	C	0.897746	-0.325255	0.000018
C28	C	0.990591	-0.301838	0.000023
C29	C	1.035740	-0.342921	-0.087048
C30	C	1.033440	-0.439556	-0.087121
C31	C	1.035349	-0.439923	0.086278
C32	C	1.035327	-0.342978	0.087429
C33	C	0.992259	-0.207141	0.000021
C34	C	0.985983	-0.564095	0.000017
C35	C	1.142206	0.108237	0.000023
C36	C	1.235159	0.109870	0.000030
C37	C	0.983006	0.267466	0.000019
C38	C	0.984658	0.360416	0.000020
N39	N	0.989103	0.114392	-0.216977
C40	C	1.039899	0.165182	-0.451982
C41	C	1.039908	0.165176	-0.547963
C42	C	0.938345	0.063570	-0.547975
C43	C	0.938341	0.063572	-0.451996
C44	C	0.989116	0.114382	-0.404002
C45	C	0.989129	0.114375	-0.595962
C46	C	0.989138	0.114368	-0.700029
C47	C	0.989109	0.114388	-0.299928
N48	N	0.989142	0.114365	0.217013
H49	H	0.563839	0.101701	-0.151851
O50	O	0.568251	0.114643	0.172751
H51	H	0.610740	0.070622	0.215185
O52	O	0.847820	-0.447876	-0.081887
H53	H	0.827783	-0.391692	-0.124544
H54	H	1.102852	-0.471698	0.086867
O55	O	0.883577	0.008778	-0.400221
H56	H	0.816650	0.026969	-0.418633
H57	H	1.081244	0.206555	-0.412908
O58	O	0.850419	-0.288329	-0.082814
H59	H	0.784311	-0.303041	-0.079791
H60	H	0.400664	0.241465	0.062809
O61	O	0.883571	0.008777	-0.599739
H62	H	0.892096	0.017317	-0.674541
O63	O	0.550550	0.255597	0.082684
H64	H	0.493646	0.277825	0.123269
H65	H	0.433165	-0.001854	0.086869
O66	O	0.390230	0.252825	-0.081891
H67	H	0.354602	0.210438	-0.123016
O68	O	0.587316	-0.018662	0.094388
H69	H	0.656346	-0.016675	0.098639
H70	H	1.103034	-0.327630	0.092690
O71	O	0.549724	0.255783	-0.082868
H72	H	0.492436	0.277985	-0.122857
O73	O	0.411453	0.110937	-0.173329
H74	H	0.463421	0.132132	-0.214574
H75	H	1.100657	-0.471818	-0.091068
O76	O	1.094682	0.219970	-0.599707
H77	H	1.139693	0.179842	-0.643414
O78	O	1.126089	-0.324220	-0.091348
H79	H	1.160090	-0.349890	-0.029325
O80	O	0.409738	0.104947	0.173706
H81	H	0.460033	0.129013	0.215203
H82	H	0.575654	0.002079	-0.090288
O83	O	0.427710	-0.021766	-0.092371
H84	H	0.487493	-0.064360	-0.094857
H85	H	0.859507	-0.440472	0.062802
O86	O	0.850719	-0.287588	0.082680
H87	H	0.826587	-0.338428	0.123261
H88	H	1.000504	-0.457847	-0.152213
O89	O	0.994195	-0.305319	-0.172890
H90	H	0.941397	-0.257384	-0.153759
H91	H	1.005422	-0.460460	0.152273
H92	H	1.002318	-0.315725	0.151842
