data_functionalizedCrystal
_audit_creation_method	'MofGen! by Chris Wilmer'
_symmetry_space_group_name_H-M	'P1'
_symmetry_Int_Tables_number	1
_symmetry_cell_setting	triclinic
loop_
_symmetry_equiv_pos_as_xyz
  x,y,z
_cell_length_a	10.489741
_cell_length_b	19.288864
_cell_length_c	8.965430
_cell_angle_alpha	90.017637
_cell_angle_beta	90.000707
_cell_angle_gamma	96.162290
loop_
_atom_site_label
_atom_site_type_symbol
_atom_site_fract_x
_atom_site_fract_y
_atom_site_fract_z
O1	O	0.159098	-0.922415	-0.124517
O2	O	0.180562	-0.720298	-0.124415
O3	O	-0.015872	-0.825956	-0.124460
O4	O	0.355532	-0.816758	-0.124473
O5	O	-0.015859	-0.825947	0.123619
O6	O	0.180575	-0.720289	0.123663
O7	O	0.159111	-0.922406	0.123561
Cu8	Cu	0.169844	-0.821347	0.146264
Cu9	Cu	0.169829	-0.821358	-0.147118
O10	O	0.355545	-0.816749	0.123606
C11	C	0.179878	-0.694413	-0.000363
C12	C	0.177805	-0.617295	-0.000324
C13	C	-0.063381	-0.825257	-0.000421
C14	C	-0.204964	-0.823178	-0.000423
N15	N	0.169854	-0.821345	0.352613
C16	C	-0.271583	-0.755951	-0.000400
C17	C	-0.364418	-0.787704	0.121900
C18	C	-0.364406	-0.787729	-0.122686
C19	C	-0.295933	-0.854959	0.121978
C20	C	-0.295911	-0.854974	-0.122718
C21	C	-0.388719	-0.886776	-0.000389
C22	C	0.403054	-0.817448	-0.000436
C23	C	0.544637	-0.819526	-0.000444
C24	C	0.159795	-0.948292	-0.000494
C25	C	0.161869	-1.025409	-0.000543
C26	C	0.293063	-0.573372	-0.000351
C27	C	0.291115	-0.500912	-0.000368
C28	C	0.173903	-0.472378	-0.000386
C29	C	0.058629	-0.516311	-0.000351
C30	C	0.060580	-0.588770	-0.000319
C31	C	0.081756	-0.363502	-0.087346
C32	C	0.079810	-0.291044	-0.087387
C33	C	0.167880	-0.248892	-0.000477
C34	C	0.257919	-0.279206	0.086455
C35	C	0.259870	-0.351664	0.086487
C36	C	0.171774	-0.393810	-0.000420
C37	C	0.281035	-0.126399	-0.000520
C38	C	0.279082	-0.053938	-0.000527
C39	C	0.046593	-0.069339	-0.000525
C40	C	0.048549	-0.141798	-0.000503
C41	C	0.165773	-0.170324	-0.000507
N42	N	0.169809	-0.821365	-0.353467
C43	C	0.260669	-0.772466	0.449940
C44	C	0.285057	-0.835354	0.549320
C45	C	0.145476	-0.758483	0.549360
C46	C	0.194300	-0.884265	0.449805
C47	C	0.054669	-0.807352	0.449836
C48	C	0.079009	-0.870285	0.549172
H49	H	-0.220682	-0.700678	-0.000248
H50	H	0.337537	-0.731170	0.406368
C51	C	-0.023607	-0.925423	0.606708
C52	C	-0.143714	-0.911167	0.554039
C53	C	-0.238265	-0.961951	0.606997
H54	H	-0.023710	-0.924922	0.712653
H55	H	-0.006178	-0.970046	0.572386
H56	H	-0.161139	-0.866555	0.588369
H57	H	-0.143654	-0.911674	0.448100
H58	H	-0.220836	-1.006575	0.572674
H59	H	-0.238355	-0.961446	0.712940
H60	H	-0.319766	-0.952290	0.571257
C61	C	0.415017	-0.851019	0.607519
C62	C	0.509756	-0.799672	0.557285
C63	C	0.629489	-0.814069	0.610878
H64	H	0.433121	-0.895319	0.572003
H65	H	0.413873	-0.851303	0.713479
H66	H	0.510902	-0.799395	0.451348
H67	H	0.491694	-0.755367	0.592798
H68	H	0.628345	-0.814352	0.716837
H69	H	0.647580	-0.858370	0.575358
H70	H	0.693782	-0.779229	0.576814
H71	H	0.376486	-0.149625	-0.000502
H72	H	-0.042689	-0.795483	0.406103
C73	C	-0.456236	-0.960554	-0.000034
C74	C	-0.421529	-0.995414	0.128244
C75	C	-0.483716	-1.063375	0.128638
H76	H	-0.431794	-0.984703	-0.086011
H77	H	-0.546416	-0.958858	-0.000779
H78	H	-0.331369	-0.997114	0.128974
H79	H	-0.445973	-0.971287	0.214241
H80	H	-0.573896	-1.061679	0.127894
H81	H	-0.459269	-1.087517	0.042656
H82	H	-0.460185	-1.087034	0.215679
H83	H	0.215016	-0.937446	0.406259
H84	H	0.124878	-0.705314	0.593093
C85	C	0.420463	-0.604208	-0.000261
C86	C	0.520985	-0.550226	-0.000248
C87	C	0.638363	-0.578607	-0.000140
H88	H	0.426237	-0.632167	-0.086733
H89	H	0.426130	-0.632111	0.086299
H90	H	0.515320	-0.522334	-0.086800
H91	H	0.515253	-0.522263	0.086218
H92	H	0.644030	-0.606510	0.086421
H93	H	0.644124	-0.606566	-0.086613
H94	H	0.706581	-0.541985	-0.000117
H95	H	-0.394780	-0.759255	0.225324
C96	C	-0.076634	-0.189457	-0.000801
C97	C	-0.147226	-0.176518	-0.128458
C98	C	-0.262548	-0.220414	-0.128789
H99	H	-0.124865	-0.180765	0.085603
H100	H	-0.058741	-0.236707	-0.000860
H101	H	-0.165122	-0.129279	-0.128385
H102	H	-0.099034	-0.185214	-0.214883
H103	H	-0.244656	-0.267664	-0.128849
H104	H	-0.310768	-0.211718	-0.042379
H105	H	-0.310454	-0.211645	-0.215409
H106	H	-0.265738	-0.883375	0.225488
H107	H	0.384975	-0.465143	-0.000386
H108	H	-0.033280	-0.624533	-0.000298
H109	H	-0.265515	-0.883399	-0.226147
C110	C	0.357666	-0.384448	0.181034
C111	C	0.434363	-0.332034	0.257174
C112	C	0.524450	-0.362209	0.344306
H113	H	0.410048	-0.409315	0.118544
H114	H	0.314359	-0.415600	0.251006
H115	H	0.477666	-0.300894	0.187210
H116	H	0.382016	-0.307163	0.319691
H117	H	0.481144	-0.393361	0.414278
H118	H	0.576824	-0.387075	0.281804
H119	H	0.576492	-0.326651	0.395987
H120	H	0.010036	-0.397816	-0.158128
H121	H	-0.394731	-0.759279	-0.226090
H122	H	0.329634	-0.244887	0.157227
C123	C	-0.080540	-0.038235	-0.000624
C124	C	-0.057582	0.034623	-0.000692
C125	C	-0.174669	0.063303	-0.000800
H126	H	-0.128078	-0.053176	0.085866
H127	H	-0.127993	-0.053255	-0.087166
H128	H	-0.010149	0.049637	0.085841
H129	H	-0.010064	0.049583	-0.087176
H130	H	-0.222123	0.048283	-0.087343
H131	H	-0.222198	0.048357	0.085691
H132	H	-0.159108	0.112739	-0.000860
H133	H	0.372944	-0.018175	-0.000541
C134	C	-0.018084	-0.258271	-0.181805
C135	C	-0.094831	-0.310694	-0.257861
C136	C	-0.185039	-0.280532	-0.344838
H137	H	0.025084	-0.227109	-0.251831
H138	H	-0.070405	-0.233419	-0.119175
H139	H	-0.042518	-0.335533	-0.320487
H140	H	-0.138029	-0.341859	-0.187872
H141	H	-0.237360	-0.255681	-0.282207
H142	H	-0.141859	-0.249371	-0.414854
H143	H	-0.237130	-0.316096	-0.396441
C144	C	-0.068724	-0.485430	-0.000609
C145	C	-0.138399	-0.507749	-0.128209
C146	C	-0.255734	-0.479324	-0.128482
H147	H	-0.053561	-0.435987	-0.000713
H148	H	-0.116231	-0.500466	0.085865
H149	H	-0.090903	-0.492709	-0.214661
H150	H	-0.153596	-0.557188	-0.128132
H151	H	-0.303240	-0.494359	-0.042008
H152	H	-0.240558	-0.429881	-0.128582
H153	H	-0.303028	-0.494468	-0.215049
