data_functionalizedCrystal
_audit_creation_method	'MofGen! by Chris Wilmer'
_symmetry_space_group_name_H-M	'P1'
_symmetry_Int_Tables_number	1
_symmetry_cell_setting	triclinic
loop_
_symmetry_equiv_pos_as_xyz
  x,y,z
_cell_length_a	21.295417
_cell_length_b	21.295419
_cell_length_c	18.101389
_cell_angle_alpha	89.980251
_cell_angle_beta	90.022566
_cell_angle_gamma	89.952934
loop_
_atom_site_label
_atom_site_type_symbol
_atom_site_fract_x
_atom_site_fract_y
_atom_site_fract_z
Zn1	Zn	-0.250397	-0.962321	0.418727
Zn2	Zn	0.082936	-0.628988	0.752060
Zn3	Zn	0.416270	-0.295654	1.085394
Zn4	Zn	-0.355651	-0.962234	0.294877
Zn5	Zn	-0.022317	-0.628900	0.628210
Zn6	Zn	0.311016	-0.295567	0.961543
Zn7	Zn	-0.250430	-0.857055	0.294898
Zn8	Zn	0.082904	-0.523721	0.628231
Zn9	Zn	0.416237	-0.190388	0.961565
Zn10	Zn	-0.355663	-0.857014	0.418675
Zn11	Zn	-0.022329	-0.523680	0.752008
Zn12	Zn	0.311004	-0.190347	1.085342
O13	O	-0.303035	-0.909656	0.356794
O14	O	0.030298	-0.576322	0.690128
O15	O	0.363632	-0.242989	1.023461
O16	O	-0.264340	-1.050399	0.402311
O17	O	0.068993	-0.717066	0.735644
O18	O	0.402326	-0.383732	1.068977
O19	O	-0.341701	-0.948262	0.191246
O20	O	-0.008368	-0.614929	0.524580
O21	O	0.324965	-0.281595	0.857913
O22	O	-0.162336	-0.871072	0.311355
O23	O	0.170997	-0.537739	0.644688
O24	O	0.504331	-0.204405	0.978022
O25	O	-0.341670	-1.050335	0.311318
O26	O	-0.008336	-0.717001	0.644652
O27	O	0.324997	-0.383668	0.977985
O28	O	-0.162312	-0.948411	0.402332
O29	O	0.171021	-0.615078	0.735665
O30	O	0.504355	-0.281744	1.068998
O31	O	-0.264396	-0.870987	0.191262
O32	O	0.068937	-0.537654	0.524596
O33	O	0.402271	-0.204321	0.857929
O34	O	-0.264408	-0.768960	0.311305
O35	O	0.068926	-0.435626	0.644638
O36	O	0.402259	-0.102293	0.977971
O37	O	-0.341691	-0.871003	0.522315
O38	O	-0.008357	-0.537669	0.855648
O39	O	0.324976	-0.204336	1.188982
O40	O	-0.341722	-0.768930	0.402243
O41	O	-0.008389	-0.435596	0.735576
O42	O	0.324945	-0.102263	1.068910
O43	O	-0.264352	-0.948371	0.522353
O44	O	0.068981	-0.615038	0.855686
O45	O	0.402314	-0.281705	1.189020
O46	O	-0.443742	-0.948222	0.311268
O47	O	-0.110408	-0.614889	0.644601
O48	O	0.222925	-0.281556	0.977935
O49	O	-0.443751	-0.870918	0.402222
O50	O	-0.110417	-0.537584	0.735555
O51	O	0.222916	-0.204251	1.068889
C52	C	-0.303070	-0.746104	0.356771
C53	C	0.030263	-0.412771	0.690104
C54	C	0.363596	-0.079437	1.023438
C55	C	-0.303101	-0.676136	0.356779
C56	C	0.030233	-0.342803	0.690112
C57	C	0.363566	-0.009469	1.023445
C58	C	-0.262902	-0.643325	0.404231
C59	C	0.070431	-0.309992	0.737564
C60	C	0.403765	0.023341	1.070898
C61	C	-0.262887	-0.577583	0.404233
C62	C	0.070446	-0.244249	0.737566
C63	C	0.403780	0.089084	1.070900
C64	C	-0.303082	-0.544654	0.356790
C65	C	0.030251	-0.211320	0.690123
C66	C	0.363585	0.122013	1.023457
C67	C	-0.343283	-0.577472	0.309328
C68	C	-0.009950	-0.244139	0.642662
C69	C	0.323383	0.089194	0.975995
C70	C	-0.343293	-0.643213	0.309323
C71	C	-0.009959	-0.309880	0.642656
C72	C	0.323374	0.023453	0.975989
N73	N	-0.358162	-0.441379	0.351001
N74	N	-0.024829	-0.108045	0.684334
N75	N	0.308504	0.225288	1.017667
N76	N	-0.358152	-0.378927	0.351010
N77	N	-0.024819	-0.045594	0.684344
N78	N	0.308515	0.287740	1.017677
C79	C	-0.303055	-0.346579	0.356803
C80	C	0.030278	-0.013246	0.690137
C81	C	0.363611	0.320088	1.023470
N82	N	-0.247969	-0.379041	0.362601
N83	N	0.085364	-0.045708	0.695934
N84	N	0.418698	0.287625	1.029267
N85	N	-0.247980	-0.441498	0.362595
N86	N	0.085353	-0.108165	0.695928
N87	N	0.418686	0.225168	1.029261
C88	C	-0.303076	-0.473368	0.356791
C89	C	0.030257	-0.140035	0.690124
C90	C	0.363591	0.193298	1.023457
C91	C	-0.262837	-0.242483	0.404260
C92	C	0.070496	0.090851	0.737594
C93	C	0.403829	0.424184	1.070927
C94	C	-0.262821	-0.176739	0.404257
C95	C	0.070512	0.156595	0.737590
C96	C	0.403845	0.489928	1.070924
C97	C	-0.343223	-0.176630	0.309356
C98	C	-0.009890	0.156704	0.642690
C99	C	0.323443	0.490037	0.976023
C100	C	-0.343234	-0.242372	0.309356
C101	C	-0.009900	0.090961	0.642689
C102	C	0.323433	0.424295	0.976022
C103	C	-0.303042	-0.275295	0.356812
C104	C	0.030292	0.058039	0.690145
C105	C	0.363625	0.391372	1.023478
C106	C	-0.466587	-0.909573	0.356753
C107	C	-0.133253	-0.576240	0.690087
C108	C	0.200080	-0.242907	1.023420
C109	C	-0.536555	-0.909596	0.356760
C110	C	-0.203221	-0.576262	0.690094
C111	C	0.130112	-0.242929	1.023427
C112	C	-0.569396	-0.949884	0.309449
C113	C	-0.236063	-0.616551	0.642782
C114	C	0.097271	-0.283217	0.976116
C115	C	-0.635138	-0.949913	0.309466
C116	C	-0.301805	-0.616580	0.642799
C117	C	0.031528	-0.283247	0.976132
C118	C	-0.668037	-0.909643	0.356786
C119	C	-0.334704	-0.576310	0.690119
C120	C	-0.001371	-0.242977	1.023453
C121	C	-0.635188	-0.869352	0.404106
C122	C	-0.301855	-0.536019	0.737440
C123	C	0.031478	-0.202686	1.070773
C124	C	-0.569447	-0.869328	0.404094
C125	C	-0.236114	-0.535995	0.737427
C126	C	0.097220	-0.202662	1.070760
N127	N	-0.771320	-0.854576	0.362424
N128	N	-0.437986	-0.521242	0.695757
N129	N	-0.104653	-0.187909	1.029090
N130	N	-0.833771	-0.854600	0.362432
N131	N	-0.500438	-0.521267	0.695765
N132	N	-0.167105	-0.187934	1.029098
C133	C	-0.866112	-0.909714	0.356828
C134	C	-0.532779	-0.576380	0.690162
C135	C	-0.199445	-0.243047	1.023495
N136	N	-0.833642	-0.964803	0.351203
N137	N	-0.500309	-0.631470	0.684536
N138	N	-0.166975	-0.298137	1.017869
N139	N	-0.771185	-0.964778	0.351191
N140	N	-0.437852	-0.631445	0.684524
N141	N	-0.104518	-0.298111	1.017858
C142	C	-0.739323	-0.909665	0.356805
C143	C	-0.405989	-0.576332	0.690139
C144	C	-0.072656	-0.242998	1.023472
C145	C	-0.970239	-0.950038	0.309533
C146	C	-0.636905	-0.616704	0.642866
C147	C	-0.303572	-0.283371	0.976199
C148	C	-1.035982	-0.950068	0.309554
C149	C	-0.702649	-0.616735	0.642888
C150	C	-0.369316	-0.283401	0.976221
C151	C	-1.036031	-0.869501	0.404191
C152	C	-0.702698	-0.536168	0.737525
C153	C	-0.369364	-0.202835	1.070858
C154	C	-0.970288	-0.869476	0.404173
C155	C	-0.636955	-0.536143	0.737507
C156	C	-0.303622	-0.202810	1.070840
C157	C	-0.937396	-0.909744	0.356840
C158	C	-0.604063	-0.576410	0.690173
C159	C	-0.270730	-0.243077	1.023507
C160	C	-0.138845	-0.909756	0.356852
C161	C	0.194489	-0.576422	0.690185
C162	C	0.527822	-0.243089	1.023518
C163	C	-0.068877	-0.909798	0.356876
C164	C	0.264457	-0.576465	0.690209
C165	C	0.597790	-0.243132	1.023543
C166	C	-0.303019	-0.909692	0.549956
C167	C	0.030314	-0.576359	0.883290
C168	C	0.363648	-0.243025	1.216623
C169	C	-0.303012	-0.909708	0.632270
C170	C	0.030321	-0.576374	0.965604
C171	C	0.363654	-0.243041	1.298937
C172	C	-0.303008	-0.073846	0.356814
C173	C	0.030325	0.259487	0.690147
C174	C	0.363659	0.592821	1.023481
C175	C	-0.303016	-0.143814	0.356813
C176	C	0.030317	0.189519	0.690146
C177	C	0.363651	0.522853	1.023479
C178	C	-0.303005	-0.909656	0.164384
C179	C	0.030328	-0.576322	0.497717
C180	C	0.363661	-0.242989	0.831050
C181	C	-0.302835	-0.909762	0.082070
C182	C	0.030498	-0.576429	0.415403
C183	C	0.363832	-0.243096	0.748737
C184	C	-0.302894	-0.909744	0.931361
C185	C	0.030439	-0.576411	1.264695
C186	C	0.363772	-0.243078	1.598028
C187	C	-0.351399	-0.860898	0.900012
C188	C	-0.018065	-0.527565	1.233346
C189	C	0.315268	-0.194232	1.566679
C190	C	-0.351624	-0.861030	0.814394
C191	C	-0.018290	-0.527697	1.147727
C192	C	0.315043	-0.194364	1.481061
C193	C	-0.302953	-0.909726	0.782979
C194	C	0.030380	-0.576392	1.116312
C195	C	0.363714	-0.243059	1.449646
C196	C	-0.320940	-0.976048	0.814077
C197	C	0.012393	-0.642715	1.147410
C198	C	0.345726	-0.309382	1.480743
C199	C	-0.321259	-0.975776	0.899722
C200	C	0.012074	-0.642443	1.233055
C201	C	0.345408	-0.309110	1.566388
C202	C	-0.236294	-0.892844	0.899793
C203	C	0.097039	-0.559511	1.233126
C204	C	0.430372	-0.226177	1.566460
C205	C	-0.236679	-0.891368	0.814142
C206	C	0.096654	-0.558035	1.147475
C207	C	0.429987	-0.224702	1.480809
C208	C	-0.302985	-0.909719	0.699119
C209	C	0.030348	-0.576386	1.032453
C210	C	0.363682	-0.243052	1.365786
C211	C	-0.302864	-0.909755	1.015221
C212	C	0.030469	-0.576422	1.348554
C213	C	0.363803	-0.243089	1.681888
H214	H	-0.230083	-0.150025	0.442897
H215	H	0.103250	0.183308	0.776231
H216	H	0.436583	0.516641	1.109564
Cl217	Cl	-0.676546	-0.818730	0.463598
Cl218	Cl	-0.343213	-0.485397	0.796932
Cl219	Cl	-0.009879	-0.152063	1.130265
H220	H	-0.542707	-0.836520	0.442621
H221	H	-0.209374	-0.503187	0.775954
H222	H	0.123959	-0.169853	1.109288
Cl223	Cl	-0.393811	-0.536076	0.249682
Cl224	Cl	-0.060478	-0.202743	0.583016
Cl225	Cl	0.272855	0.130590	0.916349
Cl226	Cl	-0.929000	-0.818822	0.463651
Cl227	Cl	-0.595667	-0.485489	0.796984
Cl228	Cl	-0.262333	-0.152155	1.130317
H229	H	-0.230174	-0.670127	0.442873
H230	H	0.103159	-0.336793	0.776206
H231	H	0.436493	-0.003460	1.109539
Cl232	Cl	-0.395308	-0.998553	0.780967
Cl233	Cl	-0.061974	-0.665220	1.114300
Cl234	Cl	0.271359	-0.331886	1.447633
Cl235	Cl	-0.928885	-1.000658	0.250029
Cl236	Cl	-0.595552	-0.667324	0.583362
Cl237	Cl	-0.262219	-0.333991	0.916696
H238	H	-1.062720	-0.982880	0.271029
H239	H	-0.729387	-0.649546	0.604363
H240	H	-0.396054	-0.316213	0.937696
Cl241	Cl	-1.077383	-0.818880	0.463686
Cl242	Cl	-0.744050	-0.485546	0.797019
Cl243	Cl	-0.410717	-0.152213	1.130352
H244	H	-0.340370	-0.811849	0.793367
H245	H	-0.007036	-0.478516	1.126700
H246	H	0.326297	-0.145183	1.460034
Cl247	Cl	-0.396424	-0.997894	0.930569
Cl248	Cl	-0.063091	-0.664561	1.263903
Cl249	Cl	0.270242	-0.331227	1.597236
Cl250	Cl	-0.180500	-0.947772	0.931096
Cl251	Cl	0.152834	-0.614438	1.264429
Cl252	Cl	0.486167	-0.281105	1.597763
Cl253	Cl	-0.334201	-0.784734	0.931796
Cl254	Cl	-0.000867	-0.451400	1.265130
Cl255	Cl	0.332466	-0.118067	1.598463
H256	H	-0.219902	-0.845322	0.921385
H257	H	0.113431	-0.511989	1.254718
H258	H	0.446764	-0.178655	1.588051
H259	H	-0.400464	-0.871945	0.921533
H260	H	-0.067131	-0.538612	1.254866
H261	H	0.266203	-0.205278	1.588199
Cl262	Cl	-0.212307	-0.283874	0.463912
Cl263	Cl	0.121027	0.049459	0.797245
Cl264	Cl	0.454360	0.382793	1.130579
Cl265	Cl	-0.212347	-0.536326	0.463891
Cl266	Cl	0.120986	-0.202993	0.797225
Cl267	Cl	0.454319	0.130340	1.130558
H268	H	-0.400990	-0.872188	0.793906
H269	H	-0.067657	-0.538855	1.127240
H270	H	0.265676	-0.205521	1.460573
H271	H	-0.376028	-0.669928	0.270680
H272	H	-0.042695	-0.336594	0.604013
H273	H	0.290639	-0.003261	0.937347
H274	H	-0.375951	-0.149819	0.270727
H275	H	-0.042617	0.183514	0.604061
H276	H	0.290716	0.516847	0.937394
Cl277	Cl	-0.393769	-0.283622	0.249694
Cl278	Cl	-0.060436	0.049711	0.583028
Cl279	Cl	0.272897	0.383045	0.916361
Cl280	Cl	-0.268110	-1.033750	0.782666
Cl281	Cl	0.065223	-0.700417	1.116000
Cl282	Cl	0.398556	-0.367083	1.449333
Cl283	Cl	-0.528049	-1.000515	0.249955
Cl284	Cl	-0.194716	-0.667181	0.583289
Cl285	Cl	0.138618	-0.333848	0.916622
Cl286	Cl	-0.269046	-1.033836	0.931746
Cl287	Cl	0.064287	-0.700503	1.265079
Cl288	Cl	0.397621	-0.367170	1.598413
Cl289	Cl	-0.215737	-0.816009	0.782770
Cl290	Cl	0.117596	-0.482676	1.116104
Cl291	Cl	0.450930	-0.149342	1.449437
Cl292	Cl	-0.676433	-1.000564	0.249983
Cl293	Cl	-0.343100	-0.667231	0.583316
Cl294	Cl	-0.009766	-0.333898	0.916649
H295	H	-0.198624	-0.924350	0.792758
H296	H	0.134709	-0.591016	1.126091
H297	H	0.468043	-0.257683	1.459425
