data_functionalizedCrystal
_audit_creation_method	'MofGen! by Chris Wilmer'
_symmetry_space_group_name_H-M	'P1'
_symmetry_Int_Tables_number	1
_symmetry_cell_setting	triclinic
loop_
_symmetry_equiv_pos_as_xyz
  x,y,z
_cell_length_a	6.817900
_cell_length_b	16.417823
_cell_length_c	16.417824
_cell_angle_alpha	95.404945
_cell_angle_beta	103.385545
_cell_angle_gamma	103.385419
loop_
_atom_site_label
_atom_site_type_symbol
_atom_site_fract_x
_atom_site_fract_y
_atom_site_fract_z
V1	V	-4.025027	-0.116568	-0.261445
V2	V	-3.525027	0.383432	0.238555
O3	O	-4.013072	0.004899	-0.256170
O4	O	-3.513072	0.504899	0.243830
O5	O	-3.976078	-0.230460	-0.259943
O6	O	-3.476078	0.269540	0.240057
O7	O	-3.976089	-0.115084	-0.375339
O8	O	-3.476089	0.384916	0.124661
O9	O	-4.013060	-0.111276	-0.139975
O10	O	-3.513060	0.388724	0.360025
V11	V	-4.508796	-0.102003	-0.246881
V12	V	-4.008796	0.397997	0.253119
O13	O	-4.285746	-0.148519	-0.293391
O14	O	-3.785746	0.351481	0.206609
O15	O	-4.698275	-0.070053	-0.214935
O16	O	-4.198275	0.429947	0.285065
O17	O	-4.334540	0.011888	-0.248382
O18	O	-3.834540	0.511888	0.251618
O19	O	-4.638149	-0.223470	-0.252156
O20	O	-4.138149	0.276530	0.247844
O21	O	-4.638161	-0.107296	-0.368350
O22	O	-4.138161	0.392704	0.131650
O23	O	-4.334528	-0.103488	-0.132987
O24	O	-3.834528	0.396512	0.367013
C25	C	-3.820962	-0.258214	-0.255893
C26	C	-3.320962	0.241786	0.244107
C27	C	-3.862223	-0.351324	-0.255424
C28	C	-3.362223	0.148676	0.244576
C29	C	-3.956184	-0.640885	-0.177216
C30	C	-3.456184	-0.140885	0.322784
C31	C	-3.917388	-0.553396	-0.177642
C32	C	-3.417388	-0.053396	0.322358
C33	C	-3.997013	-0.577699	-0.331119
C34	C	-3.497013	-0.077699	0.168881
C35	C	-4.035794	-0.665185	-0.330691
C36	C	-3.535794	-0.165185	0.169309
C37	C	-4.015387	-0.696776	-0.253737
C38	C	-3.515387	-0.196776	0.246263
C39	C	-3.937810	-0.521800	-0.254592
C40	C	-3.437810	-0.021800	0.245408
C41	C	-3.895746	-0.426941	-0.255055
C42	C	-3.395746	0.073059	0.244945
C43	C	-4.057450	-0.791641	-0.253274
C44	C	-3.557450	-0.291641	0.246726
C45	C	-3.820976	-0.111040	-0.403090
C46	C	-3.320976	0.388960	0.096910
C47	C	-3.862243	-0.110579	-0.496201
C48	C	-3.362243	0.389421	0.003799
C49	C	-3.997038	-0.186240	-0.722575
C50	C	-3.497038	0.313760	-0.222575
C51	C	-4.035828	-0.185802	-0.810062
C52	C	-3.535828	0.314198	-0.310062
C53	C	-3.956160	-0.032324	-0.785739
C54	C	-3.456160	0.467676	-0.285739
C55	C	-3.917386	-0.032764	-0.698254
C56	C	-3.417386	0.467236	-0.198254
C57	C	-3.937817	-0.109724	-0.666674
C58	C	-3.437817	0.390276	-0.166674
C59	C	-4.015381	-0.108846	-0.841646
C60	C	-3.515381	0.391154	-0.341646
C61	C	-4.057438	-0.108371	-0.936504
C62	C	-3.557438	0.391629	-0.436504
C63	C	-3.895761	-0.110200	-0.571811
C64	C	-3.395761	0.389800	-0.071811
C65	C	-4.152997	0.039639	-0.252430
C66	C	-3.652997	0.539639	0.247570
C67	C	-4.090975	0.132747	-0.252904
C68	C	-3.590975	0.632747	0.247096
C69	C	-4.152984	-0.107535	-0.105231
C70	C	-3.652984	0.392465	0.394769
C71	C	-4.090955	-0.107991	-0.012119
C72	C	-3.590955	0.392009	0.487881
H73	H	-4.083997	-0.710695	-0.393008
H74	H	-3.583997	-0.210695	0.106992
C75	C	-4.019472	-0.542940	-0.415764
C76	C	-3.519472	-0.042940	0.084236
N77	N	-4.036397	-0.516762	-0.479520
N78	N	-3.536397	-0.016762	0.020480
H79	H	-4.013678	-0.248905	-0.696866
H80	H	-3.513678	0.251095	-0.196866
C81	C	-3.852264	-0.491919	-0.093462
C82	C	-3.352264	0.008081	0.406538
N83	N	-3.803208	-0.445614	-0.030054
N84	N	-3.303208	0.054386	0.469946
C85	C	-3.933712	-0.675631	-0.092564
C86	C	-3.433712	-0.175631	0.407436
N87	N	-3.916773	-0.701799	-0.028801
N88	N	-3.416773	-0.201799	0.471199
H89	H	-4.084051	-0.248109	-0.855574
H90	H	-3.584051	0.251891	-0.355574
C91	C	-3.933658	0.052328	-0.820484
C92	C	-3.433658	0.552328	-0.320484
N93	N	-3.916696	0.116090	-0.846653
N94	N	-3.416696	0.616090	-0.346653
H95	H	-3.869167	0.029548	-0.652737
H96	H	-3.369167	0.529548	-0.152737
