data_functionalizedCrystal
_audit_creation_method	'MofGen! by Chris Wilmer'
_symmetry_space_group_name_H-M	'P1'
_symmetry_Int_Tables_number	1
_symmetry_cell_setting	triclinic
loop_
_symmetry_equiv_pos_as_xyz
  x,y,z
_cell_length_a	29.839134
_cell_length_b	16.994747
_cell_length_c	29.839125
_cell_angle_alpha	89.991363
_cell_angle_beta	90.021980
_cell_angle_gamma	90.005924
loop_
_atom_site_label
_atom_site_type_symbol
_atom_site_fract_x
_atom_site_fract_y
_atom_site_fract_z
Zn1	Zn	0.686814	-0.314247	0.254207
Zn2	Zn	0.686786	-0.446127	0.179112
Zn3	Zn	0.611697	-0.314229	0.179077
Zn4	Zn	0.611685	-0.446101	0.254200
O5	O	0.649246	-0.380176	0.216649
O6	O	0.749678	-0.331759	0.244263
O7	O	0.676819	-0.428635	0.116240
O8	O	0.621679	-0.203850	0.189031
O9	O	0.749657	-0.428651	0.189091
O10	O	0.676867	-0.203863	0.244230
O11	O	0.621651	-0.331730	0.116214
O12	O	0.548828	-0.331704	0.189025
O13	O	0.621657	-0.428606	0.317068
O14	O	0.548819	-0.428589	0.244217
O15	O	0.676855	-0.331734	0.317074
O16	O	0.676807	-0.556505	0.189084
O17	O	0.621630	-0.556486	0.244251
C18	C	0.532523	-0.380143	0.216617
C19	C	0.482589	-0.380147	0.216613
C20	C	0.649220	-0.585116	0.216669
C21	C	0.649223	-0.674438	0.216668
Zn22	Zn	0.611710	-0.945316	0.179064
Zn23	Zn	0.686834	-0.945312	0.254188
Zn24	Zn	0.611700	-0.813493	0.254193
Zn25	Zn	0.686795	-0.813382	0.179097
O26	O	0.649260	-0.879376	0.216635
O27	O	0.621696	-1.055697	0.189014
O28	O	0.676880	-0.927870	0.317055
O29	O	0.548834	-0.831028	0.244215
O30	O	0.676890	-1.055693	0.244206
O31	O	0.548842	-0.927877	0.189019
O32	O	0.621679	-0.831024	0.317059
O33	O	0.621641	-0.703097	0.244247
O34	O	0.676822	-0.830839	0.116226
O35	O	0.676812	-0.703016	0.189075
O36	O	0.621658	-0.927770	0.116202
O37	O	0.749696	-0.927763	0.244238
O38	O	0.749667	-0.830835	0.189070
C39	C	0.172950	-0.430699	0.245353
C40	C	-0.014723	-0.430721	0.245373
O41	O	-0.038984	-0.473665	0.269789
N42	N	-0.038196	-0.380205	0.216683
C43	C	-0.014749	-0.329676	0.187988
O44	O	-0.039020	-0.286704	0.163589
C45	C	0.172924	-0.329650	0.187971
C46	C	0.196395	-0.380176	0.216659
C47	C	0.196421	-0.481219	0.274039
C48	C	0.243337	-0.481216	0.274032
C49	C	0.266781	-0.430693	0.245339
C50	C	0.243310	-0.380172	0.216652
C51	C	0.196371	-0.279118	0.159279
C52	C	0.243292	-0.279115	0.159278
C53	C	0.266762	-0.329640	0.187966
C54	C	0.313670	-0.329646	0.187952
N55	N	0.337143	-0.380162	0.216642
C56	C	0.313699	-0.430686	0.245335
C57	C	-0.113279	-0.329694	0.187999
C58	C	-0.160197	-0.329701	0.188002
C59	C	-0.160168	-0.430746	0.245388
C60	C	-0.113250	-0.430742	0.245381
C61	C	-0.089806	-0.380210	0.216688
C62	C	0.412225	-0.430676	0.245318
C63	C	0.459144	-0.430671	0.245307
C64	C	0.459111	-0.329624	0.187924
C65	C	0.412196	-0.329632	0.187933
C66	C	0.388754	-0.380160	0.216633
O67	O	0.337960	-0.286719	0.163552
O68	O	0.337979	-0.473639	0.269737
C69	C	0.126035	-0.430702	0.245360
C70	C	0.102564	-0.380182	0.216673
C71	C	0.126008	-0.329658	0.187980
C72	C	0.055646	-0.380189	0.216677
C73	C	0.032201	-0.430712	0.245371
C74	C	0.055675	-0.481228	0.274060
C75	C	0.102590	-0.481225	0.274053
C76	C	0.102535	-0.279142	0.159290
C77	C	0.055619	-0.279150	0.159299
C78	C	0.032175	-0.329673	0.187992
C79	C	0.766424	-0.380210	0.216682
C80	C	0.816358	-0.380225	0.216696
C81	C	0.649258	-0.380169	0.333827
C82	C	0.649263	-0.380166	0.383762
C83	C	0.649274	-0.174436	0.216626
C84	C	0.649288	-0.085114	0.216617
C85	C	0.649259	-0.380126	0.099927
C86	C	0.649341	-0.379907	0.049992
C87	C	0.678035	-0.329592	0.693411
C88	C	0.678057	-0.329525	0.881084
O89	O	0.702486	-0.286600	0.905354
N90	N	0.649323	-0.379955	0.904547
C91	C	0.620579	-0.430401	0.881089
O92	O	0.596136	-0.473287	0.905352
C93	C	0.620554	-0.430464	0.693417
C94	C	0.649294	-0.380037	0.669956
C95	C	0.706771	-0.279168	0.669951
C96	C	0.706767	-0.279189	0.623035
C97	C	0.678026	-0.329633	0.599580
C98	C	0.649290	-0.380057	0.623041
C99	C	0.591809	-0.480906	0.669959
C100	C	0.591804	-0.480916	0.623038
C101	C	0.620544	-0.430488	0.599578
C102	C	0.620545	-0.430521	0.552670
N103	N	0.649279	-0.380092	0.529207
C104	C	0.678020	-0.329648	0.552662
C105	C	0.620594	-0.430366	0.979620
C106	C	0.620601	-0.430351	1.026537
C107	C	0.678078	-0.329474	1.026530
C108	C	0.678074	-0.329493	0.979611
C109	C	0.649328	-0.379936	0.956157
C110	C	0.678009	-0.329695	0.454136
C111	C	0.678004	-0.329722	0.407217
C112	C	0.620525	-0.430596	0.407229
C113	C	0.620531	-0.430572	0.454144
C114	C	0.649275	-0.380115	0.477597
O115	O	0.596125	-0.473418	0.528372
O116	O	0.702452	-0.286755	0.528391
C117	C	0.678039	-0.329572	0.740327
C118	C	0.649302	-0.379996	0.763787
C119	C	0.620561	-0.430440	0.740332
C120	C	0.649309	-0.379981	0.810705
C121	C	0.678049	-0.329537	0.834160
C122	C	0.706784	-0.279107	0.810697
C123	C	0.706779	-0.279128	0.763782
C124	C	0.591827	-0.480870	0.763795
C125	C	0.591834	-0.480846	0.810711
C126	C	0.620575	-0.430402	0.834166
C127	C	0.765982	-0.879289	0.216658
C128	C	0.815917	-0.879274	0.216681
C129	C	0.649237	-0.879293	0.099457
C130	C	0.649227	-0.879257	0.049523
C131	C	0.532081	-0.879465	0.216614
C132	C	0.482147	-0.879504	0.216605
C133	C	0.649251	-0.879503	0.333358
C134	C	0.649135	-0.879690	0.383292
C135	C	0.839369	-0.929780	0.245392
C136	C	0.886287	-0.929782	0.245413
C137	C	0.909753	-0.879274	0.216726
C138	C	0.886298	-0.828766	0.188012
C139	C	0.839380	-0.828769	0.187989
C140	C	0.620497	-0.929708	0.026058
C141	C	0.620479	-0.929675	-0.020861
C142	C	0.649193	-0.879194	-0.044314
C143	C	0.677923	-0.828738	-0.020846
C144	C	0.677939	-0.828768	0.026072
C145	C	0.458691	-0.829091	0.245338
C146	C	0.411772	-0.829111	0.245330
C147	C	0.388311	-0.879549	0.216589
C148	C	0.411770	-0.929964	0.187852
C149	C	0.458688	-0.929939	0.187859
C150	C	0.620547	-0.828988	0.406724
C151	C	0.620430	-0.829163	0.453643
C152	C	0.648904	-0.880035	0.477128
C153	C	0.677494	-0.930741	0.453693
C154	C	0.677608	-0.930570	0.406775
H155	H	0.478252	-0.471817	0.268669
H156	H	0.350107	-0.879558	0.216587
C157	C	0.709508	-0.773216	-0.046651
N158	N	0.733299	-0.731401	-0.066090
H159	H	0.392660	-0.971027	0.164452
C160	C	0.588983	-0.773371	0.479413
N161	N	0.565298	-0.731346	0.498822
C162	C	0.588920	-0.486049	0.479952
N163	N	0.565106	-0.527830	0.499387
C164	C	0.738377	-0.223703	0.597235
N165	N	0.762184	-0.181904	0.577805
C166	C	0.912079	-0.985342	0.277005
N167	N	0.931504	-1.027189	0.300800
C168	C	0.648774	-0.880211	0.528739
N169	N	0.648675	-0.880338	0.567613
H170	H	0.700891	-0.971855	0.387700
H171	H	0.477782	-0.970995	0.164462
C172	C	-0.186010	-0.274125	0.156440
N173	N	-0.205450	-0.232258	0.132669
H174	H	0.597082	-0.970763	-0.039962
C175	C	0.813565	-0.985351	0.276950
N176	N	0.794132	-1.027214	0.300719
C177	C	0.589219	-0.773025	0.380899
N178	N	0.565618	-0.730875	0.361451
H179	H	0.393144	-0.471819	0.268690
C180	C	0.269148	-0.536794	0.305594
N181	N	0.288587	-0.578657	0.329370
H182	H	0.177269	-0.237977	0.135916
C183	C	0.708724	-0.986851	0.479533
N184	N	0.732216	-1.029165	0.498998
H185	H	0.701475	-0.288429	0.960512
C186	C	0.170639	-0.536813	0.305602
N187	N	0.151224	-0.578696	0.329374
C188	C	0.385976	-0.773655	0.276947
N189	N	0.366547	-0.731887	0.300763
C190	C	0.738393	-0.223673	0.695744
N191	N	0.762215	-0.181876	0.715168
H192	H	-0.094143	-0.471883	0.268743
C193	C	0.709691	-0.273980	1.052339
N194	N	0.733497	-0.232180	1.071780
H195	H	0.597115	-0.970817	0.045147
H196	H	0.649176	-0.879179	-0.082517
H197	H	-0.179265	-0.471884	0.268751
C198	C	0.588970	-0.485862	0.953826
N199	N	0.565152	-0.527664	0.934400
H200	H	-0.094196	-0.288545	0.164631
H201	H	0.701336	-0.787687	0.045173
H202	H	0.262377	-0.237960	0.135914
H203	H	0.393085	-0.288492	0.164571
H204	H	0.478208	-0.288492	0.164561
H205	H	0.820289	-0.787636	0.164610
H206	H	0.905411	-0.787644	0.164656
C207	C	0.029877	-0.536803	0.305624
N208	N	0.010443	-0.578656	0.329399
C209	C	0.128317	-0.223563	0.127721
N210	N	0.147735	-0.181700	0.103939
C211	C	0.029807	-0.223562	0.127738
N212	N	0.010366	-0.181688	0.103971
H213	H	0.121696	-0.522368	0.297415
C214	C	0.709618	-0.274241	0.381413
N215	N	0.733429	-0.232452	0.361979
C216	C	0.588988	-0.485831	1.052339
N217	N	0.565174	-0.527617	1.071771
C218	C	0.560189	-0.536375	0.695755
N219	N	0.536369	-0.578154	0.715184
C220	C	0.709631	-0.274194	0.479928
N221	N	0.733452	-0.232395	0.499353
H222	H	0.568391	-0.521985	0.603944
C223	C	0.484490	-0.773598	0.276955
N224	N	0.503919	-0.731793	0.300768
H225	H	0.597126	-0.471669	0.388123
C226	C	0.738396	-0.223614	0.836506
N227	N	0.762203	-0.181815	0.855948
H228	H	0.730182	-0.238064	0.744684
H229	H	0.568432	-0.521917	0.829808
H230	H	0.568423	-0.521949	0.744703
H231	H	0.947957	-0.879279	0.216750
