data_functionalizedCrystal
_audit_creation_method	'MofGen! by Chris Wilmer'
_symmetry_space_group_name_H-M	'P1'
_symmetry_Int_Tables_number	1
_symmetry_cell_setting	triclinic
loop_
_symmetry_equiv_pos_as_xyz
  x,y,z
_cell_length_a	14.044191
_cell_length_b	14.044190
_cell_length_c	15.186229
_cell_angle_alpha	89.991383
_cell_angle_beta	89.999039
_cell_angle_gamma	93.191777
loop_
_atom_site_label
_atom_site_type_symbol
_atom_site_fract_x
_atom_site_fract_y
_atom_site_fract_z
O1	O	1.277177	0.230199	-0.073204
O2	O	1.610510	0.563533	0.260129
O3	O	1.943843	0.896866	0.593462
O4	O	1.000504	0.221887	-0.073215
O5	O	1.333837	0.555220	0.260119
O6	O	1.667171	0.888553	0.593452
O7	O	1.134684	0.087707	-0.073192
O8	O	1.468017	0.421040	0.260141
O9	O	1.801351	0.754373	0.593474
O10	O	1.142997	0.364379	-0.073227
O11	O	1.476330	0.697713	0.260107
O12	O	1.809663	1.031046	0.593440
O13	O	1.134674	0.087704	0.073265
O14	O	1.468007	0.421037	0.406598
O15	O	1.801341	0.754370	0.739932
O16	O	1.000494	0.221884	0.073242
O17	O	1.333827	0.555217	0.406576
O18	O	1.667161	0.888550	0.739909
O19	O	1.277167	0.230196	0.073253
O20	O	1.610500	0.563530	0.406586
O21	O	1.943833	0.896863	0.739920
Zn22	Zn	1.138829	0.226040	0.096501
Zn23	Zn	1.472162	0.559373	0.429834
Zn24	Zn	1.805496	0.892706	0.763168
Zn25	Zn	1.138842	0.226043	-0.096463
Zn26	Zn	1.472175	0.559377	0.236871
Zn27	Zn	1.805509	0.892710	0.570204
O28	O	1.142987	0.364376	0.073231
O29	O	1.476320	0.697710	0.406564
O30	O	1.809654	1.031043	0.739897
C31	C	0.964877	0.218249	0.000013
C32	C	1.298210	0.551582	0.333346
C33	C	1.631544	0.884915	0.666679
C34	C	0.858734	0.207401	0.000010
C35	C	1.192067	0.540735	0.333343
C36	C	1.525400	0.874068	0.666676
C37	C	1.131043	0.052083	0.000039
C38	C	1.464376	0.385416	0.333372
C39	C	1.797709	0.718750	0.666705
C40	C	1.120195	-0.054060	0.000046
C41	C	1.453529	0.279273	0.333379
C42	C	1.786862	0.612606	0.666713
C43	C	0.613277	0.264502	0.000011
C44	C	0.946610	0.597835	0.333345
C45	C	1.279943	0.931169	0.666678
C46	C	0.664400	0.187585	0.000019
C47	C	0.997734	0.520919	0.333353
C48	C	1.331067	0.854252	0.666686
C49	C	0.772537	0.198614	0.000014
C50	C	1.105871	0.531947	0.333347
C51	C	1.439204	0.865280	0.666681
C52	C	0.505130	0.253475	0.000017
C53	C	0.838463	0.586809	0.333350
C54	C	1.171796	0.920142	0.666683
C55	C	1.177296	-0.299517	0.000014
C56	C	1.510629	0.033816	0.333347
C57	C	1.843963	0.367149	0.666680
C58	C	1.100379	-0.248394	0.000017
C59	C	1.433713	0.084940	0.333350
C60	C	1.767046	0.418273	0.666684
C61	C	1.111408	-0.140257	0.000033
C62	C	1.444741	0.193077	0.333366
C63	C	1.778074	0.526410	0.666700
C64	C	1.166269	-0.407664	-0.000003
C65	C	1.499602	-0.074331	0.333331
C66	C	1.832936	0.259002	0.666664
C67	C	1.312794	0.233834	0.000023
C68	C	1.646127	0.567168	0.333357
C69	C	1.979461	0.900501	0.666690
C70	C	1.418937	0.244682	0.000021
C71	C	1.752271	0.578015	0.333354
C72	C	2.085604	0.911348	0.666688
C73	C	1.146628	0.400000	-0.000002
C74	C	1.479962	0.733333	0.333331
C75	C	1.813295	1.066667	0.666664
C76	C	1.157476	0.506143	-0.000015
C77	C	1.490809	0.839477	0.333318
C78	C	1.824142	1.172810	0.666651
N79	N	1.138827	0.226037	0.228194
N80	N	1.472160	0.559370	0.561527
N81	N	1.805494	0.892704	0.894860
N82	N	1.138851	0.226039	-0.228155
N83	N	1.472184	0.559372	0.105178
N84	N	1.805518	0.892706	0.438511
C85	C	1.198266	0.166646	0.453926
C86	C	1.531599	0.499979	0.787260
C87	C	1.864932	0.833313	1.120593
C88	C	1.198269	0.166644	0.546116
C89	C	1.531602	0.499977	0.879449
C90	C	1.864935	0.833311	1.212783
C91	C	1.079405	0.285433	0.546105
C92	C	1.412739	0.618766	0.879439
C93	C	1.746072	0.952099	1.212772
C94	C	1.079398	0.285429	0.453917
C95	C	1.412732	0.618762	0.787251
C96	C	1.746065	0.952096	1.120584
C97	C	1.138834	0.226037	0.407830
C98	C	1.472167	0.559371	0.741164
C99	C	1.805501	0.892704	1.074497
C100	C	1.138844	0.226039	0.592208
C101	C	1.472177	0.559372	0.925541
C102	C	1.805511	0.892706	1.258875
C103	C	1.138846	0.226037	0.692164
C104	C	1.472180	0.559371	1.025497
C105	C	1.805513	0.892704	1.358831
C106	C	1.138830	0.226037	0.307868
C107	C	1.472164	0.559371	0.641201
C108	C	1.805497	0.892704	0.974534
H109	H	0.626955	0.113453	-0.000034
H110	H	0.960288	0.446786	0.333300
H111	H	1.293622	0.780119	0.666633
Cl112	Cl	0.671086	0.378951	-0.000014
Cl113	Cl	1.004420	0.712284	0.333319
Cl114	Cl	1.337753	1.045617	0.666653
H115	H	1.026247	-0.285839	0.000009
H116	H	1.359580	0.047494	0.333342
H117	H	1.692913	0.380828	0.666676
Cl118	Cl	1.291745	-0.241708	0.000032
Cl119	Cl	1.625078	0.091626	0.333365
Cl120	Cl	1.958411	0.424959	0.666699
Cl121	Cl	1.272981	0.091978	0.395992
Cl122	Cl	1.606314	0.425311	0.729326
Cl123	Cl	1.939647	0.758644	1.062659
H124	H	1.246662	0.118281	0.583645
H125	H	1.579995	0.451614	0.916978
H126	H	1.913329	0.784947	1.250312
H127	H	1.031016	0.333790	0.583639
H128	H	1.364349	0.667123	0.916972
H129	H	1.697682	1.000457	1.250305
Cl130	Cl	1.004674	0.360094	0.395962
Cl131	Cl	1.338007	0.693427	0.729295
Cl132	Cl	1.671340	1.026760	1.062629
