data_functionalizedCrystal
_audit_creation_method	'MofGen! by Chris Wilmer'
_symmetry_space_group_name_H-M	'P1'
_symmetry_Int_Tables_number	1
_symmetry_cell_setting	triclinic
loop_
_symmetry_equiv_pos_as_xyz
  x,y,z
_cell_length_a	19.188905
_cell_length_b	19.188930
_cell_length_c	13.101039
_cell_angle_alpha	93.345801
_cell_angle_beta	86.647018
_cell_angle_gamma	83.139668
loop_
_atom_site_label
_atom_site_type_symbol
_atom_site_fract_x
_atom_site_fract_y
_atom_site_fract_z
O1	O	0.930017	0.083211	-0.085395
O2	O	1.430017	0.583211	0.414605
O3	O	0.726702	0.094965	-0.085362
O4	O	1.226702	0.594965	0.414638
O5	O	0.834226	-0.012568	-0.085359
O6	O	1.334226	0.487432	0.414641
O7	O	0.822493	0.190743	-0.085397
O8	O	1.322493	0.690743	0.414603
O9	O	0.826511	-0.004840	0.085070
O10	O	1.326511	0.495160	0.585070
O11	O	0.718987	0.102693	0.085068
O12	O	1.218987	0.602693	0.585068
O13	O	0.922302	0.090939	0.085035
O14	O	1.422302	0.590939	0.585035
Zn15	Zn	0.819420	0.098043	0.112111
Zn16	Zn	1.319420	0.598043	0.612111
Zn17	Zn	0.829584	0.087861	-0.112438
Zn18	Zn	1.329584	0.587861	0.387562
O19	O	0.814778	0.198471	0.085032
O20	O	1.314778	0.698471	0.585032
C21	C	0.696833	0.098451	-0.000142
C22	C	1.196833	0.598451	0.499858
C23	C	0.619327	0.097318	-0.000129
C24	C	1.119327	0.597318	0.499871
C25	C	0.587140	0.092561	-0.093032
C26	C	1.087140	0.592561	0.406968
C27	C	0.514317	0.091487	-0.093045
C28	C	1.014317	0.591487	0.406955
C29	C	0.473685	0.095157	-0.000148
C30	C	0.973685	0.595157	0.499852
C31	C	0.505879	0.099919	0.092768
C32	C	1.005879	0.599919	0.592768
C33	C	0.578700	0.100999	0.092778
C34	C	1.078700	0.600999	0.592778
N35	N	0.361535	0.056864	0.068993
N36	N	0.861535	0.556864	0.568993
N37	N	0.292359	0.055835	0.068978
N38	N	0.792359	0.555835	0.568978
C39	C	0.254279	0.091903	-0.000172
C40	C	0.754279	0.591903	0.499828
N41	N	0.287992	0.129029	-0.069322
N42	N	0.787992	0.629029	0.430678
N43	N	0.357175	0.130054	-0.069309
N44	N	0.857175	0.630054	0.430691
C45	C	0.394722	0.093986	-0.000149
C46	C	0.894722	0.593986	0.499851
C47	C	0.143130	0.085983	-0.093096
C48	C	0.643130	0.585983	0.406904
C49	C	0.070305	0.084914	-0.093105
C50	C	0.570305	0.584914	0.406895
C51	C	0.061869	0.093338	0.092710
C52	C	0.561869	0.593338	0.592710
C53	C	0.134692	0.094414	0.092716
C54	C	0.634692	0.594414	0.592716
C55	C	0.175319	0.090733	-0.000190
C56	C	0.675319	0.590733	0.499810
C57	C	0.829988	-0.034715	-0.000141
C58	C	1.329988	0.465285	0.499859
C59	C	0.828847	-0.112219	-0.000132
C60	C	1.328847	0.387781	0.499868
C61	C	0.891939	-0.157148	-0.000138
C62	C	1.391939	0.342852	0.499862
C63	C	0.890868	-0.229973	-0.000154
C64	C	1.390868	0.270027	0.499846
C65	C	0.826700	-0.257863	-0.000144
C66	C	1.326700	0.242137	0.499856
C67	C	0.763601	-0.212924	-0.000145
C68	C	1.263601	0.287076	0.499855
C69	C	0.764674	-0.140101	-0.000139
C70	C	1.264674	0.359899	0.499861
N71	N	0.775027	-0.363233	0.057864
N72	N	1.275027	0.136767	0.557864
N73	N	0.774011	-0.432412	0.057861
N74	N	1.274011	0.067588	0.557861
C75	C	0.823463	-0.477272	-0.000164
C76	C	1.323463	0.022728	0.499836
N77	N	0.873979	-0.450342	-0.058173
N78	N	1.373979	0.049658	0.441827
N79	N	0.874996	-0.381157	-0.058165
N80	N	1.374996	0.118843	0.441835
C81	C	0.825530	-0.336826	-0.000151
C82	C	1.325530	0.163174	0.499849
C83	C	0.885398	-0.601168	-0.000189
C84	C	1.385398	-0.101168	0.499811
C85	C	0.884325	-0.673993	-0.000212
C86	C	1.384325	-0.173993	0.499788
C87	C	0.757055	-0.656942	-0.000192
C88	C	1.257055	-0.156942	0.499808
C89	C	0.758131	-0.584118	-0.000180
C90	C	1.258131	-0.084118	0.499820
C91	C	0.822304	-0.556236	-0.000173
C92	C	1.322304	-0.056236	0.499827
C93	C	0.952171	0.087452	-0.000187
C94	C	1.452171	0.587452	0.499813
C95	C	1.029677	0.088585	-0.000207
C96	C	1.529677	0.588585	0.499793
C97	C	0.819016	0.220618	-0.000188
C98	C	1.319016	0.720618	0.499812
C99	C	0.820157	0.298121	-0.000204
C100	C	1.320157	0.798121	0.499796
N101	N	0.812488	0.104991	0.265359
N102	N	1.312488	0.604991	0.765359
N103	N	0.836522	0.080906	-0.265686
N104	N	1.336522	0.580906	0.234314
C105	C	0.803056	0.114451	0.474402
C106	C	1.303056	0.614451	0.974402
C107	C	0.845950	0.071449	0.525278
C108	C	1.345950	0.571449	1.025278
C109	C	0.840703	0.076712	0.641596
C110	C	1.340703	0.576712	1.141596
C111	C	0.808303	0.109188	0.358073
C112	C	1.308303	0.609188	0.858073
H113	H	0.604905	0.104874	0.168434
H114	H	1.104905	0.604874	0.668434
H115	H	0.620214	0.089563	-0.168684
H116	H	1.120214	0.589563	0.331316
H117	H	0.044100	0.081044	-0.168761
H118	H	0.544100	0.581044	0.331239
Cl119	Cl	0.963649	-0.730479	-0.000225
Cl120	Cl	1.463649	-0.230479	0.499775
Cl121	Cl	0.175158	0.100391	0.209517
Cl122	Cl	0.675158	0.600391	0.709517
Cl123	Cl	0.194206	0.081362	-0.209890
Cl124	Cl	0.694206	0.581362	0.290110
H125	H	0.488106	0.087614	-0.168701
H126	H	0.988106	0.587614	0.331299
Cl127	Cl	0.454799	0.104537	0.209552
Cl128	Cl	0.954799	0.604537	0.709552
H129	H	0.028786	0.096331	0.168349
H130	H	0.528786	0.596331	0.668349
H131	H	0.944194	-0.134451	-0.000136
H132	H	1.444194	0.365549	0.499864
H133	H	0.762396	0.155218	0.518198
H134	H	1.262396	0.655218	1.018198
Cl135	Cl	0.908999	0.008770	0.457658
Cl136	Cl	1.408999	0.508770	0.957658
H137	H	0.942247	-0.266562	-0.000163
H138	H	1.442247	0.233438	0.499837
Cl139	Cl	0.685352	-0.083615	-0.000131
Cl140	Cl	1.185352	0.416385	0.499869
H141	H	0.937652	-0.578464	-0.000189
H142	H	1.437652	-0.078464	0.499811
Cl143	Cl	0.682933	-0.247985	-0.000141
Cl144	Cl	1.182933	0.252015	0.499859
H145	H	0.704809	-0.679650	-0.000189
H146	H	1.204809	-0.179650	0.499811
H147	H	0.706754	-0.547535	-0.000169
H148	H	1.206754	-0.047535	0.499831
