data_functionalizedCrystal
_audit_creation_method	'MofGen! by Chris Wilmer'
_symmetry_space_group_name_H-M	'P1'
_symmetry_Int_Tables_number	1
_symmetry_cell_setting	triclinic
loop_
_symmetry_equiv_pos_as_xyz
  x,y,z
_cell_length_a	23.532407
_cell_length_b	16.109301
_cell_length_c	15.186229
_cell_angle_alpha	89.994299
_cell_angle_beta	90.001378
_cell_angle_gamma	83.155079
loop_
_atom_site_label
_atom_site_type_symbol
_atom_site_fract_x
_atom_site_fract_y
_atom_site_fract_z
O1	O	-0.755631	-0.100925	0.073122
O2	O	-0.589822	-0.115528	0.073148
O3	O	-0.677282	0.012840	0.073125
O4	O	-0.668172	-0.229293	0.073144
O5	O	-0.677275	0.012843	-0.073332
O6	O	-0.589815	-0.115525	-0.073310
O7	O	-0.755625	-0.100922	-0.073336
Zn8	Zn	-0.672719	-0.108223	-0.096576
Zn9	Zn	-0.672728	-0.108227	0.096388
O10	O	-0.668165	-0.229291	-0.073313
C11	C	-0.568601	-0.115155	-0.000078
C12	C	-0.505380	-0.114037	-0.000068
C13	C	-0.676909	0.043814	-0.000104
C14	C	-0.675803	0.136100	-0.000105
C15	C	-0.776846	-0.101295	-0.000108
C16	C	-0.840067	-0.102414	-0.000112
C17	C	-0.106531	-0.182990	-0.000102
C18	C	-0.047127	-0.181951	-0.000108
O19	O	-0.010619	-0.245872	-0.000135
N20	N	-0.024220	-0.105636	-0.000112
C21	C	-0.060719	-0.030355	-0.000121
O22	O	-0.035780	0.034652	-0.000126
C23	C	-0.120122	-0.031395	-0.000121
C24	C	-0.143027	-0.107715	-0.000108
C25	C	-0.129436	-0.259304	-0.000090
C26	C	-0.188836	-0.260342	-0.000083
C27	C	-0.225331	-0.185066	-0.000088
C28	C	-0.202427	-0.108753	-0.000101
C29	C	-0.156621	0.043886	-0.000136
C30	C	-0.216027	0.042840	-0.000137
C31	C	-0.238932	-0.033480	-0.000124
C32	C	-0.298322	-0.034516	-0.000099
N33	N	-0.321229	-0.110831	-0.000094
C34	C	-0.284734	-0.186106	-0.000089
C35	C	0.064031	-0.028178	-0.000120
C36	C	0.123433	-0.027138	-0.000113
C37	C	0.137021	-0.178734	-0.000102
C38	C	0.077618	-0.179774	-0.000103
C39	C	0.041123	-0.104493	-0.000116
C40	C	-0.409479	-0.188281	-0.000073
C41	C	-0.468885	-0.189312	-0.000062
C42	C	-0.482468	-0.037716	-0.000078
C43	C	-0.423067	-0.036684	-0.000084
C44	C	-0.386574	-0.111973	-0.000085
O45	O	-0.334865	0.029371	-0.000076
O46	O	-0.309682	-0.251102	-0.000095
C47	C	-0.668537	-0.260264	-0.000082
C48	C	-0.669644	-0.352551	-0.000075
N49	N	-0.672717	-0.108220	-0.228269
C50	C	-0.725127	0.358760	-0.000099
C51	C	-0.724083	0.445473	-0.000092
C52	C	-0.620315	0.424782	-0.000079
C53	C	-0.621360	0.338072	-0.000080
C54	C	-0.673768	0.305063	-0.000094
C55	C	-0.671679	0.478486	-0.000086
C56	C	-0.670547	0.572503	-0.000078
C57	C	-0.674900	0.211040	-0.000101
C58	C	-0.711460	-0.051397	-0.546197
C59	C	-0.711458	-0.051398	-0.454007
C60	C	-0.633990	-0.165052	-0.453997
C61	C	-0.633994	-0.165055	-0.546185
C62	C	-0.672729	-0.108223	-0.592283
C63	C	-0.672722	-0.108221	-0.407905
C64	C	-0.672720	-0.108221	-0.307949
C65	C	-0.672732	-0.108223	-0.692245
N66	N	-0.672734	-0.108224	0.228081
H67	H	-0.487530	-0.251464	-0.000051
Cl68	Cl	-0.760157	0.020046	-0.604144
H69	H	-0.577647	0.451669	-0.000068
H70	H	-0.579534	0.294349	-0.000073
Cl71	Cl	0.182912	-0.273367	-0.000100
Cl72	Cl	-0.788653	0.512974	-0.000096
Cl73	Cl	-0.585303	-0.236503	-0.604128
H74	H	-0.379772	-0.249588	-0.000076
H75	H	-0.742997	-0.005126	-0.416487
H76	H	-0.602452	-0.211323	-0.416456
H77	H	-0.207479	-0.322489	-0.000071
H78	H	-0.767801	0.331888	-0.000109
Cl79	Cl	-0.083566	-0.353949	-0.000080
H80	H	0.058974	-0.241920	-0.000097
H81	H	-0.137983	0.106033	-0.000148
H82	H	0.142076	0.035010	-0.000110
H83	H	-0.245739	0.104144	-0.000148
Cl84	Cl	-0.394272	0.059262	-0.000106
Cl85	Cl	0.018157	0.066471	-0.000126
H86	H	-0.512193	0.023571	-0.000079
