data_functionalizedCrystal
_audit_creation_method	'MofGen! by Chris Wilmer'
_symmetry_space_group_name_H-M	'P1'
_symmetry_Int_Tables_number	1
_symmetry_cell_setting	triclinic
loop_
_symmetry_equiv_pos_as_xyz
  x,y,z
_cell_length_a	13.032127
_cell_length_b	13.033304
_cell_length_c	13.032268
_cell_angle_alpha	89.077769
_cell_angle_beta	90.930983
_cell_angle_gamma	76.682435
loop_
_atom_site_label
_atom_site_type_symbol
_atom_site_fract_x
_atom_site_fract_y
_atom_site_fract_z
Zn1	Zn	-0.323896	-1.463154	0.735865
Zn2	Zn	-0.473489	-1.468592	0.542805
Zn3	Zn	-0.318395	-1.313614	0.542812
Zn4	Zn	-0.516878	-1.270114	0.686723
O5	O	-0.408165	-1.378868	0.627051
O6	O	-0.327883	-1.609522	0.730818
O7	O	-0.432455	-1.468514	0.401782
O8	O	-0.173454	-1.349380	0.588990
O9	O	-0.437789	-1.613517	0.588978
O10	O	-0.177495	-1.459246	0.730825
O11	O	-0.318508	-1.354653	0.401787
O12	O	-0.360581	-1.162197	0.541339
O13	O	-0.511740	-1.275240	0.834265
O14	O	-0.506406	-1.130238	0.647070
O15	O	-0.369956	-1.417066	0.870370
O16	O	-0.624916	-1.426334	0.541327
O17	O	-0.656794	-1.280513	0.647063
C18	C	-0.437606	-1.108453	0.588873
C19	C	-0.450229	-0.992762	0.572561
C20	C	-0.401590	-0.939182	0.635549
C21	C	-0.414636	-0.819609	0.618691
C22	C	-0.678626	-1.349318	0.588887
C23	C	-0.794325	-1.336767	0.572608
C24	C	-0.967423	-1.372502	0.618757
C25	C	-0.847842	-1.385483	0.635587
C26	C	-0.136647	-1.408559	0.665390
C27	C	-0.020943	-1.421211	0.681728
C28	C	-0.446302	-1.340694	0.889906
C29	C	-0.462553	-1.324427	1.001919
C30	C	-0.378603	-0.650341	0.665373
C31	C	-0.365990	-0.766031	0.681688
C32	C	-0.370094	-1.416962	0.365238
C33	C	-0.353528	-1.433463	0.253296
C34	C	-0.399647	-1.387346	1.069722
C35	C	-0.416442	-1.370535	1.185493
H36	H	-0.465937	-0.776962	0.552277
H37	H	-0.501526	-0.950111	0.506152
H38	H	-0.350286	-0.981834	0.701953
H39	H	-0.314680	-0.808678	0.748096
O40	O	-1.023978	-1.304546	0.530826
H41	H	-1.109024	-1.305028	0.531396
H42	H	-0.333354	-1.453657	1.042061
O43	O	-0.791287	-1.453463	0.723509
H44	H	-0.706236	-1.452999	0.722925
H45	H	-0.482731	-1.304210	1.213149
O46	O	-0.265712	-1.521319	1.216680
H47	H	-0.266304	-1.520746	1.131496
O48	O	-0.550364	-1.236582	1.038550
H49	H	-0.538493	-1.159754	1.009394
O50	O	-0.850875	-1.268798	0.484677
H51	H	-0.935923	-1.269276	0.485247
H52	H	-0.978235	-1.472519	0.748102
