data_functionalizedCrystal
_audit_creation_method	'MofGen! by Chris Wilmer'
_symmetry_space_group_name_H-M	'P1'
_symmetry_Int_Tables_number	1
_symmetry_cell_setting	triclinic
loop_
_symmetry_equiv_pos_as_xyz
  x,y,z
_cell_length_a	27.732064
_cell_length_b	9.130313
_cell_length_c	10.654558
_cell_angle_alpha	89.999661
_cell_angle_beta	96.431175
_cell_angle_gamma	89.992577
loop_
_atom_site_label
_atom_site_type_symbol
_atom_site_fract_x
_atom_site_fract_y
_atom_site_fract_z
O1	O	-0.641852	-0.121535	0.149510
O2	O	-0.501201	-0.121595	0.172207
O3	O	-0.574758	-0.121558	-0.022016
O4	O	-0.568295	-0.121573	0.343732
O5	O	-0.574757	0.122041	-0.022011
O6	O	-0.501200	0.122004	0.172212
O7	O	-0.641851	0.122063	0.149515
Cu8	Cu	-0.571526	0.144276	0.160864
Cu9	Cu	-0.571527	-0.143808	0.160858
O10	O	-0.568294	0.122026	0.343737
C11	C	-0.483191	0.000197	0.171730
C12	C	-0.429528	0.000174	0.170285
C13	C	-0.574282	0.000240	-0.068791
C14	C	-0.572860	0.000235	-0.208174
C15	C	-0.659861	0.000268	0.149992
C16	C	-0.713525	0.000281	0.151436
C17	C	-0.051677	0.000262	0.045678
C18	C	-0.253371	0.000224	0.050993
O19	O	-0.284020	0.000283	-0.045699
N20	N	-0.273217	0.000213	0.166164
C21	C	-0.242636	0.000221	0.280013
O22	O	-0.264144	0.000225	0.378094
C23	C	-0.040944	0.000269	0.274696
C24	C	-0.021100	0.000266	0.159518
C25	C	-0.031834	0.000261	-0.069491
C26	C	0.018587	0.000262	-0.070819
C27	C	0.049163	0.000266	0.043022
C28	C	0.029320	0.000267	0.158191
C29	C	-0.010364	0.000288	0.388544
C30	C	0.040062	0.000304	0.387205
C31	C	0.059905	0.000300	0.272027
C32	C	0.110317	0.000273	0.270704
N33	N	0.130163	0.000284	0.155533
C34	C	0.099586	0.000280	0.041693
C35	C	-0.348528	0.000192	0.282796
C36	C	-0.398951	0.000177	0.284126
C37	C	-0.409682	0.000183	0.055106
C38	C	-0.359258	0.000188	0.053777
C39	C	-0.328682	0.000203	0.167626
C40	C	0.205473	0.000283	0.038913
C41	C	0.255898	0.000278	0.037595
C42	C	0.266625	0.000280	0.266615
C43	C	0.216205	0.000276	0.267933
C44	C	0.185629	0.000283	0.154072
O45	O	0.140995	0.000230	0.367344
O46	O	0.121104	0.000308	-0.056375
C47	C	-0.102098	0.000261	0.047005
C48	C	-0.121941	0.000263	0.162174
C49	C	-0.091364	0.000266	0.276014
C50	C	-0.172364	0.000248	0.163503
C51	C	-0.202941	0.000244	0.049662
C52	C	-0.183095	0.000256	-0.065508
C53	C	-0.132675	0.000257	-0.066836
C54	C	-0.111210	0.000255	0.391185
C55	C	-0.161631	0.000252	0.392503
C56	C	-0.192208	0.000248	0.278662
N57	N	-0.571528	0.346899	0.160867
N58	N	-0.571528	-0.346431	0.160844
C59	C	-0.604108	0.423567	0.074894
C60	C	-0.604107	0.576904	0.074879
C61	C	-0.538945	0.576890	0.246821
C62	C	-0.538944	0.423556	0.246829
C63	C	-0.641730	0.423576	-0.024372
C64	C	-0.641729	0.576913	-0.024387
C65	C	-0.572190	0.133018	-0.273657
C66	C	-0.570858	0.133012	-0.404624
C67	C	-0.570863	-0.132573	-0.404613
C68	C	-0.572199	-0.132565	-0.273650
C69	C	-0.572185	0.286352	-0.273663
C70	C	-0.570853	0.286345	-0.404630
C71	C	-0.568770	0.000225	0.390513
C72	C	-0.570192	0.000220	0.529896
H73	H	0.180584	0.000287	-0.053804
H74	H	-0.633477	0.381956	-0.120558
C75	C	-0.618284	0.365899	-0.242045
H76	H	-0.636340	0.398596	-0.317915
H77	H	-0.609409	0.447641	-0.189309
H78	H	-0.637549	0.300514	-0.199421
C79	C	-0.689135	0.359336	0.014951
H80	H	-0.710247	0.436834	0.032450
H81	H	-0.682012	0.300773	0.088381
H82	H	-0.704398	0.300784	-0.051739
C83	C	-0.503110	0.339218	0.341403
H84	H	-0.507774	0.236919	0.329096
H85	H	-0.508639	0.364364	0.425115
H86	H	-0.470806	0.364326	0.328329
H87	H	-0.537763	0.333910	-0.220518
C88	C	-0.570143	-0.278645	-0.476636
H89	H	-0.570739	-0.357725	-0.418879
H90	H	-0.541491	-0.284204	-0.517625
H91	H	-0.597765	-0.284133	-0.537829
H92	H	-0.536728	0.345209	-0.428038
C93	C	0.277723	0.000283	-0.089105
H94	H	0.252288	0.000297	-0.156711
H95	H	0.297174	-0.084662	-0.094390
H96	H	0.297164	0.085245	-0.094383
C97	C	0.040408	0.000286	-0.197515
H98	H	0.014970	0.000300	-0.265114
H99	H	0.059861	-0.084652	-0.202814
H100	H	0.059846	0.085255	-0.202792
C101	C	-0.625873	0.641155	-0.146958
H102	H	-0.618815	0.563658	-0.201534
H103	H	-0.597727	0.699711	-0.127336
H104	H	-0.651304	0.699714	-0.187633
H105	H	-0.512415	0.639321	0.316809
C106	C	-0.077582	0.000246	0.516417
H107	H	-0.096628	0.000227	0.585189
H108	H	-0.057691	0.085190	0.520676
H109	H	-0.057688	-0.084717	0.520659
C110	C	-0.691900	0.633165	0.002584
H111	H	-0.712533	0.552247	0.013699
H112	H	-0.705654	0.690964	-0.066471
H113	H	-0.688465	0.690973	0.077187
H114	H	-0.605274	0.333949	-0.457776
H115	H	-0.343106	0.000186	-0.040011
C116	C	-0.065461	0.000244	-0.194727
H117	H	-0.046414	0.000233	-0.263496
H118	H	-0.085364	0.085180	-0.198993
H119	H	-0.085345	-0.084727	-0.198968
H120	H	-0.415102	0.000160	0.377915
H121	H	-0.434586	0.000175	-0.037588
H122	H	-0.323636	0.000203	0.375511
H123	H	-0.026511	0.000284	0.482334
H124	H	-0.572751	-0.240690	-0.220341
H125	H	0.200048	0.000277	0.361721
C126	C	0.073696	0.000317	0.512438
H127	H	0.106569	0.000331	0.495161
H128	H	0.067641	-0.084628	0.559711
H129	H	0.067631	0.085279	0.559695
C130	C	0.300264	0.000279	0.391833
H131	H	0.281227	0.000267	0.460623
H132	H	0.320153	0.085228	0.396066
H133	H	0.320160	-0.084679	0.396070
C134	C	-0.216736	0.000258	-0.190729
H135	H	-0.249606	0.000268	-0.173430
H136	H	-0.210677	-0.084684	-0.238007
H137	H	-0.210684	0.085223	-0.237992
H138	H	-0.116523	0.000255	-0.160625
C139	C	-0.183453	0.000259	0.519207
H140	H	-0.158017	0.000276	0.586810
H141	H	-0.202897	-0.084684	0.524505
H142	H	-0.202900	0.085224	0.524480
