data_functionalizedCrystal
_audit_creation_method	'MofGen! by Chris Wilmer'
_symmetry_space_group_name_H-M	'P1'
_symmetry_Int_Tables_number	1
_symmetry_cell_setting	triclinic
loop_
_symmetry_equiv_pos_as_xyz
  x,y,z
_cell_length_a	16.109301
_cell_length_b	16.992695
_cell_length_c	15.186229
_cell_angle_alpha	89.995943
_cell_angle_beta	89.999362
_cell_angle_gamma	87.064852
loop_
_atom_site_label
_atom_site_type_symbol
_atom_site_fract_x
_atom_site_fract_y
_atom_site_fract_z
O1	O	1.109856	0.100784	-0.073174
O2	O	0.868631	0.113326	-0.073188
O3	O	0.988276	-0.007088	-0.073174
O4	O	0.990210	0.221197	-0.073188
O5	O	0.988268	-0.007089	0.073284
O6	O	0.868622	0.113324	0.073270
O7	O	1.109847	0.100782	0.073284
Zn8	Zn	0.989233	0.107053	0.096530
Zn9	Zn	0.989245	0.107055	-0.096434
O10	O	0.990202	0.221196	0.073270
C11	C	0.837618	0.112817	0.000039
C12	C	0.745221	0.111294	0.000034
C13	C	0.527480	0.179203	0.000040
C14	C	0.440664	0.177766	0.000046
C15	C	0.451005	0.034899	0.000051
C16	C	0.537819	0.036337	0.000051
C17	C	0.576055	0.108492	0.000042
C18	C	0.402424	0.105616	0.000047
C19	C	0.308294	0.104057	0.000053
C20	C	0.670191	0.110051	0.000037
C21	C	0.985784	-0.036300	0.000055
C22	C	0.978361	-0.123343	0.000054
C23	C	1.049987	-0.173601	0.000059
C24	C	1.043007	-0.255386	0.000050
C25	C	0.964400	-0.286911	0.000043
C26	C	0.892768	-0.236645	0.000035
C27	C	0.899749	-0.154862	0.000038
C28	C	0.935467	-0.530501	0.000029
C29	C	0.928491	-0.612291	0.000029
C30	C	1.078731	-0.631026	0.000043
C31	C	1.085704	-0.549240	0.000051
C32	C	1.014073	-0.498982	0.000038
N33	N	0.957263	-0.370508	0.000037
N34	N	1.021210	-0.415387	0.000038
C35	C	1.140860	0.101291	0.000055
C36	C	1.233257	0.102814	0.000054
C37	C	0.992694	0.250408	0.000039
C38	C	1.000118	0.337451	0.000034
N39	N	0.989232	0.107051	0.228223
N40	N	0.989253	0.107051	-0.228127
C41	C	1.042231	0.053750	0.453952
C42	C	1.042234	0.053748	0.546141
C43	C	0.936247	0.160355	0.546138
C44	C	0.936241	0.160352	0.453950
C45	C	0.989238	0.107051	0.407859
C46	C	0.989246	0.107051	0.592237
C47	C	0.989249	0.107050	0.692193
C48	C	0.989235	0.107051	0.307897
H49	H	0.419863	-0.023846	0.000064
H50	H	1.137048	-0.671954	0.000051
H51	H	0.864477	-0.637954	0.000037
H52	H	0.558608	0.237956	0.000039
C53	C	0.878762	0.218352	0.596066
C54	C	0.897344	0.295405	0.573611
C55	C	0.844397	0.348854	0.619575
H56	H	0.886300	0.210833	0.657586
H57	H	0.822696	0.209866	0.580943
H58	H	0.953395	0.303888	0.588741
H59	H	0.889800	0.302949	0.512100
H60	H	0.788331	0.340368	0.604452
H61	H	0.851939	0.341329	0.681093
H62	H	0.856992	0.401141	0.604340
C63	C	1.099681	-0.004086	0.596344
C64	C	1.088330	0.007305	0.686944
C65	C	1.141229	-0.045967	0.733217
H66	H	1.155766	0.004394	0.581338
H67	H	1.087169	-0.056436	0.581290
H68	H	1.100848	0.059643	0.701991
H69	H	1.032257	-0.001181	0.701976
H70	H	1.128717	-0.098317	0.718163
H71	H	1.197310	-0.037483	0.718204
H72	H	1.133529	-0.038250	0.794693
H73	H	0.893084	0.203756	0.416419
H74	H	0.401118	0.235347	0.000046
C75	C	0.590420	-0.040525	0.000007
C76	C	0.538356	-0.104022	-0.000015
C77	C	0.586783	-0.174835	-0.000064
H78	H	0.624512	-0.043045	0.051067
H79	H	0.624489	-0.042973	-0.051085
H80	H	0.504303	-0.101576	0.051072
H81	H	0.504265	-0.101528	-0.051071
H82	H	0.620851	-0.177283	-0.051157
H83	H	0.620872	-0.177348	0.050997
H84	H	0.551465	-0.217927	-0.000087
H85	H	1.113997	-0.147941	0.000071
H86	H	1.149714	-0.523580	0.000057
C87	C	1.120872	-0.309823	0.000108
C88	C	1.191206	-0.264710	0.000146
C89	C	1.262953	-0.314830	0.000211
H90	H	1.121399	-0.342130	-0.050952
H91	H	1.121310	-0.342108	0.051201
H92	H	1.190769	-0.232438	-0.050942
H93	H	1.190706	-0.232405	0.051202
H94	H	1.263391	-0.347116	0.051304
H95	H	1.263472	-0.347135	-0.050850
H96	H	1.310683	-0.284229	0.000245
H97	H	1.085383	0.010347	0.416427
H98	H	0.877139	-0.489590	0.000019
H99	H	0.841423	-0.113942	0.000033
C100	C	0.807496	-0.271021	0.000072
C101	C	0.816711	-0.353401	0.000097
C102	C	0.738175	-0.385092	0.000146
H103	H	0.777709	-0.253853	-0.050989
H104	H	0.777763	-0.253814	0.051164
H105	H	0.846432	-0.370600	-0.050989
H106	H	0.846484	-0.370591	0.051154
H107	H	0.708442	-0.367885	0.051238
H108	H	0.708394	-0.367918	-0.050915
H109	H	0.744417	-0.440989	0.000171
