data_functionalizedCrystal
_audit_creation_method	'MofGen! by Chris Wilmer'
_symmetry_space_group_name_H-M	'P1'
_symmetry_Int_Tables_number	1
_symmetry_cell_setting	triclinic
loop_
_symmetry_equiv_pos_as_xyz
  x,y,z
_cell_length_a	18.760487
_cell_length_b	12.970454
_cell_length_c	12.970454
_cell_angle_alpha	59.999776
_cell_angle_beta	90.034967
_cell_angle_gamma	60.020386
loop_
_atom_site_label
_atom_site_type_symbol
_atom_site_fract_x
_atom_site_fract_y
_atom_site_fract_z
Zr1	Zr	0.686684	1.128519	-0.134694
O2	O	0.572868	1.343609	-0.299420
O3	O	0.721574	0.913428	-0.084196
O4	O	0.721575	1.128518	-0.299287
O5	O	0.572866	1.128520	0.085337
O6	O	0.838878	1.128518	-0.299182
O7	O	0.572867	1.128519	-0.084329
O8	O	0.838876	0.743762	0.085576
O9	O	0.572868	1.513276	-0.299421
O10	O	0.823997	1.001898	-0.062582
O11	O	0.736454	1.001899	0.063960
O12	O	0.736455	1.255139	-0.189281
O13	O	0.648913	1.255140	-0.062739
Zr14	Zr	0.873767	1.128520	0.136071
Zr15	Zr	0.873768	1.128519	-0.134527
Zr16	Zr	0.686682	1.128520	0.135905
Zr17	Zr	0.686684	1.399119	-0.134695
Zr18	Zr	0.873767	0.857920	0.136072
O19	O	0.838876	1.343611	0.085573
O20	O	0.838878	1.343609	-0.299183
O21	O	0.572866	1.343611	0.085336
O22	O	0.987583	0.913430	0.300797
O23	O	0.987585	0.913428	-0.083959
O24	O	0.721572	0.913430	0.300560
O25	O	0.987585	1.128519	-0.083960
O26	O	0.838875	1.128521	0.300664
O27	O	0.721573	1.128521	0.300559
O28	O	0.987584	1.128520	0.085706
O29	O	0.721575	1.513276	-0.299289
O30	O	0.838875	0.743763	0.300666
O31	O	0.987583	0.743762	0.300798
O32	O	0.987584	0.743761	0.085708
O33	O	0.572867	1.513278	-0.084331
O34	O	0.721574	1.513277	-0.084199
O35	O	0.823995	1.001899	0.190659
O36	O	0.911538	1.001899	0.064116
O37	O	0.823997	1.255140	-0.062583
O38	O	0.736454	1.255141	0.063959
C39	C	0.780225	0.790040	0.000690
C40	C	0.780225	0.675163	0.000691
C41	C	0.546211	1.128520	0.000480
C42	C	0.466789	1.128520	0.000410
C43	C	0.085276	1.260714	-0.065227
C44	C	0.176675	0.996326	0.067049
C45	C	0.251297	0.996323	0.066940
C46	C	0.242912	1.128518	0.000745
C47	C	0.159904	1.260716	-0.065341
C48	C	0.334310	0.864128	0.133015
C49	C	0.408938	0.864121	0.132908
C50	C	0.400553	0.996318	0.066720
C51	C	0.317539	1.128520	0.000632
C52	C	0.309153	1.260716	-0.065563
C53	C	0.226140	1.392920	-0.131645
C54	C	0.151519	1.392913	-0.131529
C55	C	0.475175	0.996325	0.066605
C56	C	0.383781	1.260717	-0.065677
C57	C	1.014240	1.128519	0.000897
C58	C	1.093662	1.128519	0.000968
C59	C	0.780227	1.128518	-0.337789
C60	C	0.780228	1.128517	-0.452665
C61	C	0.780225	1.466999	0.000687
C62	C	0.780225	1.581875	0.000686
C63	C	0.780224	1.128521	0.339166
C64	C	0.780223	1.128522	0.454042
C65	C	1.014240	0.790040	0.000899
C66	C	1.093662	0.675163	0.000970
C67	C	0.780224	0.790042	0.339168
C68	C	0.780223	0.675166	0.454045
C69	C	1.014238	0.790042	0.339376
C70	C	1.093660	0.675165	0.454323
C71	C	0.546213	1.466997	-0.337999
C72	C	0.466791	1.581874	-0.452946
C73	C	0.546211	1.466999	0.000479
C74	C	0.466789	1.581876	0.000407
C75	C	0.780227	1.466997	-0.337791
C76	C	0.780228	1.581873	-0.452667
C77	C	1.085264	0.621215	-0.065143
C78	C	1.159882	0.513291	-0.065101
C79	C	1.242898	0.459309	0.001061
C80	C	1.251295	0.513268	0.067176
C81	C	1.176677	0.621197	0.067126
C82	C	1.176661	0.621218	0.442250
C83	C	1.251294	0.513294	0.550245
C84	C	1.242923	0.459313	0.670312
C85	C	1.159912	0.513271	0.682383
C86	C	1.085282	0.621200	0.574389
C87	C	0.383790	1.635834	-0.440873
C88	C	0.309157	1.743791	-0.548868
C89	C	0.317528	1.797778	-0.668935
C90	C	0.400538	1.743813	-0.681006
C91	C	0.475169	1.635865	-0.573012
C92	C	0.475187	1.635835	0.066509
C93	C	0.400568	1.743789	0.066438
C94	C	0.317553	1.797775	0.000271
C95	C	0.309156	1.743811	-0.065839
C96	C	0.383774	1.635867	-0.065774
H97	H	0.219322	1.500553	-0.185547
O98	O	0.219614	1.802041	-0.137194
H99	H	0.212008	1.851233	-0.238792
O100	O	1.340820	0.455091	0.537213
H101	H	1.334095	0.510744	0.435578
H102	H	1.017701	0.665110	0.584237
O103	O	0.374752	1.577616	-0.311377
H104	H	0.338531	1.668223	-0.300428
H105	H	0.256752	1.885676	-0.756860
O106	O	1.323371	0.342893	0.001108
H107	H	1.362775	0.384318	-0.040231
O108	O	0.237083	1.914165	0.000254
H109	H	0.237139	2.012509	-0.041078
H110	H	1.318896	0.469300	0.121043
H111	H	1.183527	0.665107	0.120971
O112	O	1.323420	0.342887	0.786789
H113	H	1.382540	0.314438	0.758210
H114	H	1.183494	0.665153	0.344495
O115	O	0.374736	1.403301	-0.137079
H116	H	0.304477	1.495221	-0.183014
H117	H	0.476524	0.756472	0.186714
O118	O	0.219631	1.801959	-0.535836
H119	H	0.226356	1.746251	-0.434201
H120	H	0.407344	1.787783	-0.778777
H121	H	0.407422	1.787708	0.120277
H122	H	1.017675	0.665166	-0.119036
O123	O	0.374712	1.577657	-0.137059
H124	H	0.304448	1.633329	-0.183064
O125	O	0.564693	1.577648	-0.586040
H126	H	0.557966	1.633319	-0.687676
O127	O	0.564721	1.577640	0.137857
H128	H	0.558010	1.633330	0.183786
O129	O	0.061989	1.535497	-0.202824
H130	H	0.011509	1.513283	-0.191641
H131	H	0.183496	0.888698	0.120937
H132	H	0.341130	0.756502	0.186907
O133	O	-0.004251	1.403304	-0.136515
H134	H	-0.054736	1.381104	-0.125328
H135	H	1.153110	0.469304	0.780156
O136	O	0.564706	0.853754	0.137868
H137	H	0.558000	0.761831	0.183918
H138	H	1.153029	0.469371	-0.118940
