data_functionalizedCrystal
_audit_creation_method	'MofGen! by Chris Wilmer'
_symmetry_space_group_name_H-M	'P1'
_symmetry_Int_Tables_number	1
_symmetry_cell_setting	triclinic
loop_
_symmetry_equiv_pos_as_xyz
  x,y,z
_cell_length_a	12.759401
_cell_length_b	25.639239
_cell_length_c	12.759393
_cell_angle_alpha	89.962948
_cell_angle_beta	89.981504
_cell_angle_gamma	90.038847
loop_
_atom_site_label
_atom_site_type_symbol
_atom_site_fract_x
_atom_site_fract_y
_atom_site_fract_z
Zn1	Zn	1.606080	-0.208118	-0.593941
Zn2	Zn	1.605901	-0.295564	-0.418245
Zn3	Zn	1.430382	-0.208145	-0.418281
Zn4	Zn	1.430297	-0.295524	-0.593886
O5	O	1.518165	-0.251838	-0.506088
O6	O	1.753078	-0.219723	-0.570643
O7	O	1.582579	-0.283996	-0.271228
O8	O	1.453799	-0.134976	-0.441621
O9	O	1.752946	-0.283970	-0.441559
O10	O	1.582884	-0.134956	-0.570678
O11	O	1.453626	-0.219770	-0.271255
O12	O	1.283350	-0.219731	-0.441567
O13	O	1.453655	-0.283901	-0.740914
O14	O	1.283288	-0.283928	-0.570584
O15	O	1.582802	-0.219684	-0.740955
O16	O	1.582496	-0.368724	-0.441505
O17	O	1.453481	-0.368695	-0.570549
C18	C	1.245198	-0.251828	-0.506074
C19	C	1.128421	-0.251837	-0.506093
C20	C	1.073554	-0.285318	-0.573160
C21	C	0.963830	-0.285324	-0.573172
C22	C	0.963850	-0.218368	-0.439039
C23	C	1.073572	-0.218359	-0.439033
C24	C	1.128404	-0.318796	-0.640220
C25	C	1.073536	-0.352280	-0.707292
C26	C	0.963812	-0.352286	-0.707303
C27	C	0.908955	-0.318809	-0.640242
C28	C	1.517989	-0.387680	-0.506040
C29	C	1.518009	-0.445795	-0.506055
C30	C	1.585519	-0.806160	-0.439010
C31	C	1.585560	-0.860765	-0.439024
O32	O	1.642775	-0.889004	-0.381967
N33	N	1.518350	-0.888077	-0.506158
C34	C	1.451103	-0.860782	-0.573289
O35	O	1.393940	-0.889027	-0.630394
C36	C	1.451068	-0.806179	-0.573280
C37	C	1.518275	-0.778869	-0.506134
C38	C	1.652721	-0.778851	-0.371870
C39	C	1.652678	-0.724250	-0.371855
C40	C	1.585434	-0.696959	-0.438980
C41	C	1.518232	-0.724269	-0.506119
C42	C	1.383827	-0.778885	-0.640416
C43	C	1.383799	-0.724278	-0.640401
C44	C	1.451005	-0.696968	-0.573256
C45	C	1.450946	-0.642377	-0.573228
N46	N	1.518155	-0.615065	-0.506094
C47	C	1.585399	-0.642356	-0.438970
C48	C	1.451182	-0.975453	-0.573306
C49	C	1.451210	-1.030055	-0.573311
C50	C	1.585669	-1.030034	-0.439046
C51	C	1.585634	-0.975430	-0.439037
C52	C	1.518391	-0.948140	-0.506172
C53	C	1.585305	-0.527691	-0.438943
C54	C	1.585253	-0.473086	-0.438930
C55	C	1.450799	-0.473111	-0.573198
C56	C	1.450846	-0.527712	-0.573207
C57	C	1.518108	-0.555000	-0.506076
O58	O	1.393762	-0.614103	-0.630258
O59	O	1.642562	-0.614104	-0.381885
C60	C	1.792198	-0.251848	-0.506103
C61	C	1.908975	-0.251852	-0.506109
C62	C	1.518239	-0.251785	-0.780122
C63	C	1.518270	-0.251763	-0.896898
C64	C	1.518371	-0.115465	-0.506159
C65	C	1.518459	-0.057351	-0.506190
C66	C	1.585526	-0.218322	-0.951783
C67	C	1.585551	-0.218303	-1.061507
C68	C	1.451061	-0.285170	-1.061452
C69	C	1.451032	-0.285186	-0.951730
C70	C	1.652765	-0.184898	-0.896952
C71	C	1.720027	-0.151455	-0.951837
C72	C	1.720052	-0.151436	-1.061561
C73	C	1.652815	-0.184860	-1.116400
C74	C	1.518152	-0.251853	-0.233121
C75	C	1.518325	-0.251728	-0.116345
H76	H	0.919142	-0.379547	-0.761924
H77	H	0.819611	-0.318813	-0.640266
H78	H	1.652754	-0.184911	-0.807609
C79	C	1.658474	-0.557335	-0.366238
C80	C	1.725834	-0.588609	-0.425793
C81	C	1.793263	-0.615916	-0.358856
H82	H	1.618468	-0.578720	-0.320399
H83	H	1.698546	-0.533256	-0.326283
H84	H	1.685767	-0.612685	-0.465731
H85	H	1.765863	-0.567237	-0.471630
H86	H	1.833335	-0.591837	-0.318900
H87	H	1.753249	-0.637298	-0.313019
H88	H	1.838981	-0.637135	-0.399254
H89	H	1.217746	-0.318795	-0.640216
H90	H	1.640427	-1.052264	-0.384394
C91	C	1.377899	-0.321397	-1.120934
C92	C	1.273955	-0.310005	-1.094274
C93	C	1.206532	-0.343364	-1.149057
H94	H	1.393078	-0.356548	-1.102973
H95	H	1.387481	-0.316594	-1.194151
H96	H	1.264378	-0.314812	-1.021073
H97	H	1.258744	-0.274860	-1.112238
H98	H	1.216114	-0.338561	-1.222274
H99	H	1.221720	-0.378513	-1.131091
H100	H	1.135999	-0.335635	-1.130983
H101	H	1.652828	-0.184836	-1.205745
H102	H	1.707407	-0.702018	-0.317183
C103	C	1.377692	-0.443569	-0.646126
C104	C	1.318827	-0.479168	-0.704923
C105	C	1.251470	-0.451972	-0.772115
H106	H	1.417744	-0.422231	-0.692014
H107	H	1.331862	-0.422314	-0.605926
H108	H	1.364651	-0.500414	-0.745120
H109	H	1.278753	-0.500507	-0.659062
H110	H	1.205640	-0.430717	-0.731915
H111	H	1.291531	-0.430635	-0.817997
H112	H	1.211515	-0.476121	-0.812010
C113	C	1.377742	-0.557392	-0.645926
C114	C	1.310441	-0.588792	-0.586396
C115	C	1.243080	-0.616129	-0.653356
H116	H	1.417801	-0.578693	-0.691769
H117	H	1.337626	-0.533331	-0.685877
H118	H	1.350553	-0.612850	-0.546463
H119	H	1.270359	-0.567503	-0.540555
H120	H	1.202963	-0.592068	-0.693307
H121	H	1.283147	-0.637428	-0.699196
H122	H	1.197402	-0.637434	-0.612975
C123	C	1.378054	-0.321438	-0.891943
C124	C	1.392400	-0.314286	-0.784118
C125	C	1.325176	-0.347665	-0.729010
H126	H	1.393311	-0.356587	-0.909770
H127	H	1.307457	-0.313774	-0.909864
H128	H	1.462981	-0.321953	-0.766204
H129	H	1.377135	-0.279143	-0.766260
H130	H	1.254579	-0.340002	-0.746931
H131	H	1.340439	-0.382813	-0.746845
H132	H	1.334894	-0.342814	-0.655845
H133	H	1.118208	-0.379532	-0.761897
H134	H	1.396474	-1.052286	-0.627977
H135	H	0.919177	-0.191112	-0.384440
C136	C	1.793188	-0.115106	-1.120963
C137	C	1.852079	-0.085850	-1.049454
C138	C	1.919478	-0.052384	-1.104134
H139	H	1.753165	-0.092269	-1.163781
H140	H	1.838999	-0.135092	-1.163733
H141	H	1.806274	-0.065866	-1.006702
H142	H	1.892124	-0.108674	-1.006634
H143	H	1.965289	-0.072369	-1.146905
H144	H	1.879447	-0.029550	-1.146951
H145	H	1.959451	-0.032533	-1.055624
H146	H	1.118246	-0.191092	-0.384429
C147	C	1.792977	-0.115220	-0.892113
C148	C	1.778581	-0.122402	-0.784275
C149	C	1.845773	-0.089035	-0.729228
H150	H	1.777724	-0.080066	-0.909991
H151	H	1.863584	-0.122876	-0.910035
H152	H	1.707990	-0.114742	-0.766360
H153	H	1.793842	-0.157549	-0.766366
H154	H	1.916379	-0.096691	-0.747150
H155	H	1.830513	-0.053883	-0.747114
H156	H	1.836021	-0.093906	-0.656054
C157	C	1.658668	-0.945716	-0.366311
C158	C	1.725945	-0.914305	-0.425845
C159	C	1.793233	-0.886923	-0.358884
H160	H	1.698816	-0.969735	-0.326313
H161	H	1.618522	-0.924421	-0.320510
H162	H	1.766087	-0.935599	-0.471628
H163	H	1.685827	-0.890277	-0.465840
H164	H	1.753088	-0.865628	-0.313083
H165	H	1.833373	-0.910946	-0.318890
H166	H	1.838882	-0.865604	-0.399267
C167	C	1.725603	-0.808562	-0.298994
C168	C	1.666230	-0.839995	-0.231616
C169	C	1.733350	-0.867383	-0.164500
H170	H	1.765677	-0.784547	-0.258911
H171	H	1.771326	-0.829843	-0.339259
H172	H	1.620525	-0.818717	-0.191355
H173	H	1.626158	-0.864021	-0.271670
H174	H	1.779074	-0.888663	-0.204765
H175	H	1.773420	-0.843363	-0.124424
H176	H	1.693076	-0.888717	-0.118783
C177	C	1.658342	-0.443530	-0.365988
C178	C	1.717259	-0.479122	-0.307231
C179	C	1.784607	-0.451917	-0.240039
H180	H	1.618281	-0.422267	-0.320074
H181	H	1.704139	-0.422201	-0.406187
H182	H	1.671468	-0.500442	-0.267035
H183	H	1.757342	-0.500387	-0.353116
H184	H	1.830404	-0.430588	-0.280238
H185	H	1.744538	-0.430655	-0.194133
H186	H	1.824598	-0.476062	-0.200172
C187	C	1.378333	-0.945798	-0.646319
C188	C	1.437753	-0.914405	-0.713731
C189	C	1.370684	-0.887088	-0.781015
H190	H	1.332540	-0.924493	-0.606209
H191	H	1.338332	-0.969871	-0.686359
H192	H	1.477736	-0.890335	-0.673696
H193	H	1.483543	-0.935697	-0.753864
H194	H	1.330683	-0.911162	-0.821054
H195	H	1.324895	-0.865786	-0.740896
H196	H	1.410991	-0.865789	-0.826768
C197	C	1.310822	-0.808431	-0.713439
C198	C	1.251960	-0.772833	-0.772236
C199	C	1.184704	-0.800031	-0.839532
H200	H	1.264978	-0.829773	-0.673346
H201	H	1.350980	-0.829681	-0.759315
H202	H	1.211805	-0.751592	-0.726367
H203	H	1.297776	-0.751490	-0.812351
H204	H	1.224862	-0.821281	-0.885407
H205	H	1.138867	-0.821372	-0.799430
H206	H	1.144765	-0.775882	-0.879440
H207	H	1.329043	-0.702061	-0.695074
