data_functionalizedCrystal
_audit_creation_method	'MofGen! by Chris Wilmer'
_symmetry_space_group_name_H-M	'P1'
_symmetry_Int_Tables_number	1
_symmetry_cell_setting	triclinic
loop_
_symmetry_equiv_pos_as_xyz
  x,y,z
_cell_length_a	15.538191
_cell_length_b	15.625429
_cell_length_c	18.366186
_cell_angle_alpha	71.916618
_cell_angle_beta	89.989344
_cell_angle_gamma	66.736792
loop_
_atom_site_label
_atom_site_type_symbol
_atom_site_fract_x
_atom_site_fract_y
_atom_site_fract_z
O1	O	1.249530	-0.292680	0.016708
O2	O	0.975409	-0.188629	-0.010761
O3	O	1.119790	-0.374288	0.038257
O4	O	1.105150	-0.107021	-0.032309
O5	O	1.119765	-0.374286	0.159356
O6	O	0.975385	-0.188628	0.110338
O7	O	1.249506	-0.292679	0.137807
Zn8	Zn	1.112441	-0.240653	0.143300
Zn9	Zn	1.112474	-0.240655	-0.016253
O10	O	1.105125	-0.107020	0.088790
C11	C	0.940316	-0.177742	0.046915
C12	C	0.835785	-0.145314	0.038355
C13	C	1.119113	-0.407657	0.107615
C14	C	1.117123	-0.507087	0.133863
C15	C	0.547568	-0.467471	0.123402
C16	C	0.449342	-0.436978	0.115350
C17	C	0.427127	-0.265461	0.070065
C18	C	0.525352	-0.295940	0.078116
C19	C	0.585565	-0.396946	0.104784
C20	C	0.563350	-0.225415	0.059499
C21	C	0.661567	-0.255892	0.067546
C22	C	0.721786	-0.356894	0.094210
C23	C	0.683782	-0.427423	0.112831
C24	C	0.503135	-0.124410	0.032826
C25	C	0.541133	-0.053885	0.014209
C26	C	0.639351	-0.084361	0.022261
C27	C	0.699570	-0.185363	0.048925
C28	C	0.677355	-0.013832	0.003640
C29	C	0.775572	-0.044308	0.011687
C30	C	0.797787	-0.215839	0.056972
C31	C	1.110619	-0.834094	-0.109843
C32	C	1.108744	-0.927521	-0.085157
C33	C	1.108718	-0.927506	0.046857
C34	C	1.110597	-0.834079	0.022183
C35	C	1.111546	-0.787380	-0.056168
C36	C	1.111524	-0.787365	0.075857
C37	C	1.113398	-0.693944	0.051184
C38	C	1.114344	-0.647237	-0.027164
C39	C	1.113420	-0.693959	-0.080841
C40	C	1.110568	-0.834063	0.154207
C41	C	1.111495	-0.787349	0.207881
C42	C	1.113376	-0.693929	0.183209
C43	C	1.114322	-0.647222	0.104862
C44	C	1.114300	-0.647207	0.236887
C45	C	1.116174	-0.553786	0.212214
C46	C	1.116196	-0.553801	0.080188
C47	C	1.284599	-0.303566	0.080130
C48	C	1.389130	-0.335993	0.088685
C49	C	1.105801	-0.073650	0.019429
C50	C	1.107792	0.025779	-0.006823
N51	N	1.112426	-0.240655	0.252191
N52	N	1.112496	-0.240663	-0.125143
C53	C	1.176379	-0.322841	0.311990
C54	C	1.176385	-0.322847	0.388220
C55	C	1.112447	-0.240654	0.404644
C56	C	1.048482	-0.158459	0.344833
C57	C	1.048472	-0.158459	0.268607
C58	C	1.100219	-0.154547	0.502669
C59	C	1.100236	-0.154547	0.578895
C60	C	1.112474	-0.240652	0.639751
C61	C	1.124714	-0.326765	0.624375
C62	C	1.124704	-0.326766	0.548149
C63	C	1.112451	-0.240645	0.487296
C64	C	1.176436	-0.322851	0.782208
C65	C	1.176436	-0.322856	0.858439
C66	C	1.048538	-0.158461	0.815049
C67	C	1.048534	-0.158463	0.738822
C68	C	1.112488	-0.240658	0.722406
H69	H	0.846817	-0.298088	0.078692
H70	H	0.378088	-0.183222	0.048349
C71	C	0.978248	-0.068007	0.673028
N72	N	0.925326	0.000142	0.623467
C73	C	1.086757	-0.059819	0.435732
N74	N	1.076617	0.011528	0.385316
H75	H	0.418410	-0.494416	0.130512
H76	H	1.109032	-0.910128	0.174292
H77	H	0.596597	-0.549720	0.145122
C78	C	0.474888	0.057219	-0.015121
N79	N	0.424993	0.140904	-0.037210
H80	H	0.801760	-0.381706	0.100752
C81	C	0.978146	-0.068049	0.362902
N82	N	0.925164	0.000049	0.376511
C83	C	0.978157	-0.068018	0.202817
N84	N	0.925209	0.000113	0.153260
H85	H	1.228511	-0.389786	0.907131
H86	H	1.110719	-0.825383	0.271674
C87	C	1.116407	-0.544471	-0.054305
N88	N	1.117963	-0.467068	-0.074747
H89	H	1.114201	-0.655937	-0.144641
C90	C	1.107670	-0.978884	0.133040
N91	N	1.106883	-1.017582	0.197955
C92	C	1.117199	-0.502400	0.271259
N93	N	1.117970	-0.463696	0.315734
C94	C	1.111667	-0.782721	-0.196033
N95	N	1.112454	-0.744026	-0.260948
H96	H	1.107981	-0.965548	-0.128872
H97	H	1.113518	-0.685240	0.300679
H98	H	0.732812	-0.509672	0.134551
H99	H	1.228452	-0.389771	0.298628
C100	C	0.395093	-0.090887	0.023972
N101	N	0.313715	-0.065639	0.017303
C102	C	0.817372	0.033273	-0.008792
N103	N	0.848855	0.091709	-0.024218
C104	C	0.611108	0.097272	-0.025697
N105	N	0.561211	0.180956	-0.047793
C106	C	1.246750	-0.413256	0.454008
N107	N	1.299753	-0.481350	0.503557
C108	C	1.138155	-0.421485	0.531237
N109	N	1.148282	-0.492827	0.518499
H110	H	1.134679	-0.396880	0.673925
H111	H	1.116977	-0.515780	0.016388
H112	H	1.228509	-0.389781	0.768843
H113	H	0.996475	-0.091540	0.828421
H114	H	1.090275	-0.084430	0.591407
