data_functionalizedCrystal
_audit_creation_method	'MofGen! by Chris Wilmer'
_symmetry_space_group_name_H-M	'P1'
_symmetry_Int_Tables_number	1
_symmetry_cell_setting	triclinic
loop_
_symmetry_equiv_pos_as_xyz
  x,y,z
_cell_length_a	19.805407
_cell_length_b	19.805405
_cell_length_c	19.805399
_cell_angle_alpha	90.029301
_cell_angle_beta	90.019573
_cell_angle_gamma	90.026410
loop_
_atom_site_label
_atom_site_type_symbol
_atom_site_fract_x
_atom_site_fract_y
_atom_site_fract_z
Zn1	Zn	1.034736	-0.269479	0.382712
Zn2	Zn	1.534736	0.230521	0.882712
Zn3	Zn	1.034651	-0.382667	0.269520
Zn4	Zn	1.534651	0.117333	0.769520
Zn5	Zn	0.921550	-0.269498	0.269536
Zn6	Zn	1.421550	0.230502	0.769536
Zn7	Zn	0.921514	-0.382631	0.382667
Zn8	Zn	1.421514	0.117369	0.882667
O9	O	0.978113	-0.326069	0.326109
O10	O	1.478113	0.173931	0.826109
O11	O	1.129441	-0.284501	0.367708
O12	O	1.629441	0.215499	0.867708
O13	O	1.019627	-0.367678	0.174805
O14	O	1.519627	0.132322	0.674805
O15	O	0.936616	-0.174778	0.284575
O16	O	1.436616	0.325222	0.784575
O17	O	1.129378	-0.367660	0.284547
O18	O	1.629378	0.132340	0.784547
O19	O	1.019772	-0.174765	0.367724
O20	O	1.519772	0.325235	0.867724
O21	O	0.936533	-0.284533	0.174817
O22	O	1.436533	0.215467	0.674817
O23	O	0.826829	-0.284498	0.284531
O24	O	1.326829	0.215502	0.784531
O25	O	0.936553	-0.367598	0.477389
O26	O	1.436553	0.132402	0.977389
O27	O	0.826802	-0.367617	0.367648
O28	O	1.326802	0.132383	0.867648
O29	O	1.019737	-0.284466	0.477422
O30	O	1.519737	0.215534	0.977422
O31	O	1.019592	-0.477379	0.284503
O32	O	1.519592	0.022621	0.784503
O33	O	0.936471	-0.477353	0.367632
O34	O	1.436471	0.022647	0.867632
C35	C	0.802257	-0.326056	0.326087
C36	C	1.302257	0.173944	0.826087
C37	C	0.727025	-0.326067	0.326093
C38	C	1.227025	0.173933	0.826093
C39	C	0.691684	-0.369412	0.369302
C40	C	1.191684	0.130588	0.869302
C41	C	0.620996	-0.369413	0.369312
C42	C	1.120996	0.130587	0.869312
C43	C	0.585649	-0.326072	0.326109
C44	C	1.085649	0.173928	0.826109
C45	C	0.620994	-0.282722	0.282898
C46	C	1.120994	0.217278	0.782898
C47	C	0.691681	-0.282718	0.282892
C48	C	1.191681	0.217282	0.782892
C49	C	0.335921	-0.282737	0.282920
C50	C	0.835921	0.217263	0.782920
C51	C	0.265229	-0.282746	0.282928
C52	C	0.765229	0.217254	0.782928
C53	C	0.265235	-0.369432	0.369340
C54	C	0.765235	0.130568	0.869340
C55	C	0.335922	-0.369428	0.369334
C56	C	0.835922	0.130572	0.869334
C57	C	0.371262	-0.326076	0.326126
C58	C	0.871262	0.173924	0.826126
C59	C	0.447910	-0.326074	0.326117
C60	C	0.947910	0.173926	0.826117
C61	C	0.509002	-0.326076	0.326114
C62	C	1.009002	0.173924	0.826114
C63	C	0.978036	-0.501925	0.326076
C64	C	1.478036	-0.001925	0.826076
C65	C	0.978066	-0.577157	0.326084
C66	C	1.478066	-0.077157	0.826084
C67	C	1.021389	-0.612492	0.282845
C68	C	1.521389	-0.112492	0.782845
C69	C	1.021418	-0.683181	0.282860
C70	C	1.521418	-0.183181	0.782860
C71	C	0.978119	-0.718532	0.326111
C72	C	1.478119	-0.218532	0.826111
C73	C	0.934794	-0.683192	0.369356
C74	C	1.434794	-0.183192	0.869356
C75	C	0.934769	-0.612505	0.369344
C76	C	1.434769	-0.112505	0.869344
C77	C	0.934894	-0.968265	0.369406
C78	C	1.434894	-0.468265	0.869406
C79	C	0.934921	-1.038957	0.369413
C80	C	1.434921	-0.538957	0.869413
C81	C	1.021542	-1.038941	0.282922
C82	C	1.521542	-0.538941	0.782922
C83	C	1.021517	-0.968254	0.282910
C84	C	1.521517	-0.468254	0.782910
C85	C	0.978195	-0.932920	0.326157
C86	C	1.478195	-0.432920	0.826157
C87	C	0.978166	-0.856271	0.326141
C88	C	1.478166	-0.356271	0.826141
C89	C	0.978145	-0.795179	0.326124
C90	C	1.478145	-0.295179	0.826124
C91	C	1.154655	-0.326082	0.326131
C92	C	1.654655	0.173918	0.826131
C93	C	1.229887	-0.326088	0.326140
C94	C	1.729887	0.173912	0.826140
C95	C	0.978151	-0.326026	0.502651
C96	C	1.478151	0.173974	1.002651
C97	C	0.978167	-0.326008	0.577883
C98	C	1.478167	0.173992	1.077883
C99	C	0.978207	-0.149526	0.326156
C100	C	1.478207	0.350474	0.826156
C101	C	0.978248	-0.074294	0.326177
C102	C	1.478248	0.425706	0.826177
C103	C	0.978114	-0.326062	0.150253
C104	C	1.478114	0.173938	0.650253
C105	C	0.978229	-0.325890	0.075021
C106	C	1.478229	0.174110	0.575021
C107	C	1.021481	-0.282719	0.613246
C108	C	1.521481	0.217281	1.113246
C109	C	1.021488	-0.282699	0.683934
C110	C	1.521488	0.217301	1.183934
C111	C	0.978184	-0.325973	0.719259
C112	C	1.478184	0.174027	1.219259
C113	C	0.934864	-0.369264	0.683892
C114	C	1.434864	0.130736	1.183892
C115	C	0.934854	-0.369279	0.613204
C116	C	1.434854	0.130721	1.113204
C117	C	0.934902	-0.369201	0.968965
C118	C	1.434902	0.130799	1.468965
C119	C	0.934917	-0.369183	1.039657
C120	C	1.434917	0.130817	1.539657
C121	C	1.021536	-0.282620	1.039695
C122	C	1.521536	0.217380	1.539695
C123	C	1.021527	-0.282636	0.969008
C124	C	1.521527	0.217364	1.469008
C125	C	0.978205	-0.325924	0.933647
C126	C	1.478205	0.174076	1.433647
C127	C	0.978197	-0.325944	0.856998
C128	C	1.478197	0.174056	1.356998
C129	C	0.978194	-0.325957	0.795906
C130	C	1.478194	0.174043	1.295906
H131	H	0.592209	-0.247430	0.247724
H132	H	1.092209	0.252570	0.747724
O133	O	1.063493	-0.240557	0.934625
O134	O	1.563493	0.259443	1.434625
C135	C	1.072612	-0.149150	0.854892
C136	C	1.572612	0.350850	1.354892
C137	C	1.025014	-0.196781	0.893771
C138	C	1.525014	0.303219	1.393771
H139	H	1.041520	-0.113736	0.821863
H140	H	1.541520	0.386264	1.321863
H141	H	1.107978	-0.180184	0.821744
H142	H	1.607978	0.319816	1.321744
H143	H	1.103580	-0.118236	0.892328
H144	H	1.603580	0.381764	1.392328
H145	H	0.994002	-0.227705	0.856384
H146	H	1.494002	0.272295	1.356384
H147	H	0.989693	-0.165708	0.926929
H148	H	1.489693	0.334292	1.426929
O149	O	0.370288	-0.411599	0.411206
O150	O	0.870288	0.088401	0.911206
C151	C	0.450100	-0.502956	0.420148
C152	C	0.950100	-0.002956	0.920148
C153	C	0.411212	-0.455253	0.372646
C154	C	0.911212	0.044747	0.872646
H155	H	0.483207	-0.538252	0.388992
H156	H	0.983207	-0.038252	0.888992
H157	H	0.412730	-0.533985	0.451023
H158	H	0.912730	-0.033985	0.951023
H159	H	0.483190	-0.471906	0.455604
H160	H	0.983190	0.028094	0.955604
H161	H	0.378122	-0.486251	0.337149
H162	H	0.878122	0.013749	0.837149
H163	H	0.448619	-0.424221	0.341818
H164	H	0.948619	0.075779	0.841818
H165	H	0.364686	-0.247442	0.247733
H166	H	0.864686	0.252558	0.747733
O167	O	0.892739	-0.934052	0.411426
O168	O	1.392739	-0.434052	0.911426
C169	C	0.806834	-0.941534	0.497229
C170	C	1.306834	-0.441534	0.997229
C171	C	0.854536	-0.980368	0.449668
C172	C	1.354536	-0.480368	0.949668
H173	H	0.775944	-0.978964	0.528170
H174	H	1.275944	-0.478964	1.028170
H175	H	0.771406	-0.908512	0.466142
H176	H	1.271406	-0.408512	0.966142
H177	H	0.837878	-0.908370	0.532621
H178	H	1.337878	-0.408370	1.032621
H179	H	0.823547	-1.013569	0.414266
H180	H	1.323547	-0.513569	0.914266
H181	H	0.889965	-1.013347	0.480797
H182	H	1.389965	-0.513347	0.980797
O183	O	0.892957	-1.073373	0.411468
O184	O	1.392957	-0.573373	0.911468
C185	C	0.883842	-1.153102	0.502879
C186	C	1.383842	-0.653102	1.002879
C187	C	0.931438	-1.114180	0.455288
C188	C	1.431438	-0.614180	0.955288
H189	H	0.914935	-1.186093	0.538328
H190	H	1.414935	-0.686093	1.038328
H191	H	0.848488	-1.186291	0.471816
H192	H	1.348488	-0.686291	0.971816
H193	H	0.852860	-1.115693	0.533757
H194	H	1.352860	-0.615693	1.033757
H195	H	0.962463	-1.151540	0.424399
H196	H	1.462463	-0.651540	0.924399
H197	H	0.966747	-1.080981	0.486390
H198	H	1.466747	-0.580981	0.986390
O199	O	1.063731	-1.073185	0.240950
O200	O	1.563731	-0.573185	0.740950
C201	C	1.178899	-1.094747	0.208234
C202	C	1.678899	-0.594747	0.708234
C203	C	1.131197	-1.055918	0.255799
C204	C	1.631197	-0.555918	0.755799
H205	H	1.233456	-1.080811	0.220232
H206	H	1.733456	-0.580811	0.720232
H207	H	1.167096	-1.080880	0.153633
H208	H	1.667096	-0.580880	0.653633
H209	H	1.171457	-1.151340	0.215655
H210	H	1.671457	-0.651340	0.715655
H211	H	1.138613	-0.999316	0.248439
H212	H	1.638613	-0.499316	0.748439
H213	H	1.143013	-1.069842	0.310383
H214	H	1.643013	-0.569842	0.810383
O215	O	0.892859	-0.411433	0.578877
O216	O	1.392859	0.088567	1.078877
C217	C	0.859928	-0.526570	0.557232
C218	C	1.359928	-0.026570	1.057232
C219	C	0.907539	-0.478908	0.596139
C220	C	1.407539	0.021092	1.096139
H221	H	0.871770	-0.581133	0.571184
H222	H	1.371770	-0.081133	1.071184
H223	H	0.867366	-0.519204	0.500636
H224	H	1.367366	-0.019204	1.000636
H225	H	0.805360	-0.514649	0.571109
H226	H	1.305360	-0.014649	1.071109
H227	H	0.962125	-0.490800	0.582319
H228	H	1.462125	0.009200	1.082319
H229	H	0.900042	-0.486283	0.652726
H230	H	1.400042	0.013717	1.152726
O231	O	0.892756	-0.717635	0.411307
O232	O	1.392756	-0.217635	0.911307
C233	C	0.854427	-0.826537	0.449685
C234	C	1.354427	-0.326537	0.949685
C235	C	0.902062	-0.787617	0.402131
C236	C	1.402062	-0.287617	0.902131
H237	H	0.861945	-0.883124	0.442293
H238	H	1.361945	-0.383124	0.942293
H239	H	0.799837	-0.812740	0.437745
H240	H	1.299837	-0.312740	0.937745
H241	H	0.866268	-0.812553	0.504264
H242	H	1.366268	-0.312553	1.004264
H243	H	0.890282	-0.801580	0.347536
H244	H	1.390282	-0.301580	0.847536
H245	H	0.956637	-0.801417	0.414130
H246	H	1.456637	-0.301417	0.914130
H247	H	0.899492	-0.583735	0.404555
H248	H	1.399492	-0.083735	0.904555
O249	O	0.725909	-0.240595	0.240851
O250	O	1.225909	0.259405	0.740851
C251	C	0.718447	-0.154588	0.155164
C252	C	1.218447	0.345412	0.655164
C253	C	0.679602	-0.202271	0.202729
C254	C	1.179602	0.297729	0.702729
H255	H	0.681025	-0.123580	0.124340
H256	H	1.181025	0.376420	0.624340
H257	H	0.751494	-0.185584	0.119669
H258	H	1.251494	0.314416	0.619669
H259	H	0.751588	-0.119263	0.186310
H260	H	1.251588	0.380737	0.686310
H261	H	0.646425	-0.237605	0.171637
H262	H	1.146425	0.262395	0.671637
H263	H	0.646597	-0.171233	0.238226
H264	H	1.146597	0.328767	0.738226
O265	O	1.063512	-0.578259	0.240806
O266	O	1.563512	-0.078259	0.740806
C267	C	1.149405	-0.585712	0.154987
C268	C	1.649405	-0.085712	0.654987
C269	C	1.101745	-0.624562	0.202573
C270	C	1.601745	-0.124562	0.702573
H271	H	1.180318	-0.623131	0.124053
H272	H	1.680318	-0.123131	0.624053
H273	H	1.184812	-0.552586	0.186055
H274	H	1.684812	-0.052586	0.686055
H275	H	1.118327	-0.552651	0.119590
H276	H	1.618327	-0.052651	0.619590
H277	H	1.132768	-0.657660	0.237980
H278	H	1.632768	-0.157660	0.737980
H279	H	1.066335	-0.657646	0.171463
H280	H	1.566335	-0.157646	0.671463
O281	O	0.230801	-0.411477	0.411297
O282	O	0.730801	0.088523	0.911297
C283	C	0.121908	-0.449935	0.449581
C284	C	0.621908	0.050065	0.949581
C285	C	0.160817	-0.402274	0.402046
C286	C	0.660817	0.097726	0.902046
H287	H	0.065319	-0.442522	0.442108
H288	H	0.565319	0.057478	0.942108
H289	H	0.135786	-0.438121	0.504194
H290	H	0.635786	0.061879	1.004194
H291	H	0.135820	-0.504488	0.437598
H292	H	0.635820	-0.004488	0.937598
H293	H	0.146926	-0.347705	0.413968
H294	H	0.646926	0.152295	0.913968
H295	H	0.146935	-0.414146	0.347447
H296	H	0.646935	0.085854	0.847447
H297	H	1.056695	-0.711948	0.247649
H298	H	1.556695	-0.211948	0.747649
H299	H	1.056773	-0.939473	0.247688
H300	H	1.556773	-0.439473	0.747688
H301	H	0.236452	-0.247448	0.247747
H302	H	0.736452	0.252552	0.747747
H303	H	1.056747	-0.247482	0.584489
H304	H	1.556747	0.252518	1.084489
O305	O	0.892943	-0.411293	1.074002
O306	O	1.392943	0.088707	1.574002
C307	C	0.883798	-0.502631	1.153811
C308	C	1.383798	-0.002631	1.653811
C309	C	0.931406	-0.454996	1.114948
C310	C	1.431406	0.045004	1.614948
H311	H	0.914876	-0.537967	1.186936
H312	H	1.414876	-0.037967	1.686936
H313	H	0.852845	-0.533621	1.116425
H314	H	1.352845	-0.033621	1.616425
H315	H	0.848420	-0.471530	1.186881
H316	H	1.348420	0.028470	1.686881
H317	H	0.966826	-0.486045	1.081878
H318	H	1.466826	0.013955	1.581878
H319	H	0.962312	-0.424003	1.152371
H320	H	1.462312	0.075997	1.652371
H321	H	1.056761	-0.247450	0.712723
H322	H	1.556761	0.252550	1.212723
H323	H	1.056809	-0.247370	1.068495
H324	H	1.556809	0.252630	1.568495
H325	H	0.899637	-0.404459	0.940183
H326	H	1.399637	0.095541	1.440183
H327	H	0.899602	-0.404495	0.712659
H328	H	1.399602	0.095505	1.212659
H329	H	0.592225	-0.404709	0.404496
H330	H	1.092225	0.095291	0.904496
O331	O	0.725912	-0.411535	0.411335
O332	O	1.225912	0.088465	0.911335
C333	C	0.718450	-0.497544	0.497023
C334	C	1.218450	0.002456	0.997023
C335	C	0.679605	-0.449864	0.449463
C336	C	1.179605	0.050136	0.949463
H337	H	0.681027	-0.528555	0.527852
H338	H	1.181027	-0.028555	1.027852
H339	H	0.751552	-0.466545	0.532513
H340	H	1.251552	0.033455	1.032513
H341	H	0.751535	-0.532865	0.465871
H342	H	1.251535	-0.032865	0.965871
H343	H	0.646483	-0.414533	0.480560
H344	H	1.146483	0.085467	0.980560
H345	H	0.646545	-0.480904	0.413971
H346	H	1.146545	0.019096	0.913971
