data_functionalizedCrystal
_audit_creation_method	'MofGen! by Chris Wilmer'
_symmetry_space_group_name_H-M	'P1'
_symmetry_Int_Tables_number	1
_symmetry_cell_setting	triclinic
loop_
_symmetry_equiv_pos_as_xyz
  x,y,z
_cell_length_a	17.077404
_cell_length_b	29.839131
_cell_length_c	17.077395
_cell_angle_alpha	90.038308
_cell_angle_beta	90.014502
_cell_angle_gamma	90.033199
loop_
_atom_site_label
_atom_site_type_symbol
_atom_site_fract_x
_atom_site_fract_y
_atom_site_fract_z
Zn1	Zn	1.199957	-0.178883	0.443758
Zn2	Zn	1.199845	-0.254012	0.312467
Zn3	Zn	1.068698	-0.178894	0.312509
Zn4	Zn	1.068629	-0.253984	0.443693
O5	O	1.134282	-0.216444	0.378107
O6	O	1.309789	-0.188856	0.426352
O7	O	1.182430	-0.244064	0.202626
O8	O	1.086186	-0.116026	0.329964
O9	O	1.309707	-0.244053	0.329893
O10	O	1.182621	-0.116018	0.426393
O11	O	1.086077	-0.188875	0.202656
O12	O	0.958842	-0.188848	0.329901
O13	O	1.086068	-0.244006	0.553549
O14	O	0.958791	-0.244016	0.426282
O15	O	1.182554	-0.188829	0.553597
O16	O	1.182363	-0.316876	0.329830
O17	O	1.085959	-0.316855	0.426241
C18	C	0.930334	-0.216431	0.378089
C19	C	0.843085	-0.216436	0.378100
C20	C	0.802138	-0.187746	0.428403
C21	C	0.720158	-0.187749	0.428407
C22	C	0.679125	-0.216445	0.378111
C23	C	0.720077	-0.245136	0.327802
C24	C	0.802056	-0.245130	0.327795
C25	C	0.549207	-0.245146	0.327822
C26	C	0.467223	-0.245152	0.327830
C27	C	0.467309	-0.187765	0.428433
C28	C	0.549288	-0.187759	0.428426
C29	C	0.590234	-0.216451	0.378119
C30	C	1.134163	-0.333166	0.378041
C31	C	1.134183	-0.383101	0.378039
C32	C	1.184485	-0.692705	0.428389
C33	C	1.184571	-0.880378	0.428436
O34	O	1.227222	-0.904609	0.471196
N35	N	1.134416	-0.903886	0.378194
C36	C	1.084232	-0.880472	0.327940
O37	O	1.041568	-0.904773	0.285213
C38	C	1.084144	-0.692800	0.327898
C39	C	1.134307	-0.669295	0.378137
C40	C	1.234645	-0.669199	0.478625
C41	C	1.234626	-0.622284	0.478609
C42	C	1.184448	-0.598874	0.428358
C43	C	1.134289	-0.622379	0.378122
C44	C	1.033957	-0.669388	0.277649
C45	C	1.033938	-0.622467	0.277644
C46	C	1.084101	-0.598961	0.327883
C47	C	1.084092	-0.552054	0.327855
N48	N	1.134247	-0.528546	0.378097
C49	C	1.184425	-0.551956	0.428348
C50	C	1.084283	-0.979003	0.327965
C51	C	1.084306	-1.025921	0.327975
C52	C	1.184644	-1.025823	0.428471
C53	C	1.184624	-0.978904	0.428457
C54	C	1.134438	-0.955495	0.378207
C55	C	1.184382	-0.453430	0.428312
C56	C	1.184361	-0.406511	0.428290
C57	C	1.084021	-0.406612	0.327797
C58	C	1.084044	-0.453528	0.327815
C59	C	1.134228	-0.476936	0.378079
O60	O	1.041457	-0.527793	0.285124
O61	O	1.227070	-0.527647	0.471081
C62	C	1.184504	-0.739620	0.428404
C63	C	1.134345	-0.763126	0.378168
C64	C	1.084167	-0.739716	0.327916
C65	C	1.134368	-0.810043	0.378177
C66	C	1.184546	-0.833454	0.428429
C67	C	1.234701	-0.809946	0.478671
C68	C	1.234682	-0.763030	0.478655
C69	C	1.034012	-0.763223	0.277675
C70	C	1.034036	-0.810139	0.277693
C71	C	1.084214	-0.833549	0.327945
C72	C	1.339027	-0.216457	0.378125
C73	C	1.426276	-0.216462	0.378133
C74	C	1.134316	-0.216413	0.582851
C75	C	1.134330	-0.216400	0.670101
C76	C	1.134424	-0.099265	0.378190
C77	C	1.134484	-0.049331	0.378226
C78	C	1.134294	-0.216442	0.174159
C79	C	1.134432	-0.216328	0.086910
C80	C	1.184658	-0.187609	1.045942
C81	C	1.184642	-0.187624	0.963961
C82	C	1.134395	-0.216358	0.922950
C83	C	1.084167	-0.245080	0.963924
C84	C	1.084187	-0.245066	1.045903
C85	C	1.084126	-0.245106	0.793053
C86	C	1.084104	-0.245119	0.711069
C87	C	1.184581	-0.187664	0.711112
C88	C	1.184601	-0.187650	0.793091
C89	C	1.134372	-0.216372	0.834059
H90	H	0.835394	-0.268492	0.286833
H91	H	0.582694	-0.164396	0.469386
H92	H	1.043258	-0.268477	0.930526
O93	O	0.680421	-0.159928	0.477387
C94	C	0.700487	-0.169799	0.555584
H95	H	0.722989	-0.205692	0.559418
H96	H	0.748103	-0.145729	0.576182
C97	C	0.600050	-0.120529	0.603290
C98	C	0.627681	-0.164614	0.608000
H99	H	0.555141	-0.117328	0.635625
H100	H	0.586532	-0.113877	0.550607
H101	H	0.639737	-0.100475	0.620454
H102	H	0.587998	-0.184666	0.590828
H103	H	0.641190	-0.171269	0.660682
O104	O	1.233115	-0.383747	0.477172
C105	C	1.277417	-0.414475	0.521515
H106	H	1.245274	-0.447932	0.524210
H107	H	1.337056	-0.419451	0.492826
C108	C	1.328147	-0.355028	0.601755
C109	C	1.288665	-0.396120	0.605071
H110	H	1.335089	-0.343705	0.653296
H111	H	1.298303	-0.334326	0.571879
H112	H	1.377842	-0.359180	0.577845
H113	H	1.238968	-0.391965	0.628973
H114	H	1.318502	-0.416821	0.634954
H115	H	1.225513	-0.164252	0.826480
O116	O	1.035322	-0.272978	1.085580
C117	C	0.990981	-0.298350	1.031806
H118	H	0.988270	-0.279957	0.973381
H119	H	1.019683	-0.332473	1.023063
C120	C	0.910769	-0.327404	1.135556
C121	C	0.907432	-0.304812	1.063800
H122	H	0.859233	-0.331392	1.155292
H123	H	0.940643	-0.310312	1.171786
H124	H	0.934690	-0.355837	1.128261
H125	H	0.883520	-0.276377	1.071098
H126	H	0.877552	-0.321900	1.027572
H127	H	0.835541	-0.164380	0.469362
H128	H	0.993067	-0.603409	0.236725
O129	O	0.427453	-0.159954	0.477341
C130	C	0.380043	-0.185573	0.527967
H131	H	0.367720	-0.219598	0.500161
H132	H	0.411654	-0.190555	0.586117
C133	C	0.317335	-0.119080	0.576429
C134	C	0.302194	-0.160867	0.542275
H135	H	0.269316	-0.103839	0.585259
H136	H	0.349278	-0.101819	0.542324
H137	H	0.343680	-0.123237	0.624884
H138	H	0.275859	-0.156710	0.493817
H139	H	0.270245	-0.178127	0.576373
H140	H	1.043203	-0.472667	0.286900
H141	H	0.433816	-0.268519	0.286875
H142	H	0.686662	-0.268498	0.286847
O143	O	0.588863	-0.273061	0.278932
C144	C	0.535069	-0.298384	0.234530
H145	H	0.476640	-0.299965	0.266679
H146	H	0.526347	-0.281893	0.174966
C147	C	0.638783	-0.344248	0.183573
C148	C	0.567021	-0.346192	0.223063
H149	H	0.658493	-0.373738	0.176496
H150	H	0.675025	-0.327187	0.213485
H151	H	0.631505	-0.330503	0.133941
H152	H	0.574302	-0.359932	0.272697
H153	H	0.530780	-0.363257	0.193159
O154	O	1.233542	-0.159682	1.085655
C155	C	1.277856	-0.134330	1.031912
H156	H	1.280534	-0.152742	0.973463
H157	H	1.249152	-0.100209	1.023215
C158	C	1.358127	-0.105243	1.135698
C159	C	1.361423	-0.127859	1.063912
H160	H	1.409674	-0.101249	1.155437
H161	H	1.328271	-0.122322	1.171907
H162	H	1.334204	-0.076811	1.128440
H163	H	1.385336	-0.156292	1.071172
H164	H	1.391285	-0.110785	1.027705
H165	H	1.225241	-0.472483	0.469247
H166	H	1.275560	-0.829014	0.519584
O167	O	1.283376	-0.599524	0.527491
C168	C	1.327676	-0.630255	0.571827
H169	H	1.295530	-0.663712	0.574516
H170	H	1.387314	-0.635231	0.543138
C171	C	1.378410	-0.570814	0.652081
C172	C	1.338925	-0.611906	0.655388
H173	H	1.385352	-0.559496	0.703624
H174	H	1.348567	-0.550110	0.622209
H175	H	1.428104	-0.574967	0.628169
H176	H	1.289228	-0.607752	0.679290
H177	H	1.368760	-0.632609	0.685266
H178	H	1.225543	-0.164240	0.930609
H179	H	1.043226	-0.268496	0.826407
H180	H	1.275505	-0.688255	0.519550
H181	H	1.225472	-0.959769	0.469367
O182	O	1.035217	-0.272975	0.671208
C183	C	0.984533	-0.247416	0.623786
H184	H	0.979721	-0.212026	0.648502
H185	H	1.008783	-0.245884	0.561653
C186	C	0.908823	-0.312836	0.592172
C187	C	0.902907	-0.269371	0.622533
H188	H	0.858473	-0.326380	0.591396
H189	H	0.942971	-0.330057	0.624119
H190	H	0.929033	-0.311554	0.540398
H191	H	0.882706	-0.270654	0.674309
H192	H	0.868754	-0.252151	0.590595
H193	H	1.225478	-0.164277	0.677752
H194	H	1.225502	-1.044891	0.469387
H195	H	1.043466	-1.045055	0.287056
H196	H	1.043415	-0.959946	0.287043
H197	H	0.993108	-0.688518	0.236738
O198	O	1.283433	-0.740270	0.527536
C199	C	1.327732	-0.771001	0.571873
H200	H	1.295587	-0.804458	0.574561
H201	H	1.387370	-0.775977	0.543183
C202	C	1.378467	-0.711561	0.652126
C203	C	1.338982	-0.752652	0.655433
H204	H	1.385410	-0.700242	0.703669
H205	H	1.348624	-0.690856	0.622254
H206	H	1.428161	-0.715713	0.628214
H207	H	1.289285	-0.748498	0.679336
H208	H	1.368817	-0.773356	0.685312
O209	O	0.985229	-0.832900	0.228861
C210	C	0.940953	-0.802171	0.184496
H211	H	0.938213	-0.768712	0.216638
H212	H	0.969731	-0.797197	0.124900
C213	C	0.860784	-0.861613	0.133643
C214	C	0.857412	-0.820520	0.173123
H215	H	0.809253	-0.872932	0.126624
H216	H	0.890615	-0.882317	0.163529
H217	H	0.884769	-0.857463	0.083984
H218	H	0.833437	-0.824672	0.222784
H219	H	0.827575	-0.799818	0.143244
O220	O	0.985379	-0.740437	0.228817
C221	C	1.030093	-0.713312	0.178134
H222	H	1.089557	-0.706237	0.205874
H223	H	1.038770	-0.731421	0.119980
C224	C	0.913856	-0.677463	0.129784
C225	C	0.986888	-0.668771	0.163858
H226	H	0.887205	-0.649989	0.120974
H227	H	0.883730	-0.695738	0.163928
H228	H	0.921097	-0.692555	0.081326
H229	H	0.979646	-0.653684	0.212319
H230	H	1.017012	-0.650492	0.129722
H231	H	1.043169	-0.387545	0.286880
