data_functionalizedCrystal
_audit_creation_method	'MofGen! by Chris Wilmer'
_symmetry_space_group_name_H-M	'P1'
_symmetry_Int_Tables_number	1
_symmetry_cell_setting	triclinic
loop_
_symmetry_equiv_pos_as_xyz
  x,y,z
_cell_length_a	33.592126
_cell_length_b	33.591377
_cell_length_c	33.588093
_cell_angle_alpha	60.004089
_cell_angle_beta	60.008299
_cell_angle_gamma	59.994549
loop_
_atom_site_label
_atom_site_type_symbol
_atom_site_fract_x
_atom_site_fract_y
_atom_site_fract_z
O1	O	0.055297	-0.581666	0.486338
O2	O	0.020882	-0.452873	0.391864
O3	O	0.102445	-0.534352	0.391775
O4	O	-0.026266	-0.500187	0.486427
O5	O	0.129510	-0.507292	0.418747
O6	O	0.047947	-0.425814	0.418835
O7	O	0.082362	-0.554606	0.513309
Cu8	Cu	0.067626	-0.487739	0.468535
Cu9	Cu	0.035618	-0.519740	0.436638
O10	O	0.000799	-0.473128	0.513398
N11	N	0.090139	-0.465235	0.490972
N12	N	0.013110	-0.542249	0.414202
C13	C	0.124394	-0.431229	0.734914
C14	C	0.334265	-0.431145	0.524799
C15	C	0.124204	-0.431200	0.524965
C16	C	0.124184	-0.221175	0.524955
C17	C	0.158017	-0.322536	0.558710
C18	C	0.158027	-0.397406	0.558711
C19	C	0.176763	-0.378688	0.577408
C20	C	0.258412	-0.364594	0.534386
C21	C	0.309454	-0.381596	0.517340
C22	C	0.309485	-0.464188	0.548836
C23	C	0.258444	-0.447186	0.565883
C24	C	0.170304	-0.297002	0.508532
C25	C	0.153260	-0.245956	0.491537
C26	C	0.111648	-0.245983	0.574901
C27	C	0.128691	-0.297029	0.591896
C28	C	0.107841	-0.385091	0.571080
C29	C	0.090813	-0.402108	0.554078
C30	C	0.174153	-0.443755	0.512351
C31	C	0.191183	-0.426739	0.529347
C32	C	0.107923	-0.385106	0.659111
C33	C	0.090955	-0.402138	0.710156
C34	C	0.174335	-0.443795	0.710087
C35	C	0.191302	-0.426764	0.659041
C36	C	0.158095	-0.397418	0.633555
C37	C	0.232909	-0.397388	0.558656
C38	C	0.105069	-0.449619	0.791057
C39	C	0.390406	-0.449193	0.505789
C40	C	0.104813	-0.449599	0.506607
C41	C	0.105125	-0.165028	0.506915
C42	C	-0.020560	-0.576246	0.169890
C43	C	-0.020889	-0.786183	0.379970
C44	C	-0.020859	-0.576235	0.380063
C45	C	-0.230772	-0.576015	0.379658
C46	C	-0.129417	-0.609898	0.346025
C47	C	-0.054587	-0.609979	0.346172
C48	C	-0.073269	-0.628671	0.327396
C49	C	-0.087401	-0.710299	0.370335
C50	C	-0.070424	-0.761345	0.387369
C51	C	0.012165	-0.761428	0.356003
C52	C	-0.004813	-0.710383	0.338967
C53	C	-0.155001	-0.622196	0.396191
C54	C	-0.206043	-0.605128	0.413125
C55	C	-0.205914	-0.563467	0.329724
C56	C	-0.154872	-0.580535	0.312790
C57	C	-0.066886	-0.559797	0.333828
C58	C	-0.049903	-0.542809	0.350903
C59	C	-0.008321	-0.626180	0.392654
C60	C	-0.025304	-0.643170	0.375585
C61	C	-0.066758	-0.559805	0.245702
C62	C	-0.049671	-0.542819	0.194658
C63	C	-0.008026	-0.626194	0.194706
C64	C	-0.025111	-0.643179	0.245752
C65	C	-0.054479	-0.609983	0.271248
C66	C	-0.054597	-0.684821	0.346135
C67	C	-0.002109	-0.556901	0.113746
C68	C	-0.002869	-0.842328	0.398966
C69	C	-0.002496	-0.556887	0.398501
C70	C	-0.286914	-0.556929	0.397631
N71	N	0.436349	-0.465146	0.490703
O72	O	0.592194	-0.469605	0.374236
O73	O	0.592389	-0.564393	0.502890
O74	O	0.592305	-0.564176	0.421300
O75	O	0.592277	-0.469822	0.455826
O76	O	0.511216	-0.537214	0.448415
O77	O	0.511300	-0.537431	0.530004
O78	O	0.511104	-0.442643	0.401350
Cu79	Cu	0.503798	-0.487575	0.468153
Cu80	Cu	0.599695	-0.519461	0.436087
O81	O	0.511188	-0.442860	0.482940
N82	N	0.667145	-0.541890	0.413532
N83	N	0.090108	-0.119085	0.490958
O84	O	-0.026275	0.036848	0.486394
O85	O	0.102381	0.036888	0.391584
O86	O	0.020751	0.036852	0.391854
O87	O	0.055356	0.036884	0.486124
O88	O	0.047821	-0.044242	0.418876
O89	O	0.129452	-0.044207	0.418606
O90	O	0.000796	-0.044246	0.513417
Cu91	Cu	0.067596	-0.051631	0.468479
Cu92	Cu	0.035582	0.044273	0.436522
O93	O	0.082426	-0.044211	0.513146
N94	N	0.013063	0.111726	0.414043
N95	N	0.090453	-0.465282	0.837001
O96	O	0.085913	-0.581648	0.992925
O97	O	-0.008857	-0.452947	0.992970
O98	O	-0.008635	-0.534562	0.992946
O99	O	0.085691	-0.500033	0.992949
O100	O	0.018365	-0.507512	0.911855
O101	O	0.018143	-0.425898	0.911878
O102	O	0.112912	-0.554598	0.911834
Cu103	Cu	0.067993	-0.487778	0.904452
Cu104	Cu	0.036063	-0.519767	1.000352
O105	O	0.112691	-0.472984	0.911857
N106	N	0.013602	-0.542269	1.067803
C107	C	0.031188	-0.423114	0.392334
C108	C	0.132194	-0.524016	0.392223
C109	C	0.072056	-0.584366	0.512840
C110	C	-0.028950	-0.483464	0.512950
C111	C	0.551868	-0.563965	0.532655
C112	C	0.551766	-0.563697	0.431617
C113	C	0.551623	-0.443070	0.371586
C114	C	0.551728	-0.443339	0.472623
C115	C	0.132090	-0.003555	0.392006
C116	C	0.031035	-0.003698	0.392374
C117	C	-0.028947	-0.003703	0.512961
C118	C	0.072143	-0.003661	0.512626
C119	C	-0.008408	-0.423209	0.952430
C120	C	-0.008128	-0.524272	0.952385
C121	C	0.112464	-0.584336	0.952374
C122	C	0.112190	-0.483267	0.952401
H123	H	0.080878	-0.361206	0.638363
O124	O	0.147977	-0.628433	0.952422
C125	C	0.161074	-0.650026	0.994422
H126	H	0.151194	-0.620461	1.008436
H127	H	0.140619	-0.676636	1.023826
C128	C	0.228495	-0.713919	0.964439
C129	C	0.216363	-0.677605	0.981648
H130	H	0.262600	-0.730933	0.956560
H131	H	0.219671	-0.699372	0.936144
H132	H	0.211445	-0.736088	0.988945
H133	H	0.233409	-0.655433	0.957140
H134	H	0.225192	-0.692149	1.009939
O135	O	0.147533	-0.474507	0.952479
C136	C	0.160685	-0.507943	0.994460
H137	H	0.129459	-0.522240	1.023820
H138	H	0.194638	-0.539683	0.984950
C139	C	0.209719	-0.464718	0.977445
C140	C	0.171365	-0.482275	1.013506
H141	H	0.216309	-0.448887	0.989192
H142	H	0.200860	-0.442193	0.949160
H143	H	0.238009	-0.491172	0.969523
H144	H	0.143074	-0.455822	1.021423
H145	H	0.180219	-0.504796	1.041792
H146	H	0.551779	-0.593338	0.424228
O147	O	0.551571	-0.407625	0.327475
C148	C	0.551536	-0.425177	0.297144
H149	H	0.566934	-0.466709	0.310323
H150	H	0.512620	-0.412816	0.298508
C151	C	0.564355	-0.353932	0.228179
C152	C	0.583271	-0.404943	0.244364
H153	H	0.583928	-0.341449	0.195621
H154	H	0.564376	-0.342106	0.248613
H155	H	0.531925	-0.343638	0.229319
H156	H	0.615697	-0.415236	0.243229
H157	H	0.583255	-0.416770	0.223928
O158	O	0.551695	-0.408023	0.481520
C159	C	0.551770	-0.425792	0.529429
H160	H	0.536460	-0.457114	0.552505
H161	H	0.590687	-0.439364	0.528670
C162	C	0.538769	-0.346088	0.523275
C163	C	0.519960	-0.384556	0.551618
H164	H	0.519149	-0.320651	0.536962
H165	H	0.538720	-0.334116	0.490997
H166	H	0.571199	-0.357404	0.522644
H167	H	0.487533	-0.373240	0.552243
H168	H	0.520003	-0.396524	0.583897
O169	O	0.176096	-0.003249	0.356452
C170	C	0.206432	-0.003152	0.373950
H171	H	0.182986	0.012037	0.405365
H172	H	0.231247	-0.042002	0.387309
C173	C	0.266517	0.010259	0.294000
C174	C	0.237720	0.028919	0.332581
H175	H	0.285819	0.030040	0.268481
H176	H	0.246080	0.010192	0.282211
H177	H	0.287192	-0.022116	0.305138
H178	H	0.217042	0.061291	0.321444
H179	H	0.258155	0.028992	0.344368
O180	O	0.176291	-0.532776	0.356779
C181	C	0.185003	-0.572228	0.345513
H182	H	0.162225	-0.595660	0.377762
H183	H	0.174517	-0.557742	0.312078
C184	C	0.267430	-0.574461	0.295204
C185	C	0.239457	-0.603243	0.334813
H186	H	0.301020	-0.593592	0.288601
H187	H	0.261561	-0.547880	0.302792
H188	H	0.258686	-0.562391	0.267346
H189	H	0.248196	-0.615308	0.362672
H190	H	0.245329	-0.629827	0.327229
H191	H	0.023621	-0.003702	0.362756
O192	O	-0.072989	-0.003799	0.548512
C193	C	-0.066533	-0.045789	0.589598
H194	H	-0.030830	-0.075140	0.577840
H195	H	-0.065393	-0.036284	0.617107
C196	C	-0.153100	-0.028798	0.627640
C197	C	-0.109251	-0.064849	0.613199
H198	H	-0.179451	-0.040555	0.642200
H199	H	-0.157450	-0.000508	0.599961
H200	H	-0.152143	-0.020881	0.650562
H201	H	-0.110206	-0.072761	0.590273
H202	H	-0.104901	-0.093141	0.640875
O203	O	-0.073029	-0.474732	0.548424
C204	C	-0.081753	-0.435264	0.559672
H205	H	-0.045549	-0.431339	0.548876
H206	H	-0.105292	-0.400313	0.538747
C207	C	-0.152857	-0.449485	0.628072
C208	C	-0.108390	-0.444667	0.614815
H209	H	-0.169290	-0.455284	0.662086
H210	H	-0.146981	-0.476074	0.620493
H211	H	-0.172467	-0.420357	0.610630
H212	H	-0.088779	-0.473797	0.632252
H213	H	-0.114264	-0.418083	0.622398
O214	O	0.552019	-0.599480	0.576714
C215	C	0.594030	-0.610762	0.585428
H216	H	0.623345	-0.599941	0.549221
H217	H	0.584542	-0.589878	0.608995
C218	C	0.577131	-0.679207	0.656491
C219	C	0.613138	-0.665920	0.612020
H220	H	0.588917	-0.713230	0.672897
H221	H	0.548827	-0.671605	0.650622
H222	H	0.569228	-0.661800	0.676124
H223	H	0.621036	-0.683323	0.592386
H224	H	0.641444	-0.673526	0.617887
O225	O	0.042199	-0.390105	0.734901
C226	C	0.016532	-0.360562	0.701457
H227	H	0.040851	-0.341997	0.665061
H228	H	0.005516	-0.384110	0.696041
C229	C	-0.059345	-0.344360	0.766108
C230	C	-0.029477	-0.321555	0.721408
H231	H	-0.087727	-0.320300	0.778415
H232	H	-0.042054	-0.364265	0.788640
H233	H	-0.068520	-0.363983	0.761589
H234	H	-0.020298	-0.301937	0.725929
H235	H	-0.046769	-0.301645	0.698877
O236	O	0.080893	-0.003632	0.548009
C237	C	0.039051	-0.003657	0.590104
H238	H	0.005513	0.011683	0.579480
H239	H	0.043011	-0.042565	0.616618
C240	C	0.074491	0.009308	0.627673
C241	C	0.033298	0.028154	0.614623
H242	H	0.070943	0.028929	0.642799
H243	H	0.102682	0.009323	0.599313
H244	H	0.077787	-0.023115	0.649765
H245	H	0.030006	0.060574	0.592526
H246	H	0.005106	0.028145	0.642979
H247	H	-0.038161	-0.386246	0.952443
O248	O	-0.043406	-0.533142	0.952322
C249	C	-0.025643	-0.581071	0.952305
H250	H	0.015888	-0.593907	0.936971
H251	H	-0.037982	-0.606305	0.991198
C252	C	-0.096683	-0.566237	0.939299
C253	C	-0.045674	-0.582000	0.920461
H254	H	-0.109040	-0.566811	0.919658
H255	H	-0.108651	-0.533946	0.939312
H256	H	-0.106958	-0.587267	0.971709
H257	H	-0.035399	-0.560967	0.888053
H258	H	-0.033704	-0.614288	0.920442
O259	O	0.022366	-0.379000	0.356918
C260	C	-0.017126	-0.370301	0.345722
H261	H	-0.020999	-0.406522	0.356482
H262	H	-0.052076	-0.346826	0.366713
C263	C	-0.003066	-0.299096	0.277387
C264	C	-0.007820	-0.343583	0.290599
H265	H	0.002673	-0.282613	0.243385
H266	H	0.023540	-0.304955	0.284931
H267	H	-0.032192	-0.279539	0.294884
H268	H	0.021308	-0.363142	0.273107
H269	H	-0.034421	-0.337727	0.283051
H270	H	0.232159	-0.436796	0.638236
O271	O	0.206613	-0.472362	0.734818
C272	C	0.236138	-0.515158	0.722314
H273	H	0.216413	-0.522265	0.708306
H274	H	0.271978	-0.510501	0.692661
C275	C	0.270846	-0.549869	0.784839
C276	C	0.246618	-0.558600	0.767638
H277	H	0.277314	-0.576666	0.812796
H278	H	0.250957	-0.521036	0.793262
H279	H	0.300710	-0.545987	0.760124
H280	H	0.216753	-0.562475	0.792351
H281	H	0.266504	-0.587435	0.759220
O282	O	0.042047	-0.390123	0.566157
C283	C	0.016432	-0.360578	0.595713
H284	H	0.040801	-0.367087	0.614243
H285	H	0.005390	-0.320592	0.572184
C286	C	-0.059482	-0.365534	0.611995
C287	C	-0.029552	-0.373531	0.634756
H288	H	-0.087848	-0.373522	0.636077
H289	H	-0.042225	-0.385437	0.592080
H290	H	-0.068678	-0.332212	0.592388
H291	H	-0.020352	-0.406854	0.654358
H292	H	-0.046809	-0.353634	0.654675
H293	H	0.201155	-0.467643	0.488446
O294	O	0.239943	-0.438665	0.517245
C295	C	0.261087	-0.421170	0.466116
H296	H	0.236867	-0.416184	0.448280
H297	H	0.264849	-0.384679	0.454575
C298	C	0.341564	-0.464215	0.471858
C299	C	0.311819	-0.458094	0.449951
H300	H	0.372859	-0.486989	0.461886
H301	H	0.327320	-0.476000	0.506305
H302	H	0.344694	-0.433802	0.462239
H303	H	0.308685	-0.488505	0.459576
H304	H	0.326064	-0.446315	0.415506
O305	O	0.233744	-0.479106	0.589429
C306	C	0.267230	-0.526705	0.592158
H307	H	0.303597	-0.524753	0.561992
H308	H	0.272694	-0.546193	0.629137
C309	C	0.202632	-0.557410	0.622986
C310	C	0.247298	-0.555012	0.585933
H311	H	0.190337	-0.574873	0.619149
H312	H	0.180072	-0.525343	0.621149
H313	H	0.207192	-0.573649	0.653798
H314	H	0.242736	-0.538768	0.555122
H315	H	0.269857	-0.587078	0.587765
H316	H	0.080840	-0.361208	0.594989
O317	O	-0.061818	-0.494079	0.338978
C318	C	-0.040539	-0.486203	0.360344
H319	H	-0.032902	-0.519694	0.393139
H320	H	-0.004906	-0.479444	0.332474
C321	C	-0.085124	-0.400354	0.336755
C322	C	-0.075748	-0.441487	0.377036
H323	H	-0.106842	-0.372769	0.347049
H324	H	-0.099460	-0.405659	0.322358
H325	H	-0.055427	-0.394728	0.313533
H326	H	-0.105444	-0.447115	0.400254
H327	H	-0.061419	-0.436181	0.391437
O328	O	0.334369	-0.512544	0.555793
C329	C	0.384889	-0.520519	0.535554
H330	H	0.391833	-0.485385	0.506295
H331	H	0.399403	-0.532281	0.565414
C332	C	0.402556	-0.603956	0.548573
C333	C	0.411086	-0.560805	0.512633
H334	H	0.418717	-0.628807	0.534436
H335	H	0.368521	-0.598584	0.562210
H336	H	0.414652	-0.613751	0.573453
H337	H	0.398985	-0.551008	0.487757
H338	H	0.445121	-0.566176	0.498991
O339	O	0.334154	-0.349672	0.493754
C340	C	0.300670	-0.302074	0.491041
H341	H	0.264278	-0.300094	0.494410
H342	H	0.295267	-0.292547	0.521961
C343	C	0.365251	-0.268058	0.437618
C344	C	0.320555	-0.265625	0.441753
H345	H	0.377517	-0.245574	0.407216
H346	H	0.387810	-0.300126	0.439448
H347	H	0.360742	-0.260120	0.463388
H348	H	0.325066	-0.273569	0.415987
H349	H	0.297997	-0.233558	0.439918
H350	H	0.237625	-0.324046	0.528499
H351	H	0.163263	-0.225165	0.450676
O352	O	0.083153	-0.221278	0.607201
C353	C	0.075983	-0.254762	0.655136
H354	H	0.081691	-0.291150	0.655047
H355	H	0.103174	-0.260181	0.669727
C356	C	0.016696	-0.190169	0.688019
C357	C	0.023703	-0.234861	0.687909
H358	H	-0.015552	-0.177893	0.708236
H359	H	0.021528	-0.167610	0.655724
H360	H	0.039359	-0.194691	0.700177
H361	H	0.001044	-0.230337	0.675746
H362	H	0.018866	-0.257419	0.720203
O363	O	-0.061671	-0.494056	0.169923
C364	C	-0.091245	-0.468403	0.203376
H365	H	-0.109844	-0.492723	0.239744
H366	H	-0.067718	-0.457420	0.208858
C367	C	-0.107364	-0.392496	0.138718
C368	C	-0.130211	-0.422365	0.183384
H369	H	-0.131399	-0.364096	0.126385
H370	H	-0.087438	-0.409778	0.116179
H371	H	-0.087759	-0.383349	0.143292
H372	H	-0.149811	-0.431516	0.178808
H373	H	-0.150142	-0.405083	0.205921
O374	O	0.020506	-0.658507	0.170018
C375	C	0.027665	-0.706438	0.203514
H376	H	0.021913	-0.706336	0.239916
H377	H	0.000496	-0.721024	0.208889
C378	C	0.087020	-0.739351	0.138960
C379	C	0.079959	-0.739227	0.183668
H380	H	0.119277	-0.759578	0.126718
H381	H	0.082196	-0.707060	0.116393
H382	H	0.064376	-0.751505	0.143446
H383	H	0.102599	-0.727067	0.179181
H384	H	0.084789	-0.771518	0.206235
O385	O	0.198765	-0.321705	0.476232
C386	C	0.205958	-0.288220	0.428298
H387	H	0.175174	-0.251841	0.428414
H388	H	0.242316	-0.282777	0.413645
C389	C	0.244098	-0.352818	0.395433
C390	C	0.206286	-0.308138	0.395575
H391	H	0.244303	-0.365104	0.375247
H392	H	0.239254	-0.375378	0.427727
H393	H	0.274392	-0.348276	0.383223
H394	H	0.175992	-0.312681	0.407790
H395	H	0.211125	-0.285578	0.363282
H396	H	0.118680	-0.317820	0.632757
O397	O	0.080898	-0.628537	0.548180
C398	C	0.128819	-0.658769	0.530482
H399	H	0.141671	-0.645478	0.488951
H400	H	0.154050	-0.657421	0.542808
C401	C	0.113939	-0.727891	0.601610
C402	C	0.129722	-0.711570	0.550602
H403	H	0.114497	-0.760462	0.614022
H404	H	0.081654	-0.707523	0.613535
H405	H	0.134967	-0.726764	0.611875
H406	H	0.108691	-0.712691	0.540338
H407	H	0.162003	-0.731939	0.538676
O408	O	0.020104	-0.658489	0.421234
C409	C	0.027327	-0.706422	0.428452
H410	H	-0.003423	-0.706297	0.422682
H411	H	0.063710	-0.721080	0.401326
C412	C	0.065377	-0.739303	0.487858
C413	C	0.027606	-0.739150	0.480776
H414	H	0.065551	-0.759492	0.520133
H415	H	0.060512	-0.707010	0.482994
H416	H	0.095692	-0.751517	0.465249
H417	H	-0.002708	-0.726930	0.503379
H418	H	0.032465	-0.771441	0.485644
H419	H	-0.090673	-0.532769	0.266460
H420	H	-0.090726	-0.532768	0.309877
O421	O	0.027118	-0.685707	0.315488
C422	C	0.074699	-0.719217	0.312808
H423	H	0.072713	-0.755589	0.342958
H424	H	0.094224	-0.724667	0.275822
C425	C	0.105421	-0.654657	0.282084
C426	C	0.102982	-0.699328	0.319118
H427	H	0.122868	-0.642387	0.285974
H428	H	0.073365	-0.632080	0.283888
H429	H	0.121690	-0.659204	0.251266
H430	H	0.086707	-0.694779	0.349935
H431	H	0.135036	-0.721904	0.317320
H432	H	-0.015291	-0.684031	0.385637
O433	O	0.060506	-0.786338	0.349104
C434	C	0.068457	-0.836855	0.369318
H435	H	0.033305	-0.843787	0.398530
H436	H	0.080254	-0.851349	0.339432
C437	C	0.151867	-0.854582	0.356431
C438	C	0.108693	-0.863096	0.392313
H439	H	0.176688	-0.870769	0.370613
H440	H	0.146511	-0.820547	0.342811
H441	H	0.161692	-0.866660	0.331529
H442	H	0.098867	-0.851012	0.417211
H443	H	0.114049	-0.897129	0.405938
O444	O	-0.102355	-0.786019	0.410854
C445	C	-0.126241	-0.773545	0.379593
H446	H	-0.124995	-0.736518	0.350500
H447	H	-0.107218	-0.802312	0.361366
C448	C	-0.181241	-0.816556	0.445101
C449	C	-0.179715	-0.771076	0.409370
H450	H	-0.214225	-0.815035	0.463468
H451	H	-0.165147	-0.824961	0.466161
H452	H	-0.165386	-0.840523	0.429906
H453	H	-0.195564	-0.747111	0.424566
H454	H	-0.195812	-0.762667	0.388313
O455	O	-0.130326	-0.650766	0.428519
C456	C	-0.142836	-0.693553	0.458006
H457	H	-0.179880	-0.686669	0.458442
H458	H	-0.114105	-0.724277	0.442685
C459	C	-0.099772	-0.716544	0.509789
C460	C	-0.145272	-0.708087	0.510327
H461	H	-0.101273	-0.725511	0.542062
H462	H	-0.091342	-0.687719	0.489922
H463	H	-0.075834	-0.742146	0.497019
H464	H	-0.169207	-0.682482	0.523091
H465	H	-0.153706	-0.736909	0.530197
O466	O	-0.230955	-0.617093	0.461847
C467	C	-0.260478	-0.642758	0.474118
H468	H	-0.268066	-0.633544	0.440441
H469	H	-0.240844	-0.683619	0.488160
C470	C	-0.299683	-0.639358	0.555411
C471	C	-0.309005	-0.628039	0.514049
H472	H	-0.329616	-0.630281	0.580043
H473	H	-0.279791	-0.622069	0.547144
H474	H	-0.283320	-0.673409	0.567106
H475	H	-0.325362	-0.593988	0.502351
H476	H	-0.328901	-0.645322	0.522314
H477	H	-0.015108	-0.684041	0.266548
H478	H	-0.127938	-0.689491	0.376175
H479	H	-0.226640	-0.539563	0.302661
H480	H	-0.134040	-0.570516	0.271939
