data_functionalizedCrystal
_audit_creation_method	'MofGen! by Chris Wilmer'
_symmetry_space_group_name_H-M	'P1'
_symmetry_Int_Tables_number	1
_symmetry_cell_setting	triclinic
loop_
_symmetry_equiv_pos_as_xyz
  x,y,z
_cell_length_a	23.532407
_cell_length_b	23.532407
_cell_length_c	22.010155
_cell_angle_alpha	90.000423
_cell_angle_beta	90.003069
_cell_angle_gamma	82.848678
loop_
_atom_site_label
_atom_site_type_symbol
_atom_site_fract_x
_atom_site_fract_y
_atom_site_fract_z
O1	O	0.755264	0.069127	0.050455
O2	O	0.589400	0.079130	0.050474
O3	O	0.677334	-0.008803	0.050453
O4	O	0.667330	0.157060	0.050476
O5	O	0.677318	-0.008790	-0.050597
O6	O	0.589384	0.079143	-0.050576
O7	O	0.755248	0.069140	-0.050595
Cu8	Cu	0.672315	0.074143	-0.059812
Cu9	Cu	0.672333	0.074127	0.059691
O10	O	0.667314	0.157073	-0.050574
C11	C	0.568176	0.078882	-0.000049
C12	C	0.504959	0.078116	-0.000042
C13	C	0.677071	-0.030013	-0.000074
C14	C	0.676305	-0.093230	-0.000078
C15	C	0.105856	0.125350	-0.000063
C16	C	0.046456	0.124638	-0.000067
O17	O	0.009711	0.168424	-0.000083
N18	N	0.023830	0.072362	-0.000073
C19	C	0.060607	0.020794	-0.000082
O20	O	0.035908	-0.023737	-0.000088
C21	C	0.120006	0.021506	-0.000082
C22	C	0.142629	0.073785	-0.000070
C23	C	0.128479	0.177625	-0.000051
C24	C	0.187876	0.178336	-0.000046
C25	C	0.224649	0.126772	-0.000053
C26	C	0.202025	0.074497	-0.000065
C27	C	0.156783	-0.030062	-0.000096
C28	C	0.216185	-0.029345	-0.000097
C29	C	0.238808	0.022934	-0.000084
C30	C	0.298194	0.023643	-0.000067
N31	N	0.320820	0.075920	-0.000061
C32	C	0.284048	0.127484	-0.000054
C33	C	-0.064135	0.019302	-0.000082
C34	C	-0.123533	0.018589	-0.000077
C35	C	-0.137680	0.122434	-0.000063
C36	C	-0.078281	0.123146	-0.000064
C37	C	-0.041509	0.071578	-0.000076
C38	C	0.408784	0.128974	-0.000043
C39	C	0.468186	0.129680	-0.000035
C40	C	0.482329	0.025836	-0.000052
C41	C	0.422932	0.025129	-0.000057
C42	C	0.386160	0.076702	-0.000054
O43	O	0.334974	-0.020119	-0.000054
O44	O	0.308755	0.172007	-0.000055
C45	C	0.723539	-0.492333	-0.000050
C46	C	0.722827	-0.551733	-0.000046
O47	O	0.766613	-0.588478	-0.000028
N48	N	0.670551	-0.574359	-0.000040
C49	C	0.618983	-0.537582	-0.000033
O50	O	0.574452	-0.562281	-0.000027
C51	C	0.619695	-0.478182	-0.000033
C52	C	0.671974	-0.455560	-0.000045
C53	C	0.775814	-0.469710	-0.000061
C54	C	0.776525	-0.410313	-0.000067
C55	C	0.724961	-0.373540	-0.000062
C56	C	0.672685	-0.396164	-0.000051
C57	C	0.568127	-0.441406	-0.000022
C58	C	0.568844	-0.382004	-0.000022
C59	C	0.621123	-0.359381	-0.000034
C60	C	0.621832	-0.299995	-0.000052
N61	N	0.674109	-0.277368	-0.000057
C62	C	0.725673	-0.314141	-0.000062
C63	C	0.617491	-0.662324	-0.000031
C64	C	0.616778	-0.721722	-0.000035
C65	C	0.720623	-0.735869	-0.000047
C66	C	0.721335	-0.676470	-0.000047
C67	C	0.669767	-0.639698	-0.000037
C68	C	0.727163	-0.189405	-0.000075
C69	C	0.727869	-0.130003	-0.000083
C70	C	0.624025	-0.115860	-0.000069
C71	C	0.623318	-0.175257	-0.000064
C72	C	0.674891	-0.212029	-0.000065
O73	O	0.578070	-0.263215	-0.000067
O74	O	0.770196	-0.289433	-0.000060
C75	C	0.776472	0.069388	-0.000071
C76	C	0.839689	0.070154	-0.000073
C77	C	0.667577	0.178283	-0.000046
C78	C	0.668343	0.241500	-0.000037
N79	N	0.672305	0.074153	-0.143865
C80	C	0.711273	0.035196	-0.563653
C81	C	0.711275	0.035192	-0.627261
O82	O	0.744384	0.002076	-0.660160
N83	N	0.672333	0.074115	-0.659072
C84	C	0.633382	0.113041	-0.627272
O85	O	0.600259	0.146148	-0.660170
C86	C	0.633377	0.113042	-0.563665
C87	C	0.672326	0.074120	-0.531858
C88	C	0.750217	-0.003723	-0.531846
C89	C	0.750215	-0.003719	-0.468243
C90	C	0.711268	0.035205	-0.436447
C91	C	0.672324	0.074125	-0.468255
C92	C	0.594424	0.151965	-0.531866
C93	C	0.594422	0.151962	-0.468256
C94	C	0.633370	0.113040	-0.436448
C95	C	0.633374	0.113054	-0.372856
N96	N	0.672317	0.074130	-0.341045
C97	C	0.711263	0.035206	-0.372841
C98	C	0.633395	0.113036	-0.760850
C99	C	0.633402	0.113039	-0.824455
C100	C	0.711294	0.035188	-0.824440
C101	C	0.711290	0.035189	-0.760833
C102	C	0.672337	0.074113	-0.729039
C103	C	0.711256	0.035220	-0.239269
C104	C	0.711252	0.035229	-0.175660
C105	C	0.633358	0.113077	-0.175681
C106	C	0.633364	0.113070	-0.239284
C107	C	0.672315	0.074136	-0.271077
O108	O	0.600282	0.146151	-0.339916
O109	O	0.744376	0.002100	-0.339935
N110	N	0.672347	0.074112	0.143744
H111	H	0.486602	0.172255	-0.000025
C112	C	0.551576	0.194776	-0.566846
C113	C	0.486734	0.194138	-0.558099
C114	C	0.443883	0.236950	-0.593078
C115	C	0.465874	0.280401	-0.636804
C116	C	0.530719	0.281041	-0.645553
C117	C	0.573571	0.238229	-0.610574
H118	H	0.470452	0.161972	-0.525728
H119	H	0.395880	0.236476	-0.586601
H120	H	0.434153	0.312093	-0.662698
H121	H	0.547001	0.313207	-0.677924
H122	H	0.621574	0.238703	-0.617051
H123	H	0.525555	-0.459814	-0.000009
C124	C	0.368342	0.185704	-0.000034
C125	C	0.370681	0.228623	0.052450
C126	C	0.330238	0.285353	0.052463
C127	C	0.287456	0.299163	-0.000008
C128	C	0.285115	0.256243	-0.052496
C129	C	0.325558	0.199513	-0.052509
H130	H	0.402352	0.218401	0.091296
H131	H	0.331971	0.317125	0.091319
H132	H	0.257518	0.341158	0.000002
H133	H	0.253444	0.266465	-0.091342
H134	H	0.323825	0.167741	-0.091365
C135	C	0.512117	-0.341554	-0.000013
C136	C	0.469195	-0.343885	0.052468
C137	C	0.412469	-0.303437	0.052475
C138	C	0.398665	-0.260658	0.000003
C139	C	0.441587	-0.258325	-0.052482
C140	C	0.498313	-0.298773	-0.052489
H141	H	0.479413	-0.375554	0.091315
H142	H	0.380695	-0.305164	0.091328
H143	H	0.356673	-0.230715	0.000009
H144	H	0.431370	-0.226656	-0.091329
H145	H	0.530087	-0.297046	-0.091342
H146	H	0.574207	-0.740136	-0.000036
H147	H	0.575496	-0.632386	-0.000028
H148	H	0.601654	0.144769	-0.265183
C149	C	0.754096	-0.007589	-0.140672
C150	C	0.796934	-0.050407	-0.175652
C151	C	0.839775	-0.093224	-0.140666
C152	C	0.839779	-0.093224	-0.070701
C153	C	0.796940	-0.050404	-0.035718
C154	C	0.754098	-0.007587	-0.070704
H155	H	0.796933	-0.050408	-0.227447
H156	H	0.871488	-0.124922	-0.166563
H157	H	0.871493	-0.124920	-0.044803
H158	H	0.796941	-0.050403	0.016077
H159	H	0.722386	0.024111	-0.044807
H160	H	0.781933	-0.035423	-0.557728
H161	H	0.769159	-0.219337	-0.000073
C162	C	0.754130	-0.007629	-0.725848
C163	C	0.797556	0.014399	-0.682115
C164	C	0.840397	-0.028422	-0.647134
C165	C	0.839812	-0.093272	-0.655886
C166	C	0.796384	-0.115303	-0.699622
C167	C	0.753543	-0.072482	-0.734603
H168	H	0.797990	0.062407	-0.675633
H169	H	0.872545	-0.012113	-0.614757
H170	H	0.871525	-0.124970	-0.629991
H171	H	0.795949	-0.163311	-0.706103
H172	H	0.721395	-0.088791	-0.766979
H173	H	0.762610	-0.765821	-0.000048
H174	H	-0.167632	0.164421	-0.000060
C175	C	0.793053	-0.046539	-0.433258
C176	C	0.792462	-0.111387	-0.442009
C177	C	0.835300	-0.154212	-0.407028
C178	C	0.878729	-0.132187	-0.363295
C179	C	0.879322	-0.067336	-0.354542
C180	C	0.836484	-0.024511	-0.389523
H181	H	0.760311	-0.127694	-0.474384
H182	H	0.834861	-0.202219	-0.413508
H183	H	0.910440	-0.163889	-0.337400
H184	H	0.911473	-0.051029	-0.322167
H185	H	0.836923	0.023496	-0.383043
H186	H	0.098544	0.219617	-0.000048
H187	H	-0.059867	0.165717	-0.000057
H188	H	-0.141947	-0.023982	-0.000078
C189	C	-0.023688	-0.037428	-0.000084
C190	C	-0.026027	-0.080356	-0.052559
C191	C	0.014417	-0.137085	-0.052562
C192	C	0.057199	-0.150885	-0.000090
C193	C	0.059540	-0.107956	0.052389
C194	C	0.019096	-0.051227	0.052392
H195	H	-0.057698	-0.070142	-0.091406
H196	H	0.012684	-0.168865	-0.091411
H197	H	0.087138	-0.192880	-0.000092
H198	H	0.091212	-0.118170	0.091236
H199	H	0.020829	-0.019447	0.091241
H200	H	0.206289	0.220908	-0.000036
H201	H	0.404512	-0.017441	-0.000058
C202	C	0.832541	-0.510153	-0.000070
C203	C	0.875458	-0.507810	-0.052553
C204	C	0.932190	-0.548249	-0.052567
C205	C	0.946005	-0.591031	-0.000099
C206	C	0.903087	-0.593376	0.052387
C207	C	0.846355	-0.552937	0.052402
H208	H	0.865233	-0.476139	-0.091396
H209	H	0.963961	-0.546513	-0.091422
H210	H	0.988001	-0.620967	-0.000110
H211	H	0.913313	-0.625048	0.091231
H212	H	0.814584	-0.554673	0.091256
H213	H	0.138375	-0.072634	-0.000106
H214	H	0.770443	-0.111587	-0.000094
H215	H	0.246123	-0.071339	-0.000107
H216	H	0.580748	-0.193677	-0.000071
H217	H	0.743006	0.003493	-0.850339
H218	H	0.601692	0.144738	-0.850348
C219	C	0.834035	-0.385436	-0.000068
C220	C	0.876770	-0.399449	-0.052538
C221	C	0.934285	-0.374577	-0.052534
C222	C	0.949064	-0.335693	-0.000060
C223	C	0.906328	-0.321679	0.052415
C224	C	0.848814	-0.346550	0.052411
H225	H	0.865831	-0.428235	-0.091387
H226	H	0.965920	-0.384952	-0.091380
H227	H	0.991639	-0.317282	-0.000057
H228	H	0.917267	-0.292892	0.091263
H229	H	0.817178	-0.336175	0.091256
H230	H	0.512280	-0.016146	-0.000056
C231	C	0.590516	0.155891	-0.140700
C232	C	0.590512	0.155889	-0.070735
C233	C	0.547666	0.198700	-0.035753
C234	C	0.504822	0.241513	-0.070735
C235	C	0.504824	0.241517	-0.140703
C236	C	0.547671	0.198706	-0.175686
H237	H	0.622229	0.124195	-0.044836
H238	H	0.547665	0.198697	0.016043
H239	H	0.473105	0.273205	-0.044839
H240	H	0.473107	0.273211	-0.166603
H241	H	0.547672	0.198709	-0.227481
H242	H	0.763906	-0.658056	-0.000056
H243	H	0.601676	0.144737	-0.734966
H244	H	0.582043	-0.085909	-0.000067
H245	H	0.742973	0.003516	-0.265148
H246	H	0.562700	0.183658	-0.442372
