data_functionalizedCrystal
_audit_creation_method	'MofGen! by Chris Wilmer'
_symmetry_space_group_name_H-M	'P1'
_symmetry_Int_Tables_number	1
_symmetry_cell_setting	triclinic
loop_
_symmetry_equiv_pos_as_xyz
  x,y,z
_cell_length_a	8.559649
_cell_length_b	8.597282
_cell_length_c	7.088929
_cell_angle_alpha	103.972939
_cell_angle_beta	95.325275
_cell_angle_gamma	102.374894
loop_
_atom_site_label
_atom_site_type_symbol
_atom_site_fract_x
_atom_site_fract_y
_atom_site_fract_z
O1	O	2.103778	0.035740	-0.153058
O2	O	1.638461	-0.046706	-0.166650
O3	O	1.884155	0.228468	-0.121312
O4	O	1.858084	-0.239433	-0.198397
O5	O	1.916990	0.265316	0.202735
O6	O	1.671296	-0.009857	0.157396
O7	O	2.136613	0.072589	0.170988
Cu8	Cu	1.906952	0.034730	0.193780
Cu9	Cu	1.868122	-0.008847	-0.189442
O10	O	1.890919	-0.202585	0.125650
C11	C	1.595340	-0.034529	-0.005658
C12	C	1.417934	-0.053128	-0.008725
C13	C	1.899602	0.306238	0.050484
C14	C	1.896689	0.483070	0.079605
C15	C	2.179734	0.060412	0.009991
C16	C	2.357138	0.079009	0.013046
N17	N	1.934275	0.065383	0.463318
C18	C	1.875472	0.719644	-0.046150
C19	C	1.878384	0.542812	-0.075279
N20	N	1.840811	-0.039485	-0.458978
H21	H	2.440807	0.206362	0.034013
C22	C	2.304910	-0.225191	-0.037078
H23	H	2.366838	-0.305594	-0.050342
H24	H	2.250534	-0.225225	0.073797
H25	H	2.227641	-0.250915	-0.152219
C26	C	1.914856	0.596720	0.288849
H27	H	1.910463	0.704652	0.281638
H28	H	1.829511	0.554236	0.353113
H29	H	2.015826	0.601417	0.360883
H30	H	1.864922	0.458664	-0.230178
H31	H	1.743946	-0.148160	0.441470
C32	C	2.065145	0.212198	0.597804
H33	H	2.063274	0.210101	0.730966
H34	H	2.168456	0.204273	0.563765
H35	H	2.044415	0.312807	0.581672
