data_functionalizedCrystal
_audit_creation_method	'MofGen! by Chris Wilmer'
_symmetry_space_group_name_H-M	'P1'
_symmetry_Int_Tables_number	1
_symmetry_cell_setting	triclinic
loop_
_symmetry_equiv_pos_as_xyz
  x,y,z
_cell_length_a	10.654550
_cell_length_b	14.519709
_cell_length_c	9.730223
_cell_angle_alpha	89.997715
_cell_angle_beta	89.996251
_cell_angle_gamma	84.082524
loop_
_atom_site_label
_atom_site_type_symbol
_atom_site_fract_x
_atom_site_fract_y
_atom_site_fract_z
O1	O	1.666589	0.129528	-0.114406
O2	O	1.300991	0.141869	-0.114384
O3	O	1.493483	0.001510	-0.114384
O4	O	1.474097	0.269887	-0.114407
O5	O	1.493481	0.001514	0.114196
O6	O	1.300989	0.141873	0.114195
O7	O	1.666586	0.129532	0.114174
Zn8	Zn	1.483787	0.135703	0.150477
Zn9	Zn	1.483790	0.135698	-0.150687
O10	O	1.474094	0.269890	0.114173
C11	C	1.254201	0.140965	-0.000092
C12	C	1.114784	0.138254	-0.000083
C13	C	1.034504	0.220895	-0.000110
C14	C	0.903507	0.218342	-0.000134
C15	C	0.933085	0.050500	-0.000108
C16	C	1.064078	0.053054	-0.000075
C17	C	1.085209	0.306095	-0.000118
C18	C	1.004928	0.388743	-0.000147
C19	C	0.873931	0.386190	-0.000170
C20	C	0.823217	0.300989	-0.000165
C21	C	1.492579	-0.032852	-0.000093
C22	C	1.489871	-0.135247	-0.000092
C23	C	1.479904	-0.510195	-0.000127
C24	C	1.482672	-0.405873	-0.000117
C25	C	1.484887	-0.322725	-0.000109
C26	C	1.487656	-0.218396	-0.000101
C27	C	1.713377	0.130436	-0.000122
C28	C	1.852794	0.133147	-0.000140
C29	C	1.474999	0.304253	-0.000120
C30	C	1.477707	0.406648	-0.000130
N31	N	1.483795	0.135705	0.356013
N32	N	1.483793	0.135688	-0.356224
C33	C	1.569052	0.073576	0.427939
C34	C	1.569048	0.073565	0.571822
C35	C	1.398527	0.197821	0.571840
C36	C	1.398525	0.197827	0.427959
C37	C	1.654321	0.011455	0.355993
C38	C	1.739586	-0.050679	0.427920
C39	C	1.739583	-0.050691	0.571803
C40	C	1.654315	0.011432	0.643759
H41	H	0.716549	0.298917	-0.000163
H42	H	1.129445	-0.014240	-0.000056
H43	H	1.654334	0.011460	0.238836
Cl44	Cl	1.249889	0.309310	-0.000096
H45	H	1.809002	-0.101263	0.369325
H46	H	1.046228	0.458110	-0.000140
Cl47	Cl	1.654306	0.011406	0.824642
H48	H	1.329100	0.248418	0.369396
H49	H	1.329106	0.248399	0.630436
H50	H	0.808569	0.453485	-0.000180
Cl51	Cl	0.869327	-0.056602	-0.000109
Cl52	Cl	1.846760	-0.128807	0.662223
