data_functionalizedCrystal
_audit_creation_method	'MofGen! by Chris Wilmer'
_symmetry_space_group_name_H-M	'P1'
_symmetry_Int_Tables_number	1
_symmetry_cell_setting	triclinic
loop_
_symmetry_equiv_pos_as_xyz
  x,y,z
_cell_length_a	15.297979
_cell_length_b	15.297327
_cell_length_c	17.077396
_cell_angle_alpha	99.646061
_cell_angle_beta	80.292328
_cell_angle_gamma	110.796881
loop_
_atom_site_label
_atom_site_type_symbol
_atom_site_fract_x
_atom_site_fract_y
_atom_site_fract_z
Zn1	Zn	1.357786	-0.124455	-0.667417
Zn2	Zn	1.330752	-0.280004	-0.555482
Zn3	Zn	1.202250	-0.151374	-0.516751
Zn4	Zn	1.175292	-0.306820	-0.667288
O5	O	1.266520	-0.215663	-0.601734
O6	O	1.484352	-0.122601	-0.668832
O7	O	1.313674	-0.262984	-0.440499
O8	O	1.245478	-0.017650	-0.520582
O9	O	1.464491	-0.236882	-0.586594
O10	O	1.359749	0.002127	-0.631276
O11	O	1.219264	-0.168480	-0.412043
O12	O	1.068521	-0.194482	-0.520457
O13	O	1.199532	-0.282586	-0.777150
O14	O	1.048715	-0.308688	-0.631055
O15	O	1.333609	-0.148603	-0.777245
O16	O	1.287534	-0.413714	-0.586468
O17	O	1.173318	-0.433416	-0.668611
C18	C	1.024871	-0.257417	-0.571540
C19	C	0.921488	-0.275301	-0.558644
C20	C	0.862593	-0.343110	-0.509676
C21	C	0.765460	-0.359915	-0.497564
C22	C	0.727213	-0.308909	-0.534413
C23	C	0.786109	-0.241095	-0.583377
C24	C	0.883251	-0.224293	-0.595495
C25	C	0.747870	-0.190092	-0.620232
C26	C	0.806766	-0.122278	-0.669196
C27	C	0.903899	-0.105478	-0.681312
C28	C	0.942146	-0.156484	-0.644463
C29	C	0.650728	-0.206894	-0.608114
C30	C	0.671386	-0.088077	-0.693933
C31	C	0.768519	-0.071272	-0.706045
C32	C	1.224592	-0.457308	-0.631749
C33	C	1.206741	-0.560669	-0.644626
C34	C	1.394491	-0.810838	-0.510016
C35	C	1.411263	-0.713724	-0.497913
C36	C	1.360134	-0.675456	-0.534590
C37	C	1.292230	-0.734310	-0.583372
C38	C	1.275451	-0.831434	-0.595471
C39	C	1.241094	-0.696052	-0.620046
C40	C	1.173190	-0.754907	-0.668827
C41	C	1.156415	-0.852020	-0.680925
C42	C	1.207544	-0.890289	-0.644247
C43	C	1.257873	-0.598928	-0.607947
C44	C	1.138833	-0.619524	-0.693402
C45	C	1.122062	-0.716638	-0.705505
C46	C	1.509112	-0.173748	-0.632048
C47	C	1.612491	-0.155886	-0.644965
C48	C	1.266579	-0.215583	-0.806476
C49	C	1.266604	-0.215549	-0.893724
C50	C	1.308636	0.026929	-0.571623
C51	C	1.326583	0.130307	-0.558792
C52	C	1.217464	-0.166330	-0.919898
C53	C	1.217483	-0.166307	-1.001878
C54	C	1.266648	-0.215497	-1.057682
C55	C	1.315789	-0.264721	-1.031504
C56	C	1.315764	-0.264750	-0.949525
C57	C	1.315840	-0.264656	-1.202372
C58	C	1.315866	-0.264626	-1.284356
C59	C	1.217558	-0.166213	-1.254725
C60	C	1.217533	-0.166242	-1.172746
C61	C	1.266676	-0.215465	-1.146573
C62	C	1.266526	-0.215667	-0.397788
C63	C	1.266726	-0.215408	-0.310530
H64	H	0.602784	-0.262110	-0.568247
H65	H	0.640246	-0.046545	-0.723940
H66	H	1.193894	-0.969366	-0.654101
H67	H	0.816486	-0.016057	-0.745913
H68	H	0.648122	-0.322596	-0.524548
H69	H	1.021239	-0.142802	-0.654320
F70	F	1.448895	-0.851573	-0.470985
F71	F	0.702788	-0.432072	-0.445442
F72	F	1.165258	-0.113824	-1.282580
F73	F	1.378186	-0.572064	-0.521901
F74	F	1.483535	-0.651093	-0.446004
F75	F	1.165214	-0.113881	-1.113356
F76	F	1.368198	-0.316974	-1.343746
F77	F	1.368139	-0.317050	-1.174519
H78	H	1.313161	-0.551017	-0.568228
F79	F	1.084141	-0.914656	-0.732839
F80	F	1.165141	-0.113962	-1.029730
H81	H	0.893743	-0.384635	-0.479683
F82	F	1.049795	-0.779286	-0.757421
H83	H	1.097198	-0.588368	-0.723266
F84	F	1.165141	-0.113969	-0.860513
H85	H	1.355815	-0.304778	-1.076946
F86	F	1.368062	-0.317139	-0.921670
H87	H	0.951848	-0.050268	-0.721190
