data_functionalizedCrystal
_audit_creation_method	'MofGen! by Chris Wilmer'
_symmetry_space_group_name_H-M	'P1'
_symmetry_Int_Tables_number	1
_symmetry_cell_setting	triclinic
loop_
_symmetry_equiv_pos_as_xyz
  x,y,z
_cell_length_a	12.759401
_cell_length_b	16.625546
_cell_length_c	12.759401
_cell_angle_alpha	90.014174
_cell_angle_beta	90.003120
_cell_angle_gamma	90.022629
loop_
_atom_site_label
_atom_site_type_symbol
_atom_site_fract_x
_atom_site_fract_y
_atom_site_fract_z
Zn1	Zn	1.606039	-0.321126	0.593947
Zn2	Zn	2.106039	0.178874	1.093947
Zn3	Zn	1.605957	-0.455931	0.418253
Zn4	Zn	2.105957	0.044069	0.918253
Zn5	Zn	1.430388	-0.321116	0.418287
Zn6	Zn	1.930388	0.178884	0.918287
Zn7	Zn	1.430306	-0.455921	0.593894
Zn8	Zn	1.930306	0.044079	1.093894
O9	O	1.518173	-0.388523	0.506095
O10	O	2.018173	0.111477	1.006095
O11	O	1.753049	-0.339016	0.570649
O12	O	2.253049	0.160984	1.070649
O13	O	1.582667	-0.438048	0.271237
O14	O	2.082667	0.061952	0.771237
O15	O	1.453758	-0.208285	0.441624
O16	O	1.953758	0.291715	0.941624
O17	O	1.752989	-0.438057	0.441567
O18	O	2.252989	0.061943	0.941567
O19	O	1.582808	-0.208292	0.570681
O20	O	2.082808	0.291708	1.070681
O21	O	1.453678	-0.339000	0.271261
O22	O	1.953678	0.161000	0.771261
O23	O	1.283356	-0.338990	0.441573
O24	O	1.783356	0.161010	0.941573
O25	O	1.453617	-0.438039	0.740922
O26	O	1.953617	0.061961	1.240922
O27	O	1.283296	-0.438030	0.570592
O28	O	1.783296	0.061970	1.070592
O29	O	1.582728	-0.339006	0.740961
O30	O	2.082728	0.160994	1.240961
O31	O	1.582588	-0.568762	0.441516
O32	O	2.082588	-0.068762	0.941516
O33	O	1.453538	-0.568754	0.570559
O34	O	1.953538	-0.068754	1.070559
C35	C	1.245205	-0.388509	0.506081
C36	C	1.745205	0.111491	1.006081
C37	C	1.128429	-0.388522	0.506100
C38	C	1.628429	0.111478	1.006100
C39	C	1.518073	-0.598014	0.506051
C40	C	2.018073	-0.098014	1.006051
C41	C	1.518127	-0.687635	0.506068
C42	C	2.018127	-0.187635	1.006068
C43	C	1.073563	-0.440174	0.573169
C44	C	1.573563	0.059826	1.073169
C45	C	0.963839	-0.440184	0.573180
C46	C	1.463839	0.059816	1.073180
C47	C	0.963856	-0.336887	0.439045
C48	C	1.463856	0.163113	0.939045
C49	C	1.073578	-0.336873	0.439040
C50	C	1.573578	0.163127	0.939040
C51	C	1.128413	-0.491822	0.640229
C52	C	1.628413	0.008178	1.140229
C53	C	1.073547	-0.543480	0.707302
C54	C	1.573547	-0.043480	1.207302
C55	C	0.963823	-0.543490	0.707314
C56	C	1.463823	-0.043490	1.207314
C57	C	0.908965	-0.491843	0.640252
C58	C	1.408965	0.008157	1.140252
C59	C	1.518310	-1.015811	0.506177
C60	C	2.018310	-0.515811	1.006177
C61	C	1.518256	-0.924502	0.506150
C62	C	2.018256	-0.424502	1.006150
C63	C	1.518218	-0.851726	0.506122
C64	C	2.018218	-0.351726	1.006122
C65	C	1.518165	-0.760412	0.506095
C66	C	2.018165	-0.260412	1.006095
C67	C	1.792206	-0.388539	0.506110
C68	C	2.292206	0.111461	1.006110
C69	C	1.908982	-0.388545	0.506117
C70	C	2.408982	0.111455	1.006117
C71	C	1.518173	-0.388523	0.780129
C72	C	2.018173	0.111477	1.280129
C73	C	1.518173	-0.388523	0.896905
C74	C	2.018173	0.111477	1.396905
C75	C	1.518301	-0.178214	0.506162
C76	C	2.018301	0.321786	1.006162
C77	C	1.518356	-0.088593	0.506191
C78	C	2.018356	0.411407	1.006191
C79	C	1.585395	-0.336967	0.951789
C80	C	2.085395	0.163033	1.451789
C81	C	1.585390	-0.336971	1.061513
C82	C	2.085390	0.163029	1.561513
C83	C	1.450938	-0.440091	1.061460
C84	C	1.950938	0.059909	1.561460
C85	C	1.450938	-0.440083	0.951738
C86	C	1.950938	0.059917	1.451738
C87	C	1.652629	-0.285407	0.896956
C88	C	2.152629	0.214593	1.396956
C89	C	1.719858	-0.233848	0.951840
C90	C	2.219858	0.266152	1.451840
C91	C	1.719853	-0.233851	1.061564
C92	C	2.219853	0.266149	1.561564
C93	C	1.652620	-0.285413	1.116405
C94	C	2.152620	0.214587	1.616405
C95	C	1.518166	-0.388540	1.233128
C96	C	2.018166	0.111460	1.733128
C97	C	1.518168	-0.388534	1.116351
C98	C	2.018168	0.111466	1.616351
H99	H	1.217756	-0.491821	0.640225
H100	H	1.717756	0.008179	1.140225
Cl101	Cl	1.366427	-0.504910	1.130403
Cl102	Cl	1.866427	-0.004910	1.630403
Cl103	Cl	1.366427	-0.504896	0.882736
Cl104	Cl	1.866427	-0.004896	1.382736
Cl105	Cl	1.804370	-0.169038	1.130559
Cl106	Cl	2.304370	0.330962	1.630559
H107	H	0.919182	-0.294839	0.384446
H108	H	1.419182	0.205161	0.884446
Cl109	Cl	1.652643	-0.285402	0.759018
Cl110	Cl	2.152643	0.214598	1.259018
H111	H	1.118251	-0.294807	0.384434
H112	H	1.618251	0.205193	0.884434
H113	H	1.774590	-0.191863	0.907182
H114	H	2.274590	0.308137	1.407182
H115	H	1.652610	-0.285402	1.205749
H116	H	2.152610	0.214598	1.705749
H117	H	1.118219	-0.585524	0.761908
H118	H	1.618219	-0.085524	1.261908
H119	H	0.819620	-0.491849	0.640275
H120	H	1.319620	0.008151	1.140275
Cl121	Cl	0.894851	-0.608423	0.791641
Cl122	Cl	1.394851	-0.108423	1.291641
