data_functionalizedCrystal
_audit_creation_method	'MofGen! by Chris Wilmer'
_symmetry_space_group_name_H-M	'P1'
_symmetry_Int_Tables_number	1
_symmetry_cell_setting	triclinic
loop_
_symmetry_equiv_pos_as_xyz
  x,y,z
_cell_length_a	14.044191
_cell_length_b	19.188924
_cell_length_c	12.503572
_cell_angle_alpha	93.509187
_cell_angle_beta	86.162165
_cell_angle_gamma	88.166870
loop_
_atom_site_label
_atom_site_type_symbol
_atom_site_fract_x
_atom_site_fract_y
_atom_site_fract_z
O1	O	1.262484	0.164611	-0.089277
O2	O	1.762484	0.664611	0.410723
O3	O	0.986540	0.158532	-0.089291
O4	O	1.486540	0.658532	0.410709
O5	O	1.132478	0.060430	-0.089271
O6	O	1.632478	0.560430	0.410729
O7	O	1.116546	0.262713	-0.089297
O8	O	1.616546	0.762713	0.410703
O9	O	1.121502	0.067821	0.089369
O10	O	1.621502	0.567821	0.589369
O11	O	0.975565	0.165924	0.089350
O12	O	1.475565	0.665924	0.589350
O13	O	1.251508	0.172002	0.089363
O14	O	1.751508	0.672002	0.589363
Cu15	Cu	1.112535	0.169638	0.105668
Cu16	Cu	1.612535	0.669638	0.605668
Cu17	Cu	1.125514	0.160897	-0.105595
Cu18	Cu	1.625514	0.660897	0.394405
O19	O	1.105571	0.270104	0.089343
O20	O	1.605571	0.770104	0.589343
C21	C	0.945749	0.159569	0.000028
C22	C	1.445749	0.659569	0.500028
C23	C	0.840557	0.151638	0.000023
C24	C	1.340557	0.651638	0.500023
C25	C	0.590096	0.193386	0.000029
C26	C	1.090096	0.693386	0.500029
C27	C	0.647959	0.137151	0.000034
C28	C	1.147959	0.637151	0.500034
C29	C	0.755130	0.145213	0.000028
C30	C	1.255130	0.645213	0.500028
C31	C	0.482915	0.185325	0.000035
C32	C	0.982915	0.685325	0.500035
C33	C	1.126475	0.038082	0.000050
C34	C	1.626475	0.538082	0.500050
C35	C	1.124929	-0.039523	0.000053
C36	C	1.624929	0.460477	0.500053
C37	C	1.130191	-0.079997	-0.097324
C38	C	1.630191	0.420003	0.402676
C39	C	1.128726	-0.152915	-0.097332
C40	C	1.628726	0.347085	0.402668
C41	C	1.122018	-0.185356	0.000042
C42	C	1.622018	0.314644	0.500042
C43	C	1.116750	-0.144872	0.097432
C44	C	1.616750	0.355128	0.597432
C45	C	1.118206	-0.071955	0.097438
C46	C	1.618206	0.428045	0.597438
N47	N	1.169205	-0.298687	0.072518
N48	N	1.669205	0.201313	0.572518
N49	N	1.167825	-0.367955	0.072506
N50	N	1.667825	0.132045	0.572506
C51	C	1.117629	-0.405049	0.000032
C52	C	1.617629	0.094951	0.500032
N53	N	1.068879	-0.370259	-0.072447
N54	N	1.568879	0.129741	0.427553
N55	N	1.070264	-0.300985	-0.072439
N56	N	1.570264	0.199015	0.427561
C57	C	1.120438	-0.264421	0.000047
C58	C	1.620438	0.235579	0.500047
C59	C	1.121301	-0.524589	-0.097361
C60	C	1.621301	-0.024589	0.402639
C61	C	1.119829	-0.597508	-0.097365
C62	C	1.619829	-0.097508	0.402635
C63	C	1.107864	-0.589463	0.097402
C64	C	1.607864	-0.089463	0.597402
C65	C	1.109325	-0.516546	0.097403
C66	C	1.609325	-0.016546	0.597403
C67	C	1.116049	-0.484113	0.000019
C68	C	1.616049	0.015887	0.500019
C69	C	1.292300	0.170965	0.000042
C70	C	1.792300	0.670965	0.500042
C71	C	1.397492	0.178896	0.000040
C72	C	1.897492	0.678896	0.500040
C73	C	1.111574	0.292452	0.000020
C74	C	1.611574	0.792452	0.500020
C75	C	1.113120	0.370057	0.000010
C76	C	1.613120	0.870057	0.500010
N77	N	1.103412	0.175785	0.254259
N78	N	1.603412	0.675785	0.754259
N79	N	1.134644	0.154744	-0.254186
N80	N	1.634644	0.654744	0.245814
C81	C	1.089993	0.184835	0.473372
C82	C	1.589993	0.684835	0.973372
C83	C	1.148060	0.145696	0.526707
C84	C	1.648060	0.645696	1.026707
C85	C	1.140594	0.150731	0.648629
C86	C	1.640594	0.650731	1.148629
C87	C	1.097458	0.179801	0.351439
C88	C	1.597458	0.679801	0.851439
H89	H	1.135663	-0.053595	-0.176622
H90	H	1.635663	0.446405	0.323378
H91	H	0.621043	0.247582	0.000019
H92	H	1.121043	0.747582	0.500019
O93	O	0.611200	0.072439	0.000083
O94	O	1.111200	0.572439	0.500083
C95	C	0.686111	0.021734	0.000053
C96	C	1.186111	0.521734	0.500053
H97	H	0.751157	0.046797	0.033874
H98	H	1.251157	0.546797	0.533874
H99	H	0.662353	-0.022232	0.051914
H100	H	1.162353	0.477768	0.551914
H101	H	0.705399	-0.000364	-0.085651
H102	H	1.205399	0.499636	0.414349
H103	H	1.111286	-0.171290	0.176715
H104	H	1.611286	0.328710	0.676715
H105	H	1.133004	-0.185875	-0.176631
H106	H	1.633004	0.314125	0.323369
H107	H	1.203382	0.108407	0.480802
H108	H	1.703382	0.608407	0.980802
H109	H	1.124109	-0.630461	-0.176665
H110	H	1.624109	-0.130461	0.323335
H111	H	1.113918	-0.039001	0.176736
H112	H	1.613918	0.460999	0.676736
O113	O	1.127782	-0.493189	-0.192051
O114	O	1.627782	0.006811	0.307949
C115	C	1.132125	-0.544554	-0.278004
C116	C	1.632125	-0.044554	0.221996
H117	H	1.099336	-0.594328	-0.249461
H118	H	1.599336	-0.094328	0.250539
H119	H	1.090734	-0.524728	-0.346111
H120	H	1.590734	-0.024728	0.153889
H121	H	1.209816	-0.556139	-0.307946
H122	H	1.709816	-0.056139	0.192054
H123	H	1.102395	-0.615876	0.176686
H124	H	1.602395	-0.115876	0.676686
O125	O	1.024085	0.229310	0.528292
O126	O	1.524085	0.729310	1.028292
C127	C	1.031205	0.224492	0.639561
C128	C	1.531205	0.724492	1.139561
H129	H	1.105687	0.203647	0.654776
H130	H	1.605687	0.703647	1.154776
H131	H	1.017989	0.278445	0.682392
H132	H	1.517989	0.778445	1.182392
H133	H	0.975697	0.187490	0.671491
H134	H	1.475697	0.687490	1.171491
O135	O	1.104360	-0.477155	0.191927
O136	O	1.604360	0.022845	0.691927
C137	C	1.186909	-0.437548	0.197770
C138	C	1.686909	0.062452	0.697770
H139	H	1.219676	-0.431051	0.113222
H140	H	1.719676	0.068949	0.613222
H141	H	1.166949	-0.383941	0.238984
H142	H	1.666949	0.116059	0.738984
H143	H	1.240852	-0.465624	0.245827
H144	H	1.740852	0.034376	0.745827
