data_functionalizedCrystal
_audit_creation_method	'MofGen! by Chris Wilmer'
_symmetry_space_group_name_H-M	'P1'
_symmetry_Int_Tables_number	1
_symmetry_cell_setting	triclinic
loop_
_symmetry_equiv_pos_as_xyz
  x,y,z
_cell_length_a	15.995355
_cell_length_b	15.072220
_cell_length_c	12.811487
_cell_angle_alpha	84.568579
_cell_angle_beta	96.229125
_cell_angle_gamma	89.991677
loop_
_atom_site_label
_atom_site_type_symbol
_atom_site_fract_x
_atom_site_fract_y
_atom_site_fract_z
O1	O	-1.111465	0.062808	0.135306
O2	O	-0.867748	0.061485	0.152007
O3	O	-0.995738	0.074435	-0.009134
O4	O	-0.983475	0.049857	0.296447
O5	O	-0.995706	-0.073130	-0.009125
O6	O	-0.867716	-0.086081	0.152016
O7	O	-1.111433	-0.084758	0.135315
Zn8	Zn	-0.989570	-0.108849	0.143667
Zn9	Zn	-0.989611	0.085576	0.143655
O10	O	-0.983443	-0.097709	0.296456
C11	C	-0.836535	-0.012240	0.151320
C12	C	-0.743578	-0.012065	0.149248
C13	C	-0.573379	-0.011775	0.145486
C14	C	-0.549629	-0.002419	0.029160
C15	C	-0.452944	-0.002583	0.026966
C16	C	-0.405807	-0.011488	0.141781
C17	C	-0.435084	-0.100293	0.200277
C18	C	-0.531881	-0.100469	0.201662
C19	C	-0.531834	0.067210	0.203355
C20	C	-0.435324	0.068656	0.199056
C21	C	-0.311102	-0.011330	0.139693
C22	C	-0.668084	-0.011940	0.147577
N23	N	-0.989547	-0.241538	0.143674
C24	C	-0.989610	-0.600738	0.143651
C25	C	-0.920893	-0.570037	0.229585
C26	C	-0.921052	-0.467237	0.229899
C27	C	-0.989578	-0.422535	0.143663
C28	C	-1.077026	-0.461757	0.167584
C29	C	-1.076641	-0.564664	0.168195
C30	C	-0.971657	-0.553980	0.033540
C31	C	-0.969655	-0.451175	0.034275
C32	C	-0.989565	-0.321822	0.143667
C33	C	-0.989628	-0.701451	0.143649
C34	C	-0.142647	-0.011031	0.135987
C35	C	-0.235609	-0.011198	0.138019
C36	C	-0.995035	0.003800	-0.048234
C37	C	-0.992978	0.013178	-0.164751
N38	N	-0.989640	0.218266	0.143639
C39	C	-0.989092	-0.130093	-0.383704
C40	C	-0.987159	-0.121286	-0.493182
C41	C	-0.987184	0.039598	-0.493188
C42	C	-0.989117	0.030791	-0.383710
C43	C	-0.990070	-0.054057	-0.328971
C44	C	-0.991997	-0.062864	-0.219490
C45	C	-0.992028	0.098020	-0.219499
C46	C	-0.990095	0.106827	-0.328977
C47	C	-0.984146	-0.027071	0.335555
C48	C	-0.986203	-0.036443	0.452072
H49	H	-0.546751	-0.110926	0.286967
H50	H	-0.989846	-0.199180	-0.339132
C51	C	-0.989069	0.200154	-0.389193
H52	H	-0.989940	0.244177	-0.340916
H53	H	-0.939556	0.206307	-0.423914
H54	H	-1.037099	0.207561	-0.439891
H55	H	-0.992761	-0.131952	-0.174922
C56	C	-0.986078	-0.204922	-0.553389
H57	H	-0.984795	-0.187527	-0.626431
H58	H	-0.937622	-0.240060	-0.527442
H59	H	-1.035164	-0.238773	-0.543450
C60	C	-0.986189	0.132924	-0.553415
H61	H	-0.987068	0.176951	-0.505144
H62	H	-0.936684	0.139095	-0.588152
H63	H	-1.034228	0.140306	-0.604100
C64	C	-0.936609	-0.442853	0.340273
H65	H	-0.936756	-0.379869	0.340844
H66	H	-0.989406	-0.465516	0.357152
H67	H	-0.893253	-0.468123	0.390920
C68	C	-0.882755	-0.416272	0.009737
H69	H	-0.871063	-0.433816	-0.056529
H70	H	-0.882656	-0.353089	0.007382
H71	H	-0.840930	-0.440391	0.063219
C72	C	-0.887341	-0.586549	0.002480
H73	H	-0.877711	-0.557521	-0.064192
H74	H	-0.843094	-0.573088	0.054039
H75	H	-0.889207	-0.649139	-0.001582
H76	H	-0.992815	0.159933	-0.174923
C77	C	-0.427049	0.083807	-0.034907
H78	H	-0.475662	0.119318	-0.058928
H79	H	-0.389441	0.116001	0.009734
H80	H	-0.400084	0.069395	-0.093723
H81	H	-0.402661	0.067256	0.282831
H82	H	-1.129398	-0.432392	0.106659
C83	C	-0.587288	0.083924	-0.031769
H84	H	-0.617837	0.115042	0.013185
H85	H	-0.543271	0.120441	-0.055069
H86	H	-0.624017	0.069551	-0.091011
H87	H	-0.558514	-0.160354	0.161634
C88	C	-0.588549	-0.078951	-0.030754
H89	H	-0.619207	-0.116582	0.014816
H90	H	-0.625351	-0.054988	-0.089893
H91	H	-0.545091	-0.112510	-0.054131
H92	H	-0.434335	-0.059556	-0.018602
H93	H	-1.016424	-0.420086	-0.032670
C94	C	-0.392463	-0.113392	0.314429
H95	H	-0.411055	-0.167466	0.348345
H96	H	-0.333177	-0.115872	0.313832
H97	H	-0.406880	-0.064919	0.351540
C98	C	-0.407745	-0.180808	0.146072
H99	H	-0.425750	-0.234240	0.182050
H100	H	-0.432393	-0.176042	0.074865
H101	H	-0.348219	-0.181821	0.147876
C102	C	-0.569859	0.157341	0.153775
H103	H	-0.543924	0.204104	0.189847
H104	H	-0.560527	0.165533	0.081538
H105	H	-0.628591	0.157993	0.159366
C106	C	-0.410065	0.157337	0.141522
H107	H	-0.381644	0.145578	0.082843
H108	H	-0.459058	0.192278	0.117657
H109	H	-0.373887	0.188857	0.188571
H110	H	-0.546145	0.061134	0.288978
H111	H	-0.856063	-0.440874	0.215646
H112	H	-0.855694	-0.593666	0.215567
C113	C	-1.039339	-0.579894	-0.052853
H114	H	-1.078352	-0.619015	-0.022027
H115	H	-1.068006	-0.527765	-0.085995
H116	H	-1.013410	-0.608912	-0.103824
C117	C	-0.936221	-0.613763	0.339351
H118	H	-0.984318	-0.650645	0.333036
H119	H	-0.888526	-0.648857	0.368574
H120	H	-0.945293	-0.568757	0.384158
H121	H	-1.129393	-0.584707	0.108072
C122	C	-1.097923	-0.605794	0.276678
H123	H	-1.106718	-0.559577	0.319962
H124	H	-1.147519	-0.640170	0.267835
H125	H	-1.052646	-0.642996	0.309175
H126	H	-1.093154	-0.442375	0.246972
