data_functionalizedCrystal
_audit_creation_method	'MofGen! by Chris Wilmer'
_symmetry_space_group_name_H-M	'P1'
_symmetry_Int_Tables_number	1
_symmetry_cell_setting	triclinic
loop_
_symmetry_equiv_pos_as_xyz
  x,y,z
_cell_length_a	12.837932
_cell_length_b	15.944551
_cell_length_c	11.295483
_cell_angle_alpha	94.094426
_cell_angle_beta	85.460332
_cell_angle_gamma	89.164220
loop_
_atom_site_label
_atom_site_type_symbol
_atom_site_fract_x
_atom_site_fract_y
_atom_site_fract_z
O1	O	1.382453	0.213272	-0.099033
O2	O	1.080646	0.202483	-0.099034
O3	O	1.239790	0.086263	-0.099023
O4	O	1.223309	0.329492	-0.099045
O5	O	1.225812	0.096453	0.099027
O6	O	1.066668	0.212674	0.099015
O7	O	1.368475	0.223462	0.099017
Cu8	Cu	1.216295	0.218998	0.117100
Cu9	Cu	1.232826	0.206947	-0.117117
O10	O	1.209331	0.339683	0.099005
C11	C	1.035036	0.203934	-0.000010
C12	C	0.919958	0.193066	-0.000010
C13	C	1.232117	0.060009	0.000002
C14	C	1.230066	-0.033401	0.000003
C15	C	0.770109	0.102226	0.000000
C16	C	0.878236	0.112432	-0.000001
C17	C	0.853546	0.263498	-0.000014
C18	C	0.745419	0.253292	-0.000012
C19	C	0.703705	0.172653	-0.000007
C20	C	0.595576	0.162447	-0.000014
C21	C	0.570888	0.313513	-0.000019
C22	C	0.679014	0.323719	-0.000020
C23	C	1.126518	-0.256543	-0.000014
C24	C	1.167710	-0.308688	0.097637
C25	C	1.226355	-0.204424	-0.000006
C26	C	1.181515	-0.318717	-0.097625
C27	C	1.222764	-0.369625	-0.000020
C28	C	1.267569	-0.255336	0.097725
C29	C	1.281366	-0.265364	-0.097624
C30	C	1.322630	-0.317485	0.000050
C31	C	1.228421	-0.109256	0.000003
C32	C	1.220705	-0.464791	-0.000021
C33	C	1.414085	0.222011	-0.000011
C34	C	1.529163	0.232879	-0.000018
C35	C	1.217004	0.365936	-0.000022
C36	C	1.219056	0.459346	-0.000031
N37	N	1.204676	0.227475	0.281835
N38	N	1.244453	0.198465	-0.281853
C39	C	1.328094	0.137400	0.531133
C40	C	1.319321	0.143812	0.655796
C41	C	1.178352	0.246707	0.655826
C42	C	1.187125	0.240294	0.531163
C43	C	1.262000	0.185640	0.468821
C44	C	1.270777	0.179233	0.344156
C45	C	1.129804	0.282122	0.344188
C46	C	1.121031	0.288535	0.468851
H47	H	0.561615	0.096786	-0.000015
H48	H	1.329384	-0.246106	-0.180184
H49	H	0.887528	0.329152	-0.000007
Cl50	Cl	0.731466	0.425088	-0.000029
H51	H	0.516809	0.370860	-0.000025
H52	H	1.405568	-0.344005	0.000106
Cl53	Cl	0.717664	0.000854	0.000000
Cl54	Cl	0.998565	-0.215346	0.000128
Cl55	Cl	1.125288	-0.361511	-0.225075
H56	H	1.373140	0.104529	0.706528
H57	H	1.119656	-0.327927	0.180192
Cl58	Cl	1.364907	0.110527	0.265785
Cl59	Cl	1.323708	-0.212701	0.225325
Cl60	Cl	1.026904	0.357238	0.547232
Cl61	Cl	0.961712	0.023891	0.000012
Cl62	Cl	1.422231	0.068703	0.452759
Cl63	Cl	1.084218	0.315401	0.734211
H64	H	1.075988	0.321406	0.293439
