data_functionalizedCrystal
_audit_creation_method	'MofGen! by Chris Wilmer'
_symmetry_space_group_name_H-M	'P1'
_symmetry_Int_Tables_number	1
_symmetry_cell_setting	triclinic
loop_
_symmetry_equiv_pos_as_xyz
  x,y,z
_cell_length_a	12.759401
_cell_length_b	19.805405
_cell_length_c	12.759393
_cell_angle_alpha	89.963446
_cell_angle_beta	89.980324
_cell_angle_gamma	90.026837
loop_
_atom_site_label
_atom_site_type_symbol
_atom_site_fract_x
_atom_site_fract_y
_atom_site_fract_z
Zn1	Zn	1.606181	-0.269423	-0.593940
Zn2	Zn	1.939514	0.063911	-0.260607
Zn3	Zn	2.272848	0.397244	0.072726
Zn4	Zn	1.606036	-0.382625	-0.418242
Zn5	Zn	1.939369	-0.049292	-0.084909
Zn6	Zn	2.272703	0.284041	0.248425
Zn7	Zn	1.430480	-0.269457	-0.418280
Zn8	Zn	1.763813	0.063877	-0.084946
Zn9	Zn	2.097146	0.397210	0.248387
Zn10	Zn	1.430436	-0.382576	-0.593883
Zn11	Zn	1.763769	-0.049243	-0.260550
Zn12	Zn	2.097102	0.284091	0.072784
O13	O	1.518283	-0.326020	-0.506086
O14	O	1.851616	0.007313	-0.172753
O15	O	2.184950	0.340646	0.160580
O16	O	1.753183	-0.284446	-0.570642
O17	O	2.086516	0.048887	-0.237309
O18	O	2.419849	0.382221	0.096025
O19	O	1.582706	-0.367648	-0.271226
O20	O	1.916039	-0.034315	0.062107
O21	O	2.249373	0.299018	0.395441
O22	O	1.453866	-0.174736	-0.441621
O23	O	1.787199	0.158598	-0.108288
O24	O	2.120532	0.491931	0.225046
O25	O	1.753076	-0.367615	-0.441557
O26	O	2.086410	-0.034282	-0.108224
O27	O	2.419743	0.299051	0.225110
O28	O	1.582953	-0.174711	-0.570678
O29	O	1.916286	0.158623	-0.237345
O30	O	2.249619	0.491956	0.095988
O31	O	1.453725	-0.284504	-0.271253
O32	O	1.787059	0.048830	0.062080
O33	O	2.120392	0.382163	0.395413
O34	O	1.283453	-0.284456	-0.441565
O35	O	1.616786	0.048878	-0.108232
O36	O	1.950119	0.382211	0.225101
O37	O	1.453791	-0.367531	-0.740912
O38	O	1.787124	-0.034198	-0.407579
O39	O	2.120457	0.299136	-0.074245
O40	O	1.283420	-0.367564	-0.570581
O41	O	1.616754	-0.034231	-0.237247
O42	O	1.950087	0.299103	0.096086
O43	O	1.582910	-0.284398	-0.740954
O44	O	1.916243	0.048935	-0.407621
O45	O	2.249577	0.382269	-0.074287
O46	O	1.582663	-0.477335	-0.441501
O47	O	1.915997	-0.144002	-0.108168
O48	O	2.249330	0.189331	0.225165
O49	O	1.453650	-0.477299	-0.570544
O50	O	1.786984	-0.143966	-0.237211
O51	O	2.120317	0.189368	0.096122
C52	C	1.245316	-0.326009	-0.506071
C53	C	1.578649	0.007325	-0.172738
C54	C	1.911982	0.340658	0.160595
C55	C	1.128539	-0.326020	-0.506090
C56	C	1.461872	0.007313	-0.172757
C57	C	1.795206	0.340647	0.160577
C58	C	1.073733	-0.282792	-0.573408
C59	C	1.407066	0.050542	-0.240075
C60	C	1.740400	0.383875	0.093259
C61	C	0.964009	-0.282799	-0.573415
C62	C	1.297342	0.050535	-0.240082
C63	C	1.630676	0.383868	0.093252
C64	C	0.963907	-0.369268	-0.438783
C65	C	1.297240	-0.035934	-0.105450
C66	C	1.630573	0.297399	0.227884
C67	C	1.073629	-0.369257	-0.438771
C68	C	1.406962	-0.035923	-0.105438
C69	C	1.740295	0.297410	0.227895
C70	C	1.518165	-0.501876	-0.506035
C71	C	1.851498	-0.168543	-0.172702
C72	C	2.184831	0.164790	0.160631
C73	C	1.518210	-0.577108	-0.506049
C74	C	1.851544	-0.243775	-0.172716
C75	C	2.184877	0.089558	0.160618
C76	C	1.585453	-0.612449	-0.438927
C77	C	1.918786	-0.279115	-0.105593
C78	C	2.252119	0.054218	0.227740
C79	C	1.585497	-0.683137	-0.438950
C80	C	1.918831	-0.349804	-0.105617
C81	C	2.252164	-0.016471	0.227717
C82	C	1.518293	-0.718484	-0.506091
C83	C	1.851627	-0.385150	-0.172757
C84	C	2.184960	-0.051817	0.160576
C85	C	1.451048	-0.683138	-0.573220
C86	C	1.784382	-0.349805	-0.239887
C87	C	2.117715	-0.016472	0.093446
C88	C	1.451010	-0.612451	-0.573202
C89	C	1.784343	-0.279118	-0.239868
C90	C	2.117676	0.054216	0.093465
C91	C	1.451203	-0.968211	-0.573298
C92	C	1.784537	-0.634878	-0.239965
C93	C	2.117870	-0.301545	0.093368
C94	C	1.451245	-1.038904	-0.573310
C95	C	1.784578	-0.705570	-0.239976
C96	C	2.117911	-0.372237	0.093357
C97	C	1.585691	-1.038898	-0.439046
C98	C	1.919024	-0.705564	-0.105713
C99	C	2.252357	-0.372231	0.227620
C100	C	1.585652	-0.968210	-0.439028
C101	C	1.918986	-0.634877	-0.105694
C102	C	2.252319	-0.301544	0.227639
C103	C	1.518411	-0.932871	-0.506161
C104	C	1.851745	-0.599538	-0.172827
C105	C	2.185078	-0.266204	0.160506
C106	C	1.518365	-0.856223	-0.506136
C107	C	1.851699	-0.522889	-0.172803
C108	C	2.185032	-0.189556	0.160531
C109	C	1.518334	-0.795131	-0.506111
C110	C	1.851667	-0.461798	-0.172777
C111	C	2.185000	-0.128464	0.160556
C112	C	1.792316	-0.326032	-0.506102
C113	C	2.125650	0.007301	-0.172768
C114	C	2.458983	0.340634	0.160565
C115	C	1.909093	-0.326038	-0.506108
C116	C	2.242426	0.007296	-0.172775
C117	C	2.575760	0.340629	0.160558
C118	C	1.518430	-0.149477	-0.506160
C119	C	1.851764	0.183856	-0.172827
C120	C	2.185097	0.517189	0.160506
C121	C	1.518493	-0.074245	-0.506192
C122	C	1.851826	0.259088	-0.172858
C123	C	2.185160	0.592421	0.160475
C124	C	1.518362	-0.325955	-0.780120
C125	C	1.851695	0.007378	-0.446786
C126	C	2.185028	0.340711	-0.113453
C127	C	1.518395	-0.325928	-0.896896
C128	C	1.851728	0.007406	-0.563563
C129	C	2.185062	0.340739	-0.230230
C130	C	1.585633	-0.282633	-0.951782
C131	C	1.918966	0.050700	-0.618449
C132	C	2.252299	0.384034	-0.285115
C133	C	1.585650	-0.282604	-1.061506
C134	C	1.918984	0.050729	-0.728173
C135	C	2.252317	0.384063	-0.394840
C136	C	1.451190	-0.369169	-1.061450
C137	C	1.784524	-0.035836	-0.728116
C138	C	2.117857	0.297497	-0.394783
C139	C	1.451168	-0.369195	-0.951727
C140	C	1.784501	-0.035861	-0.618394
C141	C	2.117835	0.297472	-0.285061
C142	C	1.518265	-0.326036	-0.233119
C143	C	1.851598	0.007297	0.100214
C144	C	2.184932	0.340631	0.433548
C145	C	1.518435	-0.325873	-0.116343
C146	C	1.851769	0.007460	0.216991
C147	C	2.185102	0.340794	0.550324
H148	H	1.640173	-0.583674	-0.384248
H149	H	1.973506	-0.250341	-0.050915
H150	H	2.306840	0.082992	0.282418
H151	H	1.118253	-0.404459	-0.383947
H152	H	1.451586	-0.071126	-0.050614
H153	H	1.784919	0.262208	0.282719
H154	H	0.919391	-0.247597	-0.628231
H155	H	1.252724	0.085736	-0.294897
H156	H	1.586058	0.419070	0.038436
H157	H	1.640446	-1.067679	-0.384387
H158	H	1.973779	-0.734346	-0.051054
H159	H	2.307112	-0.401013	0.282279
H160	H	1.396408	-0.404450	-0.907038
H161	H	1.729741	-0.071116	-0.573705
H162	H	2.063074	0.262217	-0.240372
H163	H	1.640252	-0.711908	-0.384291
H164	H	1.973585	-0.378575	-0.050958
H165	H	2.306918	-0.045242	0.282375
H166	H	1.640372	-0.939433	-0.384352
H167	H	1.973705	-0.606100	-0.051018
H168	H	2.307039	-0.272767	0.282315
H169	H	1.396521	-1.067681	-0.627992
H170	H	1.729854	-0.734347	-0.294658
H171	H	2.063187	-0.401014	0.038675
H172	H	1.396459	-0.404397	-1.106106
H173	H	1.729792	-0.071064	-0.772773
H174	H	2.063125	0.262269	-0.439439
H175	H	1.640400	-0.247348	-1.106189
H176	H	1.973733	0.085985	-0.772856
H177	H	2.307067	0.419318	-0.439523
H178	H	1.640370	-0.247400	-0.907142
H179	H	1.973704	0.085933	-0.573809
H180	H	2.307037	0.419266	-0.240475
H181	H	1.396451	-0.939444	-0.627958
H182	H	1.729785	-0.606110	-0.294625
H183	H	2.063118	-0.272777	0.038708
H184	H	1.396334	-0.711923	-0.627892
H185	H	1.729668	-0.378590	-0.294559
H186	H	2.063001	-0.045256	0.038774
H187	H	0.919185	-0.404470	-0.383975
H188	H	1.252518	-0.071137	-0.050642
H189	H	1.585852	0.262196	0.282691
H190	H	1.396256	-0.583677	-0.627861
H191	H	1.729589	-0.250344	-0.294527
H192	H	2.062922	0.082989	0.038806
H193	H	1.118438	-0.247583	-0.628220
H194	H	1.451771	0.085750	-0.294887
H195	H	1.785105	0.419083	0.038447
