data_functionalizedCrystal
_audit_creation_method	'MofGen! by Chris Wilmer'
_symmetry_space_group_name_H-M	'P1'
_symmetry_Int_Tables_number	1
_symmetry_cell_setting	triclinic
loop_
_symmetry_equiv_pos_as_xyz
  x,y,z
_cell_length_a	15.538191
_cell_length_b	15.944551
_cell_length_c	14.750779
_cell_angle_alpha	77.355667
_cell_angle_beta	97.572172
_cell_angle_gamma	65.385416
loop_
_atom_site_label
_atom_site_type_symbol
_atom_site_fract_x
_atom_site_fract_y
_atom_site_fract_z
O1	O	1.229446	-0.248345	-0.079831
O2	O	0.955193	-0.151359	-0.079833
O3	O	1.099811	-0.324413	-0.079824
O4	O	1.084828	-0.075291	-0.079841
O5	O	1.140693	-0.373329	0.079829
O6	O	0.996075	-0.200275	0.079820
O7	O	1.270328	-0.297261	0.079821
Zn8	Zn	1.139692	-0.256535	0.105169
Zn9	Zn	1.085829	-0.192085	-0.105181
O10	O	1.125710	-0.124207	0.079812
C11	C	0.940539	-0.165670	-0.000007
C12	C	0.835967	-0.135444	-0.000007
C13	C	1.119630	-0.379976	0.000003
C14	C	1.117766	-0.472653	0.000004
C15	C	0.548159	-0.435726	-0.000001
C16	C	0.449895	-0.407303	-0.000004
C17	C	0.427459	-0.247430	-0.000015
C18	C	0.525725	-0.275842	-0.000007
C19	C	0.586068	-0.369990	-0.000002
C20	C	0.563633	-0.210106	-0.000008
C21	C	0.661889	-0.238514	-0.000005
C22	C	0.722237	-0.332657	-0.000003
C23	C	0.684324	-0.398398	0.000001
C24	C	0.503287	-0.115955	-0.000020
C25	C	0.541195	-0.050219	-0.000021
C26	C	0.639455	-0.078629	-0.000012
C27	C	0.699803	-0.172773	-0.000009
C28	C	0.677369	-0.012888	-0.000015
C29	C	0.775625	-0.041296	-0.000013
C30	C	0.798059	-0.201180	-0.000006
C31	C	1.023667	-0.658813	-0.000010
C32	C	1.087519	-0.757273	0.078709
C33	C	1.114392	-0.642349	-0.000004
C34	C	1.047235	-0.709035	-0.078697
C35	C	1.111125	-0.806262	-0.000015
C36	C	1.178285	-0.739608	0.078780
C37	C	1.137970	-0.691338	-0.078696
C38	C	1.201893	-0.789807	0.000042
C39	C	1.116272	-0.547921	0.000004
C40	C	1.109254	-0.900693	-0.000016
C41	C	1.284982	-0.282950	-0.000007
C42	C	1.389552	-0.313173	-0.000013
C43	C	1.105890	-0.068644	-0.000017
C44	C	1.107753	0.024036	-0.000024
N45	N	1.176460	-0.300522	0.248727
N46	N	1.049069	-0.148107	-0.248739
C47	C	0.946383	-0.025293	0.600530
C48	C	0.972154	-0.056113	0.701031
C49	C	1.100240	-0.209318	0.701002
C50	C	1.074477	-0.178513	0.600499
C51	C	0.997548	-0.086499	0.550271
C52	C	1.125641	-0.239719	0.550240
C53	C	1.099883	-0.208913	0.449746
C54	C	1.022960	-0.116902	0.399511
C55	C	0.971790	-0.055693	0.449777
C56	C	1.202574	-0.331730	0.600470
C57	C	1.253739	-0.392936	0.550211
C58	C	1.227976	-0.362133	0.449715
C59	C	1.151053	-0.270122	0.399480
C60	C	1.279146	-0.423342	0.399449
C61	C	1.253388	-0.392536	0.298955
C62	C	1.125295	-0.239316	0.298986
H63	H	0.847196	-0.277847	0.000004
O64	O	0.828220	-0.363309	0.000017
H65	H	0.842316	-0.385370	-0.065052
O66	O	0.613257	-0.537274	0.000007
H67	H	0.570392	-0.578216	0.000005
O68	O	0.973823	-0.693133	-0.166853
H69	H	0.899922	-0.639634	-0.166680
H70	H	0.806492	0.012231	-0.000004
O71	O	1.042293	-0.140086	0.244806
H72	H	1.032970	-0.128959	0.166483
H73	H	1.162878	-0.284236	0.741909
O74	O	0.863389	0.073946	0.546363
H75	H	0.805881	0.066531	0.500606
O76	O	0.916961	0.009902	0.755244
H77	H	0.859138	0.079055	0.703430
O78	O	0.749421	-0.499946	0.000009
H79	H	0.706556	-0.540888	0.000007
O80	O	1.308544	-0.458543	0.244723
H81	H	1.386919	-0.476117	0.263979
H82	H	1.223546	-0.356806	0.682299
H83	H	1.001991	-0.091820	0.317682
O84	O	0.409006	-0.478210	0.000006
H85	H	0.467478	-0.548450	0.000018
O86	O	1.166180	-0.653188	-0.166873
H87	H	1.239561	-0.707386	-0.167457
O88	O	0.888815	0.043551	0.395589
H89	H	0.857562	0.080942	0.447418
O90	O	0.923952	-0.584300	0.000098
H91	H	0.926054	-0.515436	-0.000573
O92	O	0.362379	-0.145891	-0.000007
H93	H	0.287688	-0.137182	0.000001
O94	O	1.336707	-0.492179	0.604386
H95	H	1.346020	-0.503321	0.682710
H96	H	0.423281	-0.092828	-0.000025
O97	O	1.362124	-0.522579	0.453625
H98	H	1.334218	-0.565380	0.499421
O99	O	0.476115	0.051320	-0.000013
H100	H	0.401424	0.060029	-0.000005
H101	H	0.628221	0.063771	-0.000029
O102	O	1.059274	-0.795421	0.166868
H103	H	0.991755	-0.801851	0.144701
O104	O	1.251667	-0.755667	0.167038
H105	H	1.252443	-0.686241	0.166369
O106	O	1.301736	-0.864202	0.000095
H107	H	1.355905	-0.877499	0.065501
