data_functionalizedCrystal
_audit_creation_method	'MofGen! by Chris Wilmer'
_symmetry_space_group_name_H-M	'P1'
_symmetry_Int_Tables_number	1
_symmetry_cell_setting	triclinic
loop_
_symmetry_equiv_pos_as_xyz
  x,y,z
_cell_length_a	27.732048
_cell_length_b	26.210047
_cell_length_c	27.732046
_cell_angle_alpha	89.998169
_cell_angle_beta	97.357683
_cell_angle_gamma	90.003465
loop_
_atom_site_label
_atom_site_type_symbol
_atom_site_fract_x
_atom_site_fract_y
_atom_site_fract_z
O1	O	0.640931	0.042370	-0.057510
O2	O	0.500137	0.042387	-0.066256
O3	O	0.574907	0.042366	0.008514
O4	O	0.566161	0.042390	-0.132280
O5	O	0.574893	-0.042492	0.008502
O6	O	0.500123	-0.042472	-0.066267
O7	O	0.640916	-0.042488	-0.057522
Cu8	Cu	0.570518	-0.050228	-0.061896
Cu9	Cu	0.570535	0.050127	-0.061882
O10	O	0.566146	-0.042468	-0.132291
C11	C	0.482123	-0.000041	-0.066078
C12	C	0.428468	-0.000035	-0.065525
C13	C	0.089653	-0.000050	-0.106229
C14	C	-0.112007	-0.000055	-0.104178
O15	O	-0.143263	-0.000071	-0.141399
N16	N	-0.131130	-0.000062	-0.059843
C17	C	-0.099835	-0.000070	-0.016017
O18	O	-0.120728	-0.000081	0.021740
C19	C	0.101823	-0.000069	-0.018069
C20	C	0.120944	-0.000057	-0.062407
C21	C	0.108774	-0.000039	-0.150563
C22	C	0.159186	-0.000035	-0.151076
C23	C	0.190477	-0.000042	-0.107253
C24	C	0.171356	-0.000053	-0.062919
C25	C	0.133117	-0.000081	0.025757
C26	C	0.183535	-0.000082	0.025240
C27	C	0.202655	-0.000071	-0.019098
C28	C	0.253059	-0.000056	-0.019609
N29	N	0.272182	-0.000050	-0.063944
C30	C	0.240891	-0.000043	-0.107766
C31	C	-0.205709	-0.000070	-0.014943
C32	C	-0.256124	-0.000069	-0.014430
C33	C	-0.268292	-0.000055	-0.102591
C34	C	-0.217876	-0.000052	-0.103104
C35	C	-0.186586	-0.000063	-0.059278
C36	C	0.346760	-0.000034	-0.108839
C37	C	0.397177	-0.000028	-0.109347
C38	C	0.409341	-0.000045	-0.021186
C39	C	0.358928	-0.000048	-0.020678
C40	C	0.327639	-0.000044	-0.064508
O41	O	0.284343	-0.000046	0.017592
O42	O	0.261794	-0.000043	-0.145518
C43	C	0.039241	-0.000054	-0.105717
C44	C	0.020120	-0.000065	-0.061382
C45	C	0.051411	-0.000072	-0.017560
C46	C	-0.030294	-0.000065	-0.060869
C47	C	-0.061585	-0.000057	-0.104691
C48	C	-0.042462	-0.000051	-0.149027
C49	C	0.007950	-0.000047	-0.149539
C50	C	0.032287	-0.000079	0.026775
C51	C	-0.018125	-0.000083	0.027284
C52	C	-0.049416	-0.000075	-0.016538
N53	N	0.570510	-0.120812	-0.061905
C54	C	0.603640	-0.473335	-0.028781
C55	C	0.603651	-0.686993	-0.028774
O56	O	0.631801	-0.714623	-0.000614
N57	N	0.570538	-0.713706	-0.061871
C58	C	0.537418	-0.687000	-0.094970
O59	O	0.509251	-0.714623	-0.123117
C60	C	0.537406	-0.473343	-0.094974
C61	C	0.570524	-0.446633	-0.061878
C62	C	0.636755	-0.446625	0.004312
C63	C	0.636754	-0.393214	0.004308
C64	C	0.603638	-0.366512	-0.028789
C65	C	0.570522	-0.393222	-0.061882
C66	C	0.504284	-0.446638	-0.128070
C67	C	0.504283	-0.393220	-0.128067
C68	C	0.537401	-0.366511	-0.094971
C69	C	0.537405	-0.313108	-0.094983
N70	N	0.570518	-0.286396	-0.061886
C71	C	0.603634	-0.313098	-0.028789
C72	C	0.537428	-0.799174	-0.094966
C73	C	0.537431	-0.852588	-0.094966
C74	C	0.603664	-0.852577	-0.028770
C75	C	0.603662	-0.799162	-0.028773
C76	C	0.570540	-0.772461	-0.061869
C77	C	0.603629	-0.200930	-0.028800
C78	C	0.603626	-0.147514	-0.028808
C79	C	0.537393	-0.147529	-0.095002
C80	C	0.537397	-0.200940	-0.094996
C81	C	0.570517	-0.227640	-0.061891
O82	O	0.509266	-0.285446	-0.123125
O83	O	0.631790	-0.285466	-0.000639
C84	C	0.603641	-0.526746	-0.028777
C85	C	0.570526	-0.553456	-0.061871
C86	C	0.537410	-0.526754	-0.094968
C87	C	0.570530	-0.606870	-0.061870
C88	C	0.603646	-0.633572	-0.028773
C89	C	0.636759	-0.606860	0.004323
C90	C	0.636758	-0.553448	0.004320
C91	C	0.504297	-0.553466	-0.128064
C92	C	0.504301	-0.606878	-0.128058
C93	C	0.537418	-0.633580	-0.094961
C94	C	0.658931	-0.000060	-0.057699
C95	C	0.712585	-0.000062	-0.058252
C96	C	0.574717	-0.000065	0.026515
C97	C	0.574164	-0.000070	0.080170
N98	N	0.570548	0.120710	-0.061869
C99	C	0.614870	-0.000057	0.418985
C100	C	0.612820	-0.000055	0.620645
O101	O	0.650041	-0.000037	0.651901
N102	N	0.568485	-0.000050	0.639769
C103	C	0.524659	-0.000044	0.608474
O104	O	0.486902	-0.000035	0.629367
C105	C	0.526710	-0.000042	0.406815
C106	C	0.571047	-0.000052	0.387695
C107	C	0.659204	-0.000066	0.399864
C108	C	0.659716	-0.000069	0.349452
C109	C	0.615894	-0.000064	0.318161
C110	C	0.571559	-0.000055	0.337283
C111	C	0.482884	-0.000032	0.375522
C112	C	0.483401	-0.000030	0.325104
C113	C	0.527739	-0.000039	0.305984
C114	C	0.528249	-0.000053	0.255580
N115	N	0.572584	-0.000057	0.236456
C116	C	0.616406	-0.000062	0.267747
C117	C	0.523586	-0.000045	0.714348
C118	C	0.523073	-0.000046	0.764763
C119	C	0.611234	-0.000057	0.776930
C120	C	0.611746	-0.000059	0.726515
C121	C	0.567921	-0.000049	0.695225
C122	C	0.617478	-0.000070	0.161878
C123	C	0.617986	-0.000075	0.111461
C124	C	0.529826	-0.000063	0.099298
C125	C	0.529317	-0.000060	0.149710
C126	C	0.573148	-0.000062	0.180999
O127	O	0.491048	-0.000064	0.224296
O128	O	0.654158	-0.000060	0.246844
C129	C	0.614358	-0.000054	0.469397
C130	C	0.570024	-0.000045	0.488519
C131	C	0.526201	-0.000039	0.457228
C132	C	0.569511	-0.000046	0.538933
C133	C	0.613333	-0.000051	0.570224
C134	C	0.657668	-0.000056	0.551100
C135	C	0.658180	-0.000059	0.500688
C136	C	0.481866	-0.000035	0.476352
C137	C	0.481358	-0.000032	0.526764
C138	C	0.525180	-0.000038	0.558055
C139	C	0.566339	-0.000042	0.849708
C140	C	0.566896	-0.000052	0.796054
H141	H	-0.293778	-0.000049	-0.138273
H142	H	0.486969	-0.000048	0.780326
H143	H	-0.271687	-0.000071	0.021674
H144	H	0.446180	-0.000030	0.450879
C145	C	0.443765	-0.000050	0.027015
H146	H	0.425160	-0.000052	0.053497
H147	H	0.463684	-0.029640	0.028641
H148	H	0.463684	0.029547	0.028649
H149	H	0.477310	-0.371483	-0.155018
H150	H	0.209010	-0.000092	0.060929
C151	C	0.467870	-0.524101	-0.164476
H152	H	0.448155	-0.547664	-0.184187
H153	H	0.447876	-0.503264	-0.147233
H154	H	0.485110	-0.503267	-0.184483
H155	H	0.663720	-0.371470	0.031259
H156	H	0.663726	-0.531705	0.031269
H157	H	0.494147	-0.000060	0.073812
H158	H	0.663725	-0.628609	0.031271
H159	H	0.493214	-0.000066	0.165279
H160	H	0.694892	-0.000068	0.425337
C161	C	0.418207	-0.000017	-0.158121
H162	H	0.392348	-0.000019	-0.184145
H163	H	0.437621	0.029575	-0.160152
H164	H	0.437619	-0.029612	-0.160157
H165	H	0.487896	-0.000038	0.688875
C166	C	0.640090	-0.881953	0.007639
H167	H	0.659814	-0.858399	0.027352
H168	H	0.622850	-0.902793	0.027638
H169	H	0.660083	-0.902787	-0.009613
C170	C	0.066701	-0.000083	0.074983
H171	H	0.048087	-0.000083	0.101457
H172	H	0.086623	-0.029672	0.076618
H173	H	0.086618	0.029516	0.076619
H174	H	-0.202312	-0.000045	-0.139208
C175	C	-0.076886	-0.000042	-0.197231
H176	H	-0.058282	-0.000032	-0.223713
H177	H	-0.096807	-0.029634	-0.198864
H178	H	-0.096803	0.029554	-0.198856
C179	C	0.180212	-0.000032	-0.199848
H180	H	0.154351	-0.000034	-0.225870
H181	H	0.199629	0.029558	-0.201885
H182	H	0.199621	-0.029629	-0.201883
C183	C	0.706952	-0.000064	0.479662
H184	H	0.732974	-0.000062	0.505523
H185	H	0.708985	-0.029655	0.460248
H186	H	0.708991	0.029532	0.460249
H187	H	0.446780	-0.000021	0.391081
C188	C	0.666760	-0.000083	0.090431
H189	H	0.692784	-0.000080	0.116290
H190	H	0.668790	-0.029675	0.071018
H191	H	0.668797	0.029512	0.071017
C192	C	0.659438	-0.000055	0.811356
H193	H	0.652778	-0.000049	0.844118
H194	H	0.677637	-0.029644	0.805601
H195	H	0.677631	0.029543	0.805594
C196	C	0.028976	-0.000039	-0.198311
H197	H	0.003115	-0.000040	-0.224333
H198	H	0.048392	0.029553	-0.200345
H199	H	0.048386	-0.029635	-0.200349
H200	H	0.447712	-0.000021	0.299630
H201	H	0.693350	-0.000062	0.576586
C202	C	0.500950	-0.230322	-0.131382
H203	H	0.481220	-0.206767	-0.151086
H204	H	0.518162	-0.251174	-0.151392
H205	H	0.480966	-0.251144	-0.114104
H206	H	-0.180236	-0.000079	0.020747
H207	H	0.653169	-0.000070	0.187348
C208	C	0.467867	-0.636253	-0.164464
H209	H	0.448142	-0.612695	-0.184170
H210	H	0.485095	-0.657092	-0.184469
H211	H	0.447876	-0.657086	-0.147205
C212	C	0.708487	-0.000076	0.328423
H213	H	0.702523	-0.000080	0.293916
H214	H	0.726519	0.029513	0.339188
H215	H	0.726507	-0.029674	0.339189
C216	C	0.312349	-0.000023	-0.157051
H217	H	0.330964	-0.000010	-0.183525
H218	H	0.292426	-0.029614	-0.158696
H219	H	0.292433	0.029574	-0.158678
H220	H	0.630598	-0.222662	-0.001842
H221	H	0.343360	-0.000050	0.015426
H222	H	0.083301	-0.000035	-0.186251
H223	H	0.663723	-0.468361	0.031266
H224	H	0.510456	-0.777437	-0.121918
C225	C	0.640088	-0.769786	0.007636
H226	H	0.659807	-0.793344	0.027347
H227	H	0.660078	-0.748944	-0.009612
H228	H	0.622847	-0.748956	0.027642
H229	H	-0.033688	-0.000088	0.063392
C230	C	0.640055	-0.118136	0.007601
H231	H	0.659774	-0.141692	0.027315
H232	H	0.660047	-0.097297	-0.009649
H233	H	0.622815	-0.097302	0.027605
H234	H	0.510469	-0.874331	-0.121920
C235	C	0.500964	-0.118150	-0.131402
H236	H	0.505705	-0.082514	-0.126657
H237	H	0.505963	-0.126899	-0.163631
H238	H	0.468744	-0.126907	-0.126366
C239	C	0.660517	-0.000064	0.705486
H240	H	0.686541	-0.000065	0.731347
H241	H	0.662548	-0.029655	0.686071
H242	H	0.662557	0.029533	0.686076
C243	C	0.432583	-0.000021	0.547791
H244	H	0.406559	-0.000012	0.521931
H245	H	0.430538	-0.029608	0.567209
H246	H	0.430558	0.029579	0.567200
H247	H	0.477316	-0.468377	-0.155019
H248	H	0.117559	-0.000091	0.061861
