data_functionalizedCrystal
_audit_creation_method	'MofGen! by Chris Wilmer'
_symmetry_space_group_name_H-M	'P1'
_symmetry_Int_Tables_number	1
_symmetry_cell_setting	triclinic
loop_
_symmetry_equiv_pos_as_xyz
  x,y,z
_cell_length_a	19.121063
_cell_length_b	16.120542
_cell_length_c	16.120256
_cell_angle_alpha	89.872789
_cell_angle_beta	95.181175
_cell_angle_gamma	90.317046
loop_
_atom_site_label
_atom_site_type_symbol
_atom_site_fract_x
_atom_site_fract_y
_atom_site_fract_z
Zn1	Zn	-0.355839	-1.228531	-0.551620
Zn2	Zn	0.144161	-0.728531	-0.051620
Zn3	Zn	-0.467619	-1.229540	-0.417911
Zn4	Zn	0.032381	-0.729540	0.082089
Zn5	Zn	-0.343961	-1.097152	-0.404967
Zn6	Zn	0.156039	-0.597152	0.095033
Zn7	Zn	-0.466967	-1.083531	-0.549846
Zn8	Zn	0.033033	-0.583531	-0.049846
O9	O	-0.408597	-1.159689	-0.481086
O10	O	0.091403	-0.659689	0.018914
O11	O	-0.375911	-1.344753	-0.540043
O12	O	0.124089	-0.844753	-0.040043
O13	O	-0.446518	-1.218102	-0.299603
O14	O	0.053482	-0.718102	0.200397
O15	O	-0.247279	-1.119858	-0.419746
O16	O	0.252721	-0.619858	0.080254
O17	O	-0.458035	-1.345494	-0.441807
O18	O	0.041965	-0.845494	0.058193
O19	O	-0.256005	-1.216381	-0.527492
O20	O	0.243995	-0.716381	-0.027492
O21	O	-0.355667	-1.120837	-0.290093
O22	O	0.144333	-0.620837	0.209907
O23	O	-0.355034	-0.979257	-0.418025
O24	O	0.144966	-0.479257	0.081975
O25	O	-0.456923	-1.096642	-0.666672
O26	O	0.043077	-0.596642	-0.166672
O27	O	-0.445406	-0.969250	-0.524468
O28	O	0.054594	-0.469250	-0.024468
O29	O	-0.375278	-1.203173	-0.667976
O30	O	0.124722	-0.703173	-0.167976
O31	O	-0.565791	-1.204894	-0.440087
O32	O	-0.065791	-0.704894	0.059913
O33	O	-0.565312	-1.097622	-0.537019
O34	O	-0.065312	-0.597622	-0.037019
C35	C	-0.398861	-0.944153	-0.469650
C36	C	0.101139	-0.444153	0.030350
C37	C	-0.394714	-0.851944	-0.464778
C38	C	0.105286	-0.351944	0.035222
C39	C	-0.430087	-0.637103	-0.506311
C40	C	0.069913	-0.137103	-0.006311
C41	C	-0.387149	-0.683122	-0.455883
C42	C	0.112851	-0.183122	0.044117
C43	C	-0.391359	-0.777063	-0.460834
C44	C	0.108641	-0.277063	0.039166
C45	C	-0.425877	-0.543153	-0.501361
C46	C	0.074123	-0.043153	-0.001361
C47	C	-0.591030	-1.149911	-0.489785
C48	C	-0.091030	-0.649911	0.010215
C49	C	-0.669081	-1.145802	-0.493538
C50	C	-0.169081	-0.645802	0.006462
C51	C	-0.705979	-1.199762	-0.444880
C52	C	-0.205979	-0.699762	0.055120
C53	C	-0.779316	-1.195903	-0.448415
C54	C	-0.279316	-0.695903	0.051585
C55	C	-0.815754	-1.138079	-0.500604
C56	C	-0.315754	-0.638079	-0.000604
C57	C	-0.778850	-1.084117	-0.549267
C58	C	-0.278850	-0.584117	-0.049267
C59	C	-0.705515	-1.087981	-0.545736
C60	C	-0.205515	-0.587981	-0.045736
C61	C	-1.037168	-1.123620	-0.513792
C62	C	-0.537168	-0.623620	-0.013792
C63	C	-1.110509	-1.119758	-0.517318
C64	C	-0.610509	-0.619758	-0.017318
C65	C	-1.110970	-1.231546	-0.416466
C66	C	-0.610970	-0.731546	0.083534
C67	C	-1.037632	-1.235401	-0.412936
C68	C	-0.537632	-0.735401	0.087064
C69	C	-1.000736	-1.181442	-0.461602
C70	C	-0.500736	-0.681442	0.038398
C71	C	-0.890716	-1.134131	-0.504216
C72	C	-0.390716	-0.634131	-0.004216
C73	C	-0.925775	-1.185395	-0.457994
C74	C	-0.425775	-0.685395	0.042006
C75	C	-0.225452	-1.169526	-0.472373
C76	C	0.274548	-0.669526	0.027627
C77	C	-0.147407	-1.173718	-0.468660
C78	C	0.352593	-0.673718	0.031340
C79	C	-0.417353	-1.148276	-0.698400
C80	C	0.082647	-0.648276	-0.198400
C81	C	-0.421084	-1.143412	-0.791006
C82	C	0.078916	-0.643412	-0.291006
C83	C	-0.418366	-0.376066	-0.492555
C84	C	0.081634	0.123934	0.007445
C85	C	-0.422519	-0.468276	-0.497413
C86	C	0.077481	0.031724	0.002587
C87	C	-0.389120	-1.185050	-1.002461
C88	C	0.110880	-0.685050	-0.502461
C89	C	-0.427867	-1.134507	-0.960550
C90	C	0.072133	-0.634507	-0.460550
C91	C	-0.424092	-1.139463	-0.866207
C92	C	0.075908	-0.639463	-0.366207
C93	C	-0.392894	-1.180095	-1.096813
C94	C	0.107106	-0.680095	-0.596813
C95	C	-0.399826	-1.171107	-0.264618
C96	C	0.100174	-0.671107	0.235382
C97	C	-0.395904	-1.176142	-0.172011
C98	C	0.104096	-0.676142	0.327989
H99	H	-0.470007	-0.668255	-0.553197
H100	H	0.029993	-0.168255	-0.053197
N101	N	-0.337059	-0.644063	-0.397051
N102	N	0.162941	-0.144063	0.102949
N103	N	-0.272923	-0.656826	-0.400100
N104	N	0.227077	-0.156826	0.099900
H105	H	-0.237549	-0.629239	-0.358550
H106	H	0.262451	-0.129239	0.141450
H107	H	-0.676316	-1.246845	-0.402378
H108	H	-0.176316	-0.746845	0.097622
H109	H	-0.353116	-1.232041	-0.967491
H110	H	0.146884	-0.732041	-0.467491
N111	N	-0.473034	-1.075544	-1.004412
N112	N	0.026966	-0.575544	-0.504412
N113	N	-0.447854	-1.021502	-1.048997
N114	N	0.052146	-0.521502	-0.548997
H115	H	-0.479754	-0.979862	-1.079977
H116	H	0.020246	-0.479862	-0.579977
H117	H	-0.809356	-1.239842	-0.408792
H118	H	-0.309356	-0.739842	0.091208
N119	N	-1.000425	-1.294469	-0.359618
N120	N	-0.500425	-0.794469	0.140382
N121	N	-1.033379	-1.342644	-0.316176
N122	N	-0.533379	-0.842644	0.183824
H123	H	-1.007102	-1.384360	-0.278516
H124	H	-0.507102	-0.884360	0.221484
H125	H	-1.141019	-1.275477	-0.376846
H126	H	-0.641019	-0.775477	0.123154
H127	H	-1.140175	-1.072681	-0.559831
H128	H	-0.640175	-0.572681	-0.059831
H129	H	-1.007133	-1.079683	-0.553417
H130	H	-0.507133	-0.579683	-0.053417
N131	N	-0.816079	-1.025063	-0.602581
N132	N	-0.316079	-0.525063	-0.102581
N133	N	-0.881557	-1.021620	-0.605728
N134	N	-0.381557	-0.521620	-0.105728
H135	H	-0.907850	-0.979911	-0.643382
H136	H	-0.407850	-0.479911	-0.143382
H137	H	-0.896106	-1.232478	-0.415505
H138	H	-0.396106	-0.732478	0.084495
N139	N	-0.667833	-1.032861	-0.595450
N140	N	-0.167833	-0.532861	-0.095450
N141	N	-0.700373	-0.981238	-0.642047
N142	N	-0.200373	-0.481238	-0.142047
H143	H	-0.673762	-0.942310	-0.677163
H144	H	-0.173762	-0.442310	-0.177163
N145	N	-0.927949	-1.075063	-0.557509
N146	N	-0.427949	-0.575063	-0.057509
N147	N	-0.965357	-1.021618	-0.527312
N148	N	-0.465357	-0.521618	-0.027312
H149	H	-0.991657	-0.979902	-0.564950
H150	H	-0.491657	-0.479902	-0.064950
