data_functionalizedCrystal
_audit_creation_method	'MofGen! by Chris Wilmer'
_symmetry_space_group_name_H-M	'P1'
_symmetry_Int_Tables_number	1
_symmetry_cell_setting	triclinic
loop_
_symmetry_equiv_pos_as_xyz
  x,y,z
_cell_length_a	14.044220
_cell_length_b	14.044220
_cell_length_c	13.101039
_cell_angle_alpha	93.667477
_cell_angle_beta	86.340132
_cell_angle_gamma	93.188878
loop_
_atom_site_label
_atom_site_type_symbol
_atom_site_fract_x
_atom_site_fract_y
_atom_site_fract_z
O1	O	1.281968	0.225348	-0.085109
O2	O	1.005298	0.217041	-0.085135
O3	O	1.139480	0.082860	-0.085112
O4	O	1.147787	0.359530	-0.085132
O5	O	1.129854	0.092504	0.085316
O6	O	0.995673	0.226686	0.085293
O7	O	1.272343	0.234993	0.085319
Zn8	Zn	1.132479	0.232371	0.112365
Zn9	Zn	1.145162	0.219663	-0.112181
O10	O	1.138161	0.369175	0.085296
C11	C	0.964864	0.218228	0.000076
C12	C	0.858722	0.207383	0.000066
C13	C	1.131031	0.052060	0.000102
C14	C	1.120187	-0.054083	0.000102
C15	C	1.100362	-0.248421	0.000086
C16	C	1.177276	-0.299551	0.000090
C17	C	1.166245	-0.407688	0.000080
C18	C	1.111391	-0.140275	0.000095
C19	C	0.664383	0.187558	0.000088
C20	C	0.613253	0.264472	0.000087
C21	C	0.505116	0.253441	0.000099
C22	C	0.772529	0.198587	0.000076
C23	C	1.312777	0.233806	0.000106
C24	C	1.418920	0.244651	0.000109
C25	C	1.146610	0.399974	0.000080
C26	C	1.157455	0.506116	0.000073
N27	N	1.123831	0.241043	0.265612
N28	N	1.153817	0.210984	-0.265428
C29	C	1.112065	0.252851	0.474653
C30	C	1.165580	0.199179	0.525538
C31	C	1.159034	0.205749	0.641855
C32	C	1.118610	0.246282	0.358325
H33	H	1.026235	-0.285859	0.000076
H34	H	1.216314	0.148295	0.481744
C35	C	0.613811	0.087413	0.000094
C36	C	0.625739	0.022823	0.088590
C37	C	0.575153	-0.077320	0.088592
C38	C	0.512639	-0.112872	0.000097
C39	C	0.500709	-0.048281	-0.088407
C40	C	0.551295	0.051862	-0.088408
H41	H	0.672017	0.049140	0.154106
H42	H	0.583985	-0.125135	0.154108
H43	H	0.475192	-0.187004	0.000098
H44	H	0.454430	-0.074598	-0.153922
H45	H	0.542462	0.099677	-0.153925
H46	H	1.061336	0.303733	0.518442
C47	C	0.663823	0.364624	0.000073
C48	C	0.773531	0.375665	0.000060
C49	C	0.824107	0.475812	0.000045
C50	C	0.764974	0.564918	0.000043
C51	C	0.655259	0.553880	0.000056
C52	C	0.604684	0.453733	0.000071
H53	H	0.817311	0.309700	0.000061
H54	H	0.905325	0.483983	0.000036
H55	H	0.802413	0.639053	0.000032
H56	H	0.611480	0.619844	0.000055
H57	H	0.523466	0.445562	0.000080
H58	H	1.251413	-0.262115	0.000028
