data_functionalizedCrystal
_audit_creation_method	'MofGen! by Chris Wilmer'
_symmetry_space_group_name_H-M	'P1'
_symmetry_Int_Tables_number	1
_symmetry_cell_setting	triclinic
loop_
_symmetry_equiv_pos_as_xyz
  x,y,z
_cell_length_a	14.853566
_cell_length_b	14.044190
_cell_length_c	13.930277
_cell_angle_alpha	89.990896
_cell_angle_beta	89.995631
_cell_angle_gamma	88.413096
loop_
_atom_site_label
_atom_site_type_symbol
_atom_site_fract_x
_atom_site_fract_y
_atom_site_fract_z
O1	O	1.206177	0.123761	-0.079778
O2	O	1.706177	0.623761	0.420222
O3	O	0.944886	0.138506	-0.079795
O4	O	1.444886	0.638506	0.420205
O5	O	1.071607	-0.006856	-0.079768
O6	O	1.571607	0.493144	0.420232
O7	O	1.079457	0.269124	-0.079805
O8	O	1.579457	0.769124	0.420195
O9	O	1.071587	-0.006859	0.079894
O10	O	1.571587	0.493141	0.579894
O11	O	0.944867	0.138503	0.079867
O12	O	1.444867	0.638503	0.579867
O13	O	1.206158	0.123758	0.079884
O14	O	1.706158	0.623758	0.579884
Zn15	Zn	1.075509	0.131130	0.105225
Zn16	Zn	1.575509	0.631130	0.605225
Zn17	Zn	1.075535	0.131134	-0.105136
Zn18	Zn	1.575535	0.631134	0.394864
O19	O	1.079438	0.269120	0.079857
O20	O	1.579438	0.769120	0.579857
C21	C	0.911235	0.137837	0.000034
C22	C	1.411235	0.637837	0.500034
C23	C	0.810993	0.135835	0.000028
C24	C	1.310993	0.635835	0.500028
C25	C	0.387147	0.127372	-0.086986
C26	C	0.887147	0.627372	0.413014
C27	C	0.387148	0.127369	0.087084
C28	C	0.887148	0.627369	0.587084
C29	C	0.481331	0.129248	0.087081
C30	C	0.981331	0.629248	0.587081
C31	C	0.528426	0.130191	0.000043
C32	C	1.028426	0.630191	0.500043
C33	C	0.481339	0.129254	-0.086992
C34	C	0.981339	0.629254	0.413008
C35	C	0.528425	0.130195	0.174114
C36	C	1.028425	0.630195	0.674114
C37	C	0.622613	0.132075	0.174114
C38	C	1.122613	0.632075	0.674114
C39	C	0.669711	0.133011	0.087075
C40	C	1.169711	0.633011	0.587075
C41	C	0.622618	0.132073	0.000037
C42	C	1.122618	0.632073	0.500037
C43	C	0.669714	0.133016	-0.087001
C44	C	1.169714	0.633016	0.412999
C45	C	0.622623	0.132071	-0.174040
C46	C	1.122623	0.632071	0.325960
C47	C	0.528437	0.130190	-0.174030
C48	C	1.028437	0.630190	0.325970
C49	C	0.763897	0.134893	0.087066
C50	C	1.263897	0.634893	0.587066
C51	C	0.763905	0.134898	-0.087006
C52	C	1.263905	0.634898	0.412994
C53	C	1.068162	-0.042177	0.000065
C54	C	1.568162	0.457823	0.500065
C55	C	1.057918	-0.147416	0.000073
C56	C	1.557918	0.352584	0.500073
C57	C	1.111844	-0.397632	0.000039
C58	C	1.611844	0.102368	0.500039
C59	C	1.039204	-0.340098	0.000041
C60	C	1.539204	0.159902	0.500041
C61	C	1.049619	-0.232880	0.000059
C62	C	1.549619	0.267120	0.500059
C63	C	1.101431	-0.504860	0.000021
C64	C	1.601431	-0.004860	0.500021
C65	C	1.239809	0.124428	0.000053
C66	C	1.739809	0.624428	0.500053
C67	C	1.340052	0.126429	0.000052
C68	C	1.840052	0.626429	0.500052
C69	C	1.082882	0.304441	0.000021
C70	C	1.582882	0.804441	0.500021
C71	C	1.093126	0.409680	0.000007
C72	C	1.593126	0.909680	0.500007
N73	N	1.075498	0.131127	0.248791
N74	N	1.575498	0.631127	0.748791
N75	N	1.075552	0.131130	-0.248702
N76	N	1.575552	0.631130	0.251298
C77	C	1.019419	0.195475	0.701048
C78	C	1.519419	0.695475	1.201048
C79	C	1.131675	0.066786	0.701042
C80	C	1.631675	0.566786	1.201042
C81	C	1.131664	0.066783	0.600546
C82	C	1.631664	0.566783	1.100546
C83	C	1.075531	0.131128	0.550297
C84	C	1.575531	0.631128	1.050297
C85	C	1.019408	0.195476	0.600543
C86	C	1.519408	0.695476	1.100543
C87	C	1.187793	0.002442	0.550292
C88	C	1.687793	0.502442	1.050292
C89	C	1.187785	0.002437	0.449790
C90	C	1.687785	0.502437	0.949790
C91	C	1.131646	0.066779	0.399539
C92	C	1.631646	0.566779	0.899539
C93	C	1.075520	0.131129	0.449792
C94	C	1.575520	0.631129	0.949792
C95	C	1.019386	0.195474	0.399543
C96	C	1.519386	0.695474	0.899543
C97	C	0.963255	0.259821	0.449793
C98	C	1.463255	0.759821	0.949793
C99	C	0.963269	0.259818	0.550292
C100	C	1.463269	0.759818	1.050292
C101	C	1.131632	0.066781	0.299040
C102	C	1.631632	0.566781	0.799040
C103	C	1.019376	0.195475	0.299037
C104	C	1.519376	0.695475	0.799037
H105	H	0.660980	0.132845	-0.244906
H106	H	1.160980	0.632845	0.255094
O107	O	1.248338	-0.066949	0.604490
O108	O	1.748338	0.433051	1.104490
H109	H	1.230917	-0.140875	0.585210
H110	H	1.730917	0.359125	1.085210
H111	H	1.233488	-0.049958	0.408882
H112	H	1.733488	0.450042	0.908882
O113	O	0.902711	0.329225	0.395599
O114	O	1.402711	0.829225	0.895599
H115	H	0.831456	0.317009	0.414907
H116	H	1.331456	0.817009	0.914907
H117	H	1.177337	0.014396	0.258131
H118	H	1.677337	0.514396	0.758131
H119	H	0.917570	0.312207	0.591213
H120	H	1.417570	0.812207	1.091213
H121	H	0.969193	-0.371365	0.000031
H122	H	1.469193	0.128635	0.500031
O123	O	1.204580	-0.356227	0.000064
O124	O	1.704580	0.143773	0.500064
H125	H	1.198310	-0.277290	0.000085
H126	H	1.698310	0.222710	0.500085
H127	H	0.802244	0.135663	-0.157884
H128	H	1.302244	0.635663	0.342116
H129	H	0.490087	0.129420	-0.244893
H130	H	0.990087	0.629420	0.255107
O131	O	0.958833	0.264879	0.244840
O132	O	1.458833	0.764879	0.744840
H133	H	0.919813	0.309624	0.296668
H134	H	1.419813	0.809624	0.796668
H135	H	1.177382	0.014402	0.741958
H136	H	1.677382	0.514402	1.241958
O137	O	0.336366	0.126358	-0.180862
O138	O	0.836366	0.626358	0.319138
H139	H	0.262960	0.124896	-0.166242
H140	H	0.762960	0.624896	0.333758
O141	O	0.336330	0.127041	0.180955
O142	O	0.836330	0.627041	0.680955
H143	H	0.262915	0.125823	0.166336
H144	H	0.762915	0.625823	0.666336
H145	H	0.490072	0.129434	0.244975
H146	H	0.990072	0.629434	0.744975
O147	O	0.673403	0.133112	0.267985
O148	O	1.173403	0.633112	0.767985
H149	H	0.624829	0.132144	0.328507
H150	H	1.124829	0.632144	0.828507
H151	H	0.802234	0.135671	0.157932
H152	H	1.302234	0.635671	0.657932
O153	O	0.958883	0.264882	0.755236
O154	O	1.458883	0.764882	1.255236
H155	H	0.968321	0.254080	0.833563
H156	H	1.468321	0.754080	1.333563
