data_functionalizedCrystal
_audit_creation_method	'MofGen! by Chris Wilmer'
_symmetry_space_group_name_H-M	'P1'
_symmetry_Int_Tables_number	1
_symmetry_cell_setting	triclinic
loop_
_symmetry_equiv_pos_as_xyz
  x,y,z
_cell_length_a	10.723023
_cell_length_b	17.019294
_cell_length_c	9.198806
_cell_angle_alpha	86.117847
_cell_angle_beta	89.996513
_cell_angle_gamma	83.929680
loop_
_atom_site_label
_atom_site_type_symbol
_atom_site_fract_x
_atom_site_fract_y
_atom_site_fract_z
O1	O	1.655493	0.110633	-0.134725
O2	O	1.292178	0.121224	-0.136056
O3	O	1.483971	0.001151	-0.121015
O4	O	1.463701	0.230706	-0.149766
O5	O	1.483956	0.001151	0.120770
O6	O	1.292163	0.121224	0.105729
O7	O	1.655478	0.110633	0.107060
Cu8	Cu	1.473819	0.115928	0.128471
Cu9	Cu	1.473837	0.115929	-0.157467
O10	O	1.463685	0.230706	0.092019
C11	C	1.245683	0.120453	-0.015068
C12	C	1.107164	0.118148	-0.014782
C13	C	1.045400	0.117120	0.110598
C14	C	0.902233	0.114737	0.110897
C15	C	1.483195	-0.028243	0.003556
C16	C	1.480889	-0.115825	0.014516
C17	C	1.479817	-0.156967	-0.112131
C18	C	1.477642	-0.239260	-0.101829
C19	C	1.476549	-0.280410	0.035123
C20	C	1.477617	-0.239262	0.161779
C21	C	1.479783	-0.156970	0.151475
C22	C	1.470002	-0.528878	0.072828
C23	C	1.467840	-0.611176	0.083122
C24	C	1.467862	-0.611168	-0.180487
C25	C	1.470036	-0.528875	-0.190778
C26	C	1.471097	-0.487734	-0.064122
C27	C	1.474330	-0.364527	0.045657
C28	C	1.473307	-0.403618	-0.074658
C29	C	1.701974	0.111404	-0.013931
C30	C	1.840492	0.113709	-0.014227
C31	C	1.464462	0.260100	-0.032555
C32	C	1.466768	0.347682	-0.043525
N33	N	1.473816	0.115928	0.329585
N34	N	1.473851	0.115923	-0.358581
C35	C	1.554347	0.065290	0.408126
C36	C	1.554367	0.065287	0.575538
H37	H	1.480714	-0.123469	-0.223652
N38	N	1.466780	-0.653205	-0.309840
N39	N	1.464850	-0.726680	-0.300630
H40	H	1.464083	-0.756370	-0.391990
N41	N	1.476538	-0.281272	-0.231211
N42	N	1.477519	-0.244522	-0.353479
H43	H	1.476736	-0.274192	-0.444863
N44	N	0.835631	0.113637	0.245579
N45	N	0.838474	0.169384	0.326867
H46	H	0.791436	0.168609	0.421993
H47	H	0.893599	0.114598	-0.121576
H48	H	1.623318	0.021937	0.643055
N49	N	1.111984	0.118233	0.245008
N50	N	1.109132	0.062495	0.340280
H51	H	1.156148	0.063285	0.435215
N52	N	1.040553	0.117021	-0.149170
N53	N	0.979505	0.060301	-0.171363
H54	H	0.932463	0.059504	-0.266280
N55	N	1.387333	0.170314	0.556762
N56	N	1.311632	0.217917	0.618628
H57	H	1.250527	0.256331	0.558832
N58	N	1.473227	-0.406551	0.185558
N59	N	1.474190	-0.369813	0.298635
H60	H	1.473406	-0.399493	0.397442
N61	N	1.640809	0.010903	0.336990
N62	N	1.640666	0.010980	0.201096
H63	H	1.701731	-0.027433	0.150857
H64	H	1.466943	-0.644677	0.194650
H65	H	1.470928	-0.495376	-0.302298
H66	H	1.476719	-0.272772	0.273288
N67	N	1.387318	0.170302	0.400700
N68	N	1.309856	0.144921	0.488851
H69	H	1.248761	0.183323	0.539074
N70	N	1.471090	-0.486873	0.202214
N71	N	1.470120	-0.523627	0.324479
H72	H	1.470891	-0.493959	0.415866
N73	N	1.480864	-0.114953	0.280856
N74	N	1.479882	-0.151700	0.403127
H75	H	1.480638	-0.122027	0.494508
H76	H	1.474189	-0.370109	-0.186163
