data_functionalizedCrystal
_audit_creation_method	'MofGen! by Chris Wilmer'
_symmetry_space_group_name_H-M	'P1'
_symmetry_Int_Tables_number	1
_symmetry_cell_setting	triclinic
loop_
_symmetry_equiv_pos_as_xyz
  x,y,z
_cell_length_a	14.044190
_cell_length_b	10.723024
_cell_length_c	9.198806
_cell_angle_alpha	90.003648
_cell_angle_beta	89.991997
_cell_angle_gamma	91.170177
loop_
_atom_site_label
_atom_site_type_symbol
_atom_site_fract_x
_atom_site_fract_y
_atom_site_fract_z
O1	O	0.133040	-1.670502	-0.120901
O2	O	0.145775	-1.308624	-0.120908
O3	O	0.001387	-1.484127	-0.120876
O4	O	0.277427	-1.495000	-0.120933
O5	O	0.001387	-1.484112	0.120909
O6	O	0.145774	-1.308609	0.120877
O7	O	0.133040	-1.670487	0.120884
Cu8	Cu	0.139407	-1.489547	0.142957
Cu9	Cu	0.139407	-1.489565	-0.142981
O10	O	0.277427	-1.494985	0.120852
C11	C	0.144848	-1.262025	-0.000016
C12	C	0.142075	-1.123193	-0.000017
C13	C	-0.033958	-1.479363	0.000021
C14	C	-0.139277	-1.465175	0.000033
N15	N	0.139406	-1.489543	0.344071
C16	C	-0.389077	-1.539861	-0.000023
C17	C	-0.332103	-1.439257	-0.000014
C18	C	-0.224804	-1.453681	0.000012
C19	C	-0.496386	-1.525438	-0.000049
C20	C	0.312773	-1.499749	-0.000048
C21	C	0.418091	-1.513937	-0.000070
C22	C	0.133967	-1.717087	-0.000011
C23	C	0.136739	-1.855919	-0.000020
C24	C	0.222867	-1.056296	-0.000035
C25	C	0.220003	-0.912806	-0.000036
N26	N	0.139401	-1.489577	-0.344095
C27	C	0.078515	-1.563205	0.416282
C28	C	0.078511	-1.563224	0.583694
H29	H	-0.357273	-1.636816	-0.000006
O30	O	0.016407	-1.638644	0.657698
C31	C	0.032374	-1.764062	0.620551
H32	H	0.108276	-1.773434	0.578603
H33	H	0.021824	-1.825418	0.720702
H34	H	-0.020064	-1.794750	0.532315
H35	H	0.289167	-0.855295	-0.000057
O36	O	0.201641	-1.414511	0.581684
C37	C	0.260431	-1.488177	0.493645
H38	H	0.223119	-1.581570	0.470976
H39	H	0.275120	-1.437847	0.386560
H40	H	0.330592	-1.504681	0.552204
H41	H	0.294155	-1.105252	-0.000041
H42	H	0.067572	-0.913422	-0.000014
O43	O	0.056942	-1.064998	0.000061
C44	C	-0.017622	-1.155059	0.000037
H45	H	0.009447	-1.246548	0.045808
H46	H	-0.078711	-1.120941	0.070243
H47	H	-0.043898	-1.170512	-0.115955
H48	H	0.191532	-1.426488	0.406188
O49	O	-0.370195	-1.323669	0.000042
C50	C	-0.470401	-1.334806	-0.000017
H51	H	-0.492890	-1.429713	0.045749
H52	H	-0.501371	-1.257959	0.070176
H53	H	-0.497973	-1.325752	-0.116019
O54	O	0.016318	-1.638281	0.341998
C55	C	-0.042472	-1.564642	0.253965
H56	H	-0.005195	-1.471214	0.231358
H57	H	-0.057096	-1.614957	0.146850
H58	H	-0.112665	-1.548209	0.312498
