data_functionalizedCrystal
_audit_creation_method	'MofGen! by Chris Wilmer'
_symmetry_space_group_name_H-M	'P1'
_symmetry_Int_Tables_number	1
_symmetry_cell_setting	triclinic
loop_
_symmetry_equiv_pos_as_xyz
  x,y,z
_cell_length_a	18.101398
_cell_length_b	18.101395
_cell_length_c	18.101389
_cell_angle_alpha	89.983159
_cell_angle_beta	89.985654
_cell_angle_gamma	90.029256
loop_
_atom_site_label
_atom_site_type_symbol
_atom_site_fract_x
_atom_site_fract_y
_atom_site_fract_z
Zn1	Zn	1.132121	-0.294944	-0.418650
Zn2	Zn	1.382121	-0.044944	-0.168650
Zn3	Zn	1.632121	0.205056	0.081350
Zn4	Zn	1.882121	0.455056	0.331350
Zn5	Zn	1.132017	-0.418770	-0.294812
Zn6	Zn	1.382017	-0.168770	-0.044812
Zn7	Zn	1.632017	0.081230	0.205188
Zn8	Zn	1.882017	0.331230	0.455188
Zn9	Zn	1.008280	-0.294942	-0.294832
Zn10	Zn	1.258280	-0.044942	-0.044832
Zn11	Zn	1.508280	0.205058	0.205168
Zn12	Zn	1.758280	0.455058	0.455168
Zn13	Zn	1.008231	-0.418744	-0.418622
Zn14	Zn	1.258231	-0.168744	-0.168622
Zn15	Zn	1.508231	0.081256	0.081378
Zn16	Zn	1.758231	0.331256	0.331378
O17	O	1.070162	-0.356850	-0.356729
O18	O	1.320162	-0.106850	-0.106729
O19	O	1.570162	0.143150	0.143271
O20	O	1.820162	0.393150	0.393271
O21	O	1.235740	-0.311381	-0.402225
O22	O	1.485740	-0.061381	-0.152225
O23	O	1.735740	0.188619	0.097775
O24	O	1.985740	0.438619	0.347775
O25	O	1.115580	-0.402354	-0.191181
O26	O	1.365580	-0.152354	0.058819
O27	O	1.615580	0.097646	0.308819
O28	O	1.865580	0.347646	0.558819
O29	O	1.024772	-0.191310	-0.311277
O30	O	1.274772	0.058690	-0.061277
O31	O	1.524772	0.308690	0.188723
O32	O	1.774772	0.558690	0.438723
O33	O	1.235663	-0.402355	-0.311242
O34	O	1.485663	-0.152355	-0.061242
O35	O	1.735663	0.097645	0.188758
O36	O	1.985663	0.347645	0.438758
O37	O	1.115757	-0.191311	-0.402245
O38	O	1.365757	0.058689	-0.152245
O39	O	1.615757	0.308689	0.097755
O40	O	1.865757	0.558689	0.347755
O41	O	1.024671	-0.311378	-0.191197
O42	O	1.274671	-0.061378	0.058803
O43	O	1.524671	0.188622	0.308803
O44	O	1.774671	0.438622	0.558803
O45	O	0.904640	-0.311354	-0.311250
O46	O	1.154640	-0.061354	-0.061250
O47	O	1.404640	0.188646	0.188750
O48	O	1.654640	0.438646	0.438750
O49	O	1.024688	-0.402312	-0.522258
O50	O	1.274688	-0.152312	-0.272258
O51	O	1.524688	0.097688	-0.022258
O52	O	1.774688	0.347688	0.227742
O53	O	0.904604	-0.402310	-0.402198
O54	O	1.154604	-0.152310	-0.152198
O55	O	1.404604	0.097690	0.097802
O56	O	1.654604	0.347690	0.347802
O57	O	1.115710	-0.311356	-0.522279
O58	O	1.365710	-0.061356	-0.272279
O59	O	1.615710	0.188644	-0.022279
O60	O	1.865710	0.438644	0.227721
O61	O	1.115532	-0.522399	-0.311215
O62	O	1.365532	-0.272399	-0.061215
O63	O	1.615532	-0.022399	0.188785
O64	O	1.865532	0.227601	0.438785
O65	O	1.024587	-0.522380	-0.402178
O66	O	1.274587	-0.272380	-0.152178
O67	O	1.524587	-0.022380	0.097822
O68	O	1.774587	0.227620	0.347822
C69	C	0.877752	-0.356830	-0.356724
C70	C	1.127752	-0.106830	-0.106724
C71	C	1.377752	0.143170	0.143276
C72	C	1.627752	0.393170	0.393276
C73	C	0.795437	-0.356839	-0.356739
C74	C	1.045437	-0.106839	-0.106739
C75	C	1.295437	0.143161	0.143261
C76	C	1.545437	0.393161	0.393261
C77	C	1.070063	-0.549261	-0.356707
C78	C	1.320063	-0.299261	-0.106707
C79	C	1.570063	-0.049261	0.143293
C80	C	1.820063	0.200739	0.393293
C81	C	1.070088	-0.631575	-0.356722
C82	C	1.320088	-0.381575	-0.106722
C83	C	1.570088	-0.131575	0.143278
C84	C	1.820088	0.118425	0.393278
C85	C	0.644729	-0.356852	-0.356738
C86	C	0.894729	-0.106852	-0.106738
C87	C	1.144729	0.143148	0.143262
C88	C	1.394729	0.393148	0.393262
C89	C	0.613377	-0.414168	-0.413871
C90	C	0.863377	-0.164168	-0.163871
C91	C	1.113377	0.085832	0.086129
C92	C	1.363377	0.335832	0.336129
C93	C	0.527759	-0.414400	-0.413702
C94	C	0.777759	-0.164400	-0.163702
C95	C	1.027759	0.085600	0.086298
C96	C	1.277759	0.335600	0.336298
C97	C	0.496346	-0.356866	-0.356738
C98	C	0.746346	-0.106866	-0.106738
C99	C	0.996346	0.143134	0.143262
C100	C	1.246346	0.393134	0.393262
C101	C	0.527399	-0.377679	-0.278597
C102	C	0.777399	-0.127679	-0.028597
C103	C	1.027399	0.122321	0.221403
C104	C	1.277399	0.372321	0.471403
C105	C	0.613044	-0.378087	-0.278927
C106	C	0.863044	-0.128087	-0.028927
C107	C	1.113044	0.121913	0.221073
C108	C	1.363044	0.371913	0.471073
C109	C	0.613208	-0.278582	-0.377064
C110	C	0.863208	-0.028582	-0.127064
C111	C	1.113208	0.221418	0.122936
C112	C	1.363208	0.471418	0.372936
C113	C	0.527558	-0.279011	-0.378785
C114	C	0.777558	-0.029011	-0.128785
C115	C	1.027558	0.220989	0.121215
C116	C	1.277558	0.470989	0.371215
C117	C	0.412487	-0.356873	-0.356733
C118	C	0.662487	-0.106873	-0.106733
C119	C	0.912487	0.143127	0.143267
C120	C	1.162487	0.393127	0.393267
C121	C	0.728588	-0.356848	-0.356737
C122	C	0.978588	-0.106848	-0.106737
C123	C	1.228588	0.143152	0.143263
C124	C	1.478588	0.393152	0.393263
C125	C	1.070251	-0.930665	-0.356762
C126	C	1.320251	-0.680665	-0.106762
C127	C	1.570251	-0.430665	0.143238
C128	C	1.820251	-0.180665	0.393238
C129	C	1.013163	-0.899359	-0.414136
C130	C	1.263163	-0.649359	-0.164136
C131	C	1.513163	-0.399359	0.085864
C132	C	1.763163	-0.149359	0.335864
C133	C	1.012892	-0.813741	-0.413956
C134	C	1.262892	-0.563741	-0.163956
C135	C	1.512892	-0.313741	0.086044
C136	C	1.762892	-0.063741	0.336044
C137	C	1.070170	-0.782283	-0.356743
C138	C	1.320170	-0.532283	-0.106743
C139	C	1.570170	-0.282283	0.143257
C140	C	1.820170	-0.032283	0.393257
C141	C	1.049041	-0.813419	-0.278695
C142	C	1.299041	-0.563419	-0.028695
C143	C	1.549041	-0.313419	0.221305
C144	C	1.799041	-0.063419	0.471305
C145	C	1.048673	-0.899065	-0.279039
C146	C	1.298673	-0.649065	-0.029039
C147	C	1.548673	-0.399065	0.220961
C148	C	1.798673	-0.149065	0.470961
C149	C	1.148593	-0.899015	-0.376750
C150	C	1.398593	-0.649015	-0.126750
C151	C	1.648593	-0.399015	0.123250
C152	C	1.898593	-0.149015	0.373250
C153	C	1.148132	-0.813365	-0.378461
C154	C	1.398132	-0.563365	-0.128461
C155	C	1.648132	-0.313365	0.121539
C156	C	1.898132	-0.063365	0.371539
C157	C	1.070126	-0.698424	-0.356728
C158	C	1.320126	-0.448424	-0.106728
C159	C	1.570126	-0.198424	0.143272
C160	C	1.820126	0.051576	0.393272
C161	C	1.070293	-1.014525	-0.356773
C162	C	1.320293	-0.764525	-0.106773
C163	C	1.570293	-0.514525	0.143227
C164	C	1.820293	-0.264525	0.393227
C165	C	1.263324	-0.356871	-0.356734
C166	C	1.513324	-0.106871	-0.106734
C167	C	1.763324	0.143129	0.143266
C168	C	2.013324	0.393129	0.393266
C169	C	1.345638	-0.356880	-0.356737
C170	C	1.595638	-0.106880	-0.106737
C171	C	1.845638	0.143120	0.143263
C172	C	2.095638	0.393120	0.393263
C173	C	1.070205	-0.356831	-0.549891
C174	C	1.320205	-0.106831	-0.299891
C175	C	1.570205	0.143169	-0.049891
C176	C	1.820205	0.393169	0.200109
C177	C	1.070223	-0.356823	-0.632205
C178	C	1.320223	-0.106823	-0.382205
C179	C	1.570223	0.143177	-0.132205
C180	C	1.820223	0.393177	0.117795
C181	C	1.070282	-0.163688	-0.356767
C182	C	1.320282	0.086312	-0.106767
C183	C	1.570282	0.336312	0.143233
C184	C	1.820282	0.586312	0.393233
C185	C	1.070333	-0.081374	-0.356783
C186	C	1.320333	0.168626	-0.106783
C187	C	1.570333	0.418626	0.143217
C188	C	1.820333	0.668626	0.393217
C189	C	1.070266	-0.356684	-0.931296
C190	C	1.320266	-0.106684	-0.681296
C191	C	1.570266	0.143316	-0.431296
C192	C	1.820266	0.393316	-0.181296
C193	C	1.012801	-0.413729	-0.899958
C194	C	1.262801	-0.163729	-0.649958
C195	C	1.512801	0.086271	-0.399958
C196	C	1.762801	0.336271	-0.149958
C197	C	1.012956	-0.413994	-0.814340
C198	C	1.262956	-0.163994	-0.564340
C199	C	1.512956	0.086006	-0.314340
C200	C	1.762956	0.336006	-0.064340
C201	C	1.070244	-0.356753	-0.782913
C202	C	1.320244	-0.106753	-0.532913
C203	C	1.570244	0.143247	-0.282913
C204	C	1.820244	0.393247	-0.032913
C205	C	1.148270	-0.377940	-0.814006
C206	C	1.398270	-0.127940	-0.564006
C207	C	1.648270	0.122060	-0.314006
C208	C	1.898270	0.372060	-0.064006
C209	C	1.147949	-0.378314	-0.899651
C210	C	1.397949	-0.128314	-0.649651
C211	C	1.647949	0.121686	-0.399651
C212	C	1.897949	0.371686	-0.149651
C213	C	1.050385	-0.278326	-0.899722
C214	C	1.300385	-0.028326	-0.649722
C215	C	1.550385	0.221674	-0.399722
C216	C	1.800385	0.471674	-0.149722
C217	C	1.048649	-0.278779	-0.814071
C218	C	1.298649	-0.028779	-0.564071
C219	C	1.548649	0.221221	-0.314071
C220	C	1.798649	0.471221	-0.064071
C221	C	1.070237	-0.356791	-0.699054
C222	C	1.320237	-0.106791	-0.449054
C223	C	1.570237	0.143209	-0.199054
C224	C	1.820237	0.393209	0.050946
C225	C	1.070279	-0.356649	-1.015156
C226	C	1.320279	-0.106649	-0.765156
C227	C	1.570279	0.143351	-0.515156
C228	C	1.820279	0.393351	-0.265156
C229	C	1.070162	-0.356815	-0.164318
C230	C	1.320162	-0.106815	0.085682
C231	C	1.570162	0.143185	0.335682
C232	C	1.820162	0.393185	0.585682
C233	C	1.070287	-0.356615	-0.082005
C234	C	1.320287	-0.106615	0.167995
C235	C	1.570287	0.143385	0.417995
C236	C	1.820287	0.393385	0.667995
H237	H	0.506764	-0.401418	-0.471633
H238	H	0.756764	-0.151418	-0.221633
H239	H	1.006764	0.098582	0.028367
H240	H	1.256764	0.348582	0.278367
H241	H	1.165415	-0.434612	-0.792562
H242	H	1.415415	-0.184612	-0.542562
H243	H	1.665415	0.065388	-0.292562
H244	H	1.915415	0.315388	-0.042562
H245	H	1.167856	-0.920574	-0.432692
H246	H	1.417856	-0.670574	-0.182692
H247	H	1.667856	-0.420574	0.067308
H248	H	1.917856	-0.170574	0.317308
H249	H	0.634834	-0.259564	-0.433084
H250	H	0.884834	-0.009564	-0.183084
H251	H	1.134834	0.240436	0.066916
H252	H	1.384834	0.490436	0.316916
H253	H	0.994478	-0.259024	-0.921317
H254	H	1.244478	-0.009024	-0.671317
H255	H	1.494478	0.240976	-0.421317
H256	H	1.744478	0.490976	-0.171317
H257	H	0.633998	-0.401337	-0.471982
H258	H	0.883998	-0.151337	-0.221982
H259	H	1.133998	0.098663	0.028018
H260	H	1.383998	0.348663	0.278018
H261	H	0.992380	-0.792030	-0.261460
H262	H	1.242380	-0.542030	-0.011460
H263	H	1.492380	-0.292030	0.238540
H264	H	1.742380	-0.042030	0.488540
H265	H	1.092240	-0.235825	-0.919989
H266	H	1.342240	0.014175	-0.669989
H267	H	1.592240	0.264175	-0.419989
H268	H	1.842240	0.514175	-0.169989
H269	H	0.955448	-0.920942	-0.401063
H270	H	1.205448	-0.670942	-0.151063
H271	H	1.455448	-0.420942	0.098937
H272	H	1.705448	-0.170942	0.348937
H273	H	1.164065	-0.793013	-0.435900
H274	H	1.414065	-0.543013	-0.185900
H275	H	1.664065	-0.293013	0.064100
H276	H	1.914065	-0.043013	0.314100
H277	H	0.507265	-0.263310	-0.436293
H278	H	0.757265	-0.013310	-0.186293
H279	H	1.007265	0.236690	0.063707
H280	H	1.257265	0.486690	0.313707
H281	H	1.026082	-0.472075	-0.793856
H282	H	1.276082	-0.222075	-0.543856
H283	H	1.526082	0.027925	-0.293856
H284	H	1.776082	0.277925	-0.043856
H285	H	0.991229	-0.262802	-0.793749
H286	H	1.241229	-0.012802	-0.543749
H287	H	1.491229	0.237198	-0.293749
H288	H	1.741229	0.487198	-0.043749
H289	H	0.506177	-0.234054	-0.340239
H290	H	0.756177	0.015946	-0.090239
H291	H	1.006177	0.265946	0.159761
H292	H	1.256177	0.515946	0.409761
H293	H	1.026251	-0.919918	-0.472195
H294	H	1.276251	-0.669918	-0.222195
H295	H	1.526251	-0.419918	0.027805
H296	H	1.776251	-0.169918	0.277805
H297	H	1.088449	-0.919775	-0.234834
H298	H	1.338449	-0.669775	0.015166
H299	H	1.588449	-0.419775	0.265166
H300	H	1.838449	-0.169775	0.515166
H301	H	1.026111	-0.792688	-0.471828
H302	H	1.276111	-0.542688	-0.221828
H303	H	1.526111	-0.292688	0.028172
H304	H	1.776111	-0.042688	0.278172
H305	H	1.087450	-0.234021	-0.792679
H306	H	1.337450	0.015979	-0.542679
H307	H	1.587450	0.265979	-0.292679
H308	H	1.837450	0.515979	-0.042679
H309	H	0.954823	-0.793314	-0.400717
H310	H	1.204823	-0.543314	-0.150717
H311	H	1.454823	-0.293314	0.099283
H312	H	1.704823	-0.043314	0.349283
H313	H	0.505920	-0.434260	-0.261125
H314	H	0.755920	-0.184260	-0.011125
H315	H	1.005920	0.065740	0.238875
H316	H	1.255920	0.315740	0.488875
H317	H	1.025796	-0.471456	-0.921483
H318	H	1.275796	-0.221456	-0.671483
H319	H	1.525796	0.028544	-0.421483
H320	H	1.775796	0.278544	-0.171483
H321	H	0.633485	-0.235882	-0.335455
H322	H	0.883485	0.014118	-0.085455
H323	H	1.133485	0.264118	0.164545
H324	H	1.383485	0.514118	0.414545
H325	H	0.634865	-0.471838	-0.400549
H326	H	0.884865	-0.221838	-0.150549
H327	H	1.134865	0.028162	0.099451
H328	H	1.384865	0.278162	0.349451
H329	H	0.991406	-0.919103	-0.262107
H330	H	1.241406	-0.669103	-0.012107
H331	H	1.491406	-0.419103	0.237893
H332	H	1.741406	-0.169103	0.487893
H333	H	1.192236	-0.337697	-0.793651
H334	H	1.442236	-0.087697	-0.543651
H335	H	1.692236	0.162303	-0.293651
H336	H	1.942236	0.412303	-0.043651
H337	H	0.507237	-0.472403	-0.400217
H338	H	0.757237	-0.222403	-0.150217
H339	H	1.007237	0.027597	0.099783
H340	H	1.257237	0.277597	0.349783
H341	H	0.632986	-0.435292	-0.261748
H342	H	0.882986	-0.185292	-0.011748
H343	H	1.132986	0.064708	0.238252
H344	H	1.382986	0.314708	0.488252
H345	H	0.633784	-0.338125	-0.234898
H346	H	0.883784	-0.088125	0.015102
H347	H	1.133784	0.161875	0.265102
H348	H	1.383784	0.411875	0.515102
H349	H	1.164804	-0.435595	-0.919633
H350	H	1.414804	-0.185595	-0.669633
H351	H	1.664804	0.064405	-0.419633
H352	H	1.914804	0.314405	-0.169633
H353	H	1.089313	-0.793042	-0.234783
H354	H	1.339313	-0.543042	0.015217
H355	H	1.589313	-0.293042	0.265217
H356	H	1.839313	-0.043042	0.515217
H357	H	0.507053	-0.337213	-0.234859
H358	H	0.757053	-0.087213	0.015141
H359	H	1.007053	0.162787	0.265141
H360	H	1.257053	0.412787	0.515141
H361	H	1.191125	-0.919259	-0.334963
H362	H	1.441125	-0.669259	-0.084963
H363	H	1.691125	-0.419259	0.165037
H364	H	1.941125	-0.169259	0.415037
H365	H	1.192915	-0.791947	-0.339719
H366	H	1.442915	-0.541947	-0.089719
H367	H	1.692915	-0.291947	0.160281
H368	H	1.942915	-0.041947	0.410281
H369	H	0.955097	-0.400735	-0.793317
H370	H	1.205097	-0.150735	-0.543317
H371	H	1.455097	0.099265	-0.293317
H372	H	1.705097	0.349265	-0.043317
H373	H	0.954768	-0.400607	-0.920554
H374	H	1.204768	-0.150607	-0.670554
H375	H	1.454768	0.099393	-0.420554
H376	H	1.704768	0.349393	-0.170554
H377	H	1.192217	-0.338569	-0.920383
H378	H	1.442217	-0.088569	-0.670383
H379	H	1.692217	0.161431	-0.420383
H380	H	1.942217	0.411431	-0.170383
