data_functionalizedCrystal
_audit_creation_method	'MofGen! by Chris Wilmer'
_symmetry_space_group_name_H-M	'P1'
_symmetry_Int_Tables_number	1
_symmetry_cell_setting	triclinic
loop_
_symmetry_equiv_pos_as_xyz
  x,y,z
_cell_length_a	14.809577
_cell_length_b	20.919309
_cell_length_c	14.809374
_cell_angle_alpha	90.489664
_cell_angle_beta	73.426528
_cell_angle_gamma	62.614249
loop_
_atom_site_label
_atom_site_type_symbol
_atom_site_fract_x
_atom_site_fract_y
_atom_site_fract_z
Zr1	Zr	0.802325	0.730431	0.042318
O2	O	0.952813	0.650589	-0.071683
O3	O	0.639807	0.742934	0.060173
O4	O	0.772778	0.770486	-0.091196
O5	O	0.847346	0.614923	0.218532
O6	O	0.763155	0.878682	-0.087145
O7	O	0.819843	0.623037	0.079686
O8	O	0.525295	0.829397	0.183626
O9	O	1.085206	0.664208	-0.052240
O10	O	0.703927	0.843477	0.091462
O11	O	0.731634	0.756676	0.192057
O12	O	0.888190	0.789115	0.013840
O13	O	0.915896	0.702314	0.114436
Zr14	Zr	0.830842	0.890050	0.270222
Zr15	Zr	0.786978	0.902991	0.048779
Zr16	Zr	0.846189	0.717490	0.263761
Zr17	Zr	1.013476	0.752152	0.073328
Zr18	Zr	0.619691	0.868329	0.239212
O19	O	0.993360	0.877547	0.252367
O20	O	0.930991	0.895948	-0.062496
O21	O	1.015182	0.632189	0.243180
O22	O	0.680354	0.969892	0.384223
O23	O	0.617985	0.988292	0.069360
O24	O	0.702176	0.724534	0.375036
O25	O	0.785821	1.005558	0.094008
O26	O	0.860389	0.849995	0.403736
O27	O	0.870012	0.741799	0.399685
O28	O	0.813324	0.997444	0.232854
O29	O	1.073006	0.801371	-0.047104
O30	O	0.560161	0.819110	0.359644
O31	O	0.547961	0.956273	0.364780
O32	O	0.513096	0.966559	0.188762
O33	O	1.120071	0.653922	0.123778
O34	O	1.107872	0.791085	0.128913
O35	O	0.744977	0.831366	0.298700
O36	O	0.717271	0.918167	0.198104
O37	O	0.901533	0.863805	0.120482
O38	O	0.929240	0.777004	0.221078
C39	C	0.552467	0.783070	0.117481
C40	C	0.462828	0.773849	0.104317
C41	C	0.270261	0.805477	0.149464
C42	C	0.362901	0.815010	0.163083
C43	C	0.835781	0.594394	0.148188
C44	C	0.842296	0.521138	0.145445
C45	C	0.749176	0.515096	0.184669
C46	C	0.755305	0.446262	0.182091
C47	C	0.854553	0.383471	0.140282
C48	C	0.947681	0.389514	0.101057
C49	C	0.941553	0.458347	0.103642
C50	C	0.877870	0.174220	0.130455
C51	C	0.883991	0.105385	0.127870
C52	C	0.691614	0.162138	0.208906
C53	C	0.685494	0.230969	0.211482
C54	C	0.778622	0.237007	0.172262
C55	C	0.860819	0.313111	0.137642
C56	C	0.772356	0.307366	0.174908
C57	C	1.080700	0.837411	0.195058
C58	C	1.170339	0.846632	0.208223
C59	C	0.761717	0.826428	-0.120721
C60	C	0.743095	0.831922	-0.214730
C61	C	0.797386	1.026087	0.164352
C62	C	0.790871	1.099344	0.167095
C63	C	0.826200	0.807404	-0.295147
C64	C	0.806956	0.813081	-0.392311
C65	C	0.871450	0.794053	0.433261
C66	C	0.890072	0.788560	0.527270
C67	C	0.533269	0.998917	0.125563
C68	C	0.437115	1.062952	0.115142
C69	C	0.607334	0.766883	0.394473
C70	C	0.536316	0.752168	0.475317
C71	C	0.588136	0.982730	0.402554
C72	C	0.510603	1.041271	0.486141
C73	C	1.045031	0.637751	-0.090015
C74	C	1.122564	0.579210	-0.173601
C75	C	1.099898	0.621564	0.186977
C76	C	1.196052	0.557529	0.197398
C77	C	1.025833	0.853598	-0.081933
C78	C	1.096851	0.868313	-0.162777
C79	C	0.384993	1.054037	0.054572
C80	C	0.294654	1.114200	0.044761
C81	C	0.256434	1.183278	0.095525
C82	C	0.308565	1.192192	0.156097
C83	C	0.398907	1.132030	0.165902
C84	C	0.509933	0.784245	0.568957
C85	C	0.443218	0.770416	0.644929
C86	C	0.402882	0.724515	0.627257
C87	C	0.429272	0.692434	0.533607
C88	C	0.495992	0.706259	0.457638
C89	C	0.459730	1.114079	0.472885
C90	C	0.386889	1.169093	0.551417
C91	C	0.364917	1.151297	0.643204
C92	C	0.415799	1.078482	0.656459
C93	C	0.488644	1.023470	0.577929
C94	C	1.173448	0.506403	-0.160343
C95	C	1.246315	0.451392	-0.238872
C96	C	1.268291	0.469188	-0.330658
C97	C	1.217403	0.542003	-0.343914
C98	C	1.144543	0.597013	-0.265386
C99	C	1.248181	0.566446	0.257960
C100	C	1.338538	0.506286	0.267750
C101	C	1.376761	0.437209	0.216984
C102	C	1.324627	0.428294	0.156415
C103	C	1.234275	0.488454	0.146620
C104	C	1.137166	0.914218	-0.145075
C105	C	1.203884	0.928058	-0.221029
C106	C	1.230291	0.895989	-0.314683
C107	C	1.189968	0.850082	-0.332384
C108	C	1.123245	0.836246	-0.256431
H109	H	0.479800	0.731554	0.043925
H110	H	1.287737	0.392107	-0.228060
H111	H	0.975474	0.763366	-0.469653
H112	H	0.657700	0.857118	-0.217814
H113	H	1.090428	0.798864	-0.270857
H114	H	0.441335	1.139299	0.215229
O115	O	1.108687	0.948822	-0.044071
H116	H	1.137129	0.905437	-0.000453
H117	H	0.252219	1.106928	-0.004563
O118	O	1.149753	0.487201	-0.061349
H119	H	1.225205	0.460540	-0.043229
O120	O	0.978323	0.180713	0.088143
H121	H	1.036945	0.150536	0.125411
O122	O	0.292735	0.749463	0.069463
H123	H	0.268138	0.709391	0.099870
H124	H	0.416107	0.997797	0.013221
H125	H	1.380972	0.513559	0.317074
O126	O	0.392092	1.059292	0.755460
H127	H	0.358468	1.021400	0.757558
H128	H	1.211479	0.823974	-0.408647
H129	H	0.345932	0.857301	0.223479
O130	O	0.158991	1.248166	0.084950
H131	H	0.088960	1.238242	0.107526
O132	O	0.147850	0.902662	0.288211
H133	H	0.224140	0.901363	0.286347
O134	O	0.642129	0.582822	0.229764
H135	H	0.578409	0.567053	0.256614
H136	H	0.679477	0.441349	0.214033
O137	O	1.247373	0.977568	-0.201921
H138	H	1.219590	1.024704	-0.240182
H139	H	0.277433	1.248443	0.197426
H140	H	0.421739	0.796545	0.721176
H141	H	1.450331	0.388229	0.224968
H142	H	0.530058	0.964187	0.588735
H143	H	1.103112	0.656295	-0.276193
O144	O	1.302272	0.910904	-0.396600
H145	H	1.325876	0.948206	-0.368546
H146	H	0.604671	0.282094	0.245507
O147	O	0.330899	0.709619	0.709196
H148	H	0.319321	0.739648	0.777275
H149	H	0.305599	1.196099	0.707140
O150	O	0.693821	0.846464	-0.396361
H151	H	0.685260	0.805589	-0.436356
H152	H	0.615794	0.157213	0.240837
H153	H	1.327620	0.424388	-0.394593
O154	O	0.553437	0.833751	0.588029
H155	H	0.523883	0.853720	0.665913
O156	O	1.241102	0.561193	-0.442915
H157	H	1.300304	0.510703	-0.495286
H158	H	1.355761	0.372044	0.115084
H159	H	1.028493	0.338383	0.067021
O160	O	0.991044	0.037653	0.082784
H161	H	1.054775	0.053414	0.055955
H162	H	0.477606	1.128583	0.398154
H163	H	1.017384	0.463261	0.071714
H164	H	0.691549	0.358493	0.208953
H165	H	0.396420	0.655060	0.519232
H166	H	0.517462	0.680139	0.381393
O167	O	0.332003	1.247624	0.537109
H168	H	0.359507	1.250749	0.460086
H169	H	1.191835	0.481183	0.097307
O170	O	0.967858	0.245383	0.092530
H171	H	0.986580	0.209314	0.146603
O172	O	0.939324	0.774023	-0.291078
H173	H	0.936687	0.774795	-0.215401
H174	H	1.217070	0.622686	0.299308
