data_functionalizedCrystal
_audit_creation_method	'MofGen! by Chris Wilmer'
_symmetry_space_group_name_H-M	'P1'
_symmetry_Int_Tables_number	1
_symmetry_cell_setting	triclinic
loop_
_symmetry_equiv_pos_as_xyz
  x,y,z
_cell_length_a	21.395362
_cell_length_b	11.169416
_cell_length_c	21.395364
_cell_angle_alpha	89.996785
_cell_angle_beta	90.036401
_cell_angle_gamma	90.026029
loop_
_atom_site_label
_atom_site_type_symbol
_atom_site_fract_x
_atom_site_fract_y
_atom_site_fract_z
Zn1	Zn	0.957902	-0.477611	0.354616
Zn2	Zn	1.457902	0.022389	0.854616
Zn3	Zn	0.957856	-0.678230	0.249852
Zn4	Zn	1.457856	-0.178230	0.749852
Zn5	Zn	0.853131	-0.477616	0.249818
Zn6	Zn	1.353131	0.022384	0.749818
Zn7	Zn	0.853124	-0.678306	0.354557
Zn8	Zn	1.353124	-0.178306	0.854557
O9	O	0.905503	-0.577941	0.302211
O10	O	1.405503	-0.077941	0.802211
O11	O	1.045574	-0.504190	0.340758
O12	O	1.545574	-0.004190	0.840758
O13	O	0.943948	-0.651589	0.162169
O14	O	1.443948	-0.151589	0.662169
O15	O	0.867051	-0.309665	0.263730
O16	O	1.367051	0.190335	0.763730
O17	O	1.045540	-0.651584	0.263788
O18	O	1.545540	-0.151584	0.763788
O19	O	0.944026	-0.309662	0.340725
O20	O	1.444026	0.190338	0.840725
O21	O	0.867007	-0.504198	0.162144
O22	O	1.367007	-0.004198	0.662144
O23	O	0.765452	-0.504271	0.263672
O24	O	1.265452	-0.004271	0.763672
O25	O	0.867039	-0.651714	0.442242
O26	O	1.367039	-0.151714	0.942242
O27	O	0.765447	-0.651718	0.340623
O28	O	1.265447	-0.151718	0.840623
O29	O	0.944020	-0.504263	0.442286
O30	O	1.444020	-0.004263	0.942286
O31	O	0.943941	-0.846190	0.263731
O32	O	1.443941	-0.346190	0.763731
O33	O	0.866995	-0.846246	0.340657
O34	O	1.366995	-0.346246	0.840657
C35	C	0.742716	-0.578004	0.302138
C36	C	1.242716	-0.078004	0.802138
C37	C	0.673074	-0.578060	0.302122
C38	C	1.173074	-0.078060	0.802122
C39	C	0.905479	-0.889766	0.302204
C40	C	1.405479	-0.389766	0.802204
C41	C	0.905526	-1.023165	0.302223
C42	C	1.405526	-0.523165	0.802223
C43	C	0.640375	-0.654937	0.342130
C44	C	1.140375	-0.154937	0.842130
C45	C	0.574940	-0.654908	0.342158
C46	C	1.074940	-0.154908	0.842158
C47	C	0.542206	-0.578014	0.302166
C48	C	1.042206	-0.078014	0.802166
C49	C	0.574913	-0.501122	0.262155
C50	C	1.074913	-0.001122	0.762155
C51	C	0.640348	-0.501145	0.262133
C52	C	1.140348	-0.001145	0.762133
C53	C	0.438487	-0.568318	0.245761
C54	C	0.938487	-0.068318	0.745761
C55	C	0.373054	-0.568303	0.245782
C56	C	0.873054	-0.068303	0.745782
C57	C	0.340385	-0.577936	0.302236
C58	C	0.840385	-0.077936	0.802236
C59	C	0.373158	-0.587608	0.358670
C60	C	0.873158	-0.087608	0.858670
C61	C	0.438592	-0.587631	0.358647
C62	C	0.938592	-0.087631	0.858647
C63	C	0.471254	-0.577980	0.302186
C64	C	0.971254	-0.077980	0.802186
C65	C	0.236733	-0.654785	0.342278
C66	C	0.736733	-0.154785	0.842278
C67	C	0.171297	-0.654747	0.342307
C68	C	0.671297	-0.154747	0.842307
C69	C	0.171272	-0.500968	0.262298
C70	C	0.671272	-0.000968	0.762298
C71	C	0.236707	-0.500999	0.262275
C72	C	0.736707	-0.000999	0.762275
C73	C	0.269434	-0.577914	0.302264
C74	C	0.769434	-0.077914	0.802264
C75	C	1.068927	-0.577878	0.302284
C76	C	1.568927	-0.077878	0.802284
C77	C	1.138568	-0.577851	0.302315
C78	C	1.638568	-0.077851	0.802315
C79	C	0.905534	-0.577996	0.465634
C80	C	1.405534	-0.077996	0.965634
C81	C	0.905547	-0.578020	0.535275
C82	C	1.405547	-0.078020	1.035275
C83	C	0.905545	-0.264898	0.302231
C84	C	1.405545	0.235102	0.802231
C85	C	0.905562	-0.131498	0.302239
C86	C	1.405562	0.368502	0.802239
C87	C	0.945624	-0.501256	0.568012
C88	C	1.445624	-0.001256	1.068012
C89	C	0.945615	-0.501236	0.633448
C90	C	1.445615	-0.001236	1.133448
C91	C	0.905534	-0.578002	0.666143
C92	C	1.405534	-0.078002	1.166143
C93	C	0.865449	-0.654772	0.633399
C94	C	1.365449	-0.154772	1.133399
C95	C	0.865455	-0.654781	0.567964
C96	C	1.365455	-0.154781	1.067964
C97	C	0.900565	-0.686121	0.769814
C98	C	1.400565	-0.186121	1.269814
C99	C	0.900563	-0.686114	0.835247
C100	C	1.400563	-0.186114	1.335247
C101	C	0.905512	-0.577974	0.867964
C102	C	1.405512	-0.077974	1.367964
C103	C	0.910475	-0.469838	0.835240
C104	C	1.410475	0.030162	1.335240
C105	C	0.910481	-0.469847	0.769806
C106	C	1.410481	0.030153	1.269806
C107	C	0.905523	-0.578001	0.737096
C108	C	1.405523	-0.078001	1.237096
C109	C	0.945581	-0.501182	0.971654
C110	C	1.445581	-0.001182	1.471654
C111	C	0.945567	-0.501161	1.037090
C112	C	1.445567	-0.001161	1.537090
C113	C	0.865405	-0.654707	1.037040
C114	C	1.365405	-0.154707	1.537040
C115	C	0.865415	-0.654718	0.971605
C116	C	1.365415	-0.154718	1.471605
C117	C	0.905507	-0.577957	0.938916
C118	C	1.405507	-0.077957	1.438916
C119	C	0.905476	-0.577922	1.139423
C120	C	1.405476	-0.077922	1.639423
C121	C	0.905486	-0.577926	1.069782
C122	C	1.405486	-0.077926	1.569782
H123	H	0.667017	-0.717566	0.374693
H124	H	1.167017	-0.217566	0.874693
F125	F	0.822743	-0.736400	1.071833
F126	F	1.322743	-0.236400	1.571833
H127	H	0.346376	-0.560435	0.199830
H128	H	0.846376	-0.060435	0.699830
F129	F	0.822797	-0.736488	0.533122
F130	F	1.322797	-0.236488	1.033122
F131	F	0.540075	-0.419281	0.219595
F132	F	1.040075	0.080719	0.719595
H133	H	0.914506	-0.381780	0.861877
H134	H	1.414506	0.118220	1.361877
H135	H	0.896368	-0.774159	0.743182
H136	H	1.396368	-0.274159	1.243182
F137	F	0.540131	-0.736734	0.384743
F138	F	1.040131	-0.236734	0.884743
H139	H	0.914521	-0.381799	0.743165
H140	H	1.414521	0.118201	1.243165
F141	F	0.675150	-0.419318	0.219549
F142	F	1.175150	0.080682	0.719549
F143	F	0.822761	-0.736427	0.936762
F144	F	1.322761	-0.236427	1.436762
H145	H	0.978223	-0.438672	0.945037
H146	H	1.478223	0.061328	1.445037
F147	F	0.473468	-0.597920	0.418707
F148	F	0.973468	-0.097920	0.918707
F149	F	0.338395	-0.597855	0.418757
F150	F	0.838395	-0.097855	0.918757
F151	F	0.271566	-0.736638	0.384840
F152	F	0.771566	-0.236638	0.884840
F153	F	0.895286	-0.801202	0.870069
F154	F	1.395286	-0.301202	1.370069
F155	F	0.988291	-0.419554	0.533226
F156	F	1.488291	0.080446	1.033226
F157	F	0.822791	-0.736469	0.668197
F158	F	1.322791	-0.236469	1.168197
H159	H	0.978202	-0.438643	1.063744
H160	H	1.478202	0.061357	1.563744
H161	H	0.144674	-0.717348	0.374890
H162	H	0.644674	-0.217348	0.874890
F163	F	0.136439	-0.419124	0.219739
F164	F	0.636439	0.080876	0.719739
H165	H	0.263331	-0.438403	0.229692
H166	H	0.763331	0.061597	0.729692
F167	F	0.473249	-0.558068	0.185670
F168	F	0.973249	-0.058068	0.685670
H169	H	0.978249	-0.438719	0.660107
H170	H	1.478249	0.061281	1.160107
