data_functionalizedCrystal
_audit_creation_method	'MofGen! by Chris Wilmer'
_symmetry_space_group_name_H-M	'P1'
_symmetry_Int_Tables_number	1
_symmetry_cell_setting	triclinic
loop_
_symmetry_equiv_pos_as_xyz
  x,y,z
_cell_length_a	8.497374
_cell_length_b	8.497374
_cell_length_c	13.033748
_cell_angle_alpha	97.189022
_cell_angle_beta	82.830727
_cell_angle_gamma	90.000262
loop_
_atom_site_label
_atom_site_type_symbol
_atom_site_fract_x
_atom_site_fract_y
_atom_site_fract_z
Zn1	Zn	0.586161	-0.321486	1.597548
Zn2	Zn	0.322400	-0.585230	1.597557
Zn3	Zn	0.355838	-0.355013	1.422852
Zn4	Zn	0.619583	-0.618773	1.422844
O5	O	0.470995	-0.470126	1.510200
O6	O	0.523191	-0.328403	1.743777
O7	O	0.106072	-0.554685	1.574389
O8	O	0.386397	-0.129804	1.446025
O9	O	0.329407	-0.522174	1.743784
O10	O	0.555615	-0.105171	1.574373
O11	O	0.130638	-0.385546	1.446034
O12	O	0.418805	-0.418071	1.276623
O13	O	0.835914	-0.579344	1.446012
O14	O	0.612578	-0.611855	1.276617
O15	O	0.811358	-0.360929	1.574366
O16	O	0.361815	-0.810442	1.574381
O17	O	0.580155	-0.835086	1.446021
C18	C	0.522948	-0.522242	1.238705
C19	C	0.545211	-0.544576	1.122558
C20	C	0.882477	-0.470130	1.510192
C21	C	1.061121	-0.470146	1.510195
C22	C	0.459415	-0.458509	1.070751
C23	C	0.482423	-0.481590	0.950707
C24	C	0.471005	-0.058647	1.510192
C25	C	0.471009	0.119997	1.510192
C26	C	0.418841	-0.417807	1.782756
C27	C	0.396616	-0.395512	1.898903
H28	H	0.368923	-0.367744	1.115269
H29	H	0.572911	-0.572373	0.906193
O30	O	0.652991	-0.653083	1.069506
C31	C	0.735605	-0.927939	1.036005
C32	C	0.613406	-0.805226	1.096127
H33	H	0.703663	-1.050969	1.057522
H34	H	0.734927	-0.927400	0.948638
H35	H	0.858771	-0.896260	1.057402
H36	H	0.490181	-0.836819	1.074818
H37	H	0.614223	-0.805788	1.183480
H38	H	0.306118	-0.304738	0.943416
