data_functionalizedCrystal
_audit_creation_method	'MofGen! by Chris Wilmer'
_symmetry_space_group_name_H-M	'P1'
_symmetry_Int_Tables_number	1
_symmetry_cell_setting	triclinic
loop_
_symmetry_equiv_pos_as_xyz
  x,y,z
_cell_length_a	15.995350
_cell_length_b	15.995350
_cell_length_c	15.072220
_cell_angle_alpha	89.998899
_cell_angle_beta	89.993871
_cell_angle_gamma	96.507625
loop_
_atom_site_label
_atom_site_type_symbol
_atom_site_fract_x
_atom_site_fract_y
_atom_site_fract_z
O1	O	1.110996	-0.107921	-0.073647
O2	O	1.444329	0.225412	0.259686
O3	O	1.777663	0.558746	0.593020
O4	O	0.867221	-0.121249	-0.073677
O5	O	1.200554	0.212085	0.259656
O6	O	1.533887	0.545418	0.592990
O7	O	0.995772	0.007303	-0.073660
O8	O	1.329105	0.340636	0.259673
O9	O	1.662439	0.673970	0.593006
O10	O	0.982444	-0.236472	-0.073664
O11	O	1.315778	0.096861	0.259670
O12	O	1.649111	0.430194	0.593003
O13	O	0.995740	0.007296	0.073905
O14	O	1.329074	0.340629	0.407238
O15	O	1.662407	0.673962	0.740572
O16	O	0.867189	-0.121256	0.073888
O17	O	1.200522	0.212078	0.407222
O18	O	1.533855	0.545411	0.740555
O19	O	1.110964	-0.107928	0.073918
O20	O	1.444297	0.225405	0.407252
O21	O	1.777631	0.558738	0.740585
Zn22	Zn	0.989071	-0.114593	0.097332
Zn23	Zn	1.322405	0.218740	0.430666
Zn24	Zn	1.655738	0.552074	0.763999
Zn25	Zn	0.989113	-0.114584	-0.097091
Zn26	Zn	1.322447	0.218750	0.236242
Zn27	Zn	1.655780	0.552083	0.569576
O28	O	0.982413	-0.236480	0.073902
O29	O	1.315746	0.096854	0.407235
O30	O	1.649079	0.430187	0.740568
C31	C	0.836010	-0.120701	0.000102
C32	C	1.169343	0.212632	0.333435
C33	C	1.502677	0.545966	0.666768
C34	C	0.743060	-0.119049	0.000090
C35	C	1.076393	0.214284	0.333424
C36	C	1.409726	0.547617	0.666757
N37	N	0.989049	-0.114599	0.230021
N38	N	1.322382	0.218734	0.563355
N39	N	1.655716	0.552068	0.896688
C40	C	1.142175	-0.108476	0.000138
C41	C	1.475508	0.224858	0.333471
C42	C	1.808841	0.558191	0.666804
C43	C	1.235125	-0.110127	0.000143
C44	C	1.568458	0.223206	0.333477
C45	C	1.901792	0.556539	0.666810
C46	C	0.995205	0.038494	0.000121
C47	C	1.328538	0.371827	0.333454
C48	C	1.661872	0.705161	0.666787
C49	C	0.993553	0.131444	0.000115
C50	C	1.326887	0.464778	0.333449
C51	C	1.660220	0.798111	0.666782
C52	C	1.572873	-0.116060	0.000108
C53	C	1.906206	0.217274	0.333441
C54	C	2.239539	0.550607	0.666774
C55	C	1.525439	-0.207612	0.000440
C56	C	1.858772	0.125722	0.333773
C57	C	2.192105	0.459055	0.667107
C58	C	1.428748	-0.205959	0.000117
C59	C	1.762082	0.127374	0.333450
C60	C	2.095415	0.460707	0.666783
C61	C	1.405312	-0.113117	0.000126
C62	C	1.738645	0.220216	0.333459
C63	C	2.071979	0.553550	0.666793
C64	C	1.446391	-0.067956	-0.084142
C65	C	1.779724	0.265377	0.249192
C66	C	2.113058	0.598711	0.582525
C67	C	1.543027	-0.070256	-0.084222
C68	C	1.876360	0.263077	0.249112
C69	C	2.209693	0.596411	0.582445
C70	C	1.543382	-0.068373	0.083587
C71	C	1.876715	0.264960	0.416921
C72	C	2.210049	0.598293	0.750254
C73	C	1.446437	-0.068395	0.084710
C74	C	1.779770	0.264938	0.418044
C75	C	2.113103	0.598271	0.751377
C76	C	1.310615	-0.111449	0.000133
C77	C	1.643948	0.221884	0.333467
C78	C	1.977281	0.555217	0.666800
C79	C	1.667570	-0.117725	0.000094
C80	C	2.000904	0.215609	0.333428
C81	C	2.334237	0.548942	0.666761
C82	C	0.982980	-0.267671	0.000119
C83	C	1.316313	0.065663	0.333452
C84	C	1.649646	0.398996	0.666785
C85	C	0.984631	-0.360621	0.000118
C86	C	1.317965	-0.027288	0.333452
C87	C	1.651298	0.306046	0.666785
C88	C	0.987621	0.469192	0.000118
C89	C	1.320954	0.802525	0.333451
C90	C	1.654288	1.135859	0.666784
C91	C	0.896069	0.421758	-0.000225
C92	C	1.229403	0.755091	0.333109
C93	C	1.562736	1.088425	0.666442
C94	C	0.897721	0.325068	0.000108
C95	C	1.231055	0.658401	0.333442
C96	C	1.564388	0.991734	0.666775
C97	C	0.990564	0.301631	0.000116
C98	C	1.323897	0.634965	0.333449
C99	C	1.657230	0.968298	0.666783
C100	C	1.035702	0.342705	0.084387
C101	C	1.369035	0.676038	0.417720
C102	C	1.702369	1.009371	0.751054
C103	C	1.033402	0.439341	0.084457
C104	C	1.366736	0.772674	0.417790
C105	C	1.700069	1.106007	0.751124
C106	C	1.035330	0.439707	-0.083352
C107	C	1.368663	0.773040	0.249982
C108	C	1.701996	1.106373	0.583315
C109	C	1.035308	0.342761	-0.084465
C110	C	1.368641	0.676095	0.248868
C111	C	1.701975	1.009428	0.582201
C112	C	0.992231	0.206934	0.000118
C113	C	1.325565	0.540267	0.333451
C114	C	1.658898	0.873601	0.666785
C115	C	0.985956	0.563890	0.000122
C116	C	1.319289	0.897223	0.333455
C117	C	1.652623	1.230556	0.666788
N118	N	0.989142	-0.114571	-0.229780
N119	N	1.322476	0.218762	0.103554
N120	N	1.655809	0.552096	0.436887
C121	C	0.989112	-0.114580	0.589223
C122	C	1.322445	0.218753	0.922556
C123	C	1.655778	0.552086	1.255889
C124	C	0.920095	-0.183135	0.551607
C125	C	1.253429	0.150198	0.884940
C126	C	1.586762	0.483532	1.218273
C127	C	0.920254	-0.183385	0.448781
C128	C	1.253587	0.149948	0.782114
C129	C	1.586920	0.483281	1.115448
C130	C	0.989080	-0.114590	0.411019
C131	C	1.322413	0.218744	0.744352
C132	C	1.655746	0.552077	1.077685
C133	C	1.076445	-0.133671	0.448321
C134	C	1.409778	0.199662	0.781654
C135	C	1.743111	0.532995	1.114987
C136	C	1.076058	-0.134159	0.551178
C137	C	1.409391	0.199175	0.884512
C138	C	1.742725	0.532508	1.217845
C139	C	0.971542	-0.026741	0.551321
C140	C	1.304875	0.306592	0.884655
C141	C	1.638209	0.639926	1.217988
C142	C	0.969537	-0.027327	0.448458
C143	C	1.302871	0.306007	0.781791
C144	C	1.636204	0.639340	1.115124
C145	C	0.989067	-0.114593	0.310305
C146	C	1.322401	0.218740	0.643639
C147	C	1.655734	0.552073	0.976972
C148	C	0.989130	-0.114579	0.689936
C149	C	1.322463	0.218755	1.023269
C150	C	1.655796	0.552088	1.356603
H151	H	1.400325	-0.241463	0.060520
H152	H	1.733658	0.091871	0.393853
H153	H	2.066992	0.425204	0.727187
F154	F	0.994691	0.305607	0.166350
F155	F	1.328024	0.638940	0.499683
F156	F	1.661358	0.972274	0.833017
H157	H	1.419137	-0.101371	0.147051
H158	H	1.752470	0.231962	0.480384
H159	H	2.085804	0.565295	0.813717
H160	H	1.129029	-0.085068	0.423858
H161	H	1.462362	0.248265	0.757192
H162	H	1.795695	0.581599	1.090525
F163	F	1.550083	-0.255631	0.079105
F164	F	1.883416	0.077703	0.412439
F165	F	2.216749	0.411036	0.745772
H166	H	1.431077	-0.000690	0.089803
H167	H	1.764410	0.332643	0.423137
H168	H	2.097743	0.665976	0.756470
H169	H	1.432265	0.000253	-0.087269
H170	H	1.765599	0.333586	0.246064
H171	H	2.098932	0.666920	0.579398
F172	F	1.030979	0.042479	0.414873
F173	F	1.364312	0.375813	0.748206
F174	F	1.697646	0.709146	1.081540
H175	H	1.091540	-0.198219	0.575161
H176	H	1.424874	0.135114	0.908495
H177	H	1.758207	0.468447	1.241828
F178	F	1.409298	-0.108945	-0.166108
F179	F	1.742632	0.224388	0.167225
F180	F	2.075965	0.557722	0.500559
F181	F	0.848254	0.445982	-0.079216
F182	F	1.181588	0.779315	0.254118
F183	F	1.514921	1.112648	0.587451
F184	F	1.392325	-0.252658	-0.078973
F185	F	1.725658	0.080675	0.254361
F186	F	2.058992	0.414008	0.587694
F187	F	0.890067	-0.002771	0.585257
F188	F	1.223401	0.330563	0.918590
F189	F	1.556734	0.663896	1.251924
F190	F	1.123557	0.481221	-0.084087
F191	F	1.456891	0.814554	0.249247
F192	F	1.790224	1.147888	0.582580
H193	H	0.861974	0.297200	0.060612
H194	H	1.195307	0.630533	0.393945
H195	H	1.528640	0.963867	0.727278
H196	H	1.129019	-0.086195	0.576060
H197	H	1.462352	0.247138	0.909393
H198	H	1.795686	0.580471	1.242727
F199	F	0.835360	-0.168568	0.415816
F200	F	1.168694	0.164765	0.749149
F201	F	1.502027	0.498099	1.082482
F202	F	1.570230	-0.107500	0.167064
F203	F	1.903563	0.225834	0.500398
F204	F	2.236896	0.559167	0.833731
H205	H	1.103910	0.328579	0.087526
H206	H	1.437244	0.661912	0.420860
H207	H	1.770577	0.995246	0.754193
F208	F	0.848312	0.447646	0.078098
F209	F	1.181646	0.780979	0.411431
F210	F	1.514979	1.114313	0.744765
F211	F	0.990342	0.463260	0.166785
F212	F	1.323675	0.796593	0.500118
F213	F	1.657008	1.129927	0.833451
F214	F	0.851342	0.287919	-0.078851
F215	F	1.184676	0.621253	0.254483
F216	F	1.518009	0.954586	0.587816
H217	H	1.575275	-0.003040	-0.088057
H218	H	1.908608	0.330293	0.245276
H219	H	2.241941	0.663626	0.578610
H220	H	0.854945	-0.171953	0.576360
H221	H	1.188279	0.161380	0.909694
H222	H	1.521612	0.494714	1.243027
H223	H	1.575140	-0.000872	0.084154
H224	H	1.908473	0.332462	0.417487
H225	H	2.241807	0.665795	0.750820
H226	H	1.002306	0.315516	-0.146807
H227	H	1.335640	0.648849	0.186527
H228	H	1.668973	0.982182	0.519860
H229	H	1.100617	0.471588	0.088286
H230	H	1.433951	0.804922	0.421619
H231	H	1.767284	1.138255	0.754953
F232	F	0.996218	0.466548	-0.166838
F233	F	1.329551	0.799882	0.166496
F234	F	1.662884	1.133215	0.499829
H235	H	1.103014	0.327400	-0.089548
H236	H	1.436347	0.660733	0.243786
H237	H	1.769680	0.994066	0.577119
F238	F	1.551046	-0.255226	-0.078110
F239	F	1.884379	0.078108	0.255224
F240	F	2.217713	0.411441	0.588557
H241	H	0.931160	-0.247952	0.577446
H242	H	1.264493	0.085381	0.910779
H243	H	1.597827	0.418714	1.244113
H244	H	1.561329	-0.103184	-0.147215
H245	H	1.894662	0.230150	0.186118
H246	H	2.227995	0.563483	0.519451
F247	F	0.934890	-0.268594	0.416606
F248	F	1.268224	0.064740	0.749939
F249	F	1.601557	0.398073	1.083273
H250	H	1.092297	-0.197002	0.422553
H251	H	1.425630	0.136331	0.755886
H252	H	1.758963	0.469665	1.089220
H253	H	0.905271	-0.012846	0.424078
H254	H	1.238604	0.320488	0.757411
H255	H	1.571938	0.653821	1.090744
F256	F	1.037326	0.039941	0.583116
F257	F	1.370659	0.373275	0.916449
F258	F	1.703993	0.706608	1.249782
