data_functionalizedCrystal
_audit_creation_method	'MofGen! by Chris Wilmer'
_symmetry_space_group_name_H-M	'P1'
_symmetry_Int_Tables_number	1
_symmetry_cell_setting	triclinic
loop_
_symmetry_equiv_pos_as_xyz
  x,y,z
_cell_length_a	12.759401
_cell_length_b	18.101395
_cell_length_c	12.759393
_cell_angle_alpha	90.032370
_cell_angle_beta	90.020938
_cell_angle_gamma	90.032629
loop_
_atom_site_label
_atom_site_type_symbol
_atom_site_fract_x
_atom_site_fract_y
_atom_site_fract_z
Zn1	Zn	1.606147	-0.294764	0.594006
Zn2	Zn	2.106147	0.205236	1.094006
Zn3	Zn	1.605987	-0.418623	0.418321
Zn4	Zn	2.105987	0.081377	0.918321
Zn5	Zn	1.430445	-0.294803	0.418342
Zn6	Zn	1.930445	0.205197	0.918342
Zn7	Zn	1.430387	-0.418571	0.593958
Zn8	Zn	1.930387	0.081429	1.093958
O9	O	1.518242	-0.356690	0.506157
O10	O	2.018242	0.143310	1.006157
O11	O	1.753147	-0.311199	0.570713
O12	O	2.253147	0.188801	1.070713
O13	O	1.582659	-0.402236	0.271302
O14	O	2.082659	0.097764	0.771302
O15	O	1.453844	-0.191165	0.441673
O16	O	1.953844	0.308835	0.941673
O17	O	1.753030	-0.402198	0.441637
O18	O	2.253030	0.097802	0.941637
O19	O	1.582931	-0.191136	0.570733
O20	O	2.082931	0.308864	1.070733
O21	O	1.453689	-0.311266	0.271318
O22	O	1.953689	0.188734	0.771318
O23	O	1.283417	-0.311216	0.441626
O24	O	1.783417	0.188784	0.941626
O25	O	1.453744	-0.402110	0.740986
O26	O	1.953744	0.097890	1.240986
O27	O	1.283374	-0.402148	0.570651
O28	O	1.783374	0.097852	1.070651
O29	O	1.582874	-0.311149	0.741021
O30	O	2.082874	0.188851	1.241021
O31	O	1.582603	-0.522249	0.441590
O32	O	2.082603	-0.022249	0.941590
O33	O	1.453590	-0.522211	0.570630
O34	O	1.953590	-0.022211	1.070630
C35	C	1.245274	-0.356681	0.506136
C36	C	1.745274	0.143319	1.006136
C37	C	1.128498	-0.356695	0.506152
C38	C	1.628498	0.143305	1.006152
C39	C	1.073641	-0.404115	0.573229
C40	C	1.573641	0.095885	1.073229
C41	C	0.963917	-0.404118	0.573250
C42	C	1.463917	0.095882	1.073250
C43	C	0.963916	-0.309278	0.439107
C44	C	1.463916	0.190722	0.939107
C45	C	1.073638	-0.309272	0.439092
C46	C	1.573638	0.190728	0.939092
C47	C	1.518101	-0.549101	0.506126
C48	C	2.018101	-0.049101	1.006126
C49	C	1.518137	-0.631415	0.506148
C50	C	2.018137	-0.131415	1.006148
C51	C	1.518368	-0.930506	0.506204
C52	C	2.018368	-0.430506	1.006204
C53	C	1.437384	-0.899187	0.587594
C54	C	1.937384	-0.399187	1.087594
C55	C	1.436999	-0.813570	0.587340
C56	C	1.936999	-0.313570	1.087340
C57	C	1.518253	-0.782123	0.506177
C58	C	2.018253	-0.282123	1.006177
C59	C	1.488271	-0.813282	0.395451
C60	C	1.988271	-0.313282	0.895451
C61	C	1.487748	-0.898927	0.395938
C62	C	1.987748	-0.398927	0.895938
C63	C	1.629511	-0.898846	0.534565
C64	C	2.129511	-0.398846	1.034565
C65	C	1.628857	-0.813194	0.536994
C66	C	2.128857	-0.313194	1.036994
C67	C	1.518190	-0.698264	0.506155
C68	C	2.018190	-0.198264	1.006155
C69	C	1.518428	-1.014365	0.506219
C70	C	2.018428	-0.514365	1.006219
C71	C	1.792275	-0.356700	0.506178
C72	C	2.292275	0.143300	1.006178
C73	C	1.909051	-0.356704	0.506187
C74	C	2.409051	0.143296	1.006187
C75	C	1.518320	-0.356619	0.780190
C76	C	2.018320	0.143381	1.280190
C77	C	1.518354	-0.356589	0.896967
C78	C	2.018354	0.143411	1.396967
C79	C	1.518411	-0.163528	0.506211
C80	C	2.018411	0.336472	1.006211
C81	C	1.518484	-0.081214	0.506234
C82	C	2.018484	0.418786	1.006234
C83	C	1.518224	-0.356708	0.233189
C84	C	2.018224	0.143292	0.733189
C85	C	1.518394	-0.356529	0.116413
C86	C	2.018394	0.143471	0.616413
C87	C	1.585597	-0.309218	0.951849
C88	C	2.085597	0.190782	1.451849
C89	C	1.585614	-0.309186	1.061573
C90	C	2.085614	0.190814	1.561573
C91	C	1.451143	-0.403902	1.061523
C92	C	1.951143	0.096098	1.561523
C93	C	1.451121	-0.403930	0.951801
C94	C	1.951121	0.096070	1.451801
H95	H	1.118304	-0.270652	0.384470
H96	H	1.618304	0.229348	0.884470
H97	H	1.692386	-0.791784	0.482034
H98	H	2.192386	-0.291784	0.982034
H99	H	1.455759	-0.792500	0.669442
H100	H	1.955759	-0.292500	1.169442
H101	H	1.455958	-0.919730	0.669962
H102	H	1.955958	-0.419730	1.169962
H103	H	1.640339	-0.270668	0.907206
H104	H	2.140339	0.229332	1.407206
H105	H	1.396407	-0.442447	1.106183
H106	H	1.896407	0.057553	1.606183
H107	H	1.355504	-0.920777	0.569045
H108	H	1.855504	-0.420777	1.069045
H109	H	0.919236	-0.270670	0.384508
H110	H	1.419236	0.229330	0.884508
H111	H	1.118304	-0.442728	0.627836
H112	H	1.618304	0.057272	1.127836
N113	N	1.654303	-0.260789	1.117617
N114	N	2.154303	0.239211	1.617617
N115	N	1.714318	-0.218524	1.068641
N116	N	2.214318	0.281476	1.568641
H117	H	1.762831	-0.184339	1.108221
H118	H	2.262831	0.315661	1.608221
H119	H	1.396356	-0.442504	0.907115
H120	H	1.896356	0.057496	1.407115
H121	H	1.545399	-0.792915	0.333156
H122	H	2.045399	-0.292915	0.833156
H123	H	0.919257	-0.442732	0.627873
H124	H	1.419257	0.057268	1.127873
N125	N	1.387436	-0.786456	0.364757
N126	N	1.887436	-0.286456	0.864757
N127	N	1.372075	-0.718543	0.356036
N128	N	1.872075	-0.218543	0.856036
H129	H	1.300859	-0.699597	0.334361
H130	H	1.800859	-0.199597	0.834361
H131	H	1.354618	-0.793149	0.568554
H132	H	1.854618	-0.293149	1.068554
H133	H	1.544174	-0.919647	0.333229
H134	H	2.044174	-0.419647	0.833229
N135	N	1.385836	-0.924082	0.365784
N136	N	1.885836	-0.424082	0.865784
N137	N	1.349373	-0.907010	0.278149
N138	N	1.849373	-0.407010	0.778149
H139	H	1.277394	-0.924773	0.256851
H140	H	1.777394	-0.424773	0.756851
N141	N	1.663795	-0.925878	0.634125
N142	N	2.163795	-0.425878	1.134125
N143	N	1.606722	-0.968812	0.685390
N144	N	2.106722	-0.468812	1.185390
H145	H	1.630925	-0.987907	0.755708
H146	H	2.130925	-0.487907	1.255708
H147	H	1.651467	-0.792826	0.618482
H148	H	2.151467	-0.292826	1.118482
H149	H	1.689846	-0.919098	0.475286
H150	H	2.189846	-0.419098	0.975286
