data_functionalizedCrystal
_audit_creation_method	'MofGen! by Chris Wilmer'
_symmetry_space_group_name_H-M	'P1'
_symmetry_Int_Tables_number	1
_symmetry_cell_setting	triclinic
loop_
_symmetry_equiv_pos_as_xyz
  x,y,z
_cell_length_a	21.395362
_cell_length_b	12.759394
_cell_length_c	21.395355
_cell_angle_alpha	89.985423
_cell_angle_beta	89.956060
_cell_angle_gamma	90.030716
loop_
_atom_site_label
_atom_site_type_symbol
_atom_site_fract_x
_atom_site_fract_y
_atom_site_fract_z
Zn1	Zn	0.957929	-0.417943	-0.354603
Zn2	Zn	1.457929	0.082057	0.145397
Zn3	Zn	0.957860	-0.593608	-0.249833
Zn4	Zn	1.457860	-0.093608	0.250167
Zn5	Zn	0.853143	-0.417992	-0.249804
Zn6	Zn	1.353143	0.082008	0.250196
Zn7	Zn	0.853142	-0.593629	-0.354537
Zn8	Zn	1.353142	-0.093629	0.145463
O9	O	0.905518	-0.505793	-0.302194
O10	O	1.405518	-0.005793	0.197806
O11	O	1.045597	-0.441216	-0.340744
O12	O	1.545597	0.058784	0.159256
O13	O	0.943941	-0.570323	-0.162151
O14	O	1.443941	-0.070323	0.337849
O15	O	0.867073	-0.270964	-0.263721
O16	O	1.367073	0.229036	0.236279
O17	O	1.045547	-0.570276	-0.263770
O18	O	1.545547	-0.070276	0.236230
O19	O	0.944058	-0.270928	-0.340717
O20	O	1.444058	0.229072	0.159283
O21	O	0.867006	-0.441299	-0.162130
O22	O	1.367006	0.058701	0.337870
O23	O	0.765465	-0.441320	-0.263658
O24	O	1.265465	0.058680	0.236342
O25	O	0.867070	-0.570313	-0.442224
O26	O	1.367070	-0.070313	0.057776
O27	O	0.765464	-0.570360	-0.340605
O28	O	1.265464	-0.070360	0.159395
O29	O	0.944056	-0.441237	-0.442272
O30	O	1.444056	0.058763	0.057728
O31	O	0.943940	-0.740632	-0.263706
O32	O	1.443940	-0.240632	0.236294
O33	O	0.867003	-0.740647	-0.340632
O34	O	1.367003	-0.240647	0.159368
C35	C	0.742731	-0.505848	-0.302121
C36	C	1.242731	-0.005848	0.197879
C37	C	0.673089	-0.505897	-0.302105
C38	C	1.173089	-0.005897	0.197895
C39	C	0.905481	-0.778760	-0.302179
C40	C	1.405481	-0.278760	0.197821
C41	C	0.905522	-0.895537	-0.302193
C42	C	1.405522	-0.395537	0.197807
C43	C	0.640392	-0.573178	-0.342112
C44	C	1.140392	-0.073178	0.157888
C45	C	0.574957	-0.573152	-0.342139
C46	C	1.074957	-0.073152	0.157861
C47	C	0.542221	-0.505857	-0.302150
C48	C	1.042221	-0.005857	0.197850
C49	C	0.574927	-0.438564	-0.262141
C50	C	1.074927	0.061436	0.237859
C51	C	0.640361	-0.438584	-0.262118
C52	C	1.140361	0.061416	0.237882
C53	C	0.438495	-0.497393	-0.245744
C54	C	0.938495	0.002607	0.254256
C55	C	0.373062	-0.497380	-0.245766
C56	C	0.873062	0.002620	0.254234
C57	C	0.340401	-0.505788	-0.302219
C58	C	0.840401	-0.005788	0.197781
C59	C	0.373180	-0.514231	-0.358653
C60	C	0.873180	-0.014231	0.141347
C61	C	0.438614	-0.514252	-0.358631
C62	C	0.938614	-0.014252	0.141369
C63	C	0.471269	-0.505827	-0.302170
C64	C	0.971269	-0.005827	0.197830
C65	C	0.236751	-0.573044	-0.342259
C66	C	0.736751	-0.073044	0.157741
C67	C	0.171314	-0.573011	-0.342288
C68	C	0.671314	-0.073011	0.157712
C69	C	0.171285	-0.438429	-0.262284
C70	C	0.671285	0.061571	0.237716
C71	C	0.236720	-0.438456	-0.262260
C72	C	0.736720	0.061544	0.237740
C73	C	0.269449	-0.505770	-0.302247
C74	C	0.769449	-0.005770	0.197753
C75	C	0.985696	-0.895467	-0.222150
C76	C	1.485696	-0.395467	0.277850
C77	C	1.025799	-0.950293	-0.182136
C78	C	1.525799	-0.450293	0.317864
C79	C	1.025836	-1.060015	-0.182153
C80	C	1.525836	-0.560015	0.317847
C81	C	0.985766	-1.114913	-0.222190
C82	C	1.485766	-0.614913	0.277810
C83	C	0.945663	-1.060087	-0.262204
C84	C	1.445663	-0.560087	0.237796
C85	C	0.945629	-0.950363	-0.262182
C86	C	1.445629	-0.450363	0.237818
C87	C	0.865493	-1.060157	-0.342250
C88	C	1.365493	-0.560157	0.157750
C89	C	0.865453	-0.950435	-0.342230
C90	C	1.365453	-0.450435	0.157770
C91	C	0.825424	-1.115055	-0.382286
C92	C	1.325424	-0.615055	0.117714
C93	C	0.785317	-1.060229	-0.422298
C94	C	1.285317	-0.560229	0.077702
C95	C	0.785281	-0.950501	-0.422279
C96	C	1.285281	-0.450501	0.077721
C97	C	0.825349	-0.895609	-0.382244
C98	C	1.325349	-0.395609	0.117756
C99	C	1.068942	-0.505738	-0.302267
C100	C	1.568942	-0.005738	0.197733
C101	C	1.138583	-0.505714	-0.302299
C102	C	1.638583	-0.005714	0.197701
C103	C	0.905570	-0.505772	-0.465618
C104	C	1.405570	-0.005772	0.034382
C105	C	0.905593	-0.505762	-0.535259
C106	C	1.405593	-0.005762	-0.035259
C107	C	0.905573	-0.231759	-0.302223
C108	C	1.405573	0.268241	0.197777
C109	C	0.905597	-0.114983	-0.302235
C110	C	1.405597	0.385017	0.197765
C111	C	0.945678	-0.438550	-0.567998
C112	C	1.445678	0.061450	-0.067998
C113	C	0.945677	-0.438505	-0.633433
C114	C	1.445677	0.061495	-0.133433
C115	C	0.905597	-0.505691	-0.666127
C116	C	1.405597	-0.005691	-0.166127
C117	C	0.865505	-0.572908	-0.633380
C118	C	1.365505	-0.072908	-0.133380
C119	C	0.865502	-0.572944	-0.567946
C120	C	1.365502	-0.072944	-0.067946
C121	C	0.900637	-0.600292	-0.769795
C122	C	1.400637	-0.100292	-0.269795
C123	C	0.900644	-0.600258	-0.835228
C124	C	1.400644	-0.100258	-0.335228
C125	C	0.905601	-0.505580	-0.867948
C126	C	1.405601	-0.005580	-0.367948
C127	C	0.910565	-0.410933	-0.835227
C128	C	1.410565	0.089067	-0.335227
C129	C	0.910563	-0.410968	-0.769793
C130	C	1.410563	0.089032	-0.269793
C131	C	0.905595	-0.505659	-0.737080
C132	C	1.405595	-0.005659	-0.237080
C133	C	0.945688	-0.438313	-0.971640
C134	C	1.445688	0.061687	-0.471640
C135	C	0.945682	-0.438266	-1.037076
C136	C	1.445682	0.061734	-0.537076
C137	C	0.865513	-0.572679	-1.037022
C138	C	1.365513	-0.072679	-0.537022
C139	C	0.865515	-0.572716	-0.971586
C140	C	1.365515	-0.072716	-0.471586
C141	C	0.905606	-0.505535	-0.938899
C142	C	1.405606	-0.005535	-0.438899
C143	C	0.905503	-0.505738	-0.139407
C144	C	1.405503	-0.005738	0.360593
C145	C	0.905602	-0.505451	-0.069766
C146	C	1.405602	-0.005451	0.430234
H147	H	0.667036	-0.627988	-0.374673
H148	H	1.167036	-0.127988	0.125327
H149	H	0.752627	-0.905868	-0.454866
H150	H	1.252627	-0.405868	0.045134
H151	H	0.914603	-0.333904	-0.743154
H152	H	1.414603	0.166096	-0.243154
O153	O	0.337713	-0.488268	-0.184900
O154	O	0.837713	0.011732	0.315100
H155	H	0.350215	-0.554988	-0.154056
H156	H	0.850215	-0.054988	0.345944
H157	H	0.346588	-0.521076	-0.404623
H158	H	0.846588	-0.021076	0.095377
H159	H	0.144693	-0.627797	-0.374870
H160	H	0.644693	-0.127797	0.125130
H161	H	1.058425	-0.905585	-0.149540
H162	H	1.558425	-0.405585	0.350460
H163	H	0.985805	-1.204254	-0.222206
H164	H	1.485805	-0.704254	0.277794
O165	O	0.272062	-0.645604	-0.385404
O166	O	0.772062	-0.145604	0.114596
H167	H	0.301823	-0.699009	-0.357307
H168	H	0.801823	-0.199009	0.142693
O169	O	0.675635	-0.366020	-0.218965
O170	O	1.175635	0.133980	0.281035
H171	H	0.705392	-0.412982	-0.187035
H172	H	1.205392	0.087018	0.312965
O173	O	0.822272	-0.645367	-0.668640
O174	O	1.322272	-0.145367	-0.168640
H175	H	0.832993	-0.727829	-0.656090
H176	H	1.332993	-0.227829	-0.156090
O177	O	0.473722	-0.488327	-0.184852
O178	O	0.973722	0.011673	0.315148
H179	H	0.439938	-0.482470	-0.145614
H180	H	0.939938	0.017530	0.354386
H181	H	1.058494	-1.104654	-0.149573
H182	H	1.558494	-0.604654	0.350427
O183	O	0.825455	-1.233398	-0.382304
O184	O	1.325455	-0.733398	0.117696
H185	H	0.860066	-1.262301	-0.347748
H186	H	1.360066	-0.762301	0.152252
O187	O	0.895284	-0.702420	-0.734511
O188	O	1.395284	-0.202420	-0.234511
H189	H	0.937249	-0.713147	-0.704725
H190	H	1.437249	-0.213147	-0.204725
O191	O	0.271994	-0.365917	-0.219094
O192	O	0.771994	0.134083	0.280906
H193	H	0.238240	-0.319129	-0.191283
H194	H	0.738240	0.180871	0.308717
H195	H	0.825320	-0.806268	-0.382221
H196	H	1.325320	-0.306268	0.117779
H197	H	0.978328	-0.383603	-0.945025
H198	H	1.478328	0.116397	-0.445025
O199	O	0.539683	-0.645726	-0.385291
O200	O	1.039683	-0.145726	0.114709
H201	H	0.488684	-0.634397	-0.378590
H202	H	0.988684	-0.134397	0.121410
O203	O	0.988912	-0.366083	-0.532744
O204	O	1.488912	0.133917	-0.032744
H205	H	1.020781	-0.413114	-0.502961
H206	H	1.520781	0.086886	-0.002961
O207	O	0.988912	-0.365988	-0.668744
O208	O	1.488912	0.134012	-0.168744
H209	H	0.960876	-0.312519	-0.698523
H210	H	1.460876	0.187481	-0.198523
O211	O	0.742099	-1.119444	-0.465470
O212	O	1.242099	-0.619444	0.034530
H213	H	0.770144	-1.169359	-0.497386
H214	H	1.270144	-0.669359	0.002614
O215	O	0.539625	-0.366002	-0.218994
O216	O	1.039625	0.133998	0.281006
H217	H	0.488630	-0.377306	-0.225721
H218	H	0.988630	0.122694	0.274279
O219	O	0.988920	-0.365760	-1.072386
O220	O	1.488920	0.134240	-0.572386
H221	H	0.960889	-0.312286	-1.102166
H222	H	1.460889	0.187714	-0.602166
H223	H	0.914603	-0.333837	-0.861866
H224	H	1.414603	0.166163	-0.361866
O225	O	0.135983	-0.365855	-0.219147
O226	O	0.635983	0.134145	0.280853
H227	H	0.106220	-0.312467	-0.247252
H228	H	0.606220	0.187533	0.252748
H229	H	0.985662	-0.806126	-0.222124
H230	H	1.485662	-0.306126	0.277876
O231	O	0.473972	-0.523336	-0.419493
O232	O	0.973972	-0.023336	0.080507
H233	H	0.440273	-0.529169	-0.458756
H234	H	0.940273	-0.029169	0.041244
O235	O	0.822282	-0.645147	-1.072273
O236	O	1.322282	-0.145147	-0.572273
H237	H	0.829019	-0.633835	-1.123275
H238	H	1.329019	-0.133835	-0.623275
H239	H	0.832877	-0.627454	-0.944930
H240	H	1.332877	-0.127454	-0.444930
O241	O	0.895284	-0.702334	-0.870519
O242	O	1.395284	-0.202334	-0.370519
H243	H	0.891821	-0.768173	-0.836775
H244	H	1.391821	-0.268173	-0.336775
H245	H	0.832857	-0.627675	-0.541290
H246	H	1.332857	-0.127675	-0.041290
