data_functionalizedCrystal
_audit_creation_method	'MofGen! by Chris Wilmer'
_symmetry_space_group_name_H-M	'P1'
_symmetry_Int_Tables_number	1
_symmetry_cell_setting	triclinic
loop_
_symmetry_equiv_pos_as_xyz
  x,y,z
_cell_length_a	10.686285
_cell_length_b	10.686220
_cell_length_c	17.077396
_cell_angle_alpha	85.648717
_cell_angle_beta	94.391882
_cell_angle_gamma	90.345431
loop_
_atom_site_label
_atom_site_type_symbol
_atom_site_fract_x
_atom_site_fract_y
_atom_site_fract_z
Zn1	Zn	-0.352085	1.956156	0.333846
Zn2	Zn	-0.561875	1.972158	0.191833
Zn3	Zn	-0.368241	1.746390	0.211824
Zn4	Zn	-0.577906	1.762481	0.332288
O5	O	-0.465027	1.859296	0.267448
O6	O	-0.366443	2.133817	0.307294
O7	O	-0.536242	1.942173	0.084637
O8	O	-0.190554	1.760785	0.237029
O9	O	-0.520576	2.145574	0.202957
O10	O	-0.178684	1.914899	0.326678
O11	O	-0.393980	1.776302	0.099324
O12	O	-0.409524	1.572986	0.235518
O13	O	-0.547898	1.788209	0.442342
O14	O	-0.563564	1.584808	0.324022
O15	O	-0.381988	1.930501	0.443487
O16	O	-0.739546	1.957775	0.201446
O17	O	-0.751323	1.803726	0.304638
C18	C	-0.490038	1.533382	0.281770
C19	C	-0.500768	1.393957	0.287915
C20	C	-0.790948	1.884267	0.250719
C21	C	-0.930370	1.895065	0.243584
C22	C	-0.137830	1.834262	0.284257
C23	C	0.001602	1.823594	0.291421
C24	C	-0.464929	1.859365	0.472194
C25	C	-0.464887	1.859394	0.559444
C26	C	-0.439919	2.186483	0.253070
C27	C	-0.429220	2.325910	0.246943
C28	C	-0.465029	1.859293	0.063500
C29	C	-0.464698	1.859479	-0.023743
C30	C	-0.378490	1.933488	0.601032
C31	C	-0.378447	1.933500	0.683014
C32	C	-0.464808	1.859424	0.723406
C33	C	-0.551208	1.785322	0.681812
C34	C	-0.551244	1.785304	0.599833
C35	C	-0.551129	1.785366	0.852684
C36	C	-0.551095	1.785386	0.934670
C37	C	-0.378332	1.933563	0.935866
C38	C	-0.378368	1.933545	0.853886
C39	C	-0.464771	1.859444	0.812298
H40	H	-0.570243	1.345546	0.327691
H41	H	-0.308169	1.993814	0.568150
C42	C	-0.336399	1.390267	0.193963
C43	C	-0.214739	1.348951	0.218921
C44	C	-0.129203	1.408204	0.170128
H45	H	-0.341081	1.478548	0.196702
H46	H	-0.356213	1.370185	0.141192
H47	H	-0.194931	1.369043	0.271679
H48	H	-0.210018	1.260679	0.216180
H49	H	-0.149016	1.388121	0.117357
H50	H	-0.133895	1.496482	0.172870
H51	H	-0.046648	1.380171	0.187051
H52	H	-0.308053	1.993871	0.821000
H53	H	-0.978797	1.964510	0.197161
C54	C	-0.933761	1.731199	0.353409
C55	C	-0.853006	1.796422	0.404461
C56	C	-0.793444	1.711352	0.461581
H57	H	-0.886816	1.672634	0.328435
H58	H	-0.995089	1.687826	0.382511
H59	H	-0.791685	1.839775	0.375362
H60	H	-0.899919	1.854982	0.429454
H61	H	-0.854773	1.667979	0.490683
H62	H	-0.746507	1.652791	0.436600
H63	H	-0.738654	1.755595	0.496231
H64	H	-0.308098	1.993838	0.716871
H65	H	-0.307978	1.993896	0.969731
C66	C	-0.644908	1.704821	0.978389
C67	C	-0.720555	1.639889	0.924426
C68	C	-0.806980	1.565648	0.964673
H69	H	-0.695995	1.756862	1.005456
H70	H	-0.601125	1.646444	1.015220
H71	H	-0.764335	1.698258	0.887609
H72	H	-0.669503	1.587825	0.897357
H73	H	-0.763196	1.507271	1.001504
H74	H	-0.858057	1.617698	0.991739
H75	H	-0.858309	1.521574	0.928066
H76	H	-0.621469	1.725004	0.818828
C77	C	-0.645032	1.704762	0.725526
C78	C	-0.720681	1.639844	0.671557
C79	C	-0.807120	1.565611	0.711796
H80	H	-0.696116	1.756807	0.752593
H81	H	-0.601260	1.646377	0.762358
H82	H	-0.764450	1.698222	0.634739
H83	H	-0.669632	1.587777	0.644488
H84	H	-0.763348	1.507225	0.748627
H85	H	-0.858195	1.617665	0.738861
H86	H	-0.858450	1.521546	0.675185
H87	H	-0.621585	1.724955	0.565974
