data_functionalizedCrystal
_audit_creation_method	'MofGen! by Chris Wilmer'
_symmetry_space_group_name_H-M	'P1'
_symmetry_Int_Tables_number	1
_symmetry_cell_setting	triclinic
loop_
_symmetry_equiv_pos_as_xyz
  x,y,z
_cell_length_a	6.817900
_cell_length_b	13.923258
_cell_length_c	10.773890
_cell_angle_alpha	82.678469
_cell_angle_beta	96.645716
_cell_angle_gamma	81.871755
loop_
_atom_site_label
_atom_site_type_symbol
_atom_site_fract_x
_atom_site_fract_y
_atom_site_fract_z
V1	V	-3.933311	0.301207	-0.175213
O2	O	-3.957737	0.297101	0.005711
O3	O	-3.851677	0.297581	-0.344813
O4	O	-3.859569	0.433288	-0.173707
O5	O	-3.949790	0.160455	-0.166580
V6	V	-4.424529	0.284562	-0.153432
O7	O	-4.177690	0.337719	-0.222992
O8	O	-4.630348	0.248050	-0.105654
O9	O	-4.282956	0.288188	0.016168
O10	O	-4.517500	0.288668	-0.334356
O11	O	-4.525447	0.425314	-0.162065
O12	O	-4.275064	0.152481	-0.154939
C13	C	-3.689413	0.292426	-0.386121
C14	C	-3.703786	0.290342	-0.524778
C15	C	-3.881166	0.293963	-0.592673
C16	C	-3.896025	0.291809	-0.735983
C17	C	-4.098496	0.120232	-0.160793
C18	C	-4.056964	0.012265	-0.160897
C19	C	-3.980928	-0.185388	-0.161296
C20	C	-3.796293	-0.228856	-0.167346
C21	C	-3.753983	-0.338836	-0.167569
C22	C	-4.023247	-0.075397	-0.161074
C23	C	-3.699480	0.465532	-0.167856
C24	C	-3.720252	0.573498	-0.167746
C25	C	-4.108562	0.293341	0.057469
C26	C	-4.073425	0.295431	0.196125
H27	H	-3.755152	0.287119	-0.783949
H28	H	-3.669998	-0.183472	-0.172357
H29	H	-4.107212	-0.230768	-0.156285
H30	H	-4.214302	0.300130	-0.755913
Cl31	Cl	-4.098660	0.301218	-0.518624
Cl32	Cl	-3.486296	0.283101	-0.598831
