data_functionalizedCrystal
_audit_creation_method	'MofGen! by Chris Wilmer'
_symmetry_space_group_name_H-M	'P1'
_symmetry_Int_Tables_number	1
_symmetry_cell_setting	triclinic
loop_
_symmetry_equiv_pos_as_xyz
  x,y,z
_cell_length_a	6.817900
_cell_length_b	11.168121
_cell_length_c	16.255661
_cell_angle_alpha	93.883604
_cell_angle_beta	103.488922
_cell_angle_gamma	108.508496
loop_
_atom_site_label
_atom_site_type_symbol
_atom_site_fract_x
_atom_site_fract_y
_atom_site_fract_z
V1	V	-4.052428	-0.175725	-0.263878
O2	O	-4.013108	0.007395	-0.258848
O3	O	-4.029107	-0.347423	-0.262080
O4	O	-4.003662	-0.173482	-0.378961
O5	O	-4.038730	-0.167750	-0.141158
V6	V	-4.532854	-0.153767	-0.249199
O7	O	-4.320481	-0.223890	-0.296078
O8	O	-4.714999	-0.105601	-0.216999
O9	O	-4.332969	0.017931	-0.250997
O10	O	-4.689571	-0.336886	-0.254229
O11	O	-4.663950	-0.161741	-0.371919
O12	O	-4.358414	-0.156010	-0.134116
C13	C	-3.880221	-0.389265	-0.257919
C14	C	-3.942438	-0.529634	-0.257217
C15	C	-4.144141	-0.598340	-0.260917
C16	C	-4.208449	-0.743419	-0.260191
C17	C	-3.847762	-0.167385	-0.407012
C18	C	-3.889340	-0.166687	-0.501093
C19	C	-3.798677	-0.158357	-0.723911
C20	C	-3.970827	-0.265869	-0.793392
C21	C	-3.965533	-0.165380	-0.673341
C22	C	-3.867493	-0.056637	-0.771498
C23	C	-4.039115	-0.164111	-0.839725
C24	C	-4.137179	-0.272987	-0.741592
C25	C	-4.033769	-0.063661	-0.719683
C26	C	-4.206060	-0.171203	-0.789144
C27	C	-3.923139	-0.166112	-0.577492
C28	C	-4.081528	-0.163389	-0.935573
C29	C	-4.145198	0.059767	-0.255155
C30	C	-4.062220	0.200134	-0.255864
C31	C	-4.177657	-0.162111	-0.106061
C32	C	-4.115317	-0.162802	-0.011979
H33	H	-3.626149	-0.153065	-0.695430
O34	O	-4.064534	0.038376	-0.681253
C35	C	-3.907760	0.229986	-0.576970
C36	C	-3.872681	0.114456	-0.620413
H37	H	-3.752662	0.291543	-0.527785
H38	H	-4.040609	0.194947	-0.543640
H39	H	-3.955959	0.289045	-0.627377
H40	H	-3.824400	0.055349	-0.570061
H41	H	-3.739893	0.149580	-0.653762
O42	O	-4.293204	-0.540295	-0.265185
C43	C	-4.398431	-0.381202	-0.197189
C44	C	-4.229473	-0.446851	-0.192240
H45	H	-4.346944	-0.305620	-0.138230
H46	H	-4.560329	-0.455424	-0.199808
H47	H	-4.413036	-0.333900	-0.257235
H48	H	-4.214677	-0.494150	-0.132199
H49	H	-4.067665	-0.372575	-0.189667
H50	H	-3.889421	-0.740810	-0.252693
O51	O	-3.939808	-0.367817	-0.831825
C52	C	-3.946187	-0.481874	-0.964226
C53	C	-3.981464	-0.366391	-0.920819
H54	H	-3.979807	-0.480745	-1.036182
H55	H	-4.059552	-0.574032	-0.951378
H56	H	-3.772918	-0.476289	-0.937236
H57	H	-4.154669	-0.371853	-0.947783
H58	H	-3.867966	-0.274282	-0.933662
O59	O	-3.793200	-0.587603	-0.252644
C60	C	-3.606420	-0.711854	-0.173368
C61	C	-3.775452	-0.646241	-0.178432
H62	H	-3.592049	-0.759303	-0.113382
H63	H	-3.444465	-0.637601	-0.170637
H64	H	-3.657724	-0.787315	-0.232382
H65	H	-3.724350	-0.570787	-0.119433
H66	H	-3.937366	-0.720569	-0.181205
H67	H	-4.250790	-0.364520	-0.728129
H68	H	-3.753881	0.034772	-0.785104
O69	O	-4.414464	-0.813973	-0.263848
C70	C	-4.651949	-0.953021	-0.194304
C71	C	-4.418530	-0.873193	-0.190065
H72	H	-4.655318	-1.000899	-0.134649
H73	H	-4.721347	-1.029247	-0.253663
H74	H	-4.752013	-0.887929	-0.197715
H75	H	-4.318294	-0.938182	-0.186622
H76	H	-4.349302	-0.796954	-0.130715
H77	H	-4.378731	-0.176663	-0.817491
