data_functionalizedCrystal
_audit_creation_method	'MofGen! by Chris Wilmer'
_symmetry_space_group_name_H-M	'P1'
_symmetry_Int_Tables_number	1
_symmetry_cell_setting	triclinic
loop_
_symmetry_equiv_pos_as_xyz
  x,y,z
_cell_length_a	14.853567
_cell_length_b	16.098538
_cell_length_c	14.853567
_cell_angle_alpha	87.269523
_cell_angle_beta	83.634930
_cell_angle_gamma	92.739541
loop_
_atom_site_label
_atom_site_type_symbol
_atom_site_fract_x
_atom_site_fract_y
_atom_site_fract_z
O1	O	1.200393	0.069192	0.113684
O2	O	0.937934	0.069205	0.127705
O3	O	1.076174	0.069201	-0.010536
O4	O	1.062153	0.069196	0.251924
O5	O	1.068099	-0.069312	-0.002492
O6	O	0.929859	-0.069308	0.135748
O7	O	1.192317	-0.069321	0.121728
Zn8	Zn	1.059806	-0.091306	0.130015
Zn9	Zn	1.070445	0.091190	0.119417
O10	O	1.054077	-0.069316	0.259968
C11	C	0.900308	-0.000049	0.131091
C12	C	0.800224	-0.000044	0.129187
N13	N	1.052551	-0.215855	0.137247
C14	C	0.387689	-0.000061	0.039022
C15	C	0.366408	-0.000063	0.203255
C16	C	0.460442	-0.000060	0.205045
C17	C	0.518104	-0.000057	0.123822
C18	C	0.481733	-0.000056	0.040809
C19	C	0.496822	-0.000053	0.288056
C20	C	0.590861	-0.000049	0.289849
C21	C	0.648525	-0.000052	0.208626
C22	C	0.612147	-0.000052	0.125610
C23	C	0.669809	-0.000048	0.044387
C24	C	0.633434	-0.000054	-0.038630
C25	C	0.539396	-0.000058	-0.040414
C26	C	0.742562	-0.000047	0.210410
C27	C	0.763853	-0.000043	0.046174
C28	C	1.111247	-0.259442	0.078593
C29	C	1.106181	-0.346631	0.083661
C30	C	1.042422	-0.390231	0.147388
C31	C	0.983719	-0.346638	0.206044
C32	C	0.988782	-0.259451	0.200971
C33	C	1.024068	-0.653481	0.165761
C34	C	1.019011	-0.740674	0.170832
C35	C	1.141472	-0.740661	0.048447
C36	C	1.146533	-0.653472	0.043383
C37	C	1.087827	-0.609886	0.102037
C38	C	1.037243	-0.479352	0.152571
C39	C	1.093002	-0.520767	0.096848
C40	C	1.229944	-0.000065	0.118341
C41	C	1.330027	-0.000065	0.120245
C42	C	1.071501	-0.000053	-0.040103
C43	C	1.069598	-0.000046	-0.140187
N44	N	1.077707	0.215739	0.112178
C45	C	0.979432	-0.000057	-0.552720
C46	C	1.143664	-0.000066	-0.574000
C47	C	1.145454	-0.000061	-0.479967
C48	C	1.064232	-0.000055	-0.422305
C49	C	0.981219	-0.000055	-0.458677
C50	C	1.228465	-0.000070	-0.443587
C51	C	1.230259	-0.000066	-0.349549
C52	C	1.149036	-0.000055	-0.291886
C53	C	1.066020	-0.000053	-0.328263
C54	C	0.984797	-0.000048	-0.270601
C55	C	0.901781	-0.000040	-0.306977
C56	C	0.899996	-0.000044	-0.401014
C57	C	1.150820	-0.000051	-0.197848
C58	C	0.986585	-0.000046	-0.176559
C59	C	1.058750	-0.000061	0.289535
C60	C	1.060654	-0.000063	0.389619
H61	H	0.810796	-0.000043	-0.019968
O62	O	1.231261	-0.000077	-0.636192
H63	H	1.289284	-0.000084	-0.595099
O64	O	1.204781	-0.787668	-0.014821
H65	H	1.190547	-0.855620	-0.000596
O66	O	1.240347	-0.000054	-0.158610
H67	H	1.296525	-0.000055	-0.214504
O68	O	1.319797	-0.000054	-0.310324
H69	H	1.355549	-0.056506	-0.330197
H70	H	0.967088	-0.776169	0.222729
H71	H	0.449868	-0.000047	0.354182
O72	O	0.914958	-0.393661	0.274787
H73	H	0.845635	-0.376950	0.262200
H74	H	0.985331	-0.514859	0.204460
H75	H	0.911842	-0.000048	-0.582342
H76	H	0.920443	-0.000038	-0.129616
H77	H	0.680395	-0.000046	-0.104762
H78	H	0.976269	-0.618000	0.213521
O79	O	0.925461	-0.212447	0.264233
H80	H	0.883902	-0.172749	0.223882
H81	H	1.144912	-0.485265	0.044959
H82	H	0.620470	-0.000044	0.357446
H83	H	0.509769	-0.000083	-0.108001
H84	H	0.835650	-0.000042	-0.260016
H85	H	1.294591	-0.000082	-0.490541
O86	O	0.304223	-0.000062	0.290857
H87	H	0.313889	-0.056515	0.333856
O88	O	0.810467	-0.000048	-0.440256
H89	H	0.774723	0.056413	-0.420401
H90	H	0.772175	-0.000044	0.278000
O91	O	1.180013	-0.212417	0.009856
H92	H	1.219969	-0.257377	-0.030085
O93	O	1.169504	-0.393646	0.020416
H94	H	1.214703	-0.348680	-0.024736
O95	O	0.348466	-0.000069	-0.050516
H96	H	0.273388	-0.000071	-0.038119
H97	H	1.198451	-0.617974	-0.008508
