data_functionalizedCrystal
_audit_creation_method	'MofGen! by Chris Wilmer'
_symmetry_space_group_name_H-M	'P1'
_symmetry_Int_Tables_number	1
_symmetry_cell_setting	triclinic
loop_
_symmetry_equiv_pos_as_xyz
  x,y,z
_cell_length_a	17.077404
_cell_length_b	25.639240
_cell_length_c	25.639243
_cell_angle_alpha	89.991185
_cell_angle_beta	90.006570
_cell_angle_gamma	89.961452
loop_
_atom_site_label
_atom_site_type_symbol
_atom_site_fract_x
_atom_site_fract_y
_atom_site_fract_z
Zn1	Zn	1.199842	0.208341	0.295615
Zn2	Zn	1.199732	0.295741	0.208176
Zn3	Zn	1.068604	0.208315	0.208192
Zn4	Zn	1.068495	0.295740	0.295579
O5	O	1.134168	0.252034	0.251890
O6	O	1.309674	0.219946	0.284024
O7	O	1.182338	0.284133	0.135013
O8	O	1.086104	0.135153	0.219811
O9	O	1.309594	0.284159	0.219783
O10	O	1.182524	0.135172	0.284040
O11	O	1.085998	0.219901	0.135025
O12	O	0.958742	0.219900	0.219776
O13	O	1.085918	0.284157	0.368749
O14	O	0.958662	0.284131	0.283979
O15	O	1.182418	0.219945	0.368775
O16	O	1.182232	0.368906	0.219749
O17	O	1.085813	0.368905	0.283963
C18	C	0.930220	0.252013	0.251875
C19	C	0.842970	0.252017	0.251881
C20	C	1.134020	0.387877	0.251862
C21	C	1.134029	0.445991	0.251867
C22	C	0.467135	0.285554	0.285283
C23	C	0.549115	0.285547	0.285275
C24	C	0.590122	0.252048	0.251899
C25	C	0.549143	0.218557	0.218524
C26	C	0.467164	0.218567	0.218530
C27	C	0.720013	0.218538	0.218516
C28	C	0.801998	0.218527	0.218510
C29	C	0.801964	0.285518	0.285261
C30	C	0.719986	0.285528	0.285267
C31	C	0.679013	0.252036	0.251893
C32	C	1.184440	0.806342	0.218491
C33	C	1.184464	0.860946	0.218496
O34	O	1.227221	0.889172	0.190102
N35	N	1.134231	0.888273	0.251902
C36	C	1.083977	0.860993	0.285309
O37	O	1.041254	0.889251	0.313725
C38	C	1.083958	0.806390	0.285306
C39	C	1.134188	0.779066	0.251894
C40	C	1.234666	0.779017	0.185082
C41	C	1.234641	0.724417	0.185076
C42	C	1.184389	0.697141	0.218480
C43	C	1.134163	0.724465	0.251889
C44	C	1.033708	0.779111	0.318716
C45	C	1.033694	0.724504	0.318710
C46	C	1.083924	0.697180	0.285298
C47	C	1.083886	0.642588	0.285287
N48	N	1.134118	0.615261	0.251880
C49	C	1.184370	0.642537	0.218477
C50	C	1.084023	0.975664	0.285313
C51	C	1.084038	1.030266	0.285314
C52	C	1.184526	1.030215	0.218501
C53	C	1.184506	0.975612	0.218498
C54	C	1.134255	0.948337	0.251907
C55	C	1.184313	0.527872	0.218467
C56	C	1.184281	0.473267	0.218463
C57	C	1.083796	0.473323	0.285278
C58	C	1.083825	0.527923	0.285280
C59	C	1.134089	0.555197	0.251873
O60	O	1.041153	0.614327	0.313667
O61	O	1.227094	0.614273	0.190071
C62	C	1.338912	0.252056	0.251906
C63	C	1.426162	0.252065	0.251912
C64	C	1.134168	0.252054	0.388263
C65	C	1.134169	0.252062	0.446377
C66	C	1.134309	1.115661	0.251922
C67	C	1.134293	1.057547	0.251912
C68	C	1.184413	0.218603	0.806760
C69	C	1.184413	0.218600	0.861364
O70	O	1.227121	0.190155	0.889617
N71	N	1.134174	0.252032	0.888660
C72	C	1.083926	0.285465	0.861349
O73	O	1.041193	0.313901	0.889580
C74	C	1.083923	0.285465	0.806745
C75	C	1.134171	0.252035	0.779452
C76	C	1.234657	0.185175	0.779467
C77	C	1.234658	0.185179	0.724866
C78	C	1.184416	0.218611	0.697559
C79	C	1.134172	0.252039	0.724852
C80	C	1.033672	0.318896	0.779435
C81	C	1.033672	0.318893	0.724828
C82	C	1.083921	0.285462	0.697535
C83	C	1.083931	0.285475	0.642944
N84	N	1.134170	0.252043	0.615648
C85	C	1.184413	0.218611	0.642955
C86	C	1.083935	0.285462	0.976019
C87	C	1.083941	0.285465	1.030622
C88	C	1.184428	0.218599	1.030633
C89	C	1.184425	0.218599	0.976030
C90	C	1.134174	0.252030	0.948723
C91	C	1.184412	0.218621	0.528290
C92	C	1.184411	0.218630	0.473685
C93	C	1.083922	0.285494	0.473678
C94	C	1.083925	0.285488	0.528279
C95	C	1.134173	0.252047	0.555583
O96	O	1.041243	0.313903	0.614656
O97	O	1.227131	0.190175	0.614718
C98	C	1.134167	0.252030	1.116048
C99	C	1.134181	0.252031	1.057934
H100	H	0.433754	0.312830	0.312465
H101	H	1.275574	0.157955	0.702649
H102	H	0.686655	0.191265	0.191340
C103	C	0.641327	0.211163	0.148207
C104	C	0.594220	0.181735	0.181836
H105	H	0.669158	0.188429	0.125560
H106	H	0.609323	0.233906	0.128167
H107	H	0.677457	0.231105	0.168088
H108	H	0.558085	0.161796	0.161955
H109	H	0.626226	0.158983	0.201878
H110	H	0.433805	0.191295	0.191357
C111	C	0.927682	0.188770	0.188870
C112	C	0.847075	0.181707	0.181821
H113	H	0.955509	0.166035	0.166221
H114	H	0.941083	0.223881	0.181153
H115	H	0.941121	0.181173	0.224014
H116	H	0.833634	0.189307	0.146677
H117	H	0.833668	0.146588	0.189534
H118	H	0.582472	0.312819	0.312448
C119	C	1.072989	0.914257	0.355640
C120	C	1.028774	0.945685	0.322035
H121	H	1.038880	0.895755	0.378312
H122	H	1.102891	0.890166	0.335747
H123	H	1.107172	0.935538	0.375659
H124	H	0.994594	0.924404	0.302013
H125	H	0.998859	0.969779	0.341930
C126	C	1.283616	0.478710	0.152422
C127	C	1.239501	0.443233	0.181736
H128	H	1.317708	0.460168	0.129753
H129	H	1.249448	0.500032	0.132405
H130	H	1.313619	0.499983	0.175230
H131	H	1.209492	0.421962	0.158928
H132	H	1.273672	0.421901	0.201755
H133	H	1.043018	0.312715	0.451434
C134	C	1.289971	0.589188	0.211274
C135	C	1.239576	0.557840	0.181750
H136	H	1.324091	0.607684	0.188605
H137	H	1.260066	0.613285	0.231159
H138	H	1.319941	0.567854	0.234075
H139	H	1.209601	0.579175	0.158951
H140	H	1.269483	0.533741	0.161856
H141	H	1.275570	0.157947	0.801695
C142	C	0.984623	0.351567	0.981501
C143	C	1.028709	0.322223	0.946006
H144	H	0.950535	0.374264	0.962973
H145	H	0.954624	0.328784	1.002796
H146	H	1.018815	0.371562	1.002800
H147	H	0.994517	0.302226	0.924709
H148	H	1.058711	0.345010	0.924703
C149	C	1.290017	0.211359	0.589698
C150	C	1.239646	0.181866	0.558300
H151	H	1.324114	0.188668	0.608226
H152	H	1.320007	0.234141	0.568396
H153	H	1.260088	0.231262	0.613770
H154	H	1.269575	0.161966	0.534225
H155	H	1.209653	0.159075	0.579604
H156	H	1.043017	0.312714	0.550502
H157	H	1.225336	0.191375	1.052877
C158	C	0.728183	0.351751	0.351241
C159	C	0.674910	0.322353	0.321952
H160	H	0.700353	0.374488	0.373885
H161	H	0.760177	0.329004	0.371284
H162	H	0.760139	0.371704	0.328416
H163	H	0.642957	0.302396	0.344777
H164	H	0.642902	0.345103	0.301908
C165	C	1.333980	0.729868	0.119045
C166	C	1.289868	0.694387	0.148356
H167	H	1.368082	0.711330	0.096379
H168	H	1.299811	0.751187	0.099025
H169	H	1.363973	0.751145	0.141856
H170	H	1.259870	0.673112	0.125546
H171	H	1.324041	0.673059	0.168378
H172	H	1.225332	0.191406	0.451466
H173	H	0.835329	0.312787	0.312437
C174	C	0.934329	0.384974	0.773915
C175	C	0.978429	0.355640	0.809426
H176	H	0.900218	0.407656	0.792431
H177	H	0.968505	0.404979	0.752622
H178	H	0.904346	0.362180	0.752616
H179	H	1.008417	0.378434	0.830723
H180	H	0.944248	0.335633	0.830728
H181	H	1.042926	0.550172	0.312489
C182	C	1.072950	0.355803	1.092008
C183	C	1.028717	0.322222	1.060616
H184	H	1.038853	0.378497	1.110520
H185	H	1.102857	0.335893	1.116090
H186	H	1.107130	0.375799	1.070700
H187	H	0.994542	0.302223	1.081924
H188	H	0.998797	0.342134	1.036531
C189	C	1.340356	0.840307	0.177920
C190	C	1.289964	0.808972	0.148379
H191	H	1.374513	0.858788	0.155263
H192	H	1.310452	0.864417	0.197789
H193	H	1.370288	0.818965	0.200737
H194	H	1.260028	0.830315	0.125565
H195	H	1.319871	0.784860	0.128501
H196	H	1.225408	0.953368	0.191291
H197	H	1.225340	0.191376	0.953812
C198	C	1.022678	0.389223	0.663413
C199	C	0.978442	0.355643	0.694808
H200	H	0.988582	0.411908	0.644878
H201	H	1.056844	0.409223	0.684716
H202	H	1.052599	0.369307	0.639346
H203	H	0.948525	0.375559	0.718878
H204	H	0.944262	0.335641	0.673503
C205	C	1.229272	1.113901	0.188913
C206	C	1.239835	1.060204	0.181829
H207	H	1.263438	1.132414	0.166289
H208	H	1.176571	1.122902	0.181186
H209	H	1.240656	1.122802	0.224068
H210	H	1.228445	1.051302	0.146675
H211	H	1.292548	1.051200	0.189552
H212	H	1.043128	1.052509	0.312516
H213	H	0.992802	0.801349	0.345921
H214	H	0.992774	0.702299	0.345918
H215	H	1.042879	0.451106	0.312473
