data_functionalizedCrystal
_audit_creation_method	'MofGen! by Chris Wilmer'
_symmetry_space_group_name_H-M	'P1'
_symmetry_Int_Tables_number	1
_symmetry_cell_setting	triclinic
loop_
_symmetry_equiv_pos_as_xyz
  x,y,z
_cell_length_a	23.532407
_cell_length_b	23.532407
_cell_length_c	22.010155
_cell_angle_alpha	89.999577
_cell_angle_beta	89.996931
_cell_angle_gamma	82.848678
loop_
_atom_site_label
_atom_site_type_symbol
_atom_site_fract_x
_atom_site_fract_y
_atom_site_fract_z
O1	O	0.755264	0.069127	-0.050455
O2	O	0.589400	0.079130	-0.050474
O3	O	0.677334	-0.008803	-0.050453
O4	O	0.667330	0.157060	-0.050476
O5	O	0.677318	-0.008790	0.050597
O6	O	0.589384	0.079143	0.050576
O7	O	0.755248	0.069140	0.050595
Cu8	Cu	0.672315	0.074143	0.059812
Cu9	Cu	0.672333	0.074127	-0.059691
O10	O	0.667314	0.157073	0.050574
C11	C	0.568176	0.078882	0.000049
C12	C	0.504959	0.078116	0.000042
C13	C	0.677071	-0.030013	0.000074
C14	C	0.676305	-0.093230	0.000078
C15	C	0.105856	0.125350	0.000063
C16	C	0.046456	0.124638	0.000067
O17	O	0.009711	0.168424	0.000083
N18	N	0.023830	0.072362	0.000073
C19	C	0.060607	0.020794	0.000082
O20	O	0.035908	-0.023737	0.000088
C21	C	0.120006	0.021506	0.000082
C22	C	0.142629	0.073785	0.000070
C23	C	0.128479	0.177625	0.000051
C24	C	0.187876	0.178336	0.000046
C25	C	0.224649	0.126772	0.000053
C26	C	0.202025	0.074497	0.000065
C27	C	0.156783	-0.030062	0.000096
C28	C	0.216185	-0.029345	0.000097
C29	C	0.238808	0.022934	0.000084
C30	C	0.298194	0.023643	0.000067
N31	N	0.320820	0.075920	0.000061
C32	C	0.284048	0.127484	0.000054
C33	C	-0.064135	0.019302	0.000082
C34	C	-0.123533	0.018589	0.000077
C35	C	-0.137680	0.122434	0.000063
C36	C	-0.078281	0.123146	0.000064
C37	C	-0.041509	0.071578	0.000076
C38	C	0.408784	0.128974	0.000043
C39	C	0.468186	0.129680	0.000035
C40	C	0.482329	0.025836	0.000052
C41	C	0.422932	0.025129	0.000057
C42	C	0.386160	0.076702	0.000054
O43	O	0.334974	-0.020119	0.000054
O44	O	0.308755	0.172007	0.000055
C45	C	0.723539	-0.492333	0.000050
C46	C	0.722827	-0.551733	0.000046
O47	O	0.766613	-0.588478	0.000028
N48	N	0.670551	-0.574359	0.000040
C49	C	0.618983	-0.537582	0.000033
O50	O	0.574452	-0.562281	0.000027
C51	C	0.619695	-0.478182	0.000033
C52	C	0.671974	-0.455560	0.000045
C53	C	0.775814	-0.469710	0.000061
C54	C	0.776525	-0.410313	0.000067
C55	C	0.724961	-0.373540	0.000062
C56	C	0.672685	-0.396164	0.000051
C57	C	0.568127	-0.441406	0.000022
C58	C	0.568844	-0.382004	0.000022
C59	C	0.621123	-0.359381	0.000034
C60	C	0.621832	-0.299995	0.000052
N61	N	0.674109	-0.277368	0.000057
C62	C	0.725673	-0.314141	0.000062
C63	C	0.617491	-0.662324	0.000031
C64	C	0.616778	-0.721722	0.000035
C65	C	0.720623	-0.735869	0.000047
C66	C	0.721335	-0.676470	0.000047
C67	C	0.669767	-0.639698	0.000037
C68	C	0.727163	-0.189405	0.000075
C69	C	0.727869	-0.130003	0.000083
C70	C	0.624025	-0.115860	0.000069
C71	C	0.623318	-0.175257	0.000064
C72	C	0.674891	-0.212029	0.000065
O73	O	0.578070	-0.263215	0.000067
O74	O	0.770196	-0.289433	0.000060
C75	C	0.776472	0.069388	0.000071
C76	C	0.839689	0.070154	0.000073
C77	C	0.667577	0.178283	0.000046
C78	C	0.668343	0.241500	0.000037
N79	N	0.672305	0.074153	0.143865
N80	N	0.672347	0.074112	-0.143744
C81	C	0.711273	0.035196	0.563653
C82	C	0.711275	0.035192	0.627261
O83	O	0.744384	0.002076	0.660160
N84	N	0.672333	0.074115	0.659072
C85	C	0.633382	0.113041	0.627272
O86	O	0.600259	0.146148	0.660170
C87	C	0.633377	0.113042	0.563665
C88	C	0.672326	0.074120	0.531858
C89	C	0.750217	-0.003723	0.531846
C90	C	0.750215	-0.003719	0.468243
C91	C	0.711268	0.035205	0.436447
C92	C	0.672324	0.074125	0.468255
C93	C	0.594424	0.151965	0.531866
C94	C	0.594422	0.151962	0.468256
C95	C	0.633370	0.113040	0.436448
C96	C	0.633374	0.113054	0.372856
N97	N	0.672317	0.074130	0.341045
C98	C	0.711263	0.035206	0.372841
C99	C	0.633395	0.113036	0.760850
C100	C	0.633402	0.113039	0.824455
C101	C	0.711294	0.035188	0.824440
C102	C	0.711290	0.035189	0.760833
C103	C	0.672337	0.074113	0.729039
C104	C	0.711256	0.035220	0.239269
C105	C	0.711252	0.035229	0.175660
C106	C	0.633358	0.113077	0.175681
C107	C	0.633364	0.113070	0.239284
C108	C	0.672315	0.074136	0.271077
O109	O	0.600282	0.146151	0.339916
O110	O	0.744376	0.002100	0.339935
H111	H	0.486602	0.172255	0.000025
H112	H	0.601654	0.144769	0.265183
O113	O	0.778707	-0.108123	0.000065
C114	C	0.824064	-0.153322	0.000081
H115	H	0.808335	-0.193587	-0.019055
H116	H	0.860588	-0.141108	-0.029251
H117	H	0.839946	-0.161818	0.048561
O118	O	0.401018	-0.025689	-0.000019
C119	C	0.419821	-0.057102	-0.052359
H120	H	0.460936	-0.041825	-0.069816
H121	H	0.428326	-0.104575	-0.040583
H122	H	0.385407	-0.050309	-0.089002
O123	O	0.770729	-0.771574	0.000153
C124	C	0.802495	-0.761364	0.052482
H125	H	0.772311	-0.740893	0.089062
H126	H	0.825570	-0.803641	0.070046
H127	H	0.835289	-0.731302	0.040654
O128	O	0.518712	-0.346341	-0.000068
C129	C	0.486970	-0.356541	-0.052417
H130	H	0.501223	-0.401679	-0.069866
H131	H	0.439444	-0.352104	-0.040656
H132	H	0.494574	-0.324089	-0.089060
O133	O	-0.145410	-0.032245	0.000109
C134	C	-0.100209	-0.077600	0.000097
H135	H	-0.059944	-0.061864	0.019223
H136	H	-0.112418	-0.114118	0.029441
H137	H	-0.091715	-0.093494	-0.048380
H138	H	-0.034198	-0.022693	0.000086
O139	O	0.572485	-0.197142	0.000028
C140	C	0.527126	-0.151944	0.000042
H141	H	0.542861	-0.111674	-0.019075
H142	H	0.490613	-0.164152	-0.029307
H143	H	0.511225	-0.143460	0.048519
H144	H	0.743006	0.003493	0.850339
O145	O	0.749109	-0.002638	0.144857
C146	C	0.783492	-0.036985	0.186566
H147	H	0.760146	-0.037510	0.231908
H148	H	0.792440	-0.082511	0.168187
H149	H	0.825692	-0.018707	0.193329
O150	O	0.749028	-0.002675	0.729889
C151	C	0.718702	-0.037667	0.693141
H152	H	0.674024	-0.014731	0.683596
H153	H	0.742521	-0.046849	0.648419
H154	H	0.715038	-0.079714	0.717691
H155	H	-0.059867	0.165717	0.000057
H156	H	0.817806	-0.499645	0.000063
O157	O	0.595493	0.150795	0.855322
C158	C	0.539173	0.141832	0.839767
H159	H	0.539156	0.096234	0.822283
H160	H	0.510552	0.148528	0.881597
H161	H	0.522268	0.173483	0.802845
H162	H	0.574207	-0.740136	0.000036
O163	O	0.567432	-0.626547	0.000111
C164	C	0.564718	-0.591776	0.052454
H165	H	0.609902	-0.589014	0.069906
H166	H	0.543240	-0.547014	0.040683
H167	H	0.538821	-0.611181	0.089098
O168	O	0.827275	-0.388276	-0.000011
C169	C	0.830811	-0.354355	-0.052354
H170	H	0.785840	-0.339304	-0.069802
H171	H	0.853295	-0.315586	-0.040584
H172	H	0.856156	-0.380744	-0.089000
H173	H	0.562708	0.183658	0.557755
O174	O	-0.173489	0.172473	0.000086
C175	C	-0.230765	0.160628	0.000074
H176	H	-0.232791	0.115910	0.019211
H177	H	-0.257864	0.193518	0.029408
H178	H	-0.247955	0.162880	-0.048404
H179	H	0.098544	0.219617	0.000048
O180	O	0.373151	0.179124	0.000009
C181	C	0.405867	0.225410	0.000011
H182	H	0.450283	0.210684	-0.019117
H183	H	0.383764	0.261514	-0.029335
H184	H	0.410009	0.241460	0.048486
H185	H	0.246123	-0.071339	0.000107
O186	O	0.573990	-0.080053	0.000036
C187	C	0.585835	-0.022777	0.000056
H188	H	0.630560	-0.020751	-0.019065
H189	H	0.552957	0.004321	-0.029289
H190	H	0.583566	-0.005585	0.048535
H191	H	0.601676	0.144737	0.734966
H192	H	0.525555	-0.459814	0.000009
H193	H	0.742973	0.003516	0.265148
H194	H	0.763906	-0.658056	0.000056
H195	H	0.206289	0.220908	0.000036
O196	O	0.788067	-0.041588	0.437444
C197	C	0.822447	-0.075931	0.479157
H198	H	0.799100	-0.076448	0.524499
H199	H	0.831391	-0.121460	0.460786
H200	H	0.864648	-0.057656	0.485918
O201	O	0.556562	0.189831	0.437466
C202	C	0.522180	0.224170	0.479185
H203	H	0.545529	0.224690	0.524523
H204	H	0.513229	0.269699	0.460814
H205	H	0.479982	0.205889	0.485953
O206	O	0.788078	-0.041458	0.562793
C207	C	0.823053	-0.011137	0.599566
H208	H	0.800116	0.033541	0.609108
H209	H	0.832212	-0.034960	0.644288
H210	H	0.865113	-0.007474	0.575038
O211	O	0.595603	0.150908	0.144721
C212	C	0.625897	0.185900	0.107934
H213	H	0.670592	0.162996	0.098407
H214	H	0.602076	0.195022	0.063206
H215	H	0.629518	0.227977	0.132443
O216	O	0.134886	-0.080884	0.000032
C217	C	0.153702	-0.112302	-0.052302
H218	H	0.194812	-0.097015	-0.069759
H219	H	0.162219	-0.159772	-0.040516
H220	H	0.119290	-0.105524	-0.088948
O221	O	0.777223	-0.225176	0.000160
C222	C	0.779920	-0.259950	0.052501
H223	H	0.734731	-0.262715	0.069939
H224	H	0.801405	-0.304711	0.040732
H225	H	0.805804	-0.240546	0.089154
H226	H	0.512280	-0.016146	0.000056
