data_functionalizedCrystal
_audit_creation_method	'MofGen! by Chris Wilmer'
_symmetry_space_group_name_H-M	'P1'
_symmetry_Int_Tables_number	1
_symmetry_cell_setting	triclinic
loop_
_symmetry_equiv_pos_as_xyz
  x,y,z
_cell_length_a	21.295417
_cell_length_b	12.759401
_cell_length_c	12.759393
_cell_angle_alpha	89.981425
_cell_angle_beta	89.960780
_cell_angle_gamma	90.030933
loop_
_atom_site_label
_atom_site_type_symbol
_atom_site_fract_x
_atom_site_fract_y
_atom_site_fract_z
Zn1	Zn	-0.250565	1.606140	-0.593929
Zn2	Zn	0.249435	2.106140	-0.093929
Zn3	Zn	-0.355849	1.605986	-0.418226
Zn4	Zn	0.144151	2.105986	0.081774
Zn5	Zn	-0.250598	1.430442	-0.418268
Zn6	Zn	0.249402	1.930442	0.081732
Zn7	Zn	-0.355801	1.430382	-0.593867
Zn8	Zn	0.144199	1.930382	-0.093867
O9	O	-0.303203	1.518237	-0.506073
O10	O	0.196797	2.018237	-0.006073
O11	O	-0.264537	1.753140	-0.570630
O12	O	0.235463	2.253140	-0.070630
O13	O	-0.341921	1.582660	-0.271210
O14	O	0.158079	2.082660	0.228790
O15	O	-0.162504	1.453838	-0.441614
O16	O	0.337496	1.953838	0.058386
O17	O	-0.341889	1.753027	-0.441542
O18	O	0.158111	2.253027	0.058458
O19	O	-0.162480	1.582922	-0.570671
O20	O	0.337520	2.082922	-0.070671
O21	O	-0.264594	1.453689	-0.271242
O22	O	0.235406	1.953689	0.228758
O23	O	-0.264547	1.283413	-0.441553
O24	O	0.235453	1.783413	0.058447
O25	O	-0.341807	1.453736	-0.740896
O26	O	0.158193	1.953736	-0.240896
O27	O	-0.341839	1.283369	-0.570565
O28	O	0.158161	1.783369	-0.070565
O29	O	-0.264490	1.582864	-0.740942
O30	O	0.235510	2.082864	-0.240942
O31	O	-0.443932	1.582602	-0.441482
O32	O	0.056068	2.082602	0.058518
O33	O	-0.443896	1.453586	-0.570524
O34	O	0.056104	1.953586	-0.070524
C35	C	-0.303192	1.245270	-0.506058
C36	C	0.196808	1.745270	-0.006058
C37	C	-0.303203	1.128493	-0.506076
C38	C	0.196797	1.628493	-0.006076
C39	C	-0.262998	1.073691	-0.573396
C40	C	0.237002	1.573691	-0.073396
C41	C	-0.263005	0.963967	-0.573403
C42	C	0.236995	1.463967	-0.073403
C43	C	-0.343425	0.963857	-0.438767
C44	C	0.156575	1.463857	0.061233
C45	C	-0.343415	1.073579	-0.438756
C46	C	0.156585	1.573579	0.061244
C47	C	-0.188806	0.814080	-0.611188
C48	C	0.311194	1.314080	-0.111188
C49	C	-0.148607	0.759274	-0.678524
C50	C	0.351393	1.259274	-0.178524
C51	C	-0.139012	0.794935	-0.781065
C52	C	0.360988	1.294935	-0.281065
C53	C	-0.169624	0.885401	-0.816290
C54	C	0.330376	1.385401	-0.316290
C55	C	-0.209828	0.940201	-0.748959
C56	C	0.290172	1.440201	-0.248959
C57	C	-0.219411	0.904542	-0.646404
C58	C	0.280589	1.404542	-0.146404
C59	C	-0.417615	1.223467	-0.400982
C60	C	0.082385	1.723467	0.099018
C61	C	-0.457822	1.278270	-0.333656
C62	C	0.042178	1.778270	0.166344
C63	C	-0.467424	1.242611	-0.231113
C64	C	0.032576	1.742611	0.268887
C65	C	-0.436823	1.152142	-0.195892
C66	C	0.063177	1.652142	0.304108
C67	C	-0.396616	1.097339	-0.263218
C68	C	0.103384	1.597339	0.236782
C69	C	-0.387013	1.133006	-0.365759
C70	C	0.112987	1.633006	0.134241
C71	C	-0.466755	1.518099	-0.506014
C72	C	0.033245	2.018099	-0.006014
C73	C	-0.536723	1.518137	-0.506025
C74	C	-0.036723	2.018137	-0.006025
C75	C	-0.569587	1.585375	-0.438901
C76	C	-0.069587	2.085375	0.061099
C77	C	-0.635329	1.585424	-0.438925
C78	C	-0.135329	2.085424	0.061075
C79	C	-0.668205	1.518216	-0.506061
C80	C	-0.168205	2.018216	-0.006061
C81	C	-0.635333	1.450974	-0.573198
C82	C	-0.135333	1.950974	-0.073198
C83	C	-0.569592	1.450934	-0.573180
C84	C	-0.069592	1.950934	-0.073180
N85	N	-0.771471	1.426309	-0.514065
N86	N	-0.271471	1.926309	-0.014065
N87	N	-0.833922	1.426350	-0.514076
N88	N	-0.333922	1.926350	-0.014076
C89	C	-0.866280	1.518334	-0.506121
C90	C	-0.366280	2.018334	-0.006121
N91	N	-0.833827	1.610278	-0.498134
N92	N	-0.333827	2.110278	0.001866
N93	N	-0.771370	1.610236	-0.498117
N94	N	-0.271370	2.110236	0.001883
C95	C	-0.739491	1.518253	-0.506089
C96	C	-0.239491	2.018253	-0.006089
C97	C	-0.970430	1.585631	-0.439019
C98	C	-0.470430	2.085631	0.060981
C99	C	-1.036173	1.585682	-0.439051
C100	C	-0.536173	2.085682	0.060949
C101	C	-1.036176	1.451222	-0.573318
C102	C	-0.536176	1.951222	-0.073318
C103	C	-0.970433	1.451181	-0.573293
C104	C	-0.470433	1.951181	-0.073293
C105	C	-0.937564	1.518384	-0.506138
C106	C	-0.437564	2.018384	-0.006138
C107	C	-0.139013	1.518404	-0.506154
C108	C	0.360987	2.018404	-0.006154
C109	C	-0.069045	1.518475	-0.506189
C110	C	0.430955	2.018475	-0.006189
C111	C	-0.303139	1.518310	-0.780106
C112	C	0.196861	2.018310	-0.280106
C113	C	-0.303112	1.518342	-0.896883
C114	C	0.196888	2.018342	-0.396883
C115	C	-0.303214	1.792270	-0.506088
C116	C	0.196786	2.292270	-0.006088
C117	C	-0.303219	1.909047	-0.506095
C118	C	0.196781	2.409047	-0.006095
C119	C	-0.262841	1.451211	-0.951761
C120	C	0.237159	1.951211	-0.451761
C121	C	-0.262821	1.451235	-1.061485
C122	C	0.237179	1.951235	-0.561485
C123	C	-0.343347	1.585531	-1.061444
C124	C	0.156653	2.085531	-0.561444
C125	C	-0.343369	1.585500	-0.951722
C126	C	0.156631	2.085500	-0.451722
C127	C	-0.240293	1.327395	-1.211442
C128	C	0.259707	1.827395	-0.711442
C129	C	-0.200012	1.260273	-1.266324
C130	C	0.299988	1.760273	-0.766324
C131	C	-0.138595	1.244197	-1.230748
C132	C	0.361405	1.744197	-0.730748
C133	C	-0.117448	1.295258	-1.140293
C134	C	0.382552	1.795258	-0.640293
C135	C	-0.157726	1.362388	-1.085417
C136	C	0.342274	1.862388	-0.585417
C137	C	-0.219151	1.378444	-1.120991
C138	C	0.280849	1.878444	-0.620991
C139	C	-0.365891	1.709342	-0.801762
C140	C	0.134109	2.209342	-0.301762
C141	C	-0.406166	1.776478	-0.746884
C142	C	0.093834	2.276478	-0.246884
C143	C	-0.467583	1.792565	-0.782458
C144	C	0.032417	2.292565	-0.282458
C145	C	-0.488729	1.741522	-0.872917
C146	C	0.011271	2.241522	-0.372917
C147	C	-0.448453	1.674386	-0.927795
C148	C	0.051547	2.174386	-0.427795
C149	C	-0.387036	1.658297	-0.892213
C150	C	0.112964	2.158297	-0.392213
C151	C	-0.303221	1.518224	-0.233105
C152	C	0.196779	2.018224	0.266895
C153	C	-0.303071	1.518397	-0.116329
C154	C	0.196929	2.018397	0.383671
H155	H	-0.376165	0.919133	-0.383959
H156	H	0.123835	1.419133	0.116041
N157	N	-0.534137	1.657870	-0.366486
N158	N	-0.034137	2.157870	0.133514
H159	H	-0.506815	1.706515	-0.409224
H160	H	-0.006815	2.206515	0.090776
H161	H	-0.506943	1.615114	-0.317767
H162	H	-0.006943	2.115114	0.182233
N163	N	-0.670787	1.657949	-0.366526
N164	N	-0.170787	2.157949	0.133474
H165	H	-0.639988	1.700515	-0.323983
H166	H	-0.139988	2.200515	0.176017
H167	H	-0.698110	1.615217	-0.317882
H168	H	-0.198110	2.115217	0.182118
H169	H	-0.290306	1.340466	-1.240409
H170	H	0.209694	1.840466	-0.740409
N171	N	-0.222818	1.205197	-1.363880
N172	N	0.277182	1.705197	-0.863880
H173	H	-0.267842	1.225553	-1.378086
H174	H	0.232158	1.725553	-0.878086
H175	H	-0.220073	1.126872	-1.353405
H176	H	0.279927	1.626872	-0.853405
N177	N	-0.134928	1.417457	-0.987858
N178	N	0.365072	1.917457	-0.487858
H179	H	-0.137629	1.495799	-0.998261
H180	H	0.362371	1.995799	-0.498261
H181	H	-0.089916	1.397013	-0.973698
H182	H	0.410084	1.897013	-0.473698
N183	N	-0.199146	0.775611	-0.500586
N184	N	0.300854	1.275611	-0.000586
H185	H	-0.245146	0.759556	-0.489797
H186	H	0.254854	1.259556	0.010203
H187	H	-0.185529	0.831551	-0.449424
H188	H	0.314471	1.331551	0.050576
H189	H	-0.230253	1.118398	-0.628210
H190	H	0.269747	1.618398	-0.128210
N191	N	-0.511032	1.864965	-0.723270
N192	N	-0.011032	2.364965	-0.223270
H193	H	-0.524768	1.923977	-0.770775
H194	H	-0.024768	2.423977	-0.270775
H195	H	-0.488289	1.894793	-0.660568
H196	H	0.011711	2.394793	-0.160568
H197	H	-0.482731	1.351945	-0.362336
H198	H	0.017269	1.851945	0.137664
N199	N	-0.383358	1.831542	-0.649323
N200	N	0.116642	2.331542	-0.149323
H201	H	-0.418189	1.876519	-0.619964
H202	H	0.081811	2.376519	-0.119964
H203	H	-0.346112	1.877148	-0.667388
H204	H	0.153888	2.377148	-0.167388
H205	H	-0.943674	1.396425	-0.627947
H206	H	-0.443674	1.896425	-0.127947
H207	H	-0.234749	1.013860	-0.777637
H208	H	0.265251	1.513860	-0.277637
N209	N	-0.471253	1.619320	-1.025360
N210	N	0.028747	2.119320	-0.525360
H211	H	-0.484131	1.673067	-1.079344
H212	H	0.015869	2.173067	-0.579344
H213	H	-0.508468	1.573645	-1.007291
H214	H	-0.008468	2.073645	-0.507291
H215	H	-0.067434	1.282173	-1.111341
H216	H	0.432566	1.782173	-0.611341
N217	N	-0.386767	1.657959	-1.120591
N218	N	0.113233	2.157959	-0.620591
H219	H	-0.380643	1.647794	-1.198428
H220	H	0.119357	2.147794	-0.698428
H221	H	-0.376982	1.733000	-1.101423
H222	H	0.123018	2.233000	-0.601423
H223	H	-0.500182	1.287221	-0.176309
H224	H	-0.000182	1.787221	0.323691
N225	N	-0.363608	0.999760	-0.225235
N226	N	0.136392	1.499760	0.274765
H227	H	-0.375791	0.985481	-0.150058
H228	H	0.124209	1.485481	0.349942
H229	H	-0.316680	1.010258	-0.229939
H230	H	0.183320	1.510258	0.270061
H231	H	-0.943666	1.640355	-0.384341
H232	H	-0.443666	2.140355	0.115659
H233	H	-0.538739	1.754625	-0.901886
H234	H	-0.038739	2.254625	-0.401886
N235	N	-0.095148	1.171801	-1.289936
N236	N	0.404852	1.671801	-0.789936
H237	H	-0.117863	1.141897	-1.352634
H238	H	0.382137	1.641897	-0.852634
H239	H	-0.081424	1.112847	-1.242355
H240	H	0.418576	1.612847	-0.742355
N241	N	-0.299646	1.691981	-0.763387
N242	N	0.200354	2.191981	-0.263387
H243	H	-0.292361	1.734511	-0.697761
H244	H	0.207639	2.234511	-0.197761
H245	H	-0.268959	1.714595	-0.819395
H246	H	0.231041	2.214595	-0.319395
N247	N	-0.407251	1.261936	-0.511582
N248	N	0.092749	1.761936	-0.011582
H249	H	-0.432742	1.327558	-0.523680
H250	H	0.067258	1.827558	-0.023680
H251	H	-0.420812	1.205962	-0.562748
H252	H	0.079188	1.705962	-0.062748
H253	H	-0.161813	0.914422	-0.899794
H254	H	0.338187	1.414422	-0.399794
N255	N	-0.670787	1.378487	-0.645613
N256	N	-0.170787	1.878487	-0.145613
H257	H	-0.717422	1.388712	-0.635437
H258	H	-0.217422	1.888712	-0.135437
H259	H	-0.659343	1.303455	-0.629194
H260	H	-0.159343	1.803455	-0.129194
H261	H	-0.444644	1.123104	-0.112395
H262	H	0.055356	1.623104	0.387605
H263	H	-0.542833	1.396179	-0.627841
H264	H	-0.042833	1.896179	-0.127841
H265	H	-0.106280	0.750304	-0.835891
H266	H	0.393720	1.250304	-0.335891
N267	N	-0.115589	0.661706	-0.640537
N268	N	0.384411	1.161706	-0.140537
H269	H	-0.127760	0.647434	-0.565353
H270	H	0.372240	1.147434	-0.065353
H271	H	-0.068662	0.672209	-0.645260
H272	H	0.431338	1.172209	-0.145260
H273	H	-1.062930	1.640442	-0.384392
H274	H	-0.562930	2.140442	0.115608
N275	N	-0.219426	1.378766	-0.892622
N276	N	0.280574	1.878766	-0.392622
H277	H	-0.245014	1.330039	-0.847080
H278	H	0.254986	1.830039	-0.347080
H279	H	-0.190270	1.421550	-0.847180
H280	H	0.309730	1.921550	-0.347180
N281	N	-1.071625	1.378740	-0.645740
N282	N	-0.571625	1.878740	-0.145740
H283	H	-1.118259	1.388970	-0.635570
H284	H	-0.618259	1.888970	-0.135570
H285	H	-1.060184	1.303707	-0.629321
H286	H	-0.560184	1.803707	-0.129321
