data_functionalizedCrystal
_audit_creation_method	'MofGen! by Chris Wilmer'
_symmetry_space_group_name_H-M	'P1'
_symmetry_Int_Tables_number	1
_symmetry_cell_setting	triclinic
loop_
_symmetry_equiv_pos_as_xyz
  x,y,z
_cell_length_a	19.902436
_cell_length_b	14.446369
_cell_length_c	14.446369
_cell_angle_alpha	60.003063
_cell_angle_beta	90.004629
_cell_angle_gamma	59.996822
loop_
_atom_site_label
_atom_site_type_symbol
_atom_site_fract_x
_atom_site_fract_y
_atom_site_fract_z
Zr1	Zr	0.647277	1.013166	-0.121394
O2	O	0.539980	1.206292	-0.269211
O3	O	0.680174	0.820044	-0.076079
O4	O	0.680167	1.013154	-0.269190
O5	O	0.539986	1.013190	0.076230
O6	O	0.790744	1.013141	-0.269176
O7	O	0.539986	1.013182	-0.076099
O8	O	0.790755	0.667702	0.076266
O9	O	0.539975	1.358629	-0.269212
O10	O	0.776721	0.899467	-0.056743
O11	O	0.694198	0.899483	0.056928
O12	O	0.694191	1.126845	-0.170437
O13	O	0.611668	1.126861	-0.056766
Zr14	Zr	0.823634	1.013159	0.121577
Zr15	Zr	0.823635	1.013145	-0.121370
Zr16	Zr	0.647277	1.013180	0.121553
Zr17	Zr	0.647269	1.256126	-0.121395
Zr18	Zr	0.823642	0.770199	0.121579
O19	O	0.790738	1.206281	0.076262
O20	O	0.790738	1.206262	-0.269177
O21	O	0.539980	1.206311	0.076228
O22	O	0.930931	0.820033	0.269394
O23	O	0.930931	0.820014	-0.076045
O24	O	0.680173	0.820063	0.269360
O25	O	0.930925	1.013135	-0.076046
O26	O	0.790744	1.013171	0.269374
O27	O	0.680167	1.013184	0.269359
O28	O	0.930925	1.013143	0.076282
O29	O	0.680156	1.358612	-0.269193
O30	O	0.790755	0.667713	0.269376
O31	O	0.930936	0.667696	0.269395
O32	O	0.930936	0.667686	0.076285
O33	O	0.539975	1.358639	-0.076102
O34	O	0.680156	1.358623	-0.076083
O35	O	0.776720	0.899480	0.170620
O36	O	0.859243	0.899464	0.056950
O37	O	0.776713	1.126842	-0.056744
O38	O	0.694191	1.126858	0.056926
C39	C	0.735466	0.709257	0.000094
C40	C	0.735469	0.606114	0.000095
C41	C	0.787518	0.566822	-0.071609
C42	C	0.787275	0.459902	-0.071995
C43	C	0.645749	0.546925	-0.051843
C44	C	0.646050	0.654301	-0.052382
C45	C	0.772385	0.479303	0.123769
C46	C	0.774181	0.370840	0.123579
C47	C	0.514859	1.013189	0.000062
C48	C	0.439991	1.013198	0.000052
C49	C	0.302929	1.013174	0.000079
C50	C	0.222355	1.156597	-0.071636
C51	C	0.144464	1.156654	-0.071308
C52	C	0.167982	1.013151	0.000104
C53	C	0.222267	0.941517	0.123665
C54	C	0.299817	0.942465	0.123258
C55	C	0.300656	0.940344	-0.050766
C56	C	0.221787	0.943013	-0.053247
C57	C	0.091719	1.013131	0.000125
C58	C	0.379194	1.013189	0.000067
C59	C	0.956052	1.013136	0.000121
C60	C	1.030921	1.013127	0.000132
C61	C	0.735456	1.013146	-0.303798
C62	C	0.735456	1.013140	-0.406935
C63	C	0.735446	1.317068	0.000089
C64	C	0.735442	1.420211	0.000089
C65	C	0.787767	0.869748	-0.481909
C66	C	0.787540	0.869651	-0.374581
C67	C	0.645787	1.084379	-0.481507
C68	C	0.646073	1.083469	-0.588366
C69	C	0.772090	1.086407	-0.589923
C70	C	0.773904	1.083704	-0.481251
C71	C	0.735455	1.013179	0.303981
C72	C	0.735455	1.013185	0.407118
C73	C	0.956062	0.709231	0.000124
C74	C	1.030934	0.606079	0.000135
C75	C	0.735465	0.709273	0.303983
C76	C	0.735469	0.606136	0.407121
C77	C	0.956062	0.709247	0.304013
C78	C	1.030934	0.606101	0.407161
C79	C	0.514849	1.317078	-0.303830
C80	C	0.439978	1.420224	-0.406978
C81	C	0.514849	1.317094	0.000060
C82	C	0.439977	1.420246	0.000049
C83	C	0.735446	1.317052	-0.303800
C84	C	0.735443	1.420189	-0.406938
C85	C	1.023019	0.557639	-0.059217
C86	C	1.093362	0.460731	-0.059229
C87	C	1.171620	0.412257	0.000117
C88	C	1.179533	0.460706	0.059470
C89	C	1.109191	0.557619	0.059475
C90	C	1.109177	0.557654	0.396266
C91	C	1.179534	0.460751	0.493175
C92	C	1.171645	0.412290	0.600979
C93	C	1.093393	0.460746	0.611872
C94	C	1.023038	0.557654	0.514964
C95	C	0.361734	1.468682	-0.396083
C96	C	0.291377	1.565616	-0.492992
C97	C	0.299266	1.614082	-0.600795
C98	C	0.377518	1.565619	-0.611688
C99	C	0.447873	1.468695	-0.514780
C100	C	0.447892	1.468696	0.059390
C101	C	0.377549	1.565631	0.059376
C102	C	0.299291	1.614109	0.000026
C103	C	0.291378	1.565655	-0.059322
C104	C	0.361720	1.468728	-0.059314
C105	C	0.683175	0.459827	0.482098
C106	C	0.683393	0.566748	0.374768
C107	C	0.825142	0.479272	0.481688
C108	C	0.824864	0.371896	0.588548
C109	C	0.698842	0.546885	0.590115
C110	C	0.697018	0.655356	0.481443
H111	H	0.761644	0.497494	-0.163227
H112	H	0.241972	1.693004	-0.679695
H113	H	0.617360	0.656105	0.320491
H114	H	0.384008	1.605065	0.107709
H115	H	0.854679	0.440707	0.430085
F116	F	1.084923	0.409182	-0.122400
H117	H	0.383932	1.605093	-0.699473
F118	F	1.085010	0.409157	0.726614
F119	F	1.117628	0.609155	0.122656
F120	F	0.939767	0.609199	0.526577
H121	H	1.115616	0.597097	0.308496
F122	F	0.353284	1.417168	-0.122470
F123	F	0.173450	1.005766	0.177215
H124	H	1.228891	0.333343	0.000104
H125	H	0.357448	0.834689	0.001217
F126	F	0.219964	1.230584	-0.190870
F127	F	0.531144	1.417124	-0.526393
F128	F	0.873591	0.343252	-0.026489
H129	H	0.242066	0.835990	0.179449
H130	H	0.708809	0.529276	0.320986
H131	H	1.228939	0.333381	0.679879
H132	H	0.853570	0.813759	-0.320298
H133	H	0.355295	1.429226	-0.308312
F134	F	0.208103	1.617172	-0.481375
F135	F	0.596646	0.508511	0.479031
H136	H	0.303514	0.986570	-0.140408
H137	H	0.734656	0.503869	0.177437
F138	F	0.531174	1.417123	0.122560
H139	H	1.243260	0.421224	0.107787
F140	F	0.224433	1.717267	0.000029
H141	H	0.227651	1.605140	-0.107643
H142	H	1.243244	0.421308	0.484286
H143	H	0.708356	0.370157	0.481066
F144	F	0.863203	0.253268	0.588196
F145	F	0.878580	0.332729	0.691266
F146	F	0.729276	1.220537	-0.514620
F147	F	0.878294	0.508341	0.517289
F148	F	0.613840	0.598618	0.595488
F149	F	0.610660	0.773622	0.414236
F150	F	0.874072	0.518277	-0.026356
H151	H	0.731156	0.687479	0.506969
F152	F	0.172842	1.011286	-0.172234
F153	F	0.754342	0.684179	-0.190148
F154	F	0.592627	1.222280	-0.517109
H155	H	0.736761	0.522094	0.668335
H156	H	0.616250	1.034910	-0.429908
H157	H	0.616516	0.745168	-0.143377
H158	H	0.605132	0.684049	-0.003518
H159	H	0.853968	0.813447	-0.479561
F160	F	0.592825	0.517565	0.013168
F161	F	0.860552	0.252692	0.174299
F162	F	0.606867	0.597473	-0.169641
F163	F	0.754861	0.796532	-0.480559
H164	H	0.837458	0.439824	0.167190
H165	H	0.740210	0.338543	0.181455
H166	H	0.221699	1.212328	-0.036677
F167	F	0.093566	1.229761	-0.025168
F168	F	0.092798	1.230126	-0.190221
F169	F	0.299693	1.008234	0.176427
H170	H	0.837123	1.040500	-0.594030
H171	H	0.356880	0.837227	0.179738
H172	H	0.240333	0.838344	-0.006469
H173	H	0.762132	0.813405	-0.320798
H174	H	0.616745	1.032853	-0.588100
F175	F	0.592360	1.221020	-0.691085
H176	H	0.839969	1.031751	-0.429824
H177	H	0.734156	1.192083	-0.668127
H178	H	0.959304	0.597106	-0.107557
