data_functionalizedCrystal
_audit_creation_method	'MofGen! by Chris Wilmer'
_symmetry_space_group_name_H-M	'P1'
_symmetry_Int_Tables_number	1
_symmetry_cell_setting	triclinic
loop_
_symmetry_equiv_pos_as_xyz
  x,y,z
_cell_length_a	14.519709
_cell_length_b	13.596369
_cell_length_c	14.519709
_cell_angle_alpha	90.006934
_cell_angle_beta	83.680145
_cell_angle_gamma	89.999709
loop_
_atom_site_label
_atom_site_type_symbol
_atom_site_fract_x
_atom_site_fract_y
_atom_site_fract_z
O1	O	1.223868	0.081665	0.120893
O2	O	1.473868	0.331665	0.370893
O3	O	1.723868	0.581665	0.620893
O4	O	1.973868	0.831665	0.870893
O5	O	0.955392	0.081696	0.135129
O6	O	1.205392	0.331696	0.385129
O7	O	1.455392	0.581696	0.635129
O8	O	1.705392	0.831696	0.885129
O9	O	1.096748	0.081671	-0.006227
O10	O	1.346748	0.331671	0.243773
O11	O	1.596748	0.581671	0.493773
O12	O	1.846748	0.831671	0.743773
O13	O	1.082512	0.081690	0.262249
O14	O	1.332512	0.331690	0.512249
O15	O	1.582512	0.581690	0.762249
O16	O	1.832512	0.831690	1.012249
O17	O	1.096734	-0.081912	-0.006235
O18	O	1.346734	0.168088	0.243765
O19	O	1.596734	0.418088	0.493765
O20	O	1.846734	0.668088	0.743765
O21	O	0.955377	-0.081887	0.135122
O22	O	1.205377	0.168113	0.385122
O23	O	1.455377	0.418113	0.635122
O24	O	1.705377	0.668113	0.885122
O25	O	1.223854	-0.081917	0.120885
O26	O	1.473854	0.168083	0.370885
O27	O	1.723854	0.418083	0.620885
O28	O	1.973854	0.668083	0.870885
Zn29	Zn	1.089614	-0.107875	0.128002
Zn30	Zn	1.339614	0.142125	0.378002
Zn31	Zn	1.589614	0.392125	0.628002
Zn32	Zn	1.839614	0.642125	0.878002
Zn33	Zn	1.089632	0.107653	0.128012
Zn34	Zn	1.339632	0.357653	0.378012
Zn35	Zn	1.589632	0.607653	0.628012
Zn36	Zn	1.839632	0.857653	0.878012
O37	O	1.082498	-0.081893	0.262242
O38	O	1.332498	0.168107	0.512242
O39	O	1.582498	0.418107	0.762242
O40	O	1.832498	0.668107	1.012242
C41	C	0.921025	-0.000092	0.134462
C42	C	1.171025	0.249908	0.384462
C43	C	1.421025	0.499908	0.634462
C44	C	1.671025	0.749908	0.884462
C45	C	0.818643	-0.000081	0.132474
C46	C	1.068643	0.249919	0.382474
C47	C	1.318643	0.499919	0.632474
C48	C	1.568643	0.749919	0.882474
N49	N	1.089608	-0.254966	0.127995
N50	N	1.339608	-0.004966	0.377995
N51	N	1.589608	0.245034	0.627995
N52	N	1.839608	0.495034	0.877995
C53	C	0.443748	-0.000126	0.125154
C54	C	0.693748	0.249874	0.375154
C55	C	0.943748	0.499874	0.625154
C56	C	1.193748	0.749874	0.875154
C57	C	0.548056	-0.000113	0.127187
C58	C	0.798056	0.249887	0.377187
C59	C	1.048056	0.499887	0.627187
C60	C	1.298056	0.749887	0.877187
C61	C	0.631192	-0.000102	0.128814
C62	C	0.881192	0.249898	0.378814
C63	C	1.131192	0.499898	0.628814
C64	C	1.381192	0.749898	0.878814
C65	C	0.735507	-0.000091	0.130847
C66	C	0.985507	0.249909	0.380847
C67	C	1.235507	0.499909	0.630847
C68	C	1.485507	0.749909	0.880847
C69	C	1.089631	-0.656257	0.128013
C70	C	1.339631	-0.406257	0.378013
C71	C	1.589631	-0.156257	0.628013
C72	C	1.839631	0.093743	0.878013
C73	C	1.089622	-0.544606	0.128011
C74	C	1.339622	-0.294606	0.378011
C75	C	1.589622	-0.044606	0.628011
C76	C	1.839622	0.205394	0.878011
C77	C	1.089620	-0.455615	0.128005
C78	C	1.339620	-0.205615	0.378005
C79	C	1.589620	0.044385	0.628005
C80	C	1.839620	0.294385	0.878005
C81	C	1.089610	-0.343957	0.128001
C82	C	1.339610	-0.093957	0.378001
C83	C	1.589610	0.156043	0.628001
C84	C	1.839610	0.406043	0.878001
C85	C	1.258221	-0.000128	0.121553
C86	C	1.508221	0.249872	0.371553
C87	C	1.758221	0.499872	0.621553
C88	C	2.008221	0.749872	0.871553
C89	C	1.360602	-0.000132	0.123541
C90	C	1.610602	0.249868	0.373541
C91	C	1.860602	0.499868	0.623541
C92	C	2.110602	0.749868	0.873541
C93	C	1.096078	-0.000121	-0.040591
C94	C	1.346078	0.249879	0.209409
C95	C	1.596078	0.499879	0.459409
C96	C	1.846078	0.749879	0.709409
C97	C	1.094090	-0.000121	-0.142972
C98	C	1.344090	0.249879	0.107028
C99	C	1.594090	0.499879	0.357028
C100	C	1.844090	0.749879	0.607028
N101	N	1.089645	0.254745	0.128012
N102	N	1.339645	0.504745	0.378012
N103	N	1.589645	0.754745	0.628012
N104	N	1.839645	1.004745	0.878012
C105	C	1.086770	-0.000095	-0.517868
C106	C	1.336770	0.249905	-0.267868
C107	C	1.586770	0.499905	-0.017868
C108	C	1.836770	0.749905	0.232132
C109	C	1.088803	-0.000102	-0.413560
C110	C	1.338803	0.249898	-0.163560
C111	C	1.588803	0.499898	0.086440
C112	C	1.838803	0.749898	0.336440
C113	C	1.090430	-0.000109	-0.330423
C114	C	1.340430	0.249891	-0.080423
C115	C	1.590430	0.499891	0.169577
C116	C	1.840430	0.749891	0.419577
C117	C	1.092463	-0.000114	-0.226109
C118	C	1.342463	0.249886	0.023891
C119	C	1.592463	0.499886	0.273891
C120	C	1.842463	0.749886	0.523891
C121	C	1.083168	-0.000099	0.296605
C122	C	1.333168	0.249901	0.546605
C123	C	1.583168	0.499901	0.796605
C124	C	1.833168	0.749901	1.046605
C125	C	1.085156	-0.000092	0.398987
C126	C	1.335156	0.249908	0.648987
C127	C	1.585156	0.499908	0.898987
C128	C	1.835156	0.749908	1.148987
