data_functionalizedCrystal
_audit_creation_method	'MofGen! by Chris Wilmer'
_symmetry_space_group_name_H-M	'P1'
_symmetry_Int_Tables_number	1
_symmetry_cell_setting	triclinic
loop_
_symmetry_equiv_pos_as_xyz
  x,y,z
_cell_length_a	17.699104
_cell_length_b	14.519709
_cell_length_c	16.176319
_cell_angle_alpha	89.998780
_cell_angle_beta	90.009411
_cell_angle_gamma	96.514169
loop_
_atom_site_label
_atom_site_type_symbol
_atom_site_fract_x
_atom_site_fract_y
_atom_site_fract_z
O1	O	-1.004404	0.116707	-0.068781
O2	O	-0.784071	0.131860	-0.068776
O3	O	-0.900079	-0.009979	-0.068771
O4	O	-0.888396	0.258546	-0.068786
O5	O	-0.900061	-0.009970	0.068722
O6	O	-0.784053	0.131869	0.068717
O7	O	-1.004386	0.116716	0.068712
Cu8	Cu	-0.894218	0.124293	0.081269
Cu9	Cu	-0.894239	0.124283	-0.081333
O10	O	-0.888378	0.258555	0.068708
C11	C	-0.755864	0.131318	-0.000028
C12	C	-0.671842	0.129679	-0.000026
C13	C	-0.147183	0.203695	-0.000031
C14	C	-0.226131	0.205229	-0.000034
C15	C	-0.274510	0.121964	-0.000030
C16	C	-0.243938	0.037159	-0.000031
C17	C	-0.164991	0.035626	-0.000033
C18	C	-0.562321	0.043340	-0.000023
C19	C	-0.641273	0.044880	-0.000018
C20	C	-0.623461	0.212943	-0.000024
C21	C	-0.544515	0.211410	-0.000026
C22	C	-0.513949	0.126606	-0.000031
C23	C	-0.428344	0.124944	-0.000029
C24	C	-0.360113	0.123625	-0.000027
C25	C	-0.899526	-0.044332	-0.000024
C26	C	-0.897894	-0.146707	-0.000024
C27	C	-0.891887	-0.521578	-0.000045
C28	C	-0.893555	-0.417277	-0.000039
C29	C	-0.894891	-0.334146	-0.000034
C30	C	-0.896559	-0.229838	-0.000029
C31	C	-0.032593	0.117258	-0.000033
C32	C	-0.116615	0.118896	-0.000029
C33	C	-0.888931	0.292908	-0.000041
C34	C	-0.890563	0.395283	-0.000047
N35	N	-0.894208	0.124300	0.195634
C36	C	-0.945625	0.061492	0.761019
C37	C	-0.945622	0.061497	0.674472
C38	C	-0.894240	0.124284	0.631210
C39	C	-0.842862	0.187074	0.674499
C40	C	-0.842869	0.187072	0.761044
C41	C	-0.842833	0.187085	0.325471
C42	C	-0.842829	0.187080	0.238919
C43	C	-0.945586	0.061510	0.238898
C44	C	-0.945593	0.061508	0.325444
C45	C	-0.894219	0.124301	0.368725
C46	C	-0.894223	0.124296	0.462570
C47	C	-0.894231	0.124286	0.537367
N48	N	-0.894250	0.124276	0.804302
H49	H	-0.648357	0.281995	-0.000024
C50	C	-1.002099	-0.007566	0.191280
N51	N	-1.044660	-0.059597	0.155416
H52	H	-0.505127	0.279213	-0.000026
H53	H	-0.800986	0.238212	0.203697
H54	H	-0.801001	0.238212	0.360704
H55	H	-0.801028	0.238201	0.639270
H56	H	-0.987431	0.010379	0.360665
H57	H	-0.107797	0.271499	-0.000028
C58	C	-0.259751	0.298514	-0.000025
N59	N	-0.285073	0.368780	-0.000014
C60	C	-0.297158	-0.054434	-0.000021
N61	N	-0.337242	-0.123423	-0.000008
H62	H	-0.801035	0.238199	0.796285
H63	H	-0.140104	-0.033426	-0.000033
H64	H	-0.537445	-0.025712	-0.000025
C65	C	-0.694489	-0.046722	-0.000021
N66	N	-0.734572	-0.115714	-0.000023
C67	C	-1.002148	-0.007582	0.808599
N68	N	-1.044725	-0.059608	0.844435
H69	H	-0.987456	0.010374	0.639231
