data_functionalizedCrystal
_audit_creation_method	'MofGen! by Chris Wilmer'
_symmetry_space_group_name_H-M	'P1'
_symmetry_Int_Tables_number	1
_symmetry_cell_setting	triclinic
loop_
_symmetry_equiv_pos_as_xyz
  x,y,z
_cell_length_a	17.077404
_cell_length_b	12.759394
_cell_length_c	17.077396
_cell_angle_alpha	90.024622
_cell_angle_beta	90.019777
_cell_angle_gamma	90.009242
loop_
_atom_site_label
_atom_site_type_symbol
_atom_site_fract_x
_atom_site_fract_y
_atom_site_fract_z
Zn1	Zn	1.200104	-0.418396	0.443870
Zn2	Zn	1.200032	-0.594096	0.312612
Zn3	Zn	1.068836	-0.418418	0.312617
Zn4	Zn	1.068824	-0.594019	0.443835
O5	O	1.134449	-0.506232	0.378234
O6	O	1.309941	-0.441726	0.426470
O7	O	1.182603	-0.570834	0.202766
O8	O	1.086284	-0.271394	0.330044
O9	O	1.309888	-0.570812	0.330036
O10	O	1.182726	-0.271378	0.426475
O11	O	1.086214	-0.441764	0.202769
O12	O	0.958987	-0.441689	0.330011
O13	O	1.086264	-0.570681	0.553687
O14	O	0.958979	-0.570702	0.426416
O15	O	1.182715	-0.441651	0.553712
O16	O	1.182592	-0.741107	0.330003
O17	O	1.086194	-0.741051	0.426412
C18	C	0.930501	-0.506190	0.378211
C19	C	0.843251	-0.506198	0.378220
C20	C	1.134405	-0.779200	0.378221
C21	C	1.134458	-0.895977	0.378241
C22	C	0.467453	-0.573560	0.428376
C23	C	0.549434	-0.573546	0.428364
C24	C	0.590402	-0.506260	0.378246
C25	C	0.549386	-0.438991	0.328132
C26	C	0.467407	-0.439011	0.328140
C27	C	0.720256	-0.438953	0.328119
C28	C	0.802241	-0.438931	0.328111
C29	C	0.802283	-0.573488	0.428342
C30	C	0.720304	-0.573508	0.428351
C31	C	0.679293	-0.506237	0.378237
C32	C	1.234809	-0.895801	0.478730
C33	C	1.285008	-0.950575	0.528980
C34	C	1.285055	-1.060296	0.528997
C35	C	1.234895	-1.115247	0.478760
C36	C	1.184695	-1.060474	0.428510
C37	C	1.184655	-0.950750	0.428497
C38	C	1.084342	-1.060649	0.328026
C39	C	1.084298	-0.950927	0.328004
C40	C	1.034182	-1.115600	0.277789
C41	C	0.983985	-1.060827	0.227534
C42	C	0.983941	-0.951098	0.227518
C43	C	1.034098	-0.896154	0.277754
C44	C	1.339193	-0.506275	0.378257
C45	C	1.426443	-0.506294	0.378267
C46	C	1.134496	-0.506155	0.582978
C47	C	1.134517	-0.506122	0.670228
C48	C	1.134514	-0.232199	0.378264
C49	C	1.134542	-0.115422	0.378277
C50	C	1.134447	-0.506234	0.174286
C51	C	1.134579	-0.505971	0.087036
C52	C	1.184740	-0.438931	0.711232
C53	C	1.184750	-0.438896	0.793213
C54	C	1.134539	-0.506058	0.834187
C55	C	1.084310	-0.573252	0.793177
C56	C	1.084297	-0.573281	0.711198
C57	C	1.084341	-0.573189	0.964047
C58	C	1.084355	-0.573162	1.046032
C59	C	1.184794	-0.438804	1.046062
C60	C	1.184781	-0.438832	0.964083
C61	C	1.134553	-0.506028	0.923078
H62	H	0.434102	-0.628347	0.469191
C63	C	1.239974	-0.365049	0.666164
C64	C	1.233595	-0.245608	0.677448
C65	C	1.288828	-0.171722	0.632382
C66	C	1.350439	-0.217277	0.576031
C67	C	1.356820	-0.336724	0.564744
C68	C	1.301588	-0.410611	0.609810
H69	H	1.187984	-0.211880	0.719165
H70	H	1.284104	-0.083299	0.640738
H71	H	1.391326	-0.162582	0.542670
H72	H	1.402431	-0.370452	0.523027
H73	H	1.306312	-0.499034	0.601454
H74	H	0.686949	-0.628294	0.469164
H75	H	1.034071	-0.806813	0.277743
H76	H	1.225649	-0.384184	0.826595
H77	H	0.582820	-0.628324	0.469166
C78	C	1.240014	-0.364955	0.919011
C79	C	1.233639	-0.245512	0.930292
C80	C	1.288872	-0.171631	0.885220
C81	C	1.350479	-0.217192	0.828868
C82	C	1.356857	-0.336641	0.817584
C83	C	1.301624	-0.410522	0.862656
H84	H	1.188031	-0.211780	0.972009
H85	H	1.284150	-0.083207	0.893573
H86	H	1.391365	-0.162501	0.795503
H87	H	1.402464	-0.370373	0.775866
H88	H	1.306346	-0.498946	0.854303
C89	C	0.928813	-1.121271	0.172279
C90	C	0.928858	-1.241961	0.172302
C91	C	0.873686	-1.302411	0.117046
C92	C	0.818469	-1.242170	0.061767
C93	C	0.818423	-1.121473	0.061742
C94	C	0.873595	-1.061024	0.116998
H95	H	0.969734	-1.286561	0.213225
H96	H	0.873720	-1.391759	0.117065
H97	H	0.777628	-1.286918	0.020863
H98	H	0.777547	-1.076873	0.020819
H99	H	0.873560	-0.971676	0.116979
H100	H	1.043392	-0.627985	0.677813
H101	H	0.835677	-0.628260	0.469148
C102	C	0.422293	-0.365015	0.273021
C103	C	0.332119	-0.365037	0.273025
C104	C	0.287006	-0.291043	0.217900
C105	C	0.332066	-0.217026	0.162773
C106	C	0.422245	-0.217001	0.162767
C107	C	0.467358	-0.290995	0.217891
H108	H	0.298759	-0.419831	0.313835
H109	H	0.220249	-0.291062	0.217905
H110	H	0.298670	-0.162251	0.121966
H111	H	0.455605	-0.162207	0.121956
H112	H	0.534115	-0.290976	0.217886
C113	C	1.029151	-0.647077	1.091106
C114	C	0.973918	-0.721011	1.046007
C115	C	0.918729	-0.794947	1.091081
C116	C	0.918772	-0.794947	1.181255
C117	C	0.974007	-0.721010	1.226359
C118	C	1.029197	-0.647074	1.181285
H119	H	0.973884	-0.721013	0.979250
H120	H	0.877840	-0.849680	1.057691
H121	H	0.877918	-0.849679	1.214622
H122	H	0.974041	-0.721008	1.293116
H123	H	1.070085	-0.592341	1.214674
H124	H	1.234783	-0.806460	0.478714
C125	C	1.029098	-0.647122	0.918947
C126	C	1.063098	-0.729634	0.862593
C127	C	1.007862	-0.803577	0.817495
C128	C	0.918628	-0.795007	0.828751
C129	C	0.884624	-0.712491	0.885107
C130	C	0.939859	-0.638549	0.930205
H131	H	1.129158	-0.735981	0.854259
H132	H	1.033035	-0.864660	0.775777
H133	H	0.877740	-0.849743	0.795367
H134	H	0.818563	-0.706144	0.893441
H135	H	0.914687	-0.577465	0.971923
H136	H	0.835596	-0.384131	0.287308
H137	H	1.225691	-0.384088	1.079452
H138	H	1.043424	-0.627933	0.826545
C139	C	0.675140	-0.364948	0.273001
C140	C	0.686412	-0.245522	0.279574
C141	C	0.641293	-0.171514	0.224465
C142	C	0.584903	-0.216932	0.162783
C143	C	0.573628	-0.336364	0.156207
C144	C	0.618747	-0.410373	0.211316
H145	H	0.728158	-0.211895	0.325237
H146	H	0.649640	-0.083102	0.229333
H147	H	0.551504	-0.162146	0.121987
H148	H	0.531883	-0.369991	0.110544
H149	H	0.610401	-0.498785	0.206448
C150	C	1.340184	-0.890128	0.584238
C151	C	1.340141	-0.769438	0.584223
C152	C	1.395314	-0.708997	0.639483
C153	C	1.450530	-0.769245	0.694758
C154	C	1.450576	-0.889942	0.694775
C155	C	1.395402	-0.950384	0.639515
H156	H	1.299264	-0.724833	0.543304
H157	H	1.395280	-0.619649	0.639470
H158	H	1.491373	-0.724503	0.735664
H159	H	1.491452	-0.934548	0.735694
H160	H	1.395436	-1.039732	0.639528
H161	H	1.034220	-1.204941	0.277810
H162	H	0.582750	-0.384210	0.287322
H163	H	1.325924	-1.104893	0.569924
H164	H	1.234930	-1.204588	0.478785
H165	H	0.943059	-0.906508	0.186602
