data_functionalizedCrystal
_audit_creation_method	'MofGen! by Chris Wilmer'
_symmetry_space_group_name_H-M	'P1'
_symmetry_Int_Tables_number	1
_symmetry_cell_setting	triclinic
loop_
_symmetry_equiv_pos_as_xyz
  x,y,z
_cell_length_a	6.394989
_cell_length_b	10.654550
_cell_length_c	9.730223
_cell_angle_alpha	89.996251
_cell_angle_beta	89.998443
_cell_angle_gamma	94.508693
loop_
_atom_site_label
_atom_site_type_symbol
_atom_site_fract_x
_atom_site_fract_y
_atom_site_fract_z
O1	O	-0.293432	1.670942	-0.114394
O2	O	-0.321390	1.305759	-0.114371
O3	O	-0.003422	1.493534	-0.114383
O4	O	-0.611400	1.483167	-0.114381
O5	O	-0.003430	1.493532	0.114197
O6	O	-0.321398	1.305757	0.114209
O7	O	-0.293440	1.670940	0.114186
Zn8	Zn	-0.307420	1.488348	0.150490
Zn9	Zn	-0.307410	1.488351	-0.150674
O10	O	-0.611408	1.483165	0.114199
C11	C	-0.319341	1.258939	-0.000078
C12	C	-0.313199	1.119430	-0.000069
N13	N	-0.307426	1.488355	0.356026
C14	C	-0.500414	1.041927	-0.000089
C15	C	-0.494630	0.910845	-0.000112
C16	C	-0.114402	0.934782	-0.000103
C17	C	-0.120188	1.065861	-0.000070
C18	C	-0.719936	1.028107	-0.000100
C19	C	-0.714152	0.897025	-0.000124
C20	C	0.074425	1.491483	-0.000098
C21	C	0.310751	1.485219	-0.000099
C22	C	-0.295489	1.717760	-0.000109
C23	C	-0.301631	1.857269	-0.000127
N24	N	-0.307387	1.488353	-0.356210
C25	C	-0.166678	1.571524	0.427947
C26	C	-0.166653	1.571521	0.571830
C27	C	-0.448142	1.405175	0.571859
C28	C	-0.448156	1.405174	0.427979
C29	C	-0.004169	1.667567	0.427931
C30	C	-0.004143	1.667563	0.571814
H31	H	0.032261	1.128960	-0.000034
H32	H	-0.789831	1.064504	-0.098787
F33	F	0.091004	0.877758	-0.000103
H34	H	-0.805794	1.058346	0.095566
F35	F	-0.800873	0.838239	0.128859
F36	F	-0.822254	0.843618	-0.125164
F37	F	-0.597931	1.316641	0.351436
H38	H	0.147607	1.635443	0.616431
H39	H	-0.562719	1.337450	0.630458
F40	F	0.205720	1.637316	0.376879
H41	H	-0.055053	1.759289	0.383299
H42	H	-0.039939	1.764454	0.610859
