data_functionalizedCrystal
_audit_creation_method	'MofGen! by Chris Wilmer'
_symmetry_space_group_name_H-M	'P1'
_symmetry_Int_Tables_number	1
_symmetry_cell_setting	triclinic
loop_
_symmetry_equiv_pos_as_xyz
  x,y,z
_cell_length_a	21.395364
_cell_length_b	29.839131
_cell_length_c	21.395355
_cell_angle_alpha	89.972174
_cell_angle_beta	89.975273
_cell_angle_gamma	90.033561
loop_
_atom_site_label
_atom_site_type_symbol
_atom_site_fract_x
_atom_site_fract_y
_atom_site_fract_z
Zn1	Zn	0.957839	-0.178925	-0.354224
Zn2	Zn	1.457839	0.321075	0.145776
Zn3	Zn	0.957734	-0.254041	-0.249429
Zn4	Zn	1.457734	0.245959	0.250571
Zn5	Zn	0.853054	-0.178923	-0.249460
Zn6	Zn	1.353054	0.321077	0.250540
Zn7	Zn	0.853015	-0.254027	-0.354169
Zn8	Zn	1.353015	0.245973	0.145831
O9	O	0.905411	-0.216479	-0.301821
O10	O	1.405411	0.283521	0.198179
O11	O	1.045503	-0.188896	-0.340332
O12	O	1.545503	0.311104	0.159668
O13	O	0.943820	-0.244081	-0.161755
O14	O	1.443820	0.255919	0.338245
O15	O	0.867015	-0.116056	-0.263393
O16	O	1.367015	0.383944	0.236607
O17	O	1.045425	-0.244083	-0.263340
O18	O	1.545425	0.255917	0.236660
O19	O	0.944000	-0.116058	-0.340362
O20	O	1.444000	0.383942	0.159638
O21	O	0.866912	-0.188893	-0.161778
O22	O	1.366912	0.311107	0.338222
O23	O	0.765371	-0.188879	-0.263340
O24	O	1.265371	0.311121	0.236660
O25	O	0.866948	-0.244060	-0.441854
O26	O	1.366948	0.255940	0.058146
O27	O	0.765343	-0.244058	-0.340269
O28	O	1.265343	0.255942	0.159731
O29	O	0.943962	-0.188883	-0.441894
O30	O	1.443962	0.311117	0.058106
O31	O	0.943782	-0.316906	-0.263287
O32	O	1.443782	0.183094	0.236713
O33	O	0.866846	-0.316896	-0.340239
O34	O	1.366846	0.183104	0.159761
C35	C	0.742623	-0.216467	-0.301802
C36	C	1.242623	0.283533	0.198198
C37	C	0.672982	-0.216473	-0.301810
C38	C	1.172982	0.283527	0.198190
C39	C	0.171187	-0.245263	-0.341839
C40	C	0.671187	0.254737	0.158161
C41	C	0.236622	-0.245263	-0.341832
C42	C	0.736622	0.254737	0.158168
C43	C	0.269343	-0.216489	-0.301840
C44	C	0.769343	0.283511	0.198160
C45	C	0.236624	-0.187721	-0.261841
C46	C	0.736624	0.312279	0.238159
C47	C	0.171189	-0.187724	-0.261844
C48	C	0.671189	0.312276	0.238156
C49	C	0.373037	-0.176002	-0.296998
C50	C	0.873037	0.323998	0.203002
C51	C	0.438470	-0.175997	-0.296999
C52	C	0.938470	0.324003	0.203001
C53	C	0.471164	-0.216477	-0.301827
C54	C	0.971164	0.283523	0.198173
C55	C	0.438418	-0.256963	-0.306666
C56	C	0.938418	0.243037	0.193334
C57	C	0.372984	-0.256967	-0.306669
C58	C	0.872984	0.243033	0.193331
C59	C	0.340296	-0.216482	-0.301832
C60	C	0.840296	0.283518	0.198168
C61	C	0.574829	-0.245246	-0.341814
C62	C	1.074829	0.254754	0.158186
C63	C	0.640265	-0.245247	-0.341803
C64	C	1.140265	0.254753	0.158197
C65	C	0.640265	-0.187700	-0.261814
C66	C	1.140265	0.312300	0.238186
C67	C	0.574830	-0.187703	-0.261822
C68	C	1.074830	0.312297	0.238178
C69	C	0.542115	-0.216476	-0.301825
C70	C	1.042115	0.283524	0.198175
C71	C	0.905315	-0.333202	-0.301768
C72	C	1.405315	0.166798	0.198232
C73	C	0.905331	-0.383136	-0.301766
C74	C	1.405331	0.116864	0.198234
C75	C	0.945488	-0.692745	-0.341956
C76	C	1.445488	-0.192745	0.158044
C77	C	0.945556	-0.880418	-0.341993
C78	C	1.445556	-0.380418	0.158007
O79	O	0.979605	-0.904654	-0.376125
O80	O	1.479605	-0.404654	0.123875
N81	N	0.905517	-0.903921	-0.301890
N82	N	1.405517	-0.403921	0.198110
C83	C	0.865455	-0.880503	-0.261778
C84	C	1.365455	-0.380503	0.238222
O85	O	0.831397	-0.904799	-0.227673
O86	O	1.331397	-0.404799	0.272327
C87	C	0.865385	-0.692830	-0.261744
C88	C	1.365385	-0.192830	0.238256
C89	C	0.905431	-0.669330	-0.301845
C90	C	1.405431	-0.169330	0.198155
C91	C	0.985530	-0.669245	-0.382054
C92	C	1.485530	-0.169245	0.117946
C93	C	0.985515	-0.622330	-0.382042
C94	C	1.485515	-0.122330	0.117958
C95	C	0.945458	-0.598914	-0.341931
C96	C	1.445458	-0.098914	0.158069
C97	C	0.905416	-0.622415	-0.301833
C98	C	1.405416	-0.122415	0.198167
C99	C	0.825320	-0.669413	-0.221635
C100	C	1.325320	-0.169413	0.278365
C101	C	0.825305	-0.622492	-0.221631
C102	C	1.325305	-0.122492	0.278369
C103	C	0.865351	-0.598992	-0.261732
C104	C	1.365351	-0.098992	0.238268
C105	C	0.865343	-0.552084	-0.261710
C106	C	1.365343	-0.052084	0.238290
N107	N	0.905382	-0.528581	-0.301813
N108	N	1.405382	-0.028581	0.198187
C109	C	0.945440	-0.551997	-0.341924
C110	C	1.445440	-0.051997	0.158076
C111	C	0.865496	-0.979033	-0.261797
C112	C	1.365496	-0.479033	0.238203
C113	C	0.865514	-1.025951	-0.261805
C114	C	1.365514	-0.525951	0.238195
C115	C	0.945615	-1.025864	-0.342022
C116	C	1.445615	-0.525864	0.157978
C117	C	0.945599	-0.978945	-0.342010
C118	C	1.445599	-0.478945	0.157990
C119	C	0.905535	-0.955531	-0.301901
C120	C	1.405535	-0.455531	0.198099
C121	C	0.945406	-0.453471	-0.341895
C122	C	1.445406	0.046529	0.158105
C123	C	0.945389	-0.406551	-0.341877
C124	C	1.445389	0.093449	0.158123
C125	C	0.865287	-0.406643	-0.261663
C126	C	1.365287	0.093357	0.238337
C127	C	0.865305	-0.453558	-0.261678
C128	C	1.365305	0.046442	0.238322
C129	C	0.905367	-0.476971	-0.301799
C130	C	1.405367	0.023029	0.198201
O131	O	0.831307	-0.527819	-0.227601
O132	O	1.331307	-0.027819	0.272399
O133	O	0.979483	-0.527692	-0.376033
O134	O	1.479483	-0.027692	0.123967
C135	C	0.945503	-0.739661	-0.341968
C136	C	1.445503	-0.239661	0.158032
C137	C	0.905461	-0.763161	-0.301869
C138	C	1.405461	-0.263161	0.198131
C139	C	0.865403	-0.739746	-0.261759
C140	C	1.365403	-0.239746	0.238241
C141	C	0.905479	-0.810079	-0.301877
C142	C	1.405479	-0.310079	0.198123
C143	C	0.945536	-0.833494	-0.341988
C144	C	1.445536	-0.333494	0.158012
C145	C	0.985575	-0.809991	-0.382091
C146	C	1.485575	-0.309991	0.117909
C147	C	0.985560	-0.763076	-0.382079
C148	C	1.485560	-0.263076	0.117921
C149	C	0.825364	-0.763249	-0.221655
C150	C	1.325364	-0.263249	0.278345
C151	C	0.825383	-0.810164	-0.221670
C152	C	1.325383	-0.310164	0.278330
C153	C	0.865440	-0.833579	-0.261781
C154	C	1.365440	-0.333579	0.238219
C155	C	1.068834	-0.216491	-0.301839
C156	C	1.568834	0.283509	0.198161
C157	C	1.138475	-0.216497	-0.301847
C158	C	1.638475	0.283503	0.198153
C159	C	0.905463	-0.216470	-0.465244
C160	C	1.405463	0.283530	0.034756
C161	C	0.905485	-0.216466	-0.534885
C162	C	1.405485	0.283534	-0.034885
C163	C	0.905524	-0.099301	-0.301887
C164	C	1.405524	0.400699	0.198113
C165	C	0.905572	-0.049366	-0.301916
C166	C	1.405572	0.450634	0.198084
C167	C	0.945584	-0.187734	-0.567620
C168	C	1.445584	0.312266	-0.067620
C169	C	0.945583	-0.187715	-0.633056
C170	C	1.445583	0.312285	-0.133056
C171	C	0.905490	-0.216435	-0.665754
C172	C	1.405490	0.283565	-0.165754
C173	C	0.865383	-0.245169	-0.633011
C174	C	1.365383	0.254831	-0.133011
C175	C	0.865380	-0.245185	-0.567576
C176	C	1.365380	0.254815	-0.067576
C177	C	0.900509	-0.256886	-0.769410
C178	C	1.400509	0.243114	-0.269410
C179	C	0.900516	-0.256872	-0.834843
C180	C	1.400516	0.243128	-0.334843
C181	C	0.905494	-0.216388	-0.867574
C182	C	1.405494	0.283612	-0.367574
C183	C	0.910477	-0.175917	-0.834865
C184	C	1.410477	0.324083	-0.334865
C185	C	0.910475	-0.175933	-0.769431
C186	C	1.410475	0.324067	-0.269431
C187	C	0.905488	-0.216422	-0.736706
C188	C	1.405488	0.283578	-0.236706
C189	C	0.945594	-0.187633	-0.971262
C190	C	1.445594	0.312367	-0.471262
C191	C	0.945589	-0.187613	-1.036699
C192	C	1.445589	0.312387	-0.536699
C193	C	0.865391	-0.245071	-1.036652
C194	C	1.365391	0.254929	-0.536652
C195	C	0.865393	-0.245087	-0.971217
C196	C	1.365393	0.254913	-0.471217
C197	C	0.905498	-0.216369	-0.938526
C198	C	1.405498	0.283631	-0.438526
C199	C	0.905395	-0.216456	-0.139033
C200	C	1.405395	0.283544	0.360967
C201	C	0.905494	-0.216333	-0.069392
C202	C	1.405494	0.283667	0.430608
H203	H	0.144555	-0.268693	-0.374410
H204	H	0.644555	0.231307	0.125590
C205	C	0.821429	-0.953283	-0.217667
C206	C	1.321429	-0.453283	0.282333
H207	H	0.797595	-0.974004	-0.193783
H208	H	1.297595	-0.474004	0.306217
H209	H	0.794106	-0.934986	-0.241598
H210	H	1.294106	-0.434986	0.258402
H211	H	0.845408	-0.934980	-0.190383
H212	H	1.345408	-0.434980	0.309617
C213	C	0.989690	-0.156142	-0.531660
C214	C	1.489690	0.343858	-0.031660
H215	H	0.983949	-0.160266	-0.488001
H216	H	1.483949	0.339734	0.011999
H217	H	0.980550	-0.125954	-0.542390
H218	H	1.480550	0.374046	-0.042390
H219	H	1.031784	-0.162720	-0.542398
H220	H	1.531784	0.337280	-0.042398
H221	H	0.978236	-0.164316	-0.659714
H222	H	1.478236	0.335684	-0.159714
C223	C	0.272613	-0.276904	-0.385829
C224	C	0.772613	0.223096	0.114171
H225	H	0.243758	-0.294038	-0.409656
H226	H	0.743758	0.205962	0.090344
H227	H	0.298117	-0.296453	-0.361813
H228	H	0.798117	0.203547	0.138187
H229	H	0.298161	-0.259738	-0.413172
H230	H	0.798161	0.240262	0.086828
C231	C	0.821258	-0.479410	-0.217567
C232	C	1.321258	0.020590	0.282433
H233	H	0.797397	-0.458743	-0.193679
H234	H	1.297397	0.041257	0.306321
H235	H	0.845238	-0.497715	-0.190294
H236	H	1.345238	0.002285	0.309706
H237	H	0.793948	-0.497712	-0.241522
H238	H	1.293948	0.002288	0.258478
C239	C	0.989478	-0.479218	-0.386021
C240	C	1.489478	0.020782	0.113979
H241	H	1.013325	-0.458497	-0.409892
H242	H	1.513325	0.041503	0.090108
H243	H	0.965511	-0.497524	-0.413308
H244	H	1.465511	0.002476	0.086692
H245	H	1.016799	-0.497513	-0.362077
H246	H	1.516799	0.002487	0.137923
C247	C	0.821469	-1.051798	-0.217691
C248	C	1.321469	-0.551798	0.282309
H249	H	0.827215	-1.083095	-0.223434
H250	H	1.327215	-0.583095	0.276566
H251	H	0.779365	-1.044128	-0.226823
H252	H	1.279365	-0.544128	0.273177
H253	H	0.830659	-1.044121	-0.175599
H254	H	1.330659	-0.544121	0.324401
H255	H	0.548195	-0.164277	-0.229258
H256	H	1.048195	0.335723	0.270742
C257	C	0.989700	-0.156042	-0.935296
C258	C	1.489700	0.343958	-0.435296
H259	H	0.983963	-0.160171	-0.891637
H260	H	1.483963	0.339829	-0.391637
H261	H	0.980561	-0.125854	-0.946020
H262	H	1.480561	0.374146	-0.446020
H263	H	1.031794	-0.162620	-0.946038
H264	H	1.531794	0.337380	-0.446038
H265	H	0.792710	-0.688539	-0.188980
H266	H	1.292710	-0.188539	0.311020
C267	C	0.135205	-0.156077	-0.217856
C268	C	0.635205	0.343923	0.282144
H269	H	0.164061	-0.138938	-0.194038
H270	H	0.664061	0.361062	0.305962
H271	H	0.109650	-0.173234	-0.190513
H272	H	0.609650	0.326766	0.309487
H273	H	0.109708	-0.136526	-0.241884
H274	H	0.609708	0.363474	0.258116
H275	H	0.832674	-0.387571	-0.229003
H276	H	1.332674	0.112429	0.270997
C277	C	1.029564	-0.596485	-0.426156
C278	C	1.529564	-0.096485	0.073844
H279	H	1.053416	-0.617155	-0.450046
H280	H	1.553416	-0.117155	0.049954
H281	H	1.056872	-0.578177	-0.402214
H282	H	1.556872	-0.078177	0.097786
H283	H	1.005576	-0.578186	-0.453435
H284	H	1.505576	-0.078186	0.046565
C285	C	0.821288	-0.276696	-0.935207
C286	C	1.321288	0.223304	-0.435207
H287	H	0.797412	-0.293801	-0.964050
H288	H	1.297412	0.206199	-0.464050
H289	H	0.794005	-0.259514	-0.909673
H290	H	1.294005	0.240486	-0.409673
H291	H	0.845240	-0.296280	-0.909687
H292	H	1.345240	0.203720	-0.409687
C293	C	0.915949	-0.131420	-0.733449
C294	C	1.415949	0.368580	-0.233449
H295	H	0.915238	-0.137230	-0.689793
H296	H	1.415238	0.362770	-0.189793
H297	H	0.881884	-0.112518	-0.744163
H298	H	1.381884	0.387482	-0.244163
H299	H	0.954110	-0.117055	-0.744188
H300	H	1.454110	0.382945	-0.244188
H301	H	0.465127	-0.143031	-0.293066
H302	H	0.965127	0.356969	0.206934
C303	C	0.474370	-0.301494	-0.311975
C304	C	0.974370	0.198506	0.188025
H305	H	0.445496	-0.325604	-0.314861
H306	H	0.945496	0.174396	0.185139
H307	H	0.499874	-0.305406	-0.276054
H308	H	0.999874	0.194594	0.223946
H309	H	0.499914	-0.300946	-0.348297
H310	H	0.999914	0.199054	0.151703
C311	C	0.538837	-0.276896	-0.385808
C312	C	1.038837	0.223104	0.114192
H313	H	0.495182	-0.272774	-0.380088
H314	H	0.995182	0.227226	0.119912
H315	H	0.549533	-0.307071	-0.376557
H316	H	1.049533	0.192929	0.123443
H317	H	0.549588	-0.270361	-0.427924
H318	H	1.049588	0.229639	0.072076
C319	C	0.676249	-0.276891	-0.385797
C320	C	1.176249	0.223109	0.114203
H321	H	0.647391	-0.294023	-0.409624
H322	H	1.147391	0.205977	0.090376
H323	H	0.701748	-0.296442	-0.361779
H324	H	1.201748	0.203558	0.138221
H325	H	0.701800	-0.259727	-0.413140
H326	H	1.201800	0.240273	0.086860
H327	H	1.018150	-0.688305	-0.414721
H328	H	1.518150	-0.188305	0.085279
H329	H	0.346324	-0.289931	-0.310608
H330	H	0.846324	0.210069	0.189392
H331	H	0.832723	-0.268581	-0.540924
H332	H	1.332723	0.231419	-0.040924
H333	H	0.666906	-0.164273	-0.229250
H334	H	1.166906	0.335727	0.270750
C335	C	0.781235	-0.596739	-0.177507
C336	C	1.281235	-0.096739	0.322493
H337	H	0.757394	-0.617457	-0.153626
H338	H	1.257394	-0.117457	0.346374
H339	H	0.753918	-0.578441	-0.201444
H340	H	1.253918	-0.078441	0.298556
H341	H	0.805211	-0.578436	-0.150220
H342	H	1.305211	-0.078436	0.349780
H343	H	0.896462	-0.289826	-0.861470
H344	H	1.396462	0.210174	-0.361470
H345	H	0.263269	-0.164293	-0.229278
H346	H	0.763269	0.335707	0.270722
C347	C	0.989638	-0.953099	-0.386132
C348	C	1.489638	-0.453099	0.113868
H349	H	1.013491	-0.973768	-0.410024
H350	H	1.513491	-0.473768	0.089976
H351	H	1.016946	-0.934785	-0.362197
H352	H	1.516946	-0.434785	0.137803
H353	H	0.965640	-0.934804	-0.413410
H354	H	1.465640	-0.434804	0.086590
H355	H	0.346422	-0.143037	-0.293057
H356	H	0.846422	0.356963	0.206943
C357	C	0.989674	-1.051626	-0.386145
C358	C	1.489674	-0.551626	0.113855
H359	H	0.983942	-1.082933	-0.380406
H360	H	1.483942	-0.582933	0.119594
H361	H	1.031776	-1.043918	-0.377022
H362	H	1.531776	-0.543918	0.122978
H363	H	0.980471	-1.043926	-0.428235
H364	H	1.480471	-0.543926	0.071765
H365	H	0.896288	-0.289845	-0.742766
H366	H	1.396288	0.210155	-0.242766
H367	H	0.978001	-0.387419	-0.374532
H368	H	1.478001	0.112581	0.125468
C369	C	1.029605	-0.737231	-0.426197
C370	C	1.529605	-0.237231	0.073803
H371	H	1.053456	-0.757902	-0.450088
H372	H	1.553456	-0.257902	0.049912
H373	H	1.056914	-0.718922	-0.402258
H374	H	1.556914	-0.218922	0.097742
H375	H	1.005613	-0.718933	-0.453475
H376	H	1.505613	-0.218933	0.046525
H377	H	0.914531	-0.142951	-0.861513
H378	H	1.414531	0.357049	-0.361513
C379	C	1.029636	-0.835754	-0.426213
C380	C	1.529636	-0.335754	0.073787
H381	H	1.023902	-0.867061	-0.420475
H382	H	1.523902	-0.367061	0.079525
H383	H	1.071737	-0.828048	-0.417086
H384	H	1.571737	-0.328048	0.082914
H385	H	1.020437	-0.828053	-0.468303
H386	H	1.520437	-0.328053	0.031697
H387	H	0.792774	-0.829294	-0.189009
H388	H	1.292774	-0.329294	0.310991
C389	C	0.781303	-0.737498	-0.177526
C390	C	1.281303	-0.237498	0.322474
H391	H	0.757467	-0.758219	-0.153644
H392	H	1.257467	-0.258219	0.346356
H393	H	0.753982	-0.719198	-0.201455
H394	H	1.253982	-0.219198	0.298545
H395	H	0.805285	-0.719198	-0.150241
H396	H	1.305285	-0.219198	0.349759
C397	C	0.989701	-0.156006	-1.072708
C398	C	1.489701	0.343994	-0.572708
H399	H	1.013588	-0.138910	-1.043864
H400	H	1.513588	0.361090	-0.543864
H401	H	0.965757	-0.136422	-1.098227
H402	H	1.465757	0.363578	-0.598227
H403	H	1.016984	-0.173193	-1.098241
H404	H	1.516984	0.326807	-0.598241
H405	H	0.832740	-0.268451	-1.063274
H406	H	1.332740	0.231549	-0.563274
H407	H	0.832736	-0.268552	-0.659637
H408	H	1.332736	0.231448	-0.159637
