data_functionalizedCrystal
_audit_creation_method	'MofGen! by Chris Wilmer'
_symmetry_space_group_name_H-M	'P1'
_symmetry_Int_Tables_number	1
_symmetry_cell_setting	triclinic
loop_
_symmetry_equiv_pos_as_xyz
  x,y,z
_cell_length_a	14.853567
_cell_length_b	15.995350
_cell_length_c	13.330367
_cell_angle_alpha	89.997588
_cell_angle_beta	89.995418
_cell_angle_gamma	83.563653
loop_
_atom_site_label
_atom_site_type_symbol
_atom_site_fract_x
_atom_site_fract_y
_atom_site_fract_z
O1	O	1.196221	0.109317	-0.083349
O2	O	0.933744	0.122339	-0.083366
O3	O	1.072158	-0.006051	-0.083356
O4	O	1.057808	0.237707	-0.083359
O5	O	1.072138	-0.006054	0.083491
O6	O	0.933724	0.122336	0.083481
O7	O	1.196201	0.109314	0.083498
Cu8	Cu	1.064961	0.115825	0.098724
Cu9	Cu	1.064985	0.115828	-0.098592
O10	O	1.057788	0.237704	0.083488
C11	C	0.900146	0.121748	0.000056
C12	C	0.800065	0.119980	0.000049
C13	C	1.071555	-0.037248	0.000065
C14	C	1.069776	-0.130201	0.000060
C15	C	0.387644	0.036238	0.000072
C16	C	0.366158	0.188769	0.000070
C17	C	0.460189	0.190432	0.000067
C18	C	0.517953	0.114996	0.000065
C19	C	0.481685	0.037899	0.000066
C20	C	0.496464	0.267528	0.000055
C21	C	0.590501	0.269194	0.000051
C22	C	0.648266	0.193758	0.000056
C23	C	0.611993	0.116657	0.000059
C24	C	0.669757	0.041221	0.000057
C25	C	0.633485	-0.035880	0.000067
C26	C	0.539450	-0.037538	0.000072
C27	C	0.742302	0.195415	0.000051
C28	C	0.763797	0.042882	0.000051
C29	C	1.063389	-0.467956	0.000063
C30	C	0.964813	-0.420636	-0.000318
C31	C	0.966592	-0.323944	0.000058
C32	C	1.066557	-0.300391	0.000061
C33	C	1.115167	-0.341414	0.095340
C34	C	1.112690	-0.438053	0.095419
C35	C	1.114749	-0.438405	-0.094317
C36	C	1.114726	-0.341460	-0.095576
C37	C	1.068353	-0.205692	0.000063
C38	C	1.061596	-0.562655	0.000067
C39	C	1.229799	0.109906	0.000074
C40	C	1.329881	0.111674	0.000074
C41	C	1.058391	0.268901	0.000064
C42	C	1.060170	0.361854	0.000064
N43	N	1.064951	0.115822	0.237506
N44	N	1.065002	0.115825	-0.237374
C45	C	1.003693	0.172657	0.710124
C46	C	1.126301	0.058993	0.710101
C47	C	1.126291	0.058990	0.605082
C48	C	1.064982	0.115823	0.552580
C49	C	1.003682	0.172658	0.605096
C50	C	1.187595	0.002162	0.552559
C51	C	1.187588	0.002158	0.447534
C52	C	1.126274	0.058987	0.395030
C53	C	1.064971	0.115824	0.447552
C54	C	1.003662	0.172656	0.395050
C55	C	0.942354	0.229490	0.447570
C56	C	0.942368	0.229487	0.552592
C57	C	1.126260	0.058989	0.290008
C58	C	1.003652	0.172657	0.290022
H59	H	0.810823	-0.018548	0.000053
H60	H	0.449427	0.328943	0.000046
N61	N	1.070226	-0.307225	-0.183997
N62	N	1.113141	-0.269488	-0.247012
H63	H	1.081715	-0.245294	-0.309456
N64	N	0.915572	-0.445241	0.084912
N65	N	0.844504	-0.479139	0.072866
H66	H	0.809727	-0.496510	0.133063
N67	N	0.350585	-0.042508	0.000092
N68	N	0.266625	-0.043986	0.000105
H69	H	0.240450	-0.099601	0.000119
H70	H	0.892454	0.275760	0.595361
H71	H	0.680529	-0.097299	0.000058
H72	H	1.237507	-0.044120	0.404778
N73	N	1.206171	-0.322063	-0.102795
N74	N	1.237471	-0.277461	-0.037275
H75	H	1.302056	-0.263757	-0.042369
H76	H	0.319121	0.250185	0.000063
N77	N	0.627532	0.347954	0.000037
N78	N	0.575947	0.415300	0.000035
H79	H	0.602100	0.470926	0.000027
H80	H	1.077227	-0.456396	0.166640
H81	H	0.771830	0.258190	0.000045
H82	H	0.928381	-0.295565	-0.068242
N83	N	0.915406	-0.443937	-0.086042
N84	N	0.952263	-0.495694	-0.147857
H85	H	0.917370	-0.512153	-0.208405
H86	H	0.928108	-0.296125	0.068470
N87	N	1.203481	-0.478395	0.100858
N88	N	1.268469	-0.435151	0.104590
H89	H	1.332589	-0.463639	0.108438
N90	N	0.941072	0.230698	0.763781
N91	N	0.941080	0.230689	0.857550
H92	H	0.896853	0.271680	0.895447
N93	N	0.502398	-0.116288	0.000092
N94	N	0.452318	-0.134231	0.070424
H95	H	0.426146	-0.189848	0.070437
N96	N	1.207291	-0.323568	0.099786
N97	N	1.224955	-0.249060	0.103987
H98	H	1.290017	-0.236452	0.107123
H99	H	1.081388	-0.313073	0.166242
N100	N	1.074347	-0.464228	-0.184916
N101	N	1.070601	-0.540639	-0.201730
H102	H	1.042061	-0.558878	-0.265712
N103	N	1.205927	-0.478135	-0.095100
N104	N	1.233069	-0.528007	-0.026525
H105	H	1.297463	-0.556067	-0.027067
N106	N	0.879744	0.287555	0.393936
N107	N	0.908348	0.339578	0.335330
H108	H	0.864132	0.380587	0.297447
N109	N	1.188799	0.000861	0.236376
N110	N	1.243481	-0.049928	0.283264
H111	H	1.287619	-0.091017	0.245388
N112	N	0.941012	0.230712	0.236411
N113	N	0.886281	0.281445	0.283319
H114	H	0.842040	0.322447	0.245457
H115	H	1.176222	0.012725	0.752851
H116	H	1.237516	-0.044106	0.595309
