data_functionalizedCrystal
_audit_creation_method	'MofGen! by Chris Wilmer'
_symmetry_space_group_name_H-M	'P1'
_symmetry_Int_Tables_number	1
_symmetry_cell_setting	triclinic
loop_
_symmetry_equiv_pos_as_xyz
  x,y,z
_cell_length_a	17.038278
_cell_length_b	17.038272
_cell_length_c	12.503572
_cell_angle_alpha	93.777379
_cell_angle_beta	86.226501
_cell_angle_gamma	91.111028
loop_
_atom_site_label
_atom_site_type_symbol
_atom_site_fract_x
_atom_site_fract_y
_atom_site_fract_z
O1	O	1.052981	0.166285	-0.089331
O2	O	0.825170	0.163579	-0.089331
O3	O	0.937721	0.051026	-0.089323
O4	O	0.940430	0.278837	-0.089340
O5	O	0.929257	0.059506	0.089319
O6	O	0.816706	0.172058	0.089310
O7	O	1.044517	0.174764	0.089310
Cu8	Cu	0.929839	0.174186	0.105621
Cu9	Cu	0.939848	0.164157	-0.105643
O10	O	0.931966	0.287317	0.089302
C11	C	0.791645	0.165356	-0.000011
C12	C	0.704362	0.158009	-0.000011
C13	C	0.210936	0.112871	-0.000011
C14	C	0.292947	0.119781	-0.000005
C15	C	0.329348	0.194154	-0.000016
C16	C	0.283731	0.261622	-0.000021
C17	C	0.201721	0.254712	-0.000019
C18	C	0.576735	0.218567	-0.000014
C19	C	0.658752	0.225472	-0.000019
C20	C	0.667962	0.083630	-0.000001
C21	C	0.585950	0.076726	-0.000006
C22	C	0.540340	0.144194	-0.000006
C23	C	0.413177	0.201219	-0.000013
C24	C	0.456513	0.137129	-0.000001
C25	C	0.931026	0.025973	-0.000002
C26	C	0.923678	-0.061310	-0.000002
C27	C	1.078042	0.172987	-0.000013
C28	C	1.165326	0.180334	-0.000020
C29	C	0.991142	-0.106920	-0.000001
C30	C	0.984233	-0.188932	-0.000011
C31	C	0.909860	-0.225333	-0.000015
C32	C	0.842392	-0.179717	-0.000020
C33	C	0.849301	-0.097707	-0.000017
C34	C	0.885450	-0.472721	-0.000030
C35	C	0.878546	-0.554738	-0.000029
C36	C	1.020388	-0.563947	-0.000023
C37	C	1.027291	-0.481934	-0.000014
C38	C	0.959822	-0.436326	-0.000024
C39	C	0.902797	-0.309162	-0.000022
C40	C	0.966887	-0.352499	-0.000025
C41	C	0.938661	0.312369	-0.000021
C42	C	0.946009	0.399653	-0.000028
N43	N	0.922805	0.181239	0.254213
N44	N	0.946888	0.157098	-0.254234
C45	C	0.912458	0.191621	0.473328
C46	C	0.957233	0.146719	0.526658
C47	C	0.951475	0.152496	0.648581
C48	C	0.918214	0.185845	0.351394
H49	H	0.330080	0.064845	0.000006
O50	O	0.175484	0.040673	0.000140
C51	C	0.123953	0.036820	0.092674
H52	H	0.106203	0.098824	0.123510
H53	H	0.069220	0.000955	0.071871
H54	H	0.154764	0.007564	0.157466
H55	H	0.794365	-0.060572	-0.000018
H56	H	0.999890	0.103939	0.480749
O57	O	0.770095	-0.214977	0.000117
C58	C	0.724260	-0.187760	0.092647
H59	H	0.747982	-0.128063	0.123495
H60	H	0.660605	-0.181723	0.071835
H61	H	0.727130	-0.231483	0.157433
H62	H	1.039169	-0.226064	-0.000008
H63	H	0.426873	0.076574	-0.000005
O64	O	1.039095	-0.317059	-0.000164
C65	C	1.051726	-0.274300	-0.092697
H66	H	0.992648	-0.259485	-0.123550
H67	H	1.085605	-0.217588	-0.071884
H68	H	1.087139	-0.311248	-0.157479
H69	H	0.164586	0.309648	-0.000023
O70	O	0.830602	-0.344621	-0.000159
C71	C	0.826741	-0.396155	-0.092695
H72	H	0.888744	-0.413894	-0.123547
H73	H	0.790891	-0.450894	-0.071887
H74	H	0.797466	-0.365351	-0.157476
H75	H	0.869804	0.234399	0.519232
H76	H	0.817978	-0.584371	-0.000015
H77	H	0.556319	0.016164	0.000002
H78	H	0.688385	0.286039	-0.000012
O79	O	0.712381	0.018178	0.000055
C80	C	0.792572	0.040219	0.000024
H81	H	0.798214	0.103719	0.033832
H82	H	0.824224	0.000017	0.051897
H83	H	0.820124	0.034744	-0.085679
O84	O	0.532557	0.284180	-0.000068
C85	C	0.582273	0.351303	-0.000055
H86	H	0.643683	0.333827	-0.033878
H87	H	0.557814	0.396446	-0.051924
H88	H	0.585523	0.377915	0.085644
H89	H	0.442823	0.261773	-0.000025
H90	H	1.051704	-0.077289	0.000008
H91	H	0.313375	0.322179	-0.000023
H92	H	1.075317	-0.601090	-0.000017
O93	O	1.099565	-0.446627	-0.000201
C94	C	1.145416	-0.473870	-0.092704
H95	H	1.105088	-0.496781	-0.157377
H96	H	1.183605	-0.423500	-0.123751
H97	H	1.184630	-0.523358	-0.071786
O98	O	0.819831	-0.428538	0.000022
C99	C	0.752710	-0.478257	-0.000000
H100	H	0.766980	-0.536463	0.033816
H101	H	0.702649	-0.448884	0.051871
H102	H	0.734225	-0.489626	-0.085701
