data_functionalizedCrystal
_audit_creation_method	'MofGen! by Chris Wilmer'
_symmetry_space_group_name_H-M	'P1'
_symmetry_Int_Tables_number	1
_symmetry_cell_setting	triclinic
loop_
_symmetry_equiv_pos_as_xyz
  x,y,z
_cell_length_a	17.699077
_cell_length_b	27.731996
_cell_length_c	16.776229
_cell_angle_alpha	89.987372
_cell_angle_beta	89.993415
_cell_angle_gamma	82.950982
loop_
_atom_site_label
_atom_site_type_symbol
_atom_site_fract_x
_atom_site_fract_y
_atom_site_fract_z
O1	O	1.003525	0.061115	-0.066288
O2	O	1.503525	0.561115	0.433712
O3	O	0.783073	0.069071	-0.066293
O4	O	1.283073	0.569071	0.433707
O5	O	0.900166	-0.005281	-0.066273
O6	O	1.400166	0.494719	0.433727
O7	O	0.886432	0.135467	-0.066308
O8	O	1.386432	0.635467	0.433692
O9	O	0.900151	-0.005286	0.066303
O10	O	1.400151	0.494714	0.566303
O11	O	0.783058	0.069066	0.066283
O12	O	1.283058	0.569066	0.566283
O13	O	1.003509	0.061110	0.066288
O14	O	1.503509	0.561110	0.566288
Zn15	Zn	0.893281	0.065087	0.087335
Zn16	Zn	1.393281	0.565087	0.587335
Zn17	Zn	0.893301	0.065093	-0.087340
Zn18	Zn	1.393301	0.565093	0.412660
O19	O	0.886416	0.135462	0.066268
O20	O	1.386416	0.635462	0.566268
C21	C	0.754871	0.068784	-0.000006
C22	C	1.254871	0.568784	0.499994
C23	C	0.670860	0.067930	-0.000007
C24	C	1.170860	0.567930	0.499993
C25	C	0.631388	0.067525	0.072262
C26	C	1.131388	0.567525	0.572262
C27	C	0.552453	0.066715	0.072263
C28	C	1.052453	0.566715	0.572263
C29	C	0.512991	0.066314	-0.000006
C30	C	1.012991	0.566314	0.499994
C31	C	0.552469	0.066717	-0.072280
C32	C	1.052469	0.566717	0.427720
C33	C	0.631403	0.067523	-0.072280
C34	C	1.131403	0.567523	0.427720
C35	C	0.234135	0.063464	-0.072280
C36	C	0.734135	0.563464	0.427720
C37	C	0.155195	0.062659	-0.072274
C38	C	0.655195	0.562659	0.427726
C39	C	0.155185	0.062656	0.072262
C40	C	0.655185	0.562656	0.572262
C41	C	0.234120	0.063462	0.072262
C42	C	0.734120	0.563462	0.572262
C43	C	0.273591	0.063863	-0.000011
C44	C	0.773591	0.563863	0.499989
C45	C	0.359182	0.064740	-0.000012
C46	C	0.859182	0.564740	0.499988
C47	C	0.427401	0.065440	-0.000006
C48	C	0.927401	0.565440	0.499994
C49	C	0.899876	-0.023292	0.000018
C50	C	1.399876	0.476708	0.500018
C51	C	0.899027	-0.076951	0.000026
C52	C	1.399027	0.423049	0.500026
C53	C	0.893688	-0.409684	-0.072281
C54	C	1.393688	0.090316	0.427719
C55	C	0.890461	-0.611354	-0.072295
C56	C	1.390461	-0.111354	0.427705
O57	O	0.890019	-0.637424	-0.133756
O58	O	1.390019	-0.137424	0.366244
N59	N	0.890052	-0.636575	-0.000028
N60	N	1.390052	-0.136575	0.499972
C61	C	0.890445	-0.611375	0.072247
C62	C	1.390445	-0.111375	0.572247
O63	O	0.890015	-0.637454	0.133714
O64	O	1.390015	-0.137454	0.633714
C65	C	0.893666	-0.409706	0.072261
C66	C	1.393666	0.090294	0.572261
C67	C	0.894083	-0.384488	-0.000011
C68	C	1.394083	0.115512	0.499989
C69	C	0.894104	-0.384466	-0.144546
C70	C	1.394104	0.115534	0.355454
C71	C	0.894915	-0.334052	-0.144542
C72	C	1.394915	0.165948	0.355458
C73	C	0.895310	-0.308856	-0.072272
C74	C	1.395310	0.191144	0.427728
C75	C	0.894894	-0.334074	-0.000007
C76	C	1.394894	0.165926	0.499993
C77	C	0.894053	-0.384506	0.144535
C78	C	1.394053	0.115494	0.644535
C79	C	0.894857	-0.334086	0.144532
C80	C	1.394857	0.165914	0.644532
C81	C	0.895274	-0.308868	0.072261
C82	C	1.395274	0.191132	0.572261
C83	C	0.896100	-0.258464	0.072267
C84	C	1.396100	0.241536	0.572267
N85	N	0.896509	-0.233243	0.000001
N86	N	1.396509	0.266757	0.500001
C87	C	0.896114	-0.258439	-0.072269
C88	C	1.396114	0.241561	0.427731
C89	C	0.888755	-0.717255	0.072235
C90	C	1.388755	-0.217255	0.572235
C91	C	0.887951	-0.767672	0.072232
C92	C	1.387951	-0.267672	0.572232
C93	C	0.887966	-0.767647	-0.072310
C94	C	1.387966	-0.267647	0.427690
C95	C	0.888775	-0.717229	-0.072306
C96	C	1.388775	-0.217229	0.427694
C97	C	0.889164	-0.692034	-0.000032
C98	C	1.389164	-0.192034	0.499968
C99	C	0.897818	-0.152566	-0.072255
C100	C	1.397818	0.347434	0.427745
C101	C	0.898632	-0.102147	-0.072244
C102	C	1.398632	0.397853	0.427756
C103	C	0.898612	-0.102176	0.072298
C104	C	1.398612	0.397824	0.572298
C105	C	0.897802	-0.152590	0.072288
C106	C	1.397802	0.347410	0.572288
C107	C	0.897402	-0.177784	0.000005
C108	C	1.397402	0.322216	0.500005
O109	O	0.896534	-0.232362	0.133696
O110	O	1.396534	0.267638	0.633696
O111	O	0.896527	-0.232350	-0.133727
O112	O	1.396527	0.267650	0.366273
C113	C	0.892877	-0.460098	-0.072285
C114	C	1.392877	0.039902	0.427715
C115	C	0.892461	-0.485316	-0.000019
C116	C	1.392461	0.014684	0.499981
C117	C	0.892856	-0.460120	0.072250
C118	C	1.392856	0.039880	0.572250
C119	C	0.891657	-0.535733	-0.000023
C120	C	1.391657	-0.035733	0.499977
C121	C	0.891262	-0.560930	-0.072292
C122	C	1.391262	-0.060930	0.427708
C123	C	0.891672	-0.535709	-0.144559
C124	C	1.391672	-0.035709	0.355441
C125	C	0.892483	-0.485294	-0.144555
C126	C	1.392483	0.014706	0.355445
C127	C	0.892447	-0.485341	0.144517
C128	C	1.392447	0.014659	0.644517
C129	C	0.891637	-0.535755	0.144507
C130	C	1.391637	-0.035755	0.644507
C131	C	0.891242	-0.560951	0.072237
C132	C	1.391242	-0.060951	0.572237
C133	C	1.031711	0.061397	-0.000001
C134	C	1.531711	0.561397	0.499999
C135	C	1.115722	0.062251	-0.000005
C136	C	1.615722	0.562251	0.499995
C137	C	0.886706	0.153473	-0.000024
C138	C	1.386706	0.653473	0.499976
C139	C	0.887556	0.207132	-0.000038
C140	C	1.387556	0.707132	0.499962
N141	N	0.893273	0.065083	0.206546
N142	N	1.393273	0.565083	0.706546
N143	N	0.893316	0.065094	-0.206551
N144	N	1.393316	0.565094	0.293449
C145	C	0.945137	0.032173	0.248272
C146	C	1.445137	0.532173	0.748272
C147	C	0.945141	0.032173	0.331725
C148	C	1.445141	0.532173	0.831725
C149	C	0.893284	0.065085	0.373449
C150	C	1.393284	0.565085	0.873449
C151	C	0.841414	0.097996	0.331717
C152	C	1.341414	0.597996	0.831717
C153	C	0.841407	0.097994	0.248267
C154	C	1.341407	0.597994	0.748267
C155	C	0.841442	0.098005	0.668265
C156	C	1.341442	0.598005	1.168265
C157	C	0.841454	0.098006	0.751721
C158	C	1.341454	0.598006	1.251721
C159	C	0.945176	0.032185	0.751722
C160	C	1.445176	0.532185	1.251722
C161	C	0.945169	0.032183	0.668272
C162	C	1.445169	0.532183	1.168272
C163	C	0.893296	0.065092	0.626547
C164	C	1.393296	0.565092	1.126547
C165	C	0.893292	0.065091	0.536059
C166	C	1.393292	0.565091	1.036059
C167	C	0.893292	0.065088	0.463936
C168	C	1.393292	0.565088	0.963936
H169	H	0.123038	0.062327	0.131111
H170	H	0.623038	0.562327	0.631111
H171	H	0.892822	-0.464767	-0.203406
H172	H	1.392822	0.035233	0.296594
C173	C	1.002178	-0.004042	0.377619
C174	C	1.502178	0.495958	0.877619
N175	N	1.045134	-0.031325	0.412187
N176	N	1.545134	0.468675	0.912187
H177	H	0.663540	0.067854	-0.131128
H178	H	1.163540	0.567854	0.368872
C179	C	0.887500	-0.795406	0.151736
C180	C	1.387500	-0.295406	0.651736
N181	N	0.887154	-0.816294	0.211622
N182	N	1.387154	-0.316294	0.711622
C183	C	0.277524	0.063903	0.151762
C184	C	0.777524	0.563903	0.651762
N185	N	0.310216	0.064232	0.211644
N186	N	0.810216	0.564232	0.711644
C187	C	1.002214	-0.004024	0.622379
C188	C	1.502214	0.495976	1.122379
N189	N	1.045179	-0.031297	0.587814
N190	N	1.545179	0.468703	1.087814
H191	H	0.799173	0.124791	0.214294
H192	H	1.299173	0.624791	0.714294
H193	H	0.520333	0.066387	-0.131122
H194	H	1.020333	0.566387	0.368878
C195	C	0.784364	0.134195	0.377618
C196	C	1.284364	0.634195	0.877618
N197	N	0.741392	0.161461	0.412189
N198	N	1.241392	0.661461	0.912189
C199	C	0.509035	0.066281	0.151764
C200	C	1.009035	0.566281	0.651764
N201	N	0.476332	0.065958	0.211648
N202	N	0.976332	0.565958	0.711648
C203	C	0.897351	-0.180331	0.151789
C204	C	1.397351	0.319669	0.651789
N205	N	0.897004	-0.201222	0.211672
N206	N	1.397004	0.298778	0.711672
H207	H	0.799223	0.124808	0.785692
H208	H	1.299223	0.624808	1.285692
H209	H	0.123067	0.062332	-0.131127
H210	H	0.623067	0.562332	0.368873
C211	C	0.895287	-0.306374	0.224042
C212	C	1.395287	0.193626	0.724042
N213	N	0.895615	-0.285502	0.283929
N214	N	1.395615	0.214498	0.783929
C215	C	0.674790	0.067967	0.151764
C216	C	1.174790	0.567967	0.651764
N217	N	0.707478	0.068297	0.211647
N218	N	1.207478	0.568297	0.711647
C219	C	0.277544	0.063901	-0.151783
C220	C	0.777544	0.563901	0.348217
N221	N	0.310243	0.064228	-0.211669
N222	N	0.810243	0.564228	0.288331
C223	C	0.897391	-0.180272	-0.151770
C224	C	1.397391	0.319728	0.348230
N225	N	0.897078	-0.201141	-0.211660
N226	N	1.397078	0.298859	0.288340
C227	C	0.899088	-0.074411	-0.151752
C228	C	1.399088	0.425589	0.348248
N229	N	0.899429	-0.053521	-0.211635
N230	N	1.399429	0.446479	0.288365
H231	H	0.895252	-0.313524	-0.203393
H232	H	1.395252	0.186476	0.296607
C233	C	0.893703	-0.412177	-0.224056
C234	C	1.393703	0.087823	0.275944
N235	N	0.893417	-0.433047	-0.283948
N236	N	1.393417	0.066953	0.216052
C237	C	0.889227	-0.689494	-0.151810
C238	C	1.389227	-0.189494	0.348190
N239	N	0.889564	-0.668606	-0.211695
N240	N	1.389564	-0.168606	0.288305
C241	C	0.893585	-0.412234	0.224041
C242	C	1.393585	0.087766	0.724041
N243	N	0.893228	-0.433117	0.283930
N244	N	1.393228	0.066883	0.783930
C245	C	1.002185	-0.004033	0.202383
C246	C	1.502185	0.495967	0.702383
N247	N	1.045152	-0.031307	0.167821
N248	N	1.545152	0.468693	0.667821
C249	C	0.887525	-0.795372	-0.151808
C250	C	1.387525	-0.295372	0.348192
N251	N	0.887187	-0.816256	-0.211682
N252	N	1.387187	-0.316256	0.288318
C253	C	0.889187	-0.689546	0.151749
C254	C	1.389187	-0.189546	0.651749
N255	N	0.889517	-0.668678	0.211639
N256	N	1.389517	-0.168678	0.711639
C257	C	1.002230	-0.004021	0.797627
C258	C	1.502230	0.495979	1.297627
N259	N	1.045203	-0.031289	0.832201
N260	N	1.545203	0.468711	1.332201
C261	C	0.784478	0.134269	0.622379
C262	C	1.284478	0.634269	1.122379
N263	N	0.741605	0.161607	0.587814
N264	N	1.241605	0.661607	1.087814
H265	H	0.898937	-0.081653	0.131138
H266	H	1.398937	0.418347	0.631138
C267	C	0.891177	-0.563489	0.224017
C268	C	1.391177	-0.063489	0.724017
N269	N	0.890822	-0.584376	0.283903
N270	N	1.390822	-0.084376	0.783903
C271	C	0.891235	-0.563434	-0.224056
C272	C	1.391235	-0.063434	0.275944
N273	N	0.890901	-0.584319	-0.283930
N274	N	1.390901	-0.084319	0.216070
H275	H	0.892770	-0.464832	0.203369
H276	H	1.392770	0.035168	0.703369
