data_functionalizedCrystal
_audit_creation_method	'MofGen! by Chris Wilmer'
_symmetry_space_group_name_H-M	'P1'
_symmetry_Int_Tables_number	1
_symmetry_cell_setting	triclinic
loop_
_symmetry_equiv_pos_as_xyz
  x,y,z
_cell_length_a	14.519709
_cell_length_b	13.596369
_cell_length_c	6.394984
_cell_angle_alpha	90.004414
_cell_angle_beta	94.912251
_cell_angle_gamma	90.000816
loop_
_atom_site_label
_atom_site_type_symbol
_atom_site_fract_x
_atom_site_fract_y
_atom_site_fract_z
O1	O	-1.226849	0.081648	0.273823
O2	O	-0.893516	0.414981	0.607156
O3	O	-0.560182	0.748314	0.940489
O4	O	-0.958723	0.081680	0.306069
O5	O	-0.625390	0.415013	0.639402
O6	O	-0.292057	0.748347	0.972735
O7	O	-1.096595	0.081661	-0.014105
O8	O	-0.763261	0.414994	0.319228
O9	O	-0.429928	0.748327	0.652562
O10	O	-1.088978	0.081667	0.593996
O11	O	-0.755644	0.415001	0.927330
O12	O	-0.422311	0.748334	1.260663
O13	O	-1.096580	-0.081922	-0.014122
O14	O	-0.763247	0.251411	0.319211
O15	O	-0.429914	0.584744	0.652545
O16	O	-0.958709	-0.081903	0.306052
O17	O	-0.625376	0.251430	0.639385
O18	O	-0.292042	0.584764	0.972718
O19	O	-1.226835	-0.081935	0.273806
O20	O	-0.893501	0.251398	0.607139
O21	O	-0.560168	0.584732	0.940472
Zn22	Zn	-1.092770	-0.107891	0.289926
Zn23	Zn	-0.759436	0.225442	0.623259
Zn24	Zn	-0.426103	0.558775	0.956593
Zn25	Zn	-1.092788	0.107636	0.289948
Zn26	Zn	-0.759455	0.440970	0.623282
Zn27	Zn	-0.426122	0.774303	0.956615
O28	O	-1.088963	-0.081916	0.593980
O29	O	-0.755630	0.251418	0.927313
O30	O	-0.422297	0.584751	1.260646
C31	C	-0.924340	-0.000107	0.304557
C32	C	-0.591007	0.333226	0.637891
C33	C	-0.257673	0.666559	0.971224
C34	C	-0.821910	-0.000095	0.300054
C35	C	-0.488576	0.333238	0.633387
C36	C	-0.155243	0.666572	0.966721
N37	N	-1.092763	-0.254983	0.289909
N38	N	-0.759430	0.078350	0.623243
N39	N	-0.426097	0.411684	0.956576
C40	C	-0.446833	-0.000136	0.283475
C41	C	-0.113500	0.333197	0.616809
C42	C	0.219833	0.666531	0.950142
C43	C	-0.551191	-0.000124	0.288079
C44	C	-0.217858	0.333209	0.621413
C45	C	0.115475	0.666542	0.954746
C46	C	-0.634368	-0.000115	0.291764
C47	C	-0.301035	0.333219	0.625097
C48	C	0.032298	0.666552	0.958431
C49	C	-0.738733	-0.000105	0.296369
C50	C	-0.405400	0.333229	0.629702
C51	C	-0.072066	0.666562	0.963036
C52	C	-1.092787	-0.656274	0.289951
C53	C	-0.759454	-0.322941	0.623284
C54	C	-0.426121	0.010393	0.956617
C55	C	-1.092778	-0.544623	0.289946
C56	C	-0.759445	-0.211289	0.623279
C57	C	-0.426111	0.122044	0.956613
C58	C	-1.092776	-0.455632	0.289932
C59	C	-0.759442	-0.122299	0.623265
C60	C	-0.426109	0.211034	0.956598
C61	C	-1.092766	-0.343974	0.289924
C62	C	-0.759432	-0.010640	0.623257
C63	C	-0.426099	0.322693	0.956591
C64	C	-0.261218	-0.000143	0.275317
C65	C	0.072115	0.333190	0.608650
C66	C	0.405449	0.666523	0.941984
C67	C	-0.363648	-0.000142	0.279820
C68	C	-0.030315	0.333191	0.613154
C69	C	0.303018	0.666525	0.946487
C70	C	-1.095073	-0.000134	0.908062
C71	C	-0.761739	0.333200	1.241396
C72	C	-0.428406	0.666533	1.574729
C73	C	-1.090483	-0.000131	0.671807
C74	C	-0.757149	0.333202	1.005141
C75	C	-0.423816	0.666535	1.338474
N76	N	-1.092802	0.254728	0.289948
N77	N	-0.759468	0.588061	0.623282
N78	N	-0.426135	0.921395	0.956615
