data_functionalizedCrystal
_audit_creation_method	'MofGen! by Chris Wilmer'
_symmetry_space_group_name_H-M	'P1'
_symmetry_Int_Tables_number	1
_symmetry_cell_setting	triclinic
loop_
_symmetry_equiv_pos_as_xyz
  x,y,z
_cell_length_a	10.654549
_cell_length_b	10.967829
_cell_length_c	9.730223
_cell_angle_alpha	77.867717
_cell_angle_beta	89.997731
_cell_angle_gamma	84.600152
loop_
_atom_site_label
_atom_site_type_symbol
_atom_site_fract_x
_atom_site_fract_y
_atom_site_fract_z
O1	O	1.667815	0.175275	-0.155766
O2	O	1.302334	0.191975	-0.159731
O3	O	1.493503	0.002047	-0.114739
O4	O	1.476646	0.365202	-0.200759
O5	O	1.493490	0.002042	0.113842
O6	O	1.302321	0.191969	0.068850
O7	O	1.667802	0.175270	0.072815
Zn8	Zn	1.485060	0.183619	0.107125
Zn9	Zn	1.485076	0.183626	-0.194041
O10	O	1.476633	0.365197	0.027823
C11	C	1.255530	0.190746	-0.045151
C12	C	1.116087	0.187078	-0.044286
C13	C	0.905557	0.295448	-0.069950
C14	C	1.036577	0.298904	-0.070777
C15	C	1.064571	0.071788	-0.016980
C16	C	0.933553	0.068333	-0.016164
C17	C	1.492269	-0.044456	0.010563
C18	C	1.488597	-0.183012	0.043374
C19	C	1.486966	-0.244777	-0.060411
C20	C	1.483170	-0.387982	-0.026502
C21	C	1.714606	0.176498	-0.041768
C22	C	1.854049	0.180167	-0.042642
C23	C	1.477867	0.411700	-0.097483
C24	C	1.481540	0.550257	-0.130302
N25	N	1.485058	0.183613	0.312662
N26	N	1.485088	0.183621	-0.399576
C27	C	1.569737	0.099549	0.404502
C28	C	1.569749	0.099550	0.548385
C29	C	1.400400	0.267689	0.508573
C30	C	1.400383	0.267682	0.364694
H31	H	0.891616	-0.025548	0.006070
O32	O	0.819801	0.416061	-0.098524
H33	H	0.877635	0.496803	-0.117665
O34	O	1.092138	0.423242	-0.100207
H35	H	1.014838	0.500420	-0.118465
H36	H	1.331461	0.336138	0.550952
H37	H	1.482938	-0.396607	-0.244269
H38	H	1.129318	-0.019263	0.004581
H39	H	1.331421	0.336137	0.289912
O40	O	1.486742	-0.253387	0.194333
H41	H	1.484069	-0.354825	0.197277
O42	O	1.488830	-0.174393	-0.211366
H43	H	1.487047	-0.241419	-0.282234
H44	H	1.638683	0.031094	0.362143
O45	O	1.481315	-0.458352	0.124464
H46	H	1.478642	-0.559790	0.127409
H47	H	1.638701	0.031096	0.623160
