data_functionalizedCrystal
_audit_creation_method	'MofGen! by Chris Wilmer'
_symmetry_space_group_name_H-M	'P1'
_symmetry_Int_Tables_number	1
_symmetry_cell_setting	triclinic
loop_
_symmetry_equiv_pos_as_xyz
  x,y,z
_cell_length_a	18.215407
_cell_length_b	12.645330
_cell_length_c	18.215407
_cell_angle_alpha	90.007295
_cell_angle_beta	90.010236
_cell_angle_gamma	90.018140
loop_
_atom_site_label
_atom_site_type_symbol
_atom_site_fract_x
_atom_site_fract_y
_atom_site_fract_z
Zn1	Zn	1.125039	-0.422202	0.416141
Zn2	Zn	1.124983	-0.599436	0.293085
Zn3	Zn	1.001992	-0.422188	0.293088
Zn4	Zn	1.001953	-0.599425	0.416110
O5	O	1.063492	-0.510813	0.354606
O6	O	1.228016	-0.445723	0.399829
O7	O	1.108662	-0.575922	0.190101
O8	O	1.018354	-0.273843	0.309426
O9	O	1.227975	-0.575936	0.309420
O10	O	1.108756	-0.273853	0.399832
O11	O	1.018300	-0.445699	0.190104
O12	O	0.899003	-0.445689	0.309396
O13	O	1.018287	-0.575918	0.519098
O14	O	0.898974	-0.575904	0.399779
O15	O	1.108718	-0.445713	0.519121
O16	O	1.108624	-0.747782	0.309390
O17	O	1.018233	-0.747774	0.399776
C18	C	0.872286	-0.510795	0.354585
C19	C	0.790487	-0.510813	0.354593
C20	C	0.602297	-0.578722	0.401597
C21	C	0.525438	-0.578726	0.401606
C22	C	0.525439	-0.442923	0.307631
C23	C	0.602296	-0.442915	0.307626
C24	C	0.640723	-0.510821	0.354608
C25	C	0.487007	-0.510832	0.354622
C26	C	0.403674	-0.510835	0.354632
C27	C	0.724062	-0.510816	0.354600
C28	C	1.063438	-0.786243	0.354596
C29	C	1.063483	-0.904073	0.354616
C30	C	1.006853	-1.071676	0.411653
C31	C	1.006563	-0.949117	0.411470
C32	C	1.042503	-0.948633	0.277057
C33	C	1.042157	-1.071231	0.277404
C34	C	1.141439	-1.071170	0.374508
C35	C	1.140961	-0.948564	0.376204
C36	C	1.255445	-0.510832	0.354628
C37	C	1.337244	-0.510840	0.354637
C38	C	1.063505	-0.510816	0.546559
C39	C	1.063510	-0.510817	0.628358
C40	C	1.063566	-0.234308	0.354632
C41	C	1.063597	-0.116478	0.354644
C42	C	1.110583	-0.443030	0.816565
C43	C	1.110579	-0.443030	0.893423
C44	C	1.016413	-0.578619	0.893389
C45	C	1.016414	-0.578613	0.816531
C46	C	1.063503	-0.510821	0.778121
C47	C	1.063498	-0.510826	0.931837
C48	C	1.063493	-0.510826	1.015171
C49	C	1.063507	-0.510819	0.694782
C50	C	1.063480	-0.510833	1.163400
C51	C	1.063491	-0.510829	1.081601
H52	H	1.019687	-0.918988	0.468979
Br53	Br	1.174487	-0.351024	0.764439
Br54	Br	1.174480	-0.351032	0.945594
H55	H	0.978071	-0.633816	0.785230
H56	H	0.978077	-0.633816	0.924671
Br57	Br	0.473291	-0.670877	0.465383
H58	H	0.633584	-0.387615	0.269362
Br59	Br	0.654446	-0.670877	0.465359
H60	H	1.019856	-1.101113	0.469351
H61	H	0.494142	-0.387638	0.269379
H62	H	0.986194	-0.918015	0.259925
Br63	Br	1.211906	-1.119474	0.305315
Br64	Br	1.167335	-0.900024	0.471341
Br65	Br	0.911271	-1.123198	0.390019
H66	H	0.985255	-1.099916	0.260576
Br67	Br	1.108047	-1.120636	0.204189
Br68	Br	0.910377	-0.900371	0.389540
H69	H	1.082523	-0.919455	0.233420
H70	H	1.185464	-0.917896	0.337706
Br71	Br	1.173344	-1.122618	0.467169
