data_functionalizedCrystal
_audit_creation_method	'MofGen! by Chris Wilmer'
_symmetry_space_group_name_H-M	'P1'
_symmetry_Int_Tables_number	1
_symmetry_cell_setting	triclinic
loop_
_symmetry_equiv_pos_as_xyz
  x,y,z
_cell_length_a	19.805407
_cell_length_b	16.120484
_cell_length_c	16.120297
_cell_angle_alpha	95.614431
_cell_angle_beta	92.877318
_cell_angle_gamma	92.925608
loop_
_atom_site_label
_atom_site_type_symbol
_atom_site_fract_x
_atom_site_fract_y
_atom_site_fract_z
Zn1	Zn	0.999910	-0.356749	-0.489476
Zn2	Zn	1.499910	0.143251	0.010524
Zn3	Zn	0.999825	-0.489439	-0.356787
Zn4	Zn	1.499825	0.010561	0.143213
Zn5	Zn	0.892767	-0.349685	-0.349720
Zn6	Zn	1.392767	0.150315	0.150280
Zn7	Zn	0.880648	-0.496480	-0.496506
Zn8	Zn	1.380648	0.003520	0.003494
O9	O	0.943287	-0.423088	-0.423122
O10	O	1.443287	0.076912	0.076878
O11	O	1.094614	-0.374360	-0.471890
O12	O	1.594614	0.125640	0.028110
O13	O	0.990659	-0.464997	-0.238887
O14	O	1.490659	0.035003	0.261113
O15	O	0.912087	-0.233657	-0.362359
O16	O	1.412087	0.266343	0.137641
O17	O	1.094551	-0.471847	-0.374403
O18	O	1.594551	0.028153	0.125597
O19	O	0.990805	-0.238847	-0.465037
O20	O	1.490805	0.261153	0.034963
O21	O	0.912004	-0.362321	-0.233695
O22	O	1.412004	0.137679	0.266305
O23	O	0.796444	-0.369148	-0.369176
O24	O	1.296444	0.130852	0.130824
O25	O	0.891432	-0.483847	-0.612536
O26	O	1.391432	0.016153	-0.112536
O27	O	0.787540	-0.476997	-0.477020
O28	O	1.287540	0.023003	0.022980
O29	O	0.979054	-0.381188	-0.607370
O30	O	1.479054	0.118812	-0.107370
O31	O	0.978908	-0.607338	-0.381220
O32	O	1.478908	-0.107338	0.118780
O33	O	0.891350	-0.612511	-0.483872
O34	O	1.391350	-0.112511	0.016128
C35	C	0.767433	-0.423071	-0.423094
C36	C	1.267433	0.076929	0.076906
C37	C	0.692200	-0.423085	-0.423103
C38	C	1.192200	0.076915	0.076897
C39	C	0.652238	-0.479318	-0.479175
C40	C	1.152238	0.020682	0.020825
C41	C	0.581549	-0.479320	-0.479187
C42	C	1.081549	0.020680	0.020813
C43	C	0.550824	-0.423092	-0.423122
C44	C	1.050824	0.076908	0.076878
C45	C	0.590791	-0.366853	-0.367048
C46	C	1.090791	0.133147	0.132952
C47	C	0.661479	-0.366847	-0.367041
C48	C	1.161479	0.133153	0.132959
C49	C	0.305716	-0.366873	-0.367077
C50	C	0.805716	0.133127	0.132923
C51	C	0.235023	-0.366884	-0.367086
C52	C	0.735023	0.133116	0.132914
C53	C	0.225786	-0.479345	-0.479223
C54	C	0.725786	0.020655	0.020777
C55	C	0.296474	-0.479340	-0.479215
C56	C	0.796474	0.020660	0.020785
C57	C	0.336435	-0.423098	-0.423144
C58	C	0.836435	0.076902	0.076856
C59	C	0.413084	-0.423095	-0.423133
C60	C	0.913084	0.076905	0.076867
C61	C	0.474176	-0.423098	-0.423129
C62	C	0.974176	0.076902	0.076871
C63	C	0.933822	-0.640253	-0.434094
C64	C	1.433822	-0.140253	0.065906
C65	C	0.929834	-0.733159	-0.438816
C66	C	1.429834	-0.233159	0.061184
C67	C	0.922555	-0.903259	-0.447454
C68	C	1.422555	-0.403259	0.052546
C69	C	0.964140	-0.942078	-0.398804
C70	C	1.464140	-0.442078	0.101196
C71	C	0.960090	-1.036727	-0.403611
C72	C	1.460090	-0.536727	0.096389
C73	C	0.926604	-0.808601	-0.442649
C74	C	1.426604	-0.308601	0.057351
C75	C	1.119828	-0.423106	-0.423151
C76	C	1.619828	0.076894	0.076849
C77	C	1.195059	-0.423114	-0.423163
C78	C	1.695059	0.076886	0.076837
C79	C	0.933901	-0.434091	-0.641128
C80	C	1.433901	0.065909	-0.141128
C81	C	0.929901	-0.438780	-0.734029
C82	C	1.429901	0.061220	-0.234029
C83	C	0.952807	-0.205076	-0.412126
C84	C	1.452807	0.294924	0.087874
C85	C	0.956864	-0.112172	-0.407440
C86	C	1.456864	0.387828	0.092560
C87	C	0.922574	-0.447321	-0.904119
C88	C	1.422574	0.052679	-0.404119
C89	C	0.964145	-0.398605	-0.942965
C90	C	1.464145	0.101395	-0.442965
C91	C	0.960068	-0.403357	-1.037609
C92	C	1.460068	0.096643	-0.537609
C93	C	0.926650	-0.442570	-0.809467
C94	C	1.426650	0.057430	-0.309467
C95	C	0.952679	-0.412068	-0.205962
C96	C	1.452679	0.087932	0.294038
C97	C	0.956820	-0.407144	-0.113049
C98	C	1.456820	0.092856	0.386951
H99	H	0.549014	-0.525112	-0.524845
H100	H	1.049014	-0.025112	-0.024845
H101	H	0.193241	-0.525137	-0.524881
H102	H	0.693241	-0.025137	-0.024881
H103	H	1.002797	-0.353326	-0.905142
H104	H	1.502797	0.146674	-0.405142
H105	H	0.210009	-0.321091	-0.321432
H106	H	0.710009	0.178909	0.178568
H107	H	1.002784	-0.904227	-0.353544
H108	H	1.502784	-0.404227	0.146456
H109	H	0.338244	-0.321083	-0.321414
H110	H	0.838244	0.178917	0.178586
H111	H	0.883914	-0.941107	-0.492709
H112	H	1.383914	-0.441107	0.007291
H113	H	0.694016	-0.321052	-0.321386
H114	H	1.194016	0.178948	0.178614
C115	C	0.685466	-0.540403	-0.540141
C116	C	1.185466	-0.040403	-0.040141
C117	C	0.635335	-0.589633	-0.589264
C118	C	1.135335	-0.089633	-0.089264
C119	C	0.665917	-0.645905	-0.645446
C120	C	1.165917	-0.145905	-0.145446
H121	H	0.712827	-0.575234	-0.510043
H122	H	1.212827	-0.075234	-0.010043
H123	H	0.712850	-0.510343	-0.575041
H124	H	1.212850	-0.010343	-0.075041
H125	H	0.607963	-0.619691	-0.554369
H126	H	1.107963	-0.119691	-0.054369
H127	H	0.607972	-0.554825	-0.619380
H128	H	1.107972	-0.054825	-0.119380
H129	H	0.693301	-0.615846	-0.680346
H130	H	1.193301	-0.115846	-0.180346
H131	H	0.693277	-0.680730	-0.615341
H132	H	1.193277	-0.180730	-0.115341
H133	H	0.631909	-0.679309	-0.678788
H134	H	1.131909	-0.179309	-0.178788
C135	C	0.329705	-0.540423	-0.540180
C136	C	0.829705	-0.040423	-0.040180
C137	C	0.279577	-0.589657	-0.589305
C138	C	0.779577	-0.089657	-0.089305
C139	C	0.310162	-0.645927	-0.645486
C140	C	0.810162	-0.145927	-0.145486
H141	H	0.357066	-0.575253	-0.510081
H142	H	0.857066	-0.075253	-0.010081
H143	H	0.357088	-0.510362	-0.575079
H144	H	0.857088	-0.010362	-0.075079
H145	H	0.252205	-0.619716	-0.554411
H146	H	0.752205	-0.119716	-0.054411
H147	H	0.252212	-0.554850	-0.619423
H148	H	0.752212	-0.054850	-0.119423
H149	H	0.337546	-0.615866	-0.680384
H150	H	0.837546	-0.115866	-0.180384
H151	H	0.337523	-0.680750	-0.615379
H152	H	0.837523	-0.180750	-0.115379
H153	H	0.276155	-0.679333	-0.678829
H154	H	0.776155	-0.179333	-0.178829
C155	C	0.557307	-0.305892	-0.306217
C156	C	1.057307	0.194108	0.193783
C157	C	0.486848	-0.317945	-0.318209
C158	C	0.986848	0.182055	0.181791
C159	C	0.455982	-0.261810	-0.262178
C160	C	0.955982	0.238190	0.237822
H161	H	0.570731	-0.250337	-0.315654
H162	H	1.070731	0.249663	0.184346
H163	H	0.570733	-0.315204	-0.250633
H164	H	1.070733	0.184796	0.249367
H165	H	0.473427	-0.308627	-0.373780
H166	H	0.973427	0.191373	0.126220
H167	H	0.473405	-0.373489	-0.308766
H168	H	0.973405	0.126511	0.191234
H169	H	0.469409	-0.271122	-0.206594
H170	H	0.969409	0.228878	0.293406
H171	H	0.469412	-0.206258	-0.271619
H172	H	0.969412	0.293742	0.228381
H173	H	0.408173	-0.269985	-0.270302
H174	H	0.908173	0.230015	0.229698
H175	H	0.883925	-0.492596	-0.941939
H176	H	1.383925	0.007404	-0.441939
