data_functionalizedCrystal
_audit_creation_method	'MofGen! by Chris Wilmer'
_symmetry_space_group_name_H-M	'P1'
_symmetry_Int_Tables_number	1
_symmetry_cell_setting	triclinic
loop_
_symmetry_equiv_pos_as_xyz
  x,y,z
_cell_length_a	14.560432
_cell_length_b	18.878441
_cell_length_c	14.560432
_cell_angle_alpha	59.992798
_cell_angle_beta	90.001726
_cell_angle_gamma	60.002364
loop_
_atom_site_label
_atom_site_type_symbol
_atom_site_fract_x
_atom_site_fract_y
_atom_site_fract_z
Zr1	Zr	0.884767	0.775393	-0.120640
O2	O	0.738115	0.923185	-0.267319
O3	O	0.929723	0.627603	-0.075657
O4	O	0.929719	0.775395	-0.267288
O5	O	0.738123	0.775390	0.075453
O6	O	1.080860	0.775393	-0.267284
O7	O	0.738119	0.775394	-0.075688
O8	O	1.080868	0.511020	0.075509
O9	O	0.738115	1.039763	-0.267340
O10	O	1.061692	0.688388	-0.056491
O11	O	0.948900	0.688388	0.056301
O12	O	0.948894	0.862393	-0.169320
O13	O	0.836103	0.862392	-0.056528
Zr14	Zr	1.125825	0.775385	0.120419
Zr15	Zr	1.125819	0.775389	-0.120634
Zr16	Zr	0.884773	0.775388	0.120413
Zr17	Zr	0.884767	0.961320	-0.120673
Zr18	Zr	1.125825	0.589457	0.120452
O19	O	1.080869	0.923174	0.075436
O20	O	1.080860	0.923181	-0.267310
O21	O	0.738123	0.923178	0.075427
O22	O	1.272477	0.627592	0.267099
O23	O	1.272468	0.627599	-0.075648
O24	O	0.929732	0.627596	0.267090
O25	O	1.272469	0.775387	-0.075674
O26	O	1.080873	0.775382	0.267068
O27	O	0.929732	0.775384	0.267064
O28	O	1.272473	0.775384	0.075467
O29	O	0.929719	1.039760	-0.267335
O30	O	1.080873	0.511017	0.267114
O31	O	1.272477	0.511014	0.267119
O32	O	1.272472	0.511018	0.075514
O33	O	0.738120	1.039759	-0.075735
O34	O	0.929724	1.039757	-0.075730
O35	O	1.061697	0.688384	0.169099
O36	O	1.174489	0.688385	0.056307
O37	O	1.061692	0.862390	-0.056522
O38	O	0.948900	0.862389	0.056270
C39	C	1.005295	0.542821	-0.000069
C40	C	1.005295	0.463890	-0.000056
C41	C	0.922025	0.491057	-0.083345
C42	C	0.922028	0.416906	-0.083372
C43	C	1.005298	0.315589	-0.000103
C44	C	1.088576	0.288423	0.083191
C45	C	1.088577	0.362573	0.083212
C46	C	1.088568	0.133876	0.083144
C47	C	1.088567	0.059720	0.083125
C48	C	0.922020	0.188209	-0.083440
C49	C	0.922020	0.262359	-0.083419
C50	C	1.005298	0.235187	-0.000124
C51	C	0.703776	0.775392	-0.000118
C52	C	0.601443	0.775394	-0.000121
C53	C	0.601415	0.775409	-0.166666
C54	C	0.553323	0.775420	-0.249938
C55	C	0.457174	0.775420	-0.249934
C56	C	0.409115	0.775406	-0.166647
C57	C	0.457207	0.775395	-0.083375
C58	C	0.553357	0.775398	-0.083390
C59	C	0.457240	0.775372	0.083172
C60	C	0.553385	0.775379	0.083166
C61	C	0.409182	0.775358	0.166459
C62	C	0.457268	0.775354	0.249728
C63	C	0.553423	0.775355	0.249720
C64	C	0.601476	0.775368	0.166438
C65	C	1.306816	0.775385	-0.000103
C66	C	1.409149	0.775383	-0.000100
C67	C	1.005288	0.775395	-0.301631
C68	C	1.005286	0.775397	-0.403965
C69	C	1.005297	1.007956	-0.000151
C70	C	1.005297	1.086887	-0.000165
C71	C	0.887513	0.957060	-0.521777
C72	C	0.828626	1.047888	-0.628755
C73	C	0.828629	1.047884	-0.724902
C74	C	0.887529	0.957041	-0.714066
C75	C	0.946416	0.866213	-0.607088
C76	C	0.946403	0.866227	-0.510945
C77	C	1.064194	0.684552	-0.489277
C78	C	1.064185	0.684554	-0.393129
C79	C	1.123093	0.593710	-0.478441
C80	C	1.181975	0.502879	-0.371461
C81	C	1.181969	0.502887	-0.275311
C82	C	1.123073	0.593726	-0.286150
C83	C	1.005304	0.775383	0.301411
C84	C	1.005306	0.775380	0.403744
C85	C	1.306815	0.542817	-0.000062
C86	C	1.409148	0.463885	-0.000045
C87	C	1.005303	0.542815	0.301451
C88	C	1.005306	0.463882	0.403799
C89	C	1.306823	0.542811	0.301459
C90	C	1.409158	0.463876	0.403809
C91	C	0.703769	1.007966	-0.301680
C92	C	0.601434	1.086901	-0.404030
C93	C	0.703777	1.007960	-0.000159
C94	C	0.601444	1.086893	-0.000176
C95	C	1.005289	1.007962	-0.301672
C96	C	1.005286	1.086895	-0.404020
C97	C	1.398325	0.426819	-0.058927
C98	C	1.494468	0.352664	-0.058934
C99	C	1.601433	0.315570	-0.000052
C100	C	1.612254	0.352643	0.058832
C101	C	1.516111	0.426802	0.058831
C102	C	1.064186	0.426812	0.510752
C103	C	1.064184	0.352656	0.606927
C104	C	1.005307	0.315566	0.596147
C105	C	0.946420	0.352643	0.489183
C106	C	0.946416	0.426803	0.393010
C107	C	1.516102	0.426808	0.392997
C108	C	1.612266	0.352651	0.489157
C109	C	1.601484	0.315558	0.596127
C110	C	1.494529	0.352634	0.606937
C111	C	1.398367	0.426795	0.510778
C112	C	0.494490	1.123978	-0.393218
C113	C	0.398326	1.198158	-0.489378
C114	C	0.409108	1.235255	-0.596348
C115	C	0.516063	1.198174	-0.607157
C116	C	0.612225	1.124001	-0.510999
C117	C	0.612267	1.123966	0.058696
C118	C	0.516123	1.198142	0.058677
C119	C	0.409159	1.235238	-0.000209
C120	C	0.398338	1.198161	-0.059088
C121	C	0.494480	1.123992	-0.059074
C122	C	1.064174	1.123962	-0.393203
C123	C	1.064194	1.198118	-0.489360
C124	C	1.005319	1.235212	-0.596332
C125	C	0.946429	1.198138	-0.607146
C126	C	0.946416	1.123978	-0.510990
H127	H	0.854216	0.210332	-0.151267
H128	H	1.005320	0.255181	0.674467
Br129	Br	0.278699	0.775347	0.166475
Br130	Br	0.887480	0.957072	-0.391295
H131	H	0.780674	1.121850	-0.637566
H132	H	1.112118	1.093771	-0.306110
H133	H	1.229932	0.428923	-0.362651
H134	H	0.679697	0.775422	-0.166685
H135	H	1.699357	0.322431	0.106771
H136	H	1.156384	0.340446	0.151036
H137	H	1.156381	0.205924	0.150986
H138	H	1.524939	0.456972	0.106787
H139	H	0.898494	1.228352	-0.694256
Br140	Br	1.144116	1.248420	-0.474658
H141	H	1.679794	0.255172	0.674416
Br142	Br	0.278590	1.335921	-0.726839
H143	H	1.005337	1.295598	-0.674620
H144	H	0.780682	1.121844	-0.812009
H145	H	0.699354	1.093768	0.106655
Br146	Br	1.479915	0.302283	0.752120
Br147	Br	0.866522	0.302296	0.474572
H148	H	0.524829	1.228388	-0.694264
Br149	Br	0.253162	1.248514	-0.138995
Br150	Br	0.866479	1.073691	-0.525690
Br151	Br	0.887551	0.957037	-0.844553
H152	H	1.123097	0.593713	-0.556734
H153	H	0.898472	0.456976	0.305928
Br154	Br	0.809003	0.628556	-0.196353
H155	H	1.699345	0.322472	0.480336
Br156	Br	0.809012	0.453782	-0.196411
Br157	Br	1.261907	0.379613	-0.130129
H158	H	0.330883	1.295631	-0.000211
Br159	Br	1.530767	0.477137	0.247836
H160	H	1.311292	0.456966	0.519597
Br161	Br	1.123049	0.593744	-0.155672
Br162	Br	0.392053	0.775321	0.362756
Br163	Br	0.808999	0.399861	-0.196417
H164	H	0.485689	1.093778	-0.306126
Br165	Br	0.253187	1.248463	-0.474681
Br166	Br	1.253171	0.477146	-0.138852
H167	H	0.679763	0.775374	0.166420
H168	H	1.485636	0.322488	-0.106884
H169	H	0.330833	0.775393	-0.166642
H170	H	1.156372	-0.022775	0.150930
H171	H	1.156383	0.111743	0.150971
H172	H	0.592578	0.775340	0.317534
H173	H	0.592462	0.775429	-0.317747
H174	H	1.679709	0.255184	-0.000060
Br175	Br	0.391912	0.775424	-0.362939
Br176	Br	0.757360	1.073686	-0.525693
Br177	Br	0.530835	1.248442	0.138593
Br178	Br	1.144105	0.477127	0.525413
Br179	Br	1.144110	0.302352	0.752078
H180	H	0.485653	1.093809	-0.107012
