data_functionalizedCrystal
_audit_creation_method	'MofGen! by Chris Wilmer'
_symmetry_space_group_name_H-M	'P1'
_symmetry_Int_Tables_number	1
_symmetry_cell_setting	triclinic
loop_
_symmetry_equiv_pos_as_xyz
  x,y,z
_cell_length_a	6.817900
_cell_length_b	12.200722
_cell_length_c	14.125465
_cell_angle_alpha	94.993976
_cell_angle_beta	100.398878
_cell_angle_gamma	107.140920
loop_
_atom_site_label
_atom_site_type_symbol
_atom_site_fract_x
_atom_site_fract_y
_atom_site_fract_z
V1	V	-4.009703	-0.157727	-0.300078
V2	V	-3.509703	0.342273	0.199922
O3	O	-3.978506	0.008593	-0.294261
O4	O	-3.478506	0.508593	0.205739
O5	O	-3.979643	-0.313722	-0.298127
O6	O	-3.479643	0.186278	0.201873
O7	O	-3.945510	-0.154856	-0.430906
O8	O	-3.445510	0.345144	0.069094
O9	O	-4.012876	-0.151372	-0.160562
O10	O	-3.512876	0.348628	0.339438
V11	V	-4.493001	-0.137886	-0.283378
V12	V	-3.993001	0.362114	0.216622
O13	O	-4.271455	-0.201251	-0.336710
O14	O	-3.771455	0.298749	0.163290
O15	O	-4.681446	-0.094362	-0.246747
O16	O	-4.181446	0.405638	0.253253
O17	O	-4.299854	0.018109	-0.285330
O18	O	-3.799854	0.518109	0.214670
O19	O	-4.641594	-0.304206	-0.289196
O20	O	-4.141594	0.195794	0.210804
O21	O	-4.607225	-0.144241	-0.422894
O22	O	-4.107225	0.355759	0.077106
O23	O	-4.333987	-0.140757	-0.152550
O24	O	-3.833987	0.359243	0.347450
C25	C	-3.829616	-0.351764	-0.293419
C26	C	-3.329616	0.148236	0.206581
C27	C	-3.886221	-0.479288	-0.292696
C28	C	-3.386221	0.020712	0.207304
C29	C	-3.932184	-0.582851	-0.292099
C30	C	-3.432184	-0.082851	0.207901
C31	C	-3.989867	-0.712776	-0.291356
C32	C	-3.489867	-0.212776	0.208644
C33	C	-3.786076	-0.149113	-0.462791
C34	C	-3.286076	0.350887	0.037209
C35	C	-3.814996	-0.147798	-0.569744
C36	C	-3.314996	0.352202	-0.069744
C37	C	-3.868005	-0.145386	-0.765566
C38	C	-3.368005	0.354614	-0.265566
C39	C	-4.054067	-0.150225	-0.817890
C40	C	-3.554067	0.349775	-0.317890
C41	C	-4.083564	-0.148882	-0.926852
C42	C	-3.583564	0.351118	-0.426852
C43	C	-3.838500	-0.146728	-0.656594
C44	C	-3.338500	0.353272	-0.156594
C45	C	-4.113223	0.056145	-0.290035
C46	C	-3.613223	0.556145	0.209965
C47	C	-4.035857	0.183668	-0.290764
C48	C	-3.535857	0.683668	0.209236
C49	C	-4.156764	-0.146503	-0.120660
C50	C	-3.656764	0.353497	0.379340
C51	C	-4.107082	-0.147813	-0.013706
C52	C	-3.607082	0.352187	0.486294
H53	H	-4.191212	-0.155386	-0.780855
H54	H	-3.691212	0.344614	-0.280855
Cl55	Cl	-3.656291	-0.137448	-0.822746
Cl56	Cl	-3.156291	0.362552	-0.322746
