data_functionalizedCrystal
_audit_creation_method	'MofGen! by Chris Wilmer'
_symmetry_space_group_name_H-M	'P1'
_symmetry_Int_Tables_number	1
_symmetry_cell_setting	triclinic
loop_
_symmetry_equiv_pos_as_xyz
  x,y,z
_cell_length_a	16.959455
_cell_length_b	29.839131
_cell_length_c	16.959447
_cell_angle_alpha	89.958432
_cell_angle_beta	89.979626
_cell_angle_gamma	90.032247
loop_
_atom_site_label
_atom_site_type_symbol
_atom_site_fract_x
_atom_site_fract_y
_atom_site_fract_z
Zn1	Zn	1.208301	-0.178880	-0.446975
Zn2	Zn	1.208188	-0.254013	-0.314770
Zn3	Zn	1.076129	-0.178894	-0.314798
Zn4	Zn	1.076059	-0.253980	-0.446895
O5	O	1.142169	-0.216442	-0.380859
O6	O	1.318897	-0.188855	-0.429459
O7	O	1.190653	-0.244069	-0.204163
O8	O	1.093738	-0.116025	-0.332377
O9	O	1.318814	-0.244055	-0.332329
O10	O	1.190844	-0.116015	-0.429486
O11	O	1.093629	-0.188879	-0.204183
O12	O	0.965509	-0.188847	-0.332299
O13	O	1.093619	-0.243998	-0.557516
O14	O	0.965457	-0.244012	-0.429350
O15	O	1.190776	-0.188822	-0.557575
O16	O	1.190584	-0.316876	-0.332251
O17	O	1.093509	-0.316852	-0.429323
C18	C	0.936803	-0.216427	-0.380819
C19	C	0.848946	-0.216432	-0.380821
C20	C	0.477417	-0.245156	-0.330258
C21	C	0.477524	-0.187765	-0.431557
C22	C	0.560070	-0.187758	-0.431538
C23	C	0.601293	-0.216450	-0.380879
C24	C	0.559971	-0.245151	-0.330239
C25	C	0.601399	-0.159061	-0.482182
C26	C	0.683950	-0.159053	-0.482166
C27	C	0.725175	-0.187744	-0.431502
C28	C	0.683847	-0.216445	-0.380860
C29	C	0.725070	-0.245138	-0.330200
C30	C	0.683744	-0.273837	-0.279553
C31	C	0.601195	-0.273842	-0.279575
C32	C	0.807723	-0.187739	-0.431480
C33	C	0.807623	-0.245132	-0.330181
C34	C	1.142049	-0.333165	-0.380793
C35	C	1.142069	-0.383099	-0.380791
C36	C	1.192721	-0.692702	-0.431496
C37	C	1.192807	-0.880375	-0.431544
O38	O	1.235755	-0.904606	-0.474606
N39	N	1.142303	-0.903884	-0.380947
C40	C	1.091771	-0.880472	-0.330338
O41	O	1.048811	-0.904774	-0.287310
C42	C	1.091682	-0.692800	-0.330296
C43	C	1.142194	-0.669293	-0.380890
C44	C	1.243229	-0.669195	-0.482087
C45	C	1.243210	-0.622280	-0.482072
C46	C	1.192683	-0.598871	-0.431465
C47	C	1.142175	-0.622378	-0.380875
C48	C	1.041146	-0.669388	-0.279692
C49	C	1.041127	-0.622467	-0.279687
C50	C	1.091639	-0.598961	-0.330281
C51	C	1.091630	-0.552053	-0.330253
N52	N	1.142133	-0.528544	-0.380850
C53	C	1.192660	-0.551953	-0.431456
C54	C	1.091823	-0.979002	-0.330363
C55	C	1.091846	-1.025920	-0.330373
C56	C	1.192881	-1.025820	-0.431580
C57	C	1.192861	-0.978902	-0.431565
C58	C	1.142326	-0.955493	-0.380960
C59	C	1.192617	-0.453427	-0.431419
C60	C	1.192596	-0.406508	-0.431397
C61	C	1.091558	-0.406612	-0.330194
C62	C	1.091582	-0.453527	-0.330213
C63	C	1.142114	-0.476934	-0.380832
O64	O	1.048698	-0.527794	-0.287219
O65	O	1.235601	-0.527643	-0.474491
C66	C	1.192740	-0.739617	-0.431512
C67	C	1.142232	-0.763124	-0.380921
C68	C	1.091706	-0.739715	-0.330314
C69	C	1.142255	-0.810042	-0.380930
C70	C	1.192782	-0.833451	-0.431537
C71	C	1.243286	-0.809942	-0.482133
C72	C	1.243267	-0.763026	-0.482118
C73	C	1.041202	-0.763224	-0.279718
C74	C	1.041226	-0.810140	-0.279737
C75	C	1.091752	-0.833548	-0.330343
C76	C	1.348337	-0.216457	-0.380900
C77	C	1.436194	-0.216463	-0.380917
C78	C	1.142202	-0.216405	-0.587028
C79	C	1.142216	-0.216389	-0.674884
C80	C	1.142312	-0.099264	-0.380943
C81	C	1.142372	-0.049329	-0.380979
C82	C	1.091725	-0.245069	-1.046332
C83	C	1.192896	-0.187614	-1.046388
C84	C	1.192875	-0.187624	-0.963842
C85	C	1.142279	-0.216357	-0.922537
C86	C	1.091704	-0.245080	-0.963778
C87	C	1.243455	-0.158904	-0.922595
C88	C	1.243436	-0.158913	-0.840044
C89	C	1.192836	-0.187644	-0.798738
C90	C	1.142258	-0.216368	-0.839984
C91	C	1.091662	-0.245101	-0.798679
C92	C	1.041080	-0.273823	-0.839924
C93	C	1.041103	-0.273811	-0.922472
C94	C	1.192812	-0.187656	-0.716189
C95	C	1.091641	-0.245112	-0.716125
C96	C	1.142182	-0.216447	-0.175493
C97	C	1.142321	-0.216336	-0.087637
H98	H	0.841367	-0.164374	-0.472718
O99	O	1.241745	-0.476208	-0.480480
C100	C	1.292858	-0.503338	-0.435543
H101	H	1.265022	-0.510418	-0.375618
H102	H	1.351426	-0.485228	-0.426904
C103	C	1.341364	-0.539173	-0.552674
C104	C	1.307173	-0.547873	-0.479076
H105	H	1.350198	-0.566645	-0.579528
H106	H	1.306931	-0.520895	-0.582949
H107	H	1.390168	-0.524081	-0.545464
H108	H	1.258366	-0.562960	-0.486287
H109	H	1.341598	-0.566156	-0.448802
O110	O	0.992112	-0.833019	-0.230696
C111	C	0.941027	-0.860145	-0.275663
H112	H	0.968876	-0.867136	-0.335589
H113	H	0.882445	-0.842079	-0.284294
C114	C	0.892533	-0.896153	-0.158568
C115	C	0.926741	-0.904742	-0.232169
H116	H	0.883718	-0.923662	-0.131739
H117	H	0.926948	-0.877877	-0.128273
H118	H	0.843719	-0.881097	-0.165772
H119	H	0.975559	-0.919793	-0.224964
H120	H	0.892334	-0.923022	-0.262462
H121	H	0.841182	-0.268496	-0.288925
H122	H	0.567540	-0.297207	-0.238341
O123	O	0.561479	-0.131179	-0.531468
C124	C	0.615653	-0.105842	-0.576154
H125	H	0.674485	-0.124240	-0.578813
H126	H	0.624441	-0.071700	-0.547331
C127	C	0.511226	-0.076838	-0.657043
C128	C	0.583483	-0.099437	-0.660314
H129	H	0.491382	-0.072885	-0.708956
H130	H	0.474728	-0.093907	-0.626935
H131	H	0.518559	-0.048388	-0.633020
H132	H	0.576148	-0.127888	-0.684327
H133	H	0.619980	-0.082373	-0.690428
O134	O	1.241832	-0.159738	-0.676037
C135	C	1.196857	-0.130715	-0.628323
H136	H	1.136930	-0.146553	-0.615939
H137	H	1.188229	-0.097417	-0.660165
C138	C	1.313940	-0.103144	-0.565131
C139	C	1.240338	-0.122599	-0.549915
H140	H	1.340762	-0.098136	-0.516766
H141	H	1.344242	-0.122697	-0.597278
H142	H	1.306739	-0.075398	-0.591667
H143	H	1.247540	-0.150347	-0.523387
H144	H	1.210039	-0.103051	-0.517761
O145	O	0.724125	-0.131238	-0.531442
C146	C	0.771904	-0.156844	-0.582382
H147	H	0.747008	-0.192233	-0.587151
H148	H	0.834451	-0.158368	-0.557922
C149	C	0.803815	-0.091486	-0.658769
C150	C	0.773233	-0.134951	-0.664632
H151	H	0.804638	-0.077981	-0.709504
H152	H	0.771627	-0.074234	-0.624448
H153	H	0.855934	-0.092762	-0.638382
H154	H	0.721111	-0.133674	-0.685009
H155	H	0.805411	-0.152202	-0.698958
H156	H	1.233732	-0.387370	-0.472597
H157	H	1.284399	-0.743891	-0.523317
O158	O	0.437314	-0.272987	-0.280950
C159	C	0.457468	-0.263120	-0.202202
H160	H	0.480185	-0.227226	-0.198330
H161	H	0.505356	-0.287188	-0.181451
C162	C	0.356205	-0.312404	-0.154199
C163	C	0.384100	-0.268316	-0.149442
H164	H	0.310950	-0.315611	-0.121652
H165	H	0.342628	-0.319053	-0.207253
H166	H	0.396118	-0.332455	-0.136908
H167	H	0.344191	-0.248266	-0.166742
H168	H	0.397668	-0.261664	-0.096389
H169	H	1.234093	-0.164224	-1.080024
H170	H	0.717318	-0.297201	-0.238311
O171	O	1.292391	-0.691861	-0.531274
C172	C	1.336943	-0.661043	-0.575932
H173	H	1.339670	-0.627615	-0.543544
H174	H	1.307960	-0.656038	-0.635935
C175	C	1.417729	-0.720356	-0.627188
C176	C	1.421083	-0.679299	-0.587406
H177	H	1.469629	-0.731617	-0.634270
H178	H	1.387712	-0.741119	-0.597104
H179	H	1.393572	-0.716179	-0.677186
H180	H	1.445230	-0.683478	-0.537405
H181	H	1.451107	-0.658538	-0.617482
O182	O	1.292252	-0.832707	-0.531378
C183	C	1.247215	-0.859849	-0.582369
H184	H	1.184956	-0.845729	-0.587183
H185	H	1.244514	-0.895418	-0.557929
C186	C	1.362238	-0.877862	-0.658671
C187	C	1.285772	-0.860519	-0.664588
H188	H	1.386023	-0.878278	-0.709386
H189	H	1.392581	-0.859578	-0.624316
H190	H	1.359977	-0.907502	-0.638301
H191	H	1.288035	-0.830878	-0.684948
H192	H	1.255430	-0.878798	-0.698949
O193	O	1.042710	-1.048682	-0.281194
C194	C	0.998125	-1.017954	-0.236517
H195	H	0.995357	-0.984496	-0.268887
H196	H	1.027107	-1.012979	-0.176513
C197	C	0.917412	-1.077399	-0.185285
C198	C	0.914007	-1.036307	-0.225046
H199	H	0.865525	-1.088720	-0.178206
H200	H	0.947451	-1.098102	-0.215383
H201	H	0.941568	-1.073247	-0.135286
H202	H	0.889862	-1.040460	-0.275047
H203	H	0.883962	-1.015605	-0.194957
H204	H	0.999888	-0.297220	-0.806282
H205	H	0.999973	-0.603411	-0.238479
O206	O	0.992097	-0.740558	-0.230478
C207	C	0.947517	-0.771373	-0.185843
H208	H	0.979912	-0.804804	-0.183162
H209	H	0.887465	-0.776375	-0.214724
C210	C	0.896390	-0.712059	-0.104986
C211	C	0.936183	-0.753118	-0.101688
H212	H	0.889395	-0.700798	-0.053076
H213	H	0.926422	-0.691298	-0.135059
H214	H	0.846352	-0.716233	-0.129057
H215	H	0.986224	-0.748942	-0.077627
H216	H	0.906159	-0.773878	-0.071609
O217	O	1.292480	-0.130943	-0.800026
C218	C	1.275267	-0.086167	-0.820265
H219	H	1.212129	-0.083899	-0.842952
H220	H	1.317667	-0.074424	-0.868202
C221	C	1.362029	-0.058972	-0.719109
C222	C	1.284478	-0.056185	-0.746967
H223	H	1.367713	-0.040477	-0.673897
H224	H	1.373628	-0.089138	-0.705475
H225	H	1.397353	-0.049187	-0.759064
H226	H	1.249156	-0.065976	-0.707016
H227	H	1.272873	-0.026020	-0.760593
O228	O	1.042445	-0.476295	-0.281037
C229	C	0.997863	-0.445570	-0.236351
H230	H	0.995099	-0.412109	-0.268710
H231	H	1.026845	-0.440602	-0.176345
C232	C	0.917144	-0.505018	-0.185139
C233	C	0.913743	-0.463922	-0.224887
H234	H	0.865256	-0.516338	-0.178064
H235	H	0.947181	-0.525719	-0.215243
H236	H	0.941299	-0.500872	-0.135139
H237	H	0.889598	-0.468069	-0.274890
H238	H	0.883700	-0.443222	-0.194792
H239	H	0.999925	-0.297197	-0.956061
O240	O	1.042503	-0.383798	-0.281113
C241	C	1.053335	-0.337348	-0.291944
H242	H	1.079188	-0.330903	-0.352967
H243	H	1.095449	-0.324036	-0.245096
C244	C	0.941603	-0.321213	-0.209678
C245	C	0.973350	-0.313296	-0.284630
H246	H	0.892266	-0.306375	-0.205163
H247	H	0.934307	-0.352507	-0.202378
H248	H	0.976706	-0.310119	-0.170646
H249	H	0.938252	-0.324394	-0.323659
H250	H	0.980638	-0.282003	-0.291936
H251	H	1.050432	-0.268507	-0.682501
O252	O	1.292491	-0.130951	-0.962756
C253	C	1.247539	-0.101932	-1.010542
H254	H	1.185286	-0.099149	-0.985655
H255	H	1.244806	-0.115817	-1.073089
C256	C	1.362686	-0.058653	-1.042434
C257	C	1.286226	-0.055232	-1.011863
H258	H	1.386551	-0.029847	-1.043253
H259	H	1.392972	-0.078205	-1.010242
H260	H	1.360397	-0.070226	-1.094554
H261	H	1.288517	-0.043665	-0.959741
H262	H	1.255942	-0.035677	-1.044046
H263	H	0.443956	-0.164407	-0.472806
H264	H	1.284339	-0.603144	-0.523272
H265	H	1.233992	-0.959765	-0.472764
H266	H	1.000014	-0.688519	-0.238492
H267	H	1.234023	-1.044888	-0.472784
H268	H	1.050540	-0.268453	-1.079917
H269	H	1.050670	-0.959947	-0.289153
