data_functionalizedCrystal
_audit_creation_method	'MofGen! by Chris Wilmer'
_symmetry_space_group_name_H-M	'P1'
_symmetry_Int_Tables_number	1
_symmetry_cell_setting	triclinic
loop_
_symmetry_equiv_pos_as_xyz
  x,y,z
_cell_length_a	14.519709
_cell_length_b	10.540539
_cell_length_c	12.996460
_cell_angle_alpha	89.996006
_cell_angle_beta	90.000034
_cell_angle_gamma	84.102818
loop_
_atom_site_label
_atom_site_type_symbol
_atom_site_fract_x
_atom_site_fract_y
_atom_site_fract_z
O1	O	1.224765	0.166400	-0.085428
O2	O	1.724765	0.666400	0.414572
O3	O	0.956394	0.185995	-0.085459
O4	O	1.456394	0.685995	0.414541
O5	O	1.096702	-0.008571	-0.085441
O6	O	1.596702	0.491429	0.414559
O7	O	1.084457	0.360967	-0.085445
O8	O	1.584457	0.860967	0.414555
O9	O	1.096688	-0.008582	0.085693
O10	O	1.596688	0.491418	0.585693
O11	O	0.956379	0.185985	0.085675
O12	O	1.456379	0.685985	0.585675
O13	O	1.224751	0.166389	0.085706
O14	O	1.724751	0.666389	0.585706
Cu15	Cu	1.090563	0.176186	0.101316
Cu16	Cu	1.590563	0.676186	0.601316
Cu17	Cu	1.090581	0.176199	-0.101069
Cu18	Cu	1.590581	0.676199	0.398931
O19	O	1.084442	0.360956	0.085689
O20	O	1.584442	0.860956	0.585689
C21	C	0.922022	0.185077	0.000104
C22	C	1.422022	0.685077	0.500104
C23	C	0.819626	0.182340	0.000092
C24	C	1.319626	0.682340	0.500092
C25	C	0.444676	0.172265	0.000139
C26	C	0.944676	0.672265	0.500139
C27	C	0.548999	0.175063	0.000126
C28	C	1.048999	0.675063	0.500126
C29	C	0.632148	0.177303	0.000115
C30	C	1.132148	0.677303	0.500115
C31	C	0.736477	0.180101	0.000103
C32	C	1.236477	0.680101	0.500103
C33	C	1.095777	-0.055870	0.000124
C34	C	1.595777	0.444130	0.500124
C35	C	1.093029	-0.196790	0.000118
C36	C	1.593029	0.303210	0.500118
C37	C	0.987750	-0.379142	-0.000278
C38	C	1.487750	0.120858	0.499722
C39	C	0.990535	-0.232553	0.000107
C40	C	1.490535	0.267447	0.500107
C41	C	1.142346	-0.258958	0.097849
C42	C	1.642346	0.241042	0.597849
C43	C	1.138848	-0.405467	0.097931
C44	C	1.638848	0.094533	0.597931
C45	C	1.140949	-0.405994	-0.096680
C46	C	1.640949	0.094006	0.403320
C47	C	1.141893	-0.259021	-0.097972
C48	C	1.641893	0.240979	0.402028
C49	C	1.259123	0.167308	0.000141
C50	C	1.759123	0.667308	0.500141
C51	C	1.361519	0.170044	0.000146
C52	C	1.861519	0.670044	0.500146
C53	C	1.085368	0.408255	0.000121
C54	C	1.585368	0.908255	0.500121
C55	C	1.088115	0.549175	0.000120
C56	C	1.588115	1.049175	0.500120
N57	N	1.090558	0.176176	0.243664
N58	N	1.590558	0.676176	0.743664
N59	N	1.090594	0.176198	-0.243416
N60	N	1.590594	0.676198	0.256584
C61	C	1.090580	0.176200	0.663478
C62	C	1.590580	0.676200	1.163478
C63	C	1.090571	0.176198	0.546673
C64	C	1.590571	0.676198	1.046673
C65	C	1.090569	0.176189	0.453574
C66	C	1.590569	0.676189	0.953574
C67	C	1.090560	0.176185	0.336762
C68	C	1.590560	0.676185	0.836762
H69	H	0.951730	-0.189549	-0.069951
H70	H	1.451730	0.310451	0.430049
H71	H	1.214980	-0.453975	-0.097328
H72	H	1.714980	0.046025	0.402672
H73	H	1.212560	-0.454188	0.102373
H74	H	1.712560	0.045812	0.602373
H75	H	1.217614	-0.237372	0.101491
H76	H	1.717614	0.262628	0.601491
O77	O	0.934107	-0.416489	-0.093096
O78	O	1.434107	0.083511	0.406904
H79	H	0.978402	-0.486545	-0.139937
H80	H	1.478402	0.013455	0.360063
O81	O	1.096961	-0.202081	0.194184
O82	O	1.596961	0.297919	0.694184
H83	H	1.039289	-0.129556	0.172703
H84	H	1.539289	0.370444	0.672703
H85	H	1.102388	-0.433299	0.170979
H86	H	1.602388	0.066701	0.670979
H87	H	0.947421	-0.408943	0.069405
H88	H	1.447421	0.091057	0.569405
O89	O	1.097051	-0.447325	-0.194822
O90	O	1.597051	0.052675	0.305178
H91	H	1.023937	-0.404825	-0.198306
H92	H	1.523937	0.095175	0.301694
O93	O	1.094172	-0.204306	-0.193751
O94	O	1.594172	0.295694	0.306249
H95	H	1.035896	-0.133080	-0.171599
H96	H	1.535896	0.366920	0.328401
O97	O	1.240882	-0.227965	-0.105785
O98	O	1.740882	0.272035	0.394215
H99	H	1.256871	-0.167427	-0.039578
H100	H	1.756871	0.332573	0.460422
H101	H	0.951445	-0.190402	0.070273
H102	H	1.451445	0.309598	0.570273
