data_functionalizedCrystal
_audit_creation_method	'MofGen! by Chris Wilmer'
_symmetry_space_group_name_H-M	'P1'
_symmetry_Int_Tables_number	1
_symmetry_cell_setting	triclinic
loop_
_symmetry_equiv_pos_as_xyz
  x,y,z
_cell_length_a	18.101395
_cell_length_b	12.759401
_cell_length_c	12.759393
_cell_angle_alpha	89.981565
_cell_angle_beta	89.967511
_cell_angle_gamma	90.030148
loop_
_atom_site_label
_atom_site_type_symbol
_atom_site_fract_x
_atom_site_fract_y
_atom_site_fract_z
Zn1	Zn	-0.294812	1.606134	-0.593970
Zn2	Zn	-0.418671	1.605979	-0.418284
Zn3	Zn	-0.294846	1.430437	-0.418309
Zn4	Zn	-0.418614	1.430375	-0.593925
O5	O	-0.356736	1.518231	-0.506122
O6	O	-0.311252	1.753135	-0.570673
O7	O	-0.402284	1.582654	-0.271266
O8	O	-0.191209	1.453834	-0.441640
O9	O	-0.402251	1.753020	-0.441597
O10	O	-0.191183	1.582919	-0.570697
O11	O	-0.311310	1.453684	-0.271284
O12	O	-0.311255	1.283407	-0.441596
O13	O	-0.402153	1.453729	-0.740952
O14	O	-0.402186	1.283362	-0.570621
O15	O	-0.311196	1.582859	-0.740985
O16	O	-0.522297	1.582593	-0.441554
O17	O	-0.522255	1.453578	-0.570597
C18	C	-0.356718	1.245264	-0.506107
C19	C	-0.356729	1.128487	-0.506126
C20	C	-0.309435	1.073678	-0.573440
C21	C	-0.309449	0.963953	-0.573446
C22	C	-0.404057	0.963858	-0.438822
C23	C	-0.404039	1.073580	-0.438811
C24	C	-0.254816	1.073732	-0.651167
C25	C	-0.254830	0.964008	-0.651174
C26	C	-0.549146	1.518090	-0.506091
C27	C	-0.631460	1.518126	-0.506113
C28	C	-0.930551	1.518357	-0.506169
C29	C	-0.899231	1.437372	-0.587561
C30	C	-0.813613	1.436987	-0.587307
C31	C	-0.782169	1.518243	-0.506142
C32	C	-0.813327	1.488262	-0.395417
C33	C	-0.898972	1.487740	-0.395904
C34	C	-0.898895	1.629499	-0.534528
C35	C	-0.813243	1.628846	-0.536956
C36	C	-0.698309	1.518180	-0.506120
C37	C	-1.014411	1.518417	-0.506184
C38	C	-0.163574	1.518401	-0.506176
C39	C	-0.081260	1.518473	-0.506199
C40	C	-0.356664	1.518304	-0.780155
C41	C	-0.356634	1.518335	-0.896932
C42	C	-0.356754	1.792264	-0.506137
C43	C	-0.356761	1.909041	-0.506144
C44	C	-0.309233	1.585605	-1.061538
C45	C	-0.309263	1.585580	-0.951814
C46	C	-0.403982	1.451118	-0.951780
C47	C	-0.403954	1.451149	-1.061502
C48	C	-0.254545	1.663233	-1.061556
C49	C	-0.254576	1.663208	-0.951832
C50	C	-0.356754	1.518219	-0.233154
C51	C	-0.356575	1.518391	-0.116378
H52	H	-0.270265	0.934256	-0.732509
C53	C	-0.180932	1.623944	-1.107560
H54	H	-0.148168	1.606431	-1.052120
H55	H	-0.189716	1.563693	-1.149462
H56	H	-0.159489	1.677483	-1.149469
C57	C	-0.282338	1.767592	-0.905848
H58	H	-0.294675	1.814097	-0.961297
H59	H	-0.324823	1.755066	-0.863930
H60	H	-0.244632	1.798018	-0.863959
H61	H	-0.197436	1.103522	-0.629516
H62	H	-0.275422	1.107789	-0.728404
C63	C	-0.784339	1.714671	-0.462698
H64	H	-0.752803	1.684035	-0.411699
H65	H	-0.757535	1.765339	-0.501871
H66	H	-0.824854	1.747572	-0.428685
H67	H	-0.200323	0.929988	-0.622177
H68	H	-0.442576	0.919140	-0.384018
H69	H	-0.197226	1.641455	-0.922069
C70	C	-0.785146	1.462289	-0.698224
H71	H	-0.825924	1.472895	-0.743846
H72	H	-0.755843	1.524034	-0.696085
H73	H	-0.756120	1.405520	-0.723183
H74	H	-0.919016	1.406495	-0.371881
C75	C	-0.456055	1.133867	-0.364758
H76	H	-0.484237	1.085450	-0.324678
H77	H	-0.427677	1.176662	-0.319053
H78	H	-0.488356	1.176673	-0.404862
C79	C	-0.926182	1.710988	-0.454377
H80	H	-0.956728	1.677500	-0.403882
H81	H	-0.884953	1.741956	-0.420296
H82	H	-0.953695	1.763761	-0.489484
C83	C	-0.456035	1.377220	-1.121824
H84	H	-0.484249	1.337164	-1.073425
H85	H	-0.488291	1.417396	-1.164620
H86	H	-0.427690	1.331472	-1.164631
C87	C	-0.926970	1.563946	-0.311176
H88	H	-0.885999	1.595080	-0.276605
H89	H	-0.956080	1.617079	-0.342979
H90	H	-0.956093	1.526676	-0.261652
H91	H	-0.919773	1.455944	-0.669929
C92	C	-0.928382	1.326756	-0.562504
H93	H	-0.959556	1.329712	-0.502654
H94	H	-0.955622	1.300945	-0.620648
H95	H	-0.887947	1.281369	-0.548729
H96	H	-0.793190	1.354606	-0.568523
H97	H	-0.269902	1.744599	-1.091330
C98	C	-0.785813	1.565428	-0.311254
H99	H	-0.755002	1.616735	-0.342971
H100	H	-0.826926	1.598830	-0.279245
H101	H	-0.758520	1.528323	-0.259630
C102	C	-0.784451	1.379668	-0.362377
H103	H	-0.803612	1.362223	-0.295265
H104	H	-0.799902	1.328709	-0.412013
H105	H	-0.732019	1.381084	-0.359454
C106	C	-0.927991	1.666423	-0.641744
H107	H	-0.959720	1.614394	-0.670217
H108	H	-0.954627	1.729984	-0.633237
H109	H	-0.887571	1.677645	-0.687933
H110	H	-0.792875	1.651454	-0.618444
C111	C	-0.456107	1.377173	-0.891419
H112	H	-0.484307	1.337158	-0.939798
H113	H	-0.427804	1.331403	-0.848607
H114	H	-0.488387	1.417352	-0.848625
