data_functionalizedCrystal
_audit_creation_method	'MofGen! by Chris Wilmer'
_symmetry_space_group_name_H-M	'P1'
_symmetry_Int_Tables_number	1
_symmetry_cell_setting	triclinic
loop_
_symmetry_equiv_pos_as_xyz
  x,y,z
_cell_length_a	19.805407
_cell_length_b	14.908520
_cell_length_c	19.805399
_cell_angle_alpha	86.730950
_cell_angle_beta	90.015116
_cell_angle_gamma	93.317992
loop_
_atom_site_label
_atom_site_type_symbol
_atom_site_fract_x
_atom_site_fract_y
_atom_site_fract_z
Zn1	Zn	1.019183	-0.359232	0.398240
Zn2	Zn	1.519183	0.140768	0.898240
Zn3	Zn	1.012578	-0.510101	0.291583
Zn4	Zn	1.512578	-0.010101	0.791583
Zn5	Zn	0.906002	-0.359253	0.285069
Zn6	Zn	1.406002	0.140747	0.785069
Zn7	Zn	0.899439	-0.510042	0.404731
Zn8	Zn	1.399439	-0.010042	0.904731
O9	O	0.959300	-0.434657	0.344906
O10	O	1.459300	0.065343	0.844906
O11	O	1.113022	-0.379260	0.384102
O12	O	1.613022	0.120740	0.884102
O13	O	0.998423	-0.490124	0.196004
O14	O	1.498423	0.009876	0.696004
O15	O	0.926526	-0.233006	0.294639
O16	O	1.426526	0.266994	0.794639
O17	O	1.108170	-0.490103	0.305741
O18	O	1.608170	0.009897	0.805741
O19	O	1.009679	-0.232990	0.377785
O20	O	1.509679	0.267010	0.877785
O21	O	0.920122	-0.379297	0.191218
O22	O	1.420122	0.120703	0.691218
O23	O	0.810415	-0.379240	0.300933
O24	O	1.310415	0.120760	0.800933
O25	O	0.915341	-0.490003	0.498585
O26	O	1.415341	0.009997	0.998585
O27	O	0.805594	-0.490024	0.388848
O28	O	1.305594	0.009976	0.888848
O29	O	1.003316	-0.379203	0.493816
O30	O	1.503316	0.120797	0.993816
O31	O	0.992060	-0.636337	0.312036
O32	O	1.492060	-0.136337	0.812036
O33	O	0.908937	-0.636294	0.395165
O34	O	1.408937	-0.136294	0.895165
C35	C	0.783446	-0.434629	0.344888
C36	C	1.283446	0.065371	0.844888
C37	C	0.708213	-0.434638	0.344898
C38	C	1.208213	0.065362	0.844898
C39	C	0.675392	-0.377025	0.385770
C40	C	1.175392	0.122975	0.885770
C41	C	0.604703	-0.377029	0.385773
C42	C	1.104703	0.122971	0.885773
C43	C	0.566837	-0.434653	0.344907
C44	C	1.066837	0.065347	0.844907
C45	C	0.599663	-0.492269	0.304029
C46	C	1.099663	0.007731	0.804029
C47	C	0.670351	-0.492259	0.304024
C48	C	1.170351	0.007741	0.804024
C49	C	0.314588	-0.492310	0.304052
C50	C	0.814588	0.007690	0.804052
C51	C	0.243896	-0.492317	0.304063
C52	C	0.743896	0.007683	0.804063
C53	C	0.248941	-0.377080	0.385801
C54	C	0.748941	0.122920	0.885801
C55	C	0.319628	-0.377070	0.385795
C56	C	0.819628	0.122930	0.885795
C57	C	0.352448	-0.434682	0.344916
C58	C	0.852448	0.065318	0.844916
C59	C	0.429097	-0.434675	0.344912
C60	C	0.929097	0.065325	0.844912
C61	C	0.490189	-0.434665	0.344913
C62	C	0.990189	0.065335	0.844913
C63	C	0.949088	-0.669050	0.355026
C64	C	1.449088	-0.169050	0.855026
C65	C	0.944781	-0.769324	0.359378
C66	C	1.444781	-0.269324	0.859378
C67	C	1.023333	-0.957734	0.281064
C68	C	1.523333	-0.457734	0.781064
C69	C	1.019288	-1.051950	0.285151
C70	C	1.519288	-0.551950	0.785151
C71	C	0.932651	-1.051975	0.371642
C72	C	1.432651	-0.551975	0.871642
C73	C	0.936696	-0.957759	0.367555
C74	C	1.436696	-0.457759	0.867555
C75	C	0.982037	-0.910641	0.322264
C76	C	1.482037	-0.410641	0.822264
C77	C	0.986078	-0.816423	0.318174
C78	C	1.486078	-0.316423	0.818174
C79	C	0.899445	-0.816450	0.404668
C80	C	1.399445	-0.316450	0.904668
C81	C	0.895400	-0.910666	0.408755
C82	C	1.395400	-0.410666	0.908755
C83	C	1.135842	-0.434686	0.344924
C84	C	1.635842	0.065314	0.844924
C85	C	1.211073	-0.434698	0.344932
C86	C	1.711073	0.065302	0.844932
C87	C	0.959333	-0.434594	0.521446
C88	C	1.459333	0.065406	1.021446
C89	C	0.959347	-0.434568	0.596677
C90	C	1.459347	0.065432	1.096677
C91	C	0.969571	-0.199349	0.334761
C92	C	1.469571	0.300651	0.834761
C93	C	0.973948	-0.099074	0.330438
C94	C	1.473948	0.400926	0.830438
C95	C	0.959310	-0.434654	0.169050
C96	C	1.459310	0.065346	0.669050
C97	C	0.959438	-0.434427	0.093808
C98	C	1.459438	0.065573	0.593808
C99	C	0.918588	-0.376855	0.629528
C100	C	1.418588	0.123145	1.129528
C101	C	0.918598	-0.376837	0.700216
C102	C	1.418598	0.123163	1.200216
C103	C	0.959371	-0.434529	0.738051
C104	C	1.459371	0.065471	1.238051
C105	C	1.000132	-0.492248	0.705195
C106	C	1.500132	0.007752	1.205195
C107	C	1.000117	-0.492269	0.634509
C108	C	1.500117	0.007731	1.134509
C109	C	1.000189	-0.492164	0.990265
C110	C	1.500189	0.007836	1.490265
C111	C	1.000201	-0.492136	1.060956
C112	C	1.500201	0.007864	1.560956
C113	C	0.918669	-0.376731	1.055972
C114	C	1.418669	0.123269	1.555972
C115	C	0.918655	-0.376753	0.985286
C116	C	1.418655	0.123247	1.485286
C117	C	0.959413	-0.434475	0.952436
C118	C	1.459413	0.065525	1.452436
C119	C	0.959400	-0.434494	0.875788
C120	C	1.459400	0.065506	1.375788
C121	C	0.959387	-0.434505	0.814697
C122	C	1.459387	0.065495	1.314697
H123	H	0.706218	-0.330103	0.419050
H124	H	1.206218	0.169897	0.919050
F125	F	1.043571	-0.553592	0.955312
F126	F	1.543571	-0.053592	1.455312
H127	H	0.885480	-0.329734	1.082727
H128	H	1.385480	0.170266	1.582727
H129	H	0.697073	-0.539174	0.270741
H130	H	1.197073	-0.039174	0.770741
F131	F	1.063242	-1.102066	0.241302
F132	F	1.563242	-0.602066	0.741302
H133	H	1.060247	-0.919370	0.244181
H134	H	1.560247	-0.419370	0.744181
F135	F	0.569775	-0.315711	0.429276
F136	F	1.069775	0.184289	0.929276
H137	H	0.895741	-1.090355	0.408521
H138	H	1.395741	-0.590355	0.908521
H139	H	1.033326	-0.539226	0.736006
H140	H	1.533326	-0.039226	1.236006
H141	H	0.865817	-0.778096	0.438214
H142	H	1.365817	-0.278096	0.938214
H143	H	1.022995	-0.778061	0.281294
H144	H	1.522995	-0.278061	0.781294
F145	F	0.847150	-0.960822	0.456957
F146	F	1.347150	-0.460822	0.956957
F147	F	0.875194	-0.315446	0.589267
F148	F	1.375194	0.184554	1.089267
H149	H	0.341302	-0.539222	0.270766
H150	H	0.841302	-0.039222	0.770766
H151	H	0.885405	-0.329845	0.726960
H152	H	1.385405	0.170155	1.226960
H153	H	0.350455	-0.330150	0.419075
H154	H	0.850455	0.169850	0.919075
F155	F	1.043599	-0.553543	1.101221
F156	F	1.543599	-0.053543	1.601221
F157	F	0.875261	-0.315346	0.945022
F158	F	1.375261	0.184654	1.445022
H159	H	1.033313	-0.539258	0.607762
H160	H	1.533313	-0.039258	1.107762
H161	H	0.213067	-0.539244	0.270782
H162	H	0.713067	-0.039244	0.770782
H163	H	0.222210	-0.330166	0.419085
H164	H	0.722210	0.169834	0.919085
H165	H	0.568827	-0.539183	0.270752
H166	H	1.068827	-0.039183	0.770752
