data_functionalizedCrystal
_audit_creation_method	'MofGen! by Chris Wilmer'
_symmetry_space_group_name_H-M	'P1'
_symmetry_Int_Tables_number	1
_symmetry_cell_setting	triclinic
loop_
_symmetry_equiv_pos_as_xyz
  x,y,z
_cell_length_a	10.654562
_cell_length_b	17.699092
_cell_length_c	16.176319
_cell_angle_alpha	90.008108
_cell_angle_beta	89.993354
_cell_angle_gamma	83.888236
loop_
_atom_site_label
_atom_site_type_symbol
_atom_site_fract_x
_atom_site_fract_y
_atom_site_fract_z
O1	O	1.665977	0.106336	-0.068797
O2	O	1.300324	0.116453	-0.068787
O3	O	1.493475	0.001272	-0.068791
O4	O	1.472825	0.221517	-0.068794
O5	O	1.493457	0.001293	0.068703
O6	O	1.300305	0.116474	0.068706
O7	O	1.665958	0.106357	0.068696
Cu8	Cu	1.483130	0.111417	0.081255
Cu9	Cu	1.483152	0.111393	-0.081346
O10	O	1.472806	0.221538	0.068699
C11	C	1.253530	0.115719	-0.000039
C12	C	1.114126	0.113490	-0.000035
C13	C	1.048603	0.112462	0.074906
C14	C	0.917617	0.110374	0.074892
C15	C	0.917688	0.110346	-0.075010
C16	C	1.048673	0.112428	-0.074996
C17	C	1.048561	0.112482	0.161451
C18	C	0.917575	0.110394	0.161438
C19	C	1.492724	-0.026920	-0.000045
C20	C	1.490499	-0.110951	-0.000049
C21	C	1.489467	-0.150437	-0.074997
C22	C	1.487368	-0.229393	-0.074998
C23	C	1.486311	-0.268863	-0.000050
C24	C	1.487339	-0.229372	0.074904
C25	C	1.489429	-0.150417	0.074904
C26	C	1.478910	-0.547791	0.074906
C27	C	1.476824	-0.626752	0.074900
C28	C	1.476849	-0.626768	-0.074997
C29	C	1.478939	-0.547812	-0.074997
C30	C	1.479960	-0.508327	-0.000043
C31	C	1.482234	-0.422714	-0.000043
C32	C	1.484046	-0.354476	-0.000049
C33	C	1.712752	0.107091	-0.000054
C34	C	1.852156	0.109320	-0.000063
C35	C	1.473557	0.249729	-0.000048
C36	C	1.475782	0.333761	-0.000049
N37	N	1.483123	0.111434	0.195620
N38	N	1.483168	0.111370	-0.195712
C39	C	1.407145	0.065043	0.761013
C40	C	1.407142	0.065049	0.674466
C41	C	1.483157	0.111386	0.631196
C42	C	1.559189	0.157714	0.674477
C43	C	1.559198	0.157704	0.761022
C44	C	1.559158	0.157757	0.325449
C45	C	1.559141	0.157765	0.238897
C46	C	1.407103	0.065102	0.238893
C47	C	1.407111	0.065092	0.325438
C48	C	1.483148	0.111417	0.368712
C49	C	1.483151	0.111409	0.462556
C50	C	1.483148	0.111399	0.537353
H51	H	0.888947	0.055201	0.188293
H52	H	1.345240	0.027324	0.639236
H53	H	1.102019	0.113254	-0.136020
O54	O	1.490436	-0.112212	-0.147878
C55	C	1.490308	-0.120575	-0.296560
C56	C	1.489184	-0.163954	-0.214081
H57	H	1.489323	-0.162391	-0.350107
H58	H	1.403417	-0.077168	-0.300363
H59	H	1.579117	-0.090051	-0.300267
H60	H	1.400433	-0.194523	-0.210320
H61	H	1.576135	-0.207318	-0.210314
H62	H	1.621104	0.195427	0.796256
O63	O	1.475561	-0.665041	0.147733
C64	C	1.366163	-0.681149	0.275867
C65	C	1.367423	-0.637744	0.193412
H66	H	1.278756	-0.659086	0.312830
H67	H	1.364416	-0.744367	0.263043
H68	H	1.454449	-0.672093	0.312799
H69	H	1.279153	-0.646739	0.156438
H70	H	1.369235	-0.574542	0.206294
H71	H	1.486533	-0.261539	-0.136029
O72	O	1.333239	0.020010	0.367344
C73	C	1.182382	-0.071873	0.358209
C74	C	1.265999	-0.020865	0.310649
H75	H	1.127977	-0.104922	0.312392
H76	H	1.244225	-0.113379	0.398686
H77	H	1.112972	-0.035033	0.398770
H78	H	1.335421	-0.057644	0.270043
H79	H	1.204077	0.020645	0.270225
O80	O	1.486370	-0.267832	0.147636
C81	C	1.483085	-0.389454	0.214072
C82	C	1.484201	-0.345996	0.131643
H83	H	1.481304	-0.452655	0.201171
H84	H	1.571361	-0.380441	0.251039
H85	H	1.395664	-0.367422	0.251038
H86	H	1.571563	-0.368000	0.094611
H87	H	1.395866	-0.355008	0.094740
H88	H	1.345194	0.027380	0.203649
O89	O	1.490602	-0.111991	0.147659
C90	C	1.601720	-0.030875	0.234689
C91	C	1.600546	-0.074339	0.152253
H92	H	1.690613	-0.000435	0.238438
H93	H	1.514905	0.012596	0.238451
H94	H	1.600543	-0.072660	0.288240
H95	H	1.601766	-0.032611	0.098656
H96	H	1.687353	-0.117821	0.148564
O97	O	1.633110	0.202796	0.196991
C98	C	1.783876	0.294733	0.206123
C99	C	1.700198	0.243763	0.253685
H100	H	1.838118	0.327880	0.251939
H101	H	1.853412	0.257934	0.165606
H102	H	1.721966	0.336162	0.165603
H103	H	1.762007	0.202326	0.294250
H104	H	1.630654	0.280610	0.294149
H105	H	1.621071	0.195478	0.360671
O106	O	1.632916	0.202704	0.632318
C107	C	1.700343	0.243757	0.498996
C108	C	1.616767	0.192780	0.546634
H109	H	1.687335	0.235740	0.429711
H110	H	1.672155	0.305762	0.515973
H111	H	1.803493	0.227468	0.516045
H112	H	1.513593	0.209001	0.529610
H113	H	1.645062	0.130788	0.529653
O114	O	0.854217	0.109424	-0.147875
C115	C	0.799721	0.174241	-0.275979
C116	C	0.871680	0.175370	-0.193497
H117	H	0.813793	0.227561	-0.312879
H118	H	0.837148	0.121810	-0.312993
H119	H	0.694862	0.172538	-0.263096
H120	H	0.976549	0.177101	-0.206304
H121	H	0.834150	0.227796	-0.156507
O122	O	1.082648	0.178289	0.193633
C123	C	1.078480	0.260833	0.312299
C124	C	1.039825	0.186276	0.275966
H125	H	1.043851	0.267322	0.378865
H126	H	1.185667	0.259542	0.310900
H127	H	1.034462	0.310863	0.274000
H128	H	1.083756	0.136206	0.314235
H129	H	0.932629	0.187634	0.277350
H130	H	1.095729	0.060183	0.194687
O131	O	1.479906	-0.509585	-0.147876
C132	C	1.479775	-0.517940	-0.296559
C133	C	1.478654	-0.561323	-0.214083
H134	H	1.478790	-0.559753	-0.350108
H135	H	1.392881	-0.474533	-0.300358
H136	H	1.568582	-0.487414	-0.300264
H137	H	1.389905	-0.591894	-0.210322
H138	H	1.565606	-0.604686	-0.210318
H139	H	1.476010	-0.658925	-0.136028
H140	H	0.870371	0.162705	0.194662
H141	H	1.345238	0.027315	0.796238
H142	H	1.479767	-0.515654	0.135938
