data_functionalizedCrystal
_audit_creation_method	'MofGen! by Chris Wilmer'
_symmetry_space_group_name_H-M	'P1'
_symmetry_Int_Tables_number	1
_symmetry_cell_setting	triclinic
loop_
_symmetry_equiv_pos_as_xyz
  x,y,z
_cell_length_a	33.428889
_cell_length_b	33.428139
_cell_length_c	33.424847
_cell_angle_alpha	60.004234
_cell_angle_beta	60.008465
_cell_angle_gamma	59.994972
loop_
_atom_site_label
_atom_site_type_symbol
_atom_site_fract_x
_atom_site_fract_y
_atom_site_fract_z
O1	O	0.055565	-0.584504	0.488714
O2	O	0.555565	-0.084504	0.988714
O3	O	0.020982	-0.455083	0.393778
O4	O	0.520982	0.044917	0.893778
O5	O	0.102943	-0.536959	0.393689
O6	O	0.602943	-0.036959	0.893689
O7	O	-0.026396	-0.502628	0.488803
O8	O	0.473604	-0.002628	0.988803
O9	O	0.130140	-0.509767	0.420792
O10	O	0.630140	-0.009767	0.920792
O11	O	0.048179	-0.427891	0.420881
O12	O	0.548179	0.072109	0.920881
O13	O	0.082762	-0.557312	0.515817
O14	O	0.582762	-0.057312	1.015817
Cu15	Cu	0.067954	-0.490119	0.470823
Cu16	Cu	0.567954	0.009881	0.970823
Cu17	Cu	0.035790	-0.522276	0.438771
Cu18	Cu	0.535790	-0.022276	0.938771
O19	O	0.000801	-0.475436	0.515906
O20	O	0.500801	0.024564	1.015906
N21	N	0.090577	-0.467504	0.493370
N22	N	0.590577	0.032496	0.993370
N23	N	0.013171	-0.544895	0.416225
N24	N	0.513171	-0.044895	0.916225
C25	C	0.143377	-0.280390	0.546067
C26	C	0.643377	0.219610	1.046067
C27	C	0.143515	-0.414755	0.680369
C28	C	0.643515	0.085245	1.180369
C29	C	0.143392	-0.414735	0.546069
C30	C	0.643392	0.085265	1.046069
C31	C	0.277766	-0.414702	0.545966
C32	C	0.777766	0.085298	1.045966
C33	C	0.158177	-0.324719	0.560828
C34	C	0.658177	0.175281	1.060828
C35	C	0.158255	-0.399967	0.636038
C36	C	0.658255	0.100033	1.136038
C37	C	0.233434	-0.399936	0.560773
C38	C	0.733434	0.100064	1.060773
C39	C	0.158186	-0.399955	0.560829
C40	C	0.658186	0.100045	1.060829
C41	C	0.124540	-0.223964	0.527278
C42	C	0.624540	0.276036	1.027278
C43	C	0.124565	-0.433545	0.527281
C44	C	0.624565	0.066455	1.027281
C45	C	0.177014	-0.381145	0.579617
C46	C	0.677014	0.118855	1.079617
C47	C	0.359814	-0.400540	0.502735
C48	C	0.859814	0.099460	1.002735
C49	C	0.411105	-0.417624	0.485606
C50	C	0.911105	0.082376	0.985606
C51	C	0.411136	-0.500620	0.517255
C52	C	0.911136	-0.000620	1.017255
C53	C	0.359845	-0.483534	0.534385
C54	C	0.859845	0.016466	1.034385
C55	C	0.136887	-0.198305	0.476855
C56	C	0.636887	0.301695	0.976855
C57	C	0.119761	-0.147011	0.459777
C58	C	0.619761	0.352989	0.959777
C59	C	0.077945	-0.147038	0.543547
C60	C	0.577945	0.352962	1.043547
C61	C	0.095072	-0.198332	0.560625
C62	C	0.595072	0.301668	1.060625
C63	C	0.074134	-0.421169	0.539710
C64	C	0.574134	0.078831	1.039710
C65	C	0.057023	-0.438269	0.522625
C66	C	0.557023	0.061731	1.022625
C67	C	0.140770	-0.480120	0.480694
C68	C	0.640770	0.019880	0.980694
C69	C	0.157883	-0.463020	0.497773
C70	C	0.657883	0.036980	0.997773
C71	C	0.074339	-0.421208	0.762475
C72	C	0.574339	0.078792	1.262475
C73	C	0.057288	-0.438323	0.813768
C74	C	0.557288	0.061677	1.313768
C75	C	0.141075	-0.480183	0.813699
C76	C	0.641075	0.019817	1.313699
C77	C	0.158125	-0.463069	0.762404
C78	C	0.658125	0.036931	1.262404
C79	C	0.124756	-0.433580	0.736794
C80	C	0.624756	0.066420	1.236794
C81	C	0.334186	-0.433494	0.527123
C82	C	0.834186	0.066506	1.027123
C83	C	-0.173769	-0.597444	0.363037
C84	C	0.326231	-0.097444	0.863037
C85	C	-0.039302	-0.597595	0.228856
C86	C	0.460698	-0.097595	0.728856
C87	C	-0.039496	-0.597587	0.363300
C88	C	0.460504	-0.097587	0.863300
C89	C	-0.039512	-0.731889	0.363237
C90	C	0.460488	-0.231889	0.863237
C91	C	-0.129442	-0.612265	0.348329
C92	C	0.370558	-0.112265	0.848329
C93	C	-0.054138	-0.612351	0.273187
C94	C	0.445862	-0.112351	0.773187
C95	C	-0.054257	-0.687554	0.348440
C96	C	0.445743	-0.187554	0.848440
C97	C	-0.054247	-0.612346	0.348477
C98	C	0.445753	-0.112346	0.848477
C99	C	-0.230191	-0.578579	0.381758
C100	C	0.269809	-0.078579	0.881758
C101	C	-0.020722	-0.578803	0.382168
C102	C	0.479278	-0.078803	0.882168
C103	C	-0.073020	-0.631130	0.329609
C104	C	0.426980	-0.131130	0.829609
C105	C	-0.053713	-0.813916	0.406386
C106	C	0.446287	-0.313916	0.906386
C107	C	-0.036654	-0.865210	0.423504
C108	C	0.463346	-0.365210	0.923504
C109	C	0.046338	-0.865293	0.391984
C110	C	0.546338	-0.365293	0.891984
C111	C	0.029278	-0.813999	0.374865
C112	C	0.529278	-0.313999	0.874865
C113	C	-0.255900	-0.590938	0.432169
C114	C	0.244100	-0.090938	0.932169
C115	C	-0.307191	-0.573786	0.449185
C116	C	0.192809	-0.073786	0.949185
C117	C	-0.307060	-0.531922	0.365377
C118	C	0.192940	-0.031922	0.865377
C119	C	-0.255769	-0.549074	0.348360
C120	C	0.244231	-0.049074	0.848360
C121	C	-0.033081	-0.528377	0.369764
C122	C	0.466919	-0.028377	0.869764
C123	C	-0.016014	-0.511306	0.386922
C124	C	0.483986	-0.011306	0.886922
C125	C	0.025770	-0.595083	0.428877
C126	C	0.525770	-0.095083	0.928877
C127	C	0.008703	-0.612156	0.411725
C128	C	0.508703	-0.112156	0.911725
C129	C	-0.032755	-0.528393	0.146761
C130	C	0.467245	-0.028393	0.646761
C131	C	-0.015585	-0.511324	0.095468
C132	C	0.484415	-0.011324	0.595468
C133	C	0.026262	-0.595106	0.095516
C134	C	0.526262	-0.095106	0.595516
C135	C	0.009094	-0.612174	0.146811
C136	C	0.509094	-0.112174	0.646811
C137	C	-0.020417	-0.578816	0.172432
C138	C	0.479583	-0.078816	0.672432
C139	C	-0.020748	-0.788312	0.382068
C140	C	0.479252	-0.288312	0.882068
N141	N	0.436037	-0.467415	0.493101
N142	N	0.936037	0.032585	0.993101
O143	O	0.592642	-0.471896	0.376066
O144	O	1.092642	0.028104	0.876066
O145	O	0.592838	-0.567146	0.505347
O146	O	1.092838	-0.067146	1.005347
O147	O	0.592754	-0.566928	0.423360
O148	O	1.092754	-0.066928	0.923360
O149	O	0.592727	-0.472113	0.458053
O150	O	1.092727	0.027887	0.958053
O151	O	0.511269	-0.539835	0.450606
O152	O	1.011269	-0.039835	0.950606
O153	O	0.511353	-0.540052	0.532594
O154	O	1.011353	-0.040052	1.032594
O155	O	0.511157	-0.444802	0.403312
O156	O	1.011157	0.055198	0.903312
Cu157	Cu	0.503815	-0.489954	0.470441
Cu158	Cu	1.003815	0.010046	0.970441
Cu159	Cu	0.600180	-0.521995	0.438219
Cu160	Cu	1.100180	-0.021995	0.938219
O161	O	0.511242	-0.445020	0.485300
O162	O	1.011242	0.054980	0.985300
N163	N	0.667959	-0.544533	0.415554
N164	N	1.167959	-0.044533	0.915554
N165	N	0.090544	-0.122107	0.493359
N166	N	0.590544	0.377893	0.993359
O167	O	-0.026406	0.034587	0.488773
O168	O	0.473594	0.534587	0.988773
O169	O	0.102877	0.034627	0.393499
O170	O	0.602877	0.534627	0.893499
O171	O	0.020848	0.034591	0.393771
O172	O	0.520848	0.534591	0.893771
O173	O	0.055623	0.034623	0.488500
O174	O	0.555623	0.534623	0.988500
O175	O	0.048051	-0.046899	0.420925
O176	O	0.548051	0.453101	0.920925
O177	O	0.130080	-0.046864	0.420653
O178	O	0.630080	0.453136	0.920653
O179	O	0.000796	-0.046903	0.515927
O180	O	0.500796	0.453097	1.015927
Cu181	Cu	0.067922	-0.054324	0.470769
Cu182	Cu	0.567922	0.445676	0.970769
Cu183	Cu	0.035752	0.042048	0.438656
Cu184	Cu	0.535752	0.542048	0.938656
O185	O	0.082825	-0.046867	0.515655
O186	O	0.582825	0.453133	1.015655
N187	N	0.013123	0.109830	0.416068
N188	N	0.513123	0.609830	0.916068
N189	N	0.090892	-0.467554	0.838649
N190	N	0.590892	0.032446	1.338649
O191	O	0.086330	-0.584488	0.995334
O192	O	0.586330	-0.084488	1.495334
O193	O	-0.008902	-0.455160	0.995379
O194	O	0.491098	0.044840	1.495379
O195	O	-0.008679	-0.537172	0.995355
O196	O	0.491321	-0.037172	1.495355
O197	O	0.086107	-0.502475	0.995358
O198	O	0.586107	-0.002475	1.495358
O199	O	0.018452	-0.509990	0.913868
O200	O	0.518452	-0.009990	1.413868
O201	O	0.018230	-0.427978	0.913891
O202	O	0.518230	0.072022	1.413891
O203	O	0.113461	-0.557306	0.913847
O204	O	0.613461	-0.057306	1.413847
Cu205	Cu	0.068323	-0.490160	0.906429
Cu206	Cu	0.568323	0.009840	1.406429
Cu207	Cu	0.036237	-0.522306	1.002797
Cu208	Cu	0.536237	-0.022306	1.502797
O209	O	0.113239	-0.475293	0.913870
O210	O	0.613239	0.024707	1.413870
N211	N	0.013667	-0.544916	1.070577
N212	N	0.513667	-0.044916	1.570577
C213	C	0.031339	-0.425179	0.394250
C214	C	0.531339	0.074821	0.894250
C215	C	0.132837	-0.526572	0.394139
C216	C	0.632837	-0.026572	0.894139
C217	C	0.072405	-0.587216	0.515344
C218	C	0.572405	-0.087216	1.015344
C219	C	-0.029093	-0.485823	0.515455
C220	C	0.470907	0.014177	1.015455
C221	C	0.552119	-0.566716	0.535258
C222	C	1.052119	-0.066716	1.035258
C223	C	0.552016	-0.566447	0.433726
C224	C	1.052016	-0.066447	0.933726
C225	C	0.551873	-0.445232	0.373402
C226	C	1.051873	0.054768	0.873402
C227	C	0.551980	-0.445502	0.474933
C228	C	1.051980	0.054498	0.974933
C229	C	0.132731	-0.006013	0.393923
C230	C	0.632731	0.493987	0.893923
C231	C	0.031182	-0.006158	0.394293
C232	C	0.531182	0.493842	0.894293
C233	C	-0.029092	-0.006163	0.515469
C234	C	0.470908	0.493837	1.015469
C235	C	0.072491	-0.006119	0.515133
C236	C	0.572491	0.493881	1.015133
C237	C	-0.008451	-0.425276	0.954641
C238	C	0.491549	0.074724	1.454641
C239	C	-0.008170	-0.526833	0.954596
C240	C	0.491830	-0.026833	1.454596
C241	C	0.113010	-0.587190	0.954585
C242	C	0.613010	-0.087190	1.454585
C243	C	0.112735	-0.485627	0.954611
C244	C	0.612735	0.014373	1.454611
H245	H	0.047163	-0.397193	0.741627
H246	H	0.547163	0.102807	1.241627
H247	H	0.551811	-0.415327	0.336274
H248	H	1.051811	0.084673	0.836274
H249	H	0.551974	-0.415718	0.482355
H250	H	1.051974	0.084282	0.982355
C251	C	0.183019	-0.536450	0.353788
C252	C	0.683019	-0.036450	0.853788
C253	C	0.229862	-0.549900	0.362702
C254	C	0.729862	-0.049900	0.862702
C255	C	0.280045	-0.559779	0.322351
C256	C	0.780045	-0.059779	0.822351
C257	C	0.283384	-0.556207	0.273084
C258	C	0.783384	-0.056207	0.773084
C259	C	0.236539	-0.542757	0.264167
C260	C	0.736539	-0.042757	0.764167
C261	C	0.186357	-0.532878	0.304519
C262	C	0.686357	-0.032878	0.804519
H263	H	0.227392	-0.552545	0.399174
H264	H	0.727392	-0.052545	0.899174
H265	H	0.314722	-0.569736	0.328952
H266	H	0.814722	-0.069736	0.828952
H267	H	0.320532	-0.563520	0.243213
H268	H	0.820532	-0.063520	0.743213
H269	H	0.239010	-0.540112	0.227695
H270	H	0.739010	-0.040112	0.727695
H271	H	0.151679	-0.522921	0.297918
H272	H	0.651679	-0.022921	0.797918
H273	H	0.169783	-0.005775	0.363939
H274	H	0.669783	0.494225	0.863939
C275	C	-0.048844	-0.375100	0.954659
C276	C	0.451156	0.124900	1.454659
C277	C	-0.039058	-0.334720	0.954670
C278	C	0.460942	0.165280	1.454670
C279	C	-0.079451	-0.284544	0.954688
C280	C	0.420549	0.215456	1.454688
C281	C	-0.129630	-0.274749	0.954695
C282	C	0.370370	0.225251	1.454695
C283	C	-0.139419	-0.315131	0.954684
C284	C	0.360581	0.184869	1.454684
C285	C	-0.099026	-0.365306	0.954666
C286	C	0.400974	0.134694	1.454666
H287	H	-0.001910	-0.341970	0.954664
H288	H	0.498090	0.158030	1.454664
H289	H	-0.072204	-0.254651	0.954696
H290	H	0.427796	0.245349	1.454696
H291	H	-0.159532	-0.237606	0.954708
H292	H	0.340468	0.262394	1.454708
H293	H	-0.176567	-0.307881	0.954689
H294	H	0.323433	0.192119	1.454689
H295	H	-0.106272	-0.395199	0.954658
H296	H	0.393728	0.104801	1.454658
H297	H	0.552029	-0.596233	0.426301
H298	H	1.052029	-0.096233	0.926301
C299	C	-0.079277	-0.475946	0.555806
C300	C	0.420723	0.024054	1.055806
C301	C	-0.089115	-0.516267	0.606018
C302	C	0.410885	-0.016267	1.106018
C303	C	-0.139298	-0.506390	0.646369
C304	C	0.360702	-0.006390	1.146369
C305	C	-0.179644	-0.456191	0.636507
C306	C	0.320356	0.043809	1.136507
C307	C	-0.169807	-0.415866	0.586292
C308	C	0.330193	0.084134	1.086292
C309	C	-0.119623	-0.425743	0.545941
C310	C	0.380377	0.074257	1.045941
H311	H	-0.059247	-0.553431	0.613320
H312	H	0.440753	-0.053431	1.113320
H313	H	-0.146580	-0.536242	0.683541
H314	H	0.353420	-0.036242	1.183541
H315	H	-0.216793	-0.448880	0.666377
H316	H	0.283207	0.051120	1.166377
H317	H	-0.199674	-0.378703	0.578990
H318	H	0.300326	0.121297	1.078990
H319	H	-0.112342	-0.395892	0.508769
H320	H	0.387658	0.104108	1.008769
H321	H	0.552170	-0.596617	0.572390
H322	H	1.052170	-0.096617	1.072390
C323	C	0.021125	-0.006168	0.354084
C324	C	0.521125	0.493832	0.854084
C325	C	-0.029128	-0.006188	0.364143
C326	C	0.470872	0.493812	0.864143
C327	C	-0.039185	-0.006199	0.323935
C328	C	0.460815	0.493801	0.823935
C329	C	0.001011	-0.006190	0.273667
C330	C	0.501011	0.493810	0.773667
C331	C	0.051268	-0.006170	0.263606
C332	C	0.551268	0.493830	0.763606
C333	C	0.061325	-0.006159	0.303815
C334	C	0.561325	0.493841	0.803815
H335	H	-0.058887	-0.006195	0.401356
H336	H	0.441113	0.493805	0.901356
H337	H	-0.076389	-0.006214	0.331383
H338	H	0.423611	0.493786	0.831383
H339	H	-0.006433	-0.006198	0.243902
H340	H	0.493567	0.493802	0.743902
H341	H	0.081027	-0.006163	0.226393
H342	H	0.581027	0.493837	0.726393
H343	H	0.098529	-0.006145	0.296367
H344	H	0.598529	0.493855	0.796367
H345	H	0.142910	-0.624330	0.954565
H346	H	0.642910	-0.124330	1.454565
H347	H	0.079796	-0.624394	0.545162
H348	H	0.579796	-0.124394	1.045162
H349	H	0.079939	-0.006110	0.544893
H350	H	0.579939	0.493890	1.044893
C351	C	0.001827	-0.424702	0.842013
C352	C	0.501827	0.075298	1.342013
C353	C	-0.034874	-0.392261	0.813838
C354	C	0.465126	0.107739	1.313838
C355	C	-0.090335	-0.378643	0.842083
C356	C	0.409665	0.121357	1.342083
C357	C	-0.109096	-0.397465	0.898502
C358	C	0.390904	0.102535	1.398502
C359	C	-0.072395	-0.429908	0.926680
C360	C	0.427605	0.070092	1.426680
C361	C	-0.016933	-0.443527	0.898436
C362	C	0.483067	0.056473	1.398436
H363	H	-0.020986	-0.378326	0.772070
H364	H	0.479014	0.121674	1.272070
H365	H	-0.117504	-0.354627	0.821223
H366	H	0.382496	0.145373	1.321223
H367	H	-0.150152	-0.387384	0.919411
H368	H	0.349848	0.112616	1.419411
H369	H	-0.086282	-0.443843	0.968448
H370	H	0.413718	0.056157	1.468448
H371	H	0.010235	-0.467543	0.919295
H372	H	0.510235	0.032457	1.419295
C373	C	0.177782	-0.512611	0.841871
C374	C	0.677782	-0.012611	1.341871
C375	C	0.233240	-0.526217	0.813624
C376	C	0.733240	-0.026217	1.313624
C377	C	0.269946	-0.558648	0.841796
C378	C	0.769946	-0.058648	1.341796
C379	C	0.251194	-0.577472	0.898216
C380	C	0.751194	-0.077472	1.398216
C381	C	0.195732	-0.563866	0.926466
C382	C	0.695732	-0.063866	1.426466
C383	C	0.159027	-0.531436	0.898294
C384	C	0.659027	-0.031436	1.398294
H385	H	0.247124	-0.512282	0.771856
H386	H	0.747124	-0.012282	1.271856
H387	H	0.311002	-0.568719	0.820883
H388	H	0.811002	-0.068719	1.320883
H389	H	0.278365	-0.601479	0.919071
H390	H	0.778365	-0.101479	1.419071
H391	H	0.181848	-0.577801	0.968234
H392	H	0.681848	-0.077801	1.468234
H393	H	0.117971	-0.521364	0.919207
H394	H	0.617971	-0.021364	1.419207
C395	C	0.152967	-0.475599	0.954604
C396	C	0.652967	0.024401	1.454604
C397	C	0.143925	-0.462080	0.996922
C398	C	0.643925	0.037920	1.496922
C399	C	0.184157	-0.452053	0.996915
C400	C	0.684157	0.047947	1.496915
C401	C	0.233432	-0.455545	0.954589
C402	C	0.733432	0.044455	1.454589
C403	C	0.242476	-0.469064	0.912268
C404	C	0.742476	0.030936	1.412268
C405	C	0.202244	-0.479092	0.912275
C406	C	0.702244	0.020908	1.412275
H407	H	0.107447	-0.459495	1.028257
H408	H	0.607447	0.040505	1.528257
H409	H	0.177462	-0.442045	1.028244
H410	H	0.677462	0.057955	1.528244
H411	H	0.263214	-0.448122	0.954584
H412	H	0.763214	0.051878	1.454584
H413	H	0.278954	-0.471650	0.880933
H414	H	0.778954	0.028350	1.380933
H415	H	0.208940	-0.489100	0.880946
H416	H	0.708940	0.010900	1.380946
C417	C	0.021359	-0.374956	0.353964
C418	C	0.521359	0.125044	0.853964
C419	C	0.061609	-0.365014	0.303719
C420	C	0.561609	0.134986	0.803719
C421	C	0.051629	-0.314791	0.263434
C422	C	0.551629	0.185209	0.763434
C423	C	0.001401	-0.274510	0.273394
C424	C	0.501401	0.225490	0.773394
C425	C	-0.038852	-0.284450	0.323641
C426	C	0.461148	0.215550	0.823641
C427	C	-0.028873	-0.334673	0.363927
C428	C	0.471127	0.165327	0.863927
H429	H	0.098794	-0.394833	0.296344
H430	H	0.598794	0.105167	0.796344
H431	H	0.081427	-0.307432	0.226237
H432	H	0.581427	0.192568	0.726237
H433	H	-0.005987	-0.237331	0.243572
H434	H	0.494013	0.262669	0.743572
H435	H	-0.076037	-0.254631	0.331017
H436	H	0.423963	0.245369	0.831017
H437	H	-0.058671	-0.342032	0.401124
H438	H	0.441329	0.157968	0.901124
H439	H	-0.066220	-0.006175	0.545378
H440	H	0.433780	0.493825	1.045378
C441	C	-0.048383	-0.536842	0.954548
C442	C	0.451617	-0.036842	1.454548
C443	C	-0.067531	-0.578586	0.996830
C444	C	0.432469	-0.078586	1.496830
C445	C	-0.107745	-0.588595	0.996782
C446	C	0.392255	-0.088595	1.496782
C447	C	-0.128810	-0.556859	0.954451
C448	C	0.371190	-0.056859	1.454451
C449	C	-0.109663	-0.515111	0.912166
C450	C	0.390337	-0.015111	1.412166
C451	C	-0.069449	-0.505103	0.912214
C452	C	0.430551	-0.005103	1.412214
H453	H	-0.051937	-0.602082	1.028169
H454	H	0.448063	-0.102082	1.528169
H455	H	-0.121919	-0.619499	1.028084
H456	H	0.378081	-0.119499	1.528084
H457	H	-0.158579	-0.564268	0.954415
H458	H	0.341421	-0.064268	1.454415
H459	H	-0.125257	-0.491616	0.880827
H460	H	0.374743	0.008384	1.380827
H461	H	-0.055275	-0.474198	0.880911
H462	H	0.444725	0.025802	1.380911
C463	C	0.213587	-0.476679	0.734157
C464	C	0.713587	0.023321	1.234157
C465	C	0.236825	-0.436116	0.698885
C466	C	0.736825	0.063884	1.198885
C467	C	0.292286	-0.449725	0.670639
C468	C	0.792286	0.050275	1.170639
C469	C	0.324510	-0.503895	0.677664
C470	C	0.824510	-0.003895	1.177664
C471	C	0.301273	-0.544461	0.712937
C472	C	0.801273	-0.044461	1.212937
C473	C	0.245811	-0.530853	0.741183
C474	C	0.745811	-0.030853	1.241183
H475	H	0.212971	-0.396013	0.693683
H476	H	0.712971	0.103987	1.193683
H477	H	0.309488	-0.419695	0.644527
H478	H	0.809488	0.080305	1.144527
H479	H	0.365566	-0.513969	0.656754
H480	H	0.865566	-0.013969	1.156754
H481	H	0.325127	-0.584565	0.718139
H482	H	0.825127	-0.084565	1.218139
H483	H	0.228610	-0.560883	0.767295
H484	H	0.728610	-0.060883	1.267295
C485	C	0.037484	-0.388741	0.572161
C486	C	0.537484	0.111259	1.072161
C487	C	-0.017987	-0.375122	0.585823
C488	C	0.482013	0.124878	1.085823
C489	C	-0.054638	-0.342692	0.618275
C490	C	0.445362	0.157308	1.118275
C491	C	-0.035817	-0.323881	0.637065
C492	C	0.464183	0.176119	1.137065
C493	C	0.019658	-0.337500	0.623404
C494	C	0.519658	0.162500	1.123404
C495	C	0.056308	-0.369930	0.590952
C496	C	0.556308	0.130070	1.090952
H497	H	-0.031922	-0.389048	0.571913
H498	H	0.468078	0.110952	1.071913
H499	H	-0.095704	-0.332611	0.628388
H500	H	0.404296	0.167389	1.128388
H501	H	-0.062948	-0.299874	0.661088
H502	H	0.437052	0.200126	1.161088
H503	H	0.033592	-0.323574	0.637314
H504	H	0.533592	0.176426	1.137314
H505	H	0.097374	-0.380011	0.580839
H506	H	0.597374	0.119989	1.080839
H507	H	0.167905	-0.504126	0.456671
H508	H	0.667905	-0.004126	0.956671
C509	C	0.001550	-0.424658	0.536288
C510	C	0.501550	0.075342	1.036288
C511	C	-0.021694	-0.465218	0.564841
C512	C	0.478306	0.034782	1.064841
C513	C	-0.077167	-0.451605	0.578500
C514	C	0.422833	0.048395	1.078500
C515	C	-0.109395	-0.397433	0.563606
C516	C	0.390605	0.102567	1.063606
C517	C	-0.086152	-0.356869	0.535052
C518	C	0.413848	0.143131	1.035052
C519	C	-0.030679	-0.370482	0.521392
C520	C	0.469321	0.129518	1.021392
H521	H	0.002163	-0.505323	0.575867
H522	H	0.502163	-0.005323	1.075867
H523	H	-0.094373	-0.481633	0.599638
H524	H	0.405627	0.018367	1.099638
H525	H	-0.150459	-0.387356	0.573718
H526	H	0.349541	0.112644	1.073718
H527	H	-0.110009	-0.316764	0.524025
H528	H	0.389991	0.183236	1.024025
H529	H	-0.013473	-0.340454	0.500254
H530	H	0.486527	0.159546	1.000254
C531	C	0.213358	-0.476633	0.484105
C532	C	0.713358	0.023367	0.984105
C533	C	0.250006	-0.509055	0.451648
C534	C	0.750006	-0.009055	0.951648
C535	C	0.305480	-0.522669	0.437981
C536	C	0.805480	-0.022669	0.937981
C537	C	0.324306	-0.503860	0.456769
C538	C	0.824306	-0.003860	0.956769
C539	C	0.287657	-0.471436	0.489227
C540	C	0.787657	0.028564	0.989227
C541	C	0.232182	-0.457822	0.502895
C542	C	0.732182	0.042178	1.002895
H543	H	0.236071	-0.522980	0.437738
H544	H	0.736071	-0.022980	0.937738
H545	H	0.332611	-0.546672	0.413953
H546	H	0.832611	-0.046672	0.913953
H547	H	0.365371	-0.513938	0.446651
H548	H	0.865371	-0.013938	0.946651
H549	H	0.301592	-0.457511	0.503137
H550	H	0.801592	0.042489	1.003137
H551	H	0.205052	-0.433819	0.526923
H552	H	0.705052	0.066181	1.026923
H553	H	0.338981	-0.510371	0.554246
H554	H	0.838981	-0.010371	1.054246
H555	H	-0.063498	-0.886058	0.443304
H556	H	0.436502	-0.386058	0.943304
H557	H	0.432025	-0.541365	0.523165
H558	H	0.932025	-0.041365	1.023165
H559	H	0.431972	-0.390789	0.465748
H560	H	0.931972	0.109211	0.965748
H561	H	0.338923	-0.359792	0.496821
H562	H	0.838923	0.140208	0.996821
H563	H	0.129813	-0.126117	0.418717
H564	H	0.629813	0.373883	0.918717
C565	C	0.169300	-0.226498	0.440172
C566	C	0.669300	0.273502	0.940172
C567	C	0.218749	-0.219421	0.403237
C568	C	0.718749	0.280579	0.903237
C569	C	0.251163	-0.247617	0.366555
C570	C	0.751163	0.252383	0.866555
C571	C	0.234128	-0.282889	0.366807
C572	C	0.734128	0.217111	0.866807
C573	C	0.184677	-0.289968	0.403743
C574	C	0.684677	0.210032	0.903743
C575	C	0.152263	-0.261772	0.440426
C576	C	0.652263	0.238228	0.940426
H577	H	0.231361	-0.193309	0.403049
H578	H	0.731361	0.306691	0.903049
H579	H	0.287769	-0.242376	0.339212
H580	H	0.787769	0.257624	0.839212
H581	H	0.258123	-0.303761	0.339653
H582	H	0.758123	0.196239	0.839653
H583	H	0.172065	-0.316080	0.403931
H584	H	0.672065	0.183920	0.903931
H585	H	0.115657	-0.267013	0.467768
H586	H	0.615657	0.232987	0.967768
C587	C	0.045534	-0.118841	0.580229
C588	C	0.545534	0.381159	1.080229
C589	C	0.065202	-0.125893	0.617101
C590	C	0.565202	0.374107	1.117101
C591	C	0.032789	-0.097698	0.653783
C592	C	0.532789	0.402302	1.153783
C593	C	-0.019293	-0.062451	0.653594
C594	C	0.480707	0.437549	1.153594
C595	C	-0.038964	-0.055397	0.616721
C596	C	0.461036	0.444603	1.116721
C597	C	-0.006551	-0.083592	0.580038
C598	C	0.493449	0.416408	1.080038
H599	H	0.103759	-0.151986	0.617242
H600	H	0.603759	0.348014	1.117242
H601	H	0.047351	-0.102920	0.681080
H602	H	0.547351	0.397080	1.181080
H603	H	-0.043287	-0.041579	0.680749
H604	H	0.456713	0.458421	1.180749
H605	H	-0.077521	-0.029304	0.616579
H606	H	0.422479	0.470696	1.116579
H607	H	-0.021113	-0.078370	0.552742
H608	H	0.478887	0.421630	1.052742
C609	C	0.081490	-0.226555	0.616092
C610	C	0.581490	0.273445	1.116092
C611	C	0.096441	-0.219503	0.648274
C612	C	0.596441	0.280497	1.148274
C613	C	0.082857	-0.247726	0.703743
C614	C	0.582857	0.252274	1.203743
C615	C	0.054321	-0.283003	0.727030
C616	C	0.554321	0.216997	1.227030
C617	C	0.039368	-0.290057	0.694848
C618	C	0.539368	0.209943	1.194848
C619	C	0.052952	-0.261833	0.639379
C620	C	0.552952	0.238167	1.139379
H621	H	0.117567	-0.193388	0.631036
H622	H	0.617567	0.306612	1.131036
H623	H	0.093926	-0.242504	0.727566
H624	H	0.593926	0.257496	1.227566
H625	H	0.044265	-0.303896	0.768092
H626	H	0.544265	0.196104	1.268092
H627	H	0.018242	-0.316172	0.712086
H628	H	0.518242	0.183828	1.212086
H629	H	0.041883	-0.267055	0.615555
H630	H	0.541883	0.232945	1.115555
C631	C	-0.029169	-0.455856	0.067235
C632	C	0.470831	0.044144	0.567235
C633	C	0.011407	-0.432629	0.032036
C634	C	0.511407	0.067371	0.532036
C635	C	-0.002174	-0.377160	0.003803
C636	C	0.497826	0.122840	0.503803
C637	C	-0.056331	-0.344918	0.010769
C638	C	0.443669	0.155082	0.510769
C639	C	-0.096910	-0.368144	0.045969
C640	C	0.403090	0.131856	0.545969
C641	C	-0.083329	-0.423613	0.074202
C642	C	0.416671	0.076387	0.574202
H643	H	0.051501	-0.456497	0.026878
H644	H	0.551501	0.043503	0.526878
H645	H	0.027866	-0.359966	-0.022255
H646	H	0.527866	0.140034	0.477745
H647	H	-0.066384	-0.303856	-0.010131
H648	H	0.433616	0.196144	0.489869
H649	H	-0.137004	-0.344276	0.051127
H650	H	0.362996	0.155724	0.551127
H651	H	-0.113369	-0.440806	0.100259
H652	H	0.386631	0.059194	0.600259
C653	C	-0.065218	-0.491697	0.174942
C654	C	0.434782	0.008303	0.674942
C655	C	-0.078791	-0.436232	0.146704
C656	C	0.421209	0.063768	0.646704
C657	C	-0.111251	-0.399537	0.174885
C658	C	0.388749	0.100463	0.674885
C659	C	-0.130139	-0.418307	0.231304
C660	C	0.369861	0.081693	0.731304
C661	C	-0.116567	-0.473774	0.259546
C662	C	0.383433	0.026226	0.759546
C663	C	-0.084106	-0.510470	0.231365
C664	C	0.415894	-0.010470	0.731365
H665	H	-0.064809	-0.422335	0.104936
H666	H	0.435191	0.077665	0.604936
H667	H	-0.121298	-0.358476	0.153978
H668	H	0.378702	0.141524	0.653978
H669	H	-0.154168	-0.391143	0.252166
H670	H	0.345832	0.108857	0.752166
H671	H	-0.130549	-0.487671	0.301314
H672	H	0.369451	0.012329	0.801314
H673	H	-0.074059	-0.551531	0.252271
H674	H	0.425941	-0.051531	0.752271
H675	H	0.050281	-0.622271	0.074658
H676	H	0.550281	-0.122271	0.574658
H677	H	0.019144	-0.653235	0.167709
H678	H	0.519144	-0.153235	0.667709
H679	H	-0.026079	-0.470245	0.376824
H680	H	0.473921	0.029755	0.876824
C681	C	0.058142	-0.631775	0.461387
C682	C	0.558142	-0.131775	0.961387
C683	C	0.107616	-0.668718	0.441825
C684	C	0.607616	-0.168718	0.941825
C685	C	0.139986	-0.705408	0.474335
C686	C	0.639986	-0.205408	0.974335
C687	C	0.122883	-0.705154	0.526407
C688	C	0.622883	-0.205154	1.026407
C689	C	0.073407	-0.668209	0.545972
C690	C	0.573407	-0.168209	1.045972
C691	C	0.041036	-0.631520	0.513462
C692	C	0.541036	-0.131520	1.013462
H693	H	0.120279	-0.668907	0.403275
H694	H	0.620279	-0.168907	0.903275
H695	H	0.176612	-0.732756	0.459851
H696	H	0.676612	-0.232756	0.959851
H697	H	0.146846	-0.732313	0.550473
H698	H	0.646846	-0.232313	1.050473
H699	H	0.060744	-0.668020	0.584522
H700	H	0.560744	-0.168020	1.084522
H701	H	0.004411	-0.604171	0.527946
H702	H	0.504411	-0.104171	1.027946
H703	H	0.018765	-0.653217	0.421828
H704	H	0.518765	-0.153217	0.921828
C705	C	0.065542	-0.785837	0.348114
C706	C	0.565542	-0.285837	0.848114
C707	C	0.120568	-0.814097	0.340196
C708	C	0.620568	-0.314097	0.840196
C709	C	0.156835	-0.785936	0.313443
C710	C	0.656835	-0.285936	0.813443
C711	C	0.138075	-0.729514	0.294609
C712	C	0.638075	-0.229514	0.794609
C713	C	0.083046	-0.701251	0.302527
C714	C	0.583046	-0.201251	0.802527
C715	C	0.046780	-0.729412	0.329279
C716	C	0.546780	-0.229412	0.829279
H717	H	0.134457	-0.855867	0.354138
H718	H	0.634457	-0.355867	0.854138
H719	H	0.197571	-0.806858	0.307582
H720	H	0.697571	-0.306858	0.807582
H721	H	0.164922	-0.708667	0.274806
H722	H	0.664922	-0.208667	0.774806
H723	H	0.069157	-0.659481	0.288584
H724	H	0.569157	-0.159481	0.788584
H725	H	0.006044	-0.708490	0.335140
H726	H	0.506044	-0.208490	0.835140
C727	C	-0.108743	-0.785658	0.414306
C728	C	0.391257	-0.285658	0.914306
C729	C	-0.127515	-0.729237	0.395481
C730	C	0.372485	-0.229237	0.895481
C731	C	-0.182545	-0.700982	0.403404
C732	C	0.317455	-0.200982	0.903404
C733	C	-0.218803	-0.729149	0.430151
C734	C	0.281197	-0.229149	0.930151
C735	C	-0.200033	-0.785574	0.448978
C736	C	0.299967	-0.285574	0.948978
C737	C	-0.145003	-0.813829	0.441055
C738	C	0.354997	-0.313829	0.941055
H739	H	-0.100673	-0.708383	0.375680
H740	H	0.399327	-0.208383	0.875680
H741	H	-0.196439	-0.659212	0.389467
H742	H	0.303561	-0.159212	0.889467
H743	H	-0.259540	-0.708233	0.436016
H744	H	0.240460	-0.208233	0.936016
H745	H	-0.226874	-0.806427	0.468779
H746	H	0.273126	-0.306427	0.968779
H747	H	-0.131108	-0.855598	0.454992
H748	H	0.368892	-0.355598	0.954992
H749	H	-0.057039	-0.501216	0.345698
H750	H	0.442961	-0.001216	0.845698
H751	H	0.087072	-0.886205	0.386121
H752	H	0.587072	-0.386205	0.886121
H753	H	-0.328125	-0.583847	0.490235
H754	H	0.171875	-0.083847	0.990235
C755	C	-0.227764	-0.623392	0.468906
C756	C	0.272236	-0.123392	0.968906
C757	C	-0.256045	-0.636980	0.524359
C758	C	0.243955	-0.136980	1.024359
C759	C	-0.227907	-0.669435	0.561095
C760	C	0.272093	-0.169435	1.061095
C761	C	-0.171489	-0.688303	0.542379
C762	C	0.328511	-0.188303	1.042379
C763	C	-0.143205	-0.674716	0.486924
C764	C	0.356795	-0.174716	0.986924
C765	C	-0.171343	-0.642261	0.450187
C766	C	0.328657	-0.142261	0.950187
H767	H	-0.297812	-0.623013	0.538216
H768	H	0.202188	-0.123013	1.038216
H769	H	-0.248845	-0.679493	0.602147
H770	H	0.251155	-0.179493	1.102147
H771	H	-0.150660	-0.712328	0.569574
H772	H	0.349340	-0.212328	1.069574
H773	H	-0.101439	-0.688683	0.473066
H774	H	0.398561	-0.188683	0.973066
H775	H	-0.150405	-0.632202	0.409135
H776	H	0.349595	-0.132202	0.909135
H777	H	-0.234840	-0.539009	0.307312
H778	H	0.265160	-0.039009	0.807312
C779	C	-0.335199	-0.499470	0.328640
C780	C	0.164801	0.000530	0.828640
C781	C	-0.328101	-0.519103	0.291718
C782	C	0.171899	-0.019103	0.791718
C783	C	-0.356237	-0.486648	0.254980
C784	C	0.143763	0.013352	0.754980
C785	C	-0.391471	-0.434561	0.255164
C786	C	0.108529	0.065439	0.755164
C787	C	-0.398571	-0.414925	0.292088
C788	C	0.101429	0.085075	0.792088
C789	C	-0.370435	-0.447380	0.328826
C790	C	0.129565	0.052620	0.828826
H791	H	-0.302017	-0.557663	0.291580
H792	H	0.197983	-0.057663	0.791580
H793	H	-0.350981	-0.501184	0.227647
H794	H	0.149019	-0.001184	0.727647
H795	H	-0.412299	-0.410536	0.227969
H796	H	0.087701	0.089464	0.727969
H797	H	-0.424655	-0.376365	0.292226
H798	H	0.075345	0.123635	0.792226
H799	H	-0.375691	-0.432844	0.356159
H800	H	0.124309	0.067156	0.856159
