data_functionalizedCrystal
_audit_creation_method	'MofGen! by Chris Wilmer'
_symmetry_space_group_name_H-M	'P1'
_symmetry_Int_Tables_number	1
_symmetry_cell_setting	triclinic
loop_
_symmetry_equiv_pos_as_xyz
  x,y,z
_cell_length_a	14.908783
_cell_length_b	16.959454
_cell_length_c	14.908308
_cell_angle_alpha	86.730321
_cell_angle_beta	90.211273
_cell_angle_gamma	93.311155
loop_
_atom_site_label
_atom_site_type_symbol
_atom_site_fract_x
_atom_site_fract_y
_atom_site_fract_z
Zn1	Zn	1.345315	-0.276463	0.587848
Zn2	Zn	1.678649	0.056870	0.921181
Zn3	Zn	2.011982	0.390203	1.254514
Zn4	Zn	1.353896	-0.400620	0.437496
Zn5	Zn	1.687230	-0.067287	0.770829
Zn6	Zn	2.020563	0.266046	1.104162
Zn7	Zn	1.203629	-0.275608	0.428819
Zn8	Zn	1.536962	0.057725	0.762152
Zn9	Zn	1.870295	0.391059	1.095486
Zn10	Zn	1.194922	-0.415756	0.579118
Zn11	Zn	1.528255	-0.082423	0.912452
Zn12	Zn	1.861589	0.250911	1.245785
O13	O	1.274441	-0.342112	0.508320
O14	O	1.607774	-0.008779	0.841653
O15	O	1.941107	0.324555	1.174987
O16	O	1.472282	-0.286957	0.575188
O17	O	1.805615	0.046377	0.908521
O18	O	2.138948	0.379710	1.241854
O19	O	1.341198	-0.377345	0.310521
O20	O	1.674531	-0.044011	0.643854
O21	O	2.007865	0.289322	0.977188
O22	O	1.222476	-0.165109	0.449936
O23	O	1.555810	0.168224	0.783270
O24	O	1.889143	0.501558	1.116603
O25	O	1.478586	-0.378174	0.464725
O26	O	1.811919	-0.044841	0.798058
O27	O	2.145253	0.288493	1.131391
O28	O	1.326573	-0.165738	0.566774
O29	O	1.659906	0.167596	0.900107
O30	O	1.993240	0.500929	1.233441
O31	O	1.230797	-0.285499	0.304146
O32	O	1.564130	0.047835	0.637480
O33	O	1.897464	0.381168	0.970813
O34	O	1.076646	-0.300175	0.441472
O35	O	1.409979	0.033158	0.774805
O36	O	1.743313	0.366491	1.108139
O37	O	1.207637	-0.403971	0.706100
O38	O	1.540970	-0.070638	1.039433
O39	O	1.874304	0.262696	1.372767
O40	O	1.070249	-0.403141	0.551896
O41	O	1.403583	-0.069808	0.885230
O42	O	1.736916	0.263525	1.218563
O43	O	1.318131	-0.301633	0.712513
O44	O	1.651464	0.031700	1.045847
O45	O	1.984797	0.365033	1.379180
O46	O	1.332756	-0.513240	0.456260
O47	O	1.666089	-0.179907	0.789594
O48	O	1.999422	0.153426	1.122927
O49	O	1.215958	-0.524361	0.560310
O50	O	1.549291	-0.191027	0.893643
O51	O	1.882624	0.142306	1.226977
C52	C	1.040822	-0.353209	0.494796
C53	C	1.374155	-0.019875	0.828129
C54	C	1.707489	0.313458	1.161463
C55	C	0.940878	-0.357976	0.489031
C56	C	1.274211	-0.024643	0.822365
C57	C	1.607544	0.308691	1.155698
C58	C	0.746495	-0.272097	0.593400
C59	C	1.079828	0.061236	0.926734
C60	C	1.413161	0.394569	1.260067
C61	C	0.652588	-0.276574	0.587987
C62	C	0.985921	0.056759	0.921320
C63	C	1.319254	0.390092	1.254654
C64	C	0.659156	-0.371402	0.472788
C65	C	0.992489	-0.038068	0.806121
C66	C	1.325822	0.295265	1.139454
C67	C	0.753062	-0.366925	0.478201
C68	C	1.086396	-0.033592	0.811534
C69	C	1.419729	0.299742	1.144868
C70	C	0.796728	-0.317272	0.538510
C71	C	1.130062	0.016061	0.871844
C72	C	1.463395	0.349395	1.205177
C73	C	0.890637	-0.312800	0.543927
C74	C	1.223970	0.020533	0.877261
C75	C	1.557303	0.353867	1.210594
C76	C	0.897203	-0.407623	0.428724
C77	C	1.230536	-0.074289	0.762058
C78	C	1.563870	0.259044	1.095391
C79	C	0.803296	-0.412099	0.423311
C80	C	1.136630	-0.078766	0.756644
C81	C	1.469963	0.254567	1.089978
C82	C	1.274366	-0.547481	0.508301
C83	C	1.607700	-0.214148	0.841634
C84	C	1.941033	0.119186	1.174967
C85	C	1.274415	-0.635336	0.508327
C86	C	1.607748	-0.302003	0.841660
C87	C	1.941082	0.031330	1.174994
C88	C	1.213708	-1.012626	0.562497
C89	C	1.547041	-0.679293	0.895831
C90	C	1.880375	-0.345960	1.229164
C91	C	1.335419	-1.000987	0.454249
C92	C	1.668752	-0.667654	0.787582
C93	C	2.002085	-0.334321	1.120916
C94	C	1.335388	-0.918443	0.454239
C95	C	1.668721	-0.585109	0.787572
C96	C	2.002054	-0.251776	1.120906
C97	C	1.274515	-0.882986	0.508358
C98	C	1.607848	-0.549653	0.841691
C99	C	1.941182	-0.216319	1.175025
C100	C	1.213673	-0.930074	0.562487
C101	C	1.547007	-0.596741	0.895820
C102	C	1.880340	-0.263407	1.229154
C103	C	1.396222	-0.871348	0.400104
C104	C	1.729556	-0.538015	0.733437
C105	C	2.062889	-0.204682	1.066771
C106	C	1.396193	-0.788798	0.400091
C107	C	1.729527	-0.455465	0.733424
C108	C	2.062860	-0.122132	1.066758
C109	C	1.335324	-0.753340	0.454215
C110	C	1.668657	-0.420007	0.787549
C111	C	2.001991	-0.086673	1.120882
C112	C	1.274480	-0.800434	0.508347
C113	C	1.607814	-0.467100	0.841681
C114	C	1.941147	-0.133767	1.175014
C115	C	1.213608	-0.764977	0.562466
C116	C	1.546941	-0.431644	0.895800
C117	C	1.880274	-0.098310	1.229133
C118	C	1.152768	-0.812069	0.616604
C119	C	1.486101	-0.478736	0.949937
C120	C	1.819434	-0.145402	1.283271
C121	C	1.152804	-0.894616	0.616611
C122	C	1.486137	-0.561283	0.949945
C123	C	1.819471	-0.227949	1.283278
C124	C	1.335288	-0.670793	0.454208
C125	C	1.668621	-0.337460	0.787541
C126	C	2.001954	-0.004126	1.120875
C127	C	1.213573	-0.682425	0.562456
C128	C	1.546906	-0.349091	0.895789
C129	C	1.880240	-0.015758	1.229123
C130	C	1.508972	-0.330973	0.521898
C131	C	1.842305	0.002361	0.855231
C132	C	2.175638	0.335694	1.188564
C133	C	1.608915	-0.326226	0.527684
C134	C	1.942248	0.007108	0.861017
C135	C	2.275581	0.340441	1.194350
C136	C	1.260955	-0.354586	0.742844
C137	C	1.594289	-0.021253	1.076177
C138	C	1.927622	0.312081	1.409510
C139	C	1.255209	-0.359902	0.842783
C140	C	1.588542	-0.026568	1.176117
C141	C	1.921875	0.306765	1.509450
C142	C	1.274539	-0.135941	0.508361
C143	C	1.607872	0.197393	0.841694
C144	C	1.941205	0.530726	1.175028
C145	C	1.274581	-0.048083	0.508378
C146	C	1.607914	0.285250	0.841712
C147	C	1.941247	0.618584	1.175045
C148	C	1.287925	-0.329627	0.274712
C149	C	1.621259	0.003706	0.608045
C150	C	1.954592	0.337040	0.941379
C151	C	1.293846	-0.324080	0.174783
C152	C	1.627179	0.009253	0.508116
C153	C	1.960513	0.342586	0.841450
C154	C	1.359464	-0.263308	1.037261
C155	C	1.692798	0.070026	1.370594
C156	C	2.026131	0.403359	1.703928
C157	C	1.354068	-0.268299	1.131163
C158	C	1.687401	0.065034	1.464497
C159	C	2.020735	0.398367	1.797830
C160	C	1.239015	-0.374872	1.124493
C161	C	1.572348	-0.041539	1.457826
C162	C	1.905682	0.291795	1.791159
C163	C	1.244412	-0.369880	1.030590
C164	C	1.577745	-0.036547	1.363923
C165	C	1.911078	0.296786	1.697257
C166	C	1.304639	-0.314097	0.986978
C167	C	1.637973	0.019236	1.320311
C168	C	1.971306	0.352569	1.653644
C169	C	1.310040	-0.309110	0.893074
C170	C	1.643373	0.024223	1.226407
C171	C	1.976707	0.357557	1.559740
C172	C	1.194983	-0.415678	0.886404
C173	C	1.528316	-0.082345	1.219738
C174	C	1.861650	0.250988	1.553071
C175	C	1.189586	-0.420670	0.980307
C176	C	1.522920	-0.087337	1.313640
C177	C	1.856253	0.245997	1.646974
H178	H	0.938113	-0.444414	0.384036
H179	H	1.271447	-0.111080	0.717369
H180	H	1.604780	0.222253	1.050702
H181	H	1.150343	-0.457037	0.845454
H182	H	1.483676	-0.123704	1.178787
H183	H	1.817009	0.209630	1.512120
Cl184	Cl	1.385756	-0.238985	0.838248
Cl185	Cl	1.719089	0.094348	1.171581
Cl186	Cl	2.052422	0.427682	1.504914
H187	H	1.164006	-0.653561	0.606530
H188	H	1.497339	-0.320228	0.939863
H189	H	1.830673	0.013105	1.273197
Cl190	Cl	0.589439	-0.219779	0.656993
Cl191	Cl	0.922773	0.113554	0.990326
Cl192	Cl	1.256106	0.446888	1.323660
H193	H	0.782048	-0.231672	0.642510
H194	H	1.115381	0.101662	0.975844
H195	H	1.448715	0.434995	1.309177
H196	H	1.140549	-0.466086	1.015829
H197	H	1.473882	-0.132752	1.349162
H198	H	1.807216	0.200581	1.682496
Cl199	Cl	1.435187	-0.193191	0.982431
Cl200	Cl	1.768520	0.140143	1.315764
Cl201	Cl	2.101853	0.473476	1.649098
Cl202	Cl	1.422993	-0.204446	1.194374
Cl203	Cl	1.756326	0.128887	1.527707
Cl204	Cl	2.089660	0.462221	1.861041
H205	H	1.103201	-0.783191	0.660664
H206	H	1.436534	-0.449857	0.993997
H207	H	1.769867	-0.116524	1.327331
Cl208	Cl	1.411941	-1.045563	0.386218
Cl209	Cl	1.745274	-0.712229	0.719552
Cl210	Cl	2.078607	-0.378896	1.052885
H211	H	1.164176	-1.050972	0.606577
H212	H	1.497509	-0.717639	0.939911
H213	H	1.830842	-0.384305	1.273244
Cl214	Cl	0.945530	-0.250382	0.619745
Cl215	Cl	1.278864	0.082952	0.953078
Cl216	Cl	1.612197	0.416285	1.286412
H217	H	0.767731	-0.452523	0.374206
H218	H	1.101064	-0.119189	0.707540
H219	H	1.434397	0.214144	1.040873
Cl220	Cl	0.604246	-0.433807	0.396967
Cl221	Cl	0.937579	-0.100473	0.730300
Cl222	Cl	1.270913	0.232860	1.063633
Cl223	Cl	1.076325	-0.953821	0.684661
Cl224	Cl	1.409658	-0.620488	1.017994
Cl225	Cl	1.742992	-0.287154	1.351328
H226	H	1.445775	-0.900223	0.356036
H227	H	1.779109	-0.566890	0.689370
H228	H	2.112442	-0.233557	1.022703
H229	H	1.445733	-0.750461	0.356011
H230	H	1.779066	-0.417127	0.689344
H231	H	2.112399	-0.083794	1.022677
H232	H	1.384819	-0.632455	0.410126
H233	H	1.718152	-0.299121	0.743459
H234	H	2.051485	0.034212	1.076792
H235	H	1.189980	-0.420288	1.160018
H236	H	1.523314	-0.086954	1.493352
H237	H	1.856647	0.246379	1.826685
