data_functionalizedCrystal
_audit_creation_method	'MofGen! by Chris Wilmer'
_symmetry_space_group_name_H-M	'P1'
_symmetry_Int_Tables_number	1
_symmetry_cell_setting	triclinic
loop_
_symmetry_equiv_pos_as_xyz
  x,y,z
_cell_length_a	12.759394
_cell_length_b	18.215407
_cell_length_c	18.215398
_cell_angle_alpha	89.983001
_cell_angle_beta	89.977250
_cell_angle_gamma	90.012280
loop_
_atom_site_label
_atom_site_type_symbol
_atom_site_fract_x
_atom_site_fract_y
_atom_site_fract_z
Zn1	Zn	-0.418375	1.125121	-0.416081
Zn2	Zn	-0.594065	1.125051	-0.293021
Zn3	Zn	-0.418393	1.002054	-0.293034
Zn4	Zn	-0.594005	1.002041	-0.416051
O5	O	-0.506209	1.063567	-0.354547
O6	O	-0.441699	1.228096	-0.399764
O7	O	-0.570794	1.108712	-0.190038
O8	O	-0.271369	1.018414	-0.309375
O9	O	-0.570777	1.228045	-0.309352
O10	O	-0.271356	1.108830	-0.399777
O11	O	-0.441728	1.018346	-0.190048
O12	O	-0.441670	0.899068	-0.309345
O13	O	-0.570675	1.018391	-0.519039
O14	O	-0.570692	0.899058	-0.399725
O15	O	-0.441640	1.108817	-0.519061
O16	O	-0.741078	1.108699	-0.309323
O17	O	-0.741034	1.018324	-0.399712
C18	C	-0.506177	0.872360	-0.354534
C19	C	-0.506189	0.790562	-0.354546
C20	C	-0.439116	0.602393	-0.401698
C21	C	-0.439125	0.525534	-0.401700
C22	C	-0.573332	0.525492	-0.307409
C23	C	-0.573317	0.602350	-0.307403
C24	C	-0.506211	0.640798	-0.354552
C25	C	-0.506235	0.487082	-0.354560
C26	C	-0.506245	0.403748	-0.354562
C27	C	-0.506199	0.724137	-0.354548
C28	C	-0.779177	1.063522	-0.354529
C29	C	-0.895954	1.063571	-0.354546
C30	C	-0.895946	1.157750	-0.260493
C31	C	-0.950803	1.204858	-0.213476
C32	C	-1.060525	1.204901	-0.213496
C33	C	-1.115392	1.157832	-0.260540
C34	C	-1.060535	1.110724	-0.307558
C35	C	-0.950811	1.110684	-0.307531
C36	C	-1.060542	1.016550	-0.401613
C37	C	-0.950821	1.016502	-0.401590
C38	C	-1.115409	0.969481	-0.448657
C39	C	-1.060552	0.922368	-0.495672
C40	C	-0.950824	0.922326	-0.495649
C41	C	-0.895964	0.969394	-0.448607
C42	C	-0.232176	1.063631	-0.354581
C43	C	-0.115399	1.063659	-0.354595
C44	C	-0.506149	1.063610	-0.546500
C45	C	-0.506123	1.063629	-0.628299
C46	C	-0.506243	1.255520	-0.354560
C47	C	-0.506257	1.337318	-0.354566
C48	C	-0.573198	1.110716	-0.893356
C49	C	-0.573235	1.110705	-0.816497
C50	C	-0.438846	1.016597	-0.816490
C51	C	-0.438815	1.016605	-0.893348
C52	C	-0.505990	1.063669	-0.931778
C53	C	-0.506057	1.063650	-0.778062
C54	C	-0.506096	1.063637	-0.694728
C55	C	-0.505953	1.063681	-1.015117
C56	C	-0.506194	1.063566	-0.163340
C57	C	-0.505923	1.063690	-0.081542
H58	H	-0.627955	0.633620	-0.269007
O59	O	-0.373576	0.970798	-0.930593
C60	C	-0.322608	0.845622	-0.954121
C61	C	-0.396531	0.897417	-0.911884
H62	H	-0.341156	0.786283	-0.939023
H63	H	-0.237880	0.858497	-0.939007
H64	H	-0.334109	0.853746	-1.015651
H65	H	-0.385124	0.889322	-0.850345
H66	H	-0.481232	0.884529	-0.927059
H67	H	-0.384470	0.633695	-0.440087
O68	O	-0.897618	1.250539	-0.167674
C69	C	-0.864082	1.286270	-0.042507
C70	C	-0.924393	1.234504	-0.094293
H71	H	-0.885690	1.273315	0.016833
H72	H	-0.885594	1.345628	-0.055417
H73	H	-0.776243	1.278159	-0.050604
H74	H	-1.012245	1.242550	-0.086225
H75	H	-0.902793	1.175166	-0.081371
H76	H	-0.806622	0.969359	-0.448580
O77	O	-1.113699	1.250765	-0.167861
C78	C	-1.147226	1.375981	-0.132276
C79	C	-1.086925	1.324123	-0.183991
H80	H	-1.125618	1.435302	-0.145308
H81	H	-1.125705	1.363141	-0.072907
H82	H	-1.235066	1.367887	-0.140359
H83	H	-0.999071	1.332188	-0.175972
H84	H	-1.108533	1.336975	-0.243340
O85	O	-0.638630	1.156303	-0.779141
C86	C	-0.780476	1.166172	-0.692328
C87	C	-0.706493	1.114447	-0.734600
H88	H	-0.835346	1.132354	-0.656296
H89	H	-0.828556	1.199795	-0.732968
H90	H	-0.732236	1.204671	-0.656387
H91	H	-0.754651	1.075904	-0.770542
H92	H	-0.658409	1.080876	-0.693921
O93	O	-1.221974	1.158015	-0.260567
C94	C	-1.379324	1.228619	-0.279611
C95	C	-1.258620	1.228517	-0.279590
H96	H	-1.408989	1.285609	-0.295005
H97	H	-1.409250	1.213440	-0.222612
H98	H	-1.409094	1.186858	-0.321286
H99	H	-1.228761	1.270279	-0.237952
H100	H	-1.228766	1.243664	-0.336615
H101	H	-1.105234	0.884052	-0.533974
H102	H	-0.384488	0.494268	-0.440090
H103	H	-0.806605	1.157710	-0.260463
O104	O	-0.638489	0.488028	-0.261684
C105	C	-0.697952	0.369607	-0.219875
C106	C	-0.624123	0.411941	-0.271706
H107	H	-0.686347	0.308083	-0.227948
H108	H	-0.782712	0.384665	-0.232698
H109	H	-0.679402	0.384741	-0.160562
H110	H	-0.642578	0.396830	-0.331036
H111	H	-0.539385	0.396879	-0.258819
O112	O	-1.221992	0.969591	-0.448798
C113	C	-1.379357	0.988483	-0.519411
C114	C	-1.258653	0.988405	-0.519348
H115	H	-1.409034	1.003677	-0.576449
H116	H	-1.409198	1.030260	-0.477769
H117	H	-1.409199	0.931511	-0.504067
H118	H	-1.228721	1.045346	-0.534711
H119	H	-1.228882	0.946588	-0.560976
O120	O	-0.897701	0.876498	-0.541350
C121	C	-0.909303	0.783133	-0.634686
C122	C	-0.969588	0.834983	-0.582953
H123	H	-0.967397	0.749566	-0.668346
H124	H	-0.858037	0.744595	-0.600899
H125	H	-0.857831	0.816897	-0.673148
H126	H	-1.021117	0.801278	-0.544480
H127	H	-1.020787	0.873523	-0.616786
O128	O	-0.373622	0.970957	-0.779043
C129	C	-0.314147	0.929209	-0.660638
C130	C	-0.388053	0.980945	-0.702952
H131	H	-0.325804	0.937256	-0.599111
H132	H	-0.229404	0.942153	-0.675706
H133	H	-0.332573	0.869873	-0.675779
H134	H	-0.369721	1.040298	-0.687834
H135	H	-0.472774	0.967939	-0.687880
O136	O	-0.638554	1.156450	-0.930574
C137	C	-0.771813	1.249818	-0.922465
C138	C	-0.697864	1.198050	-0.880227
H139	H	-0.819769	1.283475	-0.881778
H140	H	-0.826802	1.216059	-0.958417
H141	H	-0.723552	1.288282	-0.958479
H142	H	-0.746041	1.159576	-0.844173
H143	H	-0.642873	1.231855	-0.844322
