data_functionalizedCrystal
_audit_creation_method	'MofGen! by Chris Wilmer'
_symmetry_space_group_name_H-M	'P1'
_symmetry_Int_Tables_number	1
_symmetry_cell_setting	triclinic
loop_
_symmetry_equiv_pos_as_xyz
  x,y,z
_cell_length_a	18.050591
_cell_length_b	29.839131
_cell_length_c	18.050582
_cell_angle_alpha	89.974523
_cell_angle_beta	89.979078
_cell_angle_gamma	90.037426
loop_
_atom_site_label
_atom_site_type_symbol
_atom_site_fract_x
_atom_site_fract_y
_atom_site_fract_z
Zn1	Zn	1.135224	-0.178930	-0.420016
Zn2	Zn	1.135106	-0.254052	-0.295820
Zn3	Zn	1.011044	-0.178932	-0.295827
Zn4	Zn	1.010963	-0.254028	-0.419956
O5	O	1.073084	-0.216485	-0.357905
O6	O	1.239133	-0.188904	-0.403564
O7	O	1.118634	-0.244098	-0.191896
O8	O	1.027600	-0.116064	-0.312330
O9	O	1.239047	-0.244096	-0.312317
O10	O	1.118835	-0.116063	-0.403571
O11	O	1.027485	-0.188907	-0.191902
O12	O	0.907108	-0.188884	-0.312271
O13	O	1.027462	-0.244056	-0.523888
O14	O	0.907049	-0.244057	-0.403467
O15	O	1.118756	-0.188881	-0.523933
O16	O	1.118555	-0.316916	-0.312258
O17	O	1.027348	-0.316898	-0.403460
C18	C	0.880132	-0.216469	-0.357864
C19	C	0.797586	-0.216472	-0.357864
C20	C	0.598146	-0.186434	-0.308386
C21	C	0.548711	-0.227410	-0.290106
C22	C	0.646456	-0.216486	-0.357897
C23	C	0.548810	-0.175525	-0.376175
C24	C	0.500471	-0.216495	-0.357928
C25	C	0.598108	-0.257483	-0.339583
C26	C	0.598211	-0.205570	-0.425683
C27	C	0.548798	-0.246574	-0.407429
C28	C	0.730554	-0.216480	-0.357878
C29	C	0.416374	-0.216506	-0.357948
C30	C	1.072950	-0.333208	-0.357868
C31	C	1.072961	-0.383142	-0.357877
C32	C	1.120663	-0.692782	-0.310485
C33	C	1.120754	-0.880455	-0.310514
O34	O	1.161206	-0.904717	-0.270192
N35	N	1.073238	-0.903927	-0.357961
C36	C	1.025700	-0.880478	-0.405407
O37	O	0.985292	-0.904749	-0.445769
C38	C	1.025612	-0.692806	-0.405381
C39	C	1.073126	-0.669337	-0.357926
C40	C	1.168173	-0.669312	-0.263035
C41	C	1.168147	-0.622397	-0.263025
C42	C	1.120610	-0.598951	-0.310466
C43	C	1.073100	-0.622421	-0.357917
C44	C	0.978078	-0.669358	-0.452831
C45	C	0.978062	-0.622437	-0.452822
C46	C	1.025575	-0.598967	-0.405367
C47	C	1.025537	-0.552060	-0.405348
N48	N	1.073053	-0.528588	-0.357902
C49	C	1.120589	-0.552033	-0.310461
C50	C	1.025748	-0.979009	-0.405416
C51	C	1.025769	-1.025927	-0.405422
C52	C	1.120824	-1.025900	-0.310530
C53	C	1.120799	-0.978982	-0.310521
C54	C	1.073264	-0.955537	-0.357970
C55	C	1.120530	-0.453508	-0.310444
C56	C	1.120497	-0.406588	-0.310436
C57	C	1.025445	-0.406619	-0.405331
C58	C	1.025474	-0.453534	-0.405336
C59	C	1.073023	-0.476977	-0.357890
O60	O	0.985113	-0.527769	-0.445655
O61	O	1.161002	-0.527755	-0.270116
C62	C	1.120689	-0.739698	-0.310495
C63	C	1.073178	-0.763167	-0.357946
C64	C	1.025642	-0.739722	-0.405387
C65	C	1.073199	-0.810085	-0.357951
C66	C	1.120736	-0.833531	-0.310510
C67	C	1.168252	-0.810059	-0.263064
C68	C	1.168225	-0.763143	-0.263054
C69	C	0.978126	-0.763194	-0.452833
C70	C	0.978155	-0.810109	-0.452838
C71	C	1.025692	-0.833555	-0.405397
C72	C	1.266790	-0.216502	-0.357947
C73	C	1.349336	-0.216510	-0.357964
C74	C	1.073113	-0.216465	-0.551611
C75	C	1.073126	-0.216457	-0.634156
C76	C	1.073239	-0.099307	-0.357958
C77	C	1.073305	-0.049373	-0.357981
C78	C	1.023518	-0.246420	-0.833583
C79	C	1.091269	-0.257404	-0.882980
C80	C	1.073162	-0.216423	-0.785287
C81	C	1.005449	-0.205426	-0.882971
C82	C	1.073192	-0.216390	-0.931272
C83	C	1.140949	-0.227429	-0.833597
C84	C	1.055083	-0.175431	-0.833584
C85	C	1.122881	-0.186400	-0.882959
C86	C	1.073145	-0.216442	-0.701189
C87	C	1.073218	-0.216371	-1.015369
C88	C	1.073098	-0.216473	-0.164953
C89	C	1.073230	-0.216355	-0.082407
H90	H	0.619673	-0.292138	-0.324073
N91	N	1.219444	-0.694598	-0.211861
H92	H	1.272495	-0.686398	-0.223445
H93	H	1.207871	-0.686442	-0.158810
N94	N	0.967965	-0.280065	-0.804856
H95	H	0.968015	-0.279637	-0.748907
H96	H	0.916958	-0.272070	-0.823639
H97	H	1.039754	-0.140789	-0.811869
N98	N	0.926844	-0.737909	-0.503996
H99	H	0.956982	-0.718412	-0.538445
H100	H	0.896760	-0.759929	-0.534000
H101	H	0.948172	-0.196138	-0.904660
N102	N	1.178571	-0.152784	-0.911510
H103	H	1.165371	-0.121921	-0.892747
H104	H	1.229662	-0.161179	-0.893444
H105	H	1.106579	-0.292056	-0.904678
N106	N	0.626856	-0.152807	-0.252870
H107	H	0.608849	-0.161118	-0.201689
H108	H	0.682803	-0.152855	-0.253650
H109	H	0.526970	-0.236650	-0.232794
N110	N	0.627032	-0.193315	-0.501577
H111	H	0.658641	-0.165463	-0.497916
H112	H	0.657772	-0.218832	-0.521686
H113	H	0.986787	-0.472644	-0.443980
H114	H	0.527267	-0.272021	-0.449313
N115	N	1.216843	-0.239784	-0.804998
H116	H	1.216358	-0.239733	-0.749047
H117	H	1.230578	-0.270627	-0.823457
H118	H	0.527115	-0.140885	-0.391596
H119	H	1.159250	-0.472590	-0.271810
N120	N	1.171748	-0.381274	-0.259253
H121	H	1.201868	-0.403249	-0.229205
H122	H	1.206085	-0.361778	-0.289516
H123	H	1.206838	-0.603291	-0.224386
N124	N	1.172055	-0.953673	-0.259343
H125	H	1.206444	-0.934180	-0.289557
H126	H	1.141842	-0.934259	-0.224900
N127	N	1.172095	-1.051192	-0.259358
H128	H	1.164894	-1.084475	-0.266567
H129	H	1.225123	-1.042960	-0.270975
H130	H	0.987071	-1.045032	-0.444057
H131	H	0.987037	-0.959923	-0.444056
H132	H	0.939383	-0.688459	-0.491470
N133	N	0.926790	-0.597147	-0.503996
H134	H	0.938295	-0.605289	-0.557071
H135	H	0.873760	-0.605358	-0.492347
N136	N	0.974170	-0.381326	-0.456492
H137	H	0.981369	-0.348043	-0.449283
H138	H	0.985699	-0.389500	-0.509546
H139	H	1.206916	-0.744038	-0.224412
H140	H	1.206956	-0.829156	-0.224433
H141	H	0.939458	-0.829214	-0.491481
