data_functionalizedCrystal
_audit_creation_method	'MofGen! by Chris Wilmer'
_symmetry_space_group_name_H-M	'P1'
_symmetry_Int_Tables_number	1
_symmetry_cell_setting	triclinic
loop_
_symmetry_equiv_pos_as_xyz
  x,y,z
_cell_length_a	10.654562
_cell_length_b	14.519709
_cell_length_c	9.730223
_cell_angle_alpha	89.997715
_cell_angle_beta	89.996961
_cell_angle_gamma	84.085124
loop_
_atom_site_label
_atom_site_type_symbol
_atom_site_fract_x
_atom_site_fract_y
_atom_site_fract_z
O1	O	1.666579	0.129584	-0.114384
O2	O	1.300984	0.141913	-0.114367
O3	O	1.493474	0.001560	-0.114363
O4	O	1.474088	0.269936	-0.114387
O5	O	1.493472	0.001564	0.114217
O6	O	1.300982	0.141916	0.114213
O7	O	1.666576	0.129588	0.114196
Zn8	Zn	1.483779	0.135752	0.150497
Zn9	Zn	1.483782	0.135748	-0.150667
O10	O	1.474086	0.269940	0.114193
C11	C	1.254194	0.141007	-0.000075
C12	C	1.114777	0.138291	-0.000068
C13	C	1.049258	0.137026	0.124521
C14	C	0.918260	0.134482	0.124498
C15	C	0.918312	0.134471	-0.124713
C16	C	1.049309	0.137009	-0.124688
C17	C	1.114726	0.138309	0.249141
C18	C	1.049206	0.137045	0.373740
C19	C	0.918208	0.134501	0.373717
C20	C	0.852730	0.133220	0.249096
C21	C	1.492570	-0.032802	-0.000073
C22	C	1.489862	-0.135198	-0.000072
C23	C	1.479895	-0.510145	-0.000107
C24	C	1.482663	-0.405823	-0.000097
C25	C	1.484879	-0.322675	-0.000088
C26	C	1.487647	-0.218346	-0.000081
C27	C	1.713367	0.130493	-0.000099
C28	C	1.852783	0.133209	-0.000115
C29	C	1.474990	0.304302	-0.000100
C30	C	1.477698	0.406698	-0.000110
N31	N	1.483786	0.135755	0.356033
N32	N	1.483784	0.135738	-0.356204
C33	C	1.569042	0.073628	0.427961
C34	C	1.569039	0.073617	0.571844
C35	C	1.398519	0.197868	0.571859
C36	C	1.398517	0.197874	0.427978
C37	C	1.654311	0.011510	0.356015
C38	C	1.739576	-0.050621	0.427943
C39	C	1.739573	-0.050632	0.571826
C40	C	1.654305	0.011488	0.643781
H41	H	1.102528	0.138081	0.475201
H42	H	0.864866	0.133464	0.475171
O43	O	1.822441	-0.110859	0.641850
C44	C	1.900036	-0.060939	0.725053
H45	H	1.850172	0.010882	0.746618
H46	H	1.919822	-0.099304	0.826224
H47	H	1.992858	-0.054027	0.669599
H48	H	1.654324	0.011515	0.238859
O49	O	0.854824	0.133364	-0.245847
C50	C	0.872798	0.213726	-0.321633
H51	H	0.963230	0.242146	-0.286191
H52	H	0.880450	0.195883	-0.435621
H53	H	0.789249	0.268131	-0.304369
H54	H	1.654301	0.011467	0.760941
O55	O	1.822548	-0.110924	0.358178
C56	C	1.946905	-0.095085	0.393272
H57	H	1.946863	-0.059557	0.497750
H58	H	2.008586	-0.163991	0.398150
H59	H	1.985827	-0.048901	0.312296
H60	H	1.329098	0.248444	0.630454
O61	O	1.315829	0.258352	0.358158
C62	C	1.336415	0.349789	0.393336
H63	H	1.436954	0.350932	0.432888
H64	H	1.322073	0.395974	0.298711
H65	H	1.266865	0.376398	0.476851
O66	O	1.242005	0.140612	0.249243
C67	C	1.299780	0.061748	0.317652
H68	H	1.234098	0.004556	0.315450
H69	H	1.392142	0.036680	0.263994
H70	H	1.319821	0.080234	0.428827
O71	O	0.725451	0.130904	0.249134
C72	C	0.667628	0.209772	0.317494
H73	H	0.733304	0.266968	0.315314
H74	H	0.575294	0.234828	0.263781
H75	H	0.647528	0.191294	0.428663
O76	O	1.113082	0.138369	-0.245621
C77	C	1.174806	0.219578	-0.253079
H78	H	1.189720	0.246542	-0.144891
H79	H	1.270094	0.203429	-0.305783
H80	H	1.114518	0.274429	-0.314591
