data_functionalizedCrystal
_audit_creation_method	'MofGen! by Chris Wilmer'
_symmetry_space_group_name_H-M	'P1'
_symmetry_Int_Tables_number	1
_symmetry_cell_setting	triclinic
loop_
_symmetry_equiv_pos_as_xyz
  x,y,z
_cell_length_a	17.699083
_cell_length_b	15.995350
_cell_length_c	16.176319
_cell_angle_alpha	89.995430
_cell_angle_beta	89.998611
_cell_angle_gamma	83.387695
loop_
_atom_site_label
_atom_site_type_symbol
_atom_site_fract_x
_atom_site_fract_y
_atom_site_fract_z
O1	O	1.004255	0.105885	-0.068627
O2	O	0.783899	0.119661	-0.068653
O3	O	0.900101	-0.009127	-0.068638
O4	O	0.888054	0.234673	-0.068641
O5	O	0.900085	-0.009135	0.068855
O6	O	0.783883	0.119653	0.068840
O7	O	1.004239	0.105877	0.068867
Cu8	Cu	0.894060	0.112764	0.081408
Cu9	Cu	0.894079	0.112774	-0.081194
O10	O	0.888038	0.234665	0.068852
C11	C	0.755694	0.119163	0.000090
C12	C	0.671673	0.117683	0.000080
C13	C	0.623178	0.193278	0.000079
C14	C	0.544232	0.191882	0.000090
C15	C	0.513783	0.114889	0.000095
C16	C	0.562285	0.039287	0.000098
C17	C	0.641229	0.040685	0.000094
C18	C	0.243912	0.033651	0.000119
C19	C	0.164962	0.032259	0.000121
C20	C	0.146916	0.184848	0.000115
C21	C	0.225860	0.186245	0.000110
C22	C	0.274354	0.110644	0.000118
C23	C	0.359956	0.112159	0.000108
C24	C	0.428183	0.113373	0.000099
C25	C	0.899595	-0.040324	0.000107
C26	C	0.898101	-0.133272	0.000102
C27	C	0.892739	-0.471008	0.000104
C28	C	0.809983	-0.423406	-0.000214
C29	C	0.811476	-0.326719	0.000096
C30	C	0.895399	-0.303453	0.000102
C31	C	0.936208	-0.344618	0.078621
C32	C	0.934129	-0.441250	0.078687
C33	C	0.935857	-0.441602	-0.077669
C34	C	0.935838	-0.344657	-0.078706
C35	C	0.896907	-0.208759	0.000104
C36	C	0.891234	-0.565703	0.000108
C37	C	1.032445	0.106375	0.000122
C38	C	1.116465	0.107856	0.000126
C39	C	0.888544	0.265863	0.000105
C40	C	0.890037	0.358810	0.000104
N41	N	0.894052	0.112757	0.195773
N42	N	0.894092	0.112775	-0.195559
C43	C	0.945521	0.055753	0.239043
C44	C	0.945525	0.055752	0.325591
C45	C	0.894063	0.112760	0.368865
C46	C	0.842588	0.169767	0.325589
C47	C	0.842581	0.169763	0.239043
C48	C	0.842614	0.169782	0.674617
C49	C	0.842626	0.169783	0.761168
C50	C	0.945558	0.055772	0.761164
C51	C	0.945551	0.055768	0.674619
C52	C	0.894074	0.112771	0.631350
C53	C	0.894069	0.112770	0.537505
C54	C	0.894070	0.112765	0.462708
H55	H	0.779397	-0.298228	-0.056190
H56	H	0.800682	0.216181	0.360828
F57	F	1.000327	-0.004904	0.628566
F58	F	0.295514	-0.046811	0.000127
H59	H	0.800700	0.216198	0.639394
H60	H	0.987435	0.009335	0.360821
H61	H	0.537487	-0.023402	0.000115
F62	F	0.899144	-0.307454	0.154990
H63	H	0.107421	0.246406	0.000113
H64	H	0.250646	0.248941	0.000102
F65	F	1.016797	-0.326321	0.082447
F66	F	1.000343	-0.004900	0.807221
H67	H	0.779168	-0.298792	0.056470
H68	H	0.800716	0.216208	0.796401
F69	F	0.787797	0.230432	0.192992
H70	H	0.987431	0.009334	0.203815
H71	H	0.647962	0.255975	0.000074
F72	F	0.132559	-0.049692	0.000127
F73	F	0.492623	0.272342	0.000085
F74	F	0.692841	-0.039775	0.000097
H75	H	0.908807	-0.462083	-0.137181
F76	F	0.766755	-0.447533	-0.073814
H77	H	0.996873	-0.473487	-0.078191
F78	F	0.766821	-0.449214	0.072763
H79	H	0.904358	-0.459494	0.137376
F80	F	0.897139	-0.308569	-0.154640
F81	F	1.015831	-0.324736	-0.084902
F82	F	1.013542	-0.483565	0.083358
