data_functionalizedCrystal
_audit_creation_method	'MofGen! by Chris Wilmer'
_symmetry_space_group_name_H-M	'P1'
_symmetry_Int_Tables_number	1
_symmetry_cell_setting	triclinic
loop_
_symmetry_equiv_pos_as_xyz
  x,y,z
_cell_length_a	10.654550
_cell_length_b	9.065218
_cell_length_c	8.140239
_cell_angle_alpha	90.001551
_cell_angle_beta	89.996988
_cell_angle_gamma	95.249592
loop_
_atom_site_label
_atom_site_type_symbol
_atom_site_fract_x
_atom_site_fract_y
_atom_site_fract_z
O1	O	0.184157	-1.959389	-0.136617
O2	O	0.199263	-1.530021	-0.136620
O3	O	0.009010	-1.754577	-0.136608
O4	O	0.374410	-1.734833	-0.136629
O5	O	0.009008	-1.754570	0.136619
O6	O	0.199261	-1.530014	0.136607
O7	O	0.184156	-1.959381	0.136610
Zn8	Zn	0.191708	-1.744697	0.179989
Zn9	Zn	0.191710	-1.744706	-0.179999
O10	O	0.374409	-1.734826	0.136598
C11	C	-0.037795	-1.753124	0.000005
C12	C	-0.177255	-1.748786	0.000002
C13	C	0.197810	-1.475039	-0.000006
C14	C	0.193469	-1.311220	-0.000007
C15	C	0.185608	-2.014364	-0.000007
C16	C	0.189949	-2.178183	-0.000017
C17	C	-0.256217	-1.881001	0.000002
C18	C	-0.387254	-1.876917	-0.000018
C19	C	-0.360354	-1.608391	-0.000031
C20	C	-0.229320	-1.612477	-0.000023
C21	C	-0.582482	-2.032637	-0.095750
C22	C	-0.661449	-2.164859	-0.095722
C23	C	-0.630803	-2.284719	0.000029
C24	C	-0.521192	-2.272363	0.095790
C25	C	-0.442231	-2.140139	0.095777
C26	C	-0.472876	-2.020284	-0.000012
C27	C	-0.034091	-1.456767	0.095723
C28	C	0.044872	-1.324541	0.095721
C29	C	0.014230	-1.204668	-0.000020
C30	C	-0.095384	-1.217009	-0.095757
C31	C	-0.174347	-1.349235	-0.095755
C32	C	-0.143695	-1.469109	-0.000018
C33	C	0.421213	-1.736279	-0.000018
C34	C	0.560673	-1.740616	-0.000026
N35	N	0.191706	-1.744701	0.425672
N36	N	0.191702	-1.744713	-0.425682
H37	H	-0.213831	-1.991993	0.000019
C38	C	-0.749786	-2.156533	-0.366559
C39	C	-0.781924	-2.178451	-0.200993
H40	H	-0.824164	-2.164937	-0.431539
H41	H	-0.707155	-2.060642	-0.380272
H42	H	-0.696258	-2.229175	-0.400155
H43	H	-0.835444	-2.105802	-0.167393
H44	H	-0.824574	-2.274356	-0.187271
C45	C	-0.036612	-0.966591	-0.180808
C46	C	-0.129071	-1.085249	-0.201013
H47	H	-0.057406	-0.885249	-0.245795
H48	H	-0.032515	-0.938147	-0.068497
H49	H	0.042788	-0.995899	-0.214458
H50	H	-0.208470	-1.055944	-0.167351
H51	H	-0.133182	-1.113695	-0.313348
H52	H	-0.402762	-1.497413	-0.000049
H53	H	-0.009112	-1.554387	0.173652
C54	C	-0.262701	-1.340869	-0.366570
C55	C	-0.294831	-1.362822	-0.201006
H56	H	-0.337081	-1.349270	-0.431545
H57	H	-0.220078	-1.244972	-0.380265
H58	H	-0.209168	-1.413499	-0.400188
H59	H	-0.348357	-1.290185	-0.167384
H60	H	-0.337473	-1.458733	-0.187303
C61	C	-0.311522	-2.259676	0.285078
C62	C	-0.321748	-2.126548	0.201016
H63	H	-0.237133	-2.251289	0.350035
H64	H	-0.382881	-2.280129	0.354086
H65	H	-0.307596	-2.337891	0.208114
H66	H	-0.325684	-2.048334	0.277981
H67	H	-0.250371	-2.106077	0.132002
C68	C	-0.579969	-2.522781	0.180852
C69	C	-0.487517	-2.404115	0.201062
H70	H	-0.559170	-2.604122	0.245837
H71	H	-0.659364	-2.493484	0.214486
H72	H	-0.584055	-2.551229	0.068526
H73	H	-0.483437	-2.375660	0.313387
H74	H	-0.408100	-2.433416	0.167438
C75	C	0.133245	-1.332935	0.366526
C76	C	0.165362	-1.310965	0.200961
H77	H	0.207632	-1.324560	0.431489
H78	H	0.079727	-1.260315	0.400165
H79	H	0.090612	-1.428845	0.380210
H80	H	0.207987	-1.215050	0.187275
H81	H	0.218901	-1.383588	0.167311
H82	H	-0.695107	-2.392377	0.000049
H83	H	-0.607436	-1.935052	-0.173741
H84	H	0.078524	-1.096996	0.000009
