data_functionalizedCrystal
_audit_creation_method	'MofGen! by Chris Wilmer'
_symmetry_space_group_name_H-M	'P1'
_symmetry_Int_Tables_number	1
_symmetry_cell_setting	triclinic
loop_
_symmetry_equiv_pos_as_xyz
  x,y,z
_cell_length_a	26.374263
_cell_length_b	26.373608
_cell_length_c	26.370205
_cell_angle_alpha	60.005297
_cell_angle_beta	60.010839
_cell_angle_gamma	59.993700
loop_
_atom_site_label
_atom_site_type_symbol
_atom_site_fract_x
_atom_site_fract_y
_atom_site_fract_z
O1	O	0.070152	-0.740800	0.619517
O2	O	0.026377	-0.576764	0.499159
O3	O	0.130245	-0.680560	0.499088
O4	O	-0.033715	-0.637003	0.619589
O5	O	0.164701	-0.646107	0.533470
O6	O	0.060833	-0.542310	0.533541
O7	O	0.104608	-0.706346	0.653899
Cu8	Cu	0.085867	-0.621182	0.596859
Cu9	Cu	0.045119	-0.661927	0.556199
O10	O	0.000741	-0.602549	0.653971
N11	N	0.114528	-0.592529	0.625461
N12	N	0.016463	-0.690587	0.527598
C13	C	0.181428	-0.355400	0.692330
C14	C	0.181530	-0.525690	0.862573
C15	C	0.181440	-0.525667	0.692313
C16	C	0.351736	-0.525673	0.692271
C17	C	0.200174	-0.411588	0.711047
C18	C	0.200232	-0.506954	0.806384
C19	C	0.295546	-0.506943	0.711016
C20	C	0.200182	-0.506940	0.711037
C21	C	0.157567	-0.283881	0.668507
C22	C	0.157587	-0.549500	0.668479
C23	C	0.224035	-0.483107	0.734871
C24	C	0.455739	-0.507754	0.637520
C25	C	0.520749	-0.529425	0.615835
C26	C	0.520768	-0.634611	0.655947
C27	C	0.455759	-0.612939	0.677633
C28	C	0.173240	-0.251367	0.604595
C29	C	0.151546	-0.186351	0.582941
C30	C	0.098512	-0.186369	0.689113
C31	C	0.120206	-0.251385	0.710768
C32	C	0.093669	-0.533798	0.684205
C33	C	0.071992	-0.555464	0.662532
C34	C	0.178144	-0.608536	0.609422
C35	C	0.199825	-0.586869	0.631088
C36	C	0.093821	-0.533842	0.966616
C37	C	0.072187	-0.555526	1.031630
C38	C	0.178370	-0.608608	1.031591
C39	C	0.200004	-0.586926	0.966576
C40	C	0.157728	-0.549541	0.934090
C41	C	0.423247	-0.549509	0.668416
C42	C	-0.097522	-0.709158	0.508557
C43	C	-0.002050	-0.709295	0.413344
C44	C	-0.002241	-0.804604	0.508735
C45	C	-0.002225	-0.709288	0.508793
C46	C	-0.026009	-0.733087	0.484858
N47	N	0.552340	-0.592538	0.625346
O48	O	0.750867	-0.598274	0.477076
O49	O	0.751048	-0.718989	0.640960
O50	O	0.750981	-0.718715	0.537020
O51	O	0.750934	-0.598547	0.581017
O52	O	0.647701	-0.684348	0.571512
O53	O	0.647768	-0.684622	0.675452
O54	O	0.647587	-0.563907	0.511569
Cu55	Cu	0.638247	-0.621127	0.596660
Cu56	Cu	0.760388	-0.661769	0.555869
O57	O	0.647654	-0.564181	0.615509
N58	N	0.846295	-0.690358	0.527176
N59	N	0.114503	-0.154778	0.625499
O60	O	-0.033701	0.043855	0.619632
O61	O	0.130190	0.043858	0.498933
O62	O	0.026233	0.043841	0.499224
O63	O	0.070257	0.043872	0.619341
O64	O	0.060690	-0.059448	0.533654
O65	O	0.164647	-0.059431	0.533363
O66	O	0.000756	-0.059434	0.654062
Cu67	Cu	0.085848	-0.068863	0.596857
Cu68	Cu	0.045099	0.053287	0.556138
O69	O	0.104714	-0.059417	0.653771
N70	N	0.016435	0.139202	0.527497
N71	N	0.114760	-0.592585	1.063190
O72	O	0.108896	-0.740779	1.261808
O73	O	-0.011787	-0.576838	1.261822
O74	O	-0.011509	-0.680779	1.261780
O75	O	0.108618	-0.636838	1.261850
O76	O	0.022916	-0.646341	1.158496
O77	O	0.022638	-0.542399	1.158538
O78	O	0.143321	-0.706341	1.158524
Cu79	Cu	0.086123	-0.621225	1.149100
Cu80	Cu	0.045411	-0.661953	1.271246
O81	O	0.143044	-0.602399	1.158566
N82	N	0.016774	-0.690600	1.357156
C83	C	0.039504	-0.538867	0.499769
C84	C	0.168130	-0.667407	0.499680
C85	C	0.091482	-0.744243	0.653289
C86	C	-0.037145	-0.615703	0.653378
C87	C	0.699429	-0.718429	0.678853
C88	C	0.699348	-0.718091	0.550135
C89	C	0.699202	-0.564465	0.473677
C90	C	0.699287	-0.564805	0.602393
C91	C	0.168023	-0.007659	0.499484
C92	C	0.039327	-0.007807	0.499887
C93	C	-0.037119	-0.007789	0.653468
C94	C	0.091620	-0.007770	0.653109
C95	C	-0.011194	-0.538964	1.210181
C96	C	-0.010843	-0.667676	1.210109
C97	C	0.142729	-0.744214	1.210165
C98	C	0.142386	-0.615494	1.210214
H99	H	0.020147	-0.542732	1.058106
O100	O	0.187953	-0.800386	1.210244
C101	C	0.255827	-0.891564	1.263777
C102	C	0.204623	-0.827955	1.263759
H103	H	0.269312	-0.913877	1.307045
H104	H	0.298213	-0.885075	1.220591
H105	H	0.237831	-0.922850	1.263725
H106	H	0.222562	-0.796635	1.263832
H107	H	0.162248	-0.834491	1.306941
H108	H	0.699474	-0.756325	0.725922
H109	H	-0.048566	-0.677061	1.210046
O110	O	0.028001	-0.007862	0.454950
C111	C	-0.045796	-0.007882	0.426563
C112	C	-0.033052	-0.007822	0.477509
H113	H	-0.095161	-0.007836	0.444778
H114	H	-0.011449	-0.051129	0.413012
H115	H	-0.040222	0.035323	0.384159
H116	H	-0.038634	-0.050998	0.519946
H117	H	-0.067397	0.035454	0.491007
O118	O	0.699339	-0.763051	0.538814
C119	C	0.699344	-0.791473	0.465021
C120	C	0.699340	-0.740497	0.477765
H121	H	0.699359	-0.773261	0.415660
H122	H	0.656141	-0.805072	0.499379
H123	H	0.742586	-0.833847	0.470582
H124	H	0.656128	-0.698089	0.472196
H125	H	0.742573	-0.726951	0.443409
H126	H	0.699142	-0.526565	0.426612
H127	H	0.699278	-0.527058	0.611808
O128	O	0.224082	-0.007285	0.454219
C129	C	0.326227	-0.006803	0.425182
C130	C	0.262765	-0.007211	0.476493
H131	H	0.357524	-0.006756	0.443176
H132	H	0.319480	0.036526	0.382961
H133	H	0.348675	-0.049925	0.411433
H134	H	0.240283	0.035882	0.490295
H135	H	0.269552	-0.050568	0.518680
O136	O	0.224352	-0.678574	0.454610
C137	C	0.326602	-0.752178	0.425894
C138	C	0.262964	-0.739610	0.476995
H139	H	0.357833	-0.801529	0.443969
H140	H	0.348989	-0.717778	0.412320
H141	H	0.320077	-0.746540	0.383540
H142	H	0.269434	-0.745256	0.519382
H143	H	0.240598	-0.774008	0.490517
H144	H	0.101045	-0.007760	0.690842
O145	O	0.102535	-0.800413	0.698465
C146	C	0.061777	-0.864273	0.803123
C147	C	0.049181	-0.800629	0.752022
H148	H	0.018645	-0.864474	0.846432
H149	H	0.102394	-0.873337	0.814804
H150	H	0.073609	-0.902146	0.785943
H151	H	0.037322	-0.762717	0.769160
H152	H	0.008582	-0.791619	0.740349
O153	O	-0.093225	-0.007895	0.698730
C154	C	-0.148657	-0.061372	0.802319
C155	C	-0.085078	-0.061339	0.751112
H156	H	-0.142091	-0.104570	0.844688
H157	H	-0.179994	-0.061419	0.784373
H158	H	-0.170954	-0.018120	0.815821
H159	H	-0.062728	-0.104583	0.737588
H160	H	-0.053785	-0.061259	0.769087
O161	O	-0.093349	-0.604519	0.698466
C162	C	-0.195624	-0.530940	0.727156
C163	C	-0.131998	-0.543519	0.676044
H164	H	-0.226894	-0.481628	0.709042
H165	H	-0.189159	-0.536497	0.769509
H166	H	-0.217939	-0.565407	0.740745
H167	H	-0.109649	-0.509064	0.662402
H168	H	-0.138504	-0.537984	0.633724
H169	H	-0.049082	-0.491880	1.210184
H170	H	0.180125	-0.606093	1.210228
H171	H	0.059391	-0.503396	0.940172
H172	H	0.252044	-0.599714	0.940097
O173	O	0.219522	-0.644937	1.063051
C174	C	0.327125	-0.695276	1.056151
C175	C	0.280591	-0.654133	1.020445
H176	H	0.376509	-0.702712	1.021720
H177	H	0.319697	-0.742068	1.086561
H178	H	0.319612	-0.671466	1.086613
H179	H	0.288075	-0.677887	0.989949
H180	H	0.288030	-0.607342	0.990074
H181	H	0.019945	-0.542665	0.675322
O182	O	0.052556	-0.497478	0.720493
C183	C	-0.055024	-0.447147	0.770908
C184	C	-0.008531	-0.488273	0.729795
H185	H	-0.104423	-0.439703	0.778453
H186	H	-0.047592	-0.400357	0.747100
H187	H	-0.047473	-0.470975	0.817650
H188	H	-0.016055	-0.464499	0.683046
H189	H	-0.015975	-0.535060	0.753652
H190	H	0.251872	-0.599651	0.618278
O191	O	0.219206	-0.644746	0.573013
C192	C	0.303309	-0.653048	0.477326
C193	C	0.256833	-0.611974	0.518493
H194	H	0.333750	-0.626572	0.433244
H195	H	0.276873	-0.665827	0.464481
H196	H	0.333739	-0.697177	0.503805
H197	H	0.226390	-0.567819	0.492052
H198	H	0.283306	-0.599245	0.531341
O199	O	0.424231	-0.653517	0.707543
C200	C	0.404385	-0.729973	0.701754
C201	C	0.440114	-0.684027	0.667806
H202	H	0.417223	-0.754662	0.669647
H203	H	0.352326	-0.703625	0.715656
H204	H	0.417188	-0.765680	0.745116
H205	H	0.427363	-0.648309	0.624423
H206	H	0.492165	-0.710417	0.653951
O207	O	0.552288	-0.488824	0.585726
C208	C	0.572113	-0.398687	0.498116
C209	C	0.536367	-0.444631	0.532149
H210	H	0.559244	-0.362937	0.454799
H211	H	0.624169	-0.425037	0.484148
H212	H	0.559357	-0.374049	0.530236
H213	H	0.549071	-0.469281	0.500063
H214	H	0.484319	-0.418247	0.546126
O215	O	0.424126	-0.446129	0.628490
C216	C	0.350669	-0.353771	0.583017
C217	C	0.386439	-0.423554	0.593187
H218	H	0.320180	-0.335502	0.554486
H219	H	0.385035	-0.327615	0.557176
H220	H	0.320277	-0.346546	0.629905
H221	H	0.416831	-0.430837	0.546327
H222	H	0.352039	-0.449677	0.619057
H223	H	0.203661	-0.277820	0.570179
O224	O	0.166846	-0.154857	0.520834
C225	C	0.221700	-0.161699	0.417808
C226	C	0.204434	-0.197439	0.488126
H227	H	0.252081	-0.196111	0.391343
H228	H	0.248198	-0.131272	0.404967
H229	H	0.177558	-0.131248	0.405055
H230	H	0.248544	-0.227924	0.500930
H231	H	0.177912	-0.227826	0.500929
H232	H	0.068098	-0.159910	0.723527
H233	H	0.547237	-0.686258	0.663446
H234	H	0.030155	-0.491745	0.461969
O235	O	0.104946	-0.282872	0.772873
C236	C	0.050018	-0.276025	0.875897
C237	C	0.067267	-0.240288	0.805578
H238	H	0.019541	-0.241612	0.902359
H239	H	0.094124	-0.306446	0.888719
H240	H	0.023582	-0.306482	0.888671
H241	H	0.093687	-0.209797	0.792754
H242	H	0.023138	-0.209906	0.792793
