data_functionalizedCrystal
_audit_creation_method	'MofGen! by Chris Wilmer'
_symmetry_space_group_name_H-M	'P1'
_symmetry_Int_Tables_number	1
_symmetry_cell_setting	triclinic
loop_
_symmetry_equiv_pos_as_xyz
  x,y,z
_cell_length_a	9.065215
_cell_length_b	17.699092
_cell_length_c	7.540329
_cell_angle_alpha	89.998097
_cell_angle_beta	89.997574
_cell_angle_gamma	84.150533
loop_
_atom_site_label
_atom_site_type_symbol
_atom_site_fract_x
_atom_site_fract_y
_atom_site_fract_z
O1	O	1.957119	0.110962	-0.147454
O2	O	2.457119	0.610962	0.352546
O3	O	1.527564	0.120067	-0.147462
O4	O	2.027564	0.620067	0.352538
O5	O	1.754471	0.005420	-0.147454
O6	O	2.254471	0.505420	0.352546
O7	O	1.730212	0.225609	-0.147462
O8	O	2.230212	0.725609	0.352538
O9	O	1.754458	0.005419	0.147511
O10	O	2.254458	0.505419	0.647511
O11	O	1.527551	0.120065	0.147503
O12	O	2.027551	0.620065	0.647503
O13	O	1.957105	0.110960	0.147511
O14	O	2.457105	0.610960	0.647511
Cu15	Cu	1.742327	0.115513	0.174440
Cu16	Cu	2.242327	0.615513	0.674440
Cu17	Cu	1.742343	0.115515	-0.174391
Cu18	Cu	2.242343	0.615515	0.325609
O19	O	1.730198	0.225607	0.147503
O20	O	2.230198	0.725607	0.647503
C21	C	1.472597	0.119192	0.000020
C22	C	1.972597	0.619192	0.500020
C23	C	1.308831	0.116577	0.000017
C24	C	1.808831	0.616577	0.500017
C25	C	1.753593	-0.022784	0.000026
C26	C	2.253593	0.477216	0.500026
C27	C	1.750979	-0.106822	0.000018
C28	C	2.250979	0.393178	0.500018
C29	C	1.749762	-0.146299	-0.160770
C30	C	2.249762	0.353701	0.339230
C31	C	1.747296	-0.225261	-0.160772
C32	C	2.247296	0.274739	0.339228
C33	C	1.746059	-0.264746	0.000015
C34	C	2.246059	0.235254	0.500015
C35	C	1.747272	-0.225264	0.160815
C36	C	2.247272	0.274736	0.660815
C37	C	1.749727	-0.146303	0.160815
C38	C	2.249727	0.353697	0.660815
C39	C	1.737369	-0.543706	0.160818
C40	C	2.237369	-0.043706	0.660818
C41	C	1.734918	-0.622673	0.160805
C42	C	2.234918	-0.122673	0.660805
C43	C	1.734939	-0.622664	-0.160770
C44	C	2.234939	-0.122664	0.339230
C45	C	1.737394	-0.543703	-0.160770
C46	C	2.237394	-0.043703	0.339230
C47	C	1.738599	-0.504227	0.000029
C48	C	2.238599	-0.004227	0.500029
C49	C	1.741269	-0.418608	0.000030
C50	C	2.241269	0.081392	0.500030
C51	C	1.743398	-0.350365	0.000017
C52	C	2.243398	0.149635	0.500017
C53	C	2.012073	0.111836	0.000025
C54	C	2.512073	0.611836	0.500025
C55	C	2.175839	0.114451	0.000017
C56	C	2.675839	0.614451	0.500017
C57	C	1.731076	0.253812	0.000019
C58	C	2.231076	0.753812	0.500019
C59	C	1.733690	0.337850	0.000016
C60	C	2.233690	0.837850	0.500016
N61	N	1.742326	0.115511	0.419788
N62	N	2.242326	0.615511	0.919788
N63	N	1.742355	0.115510	-0.419739
N64	N	2.242355	0.615510	0.080261
H65	H	1.750777	-0.114156	-0.291702
H66	H	2.250777	0.385844	0.208298
H67	H	1.733950	-0.654814	-0.291700
H68	H	2.233950	-0.154814	0.208300
H69	H	1.738408	-0.511558	-0.291699
H70	H	2.238408	-0.011558	0.208301
H71	H	1.733907	-0.654820	0.291745
H72	H	2.233907	-0.154820	0.791745
H73	H	1.738380	-0.511577	0.291750
H74	H	2.238380	-0.011577	0.791750
H75	H	1.746311	-0.257399	-0.291701
H76	H	2.246311	0.242601	0.208299
H77	H	1.750697	-0.114161	0.291745
H78	H	2.250697	0.385839	0.791745
H79	H	1.746255	-0.257419	0.291731
H80	H	2.246255	0.242581	0.791731
