data_functionalizedCrystal
_audit_creation_method	'MofGen! by Chris Wilmer'
_symmetry_space_group_name_H-M	'P1'
_symmetry_Int_Tables_number	1
_symmetry_cell_setting	triclinic
loop_
_symmetry_equiv_pos_as_xyz
  x,y,z
_cell_length_a	27.435584
_cell_length_b	27.434948
_cell_length_c	27.431174
_cell_angle_alpha	60.005483
_cell_angle_beta	60.011353
_cell_angle_gamma	59.993028
loop_
_atom_site_label
_atom_site_type_symbol
_atom_site_fract_x
_atom_site_fract_y
_atom_site_fract_z
O1	O	0.067437	-0.712144	0.595551
O2	O	0.567437	-0.212144	1.095551
O3	O	0.025356	-0.554453	0.479848
O4	O	0.525356	-0.054453	0.979848
O5	O	0.125206	-0.654236	0.479781
O6	O	0.625206	-0.154236	0.979781
O7	O	-0.032412	-0.612361	0.595618
O8	O	0.467588	-0.112361	1.095618
O9	O	0.158328	-0.621117	0.512835
O10	O	0.658328	-0.121117	1.012835
O11	O	0.058479	-0.521333	0.512902
O12	O	0.558479	-0.021333	1.012902
O13	O	0.100560	-0.679025	0.628605
O14	O	0.600560	-0.179025	1.128605
Zn15	Zn	0.084778	-0.594921	0.576001
Zn16	Zn	0.584778	-0.094921	1.076001
Zn17	Zn	0.041138	-0.638557	0.532452
Zn18	Zn	0.541138	-0.138557	1.032452
O19	O	0.000710	-0.579241	0.628672
O20	O	0.500710	-0.079241	1.128672
N21	N	0.114563	-0.565144	0.605726
N22	N	0.614563	-0.065144	1.105726
N23	N	0.011358	-0.668338	0.502727
N24	N	0.511358	-0.168338	1.002727
C25	C	0.156385	-0.523520	0.904506
C26	C	0.656385	-0.023520	1.404506
C27	C	0.413419	-0.523497	0.647322
C28	C	0.913419	-0.023497	1.147322
C29	C	0.156253	-0.523488	0.647384
C30	C	0.656253	-0.023488	1.147384
C31	C	0.156238	-0.266354	0.647407
C32	C	0.656238	0.233646	1.147407
C33	C	0.197637	-0.390463	0.688753
C34	C	0.697637	0.109537	1.188753
C35	C	0.197646	-0.482126	0.688741
C36	C	0.697646	0.017874	1.188741
C37	C	0.220575	-0.459215	0.711654
C38	C	0.720575	0.040785	1.211654
C39	C	0.320555	-0.441991	0.659023
C40	C	0.820555	0.058009	1.159023
C41	C	0.383051	-0.462825	0.638179
C42	C	0.883051	0.037175	1.138179
C43	C	0.383069	-0.563942	0.676737
C44	C	0.883069	-0.063942	1.176737
C45	C	0.320575	-0.543107	0.697583
C46	C	0.820575	-0.043107	1.197583
C47	C	0.212704	-0.359206	0.627313
C48	C	0.712704	0.140794	1.127313
C49	C	0.191849	-0.296705	0.606496
C50	C	0.691849	0.203295	1.106496
C51	C	0.140866	-0.296722	0.708562
C52	C	0.640866	0.203278	1.208562
C53	C	0.161721	-0.359223	0.729379
C54	C	0.661721	0.140777	1.229379
C55	C	0.136200	-0.467030	0.703858
C56	C	0.636200	0.032970	1.203858
C57	C	0.115361	-0.487857	0.683021
C58	C	0.615361	0.012143	1.183021
C59	C	0.217408	-0.538877	0.631968
C60	C	0.717408	-0.038877	1.131968
C61	C	0.238249	-0.518050	0.652796
C62	C	0.738249	-0.018050	1.152796
C63	C	0.136259	-0.467047	0.811668
C64	C	0.636259	0.032953	1.311668
C65	C	0.115461	-0.487892	0.874167
C66	C	0.615461	0.012108	1.374167
C67	C	0.217537	-0.538923	0.874131
C68	C	0.717537	-0.038923	1.374131
C69	C	0.238333	-0.518080	0.811631
C70	C	0.738333	-0.018080	1.311631
C71	C	0.197693	-0.482140	0.780401
C72	C	0.697693	0.017860	1.280401
C73	C	0.289320	-0.482131	0.688723
C74	C	0.789320	0.017869	1.188723
C75	C	0.132699	-0.546027	0.973247
C76	C	0.632699	-0.046027	1.473247
C77	C	0.482158	-0.545613	0.624075
C78	C	0.982158	-0.045613	1.124075
C79	C	0.132521	-0.546006	0.624886
C80	C	0.632521	-0.046006	1.124886
C81	C	0.132917	-0.197607	0.625310
C82	C	0.632917	0.302393	1.125310
C83	C	-0.098217	-0.686189	0.484419
C84	C	0.401783	-0.186189	0.984419
C85	C	-0.006438	-0.686322	0.392891
C86	C	0.493562	-0.186322	0.892891
C87	C	-0.006621	-0.777944	0.484592
C88	C	0.493379	-0.277944	0.984592
C89	C	-0.006606	-0.686315	0.484649
C90	C	0.493394	-0.186315	0.984649
C91	C	-0.029470	-0.709193	0.461638
C92	C	0.470530	-0.209193	0.961638
N93	N	0.538410	-0.565162	0.605628
N94	N	1.038410	-0.065162	1.105628
O95	O	0.742647	-0.575135	0.458625
O96	O	1.242647	-0.075135	0.958625
O97	O	0.742821	-0.691181	0.616169
O98	O	1.242821	-0.191181	1.116169
O99	O	0.742757	-0.690917	0.516248
O100	O	1.242757	-0.190917	1.016248
O101	O	0.742711	-0.575399	0.558546
O102	O	1.242711	-0.075399	1.058546
O103	O	0.643472	-0.657878	0.549405
O104	O	1.143472	-0.157878	1.049405
O105	O	0.643536	-0.658142	0.649326
O106	O	1.143536	-0.158142	1.149326
O107	O	0.643362	-0.542096	0.491782
O108	O	1.143362	-0.042096	0.991782
Zn109	Zn	0.627685	-0.594873	0.575818
Zn110	Zn	1.127685	-0.094873	1.075818
Zn111	Zn	0.758498	-0.638404	0.532133
Zn112	Zn	1.258498	-0.138404	1.032133
O113	O	0.643426	-0.542360	0.591702
O114	O	1.143426	-0.042360	1.091702
N115	N	0.847774	-0.668115	0.502317
N116	N	1.347774	-0.168115	1.002317
N117	N	0.114542	-0.141354	0.605766
N118	N	0.614542	0.358646	1.105766
O119	O	-0.032397	0.062987	0.595660
O120	O	0.467603	0.562987	1.095660
O121	O	0.125155	0.062987	0.479633
O122	O	0.625155	0.562987	0.979633
O123	O	0.025219	0.062974	0.479910
O124	O	0.525219	0.562974	0.979910
O125	O	0.067539	0.063001	0.595383
O126	O	0.567539	0.563001	1.095383
O127	O	0.058343	-0.036320	0.513009
O128	O	0.558343	0.463680	1.013009
O129	O	0.158279	-0.036306	0.512732
O130	O	0.658279	0.463694	1.012732
O131	O	0.000728	-0.036306	0.628759
O132	O	0.500728	0.463694	1.128759
Zn133	Zn	0.084763	-0.052071	0.576000
Zn134	Zn	0.584763	0.447929	1.076000
Zn135	Zn	0.041120	0.078752	0.532392
Zn136	Zn	0.541120	0.578752	1.032392
O137	O	0.100664	-0.036292	0.628482
O138	O	0.600664	0.463708	1.128482
N139	N	0.011333	0.168036	0.502628
N140	N	0.511333	0.668036	1.002628
N141	N	0.114782	-0.565197	1.029501
N142	N	0.614782	-0.065197	1.529501
O143	O	0.104681	-0.712124	1.233827
O144	O	0.604681	-0.212124	1.733827
O145	O	-0.011334	-0.554523	1.233839
O146	O	0.488666	-0.054523	1.733839
O147	O	-0.011066	-0.654443	1.233797
O148	O	0.488934	-0.154443	1.733797
O149	O	0.104414	-0.612204	1.233869
O150	O	0.604414	-0.112204	1.733869
O151	O	0.022028	-0.621336	1.134509
O152	O	0.522028	-0.121336	1.634509
O153	O	0.021760	-0.521417	1.134551
O154	O	0.521760	-0.021417	1.634551
O155	O	0.137775	-0.679018	1.134539
O156	O	0.637775	-0.179018	1.634539
Zn157	Zn	0.085022	-0.594961	1.118780
Zn158	Zn	0.585022	-0.094961	1.618780
Zn159	Zn	0.041420	-0.638580	1.249597
Zn160	Zn	0.541420	-0.138580	1.749597
O161	O	0.137508	-0.579098	1.134580
O162	O	0.637508	-0.079098	1.634580
N163	N	0.011658	-0.668350	1.338876
N164	N	0.511658	-0.168350	1.838876
C165	C	0.037974	-0.518023	0.480435
C166	C	0.537974	-0.018023	0.980435
C167	C	0.161625	-0.641592	0.480351
C168	C	0.661625	-0.141592	0.980351
C169	C	0.087941	-0.715455	0.628017
C170	C	0.587941	-0.215455	1.128017
C171	C	-0.035710	-0.591885	0.628101
C172	C	0.464290	-0.091885	1.128101
C173	C	0.693199	-0.690642	0.652596
C174	C	1.193199	-0.190642	1.152596
C175	C	0.693122	-0.690315	0.528855
C176	C	1.193122	-0.190315	1.028855
C177	C	0.692981	-0.542634	0.455356
C178	C	1.192981	-0.042634	0.955356
C179	C	0.693062	-0.542961	0.579095
C180	C	1.193062	-0.042961	1.079095
C181	C	0.161524	0.013463	0.480164
C182	C	0.661524	0.513463	0.980164
C183	C	0.037807	0.013324	0.480547
C184	C	0.537807	0.513324	0.980547
C185	C	-0.035683	0.013341	0.628188
C186	C	0.464317	0.513341	1.128188
C187	C	0.088076	0.013357	0.627845
C188	C	0.588076	0.513357	1.127845
C189	C	-0.010764	-0.518114	1.184196
C190	C	0.489236	-0.018114	1.684196
C191	C	-0.010426	-0.641846	1.184125
C192	C	0.489574	-0.141846	1.684125
C193	C	0.137205	-0.715426	1.184182
C194	C	0.637205	-0.215426	1.684182
C195	C	0.136875	-0.591687	1.184231
C196	C	0.636875	-0.091687	1.684231
H197	H	0.103160	-0.437777	0.786243
H198	H	0.603160	0.062223	1.286243
C199	C	0.100310	0.013364	0.676857
C200	C	0.600310	0.513364	1.176857
C201	C	0.116783	0.064928	0.665812
C202	C	0.616783	0.564928	1.165812
C203	C	0.129018	0.064935	0.714823
C204	C	0.629018	0.564935	1.214823
C205	C	0.124779	0.013378	0.774879
C206	C	0.624779	0.513378	1.274879
C207	C	0.108305	-0.038190	0.785927
C208	C	0.608305	0.461810	1.285927
C209	C	0.096071	-0.038197	0.736915
C210	C	0.596071	0.461803	1.236915
H211	H	0.119922	0.103097	0.621352
H212	H	0.619922	0.603097	1.121352
H213	H	0.141213	0.103109	0.706645
H214	H	0.641213	0.603109	1.206645
H215	H	0.133835	0.013383	0.811160
H216	H	0.633835	0.513383	1.311160
H217	H	0.105166	-0.076359	0.830386
H218	H	0.605166	0.423641	1.330386
H219	H	0.083875	-0.076372	0.745094
H220	H	0.583875	0.423628	1.245094
H221	H	-0.047187	-0.472851	1.184199
H222	H	0.452813	0.027149	1.684199
H223	H	-0.080930	0.013340	0.664614
H224	H	0.419070	0.513340	1.164614
H225	H	0.692924	-0.506199	0.410112
H226	H	1.192924	-0.006199	0.910112
C227	C	0.417455	-0.631016	0.686474
C228	C	0.917455	-0.131016	1.186474
C229	C	0.486198	-0.653934	0.663541
C230	C	0.986198	-0.153934	1.163541
C231	C	0.520583	-0.721007	0.673277
C232	C	1.020583	-0.221007	1.173277
C233	C	0.486226	-0.765162	0.705945
C234	C	0.986226	-0.265162	1.205945
C235	C	0.417479	-0.742246	0.728880
C236	C	0.917479	-0.242246	1.228880
C237	C	0.383094	-0.675173	0.719144
C238	C	0.883094	-0.175173	1.219144
H239	H	0.511635	-0.621246	0.639356
H240	H	1.011635	-0.121246	1.139356
H241	H	0.571474	-0.737971	0.656299
H242	H	1.071474	-0.237971	1.156299
H243	H	0.511680	-0.814814	0.713152
H244	H	1.011680	-0.314814	1.213152
H245	H	0.392043	-0.774933	0.753065
H246	H	0.892043	-0.274933	1.253065
H247	H	0.332204	-0.658209	0.736122
H248	H	0.832204	-0.158209	1.236122
H249	H	0.028745	0.013321	0.444270
H250	H	0.528745	0.513321	0.944270
C251	C	0.693143	-0.739343	0.516632
C252	C	1.193143	-0.239343	1.016632
C253	C	0.744681	-0.762646	0.465748
C254	C	1.244681	-0.262646	0.965748
C255	C	0.744702	-0.811674	0.453525
C256	C	1.244702	-0.311674	0.953525
C257	C	0.693186	-0.837399	0.492185
C258	C	1.193186	-0.337399	0.992185
C259	C	0.641645	-0.814096	0.543071
C260	C	1.141645	-0.314096	1.043071
C261	C	0.641623	-0.765068	0.555295
C262	C	1.141623	-0.265068	1.055295
H263	H	0.782820	-0.743603	0.437127
H264	H	1.282820	-0.243603	0.937127
H265	H	0.782857	-0.828924	0.415854
H266	H	1.282857	-0.328924	0.915854
H267	H	0.693202	-0.873692	0.483136
H268	H	1.193202	-0.373692	0.983136
H269	H	0.603506	-0.833139	0.571693
H270	H	1.103506	-0.333139	1.071693
H271	H	0.603469	-0.747818	0.592965
H272	H	1.103469	-0.247818	1.092965
H273	H	-0.080982	-0.582959	0.664476
H274	H	0.419018	-0.082959	1.164476
H275	H	0.693242	-0.727072	0.697844
H276	H	1.193242	-0.227072	1.197844
H277	H	0.028987	-0.472723	0.444098
H278	H	0.528987	0.027277	0.944098
H279	H	0.206679	0.013739	0.443646
H280	H	0.706679	0.513739	0.943646
H281	H	-0.046689	-0.650868	1.184063
H282	H	0.453311	-0.150868	1.684063
H283	H	0.173631	-0.760687	1.184171
H284	H	0.673631	-0.260687	1.684171
C285	C	0.185890	-0.579485	1.184250
C286	C	0.685890	-0.079485	1.684250
C287	C	0.174854	-0.563011	1.235821
C288	C	0.674854	-0.063011	1.735821
C289	C	0.223869	-0.550809	1.235840
C290	C	0.723869	-0.050809	1.735840
C291	C	0.283920	-0.555081	1.184289
C292	C	0.783920	-0.055081	1.684289
C293	C	0.294959	-0.571557	1.132715
C294	C	0.794959	-0.071557	1.632715
C295	C	0.245944	-0.583758	1.132695
C296	C	0.745944	-0.083758	1.632695
H297	H	0.130398	-0.559847	1.273985
H298	H	0.630398	-0.059847	1.773985
H299	H	0.215698	-0.538613	1.274019
H300	H	0.715698	-0.038613	1.774019
H301	H	0.320204	-0.546049	1.184304
H302	H	0.820204	-0.046049	1.684304
H303	H	0.339415	-0.574720	1.094550
H304	H	0.839415	-0.074720	1.594550
H305	H	0.254115	-0.595955	1.094516
H306	H	0.754115	-0.095955	1.594516
C307	C	0.047878	-0.471277	0.908553
C308	C	0.547878	0.028723	1.408553
C309	C	0.008628	-0.489448	0.899968
C310	C	0.508628	0.010552	1.399968
C311	C	-0.058953	-0.472834	0.934355
C312	C	0.441047	0.027166	1.434355
C313	C	-0.087286	-0.438048	0.977328
C314	C	0.412714	0.061952	1.477328
C315	C	-0.048037	-0.419875	0.985915
C316	C	0.451963	0.080125	1.485915
C317	C	0.019545	-0.436489	0.951528
C318	C	0.519545	0.063511	1.451528
H319	H	0.029602	-0.515201	0.868155
H320	H	0.529602	-0.015201	1.368155
H321	H	-0.088008	-0.486287	0.927998
H322	H	0.411992	0.013713	1.427998
H323	H	-0.137314	-0.425749	1.002784
H324	H	0.362686	0.074251	1.502784
H325	H	-0.069010	-0.394122	1.017728
H326	H	0.430990	0.105878	1.517728
H327	H	0.048600	-0.423036	0.957885
H328	H	0.548600	0.076964	1.457885
C329	C	0.262243	-0.578447	0.908480
C330	C	0.762243	-0.078447	1.408480
C331	C	0.329820	-0.595044	0.874084
C332	C	0.829820	-0.095044	1.374084
C333	C	0.374528	-0.634570	0.908433
C334	C	0.874528	-0.134570	1.408433
C335	C	0.351659	-0.657499	0.977177
C336	C	0.851659	-0.157499	1.477177
C337	C	0.284079	-0.640903	1.011577
C338	C	0.784079	-0.140903	1.511577
C339	C	0.239371	-0.601377	0.977229
C340	C	0.739371	-0.101377	1.477229
H341	H	0.346751	-0.578070	0.823191
H342	H	0.846751	-0.078070	1.323191
H343	H	0.424555	-0.646855	0.882967
H344	H	0.924555	-0.146855	1.382967
H345	H	0.384755	-0.686759	1.002604
H346	H	0.884755	-0.186759	1.502604
H347	H	0.267148	-0.657877	1.062470
H348	H	0.767148	-0.157877	1.562470
H349	H	0.189344	-0.589092	1.002694
H350	H	0.689344	-0.089092	1.502694
C351	C	0.222781	-0.653646	0.431205
C352	C	0.722781	-0.153646	0.931205
C353	C	0.271927	-0.714822	0.443242
C354	C	0.771927	-0.214822	0.943242
C355	C	0.333083	-0.726876	0.394096
C356	C	0.833083	-0.226876	0.894096
C357	C	0.345094	-0.677755	0.332913
C358	C	0.845094	-0.177755	0.832913
C359	C	0.295947	-0.616575	0.320873
C360	C	0.795947	-0.116575	0.820873
C361	C	0.234791	-0.604521	0.370019
C362	C	0.734791	-0.104521	0.870019
H363	H	0.263037	-0.751188	0.488536
H364	H	0.763037	-0.251188	0.988536
H365	H	0.369465	-0.772165	0.403009
H366	H	0.869465	-0.272165	0.903009
H367	H	0.390365	-0.686678	0.296532
H368	H	0.890365	-0.186678	0.796532
H369	H	0.304836	-0.580209	0.275580
H370	H	0.804836	-0.080209	0.775580
H371	H	0.198409	-0.559232	0.361107
H372	H	0.698409	-0.059232	0.861107
H373	H	0.288361	-0.530376	0.786177
H374	H	0.788361	-0.030376	1.286177
H375	H	0.103135	-0.437780	0.733124
H376	H	0.603135	0.062220	1.233124
C377	C	0.693042	-0.493934	0.591318
C378	C	1.193042	0.006066	1.091318
C379	C	0.641506	-0.470631	0.642202
C380	C	1.141506	0.029369	1.142202
C381	C	0.641486	-0.421603	0.654425
C382	C	1.141486	0.078397	1.154425
C383	C	0.693003	-0.395880	0.615764
C384	C	1.193003	0.104120	1.115764
C385	C	0.744544	-0.419184	0.564877
C386	C	1.244544	0.080816	1.064877
C387	C	0.744563	-0.468211	0.552654
C388	C	1.244563	0.031789	1.052654
H389	H	0.603366	-0.489673	0.670824
H390	H	1.103366	0.010327	1.170824
H391	H	0.603332	-0.404353	0.692095
H392	H	1.103332	0.095647	1.192095
H393	H	0.692988	-0.359587	0.624812
H394	H	1.192988	0.140413	1.124812
H395	H	0.782683	-0.400141	0.536256
H396	H	1.282683	0.099859	1.036256
H397	H	0.782717	-0.485461	0.514984
H398	H	1.282717	0.014539	1.014984
C399	C	0.047771	-0.471258	0.699647
C400	C	0.547771	0.028742	1.199647
C401	C	0.003105	-0.431748	0.739190
C402	C	0.503105	0.068252	1.239190
C403	C	-0.064485	-0.415150	0.755817
C404	C	0.435515	0.084850	1.255817
C405	C	-0.087408	-0.438060	0.732901
C406	C	0.412592	0.061940	1.232901
C407	C	-0.042741	-0.477572	0.693356
C408	C	0.457259	0.022428	1.193356
C409	C	0.024849	-0.494170	0.676729
C410	C	0.524849	0.005830	1.176729
H411	H	0.020073	-0.414787	0.756156
H412	H	0.520073	0.085213	1.256156
H413	H	-0.097550	-0.385900	0.785091
H414	H	0.402450	0.114100	1.285091
H415	H	-0.137441	-0.425773	0.745209
H416	H	0.362559	0.074227	1.245209
H417	H	-0.059709	-0.494533	0.676390
H418	H	0.440291	0.005467	1.176390
H419	H	0.057914	-0.523420	0.647455
H420	H	0.557914	-0.023420	1.147455
C421	C	0.100077	-0.776649	0.677112
C422	C	0.600077	-0.276649	1.177112
C423	C	0.150908	-0.799300	0.700495
C424	C	0.650908	-0.299300	1.200495
C425	C	0.163044	-0.860493	0.749589
C426	C	0.663044	-0.360493	1.249589
C427	C	0.124347	-0.899036	0.775300
C428	C	0.624347	-0.399036	1.275300
C429	C	0.073512	-0.876386	0.751917
C430	C	0.573512	-0.376386	1.251917
C431	C	0.061376	-0.815192	0.702822
C432	C	0.561376	-0.315192	1.202822
H433	H	0.179557	-0.770767	0.681462
H434	H	0.679557	-0.270767	1.181462
H435	H	0.200675	-0.877260	0.766898
H436	H	0.700675	-0.377260	1.266898
H437	H	0.133330	-0.944335	0.811642
H438	H	0.633330	-0.444335	1.311642
H439	H	0.044863	-0.904918	0.770949
H440	H	0.544863	-0.404918	1.270949
H441	H	0.023745	-0.798425	0.685513
H442	H	0.523745	-0.298425	1.185513
C443	C	0.262075	-0.578391	0.592428
C444	C	0.762075	-0.078391	1.092428
C445	C	0.329661	-0.594991	0.575805
C446	C	0.829661	-0.094991	1.075805
C447	C	0.374329	-0.634501	0.536260
C448	C	0.874329	-0.134501	1.036260
C449	C	0.351412	-0.657411	0.513338
C450	C	0.851412	-0.157411	1.013338
C451	C	0.283822	-0.640811	0.529961
C452	C	0.783822	-0.140811	1.029961
C453	C	0.239153	-0.601301	0.569506
C454	C	0.739153	-0.101301	1.069506
H455	H	0.346629	-0.578032	0.592773
H456	H	0.846629	-0.078032	1.092773
H457	H	0.424364	-0.646790	0.523955
H458	H	0.924364	-0.146790	1.023955
H459	H	0.384478	-0.686659	0.484064
H460	H	0.884478	-0.186659	0.984064
H461	H	0.266854	-0.657771	0.512992
H462	H	0.766854	-0.157771	1.012992
H463	H	0.189119	-0.589012	0.581811
H464	H	0.689119	-0.089012	1.081811
H465	H	0.288283	-0.530335	0.640482
H466	H	0.788283	-0.030335	1.140482
H467	H	0.295144	-0.575796	0.721768
H468	H	0.795144	-0.075796	1.221768
H469	H	0.408481	-0.430137	0.613993
H470	H	0.908481	0.069863	1.113993
H471	H	0.295112	-0.392340	0.651807
H472	H	0.795112	0.107660	1.151807
H473	H	0.241946	-0.384640	0.594232
H474	H	0.741946	0.115360	1.094232
H475	H	0.204115	-0.271255	0.556464
H476	H	0.704115	0.228745	1.056464
H477	H	0.111630	-0.271286	0.741644
H478	H	0.611630	0.228714	1.241644
H479	H	0.149444	-0.384673	0.779411
H480	H	0.649444	0.115327	1.279411
