data_functionalizedCrystal
_audit_creation_method	'MofGen! by Chris Wilmer'
_symmetry_space_group_name_H-M	'P1'
_symmetry_Int_Tables_number	1
_symmetry_cell_setting	triclinic
loop_
_symmetry_equiv_pos_as_xyz
  x,y,z
_cell_length_a	10.654550
_cell_length_b	16.992695
_cell_length_c	9.130313
_cell_angle_alpha	89.998255
_cell_angle_beta	89.996220
_cell_angle_gamma	87.576563
loop_
_atom_site_label
_atom_site_type_symbol
_atom_site_fract_x
_atom_site_fract_y
_atom_site_fract_z
O1	O	1.677356	0.110186	-0.121922
O2	O	1.312785	0.120685	-0.121899
O3	O	1.493609	0.001285	-0.121899
O4	O	1.496532	0.229586	-0.121922
O5	O	1.493607	0.001288	0.121700
O6	O	1.312783	0.120688	0.121700
O7	O	1.677354	0.110190	0.121676
Cu8	Cu	1.495068	0.115439	0.143931
Cu9	Cu	1.495071	0.115435	-0.144153
O10	O	1.496530	0.229589	0.121676
C11	C	1.265919	0.119915	-0.000097
C12	C	1.126277	0.117609	-0.000087
C13	C	1.489848	-0.027947	-0.000100
C14	C	1.478628	-0.115052	-0.000099
C15	C	1.052866	0.187910	-0.000116
C16	C	0.921658	0.185738	-0.000141
C17	C	0.937282	0.042959	-0.000115
C18	C	1.068488	0.045131	-0.000080
C19	C	1.043844	0.270342	-0.000137
C20	C	0.912636	0.268171	-0.000162
C21	C	1.586879	-0.164704	-0.000105
C22	C	1.576330	-0.246548	-0.000118
C23	C	1.457529	-0.278738	-0.000115
C24	C	1.349270	-0.229080	-0.000114
C25	C	1.359820	-0.147237	-0.000112
C26	C	1.413802	-0.522574	-0.000133
C27	C	1.403260	-0.604422	-0.000131
C28	C	1.630321	-0.621884	-0.000137
C29	C	1.640861	-0.540040	-0.000126
C30	C	1.532602	-0.490389	-0.000132
N31	N	1.446743	-0.362396	-0.000124
N32	N	1.543389	-0.406733	-0.000134
C33	C	1.724220	0.110959	-0.000129
C34	C	1.863862	0.113265	-0.000148
C35	C	1.500291	0.258821	-0.000126
C36	C	1.511510	0.345926	-0.000136
N37	N	1.495076	0.115441	0.346553
N38	N	1.495073	0.115427	-0.346776
C39	C	1.575168	0.062589	0.423205
C40	C	1.575164	0.062580	0.576542
C41	C	1.414971	0.168281	0.576561
C42	C	1.414970	0.168286	0.423227
C43	C	1.667658	0.001565	0.423195
C44	C	1.667654	0.001556	0.576532
H45	H	1.128255	-0.012114	-0.000035
H46	H	1.641004	-0.058735	0.381583
C47	C	1.799595	0.019729	0.632745
C48	C	1.817839	0.092505	0.729715
C49	C	1.949772	0.110685	0.785922
C50	C	2.063462	0.056090	0.745159
C51	C	2.045221	-0.016691	0.648185
C52	C	1.913288	-0.034871	0.591978
H53	H	1.733676	0.132924	0.759894
H54	H	1.963274	0.164563	0.857709
H55	H	2.161127	0.069548	0.786767
H56	H	2.129384	-0.057110	0.618005
H57	H	1.899785	-0.088748	0.520191
C58	C	1.294715	-0.467968	-0.000113
C59	C	1.199595	-0.472021	-0.126589
C60	C	1.080500	-0.417413	-0.126562
C61	C	1.056525	-0.358753	-0.000059
C62	C	1.151648	-0.354698	0.126426
C63	C	1.270743	-0.409306	0.126399
H64	H	1.217340	-0.515446	-0.220242
H65	H	1.010084	-0.420415	-0.220196
H66	H	0.968364	-0.318329	-0.000039
H67	H	1.133903	-0.311272	0.220079
H68	H	1.341159	-0.406304	0.220032
C69	C	1.095085	0.305799	-0.142218
C70	C	1.185941	0.256353	-0.240009
C71	C	1.237181	0.291804	-0.382096
C72	C	1.197565	0.376701	-0.426392
C73	C	1.106704	0.426152	-0.328599
C74	C	1.055464	0.390700	-0.186512
H75	H	1.215272	0.193503	-0.207220
H76	H	1.304442	0.255197	-0.454488
H77	H	1.235495	0.402944	-0.531573
H78	H	1.077373	0.489002	-0.361388
H79	H	0.988202	0.427307	-0.114120
C80	C	0.853835	0.301825	0.141905
C81	C	0.874761	0.387731	0.186149
C82	C	0.815960	0.421381	0.328215
C83	C	0.736233	0.369126	0.426037
C84	C	0.715303	0.283215	0.381795
C85	C	0.774104	0.249565	0.239729
H86	H	0.933783	0.426418	0.113733
H87	H	0.831454	0.484978	0.360965
H88	H	0.692705	0.394036	0.531203
H89	H	0.656281	0.244528	0.454210
H90	H	0.758610	0.185968	0.206978
H91	H	1.760493	0.020673	0.375629
H92	H	1.632216	-0.055428	0.624087
H93	H	0.890215	-0.016050	-0.000131
H94	H	1.075960	0.302583	0.101811
H95	H	1.737601	-0.513837	-0.000128
H96	H	0.873588	0.299229	-0.102119
H97	H	1.252539	-0.255296	-0.000121
H98	H	1.683620	-0.138501	-0.000098
H99	H	1.664480	-0.286971	-0.000119
H100	H	1.718459	-0.662319	-0.000135
H101	H	1.306513	-0.630628	-0.000105
H102	H	1.271671	-0.106811	-0.000107
H103	H	1.349741	0.211316	0.360819
H104	H	1.349751	0.211306	0.639006
