data_functionalizedCrystal
_audit_creation_method	'MofGen! by Chris Wilmer'
_symmetry_space_group_name_H-M	'P1'
_symmetry_Int_Tables_number	1
_symmetry_cell_setting	triclinic
loop_
_symmetry_equiv_pos_as_xyz
  x,y,z
_cell_length_a	19.121414
_cell_length_b	17.637015
_cell_length_c	17.640968
_cell_angle_alpha	109.664735
_cell_angle_beta	98.346508
_cell_angle_gamma	104.095983
loop_
_atom_site_label
_atom_site_type_symbol
_atom_site_fract_x
_atom_site_fract_y
_atom_site_fract_z
Zn1	Zn	1.103529	-0.189857	0.355659
Zn2	Zn	1.603529	0.310143	0.855659
Zn3	Zn	1.043897	-0.357991	0.192301
Zn4	Zn	1.543897	0.142009	0.692301
Zn5	Zn	0.956301	-0.223643	0.223703
Zn6	Zn	1.456301	0.276357	0.723703
Zn7	Zn	0.956272	-0.333577	0.333583
Zn8	Zn	1.456272	0.166423	0.833583
O9	O	1.015000	-0.276267	0.276311
O10	O	1.515000	0.223733	0.776311
O11	O	1.193904	-0.208238	0.330087
O12	O	1.693904	0.291762	0.830087
O13	O	1.007333	-0.364526	0.082116
O14	O	1.507333	0.135474	0.582116
O15	O	1.000800	-0.102788	0.263588
O16	O	1.500800	0.397212	0.763588
O17	O	1.150093	-0.331765	0.210068
O18	O	1.650093	0.168235	0.710068
O19	O	1.108967	-0.077966	0.360536
O20	O	1.608967	0.422034	0.860536
O21	O	0.942977	-0.265821	0.105187
O22	O	1.442977	0.234179	0.605187
O23	O	0.858011	-0.242148	0.242181
O24	O	1.358011	0.257852	0.742181
O25	O	1.000750	-0.290155	0.450862
O26	O	1.500750	0.209845	0.950862
O27	O	0.857990	-0.322916	0.322909
O28	O	1.357990	0.177084	0.822909
O29	O	1.108939	-0.184565	0.467082
O30	O	1.608939	0.315435	0.967082
O31	O	1.007305	-0.471125	0.188662
O32	O	1.507305	0.028875	0.688662
O33	O	0.942927	-0.453188	0.292460
O34	O	1.442927	0.046812	0.792460
C35	C	0.832516	-0.283549	0.283558
C36	C	1.332516	0.216451	0.783558
C37	C	0.754449	-0.286681	0.286673
C38	C	1.254449	0.213319	0.786673
C39	C	0.968665	-0.492326	0.234775
C40	C	1.468665	0.007674	0.734775
C41	C	0.948913	-0.584748	0.217030
C42	C	1.448913	-0.084748	0.717030
C43	C	0.864775	-0.728015	0.141491
C44	C	1.364775	-0.228015	0.641491
C45	C	0.883341	-0.641168	0.158171
C46	C	1.383341	-0.141168	0.658171
C47	C	0.995947	-0.615160	0.259230
C48	C	1.495947	-0.115160	0.759230
C49	C	0.977392	-0.702007	0.242555
C50	C	1.477392	-0.202007	0.742555
C51	C	0.911804	-0.758428	0.183686
C52	C	1.411804	-0.258428	0.683686
C53	C	1.024421	-0.732419	0.284750
C54	C	1.524421	-0.232419	0.784750
C55	C	1.005865	-0.819258	0.268080
C56	C	1.505865	-0.319258	0.768080
C57	C	0.940280	-0.875684	0.209215
C58	C	1.440280	-0.375684	0.709215
C59	C	0.893248	-0.845266	0.167015
C60	C	1.393248	-0.345266	0.667015
C61	C	1.090006	-0.675996	0.343624
C62	C	1.590006	-0.175996	0.843624
C63	C	1.137035	-0.706409	0.385819
C64	C	1.637035	-0.206409	0.885819
C65	C	1.118482	-0.793249	0.369145
C66	C	1.618482	-0.293249	0.869145
C67	C	1.052897	-0.849675	0.310279
C68	C	1.552897	-0.349675	0.810279
C69	C	1.165514	-0.823667	0.411344
C70	C	1.665514	-0.323667	0.911344
C71	C	1.146958	-0.910505	0.394674
C72	C	1.646958	-0.410505	0.894674
C73	C	1.034341	-0.936514	0.293609
C74	C	1.534341	-0.436514	0.793609
C75	C	0.717799	-0.246002	0.246207
C76	C	1.217799	0.253998	0.746207
C77	C	0.644445	-0.248951	0.249133
C78	C	1.144445	0.251049	0.749133
C79	C	0.607744	-0.292575	0.292530
C80	C	1.107744	0.207425	0.792530
C81	C	0.644398	-0.333259	0.332997
C82	C	1.144398	0.166741	0.832997
C83	C	0.717749	-0.330314	0.330066
C84	C	1.217749	0.169686	0.830066
C85	C	0.386268	-0.303580	0.303473
C86	C	0.886268	0.196420	0.803473
C87	C	0.312913	-0.306520	0.306403
C88	C	0.812913	0.193480	0.806403
C89	C	0.312964	-0.222213	0.222538
C90	C	0.812964	0.277787	0.722538
C91	C	0.386318	-0.219268	0.219615
C92	C	0.886318	0.280732	0.719615
C93	C	0.422965	-0.259955	0.260078
C94	C	0.922965	0.240045	0.760078
C95	C	0.532765	-0.295589	0.295524
C96	C	1.032765	0.204411	0.795524
C97	C	0.497941	-0.256946	0.257079
C98	C	0.997941	0.243054	0.757079
C99	C	1.198196	-0.268956	0.269037
C100	C	1.698196	0.231044	0.769037
C101	C	1.276263	-0.265841	0.265938
C102	C	1.776263	0.234159	0.765938
C103	C	1.061493	-0.230868	0.489451
C104	C	1.561493	0.269132	0.989451
C105	C	1.081305	-0.211521	0.580278
C106	C	1.581305	0.288479	1.080278
C107	C	1.061538	-0.059360	0.318027
C108	C	1.561538	0.440640	0.818027
C109	C	1.081370	0.033073	0.335804
C110	C	1.581370	0.533073	0.835804
C111	C	0.968741	-0.321428	0.064011
C112	C	1.468741	0.178572	0.564011
C113	C	0.949114	-0.340534	-0.026776
C114	C	1.449114	0.159466	0.473224
C115	C	0.864852	-0.422776	0.836771
C116	C	1.364852	0.077224	1.336771
C117	C	0.883486	-0.404586	0.922119
C118	C	1.383486	0.095414	1.422119
C119	C	0.996133	-0.294644	0.938996
C120	C	1.496133	0.205356	1.438996
C121	C	0.977507	-0.312822	0.853649
C122	C	1.477507	0.187178	1.353649
C123	C	0.911866	-0.376890	0.802543
C124	C	1.411866	0.123110	1.302543
C125	C	1.024520	-0.266936	0.819421
C126	C	1.524520	0.233064	1.319421
C127	C	1.005897	-0.285116	0.734081
C128	C	1.505897	0.214884	1.234081
C129	C	0.940260	-0.349182	0.682969
C130	C	1.440260	0.150818	1.182969
C131	C	0.893242	-0.395069	0.717203
C132	C	1.393242	0.104931	1.217203
C133	C	1.090164	-0.202872	0.870528
C134	C	1.590164	0.297128	1.370528
C135	C	1.137178	-0.156986	0.836299
C136	C	1.637178	0.343014	1.336299
C137	C	1.118552	-0.175162	0.750959
C138	C	1.618552	0.324838	1.250959
C139	C	1.052915	-0.239228	0.699847
C140	C	1.552915	0.260772	1.199847
C141	C	1.165570	-0.129274	0.716725
C142	C	1.665570	0.370726	1.216725
C143	C	1.146947	-0.147454	0.631384
C144	C	1.646947	0.352546	1.131384
C145	C	1.034292	-0.257408	0.614506
C146	C	1.534292	0.242592	1.114506
H147	H	0.980936	-0.982457	0.245667
H148	H	1.480936	-0.482457	0.745667
O149	O	0.922277	-0.960008	0.193169
O150	O	1.422277	-0.460008	0.693169
C151	C	0.915049	-0.973053	0.266616
C152	C	1.415049	-0.473053	0.766616
H153	H	0.947993	-0.912474	0.322834
H154	H	1.447993	-0.412474	0.822834
H155	H	0.937480	-1.026750	0.268764
H156	H	1.437480	-0.526750	0.768764
H157	H	0.853830	-0.990485	0.267640
H158	H	1.353830	-0.490485	0.767640
O159	O	0.801085	-0.485078	0.787228
O160	O	1.301085	0.014922	1.287228
C161	C	0.763571	-0.521675	0.835738
C162	C	1.263571	-0.021675	1.335738
H163	H	0.804991	-0.510428	0.894885
H164	H	1.304991	-0.010428	1.394885
H165	H	0.736665	-0.592752	0.798783
H166	H	1.236665	-0.092752	1.298783
H167	H	0.718725	-0.491441	0.852773
H168	H	1.218725	0.008559	1.352773
H169	H	1.105326	-0.188075	0.940016
H170	H	1.605326	0.311925	1.440016
O171	O	1.059863	-0.232315	0.988579
O172	O	1.559863	0.267685	1.488579
C173	C	1.057731	-0.154484	0.984293
C174	C	1.557731	0.345516	1.484293
H175	H	1.017580	-0.167038	0.923737
H176	H	1.517580	0.332962	1.423737
H177	H	1.115782	-0.115790	0.986527
H178	H	1.615782	0.384210	1.486527
H179	H	1.038110	-0.117688	1.039148
H180	H	1.538110	0.382312	1.539148
H181	H	1.190624	-0.104825	0.877921
H182	H	1.690624	0.395175	1.377921
H183	H	1.218911	-0.777717	0.459282
H184	H	1.718911	-0.277717	0.959282
H185	H	1.219018	-0.077116	0.758346
H186	H	1.719018	0.422884	1.258346
O187	O	0.837900	-0.449233	0.955388
O188	O	1.337900	0.050767	1.455388
C189	C	0.877140	-0.490814	0.992854
C190	C	1.377140	0.009186	1.492854
H191	H	0.925740	-0.499229	0.963945
H192	H	1.425740	0.000771	1.463945
H193	H	0.838217	-0.555617	0.982532
H194	H	1.338217	-0.055617	1.482532
H195	H	0.899192	-0.451223	1.062379
H196	H	1.399192	0.048777	1.562379
H197	H	1.185229	-0.110087	0.603516
H198	H	1.685229	0.389913	1.103516
H199	H	0.811370	-0.773958	0.093549
H200	H	1.311370	-0.273958	0.593549
O201	O	0.829510	-0.900152	0.109921
O202	O	1.329510	-0.400152	0.609921
C203	C	0.783505	-0.942313	0.148559
C204	C	1.283505	-0.442313	0.648559
H205	H	0.818978	-0.941076	0.207046
H206	H	1.318978	-0.441076	0.707046
H207	H	0.753807	-1.010871	0.103914
H208	H	1.253807	-0.510871	0.603914
H209	H	0.740530	-0.909083	0.165960
H210	H	1.240530	-0.409083	0.665960
O211	O	0.837583	-0.611771	0.117082
O212	O	1.337583	-0.111771	0.617082
C213	C	0.775706	-0.680191	0.061570
C214	C	1.275706	-0.180191	0.561570
H215	H	0.790645	-0.741510	0.045739
H216	H	1.290645	-0.241510	0.545739
H217	H	0.759554	-0.669146	0.002289
H218	H	1.259554	-0.169146	0.502289
H219	H	0.726882	-0.685243	0.091792
H220	H	1.226882	-0.185243	0.591792
O221	O	1.059645	-0.560239	0.316360
O222	O	1.559645	-0.060239	0.816360
C223	C	1.065929	-0.477068	0.322044
C224	C	1.565929	0.022932	0.822044
H225	H	1.031727	-0.479612	0.262142
H226	H	1.531727	0.020388	0.762142
H227	H	1.126819	-0.440713	0.331889
H228	H	1.626819	0.059287	0.831889
H229	H	1.044324	-0.443624	0.376697
H230	H	1.544324	0.056376	0.876697
O231	O	0.970593	-0.319759	0.564854
O232	O	1.470593	0.180241	1.064854
C233	C	0.972714	-0.397581	0.569174
C234	C	1.472714	0.102419	1.069174
H235	H	1.033043	-0.394525	0.589617
H236	H	1.533043	0.105475	1.089617
H237	H	0.945626	-0.450860	0.505385
H238	H	1.445626	0.049140	1.005385
H239	H	0.941188	-0.410286	0.616010
H240	H	1.441188	0.089714	1.116010
O241	O	1.107905	-0.591644	0.359833
O242	O	1.607905	-0.091644	0.859833
C243	C	1.051333	-0.560926	0.389003
C244	C	1.551333	-0.060926	0.889003
H245	H	0.997127	-0.615617	0.366985
H246	H	1.497127	-0.115617	0.866985
H247	H	1.043244	-0.511205	0.363781
H248	H	1.543244	-0.011205	0.863781
H249	H	1.067880	-0.531119	0.459829
H250	H	1.567880	-0.031119	0.959829
H251	H	0.283034	-0.342042	0.341748
H252	H	0.783034	0.157958	0.841748
H253	H	1.190435	-0.660461	0.433753
H254	H	1.690435	-0.160461	0.933753
H255	H	1.185248	-0.935265	0.429043
H256	H	1.685248	-0.435265	0.929043
O257	O	0.753372	-0.203743	0.203916
O258	O	1.253372	0.296257	0.703916
C259	C	0.713778	-0.239853	0.119696
C260	C	1.213778	0.260147	0.619696
H261	H	0.678452	-0.307990	0.103503
H262	H	1.178452	0.192010	0.603503
H263	H	0.754750	-0.239291	0.078797
H264	H	1.254750	0.260709	0.578797
H265	H	0.676114	-0.201480	0.108685
H266	H	1.176114	0.298520	0.608685
O267	O	0.608774	-0.209599	0.209677
O268	O	1.108774	0.290401	0.709677
C269	C	0.544684	-0.269849	0.149435
C270	C	1.044684	0.230151	0.649435
H271	H	0.551640	-0.335539	0.130863
H272	H	1.051640	0.164461	0.630863
H273	H	0.536622	-0.253132	0.092405
H274	H	1.036622	0.246868	0.592405
H275	H	0.493968	-0.269595	0.176323
H276	H	0.993968	0.230405	0.676323
H277	H	0.839778	-0.447220	0.675593
H278	H	1.339778	0.052780	1.175593
H279	H	0.416193	-0.183752	0.184270
H280	H	0.916193	0.316248	0.684270
H281	H	0.283119	-0.189088	0.189594
H282	H	0.783119	0.310912	0.689594
O283	O	0.421764	-0.343113	0.342858
O284	O	0.921764	0.156887	0.842858
C285	C	0.373634	-0.382260	0.381773
C286	C	0.873634	0.117740	0.881773
H287	H	0.329279	-0.349683	0.393294
H288	H	0.829279	0.150317	0.893294
H289	H	0.406958	-0.376674	0.443570
H290	H	0.906958	0.123326	0.943570
H291	H	0.345746	-0.452079	0.339926
H292	H	0.845746	0.047921	0.839926
O293	O	0.608759	-0.375497	0.375265
O294	O	1.108759	0.124503	0.875265
C295	C	0.587988	-0.318679	0.438886
C296	C	1.087988	0.181321	0.938886
H297	H	0.625258	-0.251209	0.455744
H298	H	1.125258	0.248791	0.955744
H299	H	0.594408	-0.335500	0.495957
H300	H	1.094408	0.164500	0.995957
H301	H	0.527505	-0.323382	0.416405
H302	H	1.027505	0.176618	0.916405
O303	O	0.753256	-0.369841	0.369453
O304	O	1.253256	0.130159	0.869453
C305	C	0.705130	-0.408993	0.408370
C306	C	1.205130	0.091007	0.908370
H307	H	0.660773	-0.376420	0.419892
H308	H	1.160773	0.123580	0.919892
H309	H	0.738457	-0.403404	0.470165
H310	H	1.238457	0.096596	0.970165
H311	H	0.677246	-0.478812	0.366522
H312	H	1.177246	0.021188	0.866522
O313	O	0.533543	-0.214452	0.214987
O314	O	1.033543	0.285548	0.714987
C315	C	0.537328	-0.128480	0.249639
C316	C	1.037328	0.371520	0.749639
H317	H	0.491289	-0.122248	0.283503
H318	H	0.991289	0.377752	0.783503
H319	H	0.529970	-0.103747	0.198013
H320	H	1.029970	0.396253	0.698013
H321	H	0.593784	-0.089927	0.295419
H322	H	1.093784	0.410073	0.795419
O323	O	0.497124	-0.337818	0.337797
O324	O	0.997124	0.162182	0.837797
C325	C	0.476349	-0.280994	0.401409
C326	C	0.976349	0.219006	0.901409
H327	H	0.513621	-0.213526	0.418264
H328	H	1.013621	0.286474	0.918264
H329	H	0.482760	-0.297810	0.458484
H330	H	0.982760	0.202190	0.958484
H331	H	0.415867	-0.285697	0.378919
H332	H	0.915867	0.214303	0.878919
O333	O	0.922070	-0.366977	0.600046
O334	O	1.422070	0.133023	1.100046
C335	C	0.854044	-0.433348	0.562284
C336	C	1.354044	0.066652	1.062284
H337	H	0.844520	-0.471849	0.602514
H338	H	1.344520	0.028151	1.102514
H339	H	0.856005	-0.476222	0.498278
H340	H	1.356005	0.023778	0.998278
H341	H	0.806601	-0.405642	0.555525
H342	H	1.306601	0.094358	1.055525
