data_functionalizedCrystal
_audit_creation_method	'MofGen! by Chris Wilmer'
_symmetry_space_group_name_H-M	'P1'
_symmetry_Int_Tables_number	1
_symmetry_cell_setting	triclinic
loop_
_symmetry_equiv_pos_as_xyz
  x,y,z
_cell_length_a	12.645331
_cell_length_b	25.639240
_cell_length_c	12.645324
_cell_angle_alpha	89.954047
_cell_angle_beta	89.976891
_cell_angle_gamma	90.032972
loop_
_atom_site_label
_atom_site_type_symbol
_atom_site_fract_x
_atom_site_fract_y
_atom_site_fract_z
Zn1	Zn	1.620623	-0.208108	-0.599346
Zn2	Zn	2.120623	0.291892	-0.099346
Zn3	Zn	1.620457	-0.295557	-0.422042
Zn4	Zn	2.120457	0.204443	0.077958
Zn5	Zn	1.443337	-0.208138	-0.422090
Zn6	Zn	1.943337	0.291862	0.077910
Zn7	Zn	1.443273	-0.295515	-0.599257
Zn8	Zn	1.943273	0.204485	-0.099257
O9	O	1.531923	-0.251830	-0.510684
O10	O	2.031923	0.248170	-0.010684
O11	O	1.768949	-0.219714	-0.575843
O12	O	2.268949	0.280286	-0.075843
O13	O	1.596919	-0.283992	-0.273701
O14	O	2.096919	0.216008	0.226299
O15	O	1.466951	-0.134969	-0.445660
O16	O	1.966951	0.365031	0.054340
O17	O	1.768827	-0.283962	-0.445579
O18	O	2.268827	0.216038	0.054421
O19	O	1.597202	-0.134947	-0.575890
O20	O	2.097202	0.365053	-0.075890
O21	O	1.466790	-0.219765	-0.273736
O22	O	1.966790	0.280235	0.226264
O23	O	1.294981	-0.219724	-0.445574
O24	O	1.794981	0.280276	0.054426
O25	O	1.466842	-0.283889	-0.747616
O26	O	1.966842	0.216111	-0.247616
O27	O	1.294934	-0.283919	-0.575738
O28	O	1.794934	0.216081	-0.075738
O29	O	1.597140	-0.219672	-0.747682
O30	O	2.097140	0.280328	-0.247682
O31	O	1.596857	-0.368717	-0.445493
O32	O	2.096857	0.131283	0.054507
O33	O	1.466681	-0.368686	-0.575692
O34	O	1.966681	0.131314	-0.075692
C35	C	1.256493	-0.251820	-0.510652
C36	C	1.756493	0.248180	-0.010652
C37	C	1.138663	-0.251829	-0.510664
C38	C	1.638663	0.248171	-0.010664
C39	C	1.093775	-0.211381	-0.428912
C40	C	1.593775	0.288619	0.071088
C41	C	0.971215	-0.211231	-0.429192
C42	C	1.471215	0.288769	0.070808
C43	C	0.970842	-0.237128	-0.622579
C44	C	1.470842	0.262872	-0.122579
C45	C	1.093440	-0.236826	-0.622068
C46	C	1.593440	0.263174	-0.122068
C47	C	1.093418	-0.307098	-0.481558
C48	C	1.593418	0.192902	0.018442
C49	C	0.970811	-0.306809	-0.479132
C50	C	1.470811	0.193191	0.020868
C51	C	1.531773	-0.387672	-0.510601
C52	C	2.031773	0.112328	-0.010601
C53	C	1.531806	-0.445786	-0.510601
C54	C	2.031806	0.054214	-0.010601
C55	C	1.599778	-0.806099	-0.578616
C56	C	2.099778	-0.306099	-0.078616
C57	C	1.599810	-0.860704	-0.578638
C58	C	2.099810	-0.360704	-0.078638
O59	O	1.657424	-0.888898	-0.636382
O60	O	2.157424	-0.388898	-0.136382
N61	N	1.532070	-0.888069	-0.510786
N62	N	2.032070	-0.388069	-0.010786
C63	C	1.464287	-0.860827	-0.442916
C64	C	1.964287	-0.360827	0.057084
O65	O	1.406671	-0.889117	-0.385205
O66	O	1.906671	-0.389117	0.114795
C67	C	1.464251	-0.806223	-0.442901
C68	C	1.964251	-0.306223	0.057099
C69	C	1.532003	-0.778861	-0.510749
C70	C	2.032003	-0.278861	-0.010749
C71	C	1.667524	-0.778737	-0.646460
C72	C	2.167524	-0.278737	-0.146460
C73	C	1.667494	-0.724136	-0.646437
C74	C	2.167494	-0.224136	-0.146437
C75	C	1.599718	-0.696898	-0.578570
C76	C	2.099718	-0.196898	-0.078570
C77	C	1.531973	-0.724260	-0.510726
C78	C	2.031973	-0.224260	-0.010726
C79	C	1.396463	-0.778982	-0.375037
C80	C	1.896463	-0.278982	0.124963
C81	C	1.396433	-0.724375	-0.375028
C82	C	1.896433	-0.224375	0.124972
C83	C	1.464184	-0.697013	-0.442876
C84	C	1.964184	-0.197013	0.057124
C85	C	1.464167	-0.642422	-0.442836
C86	C	1.964167	-0.142422	0.057164
N87	N	1.531907	-0.615057	-0.510687
N88	N	2.031907	-0.115057	-0.010687
C89	C	1.599682	-0.642295	-0.578555
C90	C	2.099682	-0.142295	-0.078555
C91	C	1.464366	-0.975497	-0.442955
C92	C	1.964366	-0.475497	0.057045
C93	C	1.464406	-1.030099	-0.442964
C94	C	1.964406	-0.530099	0.057036
C95	C	1.599928	-1.029973	-0.578688
C96	C	2.099928	-0.529973	-0.078688
C97	C	1.599892	-0.975369	-0.578672
C98	C	2.099892	-0.475369	-0.078672
C99	C	1.532106	-0.948132	-0.510807
C100	C	2.032106	-0.448132	-0.010807
C101	C	1.599614	-0.527630	-0.578500
C102	C	2.099614	-0.027630	-0.078500
C103	C	1.599581	-0.473024	-0.578468
C104	C	2.099581	0.026976	-0.078468
C105	C	1.464056	-0.473156	-0.442749
C106	C	1.964056	0.026844	0.057251
C107	C	1.464093	-0.527757	-0.442776
C108	C	1.964093	-0.027757	0.057224
C109	C	1.531875	-0.554992	-0.510661
C110	C	2.031875	-0.054992	-0.010661
O111	O	1.406579	-0.614193	-0.385124
O112	O	1.906579	-0.114193	0.114876
O113	O	1.657278	-0.613998	-0.636265
O114	O	2.157278	-0.113998	-0.136265
C115	C	1.808428	-0.251840	-0.510716
C116	C	2.308428	0.248160	-0.010716
C117	C	1.926258	-0.251844	-0.510729
C118	C	2.426258	0.248156	-0.010729
C119	C	1.532002	-0.251773	-0.787189
C120	C	2.032002	0.248227	-0.287189
C121	C	1.532036	-0.251749	-0.905019
C122	C	2.032036	0.248251	-0.405019
C123	C	1.532102	-0.115457	-0.510790
C124	C	2.032102	0.384543	-0.010790
C125	C	1.532178	-0.057342	-0.510836
C126	C	2.032178	0.442658	-0.010836
C127	C	1.614326	-0.211467	-1.072625
C128	C	2.114326	0.288533	-0.572625
C129	C	1.614062	-0.211321	-0.950065
C130	C	2.114062	0.288679	-0.450065
C131	C	1.420362	-0.236776	-0.949505
C132	C	1.920362	0.263224	-0.449505
C133	C	1.420862	-0.236470	-1.072103
C134	C	1.920862	0.263530	-0.572103
C135	C	1.560514	-0.307062	-1.072190
C136	C	2.060514	0.192938	-0.572190
C137	C	1.562958	-0.306784	-0.949584
C138	C	2.062958	0.193216	-0.449584
C139	C	1.531905	-0.251848	-0.235254
C140	C	2.031905	0.248152	0.264746
C141	C	1.532076	-0.251725	-0.117425
C142	C	2.032076	0.248275	0.382575
H143	H	0.941665	-0.317909	-0.396815
H144	H	1.441665	0.182091	0.103185
F145	F	1.671758	-0.556608	-0.650749
F146	F	2.171758	-0.056608	-0.150749
H147	H	1.341293	-0.801251	-0.319786
H148	H	1.841293	-0.301251	0.180214
H149	H	0.941928	-0.170282	-0.448523
H150	H	1.441928	0.329718	0.051477
F151	F	0.930841	-0.348288	-0.551273
F152	F	1.430841	0.151712	-0.051273
H153	H	1.396752	-0.196020	-1.100733
H154	H	1.896752	0.303980	-0.600733
F155	F	1.132263	-0.273674	-0.704441
F156	F	1.632263	0.226326	-0.204441
H157	H	1.409247	-1.052373	-0.387703
H158	H	1.909247	-0.552373	0.112297
H159	H	1.408877	-0.450970	-0.387488
H160	H	1.908877	0.049030	0.112512
H161	H	1.696871	-0.220698	-0.919989
H162	H	2.196871	0.279302	-0.419989
F163	F	0.931805	-0.223227	-0.320806
F164	F	1.431805	0.276773	0.179194
F165	F	1.131383	-0.346487	-0.559364
F166	F	1.631383	0.153513	-0.059364
H167	H	1.645140	-0.318074	-0.920508
H168	H	2.145140	0.181926	-0.420508
F169	F	1.722925	-0.223565	-1.111171
F170	F	2.222925	0.276435	-0.611171
F171	F	1.739599	-0.695022	-0.718658
F172	F	2.239599	-0.195022	-0.218658
F173	F	1.132233	-0.223230	-0.320164
F174	F	1.632233	0.276770	0.179836
H175	H	0.941727	-0.265692	-0.685185
H176	H	1.441727	0.234308	-0.185185
H177	H	1.124623	-0.170659	-0.447989
H178	H	1.624623	0.329341	0.052011
F179	F	1.671697	-0.443907	-0.650683
F180	F	2.171697	0.056093	-0.150683
F181	F	1.391997	-0.556878	-0.370552
F182	F	1.891997	-0.056878	0.129448
H183	H	0.940184	-0.197183	-0.647619
H184	H	1.440184	0.302817	-0.147619
F185	F	1.324282	-0.695390	-0.302794
F186	F	1.824282	-0.195390	0.197206
H187	H	1.409169	-0.953323	-0.387682
H188	H	1.909169	-0.453323	0.112318
H189	H	1.500612	-0.337059	-1.101167
H190	H	2.000612	0.162941	-0.601167
F191	F	1.590038	-0.158182	-1.112939
F192	F	2.090038	0.341818	-0.612939
H193	H	1.595235	-0.170329	-0.920772
H194	H	2.095235	0.329671	-0.420772
F195	F	1.739662	-0.807718	-0.718705
F196	F	2.239662	-0.307718	-0.218705
F197	F	1.338028	-0.273123	-1.110839
F198	F	1.838028	0.226877	-0.610839
H199	H	1.357413	-0.265198	-0.920323
H200	H	1.857413	0.234802	-0.420323
H201	H	1.655061	-0.953094	-0.633921
H202	H	2.155061	-0.453094	-0.133921
H203	H	1.395810	-0.196777	-0.918829
H204	H	1.895810	0.303223	-0.418829
F205	F	1.490339	-0.348101	-0.909507
F206	F	1.990339	0.151899	-0.409507
H207	H	1.640522	-0.320693	-1.103168
H208	H	2.140522	0.179307	-0.603168
F209	F	1.130878	-0.184030	-0.654224
F210	F	1.630878	0.315970	-0.154224
H211	H	1.124276	-0.320533	-0.401352
H212	H	1.624276	0.179467	0.098648
H213	H	1.655113	-1.052160	-0.633951
H214	H	2.155113	-0.552160	-0.133951
