data_functionalizedCrystal
_audit_creation_method	'MofGen! by Chris Wilmer'
_symmetry_space_group_name_H-M	'P1'
_symmetry_Int_Tables_number	1
_symmetry_cell_setting	triclinic
loop_
_symmetry_equiv_pos_as_xyz
  x,y,z
_cell_length_a	13.033293
_cell_length_b	17.640280
_cell_length_c	13.032268
_cell_angle_alpha	92.705783
_cell_angle_beta	90.920818
_cell_angle_gamma	84.521797
loop_
_atom_site_label
_atom_site_type_symbol
_atom_site_fract_x
_atom_site_fract_y
_atom_site_fract_z
Zn1	Zn	1.567883	-0.234088	0.727817
Zn2	Zn	1.621692	-0.342215	0.531055
Zn3	Zn	1.416565	-0.230115	0.534903
Zn4	Zn	1.437244	-0.373581	0.673904
O5	O	1.510846	-0.295000	0.616920
O6	O	1.715540	-0.236967	0.722668
O7	O	1.608346	-0.312555	0.391048
O8	O	1.405464	-0.125349	0.584667
O9	O	1.755073	-0.316408	0.578108
O10	O	1.516637	-0.128268	0.726399
O11	O	1.457640	-0.230196	0.393875
O12	O	1.278789	-0.260610	0.532390
O13	O	1.440709	-0.369866	0.821574
O14	O	1.293982	-0.366014	0.634514
O15	O	1.536689	-0.267382	0.861183
O16	O	1.628398	-0.451668	0.525831
O17	O	1.492885	-0.474713	0.630782
C18	C	1.249951	-0.316285	0.578020
C19	C	1.138341	-0.325411	0.561398
C20	C	1.069034	-0.290255	0.625591
C21	C	0.953680	-0.299687	0.608412
C22	C	1.568750	-0.490492	0.572065
C23	C	1.593609	-0.574120	0.552923
C24	C	1.322363	-0.909274	0.762765
C25	C	1.345728	-0.987852	0.744747
C26	C	1.486904	-0.963798	0.635603
C27	C	1.463555	-0.885216	0.653616
C28	C	1.381282	-0.857961	0.717197
C29	C	1.522473	-0.833903	0.608049
C30	C	1.499122	-0.755328	0.626056
C31	C	1.416851	-0.728066	0.689632
C32	C	1.357930	-0.779386	0.735205
C33	C	1.604741	-0.861159	0.544462
C34	C	1.663660	-0.809846	0.498894
C35	C	1.640313	-0.731270	0.516908
C36	C	1.558042	-0.704008	0.580483
C37	C	1.699234	-0.679950	0.471335
C38	C	1.675882	-0.601376	0.489342
C39	C	1.534691	-0.625433	0.598491
C40	C	1.772760	-0.273632	0.655972
C41	C	1.884372	-0.264527	0.672614
C42	C	1.485003	-0.322566	0.878832
C43	C	1.473991	-0.334313	0.990443
C44	C	1.452741	-0.098744	0.661976
C45	C	1.427981	-0.015112	0.681176
C46	C	1.536630	-0.267482	0.356048
C47	C	1.547774	-0.255507	0.244515
C48	C	1.516570	-0.288843	1.059801
C49	C	1.505189	-0.300983	1.175157
H50	H	1.112278	-0.362490	0.493721
H51	H	1.592650	-0.207583	1.218500
Cl52	Cl	1.254509	-0.745116	0.815148
Cl53	Cl	1.404691	-0.408291	1.030610
Cl54	Cl	0.924593	-0.207265	0.777103
H55	H	1.467703	-0.603242	0.650274
Cl56	Cl	1.634130	-0.959942	0.521866
Cl57	Cl	1.387701	-0.629291	0.712538
H58	H	1.255375	-0.887083	0.814548
H59	H	1.095097	-0.253172	0.693263
H60	H	0.927621	-0.336769	0.540731
Cl61	Cl	1.767086	-0.844118	0.418970
Cl62	Cl	1.271638	-1.052359	0.802026
H63	H	1.553888	-0.986000	0.583832
H64	H	1.766213	-0.702154	0.419559
H65	H	1.723859	-0.559595	0.452235
H66	H	1.561445	-0.240924	1.033779
H67	H	1.460299	-0.348898	1.201174
