data_functionalizedCrystal
_audit_creation_method	'MofGen! by Chris Wilmer'
_symmetry_space_group_name_H-M	'P1'
_symmetry_Int_Tables_number	1
_symmetry_cell_setting	triclinic
loop_
_symmetry_equiv_pos_as_xyz
  x,y,z
_cell_length_a	11.026607
_cell_length_b	23.532407
_cell_length_c	9.482900
_cell_angle_alpha	99.270833
_cell_angle_beta	78.636152
_cell_angle_gamma	95.717347
loop_
_atom_site_label
_atom_site_type_symbol
_atom_site_fract_x
_atom_site_fract_y
_atom_site_fract_z
O1	O	1.626299	0.231212	-0.120952
O2	O	1.273319	0.204090	-0.120948
O3	O	1.460449	0.135841	-0.120924
O4	O	1.439169	0.299462	-0.120976
O5	O	1.422438	0.149775	0.120864
O6	O	1.235308	0.218025	0.120840
O7	O	1.588288	0.245146	0.120835
Cu8	Cu	1.408327	0.232858	0.142915
Cu9	Cu	1.453280	0.216379	-0.143027
O10	O	1.401158	0.313396	0.120811
C11	C	1.209163	0.206054	-0.000053
C12	C	1.074628	0.191139	-0.000050
C13	C	1.000328	0.232323	-0.000064
C14	C	0.861279	0.216908	-0.000061
C15	C	1.440901	0.121535	-0.000026
C16	C	1.439269	0.058147	-0.000015
C17	C	1.539801	-0.330388	-0.000096
C18	C	1.538288	-0.389948	-0.000107
O19	O	1.631479	-0.416896	-0.000162
N20	N	1.427037	-0.424275	-0.000104
C21	C	1.317293	-0.399040	-0.000106
O22	O	1.222527	-0.433707	-0.000106
C23	C	1.318809	-0.339482	-0.000105
C24	C	1.430065	-0.305157	-0.000093
C25	C	1.651048	-0.296064	-0.000085
C26	C	1.652560	-0.236507	-0.000072
C27	C	1.542824	-0.211276	-0.000068
C28	C	1.431576	-0.245601	-0.000079
C29	C	1.209068	-0.314249	-0.000117
C30	C	1.210593	-0.254686	-0.000117
C31	C	1.321849	-0.220361	-0.000105
C32	C	1.323351	-0.160813	-0.000062
N33	N	1.434603	-0.126486	-0.000065
C34	C	1.544339	-0.151718	-0.000068
C35	C	1.314120	-0.524117	-0.000109
C36	C	1.312602	-0.583674	-0.000100
C37	C	1.533598	-0.574578	-0.000104
C38	C	1.535113	-0.515019	-0.000103
C39	C	1.425371	-0.489790	-0.000112
C40	C	1.547504	-0.026646	-0.000038
C41	C	1.549005	0.032916	-0.000018
C42	C	1.328011	0.023814	-0.000022
C43	C	1.326508	-0.035742	-0.000034
C44	C	1.436266	-0.060970	-0.000047
O45	O	1.230210	-0.133827	-0.000013
O46	O	1.639093	-0.117045	-0.000087
C47	C	1.652445	0.243183	-0.000063
C48	C	1.786981	0.258098	-0.000075
C49	C	1.420707	0.327702	-0.000090
C50	C	1.422340	0.391089	-0.000110
N51	N	1.376719	0.244449	0.344031
N52	N	1.484898	0.204785	-0.344143
C53	C	1.443948	0.219794	0.416239
C54	C	1.417658	0.229443	0.583653
H55	H	0.826303	0.304773	-0.000081
H56	H	1.222002	-0.611615	-0.000084
H57	H	1.224747	-0.503579	-0.000104
H58	H	1.035303	0.144465	-0.000072
O59	O	1.757756	-0.320471	-0.000019
C60	C	1.977119	-0.305146	-0.000082
C61	C	1.856352	-0.277436	-0.000139
H62	H	2.056870	-0.270368	-0.000209
H63	H	1.966112	-0.326953	0.101134
H64	H	1.997793	-0.338647	-0.101242
H65	H	1.835608	-0.243913	0.100953
H66	H	1.867419	-0.255667	-0.101421
O67	O	1.047126	0.288012	-0.000274
C68	C	1.080063	0.371118	-0.125610
C69	C	1.026990	0.308055	-0.125536
H70	H	1.063825	0.387337	-0.226889
H71	H	1.031911	0.399070	-0.024499
H72	H	1.183834	0.373618	-0.125537
H73	H	0.923226	0.305499	-0.125661
H74	H	1.075235	0.280130	-0.226638
O75	O	1.657203	0.066171	-0.000076
C76	C	1.876226	0.068901	0.000002
C77	C	1.753790	0.031174	0.000039
H78	H	1.954344	0.040623	0.000127
H79	H	1.898456	0.091175	-0.101203
H80	H	1.866494	0.102847	0.101172
H81	H	1.763428	-0.002803	-0.101062
H82	H	1.731601	0.008941	0.101312
H83	H	0.821959	0.170231	-0.000083
H84	H	1.520965	0.191540	0.354121
H85	H	1.340628	0.257694	0.645767
O86	O	1.654128	-0.051188	-0.000300
C87	C	1.800361	-0.120377	-0.125516
C88	C	1.679614	-0.092622	-0.125429
H89	H	1.820990	-0.153890	-0.226656
H90	H	1.880184	-0.085635	-0.125596
H91	H	1.789250	-0.142181	-0.024285
H92	H	1.690603	-0.070821	-0.226642
H93	H	1.599836	-0.127388	-0.125272
H94	H	1.561919	0.176529	0.593742
O95	O	1.284755	0.278079	0.418288
C96	C	1.092187	0.283245	0.590287
C97	C	1.196270	0.245097	0.506312
H98	H	1.020607	0.256591	0.661452
H99	H	1.133142	0.321055	0.661627
H100	H	1.045716	0.300323	0.509857
H101	H	1.242781	0.227978	0.586638
H102	H	1.155244	0.207317	0.434951
O103	O	1.760594	-0.203122	-0.000273
C104	C	1.910315	-0.137857	-0.125602
C105	C	1.787928	-0.175625	-0.125527
H106	H	1.932466	-0.115625	-0.226874
H107	H	1.900694	-0.103883	-0.024485
H108	H	1.988441	-0.166140	-0.125541
H109	H	1.709740	-0.147390	-0.125639
H110	H	1.797653	-0.209603	-0.226635
H111	H	1.625708	-0.487075	-0.000094
H112	H	1.622952	-0.595132	-0.000112
O113	O	1.101099	-0.347653	-0.000337
C114	C	0.990792	-0.427345	-0.125696
C115	C	1.113155	-0.389570	-0.125601
H116	H	1.000489	-0.461236	-0.226976
H117	H	0.968611	-0.449679	-0.024586
H118	H	0.912649	-0.399054	-0.125635
H119	H	1.191375	-0.417820	-0.125713
H120	H	1.135228	-0.367231	-0.226701
O121	O	1.104033	-0.230102	0.000071
C122	C	0.957734	-0.160958	0.125382
C123	C	1.078441	-0.188740	0.125329
H124	H	0.936991	-0.127520	0.226658
H125	H	0.968797	-0.139084	0.024268
H126	H	0.877998	-0.195740	0.125302
H127	H	1.158237	-0.153993	0.125461
H128	H	1.067273	-0.210628	0.226434
O129	O	1.218339	-0.069008	-0.000105
C130	C	0.999293	-0.071733	-0.000036
C131	C	1.121709	-0.033998	0.000034
H132	H	0.921130	-0.043442	0.000107
H133	H	1.008895	-0.105652	-0.101264
H134	H	0.977214	-0.094042	0.101112
H135	H	1.143859	-0.011651	-0.101046
H136	H	1.112044	-0.000114	0.101328
H137	H	1.238666	0.044369	-0.000014
