data_functionalizedCrystal
_audit_creation_method	'MofGen! by Chris Wilmer'
_symmetry_space_group_name_H-M	'P1'
_symmetry_Int_Tables_number	1
_symmetry_cell_setting	triclinic
loop_
_symmetry_equiv_pos_as_xyz
  x,y,z
_cell_length_a	17.077404
_cell_length_b	19.805405
_cell_length_c	17.077396
_cell_angle_alpha	89.967516
_cell_angle_beta	89.982756
_cell_angle_gamma	90.026635
loop_
_atom_site_label
_atom_site_type_symbol
_atom_site_fract_x
_atom_site_fract_y
_atom_site_fract_z
Zn1	Zn	1.200018	-0.269454	-0.443825
Zn2	Zn	1.199922	-0.382648	-0.312552
Zn3	Zn	1.068755	-0.269479	-0.312573
Zn4	Zn	1.068710	-0.382606	-0.443776
O5	O	1.134351	-0.326047	-0.378182
O6	O	1.309852	-0.284476	-0.426424
O7	O	1.182501	-0.367664	-0.202708
O8	O	1.086226	-0.174759	-0.330014
O9	O	1.309782	-0.367640	-0.329978
O10	O	1.182665	-0.174740	-0.426444
O11	O	1.086133	-0.284519	-0.202724
O12	O	0.958902	-0.284479	-0.329966
O13	O	1.086149	-0.367568	-0.553629
O14	O	0.958869	-0.367593	-0.426360
O15	O	1.182621	-0.284435	-0.553666
O16	O	1.182457	-0.477359	-0.329930
O17	O	1.086056	-0.477329	-0.426339
C18	C	0.930403	-0.326035	-0.378160
C19	C	0.843153	-0.326046	-0.378169
C20	C	0.802167	-0.369388	-0.428281
C21	C	0.720186	-0.369390	-0.428294
C22	C	0.679194	-0.326051	-0.378190
C23	C	0.720187	-0.282704	-0.328076
C24	C	0.802166	-0.282699	-0.328068
C25	C	0.549317	-0.282717	-0.328095
C26	C	0.467332	-0.282722	-0.328102
C27	C	0.467337	-0.369408	-0.428321
C28	C	0.549316	-0.369403	-0.428313
C29	C	0.590303	-0.326056	-0.378197
C30	C	1.134263	-0.501903	-0.378144
C31	C	1.134297	-0.577135	-0.378154
C32	C	1.184542	-0.612472	-0.328006
C33	C	1.184575	-0.683161	-0.328023
C34	C	1.134359	-0.718510	-0.378185
C35	C	1.084112	-0.683168	-0.428338
C36	C	1.084083	-0.612481	-0.428324
C37	C	1.084228	-0.968241	-0.428397
C38	C	1.084259	-1.038933	-0.428405
C39	C	1.184720	-1.038921	-0.328095
C40	C	1.184691	-0.968234	-0.328081
C41	C	1.134447	-0.932898	-0.378237
C42	C	1.134413	-0.856249	-0.378219
C43	C	1.134389	-0.795157	-0.378200
C44	C	1.339095	-0.326060	-0.378204
C45	C	1.426345	-0.326065	-0.378213
C46	C	1.134391	-0.325994	-0.582926
C47	C	1.134407	-0.325972	-0.670176
C48	C	1.134461	-0.149504	-0.378237
C49	C	1.134508	-0.074272	-0.378261
C50	C	1.084244	-0.282673	-0.711174
C51	C	1.084257	-0.282658	-0.793154
C52	C	1.134438	-0.325938	-0.834135
C53	C	1.184603	-0.369242	-0.793132
C54	C	1.184586	-0.369260	-0.711153
C55	C	1.184637	-0.369200	-0.964002
C56	C	1.184656	-0.369181	-1.045987
C57	C	1.084308	-0.282597	-1.046003
C58	C	1.084291	-0.282616	-0.964024
C59	C	1.134458	-0.325918	-0.923026
C60	C	1.134357	-0.326050	-0.174234
C61	C	1.134492	-0.325882	-0.086984
H62	H	0.835536	-0.404682	-0.469079
H63	H	0.686818	-0.404685	-0.469099
Cl64	Cl	1.021210	-0.228201	-0.912506
H65	H	1.225440	-0.404513	-0.677774
Cl66	Cl	1.247746	-0.727582	-0.264980
Cl67	Cl	1.021242	-0.228158	-1.097543
Cl68	Cl	0.600848	-0.423891	-0.491296
Cl69	Cl	1.247822	-0.923799	-0.265019
Cl70	Cl	1.247889	-1.083349	-0.265045
Cl71	Cl	0.415800	-0.228242	-0.265110
Cl72	Cl	1.247702	-0.423641	-0.912463
H73	H	1.225518	-0.404423	-1.079352
Cl74	Cl	1.021154	-0.228254	-0.844691
Cl75	Cl	1.021126	-1.083372	-0.491472
Cl76	Cl	1.021062	-0.923827	-0.491448
Cl77	Cl	1.020918	-0.568056	-0.491373
H78	H	1.043385	-0.247425	-0.677812
Cl79	Cl	0.600842	-0.228223	-0.265092
H80	H	1.225457	-0.404485	-0.826506
H81	H	0.686805	-0.247414	-0.287284
Cl82	Cl	0.415811	-0.423891	-0.491334
Cl83	Cl	1.020987	-0.727607	-0.491404
H84	H	0.835536	-0.247402	-0.287266
H85	H	1.225430	-0.583696	-0.287155
