data_functionalizedCrystal
_audit_creation_method	'MofGen! by Chris Wilmer'
_symmetry_space_group_name_H-M	'P1'
_symmetry_Int_Tables_number	1
_symmetry_cell_setting	triclinic
loop_
_symmetry_equiv_pos_as_xyz
  x,y,z
_cell_length_a	12.759401
_cell_length_b	12.645330
_cell_length_c	12.759393
_cell_angle_alpha	89.969952
_cell_angle_beta	89.981504
_cell_angle_gamma	90.017853
loop_
_atom_site_label
_atom_site_type_symbol
_atom_site_fract_x
_atom_site_fract_y
_atom_site_fract_z
Zn1	Zn	1.606234	-0.421972	-0.593992
Zn2	Zn	1.606119	-0.599276	-0.418317
Zn3	Zn	1.430536	-0.422028	-0.418332
Zn4	Zn	1.430515	-0.599195	-0.593959
O5	O	1.518351	-0.510618	-0.506150
O6	O	1.753239	-0.445503	-0.570697
O7	O	1.582788	-0.575821	-0.271298
O8	O	1.453899	-0.273673	-0.441654
O9	O	1.753155	-0.575767	-0.441629
O10	O	1.582983	-0.273632	-0.570711
O11	O	1.453788	-0.445598	-0.271309
O12	O	1.283512	-0.445518	-0.441621
O13	O	1.453864	-0.575628	-0.740984
O14	O	1.283497	-0.575682	-0.570653
O15	O	1.582964	-0.445424	-0.741009
O16	O	1.582768	-0.747613	-0.441596
O17	O	1.453753	-0.747553	-0.570639
C18	C	1.245383	-0.510598	-0.506136
C19	C	1.128607	-0.510615	-0.506155
C20	C	1.073764	-0.578500	-0.573231
C21	C	0.964040	-0.578514	-0.573242
C22	C	0.964011	-0.442755	-0.439092
C23	C	1.073733	-0.442737	-0.439087
C24	C	1.073781	-0.656883	-0.650678
C25	C	0.964056	-0.656896	-0.650689
C26	C	1.518274	-0.786048	-0.506135
C27	C	1.518337	-0.903878	-0.506164
C28	C	1.437509	-1.071448	-0.587595
C29	C	1.437095	-0.948888	-0.587334
C30	C	1.488364	-0.948482	-0.395443
C31	C	1.487871	-1.071080	-0.395937
C32	C	1.629634	-1.070964	-0.534556
C33	C	1.628952	-0.948357	-0.536977
C34	C	1.792384	-0.510638	-0.506165
C35	C	1.909161	-0.510647	-0.506171
C36	C	1.518424	-0.510511	-0.780183
C37	C	1.518456	-0.510465	-0.896960
C38	C	1.518456	-0.234112	-0.506188
C39	C	1.518501	-0.116282	-0.506204
C40	C	1.585687	-0.442661	-0.951837
C41	C	1.585712	-0.442623	-1.061561
C42	C	1.451271	-0.578202	-1.061522
C43	C	1.451242	-0.578234	-0.951800
C44	C	1.663309	-0.364389	-0.951860
C45	C	1.663334	-0.364351	-1.061584
C46	C	1.518338	-0.510648	-0.233183
C47	C	1.518510	-0.510395	-0.116407
H48	H	0.919319	-0.387489	-0.384489
H49	H	1.107791	-0.734832	-0.621395
F50	F	0.919615	-0.618592	-0.751790
F51	F	1.379741	-0.650321	-1.119896
H52	H	1.103590	-0.634988	-0.732084
F53	F	0.925101	-0.764175	-0.621998
H54	H	1.740579	-0.393821	-0.917825
F55	F	1.461604	-0.909462	-0.694644
F56	F	1.461790	-1.109883	-0.695260
H57	H	1.355635	-1.102351	-0.569052
H58	H	1.641544	-0.282291	-0.922102
H59	H	1.354706	-0.919656	-0.568550
H60	H	1.634224	-0.286344	-1.095630
H61	H	1.406632	-1.099774	-0.371918
F62	F	1.769689	-0.393079	-1.100513
H63	H	1.544302	-1.100743	-0.333226
F64	F	1.563023	-0.910380	-0.314009
H65	H	1.407972	-0.917873	-0.370989
H66	H	1.396492	-0.633443	-0.907124
H67	H	1.651556	-0.919199	-0.618463
F68	F	1.132096	-0.370468	-0.367712
F69	F	1.665373	-1.111268	-0.638293
H70	H	1.692473	-0.917711	-0.482013
F71	F	1.708509	-1.108876	-0.457085
