data_functionalizedCrystal
_audit_creation_method	'MofGen! by Chris Wilmer'
_symmetry_space_group_name_H-M	'P1'
_symmetry_Int_Tables_number	1
_symmetry_cell_setting	triclinic
loop_
_symmetry_equiv_pos_as_xyz
  x,y,z
_cell_length_a	16.959455
_cell_length_b	21.295417
_cell_length_c	16.959447
_cell_angle_alpha	89.964807
_cell_angle_beta	89.985678
_cell_angle_gamma	90.027454
loop_
_atom_site_label
_atom_site_type_symbol
_atom_site_fract_x
_atom_site_fract_y
_atom_site_fract_z
Zn1	Zn	1.208326	-0.250648	-0.446882
Zn2	Zn	1.208225	-0.355925	-0.314692
Zn3	Zn	1.076155	-0.250668	-0.314719
Zn4	Zn	1.076096	-0.355878	-0.446831
O5	O	1.142200	-0.303280	-0.380781
O6	O	1.318924	-0.264625	-0.429357
O7	O	1.190688	-0.341990	-0.204085
O8	O	1.093755	-0.162576	-0.332284
O9	O	1.318849	-0.341971	-0.332237
O10	O	1.190861	-0.162561	-0.429383
O11	O	1.093657	-0.264658	-0.204105
O12	O	0.965536	-0.264613	-0.332234
O13	O	1.093654	-0.341891	-0.557448
O14	O	0.965493	-0.341910	-0.429296
O15	O	1.190803	-0.264579	-0.557486
O16	O	1.190630	-0.444008	-0.332188
O17	O	1.093555	-0.443973	-0.429269
C18	C	0.936834	-0.303259	-0.380763
C19	C	0.848978	-0.303265	-0.380774
C20	C	0.477500	-0.262998	-0.330347
C21	C	0.477504	-0.343613	-0.431261
C22	C	0.560050	-0.343604	-0.431256
C23	C	0.601325	-0.303292	-0.380795
C24	C	0.560054	-0.262989	-0.330339
C25	C	0.601327	-0.383911	-0.481705
C26	C	0.683877	-0.383904	-0.481702
C27	C	0.725154	-0.343588	-0.431244
C28	C	0.683878	-0.303283	-0.380787
C29	C	0.725153	-0.262971	-0.330326
C30	C	0.683879	-0.222662	-0.279871
C31	C	0.601330	-0.222673	-0.279881
C32	C	0.807702	-0.343577	-0.431235
C33	C	0.807707	-0.262962	-0.330318
C34	C	1.142097	-0.466831	-0.380737
C35	C	1.142125	-0.536799	-0.380745
C36	C	1.192717	-0.569663	-0.330246
C37	C	1.192754	-0.635406	-0.330264
C38	C	1.142185	-0.668282	-0.380772
C39	C	1.091589	-0.635410	-0.431281
C40	C	1.091559	-0.569669	-0.431267
N41	N	1.073038	-0.771544	-0.386792
N42	N	1.073069	-0.833996	-0.386800
C43	C	1.142273	-0.866357	-0.380818
N44	N	1.211448	-0.833907	-0.374811
N45	N	1.211416	-0.771449	-0.374798
C46	C	1.142212	-0.739567	-0.380793
C47	C	1.192910	-0.970506	-0.330335
C48	C	1.192948	-1.036249	-0.330359
C49	C	1.091777	-1.036253	-0.431371
C50	C	1.091745	-0.970510	-0.431352
C51	C	1.142311	-0.937641	-0.380830
C52	C	1.348369	-0.303301	-0.380800
C53	C	1.436225	-0.303310	-0.380808
C54	C	1.142233	-0.303228	-0.586949
C55	C	1.142247	-0.303205	-0.674806
C56	C	1.142326	-0.139089	-0.380842
C57	C	1.142379	-0.069121	-0.380868
C58	C	1.091760	-0.343392	-1.046265
C59	C	1.192923	-0.262886	-1.046299
C60	C	1.192902	-0.262900	-0.963753
C61	C	1.142310	-0.303160	-0.922459
C62	C	1.091740	-0.343407	-0.963711
C63	C	1.243478	-0.222658	-0.922495
C64	C	1.243459	-0.222670	-0.839944
C65	C	1.192863	-0.262928	-0.798648
C66	C	1.142289	-0.303176	-0.839906
C67	C	1.091698	-0.343437	-0.798612
C68	C	1.041120	-0.383682	-0.839867
C69	C	1.041143	-0.383665	-0.922416
C70	C	1.192839	-0.262945	-0.716100
C71	C	1.091677	-0.343453	-0.716058
C72	C	1.142213	-0.303286	-0.175415
C73	C	1.142352	-0.303131	-0.087559
H74	H	0.717476	-0.416725	-0.522785
O75	O	0.437290	-0.382712	-0.480249
C76	C	0.355580	-0.374091	-0.469419
H77	H	0.344318	-0.325487	-0.443644
H78	H	0.332127	-0.411392	-0.427241
C79	C	0.327051	-0.439638	-0.581041
C80	C	0.313218	-0.379940	-0.549389
H81	H	0.300919	-0.443248	-0.630369
H82	H	0.382100	-0.445448	-0.588336
H83	H	0.307507	-0.470715	-0.545886
H84	H	0.332771	-0.348864	-0.584540
H85	H	0.258171	-0.374124	-0.542102
O86	O	1.042642	-0.382594	-0.675859
C87	C	1.087605	-0.423277	-0.628109
H88	H	1.147522	-0.401085	-0.615757
H89	H	1.096259	-0.469921	-0.659904
C90	C	0.970503	-0.461944	-0.564859
C91	C	1.044091	-0.434684	-0.549682
H92	H	0.943660	-0.468983	-0.516482
H93	H	0.940209	-0.434537	-0.597030
H94	H	0.977725	-0.500811	-0.591356
H95	H	1.036868	-0.395815	-0.523195
H96	H	1.074382	-0.462085	-0.517504
H97	H	1.284672	-0.189883	-0.956122
H98	H	0.567714	-0.416735	-0.522782
O99	O	1.241917	-0.537832	-0.281154
C100	C	1.286566	-0.580942	-0.236573
H101	H	1.289298	-0.627783	-0.268960
H102	H	1.257665	-0.587987	-0.176515
C103	C	1.367336	-0.497708	-0.185478
C104	C	1.370696	-0.555238	-0.225259
H105	H	1.419230	-0.481852	-0.178495
H106	H	1.337253	-0.468663	-0.215510
H107	H	1.343248	-0.503587	-0.135434
H108	H	1.394774	-0.549357	-0.275306
H109	H	1.400785	-0.584281	-0.195235
H110	H	1.284642	-0.189899	-0.806360
O111	O	0.992090	-0.422822	-0.799659
C112	C	1.037063	-0.463500	-0.751912
H113	H	1.096980	-0.441306	-0.739573
H114	H	1.045713	-0.510147	-0.783701
C115	C	0.919972	-0.502164	-0.688637
C116	C	0.993561	-0.474902	-0.673476
H117	H	0.893137	-0.509200	-0.640255
H118	H	0.889672	-0.474761	-0.720807
H119	H	0.927191	-0.541033	-0.715130
H120	H	0.986341	-0.436030	-0.646993
H121	H	1.023859	-0.502299	-0.641300
O122	O	1.241965	-0.667373	-0.281308
C123	C	1.292996	-0.705364	-0.326342
H124	H	1.297865	-0.685510	-0.388593
H125	H	1.268557	-0.755196	-0.329065
C126	C	1.369194	-0.730751	-0.211304
C127	C	1.375180	-0.706363	-0.287761
H128	H	1.419888	-0.731371	-0.187505
H129	H	1.334812	-0.705158	-0.180963
H130	H	1.348825	-0.772276	-0.213585
H131	H	1.395539	-0.664837	-0.285479
H132	H	1.409567	-0.731949	-0.318101
O133	O	1.042706	-0.382465	-1.086457
C134	C	1.053551	-0.373807	-1.168173
H135	H	1.114569	-0.353196	-1.179462
H136	H	1.006697	-0.340275	-1.191610
C137	C	0.971321	-0.462805	-1.196659
C138	C	1.046267	-0.437495	-1.210525
H139	H	0.966824	-0.502090	-1.222785
H140	H	0.964011	-0.468637	-1.141606
H141	H	0.932284	-0.434856	-1.216190
H142	H	1.085302	-0.465441	-1.190985
H143	H	1.053583	-0.431670	-1.265576
O144	O	0.561319	-0.183555	-0.230763
C145	C	0.581437	-0.197240	-0.151947
H146	H	0.641367	-0.221424	-0.150240
H147	H	0.534958	-0.229589	-0.125257
C148	C	0.511639	-0.106122	-0.106305
C149	C	0.585249	-0.135820	-0.104209
H150	H	0.513986	-0.068236	-0.076857
H151	H	0.498082	-0.096903	-0.159405
H152	H	0.472914	-0.133085	-0.084065
H153	H	0.623970	-0.108860	-0.126457
H154	H	0.598812	-0.145033	-0.051112
O155	O	1.042576	-0.667412	-0.480382
C156	C	1.087563	-0.705368	-0.531493
H157	H	1.147486	-0.715194	-0.503670
H158	H	1.096200	-0.679991	-0.590073
C159	C	0.970493	-0.755767	-0.579951
C160	C	1.044089	-0.767840	-0.545774
H161	H	0.943675	-0.794302	-0.588764
H162	H	0.940183	-0.730195	-0.545519
H163	H	0.977700	-0.734619	-0.628764
H164	H	1.036880	-0.788981	-0.496958
H165	H	1.074397	-0.793418	-0.580199
O166	O	0.724066	-0.183593	-0.230815
C167	C	0.771761	-0.219384	-0.179664
H168	H	0.784104	-0.267118	-0.207429
H169	H	0.739926	-0.226241	-0.121073
C170	C	0.835034	-0.126112	-0.131327
C171	C	0.850199	-0.184737	-0.165432
H172	H	0.883416	-0.104739	-0.122544
H173	H	0.802898	-0.101998	-0.165786
H174	H	0.808502	-0.131834	-0.082504
H175	H	0.876721	-0.179013	-0.214257
H176	H	0.882341	-0.208849	-0.130981
H177	H	0.443891	-0.230178	-0.289270
H178	H	1.234021	-0.230179	-0.682513
O179	O	0.992132	-0.422825	-0.962528
C180	C	1.037118	-0.463466	-1.010272
H181	H	1.099361	-0.467368	-0.985387
H182	H	1.039878	-0.443989	-1.072842
C183	C	0.922004	-0.524110	-1.042081
C184	C	0.998450	-0.528906	-1.011513
H185	H	0.898150	-0.564475	-1.042851
H186	H	0.891695	-0.496728	-1.009918
H187	H	0.924315	-0.507877	-1.094220
H188	H	0.996137	-0.545131	-0.959372
H189	H	1.028758	-0.556292	-1.043668
H190	H	1.234117	-0.230111	-1.079925
H191	H	1.050545	-0.943751	-0.472469
H192	H	1.050361	-0.542911	-0.472390
O193	O	1.042765	-1.068249	-0.480477
C194	C	1.087754	-1.106199	-0.531592
H195	H	1.147677	-1.116026	-0.503769
H196	H	1.096391	-1.080818	-0.590169
C197	C	0.970686	-1.156598	-0.580058
C198	C	1.044283	-1.168671	-0.545882
H199	H	0.943870	-1.195132	-0.588876
H200	H	0.940375	-1.131028	-0.545623
H201	H	0.977894	-1.135445	-0.628868
H202	H	1.037074	-1.189817	-0.497069
H203	H	1.074592	-1.194246	-0.580309
O204	O	0.847886	-0.223890	-0.281259
C205	C	0.895583	-0.259675	-0.230103
H206	H	0.907937	-0.307407	-0.257867
H207	H	0.863743	-0.266535	-0.171515
C208	C	0.958835	-0.166396	-0.181761
C209	C	0.974014	-0.225019	-0.215864
H210	H	1.007213	-0.145017	-0.172974
H211	H	0.926698	-0.142286	-0.216223
H212	H	0.932299	-0.172120	-0.132941
H213	H	1.000540	-0.219293	-0.264687
H214	H	1.006156	-0.249127	-0.181409
O215	O	1.241991	-0.938639	-0.281157
C216	C	1.224763	-0.954755	-0.202364
H217	H	1.194406	-1.002512	-0.200710
H218	H	1.184121	-0.917803	-0.175696
C219	C	1.339138	-0.899111	-0.156586
C220	C	1.301859	-0.957769	-0.154554
H221	H	1.386693	-0.900967	-0.127093
H222	H	1.350744	-0.888251	-0.209669
H223	H	1.305262	-0.868323	-0.134364
H224	H	1.335732	-0.988554	-0.176785
H225	H	1.290261	-0.968634	-0.101473
O226	O	1.242245	-1.068175	-0.281451
C227	C	1.293275	-1.106109	-0.326560
H228	H	1.298012	-1.086253	-0.388821
H229	H	1.268923	-1.155969	-0.329242
C230	C	1.369697	-1.131401	-0.211639
C231	C	1.375520	-1.107011	-0.288107
H232	H	1.420429	-1.131961	-0.187919
H233	H	1.335316	-1.105847	-0.181247
H234	H	1.349401	-1.172949	-0.213885
H235	H	1.395807	-1.065461	-0.285860
H236	H	1.409907	-1.132558	-0.318498
H237	H	0.841304	-0.376398	-0.472312
