data_functionalizedCrystal
_audit_creation_method	'MofGen! by Chris Wilmer'
_symmetry_space_group_name_H-M	'P1'
_symmetry_Int_Tables_number	1
_symmetry_cell_setting	triclinic
loop_
_symmetry_equiv_pos_as_xyz
  x,y,z
_cell_length_a	10.723022
_cell_length_b	9.798715
_cell_length_c	17.699083
_cell_angle_alpha	89.995715
_cell_angle_beta	96.124880
_cell_angle_gamma	90.003403
loop_
_atom_site_label
_atom_site_type_symbol
_atom_site_fract_x
_atom_site_fract_y
_atom_site_fract_z
O1	O	1.655368	0.113485	-0.106146
O2	O	2.155368	0.613485	0.393854
O3	O	1.292042	0.113490	-0.116307
O4	O	1.792042	0.613490	0.383693
O5	O	1.483970	0.113475	-0.001102
O6	O	1.983970	0.613475	0.498898
O7	O	1.463440	0.113500	-0.221351
O8	O	1.963440	0.613500	0.278649
O9	O	1.483956	-0.113507	-0.001101
O10	O	1.983956	0.386493	0.498899
O11	O	1.292027	-0.113492	-0.116307
O12	O	1.792027	0.386508	0.383693
O13	O	1.655354	-0.113497	-0.106145
O14	O	2.155354	0.386503	0.393855
Zn15	Zn	1.473689	-0.149533	-0.111226
Zn16	Zn	1.973689	0.350467	0.388774
Zn17	Zn	1.473707	0.149526	-0.111227
Zn18	Zn	1.973707	0.649526	0.388773
O19	O	1.463426	-0.113482	-0.221350
O20	O	1.963426	0.386518	0.278650
C21	C	1.245548	-0.000000	-0.115568
C22	C	1.745548	0.500000	0.384432
C23	C	1.107031	0.000001	-0.113356
C24	C	1.607031	0.500001	0.386644
C25	C	0.887787	0.000011	-0.175531
C26	C	1.387787	0.500011	0.324469
C27	C	1.030950	0.000009	-0.177819
C28	C	1.530950	0.500009	0.322181
N29	N	1.473685	-0.353633	-0.111224
N30	N	1.973685	0.146367	0.388776
C31	C	1.545698	-0.421406	-0.155111
C32	C	2.045698	0.078594	0.344889
C33	C	1.545717	-0.578569	-0.155110
C34	C	2.045717	-0.078569	0.344890
C35	C	1.701848	-0.000003	-0.106884
C36	C	2.201848	0.499997	0.393116
C37	C	1.840365	0.000004	-0.109096
C38	C	2.340365	0.500004	0.390904
C39	C	1.483227	-0.000016	0.027100
C40	C	1.983227	0.499984	0.527100
C41	C	1.481020	-0.000016	0.111132
C42	C	1.981020	0.499984	0.611132
N43	N	1.473721	0.353626	-0.111222
N44	N	1.973721	0.853626	0.388778
C45	C	1.464169	0.000012	-0.249552
C46	C	1.964169	0.500012	0.250448
C47	C	1.466376	0.000021	-0.333584
C48	C	1.966376	0.500021	0.166416
C49	C	1.593678	-0.000020	0.159043
C50	C	2.093678	0.499980	0.659043
C51	C	1.591597	-0.000008	0.237999
C52	C	2.091597	0.499992	0.737999
C53	C	1.476857	-0.000002	0.269043
C54	C	1.976857	0.499998	0.769043
C55	C	1.364190	0.000006	0.221126
C56	C	1.864190	0.500006	0.721126
C57	C	1.366273	0.000003	0.142172
C58	C	1.866273	0.500003	0.642172
C59	C	1.355790	0.000017	0.539542
C60	C	1.855790	0.500017	1.039542
C61	C	1.353716	0.000015	0.618504
C62	C	1.853716	0.500015	1.118504
C63	C	1.581114	0.000006	0.635370
C64	C	2.081114	0.500006	1.135370
C65	C	1.583197	0.000004	0.556415
C66	C	2.083197	0.500004	1.056415
C67	C	1.470531	0.000018	0.508505
C68	C	1.970531	0.500018	1.008505
C69	C	1.472789	0.000008	0.422892
C70	C	1.972789	0.500008	0.922892
C71	C	1.474598	-0.000001	0.354655
C72	C	1.974598	0.499999	0.854655
H73	H	0.905753	0.000006	-0.053912
H74	H	1.405753	0.500006	0.446088
Br75	Br	1.648449	-0.324203	-0.217733
Br76	Br	2.148449	0.175797	0.282267
H77	H	1.607363	-0.636853	-0.192686
H78	H	2.107363	-0.136853	0.307314
Br79	Br	0.778814	0.000043	-0.267514
Br80	Br	1.278814	0.500043	0.232486
H81	H	1.412059	-0.588099	-0.073651
H82	H	1.912059	-0.088099	0.426349
H83	H	1.071787	0.000007	-0.234700
H84	H	1.571787	0.500007	0.265300
H85	H	1.672852	0.000001	0.674388
H86	H	2.172852	0.500001	1.174388
H87	H	1.412051	-0.411961	-0.073649
H88	H	1.912051	0.088039	0.426351
Br89	Br	1.749406	-0.000047	0.116920
Br90	Br	2.249406	0.499953	0.616920
Br91	Br	1.744497	-0.000012	0.303019
Br92	Br	2.244497	0.499988	0.803019
Br93	Br	1.738921	-0.000003	0.514288
Br94	Br	2.238921	0.499997	1.014288
H95	H	1.260276	0.000017	0.643776
H96	H	1.760276	0.500017	1.143776
H97	H	1.264050	0.000028	0.500543
H98	H	1.764050	0.500028	1.000543
H99	H	1.270767	0.000019	0.246409
H100	H	1.770767	0.500019	0.746409
H101	H	1.274535	0.000006	0.103163
H102	H	1.774535	0.500006	0.603163
H103	H	1.066203	0.000031	-0.056472
H104	H	1.566203	0.500031	0.443528
