data_functionalizedCrystal
_audit_creation_method	'MofGen! by Chris Wilmer'
_symmetry_space_group_name_H-M	'P1'
_symmetry_Int_Tables_number	1
_symmetry_cell_setting	triclinic
loop_
_symmetry_equiv_pos_as_xyz
  x,y,z
_cell_length_a	18.101395
_cell_length_b	12.645331
_cell_length_c	12.645324
_cell_angle_alpha	90.025687
_cell_angle_beta	89.964944
_cell_angle_gamma	89.974642
loop_
_atom_site_label
_atom_site_type_symbol
_atom_site_fract_x
_atom_site_fract_y
_atom_site_fract_z
Zn1	Zn	-0.294888	-1.620625	-0.599526
Zn2	Zn	-0.418753	-1.620468	-0.422256
Zn3	Zn	-0.294917	-1.443342	-0.422259
Zn4	Zn	-0.418679	-1.443280	-0.599459
O5	O	-0.356809	-1.531929	-0.510875
O6	O	-0.311337	-1.768952	-0.576037
O7	O	-0.402369	-1.596931	-0.273909
O8	O	-0.191280	-1.466951	-0.445803
O9	O	-0.402340	-1.768836	-0.445797
O10	O	-0.191259	-1.597200	-0.576040
O11	O	-0.311387	-1.466798	-0.273911
O12	O	-0.311316	-1.294986	-0.445739
O13	O	-0.402215	-1.466845	-0.747816
O14	O	-0.402244	-1.294941	-0.575927
O15	O	-0.311266	-1.597140	-0.747865
O16	O	-0.522376	-1.596871	-0.445733
O17	O	-0.522322	-1.466692	-0.575924
C18	C	-0.356776	-1.256499	-0.510827
C19	C	-0.356779	-1.138669	-0.510831
C20	C	-0.299304	-0.971098	-0.429370
C21	C	-0.299460	-1.093658	-0.429019
C22	C	-0.434793	-1.094123	-0.480307
C23	C	-0.434472	-0.971524	-0.479743
C24	C	-0.336962	-0.971525	-0.623106
C25	C	-0.335226	-1.094131	-0.622490
C26	C	-0.549220	-1.531787	-0.510844
C27	C	-0.631534	-1.531823	-0.510866
C28	C	-0.930625	-1.532056	-0.510923
C29	C	-0.899297	-1.450341	-0.593039
C30	C	-0.813679	-1.449952	-0.592782
C31	C	-0.782242	-1.531940	-0.510896
C32	C	-0.813402	-1.501689	-0.399168
C33	C	-0.899047	-1.501162	-0.399659
C34	C	-0.898974	-1.644201	-0.539551
C35	C	-0.813322	-1.643542	-0.542001
C36	C	-0.698383	-1.531877	-0.510873
C37	C	-1.014484	-1.532117	-0.510938
C38	C	-0.163647	-1.532100	-0.510929
C39	C	-0.081333	-1.532173	-0.510953
C40	C	-0.356729	-1.532003	-0.787380
C41	C	-0.356695	-1.532035	-0.905211
C42	C	-0.356829	-0.808434	-0.510908
C43	C	-0.356800	-0.926264	-0.510881
C44	C	-0.299466	-1.614022	-0.950123
C45	C	-0.299616	-1.614374	-1.072683
C46	C	-0.434777	-1.561965	-1.073087
C47	C	-0.434466	-1.562529	-0.950489
C48	C	-0.336482	-1.419977	-0.950376
C49	C	-0.334741	-1.420609	-1.072983
C50	C	-0.356836	-1.531915	-0.235445
C51	C	-0.356661	-1.532089	-0.117616
H52	H	-0.312271	-0.940247	-0.346696
C53	C	-0.928443	-1.338721	-0.567735
N54	N	-0.950395	-1.254649	-0.548670
C55	C	-0.785773	-1.674387	-0.653062
N56	N	-0.765009	-1.697625	-0.736706
H57	H	-0.478558	-1.505365	-0.920774
H58	H	-0.478762	-0.941864	-0.536522
C59	C	-0.317349	-1.725563	-0.908530
N60	N	-0.330820	-1.809575	-0.877200
C61	C	-0.386928	-1.333742	-1.114253
N62	N	-0.426250	-1.268318	-1.145322
C63	C	-0.493946	-1.483788	-1.112400
N64	N	-0.538511	-1.424903	-1.142014
C65	C	-0.785892	-1.579557	-0.314254
N66	N	-0.765168	-1.638207	-0.250297
H67	H	-0.793251	-1.366828	-0.573818
C68	C	-0.458257	-1.671419	-1.114575
N69	N	-0.475938	-1.753864	-1.145820
C70	C	-0.784411	-1.730144	-0.467089
N71	N	-0.762637	-1.795371	-0.410656
H72	H	-0.312576	-1.122932	-0.345860
C73	C	-0.457190	-0.932817	-0.368904
N74	N	-0.474299	-0.903667	-0.285415
C75	C	-0.392785	-1.337460	-0.911123
N76	N	-0.435193	-1.275316	-0.881551
H77	H	-0.280502	-1.392676	-0.919461
H78	H	-0.792608	-1.468880	-0.675627
C79	C	-0.926121	-1.390412	-0.366906
N80	N	-0.946510	-1.306991	-0.342239
H81	H	-0.241276	-0.941653	-0.448294
C82	C	-0.221304	-1.134351	-0.454852
N83	N	-0.162433	-1.164996	-0.474304
H84	H	-0.478781	-1.123277	-0.537815
C85	C	-0.317711	-1.726569	-1.112333
N86	N	-0.331344	-1.811079	-1.142196
H87	H	-0.451908	-1.124773	-0.399149
H88	H	-0.451561	-1.644431	-0.921909
H89	H	-0.281063	-0.940647	-0.650860
H90	H	-0.241379	-1.595577	-0.920671
C91	C	-0.257663	-1.133461	-0.653580
N92	N	-0.199242	-1.163087	-0.676993
H93	H	-0.919233	-1.705082	-0.479743
C94	C	-0.221374	-1.589192	-1.113368
N95	N	-0.162439	-1.570231	-1.144008
C96	C	-0.257081	-1.390153	-1.112314
N97	N	-0.198588	-1.367215	-1.141947
C98	C	-0.928071	-1.681456	-0.647745
N99	N	-0.949987	-1.709505	-0.729241
C100	C	-0.784516	-1.392108	-0.365823
N101	N	-0.762761	-1.309568	-0.340714
H102	H	-0.378840	-0.942531	-0.683838
C103	C	-0.387683	-1.135520	-0.708931
N104	N	-0.427200	-1.166691	-0.774036
H105	H	-0.919838	-1.469080	-0.676152
C106	C	-0.927051	-1.578067	-0.314176
N107	N	-0.948140	-1.635984	-0.249785
