data_functionalizedCrystal
_audit_creation_method	'MofGen! by Chris Wilmer'
_symmetry_space_group_name_H-M	'P1'
_symmetry_Int_Tables_number	1
_symmetry_cell_setting	triclinic
loop_
_symmetry_equiv_pos_as_xyz
  x,y,z
_cell_length_a	19.288864
_cell_length_b	11.026607
_cell_length_c	18.366186
_cell_angle_alpha	89.996969
_cell_angle_beta	89.977106
_cell_angle_gamma	95.861131
loop_
_atom_site_label
_atom_site_type_symbol
_atom_site_fract_x
_atom_site_fract_y
_atom_site_fract_z
O1	O	0.940539	0.151279	-0.060786
O2	O	0.740867	0.171686	-0.060737
O3	O	0.824154	-0.015080	-0.060755
O4	O	0.857252	0.338045	-0.060768
O5	O	0.824135	-0.015089	0.060345
O6	O	0.740847	0.171677	0.060363
O7	O	0.940520	0.151270	0.060313
Zn8	Zn	0.840681	0.161472	0.079565
Zn9	Zn	0.840706	0.161484	-0.079988
O10	O	0.857232	0.338036	0.060331
C11	C	0.714897	0.171025	-0.000181
C12	C	0.637544	0.169054	-0.000161
C13	C	0.606746	0.278640	-0.000177
C14	C	0.534064	0.276788	-0.000185
C15	C	0.492182	0.165344	-0.000192
C16	C	0.522988	0.055744	-0.000172
C17	C	0.595669	0.057599	-0.000157
C18	C	0.372816	0.077740	-0.042640
C19	C	0.300137	0.075890	-0.042659
C20	C	0.268011	0.159618	-0.000236
C21	C	0.308573	0.245218	0.042198
C22	C	0.381254	0.247073	0.042213
C23	C	0.413372	0.163320	-0.000208
C24	C	0.158403	0.267204	-0.000259
C25	C	0.085720	0.265347	-0.000263
C26	C	0.074645	0.044300	-0.000257
C27	C	0.147327	0.046159	-0.000246
C28	C	0.189202	0.157615	-0.000251
C29	C	0.818039	-0.060262	-0.000204
C30	C	0.799837	-0.194876	-0.000202
C31	C	0.850095	-0.268957	-0.000216
C32	C	0.831284	-0.408088	-0.000214
C33	C	0.966489	0.151931	-0.000244
C34	C	1.043843	0.153902	-0.000268
C35	C	0.863348	0.383218	-0.000221
C36	C	0.881550	0.517833	-0.000227
N37	N	0.840668	0.161463	0.188456
N38	N	0.840723	0.161484	-0.188880
C39	C	0.877569	0.078804	0.226549
C40	C	0.877572	0.078798	0.302777
C41	C	0.840685	0.161473	0.340909
C42	C	0.803777	0.244139	0.302807
C43	C	0.803768	0.244134	0.226581
C44	C	0.845400	0.271967	0.461667
C45	C	0.845414	0.271974	0.537891
C46	C	0.840707	0.161488	0.576017
C47	C	0.836000	0.050992	0.537907
C48	C	0.835992	0.050987	0.461681
C49	C	0.840689	0.161487	0.423564
C50	C	0.877613	0.078816	0.696764
C51	C	0.877611	0.078809	0.772993
C52	C	0.803820	0.244161	0.773023
C53	C	0.803817	0.244157	0.696795
C54	C	0.840717	0.161486	0.658670
H55	H	0.508984	0.366029	-0.000196
C56	C	0.652804	0.401236	-0.000169
H57	H	0.624048	0.466236	-0.000171
H58	H	0.681416	0.406565	-0.042390
H59	H	0.681358	0.406546	0.042076
C60	C	0.255522	-0.018255	-0.089337
H61	H	0.207636	-0.007358	-0.083279
H62	H	0.263401	-0.098186	-0.074415
H63	H	0.268000	-0.007284	-0.139123
C64	C	0.476922	-0.066841	-0.000184
H65	H	0.429224	-0.052252	-0.000204
H66	H	0.486530	-0.111955	0.042049
H67	H	0.486584	-0.111939	-0.042416
C68	C	0.425870	0.341213	0.088893
H69	H	0.396332	0.390812	0.114163
H70	H	0.456696	0.390903	0.058313
H71	H	0.452098	0.299993	0.123017
C72	C	0.763204	0.335083	0.344750
H73	H	0.768500	0.323256	0.395604
H74	H	0.715228	0.322119	0.332286
H75	H	0.780864	0.415987	0.332242
H76	H	0.060646	0.354589	-0.000271
C77	C	0.918191	-0.012128	0.654824
H78	H	0.940160	-0.061373	0.688431
H79	H	0.952539	0.031363	0.625068
H80	H	0.886901	-0.062501	0.625107
C81	C	0.850574	0.393505	0.419733
H82	H	0.849887	0.377678	0.368878
H83	H	0.892818	0.440868	0.432198
H84	H	0.812194	0.436938	0.432245
H85	H	0.907622	0.011484	0.333797
C86	C	0.754339	-0.461539	-0.000196
H87	H	0.751789	-0.548039	-0.000192
H88	H	0.731885	-0.434776	-0.042418
H89	H	0.731875	-0.434793	0.042047
H90	H	0.040545	-0.046440	-0.000308
H91	H	0.938508	-0.442594	-0.000296
H92	H	0.907050	-0.229377	-0.000225
H93	H	0.832158	-0.038983	0.430655
C94	C	0.181207	-0.074386	-0.000240
H95	H	0.145856	-0.141026	-0.000252
H96	H	0.209307	-0.078264	0.041994
H97	H	0.209351	-0.078249	-0.042471
H98	H	0.398967	0.009556	-0.077190
H99	H	0.907613	0.011485	0.195510
C100	C	0.629551	-0.062947	-0.000145
H101	H	0.678835	-0.045880	-0.000133
H102	H	0.615387	-0.108662	-0.042375
H103	H	0.615343	-0.108662	0.042091
C104	C	0.722895	-0.248333	-0.000184
H105	H	0.720346	-0.334833	-0.000180
H106	H	0.700442	-0.221570	-0.042407
H107	H	0.700432	-0.221587	0.042058
H108	H	0.832167	-0.038976	0.568947
H109	H	0.907657	0.011491	0.804009
C110	C	0.763245	0.335101	0.814959
H111	H	0.768537	0.323271	0.865813
H112	H	0.715269	0.322139	0.802492
H113	H	0.780905	0.416007	0.802454
H114	H	0.282418	0.313397	0.076744
C115	C	0.850591	0.393509	0.579808
H116	H	0.849931	0.377691	0.630666
H117	H	0.812212	0.436940	0.567336
H118	H	0.892835	0.440871	0.567289
C119	C	0.763243	0.335104	0.654888
H120	H	0.768519	0.323258	0.604029
H121	H	0.780905	0.416002	0.667371
H122	H	0.715265	0.322144	0.667402
C123	C	0.204468	0.389797	-0.000257
H124	H	0.175714	0.454800	-0.000257
H125	H	0.233073	0.395120	-0.042482
H126	H	0.233028	0.395110	0.041983
C127	C	0.763182	0.335072	0.184678
H128	H	0.741216	0.384316	0.218302
H129	H	0.728832	0.291578	0.154958
H130	H	0.794468	0.385446	0.154927
