data_functionalizedCrystal
_audit_creation_method	'MofGen! by Chris Wilmer'
_symmetry_space_group_name_H-M	'P1'
_symmetry_Int_Tables_number	1
_symmetry_cell_setting	triclinic
loop_
_symmetry_equiv_pos_as_xyz
  x,y,z
_cell_length_a	11.026607
_cell_length_b	11.792241
_cell_length_c	10.065875
_cell_angle_alpha	98.849501
_cell_angle_beta	79.302338
_cell_angle_gamma	96.389716
loop_
_atom_site_label
_atom_site_type_symbol
_atom_site_fract_x
_atom_site_fract_y
_atom_site_fract_z
O1	O	1.630965	0.462836	-0.113504
O2	O	1.277303	0.408644	-0.113505
O3	O	1.462715	0.272275	-0.113495
O4	O	1.445553	0.599205	-0.113514
O5	O	1.427360	0.298412	0.113492
O6	O	1.241948	0.434781	0.113482
O7	O	1.595611	0.488973	0.113483
Zn8	Zn	1.413166	0.466027	0.149522
Zn9	Zn	1.459747	0.431590	-0.149543
O10	O	1.410198	0.625342	0.113473
C11	C	1.214349	0.411715	-0.000011
C12	C	1.079439	0.381912	-0.000011
C13	C	1.006175	0.464202	-0.000017
C14	C	0.866738	0.433401	-0.000017
C15	C	1.443960	0.242838	-0.000002
C16	C	1.440732	0.116183	-0.000003
C17	C	1.434802	-0.115710	-0.000026
C18	C	1.438097	0.013332	-0.000013
C19	C	1.658565	0.485901	-0.000014
C20	C	1.793477	0.515703	-0.000023
C21	C	1.428954	0.654778	-0.000023
C22	C	1.432183	0.781432	-0.000031
N23	N	1.381384	0.489530	0.353626
N24	N	1.491539	0.408079	-0.353647
C25	C	1.448682	0.439759	0.421408
C26	C	1.424231	0.457858	0.578574
H27	H	1.046680	0.557456	-0.000015
C28	C	1.280320	0.564210	0.431132
C29	C	1.222951	0.606596	0.338140
C30	C	1.129831	0.675383	0.409484
H31	H	1.315725	0.626839	0.486872
H32	H	1.220646	0.519476	0.486856
H33	H	1.282615	0.651328	0.282439
H34	H	1.187520	0.543993	0.282397
H35	H	1.070157	0.630649	0.465208
H36	H	1.165247	0.738005	0.465221
H37	H	1.090888	0.704142	0.346400
C38	C	1.592572	0.333455	0.568617
C39	C	1.706936	0.379858	0.603075
C40	C	1.799984	0.311118	0.531431
H41	H	1.595621	0.331231	0.473329
H42	H	1.575073	0.257570	0.591955
H43	H	1.724431	0.455723	0.579727
H44	H	1.703929	0.382080	0.698350
H45	H	1.782485	0.235233	0.554770
H46	H	1.803021	0.308898	0.436147
H47	H	1.877588	0.342586	0.554810
C48	C	0.812525	0.309107	-0.000082
C49	C	0.685010	0.303262	-0.000117
C50	C	0.635030	0.188782	-0.000196
H51	H	0.826455	0.281329	0.079052
H52	H	0.851180	0.263194	-0.079269
H53	H	0.646367	0.349159	0.079062
H54	H	0.671046	0.331016	-0.079245
H55	H	0.673684	0.142869	-0.079383
H56	H	0.648968	0.161014	0.078939
H57	H	0.548509	0.184799	-0.000232
C58	C	0.847714	0.639979	-0.000126
C59	C	0.975241	0.645819	-0.000171
C60	C	1.025250	0.760276	-0.000297
H61	H	0.809140	0.685995	0.078995
H62	H	0.833721	0.667638	-0.079326
H63	H	0.989224	0.618175	0.079021
H64	H	1.013848	0.599828	-0.079286
H65	H	1.011257	0.787935	-0.079497
H66	H	0.986667	0.806282	0.078825
H67	H	1.111783	0.764252	-0.000340
C68	C	1.025643	0.257492	-0.000219
C69	C	1.082934	0.190120	-0.116979
C70	C	1.033426	0.075494	-0.117209
H71	H	0.939116	0.253147	-0.000290
H72	H	1.039746	0.229773	0.078897
H73	H	1.068821	0.217830	-0.196075
H74	H	1.169458	0.194430	-0.116934
H75	H	1.047529	0.047775	-0.038093
H76	H	0.946900	0.071161	-0.117276
H77	H	1.072298	0.029766	-0.196422
H78	H	1.524395	0.383742	0.363088
H79	H	1.348504	0.513868	0.636891
