data_functionalizedCrystal
_audit_creation_method	'MofGen! by Chris Wilmer'
_symmetry_space_group_name_H-M	'P1'
_symmetry_Int_Tables_number	1
_symmetry_cell_setting	triclinic
loop_
_symmetry_equiv_pos_as_xyz
  x,y,z
_cell_length_a	18.215407
_cell_length_b	19.805405
_cell_length_c	19.805399
_cell_angle_alpha	90.030709
_cell_angle_beta	90.016085
_cell_angle_gamma	90.026858
loop_
_atom_site_label
_atom_site_type_symbol
_atom_site_fract_x
_atom_site_fract_y
_atom_site_fract_z
Zn1	Zn	1.125037	-0.269461	0.382697
Zn2	Zn	1.625037	0.230539	0.882697
Zn3	Zn	1.124950	-0.382653	0.269505
Zn4	Zn	1.624950	0.117347	0.769505
Zn5	Zn	1.001978	-0.269484	0.269523
Zn6	Zn	1.501978	0.230516	0.769523
Zn7	Zn	1.001932	-0.382615	0.382654
Zn8	Zn	1.501932	0.117385	0.882654
O9	O	1.063474	-0.326053	0.326095
O10	O	1.563474	0.173947	0.826095
O11	O	1.228010	-0.284483	0.367693
O12	O	1.728010	0.215517	0.867693
O13	O	1.108620	-0.367666	0.174791
O14	O	1.608620	0.132334	0.674791
O15	O	1.018357	-0.174764	0.284562
O16	O	1.518357	0.325236	0.784562
O17	O	1.227946	-0.367644	0.284531
O18	O	1.727946	0.132356	0.784531
O19	O	1.108768	-0.174748	0.367710
O20	O	1.608768	0.325252	0.867710
O21	O	1.018273	-0.284521	0.174804
O22	O	1.518273	0.215479	0.674804
O23	O	0.898987	-0.284484	0.284520
O24	O	1.398987	0.215516	0.784520
O25	O	1.018280	-0.367579	0.477376
O26	O	1.518280	0.132421	0.977376
O27	O	0.898954	-0.367601	0.367636
O28	O	1.398954	0.132399	0.867636
O29	O	1.108724	-0.284446	0.477408
O30	O	1.608724	0.215554	0.977408
O31	O	1.108576	-0.477364	0.284489
O32	O	1.608576	0.022636	0.784489
O33	O	1.018195	-0.477336	0.367619
O34	O	1.518195	0.022664	0.867619
C35	C	0.872268	-0.326042	0.326075
C36	C	1.372268	0.173958	0.826075
C37	C	0.790469	-0.326053	0.326083
C38	C	1.290469	0.173947	0.826083
C39	C	1.063391	-0.501909	0.326062
C40	C	1.563391	-0.001909	0.826062
C41	C	1.063423	-0.577141	0.326071
C42	C	1.563423	-0.077141	0.826071
C43	C	0.602277	-0.369400	0.369308
C44	C	1.102277	0.130600	0.869308
C45	C	0.525418	-0.369402	0.369316
C46	C	1.025418	0.130598	0.869316
C47	C	0.525423	-0.282719	0.282897
C48	C	1.025423	0.217281	0.782897
C49	C	0.602281	-0.282714	0.282892
C50	C	1.102281	0.217286	0.782892
C51	C	0.640706	-0.326058	0.326097
C52	C	1.140706	0.173942	0.826097
C53	C	0.486989	-0.326065	0.326110
C54	C	0.986989	0.173935	0.826110
C55	C	0.403656	-0.326067	0.326119
C56	C	0.903656	0.173933	0.826119
C57	C	0.724044	-0.326055	0.326089
C58	C	1.224044	0.173945	0.826089
C59	C	1.110530	-0.612477	0.282831
C60	C	1.610530	-0.112477	0.782831
C61	C	1.110562	-0.683166	0.282845
C62	C	1.610562	-0.183166	0.782845
C63	C	1.063482	-0.718517	0.326098
C64	C	1.563482	-0.218517	0.826098
C65	C	1.016372	-0.683176	0.369343
C66	C	1.516372	-0.183176	0.869343
C67	C	1.016345	-0.612488	0.369331
C68	C	1.516345	-0.112488	0.869331
C69	C	1.016481	-0.968249	0.369393
C70	C	1.516481	-0.468249	0.869393
C71	C	1.016510	-1.038941	0.369400
C72	C	1.516510	-0.538941	0.869400
C73	C	1.110697	-1.038926	0.282908
C74	C	1.610697	-0.538926	0.782908
C75	C	1.110670	-0.968239	0.282896
C76	C	1.610670	-0.468239	0.782896
C77	C	1.063564	-0.932904	0.326143
C78	C	1.563564	-0.432904	0.826143
C79	C	1.063532	-0.856256	0.326127
C80	C	1.563532	-0.356256	0.826127
C81	C	1.063510	-0.795164	0.326111
C82	C	1.563510	-0.295164	0.826111
C83	C	1.255427	-0.326065	0.326115
C84	C	1.755427	0.173935	0.826115
C85	C	1.337226	-0.326070	0.326123
C86	C	1.837226	0.173930	0.826123
C87	C	1.063506	-0.326006	0.502638
C88	C	1.563506	0.173994	1.002638
C89	C	1.063520	-0.325986	0.577870
C90	C	1.563520	0.174014	1.077870
C91	C	1.063577	-0.149510	0.326143
C92	C	1.563577	0.350490	0.826143
C93	C	1.063621	-0.074278	0.326163
C94	C	1.563621	0.425722	0.826163
C95	C	1.063484	-0.326051	0.150239
C96	C	1.563484	0.173949	0.650239
C97	C	1.063613	-0.325880	0.075007
C98	C	1.563613	0.174120	0.575007
C99	C	1.016490	-0.282689	0.613220
C100	C	1.516490	0.217311	1.113220
C101	C	1.016500	-0.282675	0.683909
C102	C	1.516500	0.217325	1.183909
C103	C	1.063545	-0.325957	0.719245
C104	C	1.563545	0.174043	1.219245
C105	C	1.110577	-0.369259	0.683890
C106	C	1.610577	0.130741	1.183890
C107	C	1.110563	-0.369275	0.613203
C108	C	1.610563	0.130725	1.113203
C109	C	1.110636	-0.369196	0.968963
C110	C	1.610636	0.130804	1.468963
C111	C	1.110648	-0.369175	1.039656
C112	C	1.610648	0.130825	1.539656
C113	C	1.016573	-0.282596	1.039669
C114	C	1.516573	0.217404	1.539669
C115	C	1.016558	-0.282612	0.968982
C116	C	1.516558	0.217388	1.468982
C117	C	1.063588	-0.325917	0.933633
C118	C	1.563588	0.174083	1.433633
C119	C	1.063575	-0.325931	0.856984
C120	C	1.563575	0.174069	1.356984
C121	C	1.063562	-0.325939	0.795893
C122	C	1.563562	0.174061	1.295893
H123	H	0.494133	-0.404694	0.404504
H124	H	0.994133	0.095306	0.904504
H125	H	0.978200	-0.247421	0.712688
H126	H	1.478200	0.252579	1.212688
C127	C	0.407608	-0.244236	0.244532
C128	C	0.907608	0.255764	0.744532
C129	C	0.483184	-0.235079	0.235406
C130	C	0.983184	0.264921	0.735406
H131	H	0.381534	-0.214827	0.215208
H132	H	0.881534	0.285173	0.715208
H133	H	0.395038	-0.234389	0.290022
H134	H	0.895038	0.265611	0.790022
H135	H	0.394996	-0.289704	0.234542
H136	H	0.894996	0.210296	0.734542
H137	H	0.495797	-0.189613	0.245400
H138	H	0.995797	0.310387	0.745400
H139	H	0.495759	-0.244922	0.189905
H140	H	0.995759	0.255078	0.689905
H141	H	1.149056	-1.067704	0.247696
H142	H	1.649056	-0.567704	0.747696
H143	H	0.977987	-0.583718	0.404542
H144	H	1.477987	-0.083718	0.904542
C145	C	0.923364	-0.975374	0.454873
C146	C	1.423364	-0.475374	0.954873
C147	C	0.964688	-0.929415	0.416916
C148	C	1.464688	-0.429415	0.916916
H149	H	0.891383	-0.951396	0.484207
H150	H	1.391383	-0.451396	0.984207
H151	H	0.955418	-1.002897	0.480800
H152	H	1.455418	-0.502897	0.980800
H153	H	0.895257	-1.002991	0.425351
H154	H	1.395257	-0.502991	0.925351
H155	H	0.992800	-0.901801	0.446438
H156	H	1.492800	-0.401801	0.946438
H157	H	0.932630	-0.901880	0.390987
H158	H	1.432630	-0.401880	0.890987
C159	C	1.006298	-0.191654	0.533758
C160	C	1.506298	0.308346	1.033758
C161	C	0.964775	-0.235111	0.574383
C162	C	1.464775	0.264889	1.074383
H163	H	0.974368	-0.162280	0.509787
H164	H	1.474368	0.337720	1.009787
H165	H	1.034298	-0.217441	0.502588
H166	H	1.534298	0.282559	1.002588
H167	H	1.038381	-0.165762	0.561352
H168	H	1.538381	0.334238	1.061352
H169	H	0.932696	-0.261006	0.546788
H170	H	1.432696	0.238994	1.046788
H171	H	0.936763	-0.209321	0.605557
H172	H	1.436763	0.290679	1.105557
C173	C	0.594572	-0.197033	0.197462
C174	C	1.094572	0.302967	0.697462
C175	C	0.644527	-0.235071	0.235389
C176	C	1.144527	0.264929	0.735389
H177	H	0.620655	-0.167625	0.168135
H178	H	1.120655	0.332375	0.668135
H179	H	0.564619	-0.171181	0.226998
H180	H	1.064619	0.328819	0.726998
H181	H	0.564571	-0.226499	0.171521
H182	H	1.064571	0.273501	0.671521
H183	H	0.674525	-0.205604	0.261333
H184	H	1.174525	0.294396	0.761333
H185	H	0.674493	-0.260924	0.205849
H186	H	1.174493	0.239076	0.705849
H187	H	0.978173	-1.067722	0.404627
H188	H	1.478173	-0.567722	0.904627
C189	C	1.152611	-0.791517	0.244627
C190	C	1.652611	-0.291517	0.744627
C191	C	1.162466	-0.722008	0.235429
C192	C	1.662466	-0.222008	0.735429
H193	H	1.184698	-0.815495	0.215390
H194	H	1.684698	-0.315495	0.715390
H195	H	1.103225	-0.803205	0.234573
H196	H	1.603225	-0.303205	0.734573
H197	H	1.163240	-0.802992	0.290156
H198	H	1.663240	-0.302992	0.790156
H199	H	1.151833	-0.710532	0.189901
H200	H	1.651833	-0.210532	0.689901
H201	H	1.211864	-0.710315	0.245478
H202	H	1.711864	-0.210315	0.745478
C203	C	1.203631	-0.454776	1.032546
C204	C	1.703631	0.045224	1.532546
C205	C	1.162358	-0.416759	1.078499
C206	C	1.662358	0.083241	1.578499
H207	H	1.235549	-0.484152	1.056528
H208	H	1.735549	0.015848	1.556528
H209	H	1.231797	-0.425300	1.004987
H210	H	1.731797	0.074700	1.504987
H211	H	1.171536	-0.480667	1.004964
H212	H	1.671536	0.019333	1.504964
H213	H	1.194453	-0.390863	1.106078
H214	H	1.694453	0.109137	1.606078
H215	H	1.134190	-0.446239	1.106069
H216	H	1.634190	0.053761	1.606069
C217	C	0.625971	-0.402504	0.483860
C218	C	1.125971	0.097496	0.983860
C219	C	0.644516	-0.417035	0.416804
C220	C	1.144516	0.082965	0.916804
H221	H	0.652051	-0.431909	0.513183
H222	H	1.152051	0.068091	1.013183
H223	H	0.574704	-0.408712	0.490042
H224	H	1.074704	0.091288	0.990042
H225	H	0.638594	-0.357036	0.493834
H226	H	1.138594	0.142964	0.993834
H227	H	0.631888	-0.462502	0.406828
H228	H	1.131888	0.037498	0.906828
H229	H	0.695795	-0.410833	0.410619
H230	H	1.195795	0.089167	0.910619
C231	C	1.146336	-0.483894	0.591410
C232	C	1.646336	0.016106	1.091410
C233	C	1.162259	-0.416870	0.574342
C234	C	1.662259	0.083130	1.074342
H235	H	1.178253	-0.513278	0.567422
H236	H	1.678253	-0.013278	1.067422
H237	H	1.096886	-0.493791	0.579817
H238	H	1.596886	0.006209	1.079817
H239	H	1.153081	-0.490069	0.638567
H240	H	1.653081	0.009931	1.138567
H241	H	1.155508	-0.410693	0.527186
H242	H	1.655508	0.089307	1.027186
H243	H	1.211721	-0.406969	0.585931
H244	H	1.711721	0.093031	1.085931
C245	C	1.235177	-0.402237	0.705651
C246	C	1.735177	0.097763	1.205651
C247	C	1.162291	-0.416836	0.722730
C248	C	1.662291	0.083164	1.222730
H249	H	1.267103	-0.431613	0.729626
H250	H	1.767103	0.068387	1.229626
H251	H	1.245972	-0.356764	0.717253
H252	H	1.745972	0.143236	1.217253
H253	H	1.241889	-0.408446	0.658492
H254	H	1.741889	0.091554	1.158492
H255	H	1.155578	-0.410622	0.769889
H256	H	1.655578	0.089378	1.269889
H257	H	1.151493	-0.462320	0.711132
H258	H	1.651493	0.037680	1.211132
C259	C	1.152386	-0.407676	0.860605
C260	C	1.652386	0.092324	1.360605
C261	C	1.162332	-0.416792	0.930113
C262	C	1.662332	0.083208	1.430113
H263	H	1.184300	-0.437065	0.836620
H264	H	1.684300	0.062935	1.336620
H265	H	1.163183	-0.362209	0.849036
H266	H	1.663183	0.137791	1.349036
H267	H	1.102928	-0.417582	0.849021
H268	H	1.602928	0.082418	1.349021
H269	H	1.211788	-0.406881	0.941698
H270	H	1.711788	0.093119	1.441698
H271	H	1.151540	-0.462270	0.941687
H272	H	1.651540	0.037730	1.441687
C273	C	1.203638	-0.619570	0.197337
C274	C	1.703638	-0.119570	0.697337
C275	C	1.162283	-0.573623	0.235285
C276	C	1.662283	-0.073623	0.735285
H277	H	1.235592	-0.595583	0.167988
H278	H	1.735592	-0.095583	0.667988
H279	H	1.171603	-0.647182	0.171426
H280	H	1.671603	-0.147182	0.671426
H281	H	1.231777	-0.647099	0.226864
H282	H	1.731777	-0.147099	0.726864
H283	H	1.134140	-0.546097	0.205758
H284	H	1.634140	-0.046097	0.705758
H285	H	1.194322	-0.546000	0.261198
H286	H	1.694322	-0.046000	0.761198
C287	C	0.974585	-0.791539	0.407762
C288	C	1.474585	-0.291539	0.907762
C289	C	0.964619	-0.722032	0.416885
C290	C	1.464619	-0.222032	0.916885
H291	H	0.942628	-0.815525	0.437110
H292	H	1.442628	-0.315525	0.937110
H293	H	1.024022	-0.803077	0.417715
H294	H	1.524022	-0.303077	0.917715
H295	H	0.963850	-0.803155	0.362275
H296	H	1.463850	-0.303155	0.862275
H297	H	0.975358	-0.710415	0.462372
H298	H	1.475358	-0.210415	0.962372
H299	H	0.915170	-0.710489	0.406938
H300	H	1.415170	-0.210489	0.906938
C301	C	1.146597	-0.946529	0.168310
C302	C	1.646597	-0.446529	0.668310
C303	C	1.162424	-0.929384	0.235352
C304	C	1.662424	-0.429384	0.735352
H305	H	1.178553	-0.922545	0.138961
H306	H	1.678553	-0.422545	0.638961
H307	H	1.097160	-0.934984	0.158363
H308	H	1.597160	-0.434984	0.658363
H309	H	1.153356	-0.993686	0.162137
H310	H	1.653356	-0.493686	0.662137
H311	H	1.155659	-0.882227	0.241526
H312	H	1.655659	-0.382227	0.741526
H313	H	1.211873	-0.940924	0.245302
H314	H	1.711873	-0.440924	0.745302
H315	H	0.978252	-0.247366	0.940214
H316	H	1.478252	0.252634	1.440214
C317	C	0.974804	-0.244129	1.148034
C318	C	1.474804	0.255871	1.648034
C319	C	0.964866	-0.235002	1.078527
C320	C	1.464866	0.264998	1.578527
H321	H	0.942880	-0.214749	1.172021
H322	H	1.442880	0.285251	1.672021
H323	H	1.024252	-0.234222	1.159626
H324	H	1.524252	0.265778	1.659626
H325	H	0.964007	-0.289605	1.159596
H326	H	1.464007	0.210395	1.659596
H327	H	0.975668	-0.189527	1.066965
H328	H	1.475668	0.310473	1.566965
H329	H	0.915407	-0.244904	1.066931
H330	H	1.415407	0.255096	1.566931
