data_functionalizedCrystal
_audit_creation_method	'MofGen! by Chris Wilmer'
_symmetry_space_group_name_H-M	'P1'
_symmetry_Int_Tables_number	1
_symmetry_cell_setting	triclinic
loop_
_symmetry_equiv_pos_as_xyz
  x,y,z
_cell_length_a	33.359672
_cell_length_b	33.359674
_cell_length_c	33.359725
_cell_angle_alpha	90.002336
_cell_angle_beta	59.997790
_cell_angle_gamma	119.999824
loop_
_atom_site_label
_atom_site_type_symbol
_atom_site_fract_x
_atom_site_fract_y
_atom_site_fract_z
O1	O	0.353587	-0.274991	-0.011927
O2	O	0.271501	-0.216698	0.011867
O3	O	0.353584	-0.216698	-0.070218
O4	O	0.271504	-0.274991	0.070158
O5	O	0.286913	-0.283369	-0.070217
O6	O	0.204830	-0.283369	0.011868
O7	O	0.286915	-0.341662	-0.011926
Cu8	Cu	0.239785	-0.318603	-0.000029
Cu9	Cu	0.318632	-0.239757	-0.000030
O10	O	0.204833	-0.341662	0.070158
C11	C	0.117512	-0.073731	0.028809
C12	C	0.068931	-0.098077	0.029147
C13	C	0.117509	-0.146322	0.028814
C14	C	0.068928	-0.170558	0.029151
C15	C	0.044923	-0.146320	0.028809
C16	C	0.141407	-0.098079	0.029151
C17	C	0.196155	0.004722	0.022919
C18	C	0.222880	0.054297	0.019200
C19	C	0.199944	0.079161	0.017331
C20	C	0.228920	0.132913	0.013296
C21	C	0.150277	0.054455	0.019187
C22	C	0.123552	0.004883	0.022908
C23	C	0.146493	-0.019981	0.024772
C24	C	-0.027638	-0.146130	0.022914
C25	C	-0.073493	-0.168979	0.019194
C26	C	-0.096492	-0.216782	0.017330
C27	C	-0.146209	-0.241558	0.013295
C28	C	-0.073644	-0.241744	0.019190
C29	C	-0.027793	-0.218897	0.022912
C30	C	-0.004790	-0.171090	0.024771
C31	C	0.196149	-0.146136	0.022928
C32	C	0.222876	-0.168985	0.019206
C33	C	0.199936	-0.216787	0.017342
C34	C	0.228910	-0.241565	0.013312
C35	C	0.150274	-0.241745	0.019196
C36	C	0.123547	-0.218899	0.022915
C37	C	0.146487	-0.171094	0.024781
O38	O	-0.279069	-0.341655	-0.011947
O39	O	-0.162484	-0.283360	0.011844
O40	O	-0.162479	-0.283364	-0.070239
O41	O	-0.279074	-0.341650	0.070137
O42	O	-0.162476	-0.216692	-0.070243
O43	O	-0.162482	-0.216688	0.011840
O44	O	-0.279066	-0.274982	-0.011951
Cu45	Cu	-0.220774	-0.239747	-0.000056
Cu46	Cu	-0.220777	-0.318595	-0.000051
O47	O	-0.279072	-0.274978	0.070133
C48	C	0.440913	-0.146329	-0.367177
C49	C	0.489495	-0.098086	-0.391412
C50	C	0.440913	-0.146329	-0.294588
C51	C	0.489495	-0.098086	-0.318933
C52	C	0.513502	-0.073740	-0.367176
C53	C	0.417016	-0.170565	-0.318934
C54	C	0.362270	-0.219081	-0.366989
C55	C	0.335546	-0.242087	-0.389839
C56	C	0.358484	-0.217283	-0.437640
C57	C	0.329509	-0.242225	-0.462417
C58	C	0.408152	-0.169473	-0.462601
C59	C	0.434876	-0.146469	-0.439753
C60	C	0.411933	-0.171273	-0.391947
C61	C	0.586065	0.004714	-0.439927
C62	C	0.631921	0.054287	-0.462933
C63	C	0.654919	0.079151	-0.438129
C64	C	0.704637	0.132902	-0.463070
C65	C	0.632069	0.054444	-0.390319
C66	C	0.586218	0.004872	-0.367315
C67	C	0.563216	-0.019991	-0.392119
C68	C	0.362270	-0.219081	-0.216134
C69	C	0.335542	-0.242085	-0.166558
C70	C	0.358480	-0.217281	-0.141694
C71	C	0.329505	-0.242223	-0.087942
C72	C	0.408143	-0.169473	-0.166398
C73	C	0.434872	-0.146467	-0.215972
C74	C	0.411933	-0.171273	-0.240838
C75	C	0.513517	-0.412027	-0.028902
C76	C	0.489511	-0.460269	-0.029242
C77	C	0.440925	-0.412028	-0.028898
C78	C	0.417029	-0.460271	-0.029238
C79	C	0.440928	-0.484616	-0.028901
C80	C	0.489508	-0.387792	-0.029238
C81	C	0.586081	-0.339274	-0.023012
C82	C	0.631938	-0.316267	-0.019295
C83	C	0.654938	-0.341070	-0.017432
C84	C	0.704657	-0.316127	-0.013400
C85	C	0.632089	-0.388880	-0.019290
C86	C	0.586236	-0.411885	-0.023009
C87	C	0.563232	-0.387082	-0.024867
C88	C	0.435229	-0.563069	-0.023015
C89	C	0.408662	-0.612643	-0.019298
C90	C	0.358994	-0.637507	-0.017431
C91	C	0.330184	-0.691258	-0.013399
C92	C	0.335888	-0.612801	-0.019285
C93	C	0.362454	-0.563229	-0.023004
C94	C	0.412123	-0.538365	-0.024867
C95	C	0.435220	-0.339277	-0.023003
C96	C	0.408646	-0.316273	-0.019276
C97	C	0.358978	-0.341078	-0.017410
C98	C	0.330165	-0.316137	-0.013373
C99	C	0.335875	-0.388886	-0.019265
C100	C	0.362444	-0.411892	-0.022990
C101	C	0.412117	-0.387085	-0.024859
O102	O	0.286933	0.291016	-0.011949
O103	O	0.204848	0.150641	0.011842
O104	O	0.286934	0.232718	-0.070242
O105	O	0.204846	0.208939	0.070135
O106	O	0.353602	0.232716	-0.070238
O107	O	0.271516	0.150639	0.011846
O108	O	0.353601	0.291014	-0.011945
Cu109	Cu	0.318646	0.220827	-0.000049
Cu110	Cu	0.239803	0.220829	-0.000054
O111	O	0.271514	0.208937	0.070139
O112	O	0.837498	0.291002	-0.495832
O113	O	0.720911	0.150628	-0.437542
O114	O	0.720908	0.232707	-0.437536
O115	O	0.837501	0.208922	-0.495838
O116	O	0.720909	0.232709	-0.504208
O117	O	0.720912	0.150629	-0.504214
O118	O	0.837499	0.291004	-0.562504
Cu119	Cu	0.779206	0.220817	-0.539447
Cu120	Cu	0.779204	0.220815	-0.460599
O121	O	0.837502	0.208924	-0.562510
O122	O	0.271499	-0.274996	-0.562510
O123	O	0.353583	-0.216699	-0.504219
O124	O	0.271499	-0.216701	-0.504213
O125	O	0.353584	-0.274994	-0.562515
O126	O	0.204829	-0.283371	-0.437542
O127	O	0.286913	-0.283369	-0.437547
O128	O	0.204829	-0.341666	-0.495839
Cu129	Cu	0.239784	-0.318605	-0.460605
Cu130	Cu	0.318629	-0.239760	-0.539452
O131	O	0.286914	-0.341664	-0.495844
C132	C	0.044913	-0.484622	0.367117
C133	C	0.068919	-0.460277	0.391353
C134	C	0.117502	-0.412033	0.294528
C135	C	0.141398	-0.387798	0.318875
C136	C	0.117501	-0.412034	0.367118
C137	C	0.068920	-0.460276	0.318874
C138	C	-0.027650	-0.563076	0.366926
C139	C	-0.073506	-0.612649	0.389775
C140	C	-0.096504	-0.637513	0.437576
C141	C	-0.146222	-0.691265	0.462352
C142	C	-0.073655	-0.612807	0.462538
C143	C	-0.027803	-0.563235	0.439692
C144	C	-0.004801	-0.538372	0.391885
C145	C	0.123202	-0.412223	0.439871
C146	C	0.149770	-0.389374	0.462878
C147	C	0.199437	-0.341572	0.438075
C148	C	0.228247	-0.316796	0.463017
C149	C	0.222541	-0.316611	0.390264
C150	C	0.195974	-0.339458	0.367259
C151	C	0.146307	-0.387264	0.392063
C152	C	0.123205	-0.412221	0.216073
C153	C	0.149777	-0.389373	0.166497
C154	C	0.199444	-0.341571	0.141635
C155	C	0.228255	-0.316795	0.087883
C156	C	0.222548	-0.316613	0.166340
C157	C	0.195980	-0.339459	0.215914
C158	C	0.146308	-0.387263	0.240779
C159	C	0.117538	-0.073747	-0.367204
C160	C	0.141435	-0.098094	-0.391438
C161	C	0.044944	-0.146333	-0.294613
C162	C	0.068952	-0.170570	-0.318957
C163	C	0.117536	-0.146337	-0.367200
C164	C	0.068953	-0.098090	-0.318960
C165	C	0.123241	0.004709	-0.367018
C166	C	0.149810	0.054282	-0.389869
C167	C	0.199480	0.079143	-0.437671
C168	C	0.228292	0.132895	-0.462450
C169	C	0.222584	0.054435	-0.462631
C170	C	0.196015	0.004864	-0.439782
C171	C	0.146346	-0.019997	-0.391975
C172	C	0.196182	-0.146152	-0.439951
C173	C	0.222906	-0.169003	-0.462956
C174	C	0.199966	-0.216805	-0.438150
C175	C	0.228941	-0.241583	-0.463090
C176	C	0.150296	-0.241763	-0.390340
C177	C	0.123571	-0.218914	-0.367337
C178	C	0.146516	-0.171108	-0.392143
C179	C	-0.027622	-0.146140	-0.216160
C180	C	-0.073477	-0.168985	-0.166583
C181	C	-0.096477	-0.216787	-0.141718
C182	C	-0.146198	-0.241561	-0.087966
C183	C	-0.073627	-0.241747	-0.166421
C184	C	-0.027772	-0.218904	-0.215995
C185	C	-0.004772	-0.171100	-0.240863
C186	C	-0.559087	-0.412008	0.367094
C187	C	-0.582986	-0.460250	0.391332
C188	C	-0.486495	-0.412011	0.294506
C189	C	-0.510504	-0.460253	0.318854
C190	C	-0.559088	-0.484598	0.367097
C191	C	-0.510503	-0.387774	0.318851
C192	C	-0.564788	-0.339255	0.366903
C193	C	-0.591356	-0.316247	0.389752
C194	C	-0.641026	-0.341049	0.437554
C195	C	-0.669837	-0.316106	0.462329
C196	C	-0.664132	-0.388859	0.462516
C197	C	-0.637563	-0.411865	0.439670
C198	C	-0.587894	-0.387063	0.391863
C199	C	-0.637735	-0.563049	0.439851
C200	C	-0.664460	-0.612623	0.462858
C201	C	-0.641521	-0.637487	0.438055
C202	C	-0.670498	-0.691239	0.462998
C203	C	-0.591851	-0.612783	0.390245
C204	C	-0.565125	-0.563211	0.367239
C205	C	-0.588069	-0.538347	0.392042
C206	C	-0.413927	-0.339261	0.216051
C207	C	-0.368073	-0.316259	0.166474
C208	C	-0.345074	-0.341064	0.141612
C209	C	-0.295353	-0.316124	0.087860
C210	C	-0.367925	-0.388872	0.166317
C211	C	-0.413780	-0.411877	0.215892
C212	C	-0.436778	-0.387069	0.240756
C213	C	0.513514	0.249625	-0.367189
C214	C	0.489508	0.249961	-0.391427
C215	C	0.440928	0.249639	-0.294605
C216	C	0.417032	0.249974	-0.318952
C217	C	0.440927	0.249627	-0.367194
C218	C	0.489508	0.249973	-0.318948
C219	C	0.586074	0.243733	-0.366995
C220	C	0.631928	0.240010	-0.389841
C221	C	0.654924	0.238136	-0.437642
C222	C	0.704640	0.234097	-0.462414
C223	C	0.632075	0.239990	-0.462604
C224	C	0.586226	0.243715	-0.439760
C225	C	0.563225	0.245584	-0.391956
C226	C	0.435225	0.243725	-0.439945
C227	C	0.408657	0.240003	-0.462953
C228	C	0.358992	0.238143	-0.438152
C229	C	0.330182	0.234106	-0.463094
C230	C	0.335889	0.240008	-0.390343
C231	C	0.362457	0.243732	-0.367337
C232	C	0.412122	0.245588	-0.392139
C233	C	0.435227	0.243760	-0.216150
C234	C	0.408656	0.240045	-0.166575
C235	C	0.358990	0.238184	-0.141715
C236	C	0.330181	0.234160	-0.087964
C237	C	0.335887	0.240036	-0.166421
C238	C	0.362454	0.243749	-0.215994
C239	C	0.412123	0.245612	-0.240856
O240	O	0.353642	0.290996	-0.562541
O241	O	0.271549	0.150620	-0.504250
O242	O	0.353625	0.232694	-0.504240
O243	O	0.271565	0.208921	-0.562552
O244	O	0.286949	0.232697	-0.437571
O245	O	0.204872	0.150622	-0.437582
O246	O	0.286966	0.290998	-0.495873
Cu247	Cu	0.239831	0.220810	-0.460640
Cu248	Cu	0.318683	0.220807	-0.539483
O249	O	0.204889	0.208924	-0.495884
C250	C	0.117521	0.192028	0.367091
C251	C	0.068941	0.191695	0.391324
C252	C	0.117521	0.192017	0.294502
C253	C	0.068941	0.191683	0.318845
C254	C	0.044935	0.192031	0.367086
C255	C	0.141416	0.191681	0.318849
C256	C	0.196161	0.197916	0.366906
C257	C	0.222885	0.201637	0.389757
C258	C	0.199948	0.203511	0.437557
C259	C	0.228922	0.207547	0.462335
C260	C	0.150282	0.201659	0.462515
C261	C	0.123559	0.197936	0.439666
C262	C	0.146500	0.196067	0.391862
C263	C	-0.027624	0.197935	0.439833
C264	C	-0.073477	0.201659	0.462836
C265	C	-0.096474	0.203521	0.438030
C266	C	-0.146190	0.207561	0.462968
C267	C	-0.073626	0.201656	0.390221
C268	C	-0.027777	0.197931	0.367220
C269	C	-0.004776	0.196072	0.392026
C270	C	0.196160	0.197893	0.216052
C271	C	0.222888	0.201609	0.166476
C272	C	0.199950	0.203471	0.141611
C273	C	0.228924	0.207496	0.087861
C274	C	0.150289	0.201622	0.166313
C275	C	0.123561	0.197908	0.215886
C276	C	0.146499	0.196044	0.240753
H277	H	0.048839	-0.078529	0.029694
C278	C	0.337040	0.245788	-0.243170
N279	N	0.317897	0.247323	-0.263640
C280	C	0.221393	-0.312006	0.314667
N281	N	0.240542	-0.291330	0.275051
H282	H	0.214842	0.196391	0.327982
C283	C	-0.438914	-0.464466	0.243068
N284	N	-0.457846	-0.504077	0.263537
H285	H	0.048850	0.191152	0.430962
H286	H	0.343638	-0.543116	-0.024511
H287	H	0.426818	-0.149274	-0.146148
C288	C	0.068940	-0.246365	-0.314745
N289	N	0.027793	-0.267041	-0.275132
H290	H	0.263311	-0.148659	0.017698
H291	H	0.131609	0.203185	0.501440
H292	H	-0.432649	-0.319058	0.236294
C293	C	-0.719096	-0.639793	0.515447
N294	N	-0.760249	-0.660261	0.555058
H295	H	0.567355	-0.319073	-0.024528
H296	H	0.130993	0.074394	-0.369545
C297	C	0.277228	0.081789	-0.515218
N298	N	0.318385	0.102391	-0.554826
H299	H	0.427472	0.238538	-0.146464
C300	C	0.068922	-0.022292	0.024947
N301	N	0.027775	-0.042761	0.026481
C302	C	0.657066	-0.263679	-0.017250
N303	N	0.675995	-0.224068	-0.015710
H304	H	0.214838	0.196372	0.236297
C305	C	-0.342939	-0.263670	0.139302
N306	N	-0.324008	-0.224059	0.118834
H307	H	0.377933	-0.479817	-0.029780
C308	C	0.125049	0.081813	0.017130
N309	N	0.106045	0.102417	0.015582
H310	H	0.263317	0.074407	0.017690
H311	H	0.475667	0.245239	-0.460144
C312	C	0.221419	-0.093567	-0.467244
N313	N	0.240430	-0.053959	-0.487801
H314	H	-0.009175	0.196412	0.328294
H315	H	0.263321	0.203112	0.146369
C316	C	0.194213	-0.071675	0.029897
N317	N	0.233984	-0.051790	0.030461
H318	H	-0.092091	-0.148651	0.017682
C319	C	-0.662972	-0.535699	0.467139
N320	N	-0.681983	-0.515099	0.487693
C321	C	-0.510147	-0.311967	0.314317
N322	N	-0.468992	-0.291414	0.274707
H323	H	-0.572540	-0.277321	0.369424
C324	C	0.124356	-0.416828	0.139327
N325	N	0.105210	-0.437508	0.118860
H326	H	0.567341	-0.015529	-0.460129
C327	C	0.516655	0.250697	-0.444977
N328	N	0.537103	0.251254	-0.485311
C329	C	0.657049	0.081459	-0.515522
N330	N	0.675978	0.101929	-0.555132
H331	H	0.214835	-0.015521	0.024441
C332	C	0.516652	0.250715	-0.292541
N333	N	0.537097	0.251276	-0.272652
H334	H	-0.008899	-0.107217	-0.236405
H335	H	-0.008914	-0.107205	0.024432
C336	C	0.277541	-0.141545	-0.515546
N337	N	0.318692	-0.120867	-0.555157
C338	C	-0.718776	-0.416142	0.515102
N339	N	-0.759934	-0.436693	0.554710
H340	H	-0.009205	-0.543119	0.460019
H341	H	0.295109	-0.281013	-0.369513
H342	H	0.509599	-0.348154	-0.029780
H343	H	0.214794	-0.319135	0.236028
H344	H	-0.573175	-0.633035	0.370052
H345	H	0.214828	-0.015253	-0.460105
C346	C	-0.098930	-0.294334	-0.139066
N347	N	-0.117991	-0.333943	-0.118462
H348	H	-0.092379	-0.280672	0.017674
H349	H	0.048837	-0.210196	0.029697
C350	C	0.277187	-0.264026	0.138988
N351	N	0.318340	-0.224416	0.118385
C352	C	0.041812	-0.071681	-0.292555
N353	N	0.021369	-0.051791	-0.272667
H354	H	0.131619	-0.280689	-0.370145
H355	H	0.426826	-0.149279	-0.501527
H356	H	0.475667	-0.319074	-0.024528
C357	C	0.516644	-0.486681	-0.029963
N358	N	0.537074	-0.506576	-0.030498
H359	H	0.083125	0.196403	0.235997
H360	H	0.082759	-0.451145	0.236317
H361	H	-0.009195	-0.239223	0.024430
C362	C	0.281244	-0.640159	-0.017228
N363	N	0.240087	-0.660763	-0.015678
H364	H	0.343629	-0.450820	-0.024499
H365	H	-0.008926	-0.542833	0.328001
H366	H	0.180492	-0.348160	0.299327
H367	H	0.475316	-0.107542	-0.460078
C368	C	0.434067	-0.263682	-0.017242
N369	N	0.453215	-0.224069	-0.015710
C370	C	0.657055	0.237969	-0.362381
N371	N	0.675984	0.236433	-0.341698
H372	H	0.083107	-0.239224	0.024428
C373	C	0.125036	-0.294335	0.017148
N374	N	0.106027	-0.333946	0.015609
C375	C	0.434070	0.237947	-0.515538
N376	N	0.453207	0.236396	-0.555146
C377	C	-0.098613	-0.141528	-0.139416
N378	N	-0.117548	-0.120847	-0.118951
H379	H	0.048825	-0.479823	0.299329
H380	H	0.048819	-0.479822	0.430995
H381	H	-0.092106	-0.632760	0.369448
C382	C	0.657372	0.081800	-0.363034
N383	N	0.676429	0.102403	-0.342482
C384	C	-0.342624	-0.416160	0.138966
N385	N	-0.323564	-0.436711	0.118363
H386	H	-0.656382	-0.450794	0.459992
H387	H	-0.008904	0.196415	0.460037
C388	C	0.657374	0.237923	-0.515188
N389	N	0.676425	0.236364	-0.554793
C390	C	0.277514	0.203675	0.362301
N391	N	0.318662	0.205209	0.341622
H392	H	0.083119	0.196425	0.459990
H393	H	0.180516	0.191143	0.299303
H394	H	0.509580	-0.078539	-0.299382
H395	H	0.343643	0.245246	-0.328410
C396	C	0.281264	0.237981	-0.363069
N397	N	0.240125	0.236461	-0.342528
C398	C	0.125054	0.203669	0.138958
N399	N	0.106048	0.205208	0.118354
C400	C	0.281250	0.237989	-0.139071
N401	N	0.240099	0.236450	-0.118470
C402	C	0.041806	0.190953	0.292433
N403	N	0.021369	0.190406	0.272540
H404	H	0.567616	-0.015243	-0.328388
H405	H	-0.524683	-0.543097	0.328313
H406	H	0.650823	-0.409073	-0.017773
H407	H	0.475671	0.245279	-0.236392
C408	C	-0.098605	0.203711	0.515423
N409	N	-0.117533	0.205257	0.555032
H410	H	0.567634	-0.450812	-0.024522
H411	H	-0.009167	-0.239229	-0.236107
H412	H	0.377938	0.250520	-0.299405
H413	H	0.475308	-0.107538	-0.236084
H414	H	0.214829	-0.107212	0.024450
C415	C	-0.098928	0.203707	0.362935
N416	N	-0.117983	0.205251	0.342381
H417	H	0.509586	-0.078542	-0.431051
C418	C	-0.098957	-0.640164	0.515124
N419	N	-0.118012	-0.660768	0.554732
H420	H	0.567351	0.245258	-0.328072
H421	H	0.262985	-0.277684	0.370072
H422	H	0.377914	-0.210198	-0.299385
H423	H	0.567625	0.245225	-0.460086
C424	C	0.434086	-0.639812	-0.017264
N425	N	0.453233	-0.660278	-0.015734
C426	C	0.280914	-0.294675	-0.139388
N427	N	0.239766	-0.334286	-0.118921
H428	H	0.343587	-0.239282	-0.328064
C429	C	0.337033	-0.246369	-0.243484
N430	N	0.318021	-0.266922	-0.264082
C431	C	0.068562	-0.464808	0.467161
N432	N	0.027407	-0.504416	0.487716
H433	H	-0.622080	-0.479793	0.430971
H434	H	0.295426	-0.409085	-0.017742
C435	C	0.124352	-0.416835	0.515467
N436	N	0.105211	-0.437516	0.555077
H437	H	0.048852	-0.210211	-0.299410
H438	H	0.082795	-0.015532	-0.328093
H439	H	0.180534	-0.078545	-0.431075
H440	H	0.475673	-0.542826	-0.024534
H441	H	-0.490409	-0.479799	0.299306
H442	H	-0.490437	-0.348148	0.299293
