data_functionalizedCrystal
_audit_creation_method	'MofGen! by Chris Wilmer'
_symmetry_space_group_name_H-M	'P1'
_symmetry_Int_Tables_number	1
_symmetry_cell_setting	triclinic
loop_
_symmetry_equiv_pos_as_xyz
  x,y,z
_cell_length_a	11.169417
_cell_length_b	19.805405
_cell_length_c	11.169409
_cell_angle_alpha	90.039857
_cell_angle_beta	90.019824
_cell_angle_gamma	90.027289
loop_
_atom_site_label
_atom_site_type_symbol
_atom_site_fract_x
_atom_site_fract_y
_atom_site_fract_z
Zn1	Zn	1.834828	-0.269393	0.678480
Zn2	Zn	2.334828	0.230607	1.178480
Zn3	Zn	1.834661	-0.382602	0.477771
Zn4	Zn	2.334661	0.117398	0.977771
Zn5	Zn	1.634114	-0.269434	0.477814
Zn6	Zn	2.134114	0.230566	0.977814
Zn7	Zn	1.634065	-0.382547	0.678415
Zn8	Zn	2.134065	0.117453	1.178415
O9	O	1.734417	-0.325994	0.578120
O10	O	2.234417	0.174006	1.078120
O11	O	2.002756	-0.284416	0.651864
O12	O	2.502756	0.215584	1.151864
O13	O	1.808009	-0.367630	0.309827
O14	O	2.308009	0.132370	0.809827
O15	O	1.660830	-0.174712	0.504478
O16	O	2.160830	0.325288	1.004478
O17	O	2.002633	-0.367590	0.504404
O18	O	2.502633	0.132410	1.004404
O19	O	1.808293	-0.174681	0.651907
O20	O	2.308293	0.325319	1.151907
O21	O	1.660668	-0.284486	0.309859
O22	O	2.160668	0.215514	0.809859
O23	O	1.466158	-0.284433	0.504416
O24	O	1.966158	0.215567	1.004416
O25	O	1.660746	-0.367496	0.846374
O26	O	2.160746	0.132504	1.346374
O27	O	1.466122	-0.367536	0.651797
O28	O	1.966122	0.132464	1.151797
O29	O	1.808246	-0.284362	0.846421
O30	O	2.308246	0.215638	1.346421
O31	O	1.807962	-0.477311	0.504341
O32	O	2.307962	0.022689	1.004341
O33	O	1.660585	-0.477271	0.651754
O34	O	2.160585	0.022729	1.151754
C35	C	1.422593	-0.325983	0.578105
C36	C	1.922593	0.174017	1.078105
C37	C	1.289193	-0.325995	0.578127
C38	C	1.789193	0.174005	1.078127
C39	C	1.734282	-0.501850	0.578062
C40	C	2.234282	-0.001850	1.078062
C41	C	1.734334	-0.577082	0.578077
C42	C	2.234334	-0.077082	1.078077
C43	C	1.811148	-0.612424	0.501400
C44	C	2.311148	-0.112424	1.001400
C45	C	1.811199	-0.683113	0.501426
C46	C	2.311199	-0.183113	1.001426
C47	C	1.734429	-0.718457	0.578125
C48	C	2.234429	-0.218457	1.078125
C49	C	1.657612	-0.683110	0.654811
C50	C	2.157612	-0.183110	1.154811
C51	C	1.657568	-0.612422	0.654790
C52	C	2.157568	-0.112422	1.154790
C53	C	1.657789	-0.968183	0.654900
C54	C	2.157789	-0.468183	1.154900
C55	C	1.657837	-1.038875	0.654913
C56	C	2.157837	-0.538875	1.154913
C57	C	1.811420	-1.038873	0.501537
C58	C	2.311420	-0.538873	1.001537
C59	C	1.811376	-0.968186	0.501515
C60	C	2.311376	-0.468186	1.001515
C61	C	1.734564	-0.932845	0.578205
C62	C	2.234564	-0.432845	1.078205
C63	C	1.734511	-0.856196	0.578177
C64	C	2.234511	-0.356196	1.078177
C65	C	1.734475	-0.795104	0.578148
C66	C	2.234475	-0.295104	1.078148
C67	C	2.047460	-0.326004	0.578136
C68	C	2.547460	0.173996	1.078136
C69	C	2.180860	-0.326009	0.578143
C70	C	2.680860	0.173991	1.078143
C71	C	1.734509	-0.325919	0.891163
C72	C	2.234509	0.174081	1.391163
C73	C	1.734549	-0.325886	1.024563
C74	C	2.234549	0.174114	1.524563
C75	C	1.734586	-0.149451	0.578205
C76	C	2.234586	0.350549	1.078205
C77	C	1.734657	-0.074219	0.578241
C78	C	2.234657	0.425781	1.078241
C79	C	1.734395	-0.326020	0.266295
C80	C	2.234395	0.173980	0.766295
C81	C	1.734588	-0.325861	0.132896
C82	C	2.234588	0.174139	0.632896
H83	H	1.873657	-0.583652	0.438938
H84	H	2.373657	-0.083652	0.938938
H85	H	1.595110	-0.711893	0.717266
H86	H	2.095110	-0.211893	1.217266
H87	H	1.873885	-0.939411	0.439056
H88	H	2.373885	-0.439411	0.939056
O89	O	1.885850	-0.717340	0.426825
O90	O	2.385850	-0.217340	0.926825
C91	C	1.953614	-0.670986	0.359139
C92	C	2.453614	-0.170986	0.859139
H93	H	1.904422	-0.620624	0.354929
H94	H	2.404422	-0.120624	0.854929
H95	H	1.966473	-0.691450	0.264595
H96	H	2.466473	-0.191450	0.764595
H97	H	2.044740	-0.663402	0.403159
H98	H	2.544740	-0.163402	0.903159
H99	H	1.873969	-1.067657	0.439096
H100	H	2.373969	-0.567657	0.939096
O101	O	1.583013	-0.578161	0.729442
O102	O	2.083013	-0.078161	1.229442
C103	C	1.609219	-0.595352	0.849086
C104	C	2.109219	-0.095352	1.349086
H105	H	1.655379	-0.646655	0.851624
H106	H	2.155379	-0.146655	1.351624
H107	H	1.522579	-0.597781	0.902836
H108	H	2.022579	-0.097781	1.402836
H109	H	1.670887	-0.555523	0.889546
H110	H	2.170887	-0.055523	1.389546
O111	O	1.583227	-1.073105	0.729543
O112	O	2.083227	-0.573105	1.229543
C113	C	1.515401	-1.026755	0.797210
C114	C	2.015401	-0.526755	1.297210
H115	H	1.564523	-0.976341	0.801394
H116	H	2.064523	-0.476341	1.301394
H117	H	1.502575	-1.047143	0.891764
H118	H	2.002575	-0.547143	1.391764
H119	H	1.424262	-1.019301	0.753190
H120	H	1.924262	-0.519301	1.253190
H121	H	1.595244	-0.939413	0.717341
H122	H	2.095244	-0.439413	1.217341
