data_functionalizedCrystal
_audit_creation_method	'MofGen! by Chris Wilmer'
_symmetry_space_group_name_H-M	'P1'
_symmetry_Int_Tables_number	1
_symmetry_cell_setting	triclinic
loop_
_symmetry_equiv_pos_as_xyz
  x,y,z
_cell_length_a	31.640171
_cell_length_b	19.851628
_cell_length_c	19.851628
_cell_angle_alpha	90.000001
_cell_angle_beta	59.998397
_cell_angle_gamma	59.982949
loop_
_atom_site_label
_atom_site_type_symbol
_atom_site_fract_x
_atom_site_fract_y
_atom_site_fract_z
Zr1	Zr	0.462826	0.648562	-0.088655
O2	O	0.551020	0.540941	-0.196240
O3	O	0.374624	0.681599	-0.055647
O4	O	0.462822	0.681534	-0.196213
O5	O	0.462828	0.541005	0.055176
O6	O	0.462828	0.792384	-0.196223
O7	O	0.462822	0.541006	-0.055674
O8	O	0.305058	0.792501	0.055224
O9	O	0.620599	0.540889	-0.196271
O10	O	0.410910	0.778360	-0.041609
O11	O	0.410910	0.695633	0.041124
O12	O	0.514752	0.695557	-0.124374
O13	O	0.514752	0.612830	-0.041641
Zr14	Zr	0.462846	0.825354	0.088123
Zr15	Zr	0.462836	0.825355	-0.088670
Zr16	Zr	0.462836	0.648560	0.088138
Zr17	Zr	0.573796	0.648478	-0.088704
Zr18	Zr	0.351876	0.825437	0.088172
O19	O	0.551049	0.792316	0.055116
O20	O	0.551034	0.792318	-0.196261
O21	O	0.551034	0.540939	0.055137
O22	O	0.374653	0.932975	0.195709
O23	O	0.374638	0.932977	-0.055668
O24	O	0.374638	0.681597	0.195730
O25	O	0.462844	0.932910	-0.055707
O26	O	0.462851	0.792381	0.195682
O27	O	0.462844	0.681531	0.195691
O28	O	0.462851	0.932909	0.055143
O29	O	0.620607	0.681416	-0.196283
O30	O	0.305066	0.792500	0.195751
O31	O	0.305074	0.933027	0.195739
O32	O	0.305066	0.933028	0.055212
O33	O	0.620607	0.540887	-0.055744
O34	O	0.620615	0.681415	-0.055756
O35	O	0.410920	0.778359	0.123843
O36	O	0.410920	0.861086	0.041110
O37	O	0.514762	0.778282	-0.041655
O38	O	0.514762	0.695555	0.041078
C39	C	0.324030	0.737062	-0.000205
C40	C	0.276920	0.737098	-0.000184
C41	C	0.462823	0.515816	-0.000247
C42	C	0.462819	0.440763	-0.000241
C43	C	-0.097639	0.798061	0.060809
C44	C	0.079314	0.798134	0.060855
O45	O	0.069587	0.850123	0.112787
N46	N	0.139782	0.737045	-0.000221
C47	C	0.156012	0.675936	-0.061316
O48	O	0.211504	0.623983	-0.113268
C49	C	-0.020941	0.675868	-0.061364
C50	C	-0.081409	0.736956	-0.000279
C51	C	-0.158104	0.859145	0.121888
C52	C	-0.202340	0.859124	0.121879
C53	C	-0.186110	0.798019	0.060791
C54	C	-0.125644	0.736935	-0.000289
C55	C	-0.004711	0.614763	-0.122461
C56	C	-0.048955	0.614752	-0.122469
C57	C	-0.109423	0.675841	-0.061385
C58	C	-0.153650	0.675808	-0.061387
N59	N	-0.214118	0.736897	-0.000311
C60	C	-0.230348	0.798002	0.060778
C61	C	0.248912	0.675976	-0.061285
C62	C	0.293150	0.675992	-0.061272
C63	C	0.216449	0.798191	0.060898
C64	C	0.172210	0.798171	0.060887
C65	C	0.188444	0.737065	-0.000209
C66	C	-0.323242	0.797952	0.060754
C67	C	-0.367478	0.797923	0.060741
C68	C	-0.290773	0.675727	-0.061431
C69	C	-0.246541	0.675753	-0.061416
C70	C	-0.262780	0.736873	-0.000320
O71	O	-0.143967	0.623852	-0.113297
O72	O	-0.285842	0.849959	0.112712
C73	C	-0.053404	0.798083	0.060819
C74	C	0.007061	0.736999	-0.000260
C75	C	0.023291	0.675894	-0.061349
C76	C	0.051299	0.737015	-0.000248
C77	C	0.035070	0.798121	0.060841
C78	C	-0.025399	0.859210	0.121917
C79	C	-0.069634	0.859188	0.121907
C80	C	0.083759	0.614804	-0.122425
C81	C	0.127992	0.614830	-0.122410
C82	C	0.111762	0.675936	-0.061321
C83	C	0.406213	0.259650	0.044865
C84	C	0.434502	0.282009	-0.032924
C85	C	0.462843	0.170580	-0.000276
C86	C	0.434524	0.281982	0.077520
C87	C	0.462828	0.303332	-0.000255
C88	C	0.491132	0.191950	-0.078111
C89	C	0.491146	0.191926	0.032389
C90	C	0.519477	0.214232	-0.045447
C91	C	0.462849	0.094106	-0.000287
C92	C	0.462826	0.379801	-0.000252
C93	C	0.601643	0.736853	-0.000327
C94	C	0.648752	0.736818	-0.000348
C95	C	0.462823	0.736960	-0.221407
C96	C	0.462819	0.736960	-0.296460
C97	C	0.462849	0.958099	-0.000284
C98	C	0.462853	1.033153	-0.000291
C99	C	0.406213	0.782109	-0.477595
C100	C	0.434509	0.814787	-0.455230
C101	C	0.462843	0.736958	-0.566643
C102	C	0.434518	0.704320	-0.455247
C103	C	0.462828	0.736960	-0.433891
C104	C	0.491139	0.769681	-0.545268
C105	C	0.491140	0.659171	-0.545282
C106	C	0.519477	0.691830	-0.522971
C107	C	0.462849	0.736958	-0.643117
C108	C	0.462826	0.736961	-0.357422
C109	C	0.462849	0.736956	0.220876
C110	C	0.462853	0.736955	0.295929
C111	C	0.324042	0.958204	-0.000223
C112	C	0.276937	1.033292	-0.000209
C113	C	0.324042	0.737060	0.220937
C114	C	0.276937	0.737095	0.296011
C115	C	0.324055	0.958202	0.220918
C116	C	0.276954	1.033290	0.295986
C117	C	0.601617	0.515714	-0.221450
C118	C	0.648718	0.440626	-0.296517
C119	C	0.601630	0.515712	-0.000308
C120	C	0.648735	0.440623	-0.000323
C121	C	0.601630	0.736855	-0.221468
C122	C	0.648735	0.736820	-0.296542
C123	C	0.254811	1.025373	-0.043388
C124	C	0.210557	1.095920	-0.043391
C125	C	0.188426	1.174386	-0.000209
C126	C	0.210557	1.182304	0.042971
C127	C	0.254813	1.111757	0.042969
C128	C	0.254821	0.780293	0.374453
C129	C	0.210567	0.780323	0.444999
C130	C	0.188426	0.737159	0.437103
C131	C	0.210547	0.693955	0.358653
C132	C	0.254803	0.693921	0.288108
C133	C	0.254835	1.111742	0.288053
C134	C	0.210585	1.182302	0.358580
C135	C	0.188452	1.174408	0.437040
C136	C	0.210575	1.095948	0.444972
C137	C	0.254828	1.025390	0.374445
C138	C	0.670843	0.362173	-0.288584
C139	C	0.715107	0.291613	-0.359112
C140	C	0.737242	0.299507	-0.437571
C141	C	0.715116	0.377968	-0.445503
C142	C	0.670856	0.448526	-0.374976
C143	C	0.670866	0.448543	0.042849
C144	C	0.715133	0.377996	0.042833
C145	C	0.737265	0.299530	-0.000351
C146	C	0.715132	0.291612	-0.043529
C147	C	0.670869	0.362158	-0.043516
C148	C	0.670862	0.779993	-0.288619
C149	C	0.715116	0.779977	-0.359153
C150	C	0.737247	0.736782	-0.437608
C151	C	0.715116	0.693608	-0.445530
C152	C	0.670859	0.693630	-0.374997
H153	H	-0.336473	0.847722	0.110504
O154	O	0.784979	0.223402	-0.513638
H155	H	0.825313	0.223415	-0.550887
O156	O	0.522822	0.140501	0.069005
H157	H	0.538222	0.171333	0.087823
O158	O	0.402809	0.333393	0.164655
H159	H	0.403459	0.388781	0.163814
O160	O	0.785004	0.223447	-0.000355
H161	H	0.796682	0.167549	-0.037640
H162	H	-0.035730	0.564994	-0.172225
H163	H	0.733145	0.384385	-0.509393
H164	H	-0.038607	0.908961	0.171660
H165	H	0.152389	1.231822	-0.000213
H166	H	0.652849	0.658470	-0.381460
H167	H	0.272805	0.658747	0.224240
O168	O	0.186694	1.087364	-0.089966
H169	H	0.152207	1.149596	-0.082726
O170	O	0.738955	0.206999	-0.350536
H171	H	0.787776	0.172762	-0.380592
H172	H	0.410571	0.676714	-0.416441
O173	O	0.646986	0.533143	-0.383537
H174	H	0.669812	0.526769	-0.449945
O175	O	0.647008	0.533170	0.089415
H176	H	0.669847	0.526811	0.119417
O177	O	0.646972	0.353651	-0.203963
H178	H	0.684127	0.319394	-0.196801
O179	O	0.784988	0.736756	-0.513676
H180	H	0.768004	0.763797	-0.550912
H181	H	0.733146	0.384459	0.077996
O182	O	0.140682	0.737218	0.513199
H183	H	0.157671	0.710197	0.550436
O184	O	0.186681	1.266936	0.089553
H185	H	0.152184	1.314654	0.082304
H186	H	0.272850	1.118185	0.224173
H187	H	0.733142	0.658440	-0.509418
H188	H	0.733130	0.815133	-0.352687
H189	H	0.272843	0.815443	0.380898
O190	O	-0.432698	0.863826	0.126622
H191	H	-0.442588	0.860848	0.188206
O192	O	-0.267557	0.925028	0.187747
H193	H	-0.271401	0.967525	0.230213
H194	H	0.096984	0.565044	-0.172172
O195	O	0.646997	0.353613	-0.090078
H196	H	0.626834	0.319384	-0.065100
O197	O	0.342807	0.832738	-0.453186
H198	H	0.319440	0.897297	-0.416576
O199	O	0.186648	0.647427	0.350140
H200	H	0.152149	0.654731	0.412377
O201	O	0.522806	0.140688	-0.165288
H202	H	0.569667	0.121724	-0.202776
O203	O	0.402796	0.333427	-0.069514
H204	H	0.434283	0.339075	-0.124970
H205	H	0.733159	0.227716	-0.078688
H206	H	0.272829	0.961488	-0.078562
O207	O	0.186721	1.266922	0.350017
H208	H	0.209540	1.260550	0.283609
O209	O	0.646990	0.826595	-0.204003
H210	H	0.669810	0.856619	-0.210357
H211	H	0.342384	0.626239	-0.111005
H212	H	-0.171330	0.908909	0.171635
O213	O	0.402815	0.901924	-0.403830
H214	H	0.364238	0.917125	-0.341543
H215	H	0.192561	0.815507	0.508870
O216	O	0.193212	0.548944	-0.188304
H217	H	0.197059	0.506460	-0.230787
O218	O	0.342806	0.284085	0.095335
H219	H	0.319434	0.320710	0.068037
H220	H	0.272823	1.118217	0.078135
O221	O	0.106992	0.864068	0.126760
H222	H	0.103146	0.906561	0.169233
H223	H	0.203240	0.847944	0.110640
O224	O	0.140713	1.250515	0.513106
H225	H	0.157704	1.287743	0.513041
O226	O	0.266425	0.610060	-0.127181
H227	H	0.315905	0.567585	-0.169638
O228	O	0.186693	1.087438	0.529598
H229	H	0.152199	1.149686	0.577299
H230	H	0.272831	0.961513	0.380916
H231	H	0.044519	0.565024	-0.172209
H232	H	0.515058	0.797361	-0.583969
O233	O	-0.181319	0.609866	-0.127296
H234	H	-0.177467	0.567375	-0.169778
H235	H	-0.118867	0.908933	0.171649
O236	O	-0.273272	0.609831	-0.127328
H237	H	-0.314195	0.620094	-0.117075
H238	H	0.567388	0.195617	-0.083665
O239	O	0.582939	0.641256	-0.547601
H240	H	0.606301	0.668525	-0.584301
H241	H	0.515051	0.593400	-0.584084
