data_functionalizedCrystal
_audit_creation_method	'MofGen! by Chris Wilmer'
_symmetry_space_group_name_H-M	'P1'
_symmetry_Int_Tables_number	1
_symmetry_cell_setting	triclinic
loop_
_symmetry_equiv_pos_as_xyz
  x,y,z
_cell_length_a	13.897449
_cell_length_b	12.759399
_cell_length_c	12.759393
_cell_angle_alpha	90.032031
_cell_angle_beta	89.979513
_cell_angle_gamma	89.983604
loop_
_atom_site_label
_atom_site_type_symbol
_atom_site_fract_x
_atom_site_fract_y
_atom_site_fract_z
Zn1	Zn	1.474718	0.418168	-0.594035
Zn2	Zn	1.474619	0.593887	-0.418354
Zn3	Zn	1.313407	0.418227	-0.418369
Zn4	Zn	1.313396	0.593809	-0.593989
O5	O	1.394035	0.506023	-0.506187
O6	O	1.609686	0.441485	-0.570744
O7	O	1.453198	0.570642	-0.271335
O8	O	1.334851	0.271198	-0.441696
O9	O	1.609614	0.570585	-0.441672
O10	O	1.453365	0.271155	-0.570758
O11	O	1.334756	0.441585	-0.271345
O12	O	1.178424	0.441510	-0.441652
O13	O	1.334831	0.570453	-0.741017
O14	O	1.178416	0.570510	-0.570680
O15	O	1.453354	0.441410	-0.741050
O16	O	1.453187	0.740898	-0.441627
O17	O	1.334736	0.740841	-0.570666
C18	C	1.393976	0.778990	-0.506163
C19	C	1.394039	0.895767	-0.506188
C20	C	1.143421	0.506009	-0.506163
C21	C	1.036207	0.506028	-0.506178
C22	C	1.394102	0.505916	-0.780220
C23	C	1.394131	0.505871	-0.896997
C24	C	0.839912	0.506032	-0.506205
C25	C	0.949144	0.506026	-0.506187
C26	C	1.645628	0.506038	-0.506212
C27	C	1.752842	0.506044	-0.506222
C28	C	1.394121	0.231989	-0.506234
C29	C	1.394157	0.115213	-0.506254
C30	C	1.455786	0.950623	-0.439074
C31	C	1.455848	1.060347	-0.439109
C32	C	1.332407	1.060348	-0.573375
C33	C	1.332351	0.950626	-0.573345
C34	C	1.569703	1.210224	-0.401723
C35	C	1.631442	1.265085	-0.334593
C36	C	1.646283	1.229546	-0.232083
C37	C	1.599370	1.139149	-0.196682
C38	C	1.537624	1.084294	-0.263807
C39	C	1.522802	1.119831	-0.366332
C40	C	1.218495	0.800748	-0.610720
C41	C	1.156743	0.745891	-0.677840
C42	C	1.141892	0.781427	-0.780352
C43	C	1.188787	0.871828	-0.815749
C44	C	1.250539	0.926685	-0.748628
C45	C	1.265392	0.891141	-0.646118
C46	C	1.332481	0.438659	-0.951864
C47	C	1.332503	0.438627	-1.061588
C48	C	1.455835	0.573022	-1.061569
C49	C	1.455807	0.573058	-0.951847
C50	C	1.218795	0.401029	-1.211537
C51	C	1.157153	0.333801	-1.266408
C52	C	1.142368	0.231297	-1.230819
C53	C	1.189239	0.196001	-1.140360
C54	C	1.250889	0.263224	-1.085495
C55	C	1.265655	0.365742	-1.121083
C56	C	1.569516	0.610645	-0.801896
C57	C	1.631171	0.677864	-0.747029
C58	C	1.645966	0.780369	-0.782616
C59	C	1.599111	0.815661	-0.873077
C60	C	1.537457	0.748442	-0.927945
C61	C	1.522660	0.645938	-0.892350
C62	C	1.394023	0.506053	-0.233219
C63	C	1.394182	0.505802	-0.116443
H64	H	1.499431	1.010693	-0.234985
H65	H	1.696180	0.835094	-0.737939
H66	H	1.669333	0.649115	-0.673378
O67	O	1.522329	0.891448	-0.366658
H68	H	1.565284	0.948032	-0.320004
H69	H	1.557448	0.527188	-0.772891
H70	H	1.176696	0.900762	-0.899223
H71	H	1.611452	1.110227	-0.113204
O72	O	1.173509	0.085432	-1.101889
H73	H	1.243315	0.043161	-1.100751
O74	O	1.301443	0.225173	-0.987935
H75	H	1.280808	0.142598	-0.972402
O76	O	1.712884	1.288701	-0.159679
H77	H	1.743017	1.357521	-0.201518
H78	H	1.557634	1.239161	-0.485198
O79	O	1.682048	1.362576	-0.372770
H80	H	1.661373	1.378063	-0.455340
O81	O	1.265960	0.366194	-0.892706
H82	H	1.216860	0.413225	-0.842692
O83	O	1.265854	1.119516	-0.645787
H84	H	1.276255	1.205030	-0.634523
O85	O	1.615056	0.926227	-0.911461
H86	H	1.692553	0.937805	-0.929026
O87	O	1.301132	1.024185	-0.786802
H88	H	1.280439	1.039679	-0.869366
H89	H	1.091606	0.736753	-0.834999
O90	O	1.106161	0.648383	-0.639670
H91	H	1.126872	0.632875	-0.557115
H92	H	1.230589	0.771799	-0.527248
O93	O	1.075853	0.158795	-1.289971
H94	H	1.045733	0.200563	-1.358836
O95	O	1.106575	0.371871	-1.363953
H96	H	1.127189	0.454456	-1.379470
H97	H	1.499307	0.777185	-1.001605
O98	O	1.234735	0.511596	-1.249915
H99	H	1.191798	0.524833	-1.322039
O100	O	1.522364	0.645477	-1.120726
H101	H	1.512036	0.634152	-1.206241
