data_functionalizedCrystal
_audit_creation_method	'MofGen! by Chris Wilmer'
_symmetry_space_group_name_H-M	'P1'
_symmetry_Int_Tables_number	1
_symmetry_cell_setting	triclinic
loop_
_symmetry_equiv_pos_as_xyz
  x,y,z
_cell_length_a	6.817900
_cell_length_b	16.417825
_cell_length_c	16.015572
_cell_angle_alpha	77.934294
_cell_angle_beta	104.485554
_cell_angle_gamma	103.385495
loop_
_atom_site_label
_atom_site_type_symbol
_atom_site_fract_x
_atom_site_fract_y
_atom_site_fract_z
V1	V	-3.991458	-0.033756	-0.269481
O2	O	-3.980177	0.086039	-0.264040
O3	O	-3.942703	-0.148123	-0.267938
O4	O	-3.927894	0.003804	-0.386875
O5	O	-3.995088	-0.066939	-0.144280
V6	V	-4.477097	-0.023804	-0.254470
O7	O	-4.248075	-0.055588	-0.302410
O8	O	-4.670677	-0.001973	-0.221541
O9	O	-4.302645	0.090562	-0.256013
O10	O	-4.605774	-0.143600	-0.259911
O11	O	-4.590863	0.009378	-0.379671
O12	O	-4.317454	-0.061364	-0.137076
C13	C	-3.788108	-0.177160	-0.263764
C14	C	-3.829431	-0.270418	-0.263284
C15	C	-3.894573	-0.497117	-0.183106
C16	C	-3.933421	-0.584742	-0.182662
C17	C	-3.993361	-0.560440	-0.340855
C18	C	-3.954526	-0.472818	-0.341298
C19	C	-3.905122	-0.441159	-0.262421
C20	C	-3.982805	-0.616406	-0.261533
C21	C	-4.024927	-0.711412	-0.261053
C22	C	-3.863001	-0.346146	-0.262901
C23	C	-3.769217	0.016638	-0.415479
C24	C	-3.798528	0.046591	-0.511450
C25	C	-4.086337	-0.219270	-0.889778
C26	C	-4.113884	-0.191098	-0.979954
C27	C	-4.037348	-0.045343	-0.954866
C28	C	-4.009784	-0.073503	-0.864686
C29	C	-4.034285	-0.160468	-0.832150
C30	C	-3.957732	-0.014701	-0.807058
C31	C	-3.930182	-0.042859	-0.716886
C32	C	-3.954683	-0.129820	-0.684342
C33	C	-4.006735	-0.188626	-0.741978
C34	C	-3.933247	0.072263	-0.839596
C35	C	-3.881195	0.131066	-0.781968
C36	C	-3.853629	0.102908	-0.691794
C37	C	-3.878131	0.015947	-0.659250
C38	C	-3.801578	0.161714	-0.634158
C39	C	-3.774027	0.133555	-0.543987
C40	C	-3.850580	-0.012212	-0.569079
C41	C	-4.120582	0.119595	-0.260185
C42	C	-4.058497	0.212853	-0.260670
C43	C	-4.139473	-0.074203	-0.108468
C44	C	-4.089401	-0.104151	-0.012495
H45	H	-3.870504	-0.083026	-0.542585
O46	O	-4.029820	-0.273093	-0.710349
C47	C	-3.887011	-0.307673	-0.735809
H48	H	-3.839096	-0.265641	-0.796425
H49	H	-3.961247	-0.374089	-0.751136
H50	H	-3.745217	-0.311253	-0.680457
O51	O	-3.928135	-0.157080	-0.596739
C52	C	-4.070439	-0.129227	-0.563912
H53	H	-4.121467	-0.071340	-0.609940
H54	H	-3.994402	-0.111634	-0.496476
H55	H	-4.210514	-0.182184	-0.558774
O56	O	-4.109710	-0.303771	-0.858298
C57	C	-4.161179	-0.349633	-0.928487
H58	H	-4.233226	-0.309313	-0.990588
H59	H	-4.276078	-0.410426	-0.913465
H60	H	-4.015859	-0.366246	-0.938166
O61	O	-4.164798	-0.248194	-1.035981
C62	C	-4.355466	-0.238946	-1.093085
H63	H	-4.445988	-0.207959	-1.061712
H64	H	-4.447524	-0.303991	-1.106611
H65	H	-4.327066	-0.197413	-1.157108
O66	O	-3.923374	-0.639017	-0.105564
C67	C	-4.068164	-0.627801	-0.061673
H68	H	-4.105986	-0.561659	-0.085862
H69	H	-4.000624	-0.635281	0.011593
H70	H	-4.214957	-0.677391	-0.075258
H71	H	-4.033586	-0.586228	-0.405074
O72	O	-4.013537	0.039102	-0.986619
C73	C	-4.049071	0.051348	-1.078566
H74	H	-4.022695	-0.006459	-1.100137
H75	H	-3.938411	0.110104	-1.102482
H76	H	-4.214834	0.060300	-1.107431
O77	O	-3.960327	0.099515	-0.927213
C78	C	-4.163005	0.066262	-0.968402
H79	H	-4.226972	0.006575	-0.925161
H80	H	-4.161454	0.049884	-1.033957
H81	H	-4.264477	0.115438	-0.979395
H82	H	-3.854346	-0.471344	-0.118878
H83	H	-3.963130	-0.427253	-0.405890
O84	O	-3.857383	0.215511	-0.813721
C85	C	-3.892917	0.227756	-0.905668
H86	H	-3.866541	0.169950	-0.927239
H87	H	-3.782258	0.286513	-0.929584
H88	H	-4.058680	0.236708	-0.934533
O89	O	-3.778121	0.246161	-0.665884
C90	C	-3.964266	0.264108	-0.721449
H91	H	-4.059118	0.204144	-0.747236
H92	H	-3.928674	0.315358	-0.778614
H93	H	-4.055523	0.287334	-0.683431
H94	H	-3.731642	0.181438	-0.497064
