data_functionalizedCrystal
_audit_creation_method	'MofGen! by Chris Wilmer'
_symmetry_space_group_name_H-M	'P1'
_symmetry_Int_Tables_number	1
_symmetry_cell_setting	triclinic
loop_
_symmetry_equiv_pos_as_xyz
  x,y,z
_cell_length_a	18.215407
_cell_length_b	18.101395
_cell_length_c	18.215399
_cell_angle_alpha	89.971163
_cell_angle_beta	89.983176
_cell_angle_gamma	90.031552
loop_
_atom_site_label
_atom_site_type_symbol
_atom_site_fract_x
_atom_site_fract_y
_atom_site_fract_z
Zn1	Zn	1.125018	-0.294811	-0.416124
Zn2	Zn	1.375018	-0.044811	-0.166124
Zn3	Zn	1.625018	0.205189	0.083876
Zn4	Zn	1.875018	0.455189	0.333876
Zn5	Zn	1.124920	-0.418662	-0.293061
Zn6	Zn	1.374920	-0.168662	-0.043061
Zn7	Zn	1.624920	0.081338	0.206939
Zn8	Zn	1.874920	0.331338	0.456939
Zn9	Zn	1.001957	-0.294840	-0.293071
Zn10	Zn	1.251957	-0.044840	-0.043071
Zn11	Zn	1.501957	0.205160	0.206929
Zn12	Zn	1.751957	0.455160	0.456929
Zn13	Zn	1.001903	-0.418616	-0.416086
Zn14	Zn	1.251903	-0.168616	-0.166086
Zn15	Zn	1.501903	0.081384	0.083914
Zn16	Zn	1.751903	0.331384	0.333914
O17	O	1.063450	-0.356732	-0.354585
O18	O	1.313450	-0.106732	-0.104585
O19	O	1.563450	0.143268	0.145415
O20	O	1.813450	0.393268	0.395415
O21	O	1.227989	-0.311247	-0.399811
O22	O	1.477989	-0.061247	-0.149811
O23	O	1.727989	0.188753	0.100189
O24	O	1.977989	0.438753	0.350189
O25	O	1.108590	-0.402269	-0.190078
O26	O	1.358590	-0.152269	0.059922
O27	O	1.608590	0.097731	0.309922
O28	O	1.858590	0.347731	0.559922
O29	O	1.018345	-0.191203	-0.309415
O30	O	1.268345	0.058797	-0.059415
O31	O	1.518345	0.308797	0.190585
O32	O	1.768345	0.558797	0.440585
O33	O	1.227917	-0.402240	-0.309397
O34	O	1.477917	-0.152240	-0.059397
O35	O	1.727917	0.097760	0.190603
O36	O	1.977917	0.347760	0.440603
O37	O	1.108758	-0.191182	-0.399821
O38	O	1.358758	0.058818	-0.149821
O39	O	1.608758	0.308818	0.100179
O40	O	1.858758	0.558818	0.350179
O41	O	1.018250	-0.311297	-0.190085
O42	O	1.268250	-0.061297	0.059915
O43	O	1.518250	0.188703	0.309915
O44	O	1.768250	0.438703	0.559915
O45	O	0.898966	-0.311252	-0.309378
O46	O	1.148966	-0.061252	-0.059378
O47	O	1.398966	0.188748	0.190622
O48	O	1.648966	0.438748	0.440622
O49	O	1.018254	-0.402161	-0.519075
O50	O	1.268254	-0.152161	-0.269075
O51	O	1.518254	0.097839	-0.019075
O52	O	1.768254	0.347839	0.230925
O53	O	0.898926	-0.402190	-0.399756
O54	O	1.148926	-0.152190	-0.149756
O55	O	1.398926	0.097810	0.100244
O56	O	1.648926	0.347810	0.350244
O57	O	1.108706	-0.311202	-0.519103
O58	O	1.358706	-0.061202	-0.269103
O59	O	1.608706	0.188798	-0.019103
O60	O	1.858706	0.438798	0.230897
O61	O	1.108538	-0.522289	-0.309360
O62	O	1.358538	-0.272289	-0.059360
O63	O	1.608538	-0.022289	0.190640
O64	O	1.858538	0.227711	0.440640
O65	O	1.018158	-0.522255	-0.399746
O66	O	1.268158	-0.272255	-0.149746
O67	O	1.518158	-0.022255	0.100254
O68	O	1.768158	0.227745	0.350254
C69	C	0.872243	-0.356720	-0.354564
C70	C	1.122243	-0.106720	-0.104564
C71	C	1.372243	0.143280	0.145436
C72	C	1.622243	0.393280	0.395436
C73	C	0.790445	-0.356732	-0.354573
C74	C	1.040445	-0.106732	-0.104573
C75	C	1.290445	0.143268	0.145427
C76	C	1.540445	0.393268	0.395427
C77	C	0.602249	-0.404158	-0.401573
C78	C	0.852249	-0.154158	-0.151573
C79	C	1.102249	0.095842	0.098427
C80	C	1.352249	0.345842	0.348427
C81	C	0.525391	-0.404160	-0.401583
C82	C	0.775391	-0.154160	-0.151583
C83	C	1.025391	0.095840	0.098417
C84	C	1.275391	0.345840	0.348417
C85	C	0.525402	-0.309320	-0.307613
C86	C	0.775402	-0.059320	-0.057613
C87	C	1.025402	0.190680	0.192387
C88	C	1.275402	0.440680	0.442387
C89	C	0.602260	-0.309315	-0.307608
C90	C	0.852260	-0.059315	-0.057608
C91	C	1.102260	0.190685	0.192392
C92	C	1.352260	0.440685	0.442392
C93	C	0.640681	-0.356738	-0.354587
C94	C	0.890681	-0.106738	-0.104587
C95	C	1.140681	0.143262	0.145413
C96	C	1.390681	0.393262	0.395413
C97	C	0.486965	-0.356746	-0.354601
C98	C	0.736965	-0.106746	-0.104601
C99	C	0.986965	0.143254	0.145399
C100	C	1.236965	0.393254	0.395399
C101	C	0.403631	-0.356748	-0.354611
C102	C	0.653631	-0.106748	-0.104611
C103	C	0.903631	0.143252	0.145389
C104	C	1.153631	0.393252	0.395389
C105	C	0.724020	-0.356735	-0.354579
C106	C	0.974020	-0.106735	-0.104579
C107	C	1.224020	0.143265	0.145421
C108	C	1.474020	0.393265	0.395421
C109	C	1.063351	-0.549143	-0.354564
C110	C	1.313351	-0.299143	-0.104564
C111	C	1.563351	-0.049143	0.145436
C112	C	1.813351	0.200857	0.395436
C113	C	1.063376	-0.631457	-0.354579
C114	C	1.313376	-0.381457	-0.104579
C115	C	1.563376	-0.131457	0.145421
C116	C	1.813376	0.118543	0.395421
C117	C	1.063538	-0.930548	-0.354619
C118	C	1.313538	-0.680548	-0.104619
C119	C	1.563538	-0.430548	0.145381
C120	C	1.813538	-0.180548	0.395381
C121	C	1.006805	-0.899232	-0.411628
C122	C	1.256805	-0.649232	-0.161628
C123	C	1.506805	-0.399232	0.088372
C124	C	1.756805	-0.149232	0.338372
C125	C	1.006536	-0.813614	-0.411450
C126	C	1.256536	-0.563614	-0.161450
C127	C	1.506536	-0.313614	0.088550
C128	C	1.756536	-0.063614	0.338550
C129	C	1.063458	-0.782165	-0.354600
C130	C	1.313458	-0.532165	-0.104600
C131	C	1.563458	-0.282165	0.145400
C132	C	1.813458	-0.032165	0.395400
C133	C	1.042464	-0.813319	-0.277038
C134	C	1.292464	-0.563319	-0.027038
C135	C	1.542464	-0.313319	0.222962
C136	C	1.792464	-0.063319	0.472962
C137	C	1.042098	-0.898964	-0.277380
C138	C	1.292098	-0.648964	-0.027380
C139	C	1.542098	-0.398964	0.222620
C140	C	1.792098	-0.148964	0.472620
C141	C	1.141388	-0.898890	-0.374487
C142	C	1.391388	-0.648890	-0.124487
C143	C	1.641388	-0.398890	0.125513
C144	C	1.891388	-0.148890	0.375513
C145	C	1.140931	-0.813239	-0.376188
C146	C	1.390931	-0.563239	-0.126188
C147	C	1.640931	-0.313239	0.123812
C148	C	1.890931	-0.063239	0.373812
C149	C	1.063414	-0.698306	-0.354584
C150	C	1.313414	-0.448306	-0.104584
C151	C	1.563414	-0.198306	0.145416
C152	C	1.813414	0.051694	0.395416
C153	C	1.063580	-1.014407	-0.354629
C154	C	1.313580	-0.764407	-0.104629
C155	C	1.563580	-0.514407	0.145371
C156	C	1.813580	-0.264407	0.395371
C157	C	1.255403	-0.356746	-0.354607
C158	C	1.505403	-0.106746	-0.104607
C159	C	1.755403	0.143254	0.145393
C160	C	2.005403	0.393254	0.395393
C161	C	1.337201	-0.356751	-0.354616
C162	C	1.587201	-0.106751	-0.104616
C163	C	1.837201	0.143249	0.145384
C164	C	2.087201	0.393249	0.395384
C165	C	1.063484	-0.356673	-0.546538
C166	C	1.313484	-0.106673	-0.296538
C167	C	1.563484	0.143327	-0.046538
C168	C	1.813484	0.393327	0.203462
C169	C	1.063499	-0.356648	-0.628337
C170	C	1.313499	-0.106648	-0.378337
C171	C	1.563499	0.143352	-0.128337
C172	C	1.813499	0.393352	0.121663
C173	C	1.063569	-0.163570	-0.354623
C174	C	1.313569	0.086430	-0.104623
C175	C	1.563569	0.336430	0.145377
C176	C	1.813569	0.586430	0.395377
C177	C	1.063619	-0.081256	-0.354639
C178	C	1.313619	0.168744	-0.104639
C179	C	1.563619	0.418744	0.145361
C180	C	1.813619	0.668744	0.395361
C181	C	1.016499	-0.309247	-0.816536
C182	C	1.266499	-0.059247	-0.566536
C183	C	1.516499	0.190753	-0.316536
C184	C	1.766499	0.440753	-0.066536
C185	C	1.016512	-0.309232	-0.893395
C186	C	1.266512	-0.059232	-0.643395
C187	C	1.516512	0.190768	-0.393395
C188	C	1.766512	0.440768	-0.143395
C189	C	1.110588	-0.403961	-0.893376
C190	C	1.360588	-0.153961	-0.643376
C191	C	1.610588	0.096039	-0.393376
C192	C	1.860588	0.346039	-0.143376
C193	C	1.110571	-0.403979	-0.816519
C194	C	1.360571	-0.153979	-0.566519
C195	C	1.610571	0.096021	-0.316519
C196	C	1.860571	0.346021	-0.066519
C197	C	1.063527	-0.356618	-0.778101
C198	C	1.313527	-0.106618	-0.528101
C199	C	1.563527	0.143382	-0.278101
C200	C	1.813527	0.393382	-0.028101
C201	C	1.063557	-0.356585	-0.931817
C202	C	1.313557	-0.106585	-0.681817
C203	C	1.563557	0.143415	-0.431817
C204	C	1.813557	0.393415	-0.181817
C205	C	1.063571	-0.356569	-1.015151
C206	C	1.313571	-0.106569	-0.765151
C207	C	1.563571	0.143431	-0.515151
C208	C	1.813571	0.393431	-0.265151
C209	C	1.063512	-0.356634	-0.694762
C210	C	1.313512	-0.106634	-0.444762
C211	C	1.563512	0.143366	-0.194762
C212	C	1.813512	0.393366	0.055238
C213	C	1.063457	-0.356738	-0.163379
C214	C	1.313457	-0.106738	0.086621
C215	C	1.563457	0.143262	0.336621
C216	C	1.813457	0.393262	0.586621
C217	C	1.063585	-0.356554	-0.081580
C218	C	1.313585	-0.106554	0.168420
C219	C	1.563585	0.143446	0.418420
C220	C	1.813585	0.393446	0.668420
H221	H	0.633552	-0.270695	-0.269346
H222	H	0.883552	-0.020695	-0.019346
H223	H	1.133552	0.229305	0.230654
H224	H	1.383552	0.479305	0.480654
F225	F	1.023701	-0.786077	-0.486621
F226	F	1.273701	-0.536077	-0.236621
F227	F	1.523701	-0.286077	0.013379
F228	F	1.773701	-0.036077	0.263379
H229	H	1.019809	-0.919778	-0.469325
H230	H	1.269809	-0.669778	-0.219325
H231	H	1.519809	-0.419778	0.030675
H232	H	1.769809	-0.169778	0.280675
F233	F	0.931841	-0.927461	-0.394655
F234	F	1.181841	-0.677461	-0.144655
F235	F	1.431841	-0.427461	0.105345
F236	F	1.681841	-0.177461	0.355345
F237	F	0.643138	-0.454627	-0.451575
F238	F	0.893138	-0.204627	-0.201575
F239	F	1.143138	0.045373	0.048425
F240	F	1.393138	0.295373	0.298425
F241	F	0.484492	-0.454630	-0.451593
F242	F	0.734492	-0.204630	-0.201593
F243	F	0.984492	0.045370	0.048407
F244	F	1.234492	0.295370	0.298407
F245	F	1.160625	-0.454402	-0.775611
F246	F	1.410625	-0.204402	-0.525611
F247	F	1.660625	0.045598	-0.275611
F248	F	1.910625	0.295598	-0.025611
F249	F	0.931111	-0.786917	-0.394251
F250	F	1.181111	-0.536917	-0.144251
F251	F	1.431111	-0.286917	0.105749
F252	F	1.681111	-0.036917	0.355749
F253	F	0.966430	-0.258843	-0.775651
F254	F	1.216430	-0.008843	-0.525651
F255	F	1.466430	0.241157	-0.275651
F256	F	1.716430	0.491157	-0.025651
F257	F	0.967715	-0.925165	-0.255381
F258	F	1.217715	-0.675165	-0.005381
F259	F	1.467715	-0.425165	0.244619
F260	F	1.717715	-0.175165	0.494619
H261	H	1.148889	-0.442520	-0.924666
H262	H	1.398889	-0.192520	-0.674666
H263	H	1.648889	0.057480	-0.424666
H264	H	1.898889	0.307480	-0.174666
F265	F	1.093759	-0.926047	-0.219963
F266	F	1.343759	-0.676047	0.030037
F267	F	1.593759	-0.426047	0.280037
F268	F	1.843759	-0.176047	0.530037
F269	F	0.966450	-0.258822	-0.934297
F270	F	1.216450	-0.008822	-0.684297
F271	F	1.466450	0.241178	-0.434297
F272	F	1.716450	0.491178	-0.184297
F273	F	1.094774	-0.786697	-0.220003
F274	F	1.344774	-0.536697	0.029997
F275	F	1.594774	-0.286697	0.279997
F276	F	1.844774	-0.036697	0.529997
H277	H	0.986159	-0.791935	-0.259906
H278	H	1.236159	-0.541935	-0.009906
H279	H	1.486159	-0.291935	0.240094
H280	H	1.736159	-0.041935	0.490094
F281	F	0.484505	-0.258853	-0.257617
F282	F	0.734505	-0.008853	-0.007617
F283	F	0.984505	0.241147	0.242383
F284	F	1.234505	0.491147	0.492383
H285	H	1.160529	-0.920437	-0.430081
H286	H	1.410529	-0.670437	-0.180081
H287	H	1.660529	-0.420437	0.069919
H288	H	1.910529	-0.170437	0.319919
F289	F	1.161626	-0.786622	-0.450797
F290	F	1.411626	-0.536622	-0.200797
F291	F	1.661626	-0.286622	0.049203
F292	F	1.911626	-0.036622	0.299203
F293	F	1.199104	-0.785248	-0.325876
F294	F	1.449104	-0.535248	-0.075876
F295	F	1.699104	-0.285248	0.174124
F296	F	1.949104	-0.035248	0.424124
F297	F	1.196639	-0.925371	-0.320224
F298	F	1.446639	-0.675371	-0.070224
F299	F	1.696639	-0.425371	0.179776
F300	F	1.946639	-0.175371	0.429776
