data_functionalizedCrystal
_audit_creation_method	'MofGen! by Chris Wilmer'
_symmetry_space_group_name_H-M	'P1'
_symmetry_Int_Tables_number	1
_symmetry_cell_setting	triclinic
loop_
_symmetry_equiv_pos_as_xyz
  x,y,z
_cell_length_a	17.699077
_cell_length_b	14.853567
_cell_length_c	16.776229
_cell_angle_alpha	89.997147
_cell_angle_beta	89.993415
_cell_angle_gamma	83.457753
loop_
_atom_site_label
_atom_site_type_symbol
_atom_site_fract_x
_atom_site_fract_y
_atom_site_fract_z
O1	O	1.004377	0.113983	-0.066271
O2	O	0.784037	0.128821	-0.066274
O3	O	0.900093	-0.009850	-0.066275
O4	O	0.888321	0.252653	-0.066270
O5	O	0.900077	-0.009858	0.066302
O6	O	0.784021	0.128812	0.066302
O7	O	1.004362	0.113974	0.066306
Zn8	Zn	0.894189	0.121392	0.087353
Zn9	Zn	0.894209	0.121403	-0.087322
O10	O	0.888306	0.252645	0.066306
C11	C	0.755830	0.128286	0.000014
C12	C	0.671808	0.126694	0.000012
C13	C	0.632330	0.125939	0.072281
C14	C	0.553384	0.124428	0.072281
C15	C	0.513916	0.123679	0.000013
C16	C	0.553399	0.124431	-0.072261
C17	C	0.632345	0.125935	-0.072261
C18	C	0.235020	0.118364	-0.072262
C19	C	0.156069	0.116863	-0.072257
C20	C	0.156059	0.116857	0.072280
C21	C	0.235005	0.118361	0.072280
C22	C	0.274482	0.119108	0.000006
C23	C	0.360085	0.120745	0.000006
C24	C	0.428314	0.122049	0.000012
C25	C	0.899551	-0.043441	0.000011
C26	C	0.897953	-0.143519	0.000004
C27	C	0.822257	-0.555772	0.000018
C28	C	0.960134	-0.577564	0.000020
C29	C	0.961637	-0.483536	0.000015
C30	C	0.893449	-0.425621	0.000013
C31	C	0.823758	-0.461735	0.000016
C32	C	1.031327	-0.447415	0.000021
C33	C	1.032832	-0.353382	0.000017
C34	C	0.964643	-0.295465	0.000009
C35	C	0.894950	-0.331584	0.000011
C36	C	0.826761	-0.273669	0.000009
C37	C	0.757067	-0.309786	0.000005
C38	C	0.755569	-0.403818	0.000008
C39	C	0.966141	-0.201433	0.000006
C40	C	0.828262	-0.179632	0.000007
C41	C	1.032568	0.114509	0.000016
C42	C	1.116590	0.116101	0.000012
C43	C	0.888847	0.286236	0.000019
C44	C	0.890445	0.386313	0.000020
N45	N	0.894181	0.121384	0.206565
N46	N	0.894224	0.121404	-0.206533
C47	C	0.945586	0.060005	0.248281
C48	C	0.945590	0.060005	0.331734
C49	C	0.894192	0.121387	0.373468
C50	C	0.842781	0.182768	0.331745
C51	C	0.842774	0.182764	0.248294
C52	C	0.842809	0.182786	0.668292
C53	C	0.842821	0.182787	0.751749
C54	C	0.945625	0.060027	0.751731
C55	C	0.945618	0.060022	0.668281
C56	C	0.894204	0.121400	0.626565
C57	C	0.894200	0.121399	0.536077
C58	C	0.894200	0.121393	0.463954
H59	H	0.664487	0.126552	-0.131109
H60	H	0.800928	0.232744	0.365730
Cl61	Cl	0.503786	0.123456	-0.163113
Cl62	Cl	0.778201	0.259959	0.804214
Cl63	Cl	1.010236	-0.017144	0.615818
Cl64	Cl	1.010214	-0.017159	0.384179
Cl65	Cl	0.778180	0.259948	0.615856
H66	H	0.800914	0.232743	0.214329
H67	H	1.089582	-0.323984	0.000019
Cl68	Cl	0.681939	0.126886	0.163138
Cl69	Cl	1.045851	-0.650371	0.000036
Cl70	Cl	0.503756	0.123495	0.163137
Cl71	Cl	1.010208	-0.017162	0.195825
Cl72	Cl	0.284617	0.119308	0.163135
Cl73	Cl	0.106426	0.115913	0.163139
H74	H	0.123936	0.116252	-0.131110
H75	H	0.267153	0.118970	-0.131112
H76	H	0.987486	0.010047	0.785705
H77	H	1.086842	-0.494576	0.000030
Cl78	Cl	0.742534	-0.106832	-0.000002
Cl79	Cl	1.053750	-0.156032	0.000026
Cl80	Cl	0.671348	-0.236969	0.000009
Cl81	Cl	0.667961	-0.449229	0.000001
H82	H	0.765513	-0.585183	0.000012
