data_functionalizedCrystal
_audit_creation_method	'MofGen! by Chris Wilmer'
_symmetry_space_group_name_H-M	'P1'
_symmetry_Int_Tables_number	1
_symmetry_cell_setting	triclinic
loop_
_symmetry_equiv_pos_as_xyz
  x,y,z
_cell_length_a	19.077367
_cell_length_b	19.077356
_cell_length_c	19.077174
_cell_angle_alpha	90.076444
_cell_angle_beta	90.114431
_cell_angle_gamma	85.314001
loop_
_atom_site_label
_atom_site_type_symbol
_atom_site_fract_x
_atom_site_fract_y
_atom_site_fract_z
Zn1	Zn	-1.079825	-0.250700	-0.344674
Zn2	Zn	-0.746491	0.082634	-0.011341
Zn3	Zn	-0.413158	0.415967	0.321993
Zn4	Zn	-1.070350	-0.363886	-0.222832
Zn5	Zn	-0.737017	-0.030552	0.110501
Zn6	Zn	-0.403683	0.302781	0.443834
Zn7	Zn	-0.957588	-0.251097	-0.231872
Zn8	Zn	-0.624255	0.082236	0.101461
Zn9	Zn	-0.290922	0.415569	0.434794
Zn10	Zn	-0.957220	-0.373283	-0.344645
Zn11	Zn	-0.623887	-0.039950	-0.011311
Zn12	Zn	-0.290554	0.293384	0.322022
O13	O	-1.016246	-0.309741	-0.286006
O14	O	-0.682912	0.023592	0.047327
O15	O	-0.349579	0.356925	0.380661
O16	O	-1.177069	-0.261615	-0.324740
O17	O	-0.843736	0.071718	0.008593
O18	O	-0.510403	0.405052	0.341926
O19	O	-1.051581	-0.345158	-0.125845
O20	O	-0.718247	-0.011824	0.207488
O21	O	-0.384914	0.321509	0.540822
O22	O	-0.977923	-0.152541	-0.250631
O23	O	-0.644589	0.180793	0.082702
O24	O	-0.311256	0.514126	0.416035
O25	O	-1.170108	-0.344772	-0.235224
O26	O	-0.836775	-0.011439	0.098109
O27	O	-0.503441	0.321895	0.431443
O28	O	-1.067729	-0.152249	-0.333506
O29	O	-0.734396	0.181085	-0.000173
O30	O	-0.401062	0.514418	0.333160
O31	O	-0.968735	-0.262292	-0.132487
O32	O	-0.635402	0.071041	0.200847
O33	O	-0.302069	0.404374	0.534180
O34	O	-0.859038	-0.271405	-0.250603
O35	O	-0.525705	0.061929	0.082730
O36	O	-0.192372	0.395262	0.416064
O37	O	-0.977295	-0.360789	-0.442835
O38	O	-0.643962	-0.027455	-0.109502
O39	O	-0.310628	0.305878	0.223831
O40	O	-0.858768	-0.361174	-0.333456
O41	O	-0.525434	-0.027841	-0.000123
O42	O	-0.192101	0.305493	0.333210
O43	O	-1.067372	-0.270727	-0.442857
O44	O	-0.734039	0.062606	-0.109524
O45	O	-0.400705	0.395940	0.223810
O46	O	-1.051224	-0.463636	-0.235196
O47	O	-0.717890	-0.130303	0.098138
O48	O	-0.384557	0.203030	0.431471
O49	O	-0.968108	-0.470540	-0.324691
O50	O	-0.634774	-0.137207	0.008643
O51	O	-0.301441	0.196126	0.341976
C52	C	-0.833363	-0.317353	-0.293008
C53	C	-0.500029	0.015981	0.040325
C54	C	-0.166696	0.349314	0.373659
C55	C	-0.755124	-0.320627	-0.296019
C56	C	-0.421791	0.012707	0.037314
C57	C	-0.088458	0.346040	0.370647
C58	C	-0.718494	-0.275361	-0.254373
C59	C	-0.385160	0.057972	0.078960
C60	C	-0.051827	0.391305	0.412294
C61	C	-0.644980	-0.278444	-0.257202
C62	C	-0.311647	0.054890	0.076131
C63	C	0.021686	0.388223	0.409464
C64	C	-0.608099	-0.326788	-0.301682
C65	C	-0.274766	0.006546	0.031652
C66	C	0.058568	0.339879	0.364985
C67	C	-0.644735	-0.372058	-0.343330
C68	C	-0.311401	-0.038724	-0.009996
C69	C	0.021932	0.294609	0.323337
C70	C	-0.718247	-0.368979	-0.340496
C71	C	-0.384913	-0.035645	-0.007163
C72	C	-0.051580	0.297688	0.326170
C73	C	-0.388228	-0.341019	-0.314770
C74	C	-0.054895	-0.007686	0.018564
C75	C	0.278438	0.325648	0.351897
C76	C	-0.314712	-0.344093	-0.317601
C77	C	0.018622	-0.010760	0.015732
C78	C	0.351955	0.322573	0.349065
C79	C	-0.314962	-0.250480	-0.231473
C80	C	0.018371	0.082854	0.101861
C81	C	0.351705	0.416187	0.435194
C82	C	-0.388476	-0.247402	-0.228647
C83	C	-0.055142	0.085932	0.104687
C84	C	0.278191	0.419265	0.438020
C85	C	-0.425105	-0.292674	-0.270292
C86	C	-0.091771	0.040659	0.063042
C87	C	0.241562	0.373992	0.396375
N88	N	-0.532957	-0.329938	-0.304576
N89	N	-0.199623	0.003395	0.028757
N90	N	0.133710	0.336729	0.362090
N91	N	-0.500245	-0.289527	-0.267393
N92	N	-0.166912	0.043806	0.065940
N93	N	0.166421	0.377140	0.399274
C94	C	-1.008617	-0.492629	-0.278974
C95	C	-0.675284	-0.159296	0.054360
C96	C	-0.341951	0.174038	0.387693
C97	C	-1.005419	-0.570867	-0.275986
C98	C	-0.672086	-0.237534	0.057347
C99	C	-0.338752	0.095799	0.390681
C100	C	-1.023349	-0.316762	-0.469017
C101	C	-0.690016	0.016572	-0.135683
C102	C	-0.356683	0.349905	0.197650
C103	C	-1.026376	-0.319753	-0.547005
C104	C	-0.693043	0.013580	-0.213672
C105	C	-0.359710	0.346913	0.119662
C106	C	-0.199843	-0.302097	-0.278970
C107	C	0.133490	0.031237	0.054363
C108	C	0.466824	0.364570	0.387696
C109	C	-0.278081	-0.298828	-0.275955
C110	C	0.055252	0.034505	0.057378
C111	C	0.388586	0.367838	0.390711
C112	C	-1.023924	-0.126139	-0.293080
C113	C	-0.690591	0.207194	0.040253
C114	C	-0.357257	0.540527	0.373586
C115	C	-1.027196	-0.047899	-0.296095
C116	C	-0.693863	0.285434	0.037238
C117	C	-0.360529	0.618767	0.370572
C118	C	-0.981979	-0.011293	-0.254364
C119	C	-0.648645	0.322041	0.078969
C120	C	-0.315312	0.655374	0.412302
C121	C	-0.985052	0.062222	-0.257204
C122	C	-0.651719	0.395555	0.076129
C123	C	-0.318385	0.728889	0.409463
C124	C	-1.033347	0.099129	-0.301771
C125	C	-0.700013	0.432462	0.031562
C126	C	-0.366680	0.765796	0.364895
C127	C	-1.078566	0.062517	-0.343507
C128	C	-0.745233	0.395851	-0.010173
C129	C	-0.411899	0.729184	0.323160
C130	C	-1.075489	-0.010996	-0.340670
C131	C	-0.742155	0.322337	-0.007337
C132	C	-0.408822	0.655670	0.325996
C133	C	-1.047561	0.319007	-0.314885
C134	C	-0.714228	0.652341	0.018448
C135	C	-0.380894	0.985674	0.351782
C136	C	-1.050636	0.392526	-0.317717
C137	C	-0.717303	0.725859	0.015617
C138	C	-0.383970	1.059193	0.348950
C139	C	-0.957121	0.392226	-0.231415
C140	C	-0.623788	0.725559	0.101919
C141	C	-0.290454	1.058892	0.435252
C142	C	-0.954051	0.318711	-0.228579
C143	C	-0.620718	0.652044	0.104754
C144	C	-0.287384	0.985378	0.438088
C145	C	-0.999268	0.282105	-0.270317
C146	C	-0.665934	0.615439	0.063016
C147	C	-0.332601	0.948772	0.396350
N148	N	-1.036491	0.174273	-0.304673
N149	N	-0.703158	0.507606	0.028660
N150	N	-0.369824	0.840940	0.361993
N151	N	-0.996119	0.206962	-0.267418
N152	N	-0.662786	0.540296	0.065915
N153	N	-0.329453	0.873629	0.399248
C154	C	-0.984667	-0.278016	-0.587101
C155	C	-0.651334	0.055317	-0.253768
C156	C	-0.318001	0.388651	0.079565
C157	C	-0.987509	-0.280833	-0.660380
C158	C	-0.654175	0.052500	-0.327046
C159	C	-0.320842	0.385834	0.006287
C160	C	-1.032063	-0.325384	-0.693560
C161	C	-0.698730	0.007949	-0.360227
C162	C	-0.365397	0.341283	-0.026893
C163	C	-1.073774	-0.367126	-0.653458
C164	C	-0.740441	-0.033792	-0.320125
C165	C	-0.407107	0.299541	0.013208
C166	C	-1.070928	-0.364312	-0.580182
C167	C	-0.737595	-0.030979	-0.246848
C168	C	-0.404262	0.302355	0.086485
C169	C	-1.045195	-0.338429	-0.912343
C170	C	-0.711862	-0.005095	-0.579010
C171	C	-0.378528	0.328238	-0.245677
C172	C	-1.048039	-0.341238	-0.985626
C173	C	-0.714706	-0.007904	-0.652292
C174	C	-0.381372	0.325429	-0.318959
C175	C	-0.961773	-0.254945	-0.992542
C176	C	-0.628439	0.078388	-0.659209
C177	C	-0.295106	0.411721	-0.325875
C178	C	-0.958934	-0.252133	-0.919263
C179	C	-0.625601	0.081201	-0.585930
C180	C	-0.292267	0.414534	-0.252597
C181	C	-1.000642	-0.293877	-0.879168
C182	C	-0.667309	0.039456	-0.545835
C183	C	-0.333975	0.372789	-0.212501
N184	N	-1.034970	-0.328263	-0.768462
N185	N	-0.701637	0.005071	-0.435129
N186	N	-0.368304	0.338404	-0.101795
N187	N	-0.997731	-0.291002	-0.804267
N188	N	-0.664397	0.042332	-0.470934
N189	N	-0.331064	0.375665	-0.137601
C190	C	-1.009213	-0.302696	-0.103707
C191	C	-0.675879	0.030637	0.229626
C192	C	-0.342546	0.363971	0.562959
C193	C	-1.006330	-0.299500	-0.025722
C194	C	-0.672997	0.033833	0.307611
C195	C	-0.339663	0.367166	0.640945
H196	H	-0.284685	-0.383461	-0.353826
H197	H	0.048648	-0.050127	-0.020493
H198	H	0.381982	0.283206	0.312840
C199	C	-0.909922	-0.203131	-0.882767
C200	C	-0.576589	0.130202	-0.549433
C201	C	-0.243255	0.463536	-0.216100
H202	H	-0.914206	-0.207429	-0.833383
H203	H	-0.580872	0.125904	-0.500049
H204	H	-0.247539	0.459238	-0.166716
H205	H	-0.862663	-0.215861	-0.896189
H206	H	-0.529330	0.117473	-0.562855
H207	H	-0.195996	0.450806	-0.229522
H208	H	-0.922673	-0.155865	-0.896204
H209	H	-0.589339	0.177468	-0.562871
H210	H	-0.256006	0.510802	-0.229538
C211	C	-0.604168	-0.425234	-0.392257
C212	C	-0.270834	-0.091901	-0.058924
C213	C	0.062499	0.241432	0.274409
H214	H	-0.555140	-0.420581	-0.387987
H215	H	-0.221807	-0.087248	-0.054653
H216	H	0.111526	0.246086	0.278680
H217	H	-0.613844	-0.471613	-0.379631
H218	H	-0.280511	-0.138280	-0.046298
H219	H	0.052823	0.195054	0.287035
H220	H	-0.618486	-0.416304	-0.439348
H221	H	-0.285152	-0.082971	-0.106014
H222	H	0.048181	0.250363	0.227319
H223	H	-1.089967	0.422573	-0.354011
H224	H	-0.756633	0.755906	-0.020677
H225	H	-0.423300	1.089239	0.312656
H226	H	-0.748070	-0.405838	-0.374409
H227	H	-0.414737	-0.072505	-0.041076
H228	H	-0.081404	0.260828	0.292258
C229	C	-1.097302	0.278751	-0.360790
C230	C	-0.763969	0.612084	-0.027457
C231	C	-0.430635	0.945417	0.305877
H232	H	-1.126509	0.311262	-0.387731
H233	H	-0.793176	0.644596	-0.054398
H234	H	-0.459843	0.977929	0.278935
H235	H	-1.070365	0.247780	-0.391288
H236	H	-0.737031	0.581113	-0.057955
H237	H	-0.403698	0.914446	0.275379
H238	H	-1.125733	0.252380	-0.331666
H239	H	-0.792400	0.585713	0.001667
H240	H	-0.459066	0.919046	0.335001
C241	C	-0.429039	-0.194233	-0.179708
C242	C	-0.095706	0.139100	0.153625
C243	C	0.237628	0.472433	0.486959
H244	H	-0.396693	-0.167722	-0.155303
H245	H	-0.063360	0.165612	0.178031
H246	H	0.269973	0.498945	0.511364
H247	H	-0.460044	-0.163433	-0.206663
H248	H	-0.126711	0.169901	0.126671
H249	H	0.206622	0.503234	0.460004
H250	H	-0.455397	-0.218750	-0.146954
H251	H	-0.122063	0.114583	0.186379
H252	H	0.211270	0.447917	0.519713
H253	H	-0.285131	-0.213622	-0.197567
H254	H	0.048203	0.119711	0.135766
H255	H	0.381536	0.453045	0.469100
H256	H	-1.117886	0.092571	-0.379798
H257	H	-0.784553	0.425904	-0.046465
H258	H	-0.451220	0.759238	0.286868
H259	H	-0.927816	-0.220960	-1.025195
H260	H	-0.594482	0.112373	-0.691862
H261	H	-0.261149	0.445707	-0.358529
H262	H	-1.084324	-0.377517	-1.012638
H263	H	-0.750990	-0.044184	-0.679305
H264	H	-0.417657	0.289150	-0.345972
C265	C	-1.091083	-0.384335	-0.868248
C266	C	-0.757750	-0.051001	-0.534914
C267	C	-0.424417	0.282332	-0.201581
H268	H	-1.118032	-0.411261	-0.898506
H269	H	-0.784699	-0.077928	-0.565172
H270	H	-0.451365	0.255406	-0.231839
H271	H	-1.061772	-0.415032	-0.839508
H272	H	-0.728439	-0.081698	-0.506174
H273	H	-0.395105	0.251635	-0.172841
H274	H	-1.121771	-0.355025	-0.839530
H275	H	-0.788438	-0.021692	-0.506197
H276	H	-0.455104	0.311642	-0.172863
C277	C	-0.428512	-0.390810	-0.360585
C278	C	-0.095179	-0.057476	-0.027252
C279	C	0.238155	0.275857	0.306082
H280	H	-0.396017	-0.420035	-0.387486
H281	H	-0.062683	-0.086702	-0.054153
H282	H	0.270650	0.246632	0.279180
H283	H	-0.454866	-0.419209	-0.331417
H284	H	-0.121532	-0.085876	0.001917
H285	H	0.211801	0.247458	0.335250
H286	H	-0.459501	-0.363898	-0.391132
H287	H	-0.126168	-0.030565	-0.057798
H288	H	0.207166	0.302768	0.275535
H289	H	-0.942654	-0.041337	-0.218070
H290	H	-0.609321	0.291996	0.115263
H291	H	-0.275987	0.625330	0.448596
H292	H	-1.104898	-0.398294	-0.547536
H293	H	-0.771564	-0.064960	-0.214202
H294	H	-0.438231	0.268373	0.119131
H295	H	-1.112304	-0.040801	-0.374658
H296	H	-0.778971	0.292532	-0.041324
H297	H	-0.445637	0.625866	0.292009
H298	H	-0.615158	-0.241588	-0.223285
H299	H	-0.281825	0.091746	0.110048
H300	H	0.051508	0.425079	0.443382
H301	H	-1.110047	-0.403404	-0.680480
H302	H	-0.776714	-0.070070	-0.347146
H303	H	-0.443381	0.263263	-0.013813
C304	C	-0.900924	0.278118	-0.179558
C305	C	-0.567591	0.611451	0.153776
C306	C	-0.234258	0.944785	0.487109
H307	H	-0.874430	0.310449	-0.155115
H308	H	-0.541097	0.643782	0.178219
H309	H	-0.207763	0.977115	0.511552
H310	H	-0.925463	0.251733	-0.146850
H311	H	-0.592130	0.585067	0.186483
H312	H	-0.258797	0.918400	0.519817
H313	H	-0.870094	0.247135	-0.206471
H314	H	-0.536760	0.580468	0.126863
H315	H	-0.203427	0.913802	0.460196
H316	H	-0.948232	0.092027	-0.223224
H317	H	-0.614899	0.425360	0.110109
H318	H	-0.281565	0.758693	0.443442
C319	C	-0.759060	-0.222182	-0.205448
C320	C	-0.425727	0.111151	0.127886
C321	C	-0.092393	0.444485	0.461219
H322	H	-0.808088	-0.226825	-0.209728
H323	H	-0.474755	0.106508	0.123605
H324	H	-0.141422	0.439842	0.456938
H325	H	-0.744745	-0.231105	-0.158359
H326	H	-0.411411	0.102228	0.174974
H327	H	-0.078078	0.435562	0.508308
H328	H	-0.749380	-0.175803	-0.218082
H329	H	-0.416047	0.157531	0.115252
H330	H	-0.082714	0.490864	0.448585
C331	C	-0.935651	-0.229016	-0.550609
C332	C	-0.602318	0.104318	-0.217276
C333	C	-0.268984	0.437651	0.116057
H334	H	-0.911211	-0.204569	-0.584987
H335	H	-0.577878	0.128764	-0.251654
H336	H	-0.244545	0.462098	0.081680
H337	H	-0.962742	-0.196125	-0.522172
H338	H	-0.629409	0.137209	-0.188839
H339	H	-0.296076	0.470542	0.144494
H340	H	-0.902744	-0.256132	-0.522164
H341	H	-0.569411	0.077202	-0.188831
H342	H	-0.236077	0.410535	0.144502
C343	C	-0.941633	-0.234918	-0.704483
C344	C	-0.608300	0.098416	-0.371149
C345	C	-0.274966	0.431749	-0.037816
H346	H	-0.914698	-0.207975	-0.674227
H347	H	-0.581365	0.125358	-0.340894
H348	H	-0.248031	0.458692	-0.007560
H349	H	-0.910944	-0.264214	-0.733205
H350	H	-0.577611	0.069120	-0.399871
H351	H	-0.244277	0.402453	-0.066538
H352	H	-0.970959	-0.204224	-0.733218
H353	H	-0.637626	0.129109	-0.399885
H354	H	-0.304293	0.462443	-0.066552
H355	H	-0.920307	0.422037	-0.197434
H356	H	-0.586974	0.755370	0.135899
H357	H	-0.253640	1.088703	0.469232
