data_functionalizedCrystal
_audit_creation_method	'MofGen! by Chris Wilmer'
_symmetry_space_group_name_H-M	'P1'
_symmetry_Int_Tables_number	1
_symmetry_cell_setting	triclinic
loop_
_symmetry_equiv_pos_as_xyz
  x,y,z
_cell_length_a	21.295418
_cell_length_b	10.686285
_cell_length_c	10.686551
_cell_angle_alpha	80.915481
_cell_angle_beta	94.415002
_cell_angle_gamma	94.354118
loop_
_atom_site_label
_atom_site_type_symbol
_atom_site_fract_x
_atom_site_fract_y
_atom_site_fract_z
Zn1	Zn	1.005673	0.449551	0.679776
Zn2	Zn	1.005622	0.678131	0.451273
Zn3	Zn	0.892900	0.465973	0.467451
Zn4	Zn	0.907905	0.661808	0.663402
O5	O	0.953025	0.563866	0.565476
O6	O	1.093757	0.479831	0.649546
O7	O	0.984369	0.663692	0.275784
O8	O	0.901602	0.286176	0.509240
O9	O	1.093720	0.647768	0.481666
O10	O	0.984455	0.274110	0.665233
O11	O	0.901552	0.507821	0.287670
O12	O	0.806800	0.491993	0.493363
O13	O	0.927175	0.619947	0.843209
O14	O	0.817824	0.635871	0.637327
O15	O	0.999005	0.464003	0.855239
O16	O	0.998918	0.853584	0.465790
O17	O	0.927126	0.841592	0.621640
C18	C	0.789471	0.563944	0.565324
C19	C	0.719504	0.564005	0.565287
C20	C	0.964663	0.893640	0.540210
C21	C	0.969700	1.034716	0.529444
C22	C	0.964769	0.538322	0.896571
C23	C	0.969774	0.527437	1.037664
C24	C	0.692393	0.639040	0.640120
C25	C	0.626651	0.639004	0.640179
C26	C	0.588023	0.563949	0.565383
C27	C	0.615140	0.488899	0.490546
C28	C	0.680881	0.488927	0.490498
N29	N	0.480473	0.562571	0.455117
N30	N	0.418022	0.562551	0.455165
C31	C	0.389950	0.563858	0.565523
N32	N	0.426688	0.565209	0.675832
N33	N	0.489144	0.565235	0.675782
C34	C	0.516737	0.563910	0.565426
C35	C	0.291555	0.638857	0.640427
C36	C	0.225812	0.638813	0.640489
C37	C	0.214302	0.488715	0.490843
C38	C	0.280044	0.488752	0.490793
C39	C	0.318667	0.563830	0.565582
C40	C	1.117218	0.563788	0.565628
C41	C	1.187188	0.563755	0.565693
C42	C	0.941360	0.232801	0.590868
C43	C	0.936390	0.091721	0.601688
C44	C	0.941360	0.589218	0.235676
C45	C	0.936464	0.599745	0.094611
H46	H	0.723836	0.700172	0.701022
C47	C	0.296332	0.787200	0.788367
C48	C	0.334014	0.721361	0.722652
H49	H	0.322544	0.838125	0.839136
H50	H	0.270404	0.839929	0.729292
H51	H	0.270498	0.728191	0.841256
H52	H	0.359845	0.780370	0.669755
H53	H	0.359953	0.668627	0.781734
C54	C	0.644625	0.787380	0.788085
C55	C	0.596842	0.721483	0.722446
H56	H	0.626222	0.838300	0.838868
H57	H	0.670075	0.728416	0.840942
H58	H	0.669979	0.840131	0.728955
H59	H	0.571491	0.668724	0.781576
H60	H	0.571381	0.780454	0.669585
H61	H	0.904120	0.669982	1.035425
H62	H	1.002125	0.457204	1.096856
C63	C	0.130150	0.705406	0.707017
C64	C	0.196009	0.721292	0.722756
H65	H	0.111752	0.756321	0.757814
H66	H	0.116964	0.730422	0.620303
H67	H	0.117069	0.618700	0.732284
H68	H	0.209090	0.807996	0.697481
H69	H	0.209200	0.696283	0.809490
C70	C	0.534469	0.484157	0.321229
C71	C	0.572685	0.406404	0.408314
H72	H	0.508263	0.433223	0.270458
H73	H	0.508912	0.528825	0.365808
H74	H	0.560316	0.543143	0.268346
H75	H	0.546837	0.347424	0.461204
H76	H	0.598244	0.361716	0.363732
C77	C	0.662899	0.340566	0.342582
C78	C	0.710684	0.406456	0.408224
H79	H	0.681301	0.289660	0.291781
H80	H	0.637550	0.287813	0.401700
H81	H	0.637445	0.399544	0.289729
H82	H	0.736136	0.347477	0.461084
H83	H	0.736044	0.459213	0.349098
H84	H	0.182851	0.427598	0.429949
H85	H	1.002070	1.093846	0.459342
H86	H	0.302117	0.427658	0.429849
H87	H	0.904018	1.032599	0.671778
