data_functionalizedCrystal
_audit_creation_method	'MofGen! by Chris Wilmer'
_symmetry_space_group_name_H-M	'P1'
_symmetry_Int_Tables_number	1
_symmetry_cell_setting	triclinic
loop_
_symmetry_equiv_pos_as_xyz
  x,y,z
_cell_length_a	29.839134
_cell_length_b	29.839131
_cell_length_c	18.050583
_cell_angle_alpha	89.953166
_cell_angle_beta	89.974262
_cell_angle_gamma	90.030088
loop_
_atom_site_label
_atom_site_type_symbol
_atom_site_fract_x
_atom_site_fract_y
_atom_site_fract_z
Zn1	Zn	0.686756	-0.178883	-0.420051
Zn2	Zn	0.686691	-0.254023	-0.295838
Zn3	Zn	0.611633	-0.178901	-0.295854
Zn4	Zn	0.611594	-0.253980	-0.419965
O5	O	0.649169	-0.216447	-0.357927
O6	O	0.749614	-0.188861	-0.403603
O7	O	0.676724	-0.244083	-0.191915
O8	O	0.621642	-0.116031	-0.312371
O9	O	0.749567	-0.244066	-0.312344
O10	O	0.676834	-0.116018	-0.403618
O11	O	0.621579	-0.188892	-0.191927
O12	O	0.548761	-0.188850	-0.312288
O13	O	0.621575	-0.243992	-0.523901
O14	O	0.548732	-0.244010	-0.403472
O15	O	0.676796	-0.188819	-0.523964
O16	O	0.676686	-0.316884	-0.312261
O17	O	0.621513	-0.316853	-0.403457
C18	C	0.532446	-0.216427	-0.357873
C19	C	0.482512	-0.216430	-0.357868
C20	C	0.172863	-0.245211	-0.405348
C21	C	-0.014810	-0.245223	-0.405381
O22	O	-0.039080	-0.269673	-0.445719
N23	N	-0.038273	-0.216463	-0.357983
C24	C	-0.014815	-0.187695	-0.310576
O25	O	-0.039079	-0.163230	-0.270267
C26	C	0.172857	-0.187681	-0.310547
C27	C	0.196317	-0.216446	-0.357944
C28	C	0.196323	-0.273974	-0.452741
C29	C	0.243239	-0.273972	-0.452730
C30	C	0.266694	-0.245207	-0.405325
C31	C	0.243233	-0.216444	-0.357932
C32	C	0.196314	-0.158911	-0.263145
C33	C	0.243235	-0.158909	-0.263143
C34	C	0.266696	-0.187675	-0.310539
C35	C	0.313603	-0.187678	-0.310516
N36	N	0.337066	-0.216439	-0.357914
C37	C	0.313611	-0.245203	-0.405319
C38	C	-0.113346	-0.187706	-0.310593
C39	C	-0.160264	-0.187710	-0.310599
C40	C	-0.160256	-0.245237	-0.405406
C41	C	-0.113337	-0.245235	-0.405395
C42	C	-0.089883	-0.216466	-0.357992
C43	C	0.412137	-0.245198	-0.405290
C44	C	0.459057	-0.245195	-0.405272
C45	C	0.459044	-0.187665	-0.310469
C46	C	0.412129	-0.187670	-0.310484
C47	C	0.388677	-0.216438	-0.357901
O48	O	0.337902	-0.163238	-0.270205
O49	O	0.337883	-0.269658	-0.445634
C50	C	0.125947	-0.245213	-0.405360
C51	C	0.102487	-0.216450	-0.357967
C52	C	0.125941	-0.187685	-0.310562
C53	C	0.055569	-0.216454	-0.357973
C54	C	0.032114	-0.245218	-0.405377
C55	C	0.055577	-0.273979	-0.452776
C56	C	0.102493	-0.273977	-0.452764
C57	C	0.102478	-0.158925	-0.263164
C58	C	0.055563	-0.158929	-0.263178
C59	C	0.032108	-0.187694	-0.310583
C60	C	0.649100	-0.333169	-0.357864
C61	C	0.649112	-0.383104	-0.357862
C62	C	0.677901	-0.692705	-0.405507
C63	C	0.677950	-0.880378	-0.405551
O64	O	0.702360	-0.904607	-0.446014
N65	N	0.649245	-0.903889	-0.358009
C66	C	0.620524	-0.880478	-0.310456
O67	O	0.596107	-0.904781	-0.270025
C68	C	0.620473	-0.692806	-0.310416
C69	C	0.649183	-0.669298	-0.357956
C70	C	0.706608	-0.669197	-0.453043
C71	C	0.706597	-0.622281	-0.453029
C72	C	0.677879	-0.598874	-0.405478
C73	C	0.649172	-0.622382	-0.357941
C74	C	0.591750	-0.669396	-0.262867
C75	C	0.591739	-0.622475	-0.262862
C76	C	0.620449	-0.598967	-0.310402
C77	C	0.620444	-0.552059	-0.310375
N78	N	0.649148	-0.528549	-0.357918
C79	C	0.677866	-0.551956	-0.405469
C80	C	0.620553	-0.979009	-0.310479
C81	C	0.620566	-1.025926	-0.310488
C82	C	0.677991	-1.025823	-0.405585
C83	C	0.677980	-0.978905	-0.405572
C84	C	0.649258	-0.955498	-0.358022
C85	C	0.677842	-0.453430	-0.405434
C86	C	0.677830	-0.406511	-0.405413
C87	C	0.620403	-0.406618	-0.310320
C88	C	0.620417	-0.453534	-0.310338
C89	C	0.649137	-0.476939	-0.357901
O90	O	0.596043	-0.527801	-0.269940
O91	O	0.702273	-0.527645	-0.445905
C92	C	0.677912	-0.739620	-0.405521
C93	C	0.649204	-0.763129	-0.357984
C94	C	0.620487	-0.739721	-0.310433
C95	C	0.649218	-0.810046	-0.357994
C96	C	0.677935	-0.833454	-0.405545
C97	C	0.706640	-0.809943	-0.453087
C98	C	0.706629	-0.763028	-0.453072
C99	C	0.591782	-0.763232	-0.262891
C100	C	0.591796	-0.810147	-0.262909
C101	C	0.620513	-0.833555	-0.310460
C102	C	0.766347	-0.216466	-0.357981
C103	C	0.816281	-0.216474	-0.358004
C104	C	0.649188	-0.216399	-0.551632
C105	C	0.649197	-0.216378	-0.634178
C106	C	0.649250	-0.099268	-0.358006
C107	C	0.649284	-0.049334	-0.358040
C108	C	0.679256	-0.186360	-0.833663
C109	C	0.638283	-0.175361	-0.883050
C110	C	0.649215	-0.216370	-0.785309
C111	C	0.690204	-0.227341	-0.883004
C112	C	0.649236	-0.216362	-0.931294
C113	C	0.608220	-0.205350	-0.833608
C114	C	0.660169	-0.257349	-0.833558
C115	C	0.619168	-0.246365	-0.882922
C116	C	0.649203	-0.216374	-0.701210
C117	C	0.649243	-0.216359	-1.015390
C118	C	0.649175	-0.216462	-0.164975
C119	C	0.649253	-0.216356	-0.082429
H120	H	0.478156	-0.268621	-0.443869
C121	C	0.598555	-0.392253	-0.184525
C122	C	0.588834	-0.380884	-0.258057
H123	H	0.579064	-0.376363	-0.152265
H124	H	0.594451	-0.423556	-0.177729
H125	H	0.628742	-0.384544	-0.173711
H126	H	0.558648	-0.388596	-0.268874
H127	H	0.592934	-0.349574	-0.264857
C128	C	0.454335	-0.130804	-0.216752
C129	C	0.484832	-0.156051	-0.258358
H130	H	0.470257	-0.111288	-0.184579
H131	H	0.436057	-0.113641	-0.249166
H132	H	0.436014	-0.150362	-0.188286
H133	H	0.503151	-0.136493	-0.286829
H134	H	0.503118	-0.173216	-0.225941
C135	C	0.712786	-0.569462	-0.552934
C136	C	0.738151	-0.596445	-0.505295
H137	H	0.732268	-0.553513	-0.585200
H138	H	0.693207	-0.587765	-0.581299
H139	H	0.695687	-0.548803	-0.524607
H140	H	0.755248	-0.617107	-0.533621
H141	H	0.757738	-0.578140	-0.476926
H142	H	0.036472	-0.297401	-0.491372
C143	C	0.566301	-0.882110	-0.220699
C144	C	0.560233	-0.835985	-0.210651
H145	H	0.546815	-0.898059	-0.188439
H146	H	0.559711	-0.889771	-0.270584
H147	H	0.596491	-0.889783	-0.209877
H148	H	0.530044	-0.828311	-0.221479
H149	H	0.566819	-0.828321	-0.160755
H150	H	0.629025	-0.140703	-0.904789
H151	H	0.036465	-0.135505	-0.224576
C152	C	0.672132	-0.303717	-0.726617
C153	C	0.672682	-0.304122	-0.804181
H154	H	0.679858	-0.332594	-0.708482
H155	H	0.693168	-0.282331	-0.709023
H156	H	0.642995	-0.295957	-0.709743
H157	H	0.701821	-0.311879	-0.821055
H158	H	0.651645	-0.325515	-0.821783
C159	C	0.097748	-0.102066	-0.169452
C160	C	0.128255	-0.127306	-0.211048
H161	H	0.113661	-0.082549	-0.137271
H162	H	0.079471	-0.084906	-0.201870
H163	H	0.079427	-0.121629	-0.140994
H164	H	0.146574	-0.107743	-0.239510
H165	H	0.146540	-0.144468	-0.178625
C166	C	0.595948	-0.323401	-0.885863
C167	C	0.584849	-0.280620	-0.911952
H168	H	0.574758	-0.344545	-0.903785
H169	H	0.625026	-0.331261	-0.902868
H170	H	0.595579	-0.323411	-0.833239
H171	H	0.585221	-0.280609	-0.964576
H172	H	0.555763	-0.272757	-0.894951
H173	H	0.729993	-0.688250	-0.491770
C174	C	0.738397	-0.926091	-0.416000
C175	C	0.709536	-0.953068	-0.457834
H176	H	0.757880	-0.910145	-0.448268
H177	H	0.721293	-0.905433	-0.387692
H178	H	0.755597	-0.944402	-0.383676
H179	H	0.692334	-0.934756	-0.490154
H180	H	0.726642	-0.973728	-0.486155
C181	C	0.745830	-0.174192	-0.761754
C182	C	0.713497	-0.152082	-0.804454
H183	H	0.766968	-0.153029	-0.743725
H184	H	0.731684	-0.188725	-0.721160
H185	H	0.760771	-0.195811	-0.791423
H186	H	0.698553	-0.130465	-0.774783
H187	H	0.727644	-0.137542	-0.845054
C188	C	0.703499	-1.097703	-0.447825
C189	C	0.709556	-1.051559	-0.457861
H190	H	0.722981	-1.113591	-0.480103
H191	H	0.710101	-1.105411	-0.397947
H192	H	0.673308	-1.105401	-0.458632
H193	H	0.739746	-1.043860	-0.447048
H194	H	0.702957	-1.043847	-0.507750
H195	H	0.177232	-0.297397	-0.491348
H196	H	0.262329	-0.135478	-0.224545
C197	C	0.563798	-0.983833	-0.216473
C198	C	0.588984	-0.953284	-0.258199
H199	H	0.544312	-0.967953	-0.184192
H200	H	0.546606	-1.002126	-0.248804
H201	H	0.583396	-1.002135	-0.188116
H202	H	0.569385	-0.934984	-0.286561
H203	H	0.606177	-0.934984	-0.225864
C204	C	0.734592	-0.411129	-0.499420
C205	C	0.709387	-0.380671	-0.457678
H206	H	0.754070	-0.395177	-0.531688
H207	H	0.751793	-0.429433	-0.467100
H208	H	0.715005	-0.429428	-0.527792
H209	H	0.728974	-0.362375	-0.429301
H210	H	0.692185	-0.362359	-0.490002
C211	C	0.560152	-1.078739	-0.300069
C212	C	0.589010	-1.051764	-0.258227
H213	H	0.540670	-1.094690	-0.267806
H214	H	0.542955	-1.060430	-0.332388
H215	H	0.577261	-1.099396	-0.328383
H216	H	0.571901	-1.031103	-0.229918
H217	H	0.606209	-1.070074	-0.225896
H218	H	0.724859	-0.236623	-0.904704
H219	H	0.573555	-0.196028	-0.812002
H220	H	0.393048	-0.268622	-0.443903
C221	C	-0.213012	-0.127285	-0.300459
C222	C	-0.186055	-0.156103	-0.258486
H223	H	-0.228936	-0.107775	-0.268283
H224	H	-0.194693	-0.110115	-0.332856
H225	H	-0.233693	-0.144421	-0.328693
H226	H	-0.165371	-0.138967	-0.230256
H227	H	-0.204375	-0.173274	-0.226076
H228	H	0.262336	-0.297395	-0.491326
H229	H	-0.094254	-0.164278	-0.271988
C230	C	0.359319	-0.181347	-0.210630
C231	C	0.386333	-0.156049	-0.258396
H232	H	0.343397	-0.161820	-0.178478
H233	H	0.338640	-0.198476	-0.238867
H234	H	0.377601	-0.200895	-0.182141
H235	H	0.368050	-0.136503	-0.286889
H236	H	0.407015	-0.138912	-0.230156
C237	C	0.097773	-0.330837	-0.546478
C238	C	0.128276	-0.305594	-0.504870
H239	H	0.113690	-0.350354	-0.578651
H240	H	0.079457	-0.347998	-0.514066
H241	H	0.079491	-0.311276	-0.574944
H242	H	0.146557	-0.325155	-0.476400
H243	H	0.146600	-0.288431	-0.537287
H244	H	0.177220	-0.135488	-0.224548
C245	C	0.763388	-0.767653	-0.547074
C246	C	0.738185	-0.737192	-0.505337
H247	H	0.782867	-0.751704	-0.579345
H248	H	0.780588	-0.785956	-0.514750
H249	H	0.743800	-0.785953	-0.575442
H250	H	0.757772	-0.718894	-0.476964
H251	H	0.720983	-0.718881	-0.537665
H252	H	-0.179360	-0.268659	-0.444005
H253	H	-0.094238	-0.268658	-0.443991
H254	H	0.568372	-0.688528	-0.224154
C255	C	0.534973	-0.627293	-0.168871
C256	C	0.560166	-0.596747	-0.210591
H257	H	0.515484	-0.611410	-0.136599
H258	H	0.517784	-0.645586	-0.201205
H259	H	0.554567	-0.645595	-0.140504
H260	H	0.540573	-0.578447	-0.238962
H261	H	0.577357	-0.578447	-0.178252
C262	C	0.738287	-0.506132	-0.415892
C263	C	0.709413	-0.479152	-0.457715
H264	H	0.757777	-0.522012	-0.448167
H265	H	0.755475	-0.487835	-0.383562
H266	H	0.721190	-0.526852	-0.387591
H267	H	0.726510	-0.458429	-0.486011
H268	H	0.692224	-0.497450	-0.490057
C269	C	0.560005	-0.506352	-0.299921
C270	C	0.588864	-0.479379	-0.258077
H271	H	0.540527	-0.522308	-0.267659
H272	H	0.542804	-0.488040	-0.332231
H273	H	0.577114	-0.527005	-0.328244
H274	H	0.571756	-0.458724	-0.229758
H275	H	0.606067	-0.497693	-0.225754
H276	H	0.730025	-0.829010	-0.491802
C277	C	0.535029	-0.768056	-0.168889
C278	C	0.560217	-0.737507	-0.210612
H279	H	0.515544	-0.752175	-0.136606
H280	H	0.517835	-0.786346	-0.201221
H281	H	0.554626	-0.786360	-0.140533
H282	H	0.540619	-0.719204	-0.238971
H283	H	0.577412	-0.719209	-0.178275
