data_functionalizedCrystal
_audit_creation_method	'MofGen! by Chris Wilmer'
_symmetry_space_group_name_H-M	'P1'
_symmetry_Int_Tables_number	1
_symmetry_cell_setting	triclinic
loop_
_symmetry_equiv_pos_as_xyz
  x,y,z
_cell_length_a	10.540510
_cell_length_b	9.016244
_cell_length_c	14.519731
_cell_angle_alpha	90.003217
_cell_angle_beta	84.101082
_cell_angle_gamma	90.007604
loop_
_atom_site_label
_atom_site_type_symbol
_atom_site_fract_x
_atom_site_fract_y
_atom_site_fract_z
O1	O	1.684603	0.123353	0.129832
O2	O	1.315061	0.123355	0.142106
O3	O	1.509616	0.123340	0.001784
O4	O	1.490049	0.123367	0.270154
O5	O	1.509588	-0.123340	0.001787
O6	O	1.315033	-0.123326	0.142109
O7	O	1.684575	-0.123327	0.129835
Cu8	Cu	1.499801	-0.145851	0.135972
Cu9	Cu	1.499835	0.145878	0.135969
O10	O	1.490020	-0.123313	0.270157
C11	C	1.267753	0.000014	0.141193
C12	C	1.126831	0.000014	0.138456
N13	N	1.499787	-0.351037	0.135974
C14	C	0.908390	0.000591	0.235938
C15	C	1.054956	0.000026	0.238857
C16	C	1.082574	-0.140854	0.087063
C17	C	0.935835	-0.140963	0.084855
C18	C	0.936082	0.139558	0.082761
C19	C	1.082376	0.141412	0.087523
C20	C	1.395398	-0.586062	0.210786
C21	C	1.395625	-0.414171	0.211066
C22	C	1.632291	-0.413373	0.157855
C23	C	1.631719	-0.585318	0.158385
C24	C	1.472992	-0.585590	0.039037
C25	C	1.469940	-0.413636	0.039665
C26	C	1.731883	0.000016	0.130748
C27	C	1.872806	0.000026	0.133485
C28	C	1.508685	-0.000000	-0.032579
C29	C	1.505938	-0.000001	-0.134974
N30	N	1.499859	0.351064	0.135959
C31	C	1.503705	0.000002	-0.218130
C32	C	1.500916	0.000014	-0.322453
C33	C	1.498702	0.000023	-0.405604
C34	C	1.495913	0.000032	-0.509934
C35	C	1.490951	0.000031	0.304520
C36	C	1.493699	0.000041	0.406915
H37	H	1.083908	0.101010	0.279063
H38	H	1.412343	-0.629248	0.282287
F39	F	0.853053	0.132639	0.287066
F40	F	1.572557	-0.638733	-0.033759
F41	F	0.850994	-0.130694	0.286775
H42	H	1.296603	-0.627457	0.197824
H43	H	1.378464	-0.629040	0.018210
F44	F	1.147472	0.152519	-0.008289
F45	F	1.122412	-0.277874	0.133716
H46	H	1.412798	-0.373017	0.282974
H47	H	1.711891	-0.626906	0.106080
F48	F	1.663915	-0.357061	0.249235
F49	F	1.662618	-0.637712	0.250810
F50	F	1.736326	-0.359923	0.088564
H51	H	0.914690	0.140503	0.007380
F52	F	1.562905	-0.357487	-0.036612
H53	H	1.372469	-0.372896	0.023080
H54	H	1.297140	-0.372028	0.197902
H55	H	1.082940	-0.101116	0.279310
H56	H	0.913598	-0.147370	0.009762
F57	F	0.882785	-0.278587	0.130769
H58	H	1.130710	-0.146101	0.013150
H59	H	0.893227	0.246329	0.114421
F60	F	1.119348	0.277631	0.136375
