data_functionalizedCrystal
_audit_creation_method	'MofGen! by Chris Wilmer'
_symmetry_space_group_name_H-M	'P1'
_symmetry_Int_Tables_number	1
_symmetry_cell_setting	triclinic
loop_
_symmetry_equiv_pos_as_xyz
  x,y,z
_cell_length_a	23.532355
_cell_length_b	22.010155
_cell_length_c	15.944551
_cell_angle_alpha	89.990023
_cell_angle_beta	83.163118
_cell_angle_gamma	89.995928
loop_
_atom_site_label
_atom_site_type_symbol
_atom_site_fract_x
_atom_site_fract_y
_atom_site_fract_z
O1	O	0.755672	0.050444	0.101738
O2	O	1.255672	0.550444	0.601738
O3	O	0.589862	0.050463	0.116537
O4	O	1.089862	0.550463	0.616537
O5	O	0.677295	0.050448	-0.013177
O6	O	1.177295	0.550448	0.486823
O7	O	0.668239	0.050460	0.231452
O8	O	1.168239	0.550460	0.731452
O9	O	0.677289	-0.050603	-0.013143
O10	O	1.177289	0.449397	0.486857
O11	O	0.589856	-0.050587	0.116571
O12	O	1.089856	0.449413	0.616571
O13	O	0.755666	-0.050606	0.101772
O14	O	1.255666	0.449394	0.601772
Cu15	Cu	0.672760	-0.059823	0.109174
Cu16	Cu	1.172760	0.440177	0.609174
Cu17	Cu	0.672768	0.059680	0.109134
Cu18	Cu	1.172768	0.559680	0.609134
O19	O	0.668233	-0.050591	0.231486
O20	O	1.168233	0.449409	0.731486
C21	C	0.568641	-0.000059	0.116184
C22	C	1.068641	0.499941	0.616184
C23	C	0.505418	-0.000052	0.115072
C24	C	1.005418	0.499948	0.615072
C25	C	0.113374	-0.055160	0.108102
C26	C	0.613374	0.444840	0.608102
C27	C	0.053970	-0.055163	0.107044
C28	C	0.553970	0.444837	0.607044
O29	O	0.023247	-0.102008	0.106484
O30	O	0.523247	0.397992	0.606484
N31	N	0.024263	-0.000081	0.106501
N32	N	0.524263	0.499919	0.606501
C33	C	0.053963	0.055008	0.107007
C34	C	0.553963	0.555008	0.607007
O35	O	0.023240	0.101859	0.106447
O36	O	0.523240	0.601859	0.606447
C37	C	0.113366	0.055010	0.108059
C38	C	0.613366	0.555010	0.608059
C39	C	0.143069	-0.000076	0.108611
C40	C	0.643069	0.499924	0.608611
C41	C	0.143077	-0.110242	0.108653
C42	C	0.643077	0.389758	0.608653
C43	C	0.202476	-0.110239	0.109713
C44	C	0.702476	0.389761	0.609713
C45	C	0.232172	-0.055155	0.110222
C46	C	0.732172	0.444845	0.610222
C47	C	0.202469	-0.000074	0.109671
C48	C	0.702469	0.499926	0.609671
C49	C	0.143066	0.110097	0.108560
C50	C	0.643066	0.610097	0.608560
C51	C	0.202473	0.110094	0.109611
C52	C	0.702473	0.610094	0.609611
C53	C	0.232176	0.055008	0.110163
C54	C	0.732176	0.555008	0.610163
C55	C	0.291564	0.055013	0.111239
C56	C	0.791564	0.555013	0.611239
N57	N	0.321271	-0.000069	0.111782
N58	N	0.821271	0.499931	0.611782
C59	C	0.291575	-0.055153	0.111274
C60	C	0.791575	0.444847	0.611274
C61	C	-0.070787	0.055000	0.104796
C62	C	0.429213	0.555000	0.604796
C63	C	-0.130189	0.054999	0.103750
C64	C	0.369811	0.554999	0.603750
C65	C	-0.130178	-0.055172	0.103786
C66	C	0.369822	0.444828	0.603786
C67	C	-0.070775	-0.055170	0.104838
C68	C	0.429225	0.444830	0.604838
C69	C	-0.041080	-0.000082	0.105340
C70	C	0.458920	0.499918	0.605340
C71	C	0.416318	-0.055144	0.113500
C72	C	0.916318	0.444856	0.613500
C73	C	0.475722	-0.055136	0.114563
C74	C	0.975722	0.444864	0.614563
C75	C	0.475706	0.055034	0.114523
C76	C	0.975706	0.555034	0.614523
C77	C	0.416307	0.055027	0.113464
C78	C	0.916307	0.555027	0.613464
C79	C	0.386614	-0.000067	0.112950
C80	C	0.886614	0.499933	0.612950
O81	O	0.322325	0.101834	0.111796
O82	O	0.822325	0.601834	0.611796
O83	O	0.322306	-0.101997	0.111823
O84	O	0.822306	0.398003	0.611823
N85	N	0.672759	-0.143876	0.109202
N86	N	1.172759	0.356124	0.609202
C87	C	0.634031	-0.436481	0.166573
C88	C	1.134031	0.063519	0.666573
C89	C	0.634029	-0.372873	0.166580
C90	C	1.134029	0.127127	0.666580
O91	O	0.601084	-0.339976	0.215393
O92	O	1.101084	0.160024	0.715393
N93	N	0.672755	-0.341060	0.109170
N94	N	1.172755	0.158940	0.609170
C95	C	0.711481	-0.372858	0.051743
C96	C	1.211481	0.127142	0.551743
O97	O	0.744419	-0.339958	0.002912
O98	O	1.244419	0.160042	0.502912
C99	C	0.711479	-0.436464	0.051732
C100	C	1.211479	0.063536	0.551732
C101	C	0.672755	-0.468274	0.109152
C102	C	1.172755	0.031726	0.609152
C103	C	0.595309	-0.468291	0.223987
C104	C	1.095309	0.031709	0.723987
C105	C	0.595311	-0.531894	0.223980
C106	C	1.095311	-0.031894	0.723980
C107	C	0.634035	-0.563687	0.166559
C108	C	1.134035	-0.063687	0.666559
C109	C	0.672757	-0.531877	0.109145
C110	C	1.172757	-0.031877	0.609145
C111	C	0.750202	-0.468261	-0.005698
C112	C	1.250202	0.031739	0.494302
C113	C	0.750196	-0.531872	-0.005704
C114	C	1.250196	-0.031872	0.494296
C115	C	0.711472	-0.563681	0.051715
C116	C	1.211472	-0.063681	0.551715
C117	C	0.711483	-0.627274	0.051718
C118	C	1.211483	-0.127274	0.551718
N119	N	0.672758	-0.659087	0.109127
N120	N	1.172758	-0.159087	0.609127
C121	C	0.634034	-0.627294	0.166548
C122	C	1.134034	-0.127294	0.666548
C123	C	0.711481	-0.239280	0.051770
C124	C	1.211481	0.260720	0.551770
C125	C	0.711486	-0.175675	0.051784
C126	C	1.211486	0.324325	0.551784
C127	C	0.634033	-0.175695	0.166620
C128	C	1.134033	0.324305	0.666620
C129	C	0.634032	-0.239301	0.166609
C130	C	1.134032	0.260699	0.666609
C131	C	0.672755	-0.271093	0.109180
C132	C	1.172755	0.228907	0.609180
C133	C	0.634042	-0.760865	0.166530
C134	C	1.134042	-0.260865	0.666530
C135	C	0.634049	-0.824474	0.166521
C136	C	1.134049	-0.324474	0.666521
C137	C	0.711499	-0.824449	0.051682
C138	C	1.211499	-0.324449	0.551682
C139	C	0.711494	-0.760845	0.051694
C140	C	1.211494	-0.260845	0.551694
C141	C	0.672761	-0.729055	0.109121
C142	C	1.172761	-0.229055	0.609121
O143	O	0.744410	-0.660212	0.002927
O144	O	1.244410	-0.160212	0.502927
O145	O	0.601095	-0.660202	0.215364
O146	O	1.101095	-0.160202	0.715364
C147	C	0.776887	-0.000082	0.102125
C148	C	1.276887	0.499918	0.602125
C149	C	0.840110	-0.000086	0.103237
C150	C	1.340110	0.499914	0.603237
C151	C	0.676916	-0.000078	-0.044451
C152	C	1.176916	0.499922	0.455549
C153	C	0.675789	-0.000078	-0.137687
C154	C	1.175789	0.499922	0.362313
N155	N	0.672773	0.143733	0.109100
N156	N	1.172773	0.643733	0.609100
C157	C	0.618900	-0.000063	-0.352049
C158	C	1.118900	0.499937	0.147951
C159	C	0.645314	-0.049890	-0.413279
C160	C	1.145314	0.450110	0.086721
C161	C	0.673750	-0.000073	-0.308395
C162	C	1.173750	0.499927	0.191605
C163	C	0.645333	0.049738	-0.413296
C164	C	1.145333	0.549738	0.086704
C165	C	0.671776	-0.000066	-0.473290
C166	C	1.171776	0.499934	0.026710
C167	C	0.700179	-0.049941	-0.368397
C168	C	1.200179	0.450059	0.131603
C169	C	0.700191	0.049731	-0.368408
C170	C	1.200191	0.549731	0.131592
C171	C	0.726645	-0.000108	-0.429621
C172	C	1.226645	0.499892	0.070379
C173	C	0.674885	-0.000078	-0.213402
C174	C	1.174885	0.499922	0.286598
C175	C	0.670645	-0.000065	-0.568282
C176	C	1.170645	0.499935	-0.068282
C177	C	0.668612	-0.000064	0.262759
C178	C	1.168612	0.499936	0.762759
C179	C	0.669739	-0.000060	0.355995
C180	C	1.169739	0.499940	0.855995
H181	H	0.226656	-0.155096	0.110157
H182	H	0.726656	0.344904	0.610157
Cl183	Cl	0.548609	-0.000127	-0.300012
Cl184	Cl	1.048609	0.499873	0.199988
H185	H	-0.046595	-0.100026	0.105288
H186	H	0.453405	0.399974	0.605288
Cl187	Cl	0.513049	0.124279	0.115158
Cl188	Cl	1.013049	0.624279	0.615158
Cl189	Cl	0.735965	-0.115050	-0.337829
Cl190	Cl	1.235965	0.384950	0.162171
H191	H	-0.046613	0.099862	0.105213
H192	H	0.453387	0.599862	0.605213
H193	H	0.772213	-0.000141	-0.463176
H194	H	1.272213	0.499859	0.036824
Cl195	Cl	0.609494	-0.114919	-0.443992
Cl196	Cl	1.109494	0.385081	0.056008
H197	H	0.118891	0.154954	0.108110
H198	H	0.618891	0.654954	0.608110
H199	H	0.723373	0.091853	-0.348493
H200	H	1.223373	0.591853	0.151507
H201	H	0.499904	-0.099996	0.115015
H202	H	0.999904	0.400004	0.615015
H203	H	0.602501	-0.734989	0.213292
H204	H	1.102501	-0.234989	0.713292
H205	H	0.563777	-0.557790	0.270733
H206	H	1.063777	-0.057790	0.770733
Cl207	Cl	0.379000	-0.124406	0.112853
Cl208	Cl	0.879000	0.375594	0.612853
Cl209	Cl	0.105756	-0.179500	0.108018
Cl210	Cl	0.605756	0.320500	0.608018
H211	H	0.743025	-0.149779	0.005037
H212	H	1.243025	0.350221	0.505037
H213	H	0.602515	-0.850372	0.213281
H214	H	1.102515	-0.350372	0.713281
Cl215	Cl	0.546621	-0.428333	0.296183
Cl216	Cl	1.046621	0.071667	0.796183
Cl217	Cl	0.585347	-0.279284	0.238794
Cl218	Cl	1.085347	0.220716	0.738794
Cl219	Cl	0.585351	-0.135713	0.238804
Cl220	Cl	1.085351	0.364287	0.738804
H221	H	-0.154367	-0.100025	0.103370
H222	H	0.345633	0.399975	0.603370
H223	H	0.743019	-0.265162	0.005006
H224	H	1.243019	0.234838	0.505006
Cl225	Cl	-0.167525	0.124253	0.103074
Cl226	Cl	0.332475	0.624253	0.603074
H227	H	0.622129	0.091866	-0.433185
H228	H	1.122129	0.591866	0.066815
H229	H	0.226648	0.154955	0.110020
H230	H	0.726648	0.654955	0.610020
H231	H	0.392120	0.099883	0.113029
H232	H	0.892120	0.599883	0.613029
Cl233	Cl	0.798880	-0.571834	-0.077908
Cl234	Cl	1.298880	-0.071834	0.422092
Cl235	Cl	0.798884	-0.428284	-0.077887
Cl236	Cl	1.298884	0.071716	0.422113
H237	H	0.743032	-0.734945	0.004946
H238	H	1.243032	-0.234945	0.504946
Cl239	Cl	0.760179	-0.864427	-0.020501
Cl240	Cl	1.260179	-0.364427	0.479499
