data_functionalizedCrystal
_audit_creation_method	'MofGen! by Chris Wilmer'
_symmetry_space_group_name_H-M	'P1'
_symmetry_Int_Tables_number	1
_symmetry_cell_setting	triclinic
loop_
_symmetry_equiv_pos_as_xyz
  x,y,z
_cell_length_a	10.489711
_cell_length_b	10.654550
_cell_length_c	9.130313
_cell_angle_alpha	90.000110
_cell_angle_beta	89.998208
_cell_angle_gamma	95.494044
loop_
_atom_site_label
_atom_site_type_symbol
_atom_site_fract_x
_atom_site_fract_y
_atom_site_fract_z
O1	O	1.693983	-0.177009	-0.121848
O2	O	1.322774	-0.193680	-0.121839
O3	O	1.516913	-0.002608	-0.121839
O4	O	1.499844	-0.368080	-0.121849
O5	O	1.516911	-0.002613	0.121760
O6	O	1.322772	-0.193685	0.121760
O7	O	1.693981	-0.177014	0.121751
Cu8	Cu	1.508376	-0.185350	0.143998
Cu9	Cu	1.508379	-0.185344	-0.144086
O10	O	1.499841	-0.368086	0.121750
C11	C	1.275241	-0.192431	-0.000039
C12	C	1.133612	-0.188688	-0.000035
C13	C	0.951170	-0.303593	-0.000055
C14	C	1.043344	-0.246194	-0.120158
C15	C	1.043315	-0.246168	0.120011
C16	C	0.973452	-0.124556	-0.120269
C17	C	0.973413	-0.124547	0.120009
C18	C	1.065560	-0.067060	-0.000124
C19	C	1.515659	0.044188	-0.000041
C20	C	1.511909	0.183632	-0.000046
C21	C	1.741513	-0.178262	-0.000053
C22	C	1.883143	-0.182006	-0.000066
C23	C	1.501096	-0.414881	-0.000051
C24	C	1.504846	-0.554326	-0.000056
N25	N	1.508383	-0.185353	0.346620
C26	C	1.626215	0.263076	-0.000044
C27	C	1.622684	0.394099	-0.000054
C28	C	1.390531	0.366220	-0.000062
C29	C	1.394063	0.235200	-0.000062
C30	C	1.760247	0.279173	-0.000034
C31	C	1.756716	0.410195	-0.000044
N32	N	1.508382	-0.185330	-0.346709
C33	C	1.594370	-0.100776	0.423272
C34	C	1.594367	-0.100761	0.576609
C35	C	1.422385	-0.269912	0.576628
C36	C	1.422384	-0.269920	0.423294
C37	C	1.693666	-0.003121	0.423263
C38	C	1.693663	-0.003106	0.576600
H39	H	0.942414	-0.073146	0.221555
Br40	Br	1.094946	-0.331930	-0.289411
H41	H	1.074245	-0.297637	0.221550
H42	H	1.300984	0.170520	-0.000084
Br43	Br	1.840882	0.479776	0.169859
H44	H	1.662672	0.088128	0.624150
H45	H	1.791688	-0.024660	0.618213
H46	H	0.942669	-0.073156	-0.221926
Br47	Br	1.305663	-0.384684	0.319262
H48	H	1.671887	0.093419	0.381646
Br49	Br	1.148089	0.099653	-0.000217
H50	H	1.294585	0.408222	-0.000076
H51	H	0.901431	-0.403528	-0.000178
H52	H	1.352366	-0.338763	0.639072
Br53	Br	1.847626	0.230200	-0.169932
H54	H	1.786280	-0.033743	0.375701
Br55	Br	1.831353	0.219747	0.175283
H56	H	1.797223	0.455826	-0.105224
