data_functionalizedCrystal
_audit_creation_method	'MofGen! by Chris Wilmer'
_symmetry_space_group_name_H-M	'P1'
_symmetry_Int_Tables_number	1
_symmetry_cell_setting	triclinic
loop_
_symmetry_equiv_pos_as_xyz
  x,y,z
_cell_length_a	9.730223
_cell_length_b	10.654543
_cell_length_c	10.654551
_cell_angle_alpha	95.516199
_cell_angle_beta	89.997362
_cell_angle_gamma	89.998625
loop_
_atom_site_label
_atom_site_type_symbol
_atom_site_fract_x
_atom_site_fract_y
_atom_site_fract_z
O1	O	-0.114136	-1.667845	0.176358
O2	O	-0.114171	-1.302365	0.193173
O3	O	-0.114150	-1.493507	0.002026
O4	O	-0.114157	-1.476703	0.367505
O5	O	0.114430	-1.493495	0.002021
O6	O	0.114409	-1.302353	0.193168
O7	O	0.114444	-1.667832	0.176353
Zn8	Zn	0.150718	-1.485091	0.184760
Zn9	Zn	-0.150446	-1.485107	0.184766
O10	O	0.114423	-1.476690	0.367500
C11	C	0.000115	-1.255561	0.191938
C12	C	0.000101	-1.116117	0.188249
C13	C	0.000138	-1.492267	-0.044774
C14	C	0.000131	-1.488574	-0.184217
N15	N	0.356255	-1.485089	0.184754
N16	N	-0.355982	-1.485119	0.184762
C17	C	0.428190	-1.569755	0.100150
C18	C	0.572073	-1.569768	0.100151
C19	C	0.572073	-1.400443	0.269370
C20	C	0.428192	-1.400425	0.269362
C21	C	0.000101	-1.036632	0.300792
C22	C	0.000121	-0.905611	0.297319
C23	C	0.000137	-0.933573	0.068749
C24	C	0.000126	-1.064592	0.072224
C25	C	0.000148	-0.714636	0.177594
C26	C	0.000132	-0.854077	0.181301
C27	C	-0.124469	-1.486848	-0.249718
C28	C	-0.124471	-1.483368	-0.380739
C29	C	0.124740	-1.483346	-0.380746
C30	C	0.124740	-1.486817	-0.249727
C31	C	0.000132	-1.477931	0.414300
C32	C	0.000130	-1.481623	0.553743
H33	H	0.369622	-1.638692	0.031255
H34	H	-0.225933	-1.481960	-0.434063
H35	H	0.369619	-1.331473	0.338257
H36	H	0.630639	-1.638710	0.031257
N37	N	0.259139	-1.488693	-0.179075
H38	H	0.240228	-1.491155	-0.086134
H39	H	0.313546	-1.410365	-0.192469
N40	N	0.000147	-0.877982	-0.056379
H41	H	-0.084586	-0.906888	-0.105738
H42	H	0.084940	-0.906911	-0.105639
N43	N	0.649663	-1.309132	0.360623
H44	H	0.751727	-1.321990	0.347793
H45	H	0.624498	-1.324403	0.449854
N46	N	0.259133	-1.481477	-0.451406
H47	H	0.240229	-1.479028	-0.544348
H48	H	0.313537	-1.559806	-0.438001
N49	N	0.000073	-1.092210	0.425927
H50	H	0.000077	-1.021970	0.496695
H51	H	0.084803	-1.145971	0.432350
H52	H	0.000124	-0.840898	0.388964
H53	H	0.000131	-1.129312	-0.019428
N54	N	-0.258861	-1.488741	-0.179058
H55	H	-0.337794	-1.487117	-0.240439
H56	H	-0.264299	-1.412463	-0.115190
