data_functionalizedCrystal
_audit_creation_method	'MofGen! by Chris Wilmer'
_symmetry_space_group_name_H-M	'P1'
_symmetry_Int_Tables_number	1
_symmetry_cell_setting	triclinic
loop_
_symmetry_equiv_pos_as_xyz
  x,y,z
_cell_length_a	12.594517
_cell_length_b	11.169416
_cell_length_c	11.169409
_cell_angle_alpha	89.971992
_cell_angle_beta	89.976516
_cell_angle_gamma	90.004864
loop_
_atom_site_label
_atom_site_type_symbol
_atom_site_fract_x
_atom_site_fract_y
_atom_site_fract_z
Zn1	Zn	1.627371	-0.477716	-0.678696
Zn2	Zn	1.627289	-0.678457	-0.478028
Zn3	Zn	1.449368	-0.477786	-0.478018
Zn4	Zn	1.449391	-0.678355	-0.678660
O5	O	1.538355	-0.578078	-0.578350
O6	O	1.776306	-0.504358	-0.652096
O7	O	1.603644	-0.651909	-0.310077
O8	O	1.473005	-0.309827	-0.504649
O9	O	1.776246	-0.651842	-0.504667
O10	O	1.603783	-0.309776	-0.652086
O11	O	1.472926	-0.504477	-0.310069
O12	O	1.300425	-0.504378	-0.504614
O13	O	1.473044	-0.651669	-0.846615
O14	O	1.300442	-0.651736	-0.652025
O15	O	1.603805	-0.504260	-0.846641
O16	O	1.603666	-0.846393	-0.504632
O17	O	1.472965	-0.846318	-0.652035
C18	C	1.261814	-0.578054	-0.578315
C19	C	1.143508	-0.578073	-0.578328
C20	C	1.538338	-0.889903	-0.578357
C21	C	1.538428	-1.023303	-0.578400
C22	C	1.538437	-0.577945	-0.891393
C23	C	1.538471	-0.577888	-1.024793
C24	C	1.074215	-0.497816	-0.498304
C25	C	1.003422	-0.607295	-0.468794
C26	C	1.003503	-0.468648	-0.607859
C27	C	1.074273	-0.687609	-0.548761
C28	C	1.074360	-0.548889	-0.687877
C29	C	1.003599	-0.658443	-0.658408
C30	C	1.815976	-0.578104	-0.578387
C31	C	1.934281	-0.578114	-0.578402
C32	C	1.538401	-0.265036	-0.578370
C33	C	1.538420	-0.131636	-0.578379
C34	C	1.538335	-0.578125	-0.266526
C35	C	1.538506	-0.577843	-0.133126
H36	H	0.972264	-0.632005	-0.376183
C37	C	0.962655	-0.748975	-0.748860
C38	C	1.000210	-0.719118	-0.863037
C39	C	0.962525	-0.802500	-0.946382
H40	H	0.887238	-0.748110	-0.749022
H41	H	0.987053	-0.826661	-0.727793
H42	H	0.975807	-0.641452	-0.884099
H43	H	1.075623	-0.719991	-0.862914
H44	H	0.986923	-0.880186	-0.925315
H45	H	0.887109	-0.801629	-0.946532
H46	H	0.988009	-0.782260	-1.023858
C47	C	0.962112	-0.345278	-0.641377
C48	C	0.999571	-0.314196	-0.755267
C49	C	0.961454	-0.200563	-0.786179
H50	H	0.986263	-0.288218	-0.584536
H51	H	0.886685	-0.346346	-0.641951
H52	H	1.074981	-0.313119	-0.754684
H53	H	0.975422	-0.371225	-0.812134
H54	H	0.886028	-0.201631	-0.786753
H55	H	0.985608	-0.143514	-0.729331
H56	H	0.986856	-0.179465	-0.863460
H57	H	1.105222	-0.430011	-0.430547
C58	C	1.115748	-0.810962	-0.515313
C59	C	1.226909	-0.809480	-0.515588
C60	C	1.265154	-0.923082	-0.484764
H61	H	1.091117	-0.868132	-0.571781
H62	H	1.090928	-0.831851	-0.437732
H63	H	1.251719	-0.788606	-0.593158
H64	H	1.251568	-0.752334	-0.459119
H65	H	1.240334	-0.943971	-0.407183
H66	H	1.240516	-0.980242	-0.541235
H67	H	1.340580	-0.922088	-0.484935
H68	H	1.105544	-0.524145	-0.780460
