data_functionalizedCrystal
_audit_creation_method	'MofGen! by Chris Wilmer'
_symmetry_space_group_name_H-M	'P1'
_symmetry_Int_Tables_number	1
_symmetry_cell_setting	triclinic
loop_
_symmetry_equiv_pos_as_xyz
  x,y,z
_cell_length_a	12.827893
_cell_length_b	12.759393
_cell_length_c	12.827885
_cell_angle_alpha	90.027504
_cell_angle_beta	89.980728
_cell_angle_gamma	89.985012
loop_
_atom_site_label
_atom_site_type_symbol
_atom_site_fract_x
_atom_site_fract_y
_atom_site_fract_z
Zn1	Zn	1.597674	0.418211	-0.590865
Zn2	Zn	1.597570	0.593927	-0.416133
Zn3	Zn	1.422915	0.418263	-0.416139
Zn4	Zn	1.422902	0.593849	-0.590832
O5	O	1.510265	0.506062	-0.503492
O6	O	1.743896	0.441531	-0.567698
O7	O	1.574363	0.570679	-0.269897
O8	O	1.446146	0.271235	-0.439333
O9	O	1.743819	0.570629	-0.439322
O10	O	1.574541	0.271197	-0.567704
O11	O	1.446045	0.441619	-0.269902
O12	O	1.276677	0.441544	-0.439301
O13	O	1.446124	0.570496	-0.737073
O14	O	1.276668	0.570546	-0.567648
O15	O	1.574528	0.441456	-0.737097
O16	O	1.574350	0.740938	-0.439290
O17	O	1.446023	0.740881	-0.567642
C18	C	1.238755	0.506043	-0.503472
C19	C	1.122602	0.506060	-0.503489
C20	C	1.070855	0.442292	-0.567112
C21	C	0.950805	0.442308	-0.567130
C22	C	1.510202	0.779030	-0.503485
C23	C	1.510271	0.895807	-0.503516
C24	C	1.643999	0.895813	-0.369964
C25	C	1.710890	0.950676	-0.303204
C26	C	1.710951	1.060398	-0.303239
C27	C	1.644116	1.115258	-0.370045
C28	C	1.577225	1.060395	-0.436805
C29	C	1.577169	0.950670	-0.436760
C30	C	1.443505	1.060389	-0.570361
C31	C	1.443436	0.950667	-0.570321
C32	C	1.376670	1.115249	-0.637166
C33	C	1.309772	1.060385	-0.703922
C34	C	1.309713	0.950657	-0.703883
C35	C	1.376545	0.895803	-0.637082
C36	C	1.782835	0.506083	-0.503513
C37	C	1.898988	0.506091	-0.503522
C38	C	1.510336	0.505962	-0.776063
C39	C	1.510367	0.505919	-0.892216
C40	C	1.510357	1.232029	-0.503539
C41	C	1.510396	1.115252	-0.503600
C42	C	1.573912	0.442053	-0.944012
C43	C	1.573945	0.442007	-1.064063
C44	C	1.510254	0.506087	-0.231982
C45	C	1.510427	0.505834	-0.115830
H46	H	1.078028	0.560664	-0.449030
C47	C	1.646314	0.368961	-1.123501
C48	C	1.587124	0.301634	-1.186145
C49	C	1.653755	0.234318	-1.240904
H50	H	1.691830	0.409051	-1.166165
H51	H	1.686140	0.328861	-1.075481
H52	H	1.547316	0.341730	-1.234159
H53	H	1.541611	0.261521	-1.143507
H54	H	1.693581	0.194218	-1.192884
H55	H	1.699268	0.274416	-1.283562
H56	H	1.613604	0.188622	-1.283407
H57	H	0.906303	0.387717	-0.621604
C58	C	1.130090	0.369366	-0.639774
C59	C	1.059084	0.310523	-0.698459
C60	C	1.113610	0.243323	-0.765401
H61	H	1.172689	0.409530	-0.685285
H62	H	1.172634	0.323515	-0.599857
H63	H	1.016558	0.356368	-0.738373
H64	H	1.016483	0.270337	-0.652976
H65	H	1.156154	0.197472	-0.725483
H66	H	1.156207	0.283496	-0.810904
H67	H	1.065442	0.203383	-0.805219
H68	H	1.376729	1.204590	-0.637194
C69	C	0.958444	0.578956	-0.431054
C70	C	1.021144	0.646283	-0.490160
C71	C	1.075947	0.713411	-0.423440
H72	H	0.910482	0.619075	-0.391125
H73	H	1.001067	0.538697	-0.385638
H74	H	0.978524	0.686539	-0.535558
H75	H	1.069125	0.606194	-0.530087
H76	H	1.118571	0.673152	-0.378023
H77	H	1.027978	0.753523	-0.383514
H78	H	1.118503	0.759094	-0.463533
C79	C	1.237348	1.119892	-0.776622
C80	C	1.260055	1.093112	-0.880027
C81	C	1.193367	1.147924	-0.947028
H82	H	1.167091	1.102035	-0.761405
H83	H	1.246980	1.193105	-0.767157
H84	H	1.250414	1.019916	-0.889487
H85	H	1.330299	1.110972	-0.895277
H86	H	1.203000	1.221137	-0.937562
H87	H	1.123115	1.130062	-0.931801
H88	H	1.208771	1.129769	-1.017195
C89	C	1.237262	0.891036	-0.776498
C90	C	1.296370	0.827959	-0.843518
C91	C	1.229665	0.773036	-0.910435
H92	H	1.191700	0.848220	-0.736597
H93	H	1.197490	0.939392	-0.816349
H94	H	1.336124	0.779609	-0.803671
H95	H	1.341929	0.870750	-0.883442
H96	H	1.189893	0.821392	-0.950286
H97	H	1.184106	0.730225	-0.870525
H98	H	1.269760	0.730239	-0.955922
H99	H	1.643942	0.806472	-0.369915
C100	C	1.783335	0.890924	-0.230713
C101	C	1.768950	0.783091	-0.244945
C102	C	1.835660	0.728020	-0.178178
H103	H	1.853595	0.908709	-0.246001
H104	H	1.768071	0.908918	-0.160472
H105	H	1.784222	0.765105	-0.315171
H106	H	1.698704	0.765275	-0.229650
H107	H	1.820395	0.746014	-0.107936
H108	H	1.905915	0.745813	-0.193471
H109	H	1.825901	0.654850	-0.187818
H110	H	1.765425	1.105068	-0.248883
C111	C	1.646258	0.369130	-0.884510
C112	C	1.587041	0.301884	-0.821829
C113	C	1.653654	0.234703	-0.766992
H114	H	1.686157	0.328955	-0.932451
H115	H	1.691707	0.409355	-0.841870
H116	H	1.541611	0.261663	-0.864465
H117	H	1.547144	0.342030	-0.773868
H118	H	1.699103	0.274927	-0.724352
H119	H	1.693550	0.194535	-0.814941
H120	H	1.613486	0.189075	-0.724449
H121	H	1.376497	0.806462	-0.637037
C122	C	1.438051	0.578810	-1.056314
C123	C	1.497242	0.646101	-0.993632
C124	C	1.430606	0.713331	-0.938772
H125	H	1.398179	0.618950	-1.104242
H126	H	1.392577	0.538623	-1.013674
H127	H	1.542697	0.686284	-1.036269
H128	H	1.537111	0.605989	-0.945685
H129	H	1.385133	0.673143	-0.896131
H130	H	1.390738	0.753464	-0.986707
H131	H	1.470757	0.758989	-0.896228
H132	H	1.644181	1.204599	-0.370077
H133	H	1.455981	0.560556	-0.936748
