data_functionalizedCrystal
_audit_creation_method	'MofGen! by Chris Wilmer'
_symmetry_space_group_name_H-M	'P1'
_symmetry_Int_Tables_number	1
_symmetry_cell_setting	triclinic
loop_
_symmetry_equiv_pos_as_xyz
  x,y,z
_cell_length_a	6.817900
_cell_length_b	10.943867
_cell_length_c	16.255661
_cell_angle_alpha	93.786122
_cell_angle_beta	103.488922
_cell_angle_gamma	108.843261
loop_
_atom_site_label
_atom_site_type_symbol
_atom_site_fract_x
_atom_site_fract_y
_atom_site_fract_z
V1	V	-4.054194	-0.179676	-0.263862
O2	O	-4.013034	0.007561	-0.258848
O3	O	-4.032599	-0.355235	-0.262048
O4	O	-4.005405	-0.177383	-0.378945
O5	O	-4.040415	-0.171522	-0.141142
V6	V	-4.534399	-0.157225	-0.249184
O7	O	-4.322731	-0.228925	-0.296057
O8	O	-4.716060	-0.107976	-0.216989
O9	O	-4.332788	0.018334	-0.250998
O10	O	-4.692956	-0.344462	-0.254197
O11	O	-4.665575	-0.165378	-0.371904
O12	O	-4.359981	-0.159518	-0.134101
C13	C	-3.884133	-0.398018	-0.257883
C14	C	-3.947760	-0.541543	-0.257167
C15	C	-4.176276	-0.632442	-0.261152
C16	C	-4.157696	-0.731825	-0.328618
C17	C	-4.079701	-0.697899	-0.188441
C18	C	-3.928373	-0.639050	-0.324701
C19	C	-3.850367	-0.605102	-0.184460
C20	C	-3.831640	-0.704445	-0.251941
C21	C	-3.849444	-0.171148	-0.406996
C22	C	-3.891015	-0.170435	-0.501077
C23	C	-3.800268	-0.161918	-0.723896
C24	C	-3.973499	-0.271848	-0.793366
C25	C	-3.967195	-0.169099	-0.673326
C26	C	-3.868062	-0.057911	-0.771493
C27	C	-4.040764	-0.167801	-0.839709
C28	C	-4.139922	-0.279126	-0.741566
C29	C	-4.034409	-0.065092	-0.719677
C30	C	-4.207780	-0.175053	-0.789128
C31	C	-3.924808	-0.169847	-0.577476
C32	C	-4.083169	-0.167063	-0.935558
C33	C	-4.144597	0.061111	-0.255161
C34	C	-4.060208	0.204634	-0.255883
C35	C	-4.179286	-0.165757	-0.106046
C36	C	-4.116952	-0.166463	-0.011964
H37	H	-3.719897	-0.550085	-0.123518
H38	H	-4.144351	-0.724204	-0.130854
H39	H	-4.321365	-0.600622	-0.265140
N40	N	-4.330573	-0.804667	-0.409346
H41	H	-4.461219	-0.778666	-0.412785
H42	H	-4.371386	-0.901781	-0.408467
H43	H	-3.863923	-0.612924	-0.382355
N44	N	-3.571675	-0.154759	-0.686165
H45	H	-3.544578	-0.154478	-0.622349
H46	H	-3.468816	-0.072045	-0.697696
N47	N	-3.639221	-0.746309	-0.246798
H48	H	-3.669725	-0.812965	-0.298453
H49	H	-3.609812	-0.786143	-0.193001
N50	N	-3.940006	-0.387639	-0.835865
H51	H	-3.786452	-0.382624	-0.812011
H52	H	-3.970036	-0.386700	-0.899624
N53	N	-4.291648	-0.403098	-0.723732
H54	H	-4.262385	-0.402850	-0.659872
H55	H	-4.268970	-0.481050	-0.751334
N56	N	-4.436564	-0.182432	-0.826676
H57	H	-4.539290	-0.265976	-0.816040
H58	H	-4.463032	-0.181077	-0.890327
N59	N	-4.067838	0.050693	-0.677149
H60	H	-3.964654	0.134183	-0.687633
H61	H	-4.040697	0.048719	-0.613544
H62	H	-3.753532	0.035554	-0.785107
