data_functionalizedCrystal
_audit_creation_method	'MofGen! by Chris Wilmer'
_symmetry_space_group_name_H-M	'P1'
_symmetry_Int_Tables_number	1
_symmetry_cell_setting	triclinic
loop_
_symmetry_equiv_pos_as_xyz
  x,y,z
_cell_length_a	19.077236
_cell_length_b	17.637651
_cell_length_c	19.076919
_cell_angle_alpha	80.566536
_cell_angle_beta	89.887323
_cell_angle_gamma	102.996166
loop_
_atom_site_label
_atom_site_type_symbol
_atom_site_fract_x
_atom_site_fract_y
_atom_site_fract_z
Zn1	Zn	1.008868	-0.286804	-0.386873
Zn2	Zn	1.342201	0.046529	-0.053540
Zn3	Zn	1.675535	0.379863	0.279794
Zn4	Zn	0.991689	-0.413421	-0.245673
Zn5	Zn	1.325022	-0.080088	0.087661
Zn6	Zn	1.658356	0.253246	0.420994
Zn7	Zn	0.896155	-0.286390	-0.264730
Zn8	Zn	1.229488	0.046944	0.068603
Zn9	Zn	1.562822	0.380277	0.401936
Zn10	Zn	0.867692	-0.423962	-0.356438
Zn11	Zn	1.201025	-0.090628	-0.023105
Zn12	Zn	1.534359	0.242705	0.310228
O13	O	0.941101	-0.352644	-0.313429
O14	O	1.274434	-0.019311	0.019905
O15	O	1.607768	0.314023	0.353238
O16	O	1.105653	-0.299362	-0.372904
O17	O	1.438987	0.033971	-0.039570
O18	O	1.772320	0.367305	0.293763
O19	O	0.983739	-0.391985	-0.150728
O20	O	1.317072	-0.058652	0.182605
O21	O	1.650405	0.274681	0.515939
O22	O	0.930208	-0.175881	-0.301646
O23	O	1.263542	0.157453	0.031688
O24	O	1.596875	0.490786	0.365021
O25	O	1.093032	-0.392387	-0.269164
O26	O	1.426365	-0.059054	0.064169
O27	O	1.759699	0.274280	0.397502
O28	O	1.013018	-0.176185	-0.391383
O29	O	1.346351	0.157148	-0.058050
O30	O	1.679685	0.490482	0.275284
O31	O	0.913550	-0.298656	-0.164730
O32	O	1.246884	0.034677	0.168604
O33	O	1.580217	0.368011	0.501937
O34	O	0.793315	-0.308877	-0.272135
O35	O	1.126649	0.024457	0.061199
O36	O	1.459982	0.357790	0.394532
O37	O	0.881697	-0.410352	-0.457949
O38	O	1.215030	-0.077019	-0.124615
O39	O	1.548363	0.256315	0.208718
O40	O	0.772404	-0.409950	-0.339512
O41	O	1.105737	-0.076617	-0.006179
O42	O	1.439070	0.256716	0.327155
O43	O	0.985418	-0.309583	-0.480309
O44	O	1.318752	0.023751	-0.146975
O45	O	1.652085	0.357084	0.186358
O46	O	0.956139	-0.525383	-0.239653
O47	O	1.289472	-0.192050	0.093680
O48	O	1.622806	0.141283	0.427013
O49	O	0.865039	-0.533127	-0.321033
O50	O	1.198372	-0.199794	0.012301
O51	O	1.531705	0.133539	0.345634
C52	C	0.757173	-0.360513	-0.304589
C53	C	1.090506	-0.027180	0.028744
C54	C	1.423840	0.306154	0.362078
C55	C	0.678484	-0.363899	-0.300820
C56	C	1.011817	-0.030566	0.032513
C57	C	1.345151	0.302768	0.365846
C58	C	0.648070	-0.317140	-0.353114
C59	C	0.981404	0.016193	-0.019781
C60	C	1.314737	0.349526	0.313552
C61	C	0.574134	-0.320318	-0.349568
C62	C	0.907468	0.013015	-0.016235
C63	C	1.240801	0.346349	0.317099
C64	C	0.530612	-0.370259	-0.293730
C65	C	0.863946	-0.036926	0.039603
C66	C	1.197279	0.296408	0.372937
C67	C	0.561031	-0.417020	-0.241431
C68	C	0.894364	-0.083686	0.091902
C69	C	1.227698	0.249647	0.425236
C70	C	0.634966	-0.413837	-0.244975
C71	C	0.968300	-0.080504	0.088358
C72	C	1.301633	0.252829	0.421692
C73	C	0.308786	-0.384957	-0.277330
C74	C	0.642120	-0.051624	0.056003
C75	C	0.975453	0.281709	0.389337
C76	C	0.234846	-0.388138	-0.273791
C77	C	0.568179	-0.054804	0.059542
C78	C	0.901512	0.278529	0.392876
C79	C	0.247954	-0.291434	-0.381928
C80	C	0.581288	0.041899	-0.048594
C81	C	0.914621	0.375232	0.284739
C82	C	0.321890	-0.288260	-0.385469
C83	C	0.655223	0.045073	-0.052136
C84	C	0.988557	0.378407	0.281197
C85	C	0.352303	-0.335018	-0.333168
C86	C	0.685636	-0.001684	0.000165
C87	C	1.018969	0.331649	0.333498
N88	N	0.455037	-0.373510	-0.290105
N89	N	0.788371	-0.040177	0.043229
N90	N	1.121704	0.293157	0.376562
N91	N	0.427877	-0.331762	-0.336791
N92	N	0.761211	0.001571	-0.003458
N93	N	1.094544	0.334905	0.329875
C94	C	0.905655	-0.557923	-0.274989
C95	C	1.238988	-0.224590	0.058345
C96	C	1.572321	0.108743	0.391678
C97	C	0.890554	-0.645741	-0.258570
C98	C	1.223887	-0.312408	0.074763
C99	C	1.557221	0.020926	0.408097
C100	C	1.056267	-0.935079	-0.438399
C101	C	1.389601	-0.601745	-0.105066
C102	C	1.722934	-0.268412	0.228267
C103	C	1.042056	-1.017597	-0.422959
C104	C	1.375389	-0.684264	-0.089625
C105	C	1.708723	-0.350931	0.243708
C106	C	0.955891	-1.017381	-0.329432
C107	C	1.289224	-0.684048	0.003902
C108	C	1.622557	-0.350714	0.337235
C109	C	0.970097	-0.934861	-0.344862
C110	C	1.303431	-0.601527	-0.011529
C111	C	1.636764	-0.268194	0.321804
C112	C	1.020286	-0.893716	-0.399348
C113	C	1.353619	-0.560383	-0.066014
C114	C	1.686952	-0.227049	0.267319
C115	C	0.934116	-0.893498	-0.305811
C116	C	1.267449	-0.560165	0.027523
C117	C	1.600782	-0.226831	0.360856
C118	C	0.948318	-0.810985	-0.321243
C119	C	1.281652	-0.477652	0.012091
C120	C	1.614985	-0.144318	0.345424
C121	C	0.998503	-0.769835	-0.375727
C122	C	1.331836	-0.436501	-0.042393
C123	C	1.665170	-0.103168	0.290940
C124	C	1.034488	-0.811203	-0.414780
C125	C	1.367822	-0.477870	-0.081446
C126	C	1.701155	-0.144536	0.251887
C127	C	0.883924	-0.934644	-0.251329
C128	C	1.217257	-0.601311	0.082004
C129	C	1.550590	-0.267978	0.415338
C130	C	0.847942	-0.893281	-0.212277
C131	C	1.181275	-0.559948	0.121056
C132	C	1.514609	-0.226615	0.454389
C133	C	0.862148	-0.810767	-0.227706
C134	C	1.195482	-0.477433	0.105628
C135	C	1.528815	-0.144100	0.438961
C136	C	0.912333	-0.769617	-0.282190
C137	C	1.245666	-0.436283	0.051144
C138	C	1.579000	-0.102950	0.384477
C139	C	0.826163	-0.769398	-0.188653
C140	C	1.159496	-0.436065	0.144681
C141	C	1.492830	-0.102732	0.478014
C142	C	0.840366	-0.686885	-0.204085
C143	C	1.173699	-0.353552	0.129248
C144	C	1.507032	-0.020219	0.462582
C145	C	0.926536	-0.687104	-0.297622
C146	C	1.259869	-0.353770	0.035711
C147	C	1.593202	-0.020437	0.369045
C148	C	1.125747	-0.344745	-0.322303
C149	C	1.459080	-0.011412	0.011030
C150	C	1.792414	0.321922	0.344364
C151	C	1.204432	-0.341379	-0.326085
C152	C	1.537765	-0.008045	0.007249
C153	C	1.871099	0.325288	0.340582
C154	C	0.932299	-0.361189	-0.495109
C155	C	1.265632	-0.027856	-0.161776
C156	C	1.598966	0.305477	0.171558
C157	C	0.928548	-0.364831	-0.572530
C158	C	1.261881	-0.031498	-0.239197
C159	C	1.595215	0.301836	0.094137
C160	C	0.976704	-0.146563	-0.352035
C161	C	1.310038	0.186770	-0.018702
C162	C	1.643371	0.520104	0.314632
C163	C	0.991876	-0.058744	-0.368487
C164	C	1.325210	0.274590	-0.035154
C165	C	1.658543	0.607923	0.298180
C166	C	0.980785	-0.314079	-0.620545
C167	C	1.314119	0.019254	-0.287212
C168	C	1.647452	0.352588	0.046122
C169	C	0.977253	-0.317498	-0.693291
C170	C	1.310586	0.015835	-0.359957
C171	C	1.643919	0.349169	-0.026624
C172	C	0.921485	-0.371673	-0.718019
C173	C	1.254818	-0.038340	-0.384686
C174	C	1.588152	0.294993	-0.051353
C175	C	0.869243	-0.422427	-0.669999
C176	C	1.202576	-0.089094	-0.336665
C177	C	1.535909	0.244239	-0.003332
C178	C	0.872773	-0.419004	-0.597255
C179	C	1.206106	-0.085671	-0.263922
C180	C	1.539440	0.247663	0.069412
C181	C	0.905134	-0.387534	-0.934331
C182	C	1.238467	-0.054201	-0.600998
C183	C	1.571800	0.279133	-0.267664
C184	C	0.901609	-0.390955	-1.007080
C185	C	1.234942	-0.057622	-0.673747
C186	C	1.568275	0.275712	-0.340414
C187	C	1.009618	-0.286024	-1.030368
C188	C	1.342952	0.047309	-0.697034
C189	C	1.676285	0.380642	-0.363701
C190	C	1.013146	-0.282609	-0.957621
C191	C	1.346479	0.050724	-0.624288
C192	C	1.679813	0.384058	-0.290954
C193	C	0.960902	-0.333360	-0.909607
C194	C	1.294235	-0.000027	-0.576274
C195	C	1.627568	0.333307	-0.242940
N196	N	0.917874	-0.375171	-0.792377
N197	N	1.251208	-0.041838	-0.459043
N198	N	1.584541	0.291496	-0.125710
N199	N	0.964510	-0.329858	-0.835252
N200	N	1.297843	0.003475	-0.501919
N201	N	1.631177	0.336809	-0.168585
C202	C	0.949919	-0.344073	-0.132468
C203	C	1.283253	-0.010740	0.200865
C204	C	1.616586	0.322594	0.534199
C205	C	0.953846	-0.340203	-0.055095
C206	C	1.287179	-0.006870	0.278238
C207	C	1.620513	0.326463	0.611571
H208	H	0.549375	-0.282243	-0.392152
H209	H	0.882709	0.051090	-0.058819
H210	H	1.216042	0.384423	0.274514
Br211	Br	0.834229	-0.456410	-0.869178
Br212	Br	1.167562	-0.123076	-0.535845
Br213	Br	1.500896	0.210257	-0.202512
Br214	Br	0.994661	-0.631256	-0.371557
Br215	Br	1.327994	-0.297922	-0.038223
Br216	Br	1.661328	0.035411	0.295110
H217	H	0.823833	-0.466535	-0.690139
H218	H	1.157167	-0.133202	-0.356805
H219	H	1.490500	0.200131	-0.023472
Br220	Br	0.801873	-0.487880	-0.532091
Br221	Br	1.135206	-0.154546	-0.198758
Br222	Br	1.468540	0.178787	0.134576
Br223	Br	0.887773	-1.073227	-0.255497
Br224	Br	1.221106	-0.739894	0.077836
Br225	Br	1.554439	-0.406561	0.411170
H226	H	1.026199	-0.269966	-0.600417
H227	H	1.359532	0.063367	-0.267084
H228	H	1.692866	0.396701	0.066249
H229	H	0.785295	-0.802911	-0.144296
H230	H	1.118628	-0.469578	0.189038
H231	H	1.451961	-0.136244	0.522371
Br232	Br	0.825917	-0.464481	-1.040640
Br233	Br	1.159250	-0.131148	-0.707307
Br234	Br	1.492584	0.202186	-0.373973
H235	H	0.872355	-1.001832	-0.238772
H236	H	1.205688	-0.668499	0.094561
H237	H	1.539021	-0.335166	0.427894
Br238	Br	0.206676	-0.227981	-0.452903
Br239	Br	0.540009	0.105352	-0.119570
Br240	Br	0.873343	0.438686	0.213763
Br241	Br	0.380949	-0.220488	-0.461258
Br242	Br	0.714283	0.112845	-0.127924
Br243	Br	1.047616	0.446178	0.205409
Br244	Br	0.707128	-0.249365	-0.428902
Br245	Br	1.040461	0.083968	-0.095569
Br246	Br	1.373795	0.417301	0.237764
H247	H	1.058560	-0.238496	-0.937493
H248	H	1.391893	0.094838	-0.604159
H249	H	1.725226	0.428171	-0.270826
Br250	Br	0.175774	-0.455943	-0.198021
Br251	Br	0.509108	-0.122610	0.135312
Br252	Br	0.842441	0.210724	0.468645
H253	H	1.052152	-0.244705	-1.069468
H254	H	1.385486	0.088629	-0.736134
H255	H	1.718819	0.421962	-0.402801
H256	H	0.333539	-0.423031	-0.234743
H257	H	0.666872	-0.089698	0.098590
H258	H	1.000205	0.243635	0.431923
Br259	Br	0.501967	-0.484791	-0.165645
Br260	Br	0.835301	-0.151458	0.167688
Br261	Br	1.168634	0.181875	0.501022
H262	H	0.811065	-0.653208	-0.172285
H263	H	1.144398	-0.319874	0.161048
H264	H	1.477731	0.013459	0.494381
H265	H	1.010066	-0.702647	-0.388290
H266	H	1.343399	-0.369314	-0.054957
H267	H	1.676733	-0.035981	0.278376
H268	H	0.807077	-0.926793	-0.167917
H269	H	1.140410	-0.593459	0.165416
H270	H	1.473744	-0.260126	0.498750
Br271	Br	1.102614	-0.755355	-0.488714
Br272	Br	1.435947	-0.422022	-0.155381
Br273	Br	1.769280	-0.088688	0.177952
Br274	Br	0.676243	-0.477297	-0.174001
Br275	Br	1.009576	-0.143964	0.159332
Br276	Br	1.342910	0.189370	0.492666
H277	H	1.097141	-0.901577	-0.482762
H278	H	1.430475	-0.568243	-0.149429
H279	H	1.763808	-0.234910	0.183905
H280	H	1.071350	-1.051273	-0.454773
H281	H	1.404683	-0.717939	-0.121439
H282	H	1.738017	-0.384606	0.211894
H283	H	1.019791	-0.276172	-0.732382
H284	H	1.353125	0.057161	-0.399049
H285	H	1.686458	0.390494	-0.065716
