data_functionalizedCrystal
_audit_creation_method	'MofGen! by Chris Wilmer'
_symmetry_space_group_name_H-M	'P1'
_symmetry_Int_Tables_number	1
_symmetry_cell_setting	triclinic
loop_
_symmetry_equiv_pos_as_xyz
  x,y,z
_cell_length_a	12.759401
_cell_length_b	29.839131
_cell_length_c	12.759393
_cell_angle_alpha	89.961796
_cell_angle_beta	89.982961
_cell_angle_gamma	90.041581
loop_
_atom_site_label
_atom_site_type_symbol
_atom_site_fract_x
_atom_site_fract_y
_atom_site_fract_z
Zn1	Zn	1.606045	-0.178824	-0.593935
Zn2	Zn	1.605862	-0.253962	-0.418236
Zn3	Zn	1.430352	-0.178847	-0.418275
Zn4	Zn	1.430254	-0.253927	-0.593877
O5	O	1.518128	-0.216390	-0.506081
O6	O	1.753042	-0.188796	-0.570636
O7	O	1.582544	-0.244023	-0.271220
O8	O	1.453775	-0.115977	-0.441617
O9	O	1.752907	-0.244000	-0.441551
O10	O	1.582857	-0.115960	-0.570674
O11	O	1.453598	-0.188836	-0.271248
O12	O	1.283318	-0.188802	-0.441561
O13	O	1.453609	-0.243940	-0.740906
O14	O	1.283246	-0.243963	-0.570575
O15	O	1.582762	-0.188762	-0.740949
O16	O	1.582450	-0.316825	-0.441495
O17	O	1.453431	-0.316799	-0.570538
C18	C	1.245161	-0.216382	-0.506066
C19	C	1.128384	-0.216389	-0.506085
C20	C	1.073512	-0.245158	-0.573152
C21	C	0.963788	-0.245163	-0.573163
C22	C	0.963818	-0.187631	-0.439032
C23	C	1.073540	-0.187623	-0.439027
C24	C	1.073494	-0.278375	-0.650588
C25	C	0.963770	-0.278380	-0.650600
C26	C	1.517938	-0.333113	-0.506029
C27	C	1.517953	-0.383047	-0.506041
C28	C	1.585430	-0.692691	-0.438986
C29	C	1.585560	-0.880364	-0.439027
O30	O	1.642781	-0.904630	-0.381974
N31	N	1.518346	-0.903832	-0.506160
C32	C	1.451100	-0.880379	-0.573292
O33	O	1.393941	-0.904646	-0.630402
C34	C	1.450976	-0.692707	-0.573256
C35	C	1.518187	-0.669241	-0.506111
C36	C	1.652637	-0.669226	-0.371848
C37	C	1.652599	-0.622310	-0.371834
C38	C	1.585356	-0.598860	-0.438959
C39	C	1.518150	-0.622326	-0.506098
C40	C	1.383736	-0.669254	-0.640393
C41	C	1.383713	-0.622333	-0.640380
C42	C	1.450924	-0.598868	-0.573235
C43	C	1.450869	-0.551961	-0.573209
N44	N	1.518083	-0.528493	-0.506076
C45	C	1.585327	-0.551943	-0.438951
C46	C	1.451168	-0.978910	-0.573305
C47	C	1.451197	-1.025827	-0.573313
C48	C	1.585659	-1.025810	-0.439049
C49	C	1.585624	-0.978891	-0.439036
C50	C	1.518382	-0.955442	-0.506172
C51	C	1.585243	-0.453417	-0.438927
C52	C	1.585197	-0.406497	-0.438916
C53	C	1.450739	-0.406519	-0.573184
C54	C	1.450781	-0.453435	-0.573191
C55	C	1.518041	-0.476882	-0.506059
O56	O	1.393687	-0.527666	-0.630240
O57	O	1.642494	-0.527667	-0.381867
C58	C	1.585467	-0.739607	-0.439000
C59	C	1.518261	-0.763072	-0.506138
C60	C	1.451018	-0.739622	-0.573263
C61	C	1.518291	-0.809990	-0.506146
C62	C	1.585534	-0.833440	-0.439021
C63	C	1.652748	-0.809972	-0.371888
C64	C	1.652711	-0.763057	-0.371875
C65	C	1.383804	-0.763090	-0.640396
C66	C	1.383846	-0.810006	-0.640404
C67	C	1.451089	-0.833456	-0.573279
C68	C	1.792161	-0.216399	-0.506096
C69	C	1.908938	-0.216403	-0.506102
C70	C	1.518195	-0.216344	-0.780114
C71	C	1.518223	-0.216325	-0.896891
C72	C	1.518347	-0.099212	-0.506156
C73	C	1.518441	-0.049277	-0.506188
C74	C	1.451039	-0.245033	-1.061457
C75	C	1.450999	-0.245046	-0.951733
C76	C	1.585485	-0.187585	-0.951778
C77	C	1.585519	-0.187570	-1.061500
C78	C	1.373397	-0.278209	-1.061431
C79	C	1.373357	-0.278222	-0.951706
C80	C	1.518122	-0.216404	-0.233113
C81	C	1.518298	-0.216297	-0.116337
H82	H	0.929784	-0.265961	-0.727955
O83	O	0.927993	-0.319855	-0.624475
C84	C	0.777113	-0.366798	-0.594799
C85	C	0.817488	-0.319813	-0.624424
H86	H	0.687766	-0.366777	-0.594726
H87	H	0.806798	-0.392316	-0.654252
H88	H	0.806898	-0.376078	-0.513406
H89	H	0.787719	-0.310491	-0.705792
H90	H	0.787812	-0.294323	-0.564904
H91	H	1.402495	-0.311255	-1.095436
O92	O	1.126793	-0.159722	-0.373736
C93	C	1.160279	-0.137789	-0.195128
C94	C	1.099925	-0.169426	-0.268950
H95	H	1.138561	-0.145618	-0.110394
H96	H	1.248134	-0.142723	-0.206549
H97	H	1.138766	-0.101580	-0.213804
H98	H	1.121349	-0.205647	-0.250319
H99	H	1.012084	-0.164453	-0.257515
H100	H	1.639928	-0.387393	-0.384235
H101	H	1.292054	-0.268884	-1.091215
O102	O	1.650637	-0.159661	-0.898394
C103	C	1.664830	-0.099001	-0.774623
C104	C	1.590927	-0.130605	-0.834992
H105	H	1.616584	-0.075495	-0.723365
H106	H	1.719696	-0.119607	-0.723160
H107	H	1.712930	-0.078481	-0.832720
H108	H	1.542759	-0.151132	-0.776971
H109	H	1.536130	-0.109973	-0.886471
H110	H	1.640280	-0.164167	-1.106179
H111	H	1.396409	-0.959820	-0.627977
O112	O	1.281077	-0.263366	-0.911286
C113	C	1.107771	-0.235372	-0.947730
C114	C	1.212207	-0.252200	-0.993647
H115	H	1.052068	-0.226331	-1.014296
H116	H	1.071130	-0.262825	-0.897453
H117	H	1.122832	-0.204470	-0.897434
H118	H	1.197235	-0.283094	-1.043990
H119	H	1.248815	-0.224720	-1.043864
O120	O	1.399125	-0.319768	-0.916246
C121	C	1.354567	-0.398245	-0.912766
C122	C	1.325297	-0.351223	-0.953025
H123	H	1.294881	-0.423687	-0.942467
H124	H	1.435896	-0.407619	-0.942534
H125	H	1.354557	-0.398232	-0.823418
H126	H	1.325247	-0.351199	-1.042369
H127	H	1.243986	-0.341867	-0.923177
O128	O	0.910377	-0.159736	-0.373920
C129	C	0.741358	-0.134233	-0.314521
C130	C	0.801745	-0.165853	-0.388302
H131	H	0.653519	-0.139161	-0.326138
H132	H	0.762814	-0.142081	-0.229747
H133	H	0.763049	-0.098020	-0.333108
H134	H	0.780086	-0.202077	-0.369809
H135	H	0.780284	-0.157966	-0.473053
H136	H	1.396056	-0.472541	-0.627869
H137	H	1.640015	-0.472502	-0.384264
H138	H	1.107473	-0.311408	-0.621295
H139	H	1.640353	-0.959788	-0.384362
O140	O	1.318417	-0.691972	-0.705722
C141	C	1.185022	-0.687017	-0.838864
C142	C	1.258963	-0.661235	-0.764944
H143	H	1.136918	-0.662178	-0.886749
H144	H	1.233191	-0.708930	-0.893920
H145	H	1.130162	-0.709036	-0.790585
H146	H	1.313837	-0.639193	-0.813139
H147	H	1.210728	-0.639351	-0.709885
O148	O	1.385523	-0.383666	-0.638355
C149	C	1.325862	-0.311388	-0.697792
C150	C	1.399782	-0.337215	-0.623944
H151	H	1.337349	-0.273828	-0.686151
H152	H	1.344278	-0.320542	-0.782549
H153	H	1.241169	-0.320680	-0.679294
H154	H	1.484499	-0.327937	-0.642347
H155	H	1.381275	-0.328059	-0.539208
H156	H	1.103311	-0.269096	-0.731998
H157	H	1.396458	-1.044929	-0.627979
O158	O	1.717999	-0.599589	-0.306587
C159	C	1.851339	-0.604541	-0.173389
C160	C	1.777335	-0.630324	-0.247243
H161	H	1.899316	-0.629379	-0.125374
H162	H	1.906305	-0.582550	-0.221620
H163	H	1.803119	-0.582600	-0.118441
H164	H	1.825471	-0.652289	-0.302205
H165	H	1.722367	-0.652286	-0.198946
H166	H	1.328958	-0.603243	-0.695053
H167	H	1.707440	-0.743955	-0.317199
O168	O	1.718133	-0.692006	-0.306818
C169	C	1.860100	-0.744886	-0.292891
C170	C	1.785969	-0.719122	-0.366647
H171	H	1.914949	-0.766823	-0.341232
H172	H	1.908195	-0.720051	-0.244976
H173	H	1.811976	-0.766882	-0.237846
H174	H	1.834012	-0.697126	-0.421755
H175	H	1.737870	-0.743982	-0.414489
H176	H	1.707497	-0.829073	-0.317230
O177	O	1.651019	-1.048524	-0.373748
C178	C	1.784449	-1.043569	-0.240639
C179	C	1.710464	-1.017787	-0.314508
H180	H	1.832545	-1.018730	-0.192740
H181	H	1.736315	-1.065562	-0.185594
H182	H	1.839314	-1.065507	-0.288960
H183	H	1.655584	-0.995825	-0.266272
H184	H	1.758663	-0.995822	-0.369556
O185	O	1.318517	-0.832728	-0.705731
C186	C	1.185118	-0.827781	-0.838872
C187	C	1.259054	-0.801995	-0.764954
H188	H	1.137007	-0.802944	-0.886757
H189	H	1.233292	-0.849691	-0.893928
H190	H	1.130265	-0.849802	-0.790591
H191	H	1.313921	-0.779949	-0.813150
H192	H	1.210814	-0.780112	-0.709895
H193	H	1.329048	-0.744001	-0.695059
