data_functionalizedCrystal
_audit_creation_method	'MofGen! by Chris Wilmer'
_symmetry_space_group_name_H-M	'P1'
_symmetry_Int_Tables_number	1
_symmetry_cell_setting	triclinic
loop_
_symmetry_equiv_pos_as_xyz
  x,y,z
_cell_length_a	10.654550
_cell_length_b	12.503552
_cell_length_c	10.654550
_cell_angle_alpha	93.553931
_cell_angle_beta	95.515069
_cell_angle_gamma	93.554123
loop_
_atom_site_label
_atom_site_type_symbol
_atom_site_fract_x
_atom_site_fract_y
_atom_site_fract_z
O1	O	1.675022	0.089240	-0.169209
O2	O	2.175022	0.589240	0.330791
O3	O	1.309545	0.089260	-0.186013
O4	O	1.809545	0.589260	0.313987
O5	O	1.500686	0.089243	0.005128
O6	O	2.000686	0.589243	0.505128
O7	O	1.483881	0.089257	-0.360350
O8	O	1.983881	0.589257	0.139650
O9	O	1.486295	-0.089398	-0.009260
O10	O	1.986295	0.410602	0.490740
O11	O	1.295154	-0.089381	-0.200401
O12	O	1.795154	0.410619	0.299599
O13	O	1.660631	-0.089401	-0.183596
O14	O	2.160631	0.410599	0.316404
Cu15	Cu	1.476578	-0.105703	-0.193312
Cu16	Cu	1.976578	0.394297	0.306688
Cu17	Cu	1.493598	0.105561	-0.176297
Cu18	Cu	1.993598	0.605561	0.323703
O19	O	1.469490	-0.089384	-0.374737
O20	O	1.969490	0.410616	0.125263
C21	C	1.255552	-0.000058	-0.191973
C22	C	1.755552	0.499942	0.308027
C23	C	1.116109	-0.000051	-0.188280
C24	C	1.616109	0.499949	0.311720
N25	N	1.464617	-0.254294	-0.205279
N26	N	1.964617	0.245706	0.294721
C27	C	1.036624	-0.000050	-0.300822
C28	C	1.536624	0.499950	0.199178
C29	C	0.905601	-0.000068	-0.297347
C30	C	1.405601	0.499932	0.202653
C31	C	0.933563	-0.000086	-0.068779
C32	C	1.433563	0.499914	0.431221
C33	C	1.064582	-0.000074	-0.072256
C34	C	1.564582	0.499926	0.427744
C35	C	1.523159	-0.526733	-0.146713
C36	C	2.023159	-0.026733	0.353287
C37	C	1.447031	-0.473402	-0.222882
C38	C	1.947031	0.026598	0.277118
C39	C	1.456818	-0.351479	-0.213085
C40	C	1.956818	0.148521	0.286915
C41	C	1.513373	-0.648666	-0.156509
C42	C	2.013373	-0.148666	0.343491
C43	C	1.714624	-0.000081	-0.177636
C44	C	2.214624	0.499919	0.322364
C45	C	1.854068	-0.000081	-0.181328
C46	C	2.354068	0.499919	0.318672
C47	C	1.492256	-0.000077	0.044732
C48	C	1.992256	0.499923	0.544732
C49	C	1.488565	-0.000075	0.184175
C50	C	1.988565	0.499925	0.684175
N51	N	1.505569	0.254153	-0.164321
N52	N	2.005569	0.754153	0.335679
C53	C	1.477920	-0.000062	-0.414341
C54	C	1.977920	0.499938	0.085659
C55	C	1.481612	-0.000057	-0.553784
C56	C	1.981612	0.499943	-0.053784
C57	C	1.601106	-0.000081	0.263661
C58	C	2.101106	0.499919	0.763661
C59	C	1.597630	-0.000068	0.394682
C60	C	2.097630	0.499932	0.894682
C61	C	1.369063	-0.000048	0.366721
C62	C	1.869063	0.499952	0.866721
C63	C	1.372540	-0.000053	0.235702
C64	C	1.872540	0.499947	0.735702
H65	H	1.078571	-0.000039	-0.395297
H66	H	1.578571	0.499961	0.104703
H67	H	1.274599	-0.000032	0.408690
H68	H	1.774599	0.499968	0.908690
H69	H	1.595679	-0.480829	-0.074151
H70	H	2.095679	0.019171	0.425849
H71	H	0.891593	-0.000111	0.025684
H72	H	1.391593	0.499889	0.525684
H73	H	1.129303	-0.000079	0.019395
H74	H	1.629303	0.499921	0.519395
H75	H	1.374507	-0.519311	-0.295451
H76	H	1.874507	-0.019311	0.204549
H77	H	1.695581	-0.000097	0.221712
H78	H	2.195581	0.499903	0.721712
H79	H	1.689273	-0.000070	0.459395
H80	H	2.189273	0.499930	0.959395
H81	H	0.840888	-0.000070	-0.388990
H82	H	1.340888	0.499930	0.111010
H83	H	1.280890	-0.000045	0.170982
H84	H	1.780890	0.499955	0.670982
