data_functionalizedCrystal
_audit_creation_method	'MofGen! by Chris Wilmer'
_symmetry_space_group_name_H-M	'P1'
_symmetry_Int_Tables_number	1
_symmetry_cell_setting	triclinic
loop_
_symmetry_equiv_pos_as_xyz
  x,y,z
_cell_length_a	12.759395
_cell_length_b	18.101397
_cell_length_c	12.759387
_cell_angle_alpha	89.962982
_cell_angle_beta	89.978972
_cell_angle_gamma	90.021227
loop_
_atom_site_label
_atom_site_type_symbol
_atom_site_fract_x
_atom_site_fract_y
_atom_site_fract_z
Zn1	Zn	1.606227	-0.294775	-0.593974
Zn2	Zn	1.606100	-0.418636	-0.418276
Zn3	Zn	1.430525	-0.294814	-0.418310
Zn4	Zn	1.430499	-0.418581	-0.593913
O5	O	1.518338	-0.356702	-0.506118
O6	O	1.753231	-0.311212	-0.570679
O7	O	1.582767	-0.402249	-0.271259
O8	O	1.453896	-0.191176	-0.441652
O9	O	1.753137	-0.402212	-0.441594
O10	O	1.582983	-0.191148	-0.570712
O11	O	1.453773	-0.311278	-0.271284
O12	O	1.283500	-0.311226	-0.441592
O13	O	1.453853	-0.402119	-0.740942
O14	O	1.283482	-0.402157	-0.570608
O15	O	1.582959	-0.311160	-0.740987
O16	O	1.582742	-0.522261	-0.441535
O17	O	1.453729	-0.522221	-0.570575
C18	C	1.245370	-0.356690	-0.506098
C19	C	1.128593	-0.356703	-0.506114
C20	C	0.909256	-0.262114	-0.640782
C21	C	0.964171	-0.214804	-0.708086
C22	C	1.073892	-0.214792	-0.708068
C23	C	1.128701	-0.262096	-0.640740
C24	C	1.073787	-0.309406	-0.573436
C25	C	0.964063	-0.309412	-0.573460
C26	C	1.073679	-0.404013	-0.438810
C27	C	0.963957	-0.404023	-0.438821
C28	C	1.128488	-0.451317	-0.371482
C29	C	1.073573	-0.498624	-0.304171
C30	C	0.963845	-0.498634	-0.304191
C31	C	0.909042	-0.451333	-0.371517
C32	C	1.518248	-0.549112	-0.506067
C33	C	1.518305	-0.631426	-0.506081
C34	C	1.518439	-0.930517	-0.506176
C35	C	1.599384	-0.899186	-0.424770
C36	C	1.599665	-0.813568	-0.424981
C37	C	1.518373	-0.782135	-0.506128
C38	C	1.548394	-0.813133	-0.616869
C39	C	1.549020	-0.898778	-0.616426
C40	C	1.407258	-0.899029	-0.477799
C41	C	1.407807	-0.813380	-0.475327
C42	C	1.518334	-0.698275	-0.506107
C43	C	1.518481	-1.014377	-0.506204
C44	C	1.792371	-0.356714	-0.506139
C45	C	1.909148	-0.356719	-0.506148
C46	C	1.518417	-0.356629	-0.780152
C47	C	1.518451	-0.356598	-0.896929
C48	C	1.518456	-0.163540	-0.506192
C49	C	1.518507	-0.081226	-0.506224
C50	C	1.652898	-0.261888	-0.896995
C51	C	1.720136	-0.214522	-0.951889
C52	C	1.720162	-0.214495	-1.061611
C53	C	1.652940	-0.261838	-1.116441
C54	C	1.585701	-0.309204	-1.061547
C55	C	1.585685	-0.309227	-0.951823
C56	C	1.451251	-0.403909	-1.061480
C57	C	1.451229	-0.403941	-0.951759
C58	C	1.384028	-0.451252	-1.116310
C59	C	1.316794	-0.498623	-1.061416
C60	C	1.316772	-0.498648	-0.951688
C61	C	1.383990	-0.451307	-0.896865
C62	C	1.518319	-0.356721	-0.233151
C63	C	1.518489	-0.356543	-0.116374
H64	H	0.919533	-0.176292	-0.762905
H65	H	1.652958	-0.261805	-1.205782
H66	H	1.774865	-0.175975	-0.907234
H67	H	1.118207	-0.537139	-0.249364
H68	H	1.379948	-0.920697	-0.398447
H69	H	1.384050	-0.451223	-1.205652
H70	H	1.217829	-0.451308	-0.371478
H71	H	1.491240	-0.792769	-0.679154
H72	H	0.919140	-0.537163	-0.249388
H73	H	0.819701	-0.451328	-0.371527
H74	H	1.580882	-0.792613	-0.342868
H75	H	1.262062	-0.537161	-1.106068
H76	H	1.580828	-0.919836	-0.342411
H77	H	1.630289	-0.918694	-0.640464
H78	H	1.652894	-0.261912	-0.807654
H79	H	1.492646	-0.919500	-0.679170
H80	H	1.681291	-0.920652	-0.443330
H81	H	1.774906	-0.175921	-1.106305
H82	H	0.819915	-0.262104	-0.640781
H83	H	1.628753	-0.791623	-0.641314
H84	H	1.262007	-0.537212	-0.907000
H85	H	1.682022	-0.793022	-0.443756
H86	H	1.344252	-0.791991	-0.530278
H87	H	1.385170	-0.793128	-0.393831
H88	H	1.118604	-0.176269	-0.762874
H89	H	1.218043	-0.262088	-0.640741
H90	H	1.346948	-0.919291	-0.537091
H91	H	1.383983	-0.451326	-0.807523
