data_functionalizedCrystal
_audit_creation_method	'MofGen! by Chris Wilmer'
_symmetry_space_group_name_H-M	'P1'
_symmetry_Int_Tables_number	1
_symmetry_cell_setting	triclinic
loop_
_symmetry_equiv_pos_as_xyz
  x,y,z
_cell_length_a	10.540535
_cell_length_b	10.540539
_cell_length_c	9.016244
_cell_angle_alpha	90.003050
_cell_angle_beta	90.000632
_cell_angle_gamma	84.524567
loop_
_atom_site_label
_atom_site_type_symbol
_atom_site_fract_x
_atom_site_fract_y
_atom_site_fract_z
O1	O	1.685888	0.178876	0.123249
O2	O	1.316474	0.195738	0.123268
O3	O	1.509609	0.002600	0.123259
O4	O	1.492753	0.372013	0.123258
O5	O	1.509598	0.002589	-0.123422
O6	O	1.316463	0.195726	-0.123412
O7	O	1.685877	0.178864	-0.123432
Cu8	Cu	1.501169	0.187294	-0.145946
Cu9	Cu	1.501182	0.187308	0.145782
O10	O	1.492742	0.372002	-0.123423
C11	C	1.269165	0.194469	-0.000069
C12	C	1.128217	0.190689	-0.000061
C13	C	1.091546	0.049675	-0.000067
C14	C	0.944946	0.045698	-0.000641
C15	C	0.918875	0.255053	-0.140672
C16	C	1.065640	0.258053	-0.140775
C17	C	1.065537	0.260118	0.139756
C18	C	0.919190	0.253596	0.141590
C19	C	1.508339	-0.044709	-0.000078
C20	C	1.504557	-0.185657	-0.000067
C21	C	1.733185	0.180133	-0.000091
C22	C	1.874134	0.183913	-0.000089
C23	C	1.494011	0.419311	-0.000083
C24	C	1.497793	0.560259	-0.000084
N25	N	1.501169	0.187284	-0.351132
C26	C	1.642711	0.743683	0.000479
C27	C	1.638877	0.597065	-0.000088
C28	C	1.429892	0.621919	-0.140942
C29	C	1.434707	0.768464	-0.141049
C30	C	1.431849	0.768978	0.139473
C31	C	1.430550	0.621996	0.141324
C32	C	1.604541	0.083981	-0.414061
C33	C	1.604926	0.084267	-0.585952
C34	C	1.530770	0.320184	-0.586604
C35	C	1.531501	0.319566	-0.414659
C36	C	1.367918	0.158904	-0.414514
C37	C	1.368796	0.155917	-0.586470
N38	N	1.501192	0.187308	0.350969
H39	H	0.916489	-0.009675	-0.102012
Cl40	Cl	1.101205	0.417651	-0.150036
Cl41	Cl	0.871165	0.179685	-0.302827
H42	H	1.698440	0.772265	0.101510
Cl43	Cl	1.577574	-0.068142	-0.651128
Cl44	Cl	1.681567	0.357774	-0.352725
Cl45	Cl	1.244387	0.264371	-0.652741
Cl46	Cl	0.843479	0.409348	0.155366
H47	H	1.692667	0.555310	-0.101244
H48	H	1.698262	0.774008	-0.099875
H49	H	1.327692	0.597770	0.149838
Cl50	Cl	1.512172	0.812008	-0.303623
H51	H	1.703800	0.102583	-0.627082
H52	H	1.480168	0.581059	0.245530
H53	H	1.087721	0.363869	0.141116
H54	H	1.290985	0.234220	-0.373816
Cl55	Cl	1.274516	0.841886	0.140946
H56	H	1.333242	0.816434	-0.147448
H57	H	0.915613	-0.009939	0.100114
H58	H	1.133520	-0.004471	0.100733
H59	H	0.871518	0.356818	-0.145504
H60	H	1.108000	0.216121	0.246350
H61	H	0.890593	0.201826	0.245595
Cl62	Cl	1.420684	0.442792	-0.350381
H63	H	1.692312	0.554459	0.100879
H64	H	1.326283	0.599567	-0.146177
Cl65	Cl	1.679137	0.359272	-0.653075
Cl66	Cl	1.502709	0.556167	-0.302803
Cl67	Cl	1.502344	0.817702	0.304317
Cl68	Cl	1.417668	0.441853	-0.649674
H69	H	1.587124	-0.015063	-0.372695
H70	H	1.702850	0.102026	-0.370828
Cl71	Cl	1.324282	0.012350	-0.347592
Cl72	Cl	1.334141	0.005004	-0.649503
H73	H	1.135000	-0.003574	-0.100733
H74	H	1.105807	0.210000	-0.246266
