data_functionalizedCrystal
_audit_creation_method	'MofGen! by Chris Wilmer'
_symmetry_space_group_name_H-M	'P1'
_symmetry_Int_Tables_number	1
_symmetry_cell_setting	triclinic
loop_
_symmetry_equiv_pos_as_xyz
  x,y,z
_cell_length_a	9.130313
_cell_length_b	10.654543
_cell_length_c	10.654550
_cell_angle_alpha	95.516525
_cell_angle_beta	90.005090
_cell_angle_gamma	89.999665
loop_
_atom_site_label
_atom_site_type_symbol
_atom_site_fract_x
_atom_site_fract_y
_atom_site_fract_z
O1	O	0.121795	-1.667839	0.176358
O2	O	0.121798	-1.302359	0.193173
O3	O	0.121787	-1.493502	0.002026
O4	O	0.121806	-1.476696	0.367505
O5	O	-0.121812	-1.493500	0.002017
O6	O	-0.121800	-1.302358	0.193164
O7	O	-0.121804	-1.667837	0.176349
Cu8	Cu	-0.144045	-1.485097	0.184756
Cu9	Cu	0.144039	-1.485099	0.184767
O10	O	-0.121793	-1.476694	0.367496
C11	C	-0.000000	-1.255560	0.191936
C12	C	0.000001	-1.116117	0.188248
N13	N	-0.346667	-1.485105	0.184747
N14	N	0.346662	-1.485102	0.184765
C15	C	-0.000003	-0.905601	0.297316
C16	C	0.000008	-1.036622	0.300791
C17	C	-0.000003	-1.064584	0.072221
C18	C	-0.000004	-0.933565	0.068747
C19	C	0.423309	-1.569900	0.100293
C20	C	0.576645	-1.569905	0.100287
C21	C	0.576675	-1.400302	0.269228
C22	C	0.423341	-1.400304	0.269240
C23	C	-0.000006	-0.714635	0.177592
C24	C	-0.000011	-0.854077	0.181299
C25	C	-0.000011	-1.492267	-0.044776
C26	C	-0.000009	-1.488575	-0.184219
C27	C	-0.000010	-1.601117	-0.263708
C28	C	0.000008	-1.597641	-0.394729
C29	C	0.000021	-1.369071	-0.366760
C30	C	0.000014	-1.372548	-0.235741
C31	C	0.000009	-1.477929	0.414299
C32	C	0.000016	-1.481621	0.553742
H33	H	-0.000008	-0.840885	0.388963
H34	H	-0.000025	-1.695594	-0.221763
Cl35	Cl	0.000006	-0.868787	-0.077115
Cl36	Cl	-0.000009	-1.164520	-0.069264
Cl37	Cl	0.326918	-1.676507	-0.005898
H38	H	0.639047	-1.638957	0.031504
Cl39	Cl	0.673078	-1.293700	0.375415
H40	H	0.360931	-1.331250	0.338033
Cl41	Cl	0.000049	-1.223216	-0.431540
Cl42	Cl	0.000024	-1.101390	0.446649
Cl43	Cl	0.000010	-1.739129	-0.494652
H44	H	0.000019	-1.280897	-0.171018
