data_functionalizedCrystal
_audit_creation_method	'MofGen! by Chris Wilmer'
_symmetry_space_group_name_H-M	'P1'
_symmetry_Int_Tables_number	1
_symmetry_cell_setting	triclinic
loop_
_symmetry_equiv_pos_as_xyz
  x,y,z
_cell_length_a	10.654549
_cell_length_b	11.026607
_cell_length_c	9.130313
_cell_angle_alpha	89.997484
_cell_angle_beta	89.997498
_cell_angle_gamma	96.535397
loop_
_atom_site_label
_atom_site_type_symbol
_atom_site_fract_x
_atom_site_fract_y
_atom_site_fract_z
O1	O	1.704908	0.170765	-0.121760
O2	O	1.342961	0.187035	-0.121770
O3	O	1.493936	0.001995	-0.121761
O4	O	1.553932	0.355806	-0.121770
O5	O	1.493922	0.001989	0.121838
O6	O	1.342947	0.187030	0.121829
O7	O	1.704893	0.170760	0.121838
Cu8	Cu	1.523919	0.178894	0.144076
Cu9	Cu	1.523936	0.178901	-0.144008
O10	O	1.553918	0.355800	0.121829
C11	C	1.295896	0.185838	0.000028
C12	C	1.155677	0.182264	0.000024
C13	C	0.968081	0.287846	0.000027
C14	C	1.099833	0.291213	0.000018
C15	C	1.079763	0.069940	0.000024
C16	C	0.948014	0.066575	0.000022
C17	C	1.482861	-0.043312	0.000037
C18	C	1.449867	-0.178304	0.000030
C19	C	1.540970	-0.251343	0.000031
C20	C	1.506871	-0.390864	0.000024
C21	C	1.751958	0.171957	0.000037
C22	C	1.892177	0.175531	0.000031
C23	C	1.564993	0.401107	0.000028
C24	C	1.597988	0.536099	0.000025
N25	N	1.523916	0.178889	0.346699
N26	N	1.523946	0.178896	-0.346631
C27	C	1.590804	0.096988	0.423355
C28	C	1.590816	0.096988	0.576691
C29	C	1.457050	0.260801	0.576703
C30	C	1.457031	0.260794	0.423369
H31	H	1.125242	-0.018767	0.000019
H32	H	0.886209	-0.024891	0.000020
Cl33	Cl	1.700372	-0.188423	0.000026
H34	H	1.403623	-0.431618	0.000012
Cl35	Cl	1.757397	-0.400991	0.000022
H36	H	1.402557	0.327489	0.360951
H37	H	1.645263	0.030294	0.360933
H38	H	1.346625	-0.219064	0.000018
H39	H	0.922623	0.376565	0.000034
Cl40	Cl	1.195251	0.432416	0.000007
Cl41	Cl	1.674905	-0.005980	0.673055
H42	H	1.402596	0.327489	0.639143
