data_functionalizedCrystal
_audit_creation_method	'MofGen! by Chris Wilmer'
_symmetry_space_group_name_H-M	'P1'
_symmetry_Int_Tables_number	1
_symmetry_cell_setting	triclinic
loop_
_symmetry_equiv_pos_as_xyz
  x,y,z
_cell_length_a	34.490303
_cell_length_b	34.489386
_cell_length_c	34.485816
_cell_angle_alpha	60.004462
_cell_angle_beta	60.008900
_cell_angle_gamma	59.994399
loop_
_atom_site_label
_atom_site_type_symbol
_atom_site_fract_x
_atom_site_fract_y
_atom_site_fract_z
O1	O	0.053846	-0.566517	0.473678
O2	O	0.553846	-0.066517	0.973678
O3	O	0.020329	-0.441078	0.381663
O4	O	0.520329	0.058922	0.881663
O5	O	0.099768	-0.520436	0.381578
O6	O	0.599768	-0.020436	0.881578
O7	O	-0.025592	-0.487159	0.473762
O8	O	0.474408	0.012841	0.973762
O9	O	0.126127	-0.494082	0.407849
O10	O	0.626127	0.005918	0.907849
O11	O	0.046689	-0.414724	0.407933
O12	O	0.546689	0.085276	0.907933
O13	O	0.080206	-0.540163	0.499949
O14	O	0.580206	-0.040163	0.999949
Zn15	Zn	0.067632	-0.473259	0.458112
Zn16	Zn	0.567632	0.026741	0.958112
Zn17	Zn	0.032903	-0.507982	0.423499
Zn18	Zn	0.532903	-0.007982	0.923499
O19	O	0.000767	-0.460805	0.500033
O20	O	0.500767	0.039195	1.000033
N21	N	0.091336	-0.449565	0.481736
N22	N	0.591336	0.050435	0.981736
N23	N	0.009203	-0.531680	0.399875
N24	N	0.509203	-0.031680	0.899875
C25	C	0.142510	-0.268211	0.532817
C26	C	0.642510	0.231789	1.032817
C27	C	0.142641	-0.398441	0.662987
C28	C	0.642641	0.101559	1.162987
C29	C	0.142524	-0.398421	0.532817
C30	C	0.642524	0.101579	1.032817
C31	C	0.272762	-0.398394	0.532723
C32	C	0.772762	0.101606	1.032723
C33	C	0.156853	-0.311177	0.547124
C34	C	0.656853	0.188823	1.047124
C35	C	0.156928	-0.384109	0.620020
C36	C	0.656928	0.115891	1.120020
C37	C	0.229794	-0.384081	0.547073
C38	C	0.729794	0.115919	1.047073
C39	C	0.156863	-0.384097	0.547124
C40	C	0.656863	0.115903	1.047124
C41	C	0.124253	-0.213522	0.514606
C42	C	0.624253	0.286478	1.014606
C43	C	0.124277	-0.416652	0.514606
C44	C	0.624277	0.083348	1.014606
C45	C	0.175110	-0.365866	0.565335
C46	C	0.675110	0.134134	1.065335
C47	C	0.352285	-0.384669	0.490824
C48	C	0.852285	0.115331	0.990824
C49	C	0.401998	-0.401229	0.474223
C50	C	0.901998	0.098771	0.974223
C51	C	0.402027	-0.481671	0.504898
C52	C	0.902027	0.018329	1.004898
C53	C	0.352316	-0.465109	0.521500
C54	C	0.852316	0.034891	1.021500
C55	C	0.136220	-0.188652	0.465734
C56	C	0.636220	0.311348	0.965734
C57	C	0.119621	-0.138936	0.449181
C58	C	0.619621	0.361064	0.949181
C59	C	0.079092	-0.138961	0.530374
C60	C	0.579092	0.361039	1.030374
C61	C	0.095691	-0.188678	0.546927
C62	C	0.595691	0.311322	1.046927
C63	C	0.075398	-0.404656	0.526651
C64	C	0.575398	0.095344	1.026651
C65	C	0.058814	-0.421229	0.510091
C66	C	0.558814	0.078771	1.010091
C67	C	0.139984	-0.461794	0.469452
C68	C	0.639984	0.038206	0.969452
C69	C	0.156570	-0.445221	0.486007
C70	C	0.656570	0.054779	0.986007
C71	C	0.075593	-0.404694	0.742565
C72	C	0.575593	0.095306	1.242565
C73	C	0.059066	-0.421281	0.792280
C74	C	0.559066	0.078719	1.292280
C75	C	0.140274	-0.461856	0.792215
C76	C	0.640274	0.038144	1.292215
C77	C	0.156800	-0.445269	0.742499
C78	C	0.656800	0.054731	1.242499
C79	C	0.124458	-0.416687	0.717675
C80	C	0.624458	0.083313	1.217675
C81	C	0.327446	-0.416608	0.514460
C82	C	0.827446	0.083392	1.014460
C83	C	-0.023585	-0.564792	0.161919
C84	C	0.476415	-0.064792	0.661919
C85	C	-0.023910	-0.769260	0.366530
C86	C	0.476090	-0.269260	0.866530
C87	C	-0.023880	-0.564780	0.366623
C88	C	0.476120	-0.064780	0.866623
C89	C	-0.228325	-0.564561	0.366222
C90	C	0.271675	-0.064561	0.866222
C91	C	-0.129610	-0.597564	0.333467
C92	C	0.370390	-0.097564	0.833467
C93	C	-0.056729	-0.597644	0.333613
C94	C	0.443271	-0.097644	0.833613
C95	C	-0.074925	-0.615849	0.315324
C96	C	0.425075	-0.115849	0.815324
C97	C	-0.088689	-0.695351	0.357144
C98	C	0.411311	-0.195351	0.857144
C99	C	-0.072155	-0.745068	0.373736
C100	C	0.427845	-0.245068	0.873736
C101	C	0.008283	-0.745150	0.343188
C102	C	0.508283	-0.245150	0.843188
C103	C	-0.008252	-0.695435	0.326596
C104	C	0.491748	-0.195435	0.826596
C105	C	-0.154529	-0.609541	0.382326
C106	C	0.345471	-0.109541	0.882326
C107	C	-0.204241	-0.592916	0.398818
C108	C	0.295759	-0.092916	0.898818
C109	C	-0.204114	-0.552341	0.317588
C110	C	0.295886	-0.052341	0.817588
C111	C	-0.154401	-0.568966	0.301096
C112	C	0.345599	-0.068966	0.801096
C113	C	-0.068707	-0.548770	0.321590
C114	C	0.431293	-0.048770	0.821590
C115	C	-0.052166	-0.532225	0.338221
C116	C	0.447834	-0.032225	0.838221
C117	C	-0.011669	-0.613425	0.378886
C118	C	0.488331	-0.113425	0.878886
C119	C	-0.028210	-0.629972	0.362261
C120	C	0.471790	-0.129972	0.862261
C121	C	-0.068581	-0.548777	0.235758
C122	C	0.431419	-0.048777	0.735758
C123	C	-0.051939	-0.532234	0.186043
C124	C	0.448061	-0.032234	0.686043
C125	C	-0.011379	-0.613438	0.186090
C126	C	0.488621	-0.113438	0.686090
C127	C	-0.028020	-0.629981	0.235806
C128	C	0.471980	-0.129981	0.735806
C129	C	-0.056622	-0.597649	0.260639
C130	C	0.443378	-0.097649	0.760639
C131	C	-0.056739	-0.670537	0.333576
C132	C	0.443261	-0.170537	0.833576
C133	C	-0.005614	-0.545951	0.107238
C134	C	0.494386	-0.045951	0.607238
C135	C	-0.006360	-0.823943	0.385033
C136	C	0.493640	-0.323943	0.885033
C137	C	-0.005995	-0.545937	0.384582
C138	C	0.494005	-0.045937	0.884582
C139	C	-0.283006	-0.545971	0.383725
C140	C	0.216994	-0.045971	0.883725
N141	N	0.426163	-0.449489	0.481488
N142	N	0.926163	0.050511	0.981488
O143	O	0.588601	-0.457377	0.364497
O144	O	1.088601	0.042623	0.864497
O145	O	0.588789	-0.549696	0.489801
O146	O	1.088789	-0.049696	0.989801
O147	O	0.588709	-0.549485	0.410335
O148	O	1.088709	-0.049485	0.910335
O149	O	0.588681	-0.457588	0.443963
O150	O	1.088681	0.042412	0.943963
O151	O	0.509731	-0.523223	0.436741
O152	O	1.009731	-0.023223	0.936741
O153	O	0.509811	-0.523434	0.516207
O154	O	1.009811	-0.023434	1.016207
O155	O	0.509624	-0.431115	0.390903
O156	O	1.009624	0.068885	0.890903
Zn157	Zn	0.497178	-0.473105	0.457747
Zn158	Zn	0.997178	0.026895	0.957747
Zn159	Zn	0.601234	-0.507706	0.422956
Zn160	Zn	1.101234	-0.007706	0.922956
O161	O	0.509704	-0.431326	0.470368
O162	O	1.009704	0.068674	0.970368
N163	N	0.672250	-0.531322	0.399211
N164	N	1.172250	-0.031322	0.899211
N165	N	0.091303	-0.114798	0.481730
N166	N	0.591303	0.385202	0.981730
O167	O	-0.025603	0.047729	0.473733
O168	O	0.474397	0.547729	0.973733
O169	O	0.099703	0.047764	0.381394
O170	O	0.599703	0.547764	0.881394
O171	O	0.020199	0.047731	0.381655
O172	O	0.520199	0.547731	0.881655
O173	O	0.053901	0.047761	0.473472
O174	O	0.553901	0.547761	0.973472
O175	O	0.046564	-0.031252	0.407974
O176	O	0.546564	0.468748	0.907974
O177	O	0.126068	-0.031219	0.407713
O178	O	0.626068	0.468781	0.907713
O179	O	0.000762	-0.031254	0.500052
O180	O	0.500762	0.468746	1.000052
Zn181	Zn	0.067601	-0.043777	0.458061
Zn182	Zn	0.567601	0.456223	0.958061
Zn183	Zn	0.032864	0.060287	0.423385
Zn184	Zn	0.532864	0.560287	0.923385
O185	O	0.080266	-0.031222	0.499791
O186	O	0.580266	0.468778	0.999791
N187	N	0.009156	0.131307	0.399717
N188	N	0.509156	0.631307	0.899717
N189	N	0.091635	-0.449614	0.816396
N190	N	0.591635	0.050386	1.316396
O191	O	0.083664	-0.566502	0.978913
O192	O	0.583664	-0.066502	1.478913
O193	O	-0.008637	-0.441152	0.978954
O194	O	0.491363	0.058848	1.478954
O195	O	-0.008421	-0.520640	0.978930
O196	O	0.491579	-0.020640	1.478930
O197	O	0.083448	-0.487013	0.978936
O198	O	0.583448	0.012987	1.478936
O199	O	0.017877	-0.494296	0.899950
O200	O	0.517877	0.005704	1.399950
O201	O	0.017661	-0.414807	0.899974
O202	O	0.517661	0.085193	1.399974
O203	O	0.109961	-0.540157	0.899933
O204	O	0.609961	-0.040157	1.399933
Zn205	Zn	0.067986	-0.473299	0.887414
Zn206	Zn	0.567986	0.026701	1.387414
Zn207	Zn	0.033338	-0.508010	0.991473
Zn208	Zn	0.533338	-0.008010	1.491473
O209	O	0.109746	-0.460669	0.899956
O210	O	0.609746	0.039331	1.399956
N211	N	0.009689	-0.531700	1.062491
N212	N	0.509689	-0.031700	1.562491
C213	C	0.030367	-0.412095	0.382120
C214	C	0.530367	0.087905	0.882120
C215	C	0.128741	-0.510370	0.382016
C216	C	0.628741	-0.010370	0.882016
C217	C	0.070168	-0.569147	0.499490
C218	C	0.570168	-0.069147	0.999490
C219	C	-0.028207	-0.470871	0.499595
C220	C	0.471793	0.029129	0.999595
C221	C	0.549323	-0.549278	0.518791
C222	C	1.049323	-0.049278	1.018791
C223	C	0.549225	-0.549017	0.420381
C224	C	1.049225	-0.049017	0.920381
C225	C	0.549087	-0.431532	0.361914
C226	C	1.049087	0.068468	0.861914
C227	C	0.549188	-0.431794	0.460322
C228	C	1.049188	0.068206	0.960322
C229	C	0.128638	0.008374	0.381806
C230	C	0.628638	0.508374	0.881806
C231	C	0.030215	0.008236	0.382161
C232	C	0.530215	0.508236	0.882161
C233	C	-0.028206	0.008233	0.499608
C234	C	0.471794	0.508233	0.999608
C235	C	0.070250	0.008272	0.499285
C236	C	0.570250	0.508272	0.999285
C237	C	-0.008199	-0.412187	0.939469
C238	C	0.491801	0.087813	1.439469
C239	C	-0.007927	-0.510619	0.939425
C240	C	0.492073	-0.010619	1.439425
C241	C	0.109523	-0.569121	0.939417
C242	C	0.609523	-0.069121	1.439417
C243	C	0.109257	-0.470684	0.939444
C244	C	0.609257	0.029316	1.439444
H245	H	0.019274	-0.411508	0.812539
H246	H	0.519274	0.088492	1.312539
H247	H	0.047765	-0.765423	0.337508
H248	H	0.547765	-0.265423	0.837508
H249	H	0.077330	-0.605181	0.528391
H250	H	0.577330	-0.105181	1.028391
H251	H	0.023205	-0.376060	0.353221
H252	H	0.523205	0.123940	0.853221
H253	H	0.166612	-0.485121	0.812425
H254	H	0.666612	0.014879	1.312425
O255	O	0.078908	0.008190	0.533718
O256	O	0.578908	0.508190	1.033718
C257	C	0.117389	-0.032703	0.544595
C258	C	0.617389	0.467297	1.044595
H259	H	0.121123	-0.061294	0.534166
H260	H	0.621123	0.438706	1.034166
H261	H	0.110729	-0.046440	0.584325
H262	H	0.610729	0.453560	1.084325
H263	H	0.151429	-0.023444	0.524092
H264	H	0.651429	0.476556	1.024092
H265	H	0.549371	-0.578259	0.554780
H266	H	1.049371	-0.078259	1.054780
O267	O	0.549241	-0.397411	0.468938
O268	O	1.049241	0.102589	0.968938
C269	C	0.590178	-0.413739	0.480058
C270	C	1.090178	0.086261	0.980058
H271	H	0.603856	-0.454220	0.493675
H272	H	1.103856	0.045780	0.993675
H273	H	0.581000	-0.400022	0.508633
H274	H	1.081000	0.099978	1.008633
H275	H	0.618781	-0.400177	0.446859
H276	H	1.118781	0.099823	0.946859
H277	H	-0.134345	-0.632833	0.408685
H278	H	0.365655	-0.132833	0.908685
H279	H	-0.098172	-0.765271	0.392919
H280	H	0.401828	-0.265271	0.892919
H281	H	-0.064192	0.008222	0.528596
H282	H	0.435808	0.508222	1.028596
O283	O	0.549153	-0.583416	0.411807
O284	O	1.049153	-0.083416	0.911807
C285	C	0.508229	-0.567081	0.400661
C286	C	1.008229	-0.067081	0.900661
H287	H	0.479634	-0.537609	0.416012
H288	H	0.979634	-0.037609	0.916012
H289	H	0.494532	-0.597683	0.416511
H290	H	0.994532	-0.097683	0.916511
H291	H	0.517428	-0.552742	0.360449
H292	H	1.017428	-0.052742	0.860449
O293	O	-0.042726	-0.369221	0.939504
O294	O	0.457274	0.130779	1.439504
C295	C	-0.025629	-0.339664	0.939499
C296	C	0.474371	0.160336	1.439499
H297	H	0.004863	-0.362499	0.954444
H298	H	0.504863	0.137501	1.454444
H299	H	-0.055469	-0.316916	0.962439
H300	H	0.444531	0.183084	1.462439
H301	H	-0.012457	-0.315676	0.901611
H302	H	0.487543	0.184324	1.401611
O303	O	0.144140	-0.612032	0.939318
O304	O	0.644140	-0.112032	1.439318
C305	C	0.184146	-0.605764	0.898417
C306	C	0.684146	-0.105764	1.398417
H307	H	0.172689	-0.570987	0.869836
H308	H	0.672689	-0.070987	1.369836
H309	H	0.201146	-0.636567	0.884675
H310	H	0.701146	-0.136567	1.384675
H311	H	0.210953	-0.604671	0.907665
H312	H	0.710953	-0.104671	1.407665
O313	O	-0.042286	-0.519256	0.939361
O314	O	0.457714	-0.019256	1.439361
C315	C	-0.024986	-0.565938	0.939346
C316	C	0.475014	-0.065938	1.439346
H317	H	0.015463	-0.578440	0.924411
H318	H	0.515463	-0.078440	1.424411
H319	H	-0.039428	-0.566607	0.916386
H320	H	0.460572	-0.066607	1.416386
H321	H	-0.037004	-0.590514	0.977226
H322	H	0.462996	-0.090514	1.477226
O323	O	0.143646	-0.462017	0.939418
O324	O	0.643646	0.037983	1.439418
C325	C	0.126343	-0.415338	0.939443
C326	C	0.626343	0.084662	1.439443
H327	H	0.095849	-0.392869	0.924502
H328	H	0.595849	0.107131	1.424502
H329	H	0.156077	-0.399358	0.916511
H330	H	0.656077	0.100642	1.416511
H331	H	0.113112	-0.416042	0.977337
H332	H	0.613112	0.083958	1.477337
H333	H	0.164551	0.008603	0.352745
H334	H	0.664551	0.508603	0.852745
O335	O	-0.071138	-0.462366	0.534145
O336	O	0.428862	0.037634	1.034145
C337	C	-0.079635	-0.423925	0.545100
C338	C	0.420365	0.076075	1.045100
H339	H	-0.044374	-0.420104	0.534586
H340	H	0.455626	0.079896	1.034586
H341	H	-0.098841	-0.430704	0.584856
H342	H	0.401159	0.069296	1.084856
H343	H	-0.102561	-0.389883	0.524719
H344	H	0.397439	0.110117	1.024719
O345	O	0.171726	-0.518898	0.347538
O346	O	0.671726	-0.018898	0.847538
C347	C	0.201240	-0.565564	0.364692
C348	C	0.701240	-0.065564	0.864692
H349	H	0.188361	-0.578142	0.405142
H350	H	0.688361	-0.078142	0.905142
H351	H	0.239292	-0.566160	0.350140
H352	H	0.739292	-0.066160	0.850140
H353	H	0.199931	-0.590123	0.352666
H354	H	0.699931	-0.090123	0.852666
H355	H	0.049253	-0.381417	0.722357
H356	H	0.549253	0.118583	1.222357
H357	H	0.549027	-0.402547	0.325928
H358	H	1.049027	0.097453	0.825928
H359	H	0.022995	0.008233	0.353314
H360	H	0.522995	0.508233	0.853314
H361	H	0.196592	-0.455039	0.722237
H362	H	0.696592	0.044961	1.222237
H363	H	0.019013	-0.411451	0.519888
H364	H	0.519013	0.088549	1.019888
O365	O	0.044009	-0.376833	0.554357
O366	O	0.544009	0.123167	1.054357
C367	C	0.015229	-0.335144	0.529283
C368	C	0.515229	0.164856	1.029283
H369	H	0.034397	-0.328222	0.489505
H370	H	0.534397	0.171778	0.989505
H371	H	0.007715	-0.303829	0.538179
H372	H	0.507715	0.196171	1.038179
H373	H	-0.019697	-0.339669	0.539888
H374	H	0.480303	0.160331	1.039888
O375	O	0.171420	-0.489528	0.441661
O376	O	0.671420	0.010472	0.941661
C377	C	0.218118	-0.496573	0.434595
C378	C	0.718118	0.003427	0.934595
H379	H	0.218032	-0.466601	0.440148
H380	H	0.718032	0.033399	0.940148
H381	H	0.241693	-0.496822	0.396882
H382	H	0.741693	0.003178	0.896882
H383	H	0.232390	-0.531992	0.461039
H384	H	0.732390	-0.031992	0.961039
H385	H	0.196371	-0.454985	0.476195
H386	H	0.696371	0.045015	0.976195
H387	H	0.332093	-0.491119	0.540748
H388	H	0.832093	0.008881	1.040748
H389	H	0.422223	-0.375220	0.454977
H390	H	0.922223	0.124780	0.954977
O391	O	0.426112	-0.528801	0.511791
O392	O	0.926112	-0.028801	1.011791
C393	C	0.393528	-0.553440	0.536203
C394	C	0.893528	-0.053440	1.036203
H395	H	0.358098	-0.531760	0.556591
H396	H	0.858098	-0.031760	1.056591
H397	H	0.407921	-0.589292	0.562142
H398	H	0.907921	-0.089292	1.062142
H399	H	0.388217	-0.559194	0.509616
H400	H	0.888217	-0.059194	1.009616
H401	H	0.159477	-0.208876	0.439413
H402	H	0.659477	0.291124	0.939413
O403	O	0.328200	-0.337542	0.483966
O404	O	0.828200	0.162458	0.983966
C405	C	0.360787	-0.312903	0.459533
C406	C	0.860787	0.187097	0.959533
H407	H	0.396239	-0.338415	0.465247
H408	H	0.896239	0.161585	0.965247
H409	H	0.346431	-0.282923	0.473612
H410	H	0.846431	0.217077	0.973612
H411	H	0.366044	-0.297448	0.419985
H412	H	0.866044	0.202552	0.919985
H413	H	0.129365	-0.118686	0.409385
H414	H	0.629365	0.381314	0.909385
H415	H	-0.224299	-0.529059	0.291228
H416	H	0.275701	-0.029059	0.791228
H417	H	0.055841	-0.118733	0.556693
H418	H	0.555841	0.381267	1.056693
H419	H	-0.061683	-0.492436	0.165791
H420	H	0.438317	0.007564	0.665791
O421	O	0.084121	-0.212800	0.594408
O422	O	0.584121	0.287200	1.094408
C423	C	0.101135	-0.200622	0.615018
C424	C	0.601135	0.299378	1.115018
H425	H	0.131781	-0.186950	0.586688
H426	H	0.631781	0.313050	1.086688
H427	H	0.114068	-0.233308	0.644320
H428	H	0.614068	0.266692	1.144320
H429	H	0.071316	-0.171762	0.630711
H430	H	0.571316	0.328238	1.130711
O431	O	-0.096290	-0.517353	0.259863
O432	O	0.403710	-0.017353	0.759863
C433	C	-0.071179	-0.488641	0.247757
C434	C	0.428821	0.011359	0.747757
H435	H	-0.031407	-0.507874	0.234142
H436	H	0.468593	-0.007874	0.734142
H437	H	-0.080107	-0.481123	0.280463
H438	H	0.419893	0.018877	0.780463
H439	H	-0.081717	-0.453711	0.218876
H440	H	0.418283	0.046289	0.718876
O441	O	0.016342	-0.644893	0.162024
O442	O	0.516342	-0.144893	0.662024
C443	C	-0.008780	-0.673587	0.174115
C444	C	0.491220	-0.173587	0.674115
H445	H	-0.037758	-0.674036	0.210180
H446	H	0.462242	-0.174036	0.710180
H447	H	0.016706	-0.711307	0.175856
H448	H	0.516706	-0.211307	0.675856
H449	H	-0.025601	-0.658622	0.146085
H450	H	0.474399	-0.158622	0.646085
O451	O	-0.096481	-0.517346	0.293836
O452	O	0.403519	-0.017346	0.793836
C453	C	-0.138183	-0.488561	0.318889
C454	C	0.361817	0.011439	0.818889
H455	H	-0.145153	-0.507746	0.358672
H456	H	0.354847	-0.007746	0.858672
H457	H	-0.169470	-0.481011	0.309929
H458	H	0.330530	0.018989	0.809929
H459	H	-0.133649	-0.453650	0.308325
H460	H	0.366351	0.046350	0.808325
O461	O	-0.063731	-0.484745	0.326458
O462	O	0.436269	0.015255	0.826458
C463	C	-0.046659	-0.464135	0.276666
C464	C	0.453341	0.035865	0.776666
H465	H	-0.016000	-0.492476	0.260684
H466	H	0.484000	0.007524	0.760684
H467	H	-0.033726	-0.434861	0.267178
H468	H	0.466274	0.065139	0.767178
H469	H	-0.076443	-0.448403	0.261871
H470	H	0.423557	0.051597	0.761871
O471	O	-0.016486	-0.677446	0.260028
O472	O	0.483514	-0.177446	0.760028
C473	C	-0.058280	-0.689410	0.288710
C474	C	0.441720	-0.189410	0.788710
H475	H	-0.089509	-0.656624	0.296115
H476	H	0.410491	-0.156624	0.796115
H477	H	-0.053891	-0.718235	0.323694
H478	H	0.446109	-0.218235	0.823694
H479	H	-0.065236	-0.703046	0.269516
H480	H	0.434764	-0.203046	0.769516
H481	H	0.011557	-0.639751	0.402207
H482	H	0.511557	-0.139751	0.902207
H483	H	-0.018458	-0.669769	0.372051
H484	H	0.481542	-0.169769	0.872051
H485	H	0.017768	-0.675232	0.307405
H486	H	0.517768	-0.175232	0.807405
H487	H	-0.224531	-0.602667	0.438605
H488	H	0.275469	-0.102667	0.938605
O489	O	-0.135779	-0.671183	0.363847
O490	O	0.364221	-0.171183	0.863847
C491	C	-0.150915	-0.683325	0.341470
C492	C	0.349085	-0.183325	0.841470
H493	H	-0.119137	-0.697032	0.312137
H494	H	0.380863	-0.197032	0.812137
H495	H	-0.178248	-0.650612	0.325479
H496	H	0.321752	-0.150612	0.825479
H497	H	-0.167599	-0.712149	0.368700
H498	H	0.332401	-0.212149	0.868700
O499	O	-0.130265	-0.557308	0.253616
O500	O	0.369735	-0.057308	0.753616
C501	C	-0.162807	-0.528491	0.228581
C502	C	0.337193	-0.028491	0.728581
H503	H	-0.198266	-0.534791	0.252238
H504	H	0.301734	-0.034791	0.752238
H505	H	-0.148402	-0.537824	0.195403
H506	H	0.351598	-0.037824	0.695403
H507	H	-0.168065	-0.489558	0.217860
H508	H	0.331935	0.010442	0.717860
