data_functionalizedCrystal
_audit_creation_method	'MofGen! by Chris Wilmer'
_symmetry_space_group_name_H-M	'P1'
_symmetry_Int_Tables_number	1
_symmetry_cell_setting	triclinic
loop_
_symmetry_equiv_pos_as_xyz
  x,y,z
_cell_length_a	17.699083
_cell_length_b	17.699083
_cell_length_c	16.776229
_cell_angle_alpha	90.004308
_cell_angle_beta	89.999727
_cell_angle_gamma	83.283015
loop_
_atom_site_label
_atom_site_type_symbol
_atom_site_fract_x
_atom_site_fract_y
_atom_site_fract_z
O1	O	1.004077	0.095710	0.066178
O2	O	1.504077	0.595710	0.566178
O3	O	0.783699	0.108162	0.066204
O4	O	1.283699	0.608162	0.566204
O5	O	0.900114	-0.008253	0.066183
O6	O	1.400114	0.491747	0.566183
O7	O	0.887662	0.212125	0.066199
O8	O	1.387662	0.712125	0.566199
O9	O	0.900101	-0.008254	-0.066393
O10	O	1.400101	0.491746	0.433607
O11	O	0.783686	0.108162	-0.066372
O12	O	1.283686	0.608162	0.433628
O13	O	1.004064	0.095709	-0.066398
O14	O	1.504064	0.595709	0.433602
Zn15	Zn	0.893873	0.101935	-0.087435
Zn16	Zn	1.393873	0.601935	0.412565
Zn17	Zn	0.893890	0.101936	0.087241
Zn18	Zn	1.393890	0.601936	0.587241
O19	O	0.887649	0.212125	-0.066378
O20	O	1.387649	0.712125	0.433622
C21	C	0.755495	0.107716	-0.000081
C22	C	1.255495	0.607716	0.499919
C23	C	0.671477	0.106377	-0.000071
C24	C	1.171477	0.606377	0.499929
C25	C	0.899662	-0.036451	-0.000105
C26	C	1.399662	0.463549	0.499895
C27	C	0.898323	-0.120469	-0.000105
C28	C	1.398323	0.379531	0.499895
C29	C	0.622856	0.174710	-0.000066
C30	C	1.122856	0.674710	0.499934
C31	C	0.543913	0.173448	-0.000077
C32	C	1.043913	0.673448	0.499923
C33	C	0.513592	0.103852	-0.000086
C34	C	1.013592	0.603852	0.499914
C35	C	0.562219	0.035513	-0.000093
C36	C	1.062219	0.535513	0.499907
C37	C	0.641161	0.036776	-0.000088
C38	C	1.141161	0.536776	0.499912
C39	C	0.243856	0.030418	-0.000113
C40	C	0.743856	0.530418	0.499887
C41	C	0.164908	0.029160	-0.000115
C42	C	0.664908	0.529160	0.499885
C43	C	0.146608	0.167090	-0.000101
C44	C	0.646608	0.667090	0.499899
C45	C	0.225550	0.168353	-0.000097
C46	C	0.725550	0.668353	0.499903
C47	C	0.274170	0.100015	-0.000108
C48	C	0.774170	0.600015	0.499892
C49	C	0.359769	0.101384	-0.000098
C50	C	0.859769	0.601384	0.499902
C51	C	0.427995	0.102481	-0.000090
C52	C	0.927995	0.602481	0.499910
C53	C	0.966656	-0.169090	-0.000114
C54	C	1.466656	0.330910	0.499886
C55	C	0.965394	-0.248033	-0.000107
C56	C	1.465394	0.251967	0.499893
C57	C	0.895798	-0.278354	-0.000096
C58	C	1.395798	0.221646	0.499904
C59	C	0.827459	-0.229727	-0.000085
C60	C	1.327459	0.270273	0.499915
C61	C	0.828722	-0.150785	-0.000086
C62	C	1.328722	0.349215	0.499914
C63	C	0.822364	-0.548090	-0.000078
C64	C	1.322364	-0.048090	0.499922
C65	C	0.821106	-0.627038	-0.000078
C66	C	1.321106	-0.127038	0.499922
C67	C	0.959036	-0.645338	-0.000099
C68	C	1.459036	-0.145338	0.499901
C69	C	0.960299	-0.566396	-0.000100
C70	C	1.460299	-0.066396	0.499900
C71	C	0.891961	-0.517776	-0.000084
C72	C	1.391961	-0.017776	0.499916
C73	C	0.893330	-0.432177	-0.000090
C74	C	1.393330	0.067823	0.499910
C75	C	0.894427	-0.363951	-0.000096
C76	C	1.394427	0.136049	0.499904
C77	C	1.032268	0.096156	-0.000112
C78	C	1.532268	0.596156	0.499888
C79	C	1.116286	0.097494	-0.000116
C80	C	1.616286	0.597494	0.499884
C81	C	0.888102	0.240322	-0.000087
C82	C	1.388102	0.740322	0.499913
C83	C	0.889440	0.324340	-0.000082
C84	C	1.389440	0.824340	0.499918
N85	N	0.893867	0.101935	-0.206646
N86	N	1.393867	0.601935	0.293354
C87	C	0.939682	0.147783	-0.248362
C88	C	1.439682	0.647783	0.251638
C89	C	0.939690	0.147781	-0.331814
C90	C	1.439690	0.647781	0.168186
C91	C	0.893879	0.101933	-0.373549
C92	C	1.393879	0.601933	0.126451
C93	C	0.848062	0.056079	-0.331827
C94	C	1.348062	0.556079	0.168173
C95	C	0.848058	0.056078	-0.248376
C96	C	1.348058	0.556078	0.251624
C97	C	0.848077	0.056080	-0.668374
C98	C	1.348077	0.556080	-0.168374
C99	C	0.848083	0.056085	-0.751831
C100	C	1.348083	0.556085	-0.251831
C101	C	0.939709	0.147782	-0.751812
C102	C	1.439709	0.647782	-0.251812
C103	C	0.939705	0.147781	-0.668361
C104	C	1.439705	0.647781	-0.168361
C105	C	0.893892	0.101925	-0.626647
C106	C	1.393892	0.601925	-0.126647
C107	C	0.893884	0.101927	-0.536158
C108	C	1.393884	0.601927	-0.036158
C109	C	0.893882	0.101933	-0.464036
C110	C	1.393882	0.601933	0.035964
N111	N	0.893903	0.101931	0.206452
N112	N	1.393903	0.601931	0.706452
H113	H	0.647537	0.231384	-0.000058
H114	H	1.147537	0.731384	0.499942
H115	H	0.283434	-0.025228	-0.000123
H116	H	0.783434	0.474772	0.499877
Cl117	Cl	0.482792	0.259357	-0.000066
Cl118	Cl	0.982792	0.759357	0.499934
H119	H	1.014680	-0.684934	-0.000107
H120	H	1.514680	-0.184934	0.499893
Cl121	Cl	0.790468	-0.001571	-0.195933
Cl122	Cl	1.290468	0.498429	0.304067
H123	H	0.107012	0.222734	-0.000097
H124	H	0.607012	0.722734	0.499903
H125	H	0.976999	0.185114	-0.365776
H126	H	1.476999	0.685114	0.134224
Cl127	Cl	0.790472	-0.001561	-0.384294
Cl128	Cl	1.290472	0.498439	0.115706
H129	H	0.810773	0.018740	-0.634420
H130	H	1.310773	0.518740	-0.134420
H131	H	0.977007	0.185119	-0.634385
H132	H	1.477007	0.685119	-0.134385
Cl133	Cl	0.997275	0.205425	-0.195904
Cl134	Cl	1.497275	0.705425	0.304096
H135	H	0.977015	0.185119	-0.785786
H136	H	1.477015	0.685119	-0.285786
H137	H	0.250232	0.225025	-0.000085
H138	H	0.750232	0.725025	0.499915
Cl139	Cl	0.790488	-0.001558	-0.804296
Cl140	Cl	1.290488	0.498442	-0.304296
Cl141	Cl	0.126793	-0.058340	-0.000127
Cl142	Cl	0.626793	0.441660	0.499873
H143	H	0.537526	-0.021154	-0.000112
H144	H	1.037526	0.478846	0.499888
Cl145	Cl	0.733606	-0.665153	-0.000063
Cl146	Cl	1.233606	-0.165153	0.499937
H147	H	0.680748	-0.018868	-0.000091
H148	H	1.180748	0.481132	0.499909
H149	H	1.023330	-0.144409	-0.000128
H150	H	1.523330	0.355591	0.499872
H151	H	1.021038	-0.287618	-0.000116
H152	H	1.521038	0.212382	0.499884
Cl153	Cl	1.047795	-0.528283	-0.000111
Cl154	Cl	1.547795	-0.028283	0.499889
H155	H	0.766718	-0.508512	-0.000065
H156	H	1.266718	-0.008512	0.499935
Cl157	Cl	0.739966	-0.267844	-0.000061
Cl158	Cl	1.239966	0.232156	0.499939
H159	H	0.773078	-0.111198	-0.000078
H160	H	1.273078	0.388802	0.499922
