data_functionalizedCrystal
_audit_creation_method	'MofGen! by Chris Wilmer'
_symmetry_space_group_name_H-M	'P1'
_symmetry_Int_Tables_number	1
_symmetry_cell_setting	triclinic
loop_
_symmetry_equiv_pos_as_xyz
  x,y,z
_cell_length_a	12.594517
_cell_length_b	12.594516
_cell_length_c	17.077396
_cell_angle_alpha	90.023494
_cell_angle_beta	89.979204
_cell_angle_gamma	89.973836
loop_
_atom_site_label
_atom_site_type_symbol
_atom_site_fract_x
_atom_site_fract_y
_atom_site_fract_z
Zn1	Zn	1.627173	0.423758	-0.443897
Zn2	Zn	2.127173	0.923758	0.056103
Zn3	Zn	1.627035	0.601759	-0.312642
Zn4	Zn	2.127035	1.101759	0.187358
Zn5	Zn	1.449181	0.423793	-0.312642
Zn6	Zn	1.949181	0.923793	0.187358
Zn7	Zn	1.449126	0.601693	-0.443863
Zn8	Zn	1.949126	1.101693	0.056137
O9	O	1.538129	0.512751	-0.378261
O10	O	2.038129	1.012751	0.121739
O11	O	1.776101	0.447383	-0.426500
O12	O	2.276101	0.947383	0.073500
O13	O	1.603408	0.578194	-0.202795
O14	O	2.103408	1.078194	0.297205
O15	O	1.472873	0.274843	-0.330067
O16	O	1.972873	0.774843	0.169933
O17	O	1.775999	0.578160	-0.330068
O18	O	2.275999	1.078160	0.169932
O19	O	1.603643	0.274817	-0.426500
O20	O	2.103643	0.774817	0.073500
O21	O	1.472740	0.447443	-0.202795
O22	O	1.972740	0.947443	0.297205
O23	O	1.300228	0.447379	-0.330034
O24	O	1.800228	0.947379	0.169966
O25	O	1.472779	0.578048	-0.553715
O26	O	1.972779	1.078048	-0.053715
O27	O	1.300188	0.578082	-0.426442
O28	O	1.800188	1.078082	0.073558
O29	O	1.603589	0.447320	-0.553740
O30	O	2.103589	0.947320	-0.053740
O31	O	1.603354	0.750696	-0.330035
O32	O	2.103354	1.250696	0.169965
O33	O	1.472645	0.750648	-0.426442
O34	O	1.972645	1.250648	0.073558
C35	C	1.261588	0.512728	-0.378235
C36	C	1.761588	1.012728	0.121765
C37	C	1.143282	0.512744	-0.378242
C38	C	1.643282	1.012744	0.121758
C39	C	1.538008	0.789292	-0.378252
C40	C	2.038008	1.289292	0.121748
C41	C	1.538053	0.907597	-0.378275
C42	C	2.038053	1.407597	0.121725
C43	C	1.003257	0.441576	-0.325926
C44	C	1.503257	0.941576	0.174074
C45	C	1.074118	0.415648	-0.397556
C46	C	1.574118	0.915648	0.102444
C47	C	1.073993	0.538624	-0.306620
C48	C	1.573993	1.038624	0.193380
C49	C	1.003358	0.486807	-0.449967
C50	C	1.503358	0.986807	0.050033
C51	C	1.003227	0.609828	-0.358984
C52	C	1.503227	1.109828	0.141016
C53	C	1.074056	0.583937	-0.430663
C54	C	1.574056	1.083937	0.069337
C55	C	1.466941	0.976863	-0.430673
C56	C	1.966941	1.476863	0.069327
C57	C	1.440996	1.047723	-0.359045
C58	C	1.940996	1.547723	0.140955
C59	C	1.564055	1.047536	-0.449914
C60	C	2.064055	1.547536	0.050086
C61	C	1.512058	0.976899	-0.306608
C62	C	2.012058	1.476899	0.193392
C63	C	1.635162	0.976706	-0.397526
C64	C	2.135162	1.476706	0.102474
C65	C	1.609254	1.047534	-0.325848
C66	C	2.109254	1.547534	0.174152
C67	C	1.815750	0.512775	-0.378288
C68	C	2.315750	1.012775	0.121712
C69	C	1.934055	0.512785	-0.378299
C70	C	2.434055	1.012785	0.121701
C71	C	1.538193	0.512673	-0.583005
C72	C	2.038193	1.012673	-0.083005
C73	C	1.538221	0.512639	-0.670255
C74	C	2.038221	1.012639	-0.170255
C75	C	1.538233	1.235130	-0.378286
C76	C	2.038233	1.735130	0.121714
C77	C	1.538158	1.116825	-0.378294
C78	C	2.038158	1.616825	0.121706
C79	C	1.606336	0.444563	-0.711260
C80	C	2.106336	0.944563	-0.211260
C81	C	1.606349	0.444528	-0.793240
C82	C	2.106349	0.944528	-0.293240
C83	C	1.538251	0.512574	-0.834215
C84	C	2.038251	1.012574	-0.334215
C85	C	1.470128	0.580653	-0.793205
C86	C	1.970128	1.080653	-0.293205
C87	C	1.470111	0.580683	-0.711226
C88	C	1.970111	1.080683	-0.211226
C89	C	1.470171	0.580589	-0.964075
C90	C	1.970171	1.080589	-0.464075
C91	C	1.470189	0.580562	-1.046059
C92	C	1.970189	1.080562	-0.546059
C93	C	1.606409	0.444435	-1.046089
C94	C	2.106409	0.944435	-0.546089
C95	C	1.606392	0.444464	-0.964110
C96	C	2.106392	0.944464	-0.464110
C97	C	1.538270	0.512544	-0.923106
C98	C	2.038270	1.012544	-0.423106
C99	C	1.538126	0.512752	-0.174313
C100	C	2.038126	1.012752	0.325687
C101	C	1.538305	0.512486	-0.087064
C102	C	2.038305	1.012486	0.412936
H103	H	1.105238	0.333560	-0.413883
H104	H	1.605238	0.833560	0.086117
O105	O	1.332277	1.089038	-0.337475
O106	O	1.832277	1.589038	0.162525
H107	H	1.333516	1.177157	-0.337127
H108	H	1.833516	1.677157	0.162873
H109	H	0.972459	0.464839	-0.510578
H110	H	1.472459	0.964839	-0.010578
H111	H	1.104944	0.644138	-0.474980
H112	H	1.604944	1.144138	0.025020
O113	O	1.688972	1.088389	-0.267099
O114	O	2.188972	1.588389	0.232901
H115	H	1.769255	1.058672	-0.282609
H116	H	2.269255	1.558672	0.217391
H117	H	1.414677	0.636054	-0.826573
H118	H	1.914677	1.136054	-0.326573
H119	H	0.972066	0.691889	-0.342645
H120	H	1.472066	1.191889	0.157355
H121	H	1.661849	0.389060	-0.930751
H122	H	2.161849	0.889060	-0.430751
H123	H	1.661818	0.389096	-0.826622
H124	H	2.161818	0.889096	-0.326622
O125	O	1.593141	1.088635	-0.530154
O126	O	2.093141	1.588635	-0.030154
H127	H	1.533940	1.060329	-0.573522
H128	H	2.033940	1.560329	-0.073522
H129	H	1.414633	0.636106	-0.677841
H130	H	1.914633	1.136106	-0.177841
O131	O	1.679877	0.370992	-1.090308
O132	O	2.179877	0.870992	-0.590308
H133	H	1.668440	0.382389	-1.154197
H134	H	2.168440	0.882389	-0.654197
H135	H	1.414682	0.636011	-0.930691
H136	H	1.914682	1.136011	-0.430691
O137	O	0.962065	0.361784	-0.267363
O138	O	1.462065	0.861784	0.232637
H139	H	0.990460	0.281274	-0.283565
H140	H	1.490460	0.781274	0.216435
O141	O	1.396720	0.653936	-1.090252
O142	O	1.896720	1.153936	-0.590252
H143	H	1.408184	0.642478	-1.154146
H144	H	1.908184	1.142478	-0.654146
O145	O	1.115096	0.567611	-0.226360
O146	O	1.615096	1.067611	0.273640
H147	H	1.086727	0.508401	-0.183023
H148	H	1.586727	1.008401	0.316977
H149	H	1.406712	0.945831	-0.474921
H150	H	1.906712	1.445831	0.025079
H151	H	1.490012	0.945999	-0.246014
H152	H	1.990012	1.445999	0.253986
O153	O	1.743974	0.935589	-0.419026
O154	O	2.243974	1.435589	0.080974
H155	H	1.765383	0.963915	-0.478507
H156	H	2.265383	1.463915	0.021493
H157	H	1.661793	0.389155	-0.677904
H158	H	2.161793	0.889155	-0.177904
