data_functionalizedCrystal
_audit_creation_method	'MofGen! by Chris Wilmer'
_symmetry_space_group_name_H-M	'P1'
_symmetry_Int_Tables_number	1
_symmetry_cell_setting	triclinic
loop_
_symmetry_equiv_pos_as_xyz
  x,y,z
_cell_length_a	12.759401
_cell_length_b	12.594516
_cell_length_c	12.759393
_cell_angle_alpha	89.971950
_cell_angle_beta	89.979062
_cell_angle_gamma	90.017577
loop_
_atom_site_label
_atom_site_type_symbol
_atom_site_fract_x
_atom_site_fract_y
_atom_site_fract_z
Zn1	Zn	1.606257	-0.423647	-0.594038
Zn2	Zn	1.606143	-0.601663	-0.418366
Zn3	Zn	1.430555	-0.423704	-0.418373
Zn4	Zn	1.430543	-0.601589	-0.594003
O5	O	1.518375	-0.512651	-0.506195
O6	O	1.753263	-0.447269	-0.570746
O7	O	1.582809	-0.578111	-0.271345
O8	O	1.453915	-0.274751	-0.441693
O9	O	1.753179	-0.578056	-0.441680
O10	O	1.583002	-0.274709	-0.570754
O11	O	1.453805	-0.447365	-0.271351
O12	O	1.283533	-0.447293	-0.441659
O13	O	1.453894	-0.577930	-0.741029
O14	O	1.283524	-0.577985	-0.570694
O15	O	1.582990	-0.447197	-0.741054
O16	O	1.582797	-0.750599	-0.441646
O17	O	1.453784	-0.750545	-0.570686
C18	C	1.245407	-0.512638	-0.506174
C19	C	1.128631	-0.512658	-0.506190
C20	C	1.518306	-0.789192	-0.506185
C21	C	1.518372	-0.907497	-0.506215
C22	C	1.073791	-0.580812	-0.573272
C23	C	0.964067	-0.580817	-0.573293
C24	C	0.964031	-0.444509	-0.439140
C25	C	1.073753	-0.444500	-0.439125
C26	C	1.448195	-0.976759	-0.576351
C27	C	1.422594	-1.047629	-0.480484
C28	C	1.544069	-1.047427	-0.602099
C29	C	1.492721	-0.976808	-0.410297
C30	C	1.614240	-0.976600	-0.531977
C31	C	1.588675	-1.047438	-0.436044
C32	C	1.792408	-0.512665	-0.506216
C33	C	1.909184	-0.512671	-0.506226
C34	C	1.518453	-0.512549	-0.780228
C35	C	1.518487	-0.512505	-0.897005
C36	C	1.518472	-0.235030	-0.506228
C37	C	1.518514	-0.116725	-0.506242
C38	C	1.585712	-0.444422	-0.951882
C39	C	1.585730	-0.444376	-1.061606
C40	C	1.451294	-0.580506	-1.061567
C41	C	1.451272	-0.580546	-0.951844
C42	C	1.518357	-0.512676	-0.233228
C43	C	1.518527	-0.512420	-0.116451
H44	H	0.919422	-0.636313	-0.627920
H45	H	1.341587	-1.078851	-0.458716
H46	H	1.118405	-0.388994	-0.384499
C47	C	1.378321	-0.654355	-0.892066
C48	C	1.392667	-0.639802	-0.784239
C49	C	1.325474	-0.707760	-0.729138
H50	H	1.393604	-0.725910	-0.909910
H51	H	1.307716	-0.638755	-0.909976
H52	H	1.463256	-0.655410	-0.766336
H53	H	1.377376	-0.568262	-0.766364
H54	H	1.254870	-0.692160	-0.747049
H55	H	1.340764	-0.779310	-0.746991
H56	H	1.335192	-0.697888	-0.655973
H57	H	1.388743	-0.945724	-0.635576
H58	H	1.648082	-1.078276	-0.376676
H59	H	1.640470	-0.388934	-1.106282
H60	H	1.118469	-0.636308	-0.627883
H61	H	1.640440	-0.389016	-0.907235
C62	C	0.904389	-0.370694	-0.366197
C63	C	0.841370	-0.430882	-0.298747
C64	C	0.786425	-0.362921	-0.231527
H65	H	0.861531	-0.324352	-0.406351
H66	H	0.952731	-0.330116	-0.326182
H67	H	0.793034	-0.471442	-0.338758
H68	H	0.884202	-0.477222	-0.258570
H69	H	0.834767	-0.322344	-0.191512
H70	H	0.743573	-0.316583	-0.271690
H71	H	0.743668	-0.403750	-0.185748
C72	C	1.463653	-0.935419	-0.302246
C73	C	1.463847	-0.824257	-0.303511
C74	C	1.437058	-0.786091	-0.204001
H75	H	1.513198	-0.960071	-0.252305
H76	H	1.395787	-0.960272	-0.283833
H77	H	1.531703	-0.799414	-0.321910
H78	H	1.414301	-0.799577	-0.353431
H79	H	1.369192	-0.810944	-0.185589
H80	H	1.486606	-0.810750	-0.154068
H81	H	1.437177	-0.710664	-0.204849
C82	C	1.722193	-0.935020	-0.561274
C83	C	1.748619	-0.970713	-0.661771
C84	C	1.848050	-0.932416	-0.688812
H85	H	1.772377	-0.960246	-0.512260
H86	H	1.721524	-0.859593	-0.560479
H87	H	1.749296	-1.046124	-0.662558
H88	H	1.698462	-0.945489	-0.710807
H89	H	1.847381	-0.856990	-0.688017
H90	H	1.898226	-0.957645	-0.639791
H91	H	1.865989	-0.956620	-0.757004
H92	H	1.565747	-1.078448	-0.683176
C93	C	1.378153	-0.654253	-1.121052
C94	C	1.274205	-0.631062	-1.094371
C95	C	1.206799	-0.698970	-1.149156
H96	H	1.393361	-0.725813	-1.103105
H97	H	1.387724	-0.644474	-1.194269
H98	H	1.264639	-0.640849	-1.021171
H99	H	1.258965	-0.559514	-1.112321
H100	H	1.216369	-0.689192	-1.222373
H101	H	1.222016	-0.770526	-1.131205
H102	H	1.136263	-0.683238	-1.131068
