data_functionalizedCrystal
_audit_creation_method	'MofGen! by Chris Wilmer'
_symmetry_space_group_name_H-M	'P1'
_symmetry_Int_Tables_number	1
_symmetry_cell_setting	triclinic
loop_
_symmetry_equiv_pos_as_xyz
  x,y,z
_cell_length_a	14.395555
_cell_length_b	14.395555
_cell_length_c	20.875641
_cell_angle_alpha	62.436829
_cell_angle_beta	90.003252
_cell_angle_gamma	60.000146
loop_
_atom_site_label
_atom_site_type_symbol
_atom_site_fract_x
_atom_site_fract_y
_atom_site_fract_z
Zr1	Zr	0.899214	1.008172	-0.081218
O2	O	0.756129	1.191482	-0.180029
O3	O	0.943079	0.817585	-0.050920
O4	O	0.949932	0.997669	-0.180012
O5	O	0.743868	1.022221	0.050885
O6	O	1.102806	0.997663	-0.180007
O7	O	0.749276	1.011398	-0.050937
O8	O	1.090547	0.675524	0.050915
O9	O	0.756127	1.344359	-0.180037
O10	O	1.075873	0.898667	-0.038003
O11	O	0.957749	0.906749	0.037982
O12	O	0.965818	1.118775	-0.114007
O13	O	0.847695	1.126857	-0.038023
Zr14	Zr	1.134406	1.025423	0.081185
Zr15	Zr	1.143030	1.008162	-0.081209
Zr16	Zr	0.890590	1.025434	0.081177
Zr17	Zr	0.899212	1.251993	-0.081231
Zr18	Zr	1.134408	0.781603	0.081198
O19	O	1.090541	1.216011	0.050887
O20	O	1.102804	1.191468	-0.180017
O21	O	0.743866	1.216026	0.050875
O22	O	1.277491	0.842113	0.179996
O23	O	1.289754	0.817570	-0.050908
O24	O	0.930816	0.842128	0.179984
O25	O	1.289752	1.011375	-0.050918
O26	O	1.083688	1.035926	0.179979
O27	O	0.930814	1.035933	0.179974
O28	O	1.284344	1.022198	0.050904
O29	O	0.949929	1.344351	-0.180030
O30	O	1.083691	0.689245	0.179997
O31	O	1.277492	0.689237	0.180004
O32	O	1.284348	0.675516	0.050922
O33	O	0.749272	1.358079	-0.050955
O34	O	0.943073	1.358071	-0.050948
O35	O	1.067802	0.914821	0.113975
O36	O	1.185925	0.906739	0.037990
O37	O	1.075871	1.126847	-0.038015
O38	O	0.957747	1.134929	0.037970
C39	C	1.016813	0.711815	-0.000001
C40	C	1.016814	0.608307	0.000005
C41	C	0.952394	0.490239	0.041409
C42	C	1.058076	0.479150	0.071466
C43	C	0.911150	0.620738	-0.030017
C44	C	1.122549	0.412778	0.030061
C45	C	0.975548	0.554426	-0.071462
C46	C	1.081295	0.543288	-0.041423
C47	C	0.711833	1.016811	-0.000027
C48	C	0.608327	1.016815	-0.000031
C49	C	0.487731	1.136828	-0.041465
C50	C	0.458491	1.071441	-0.071486
C51	C	0.453144	1.082197	0.029984
C52	C	0.580452	0.951422	-0.030093
C53	C	0.575100	0.962200	0.071416
C54	C	0.545932	0.896724	0.041414
C55	C	1.321787	1.016785	-0.000006
C56	C	1.425293	1.016781	-0.000002
C57	C	1.027598	0.995207	-0.203147
C58	C	1.031259	0.987879	-0.272088
C59	C	1.016807	1.321781	-0.000032
C60	C	1.016806	1.425289	-0.000038
C61	C	0.975534	1.099328	-0.344150
C62	C	0.978989	1.092435	-0.408925
C63	C	1.038163	0.974092	-0.401636
C64	C	1.093895	0.862635	-0.329566
C65	C	1.090447	0.869529	-0.264793
C66	C	1.054644	0.941154	-0.591102
C67	C	1.058086	0.934268	-0.655883
C68	C	0.943181	1.164069	-0.735237
C69	C	0.939731	1.170952	-0.670459
C70	C	0.995469	1.059495	-0.598396
N71	N	1.041693	0.967044	-0.467845
N72	N	0.991945	1.066545	-0.532188
C73	C	1.006022	1.038389	0.203114
C74	C	1.002360	1.045717	0.272055
C75	C	1.321790	0.711803	0.000010
C76	C	1.425297	0.608290	0.000019
C77	C	1.006025	0.733406	0.203130
C78	C	1.002365	0.637226	0.272076
C79	C	1.311002	0.733394	0.203141
C80	C	1.410848	0.637209	0.272091
C81	C	0.722618	1.300202	-0.203174
C82	C	0.622772	1.396387	-0.272124
C83	C	0.711830	1.321793	-0.000043
C84	C	0.608323	1.425306	-0.000052
C85	C	1.027595	1.300190	-0.203163
C86	C	1.031255	1.396370	-0.272109
C87	C	1.058092	0.596273	0.344128
C88	C	1.054648	0.505915	0.408917
C89	C	0.995483	0.456506	0.401651
C90	C	0.939749	0.497468	0.329592
C91	C	0.943187	0.587830	0.264805
C92	C	1.519406	0.587821	0.264807
C93	C	1.613232	0.497458	0.329587
C94	C	1.598497	0.456478	0.401649
C95	C	1.489927	0.505875	0.408931
C96	C	1.396104	0.596243	0.344152
C97	C	0.514214	1.445787	-0.264840
C98	C	0.420388	1.536180	-0.329619
C99	C	0.435123	1.577165	-0.401682
C100	C	0.543693	1.527761	-0.408964
C101	C	0.637516	1.437377	-0.344185
C102	C	1.090430	1.445751	-0.264820
C103	C	1.093891	1.536111	-0.329596
C104	C	1.038170	1.577094	-0.401660
C105	C	0.978993	1.527703	-0.408949
C106	C	0.975539	1.437339	-0.344173
C107	C	1.545893	0.552128	0.041437
C108	C	1.575162	0.417201	0.071453
C109	C	1.580455	0.558828	-0.030024
C110	C	1.453200	0.474668	0.030078
C111	C	1.458499	0.616365	-0.071439
C112	C	1.487696	0.481446	-0.041440
H113	H	1.093004	0.448300	0.131894
H114	H	1.135824	0.778776	-0.206117
Br115	Br	0.784843	1.370338	-0.354084
H116	H	0.502194	1.412422	-0.206169
H117	H	0.625408	0.916081	0.131813
Br118	Br	0.867554	0.643392	0.167022
Br119	Br	0.563672	1.583395	-0.506769
H120	H	1.408169	0.701615	-0.131832
Br121	Br	1.174202	1.603127	-0.319687
Br122	Br	0.273058	1.603206	-0.319719
H123	H	1.135805	1.412398	-0.206147
H124	H	0.358717	1.650762	-0.454423
H125	H	0.897803	1.254811	-0.793917
H126	H	1.674903	0.382894	0.454390
Br127	Br	1.448040	0.430210	-0.099851
Br128	Br	1.469948	0.450247	0.506736
Br129	Br	1.042867	1.699736	-0.489563
Br130	Br	0.903366	1.583348	-0.506757
Br131	Br	1.248777	0.663254	0.354051
H132	H	0.927348	1.397142	-0.350119
H133	H	1.211943	0.323911	0.055506
H134	H	1.569470	0.582929	0.076530
H135	H	1.635278	0.593370	-0.055411
Br136	Br	1.659047	0.275152	0.172134
H137	H	0.398291	1.137502	0.055356
H138	H	1.135843	0.566531	-0.076447
H139	H	0.569730	0.795156	0.076458
Br140	Br	0.861737	0.451028	0.099862
Br141	Br	0.917326	0.605744	-0.172149
H142	H	0.821794	0.709653	-0.055391
Br143	Br	0.448434	1.305958	-0.099951
H144	H	1.100030	0.850398	-0.532433
Br145	Br	0.374636	1.148377	-0.172171
Br146	Br	0.671617	0.859366	-0.072520
Br147	Br	0.990828	0.333871	0.489586
Br148	Br	1.174210	0.702025	-0.319672
H149	H	0.927340	1.195695	-0.350094
H150	H	1.398511	0.439956	0.055529
H151	H	0.933614	1.183188	-0.467599
H152	H	1.106272	0.837894	-0.649939
Br153	Br	0.859358	1.331566	-0.680358
H154	H	1.100037	0.472575	0.467584
Br155	Br	1.138401	0.663303	0.354010
Br156	Br	0.859459	0.430398	0.319745
H157	H	1.531425	0.621173	0.206136
H158	H	1.701626	0.457247	0.323644
