data_functionalizedCrystal
_audit_creation_method	'MofGen! by Chris Wilmer'
_symmetry_space_group_name_H-M	'P1'
_symmetry_Int_Tables_number	1
_symmetry_cell_setting	triclinic
loop_
_symmetry_equiv_pos_as_xyz
  x,y,z
_cell_length_a	11.026660
_cell_length_b	10.908878
_cell_length_c	16.176319
_cell_angle_alpha	89.992977
_cell_angle_beta	89.993645
_cell_angle_gamma	84.334813
loop_
_atom_site_label
_atom_site_type_symbol
_atom_site_fract_x
_atom_site_fract_y
_atom_site_fract_z
O1	O	1.506482	0.513749	-0.068748
O2	O	1.164983	0.455251	-0.068749
O3	O	1.381002	0.308032	-0.068745
O4	O	1.290462	0.660968	-0.068751
O5	O	1.380980	0.308014	0.068748
O6	O	1.164961	0.455233	0.068745
O7	O	1.506459	0.513731	0.068745
Cu8	Cu	1.335708	0.484480	0.081299
Cu9	Cu	1.335734	0.484501	-0.081303
O10	O	1.290440	0.660950	0.068742
C11	C	1.121939	0.444450	-0.000002
C12	C	0.993718	0.412278	-0.000002
C13	C	1.389452	0.262137	0.000001
C14	C	1.414651	0.125409	-0.000002
C15	C	0.769459	0.467871	-0.000006
C16	C	0.901982	0.501124	-0.000005
C17	C	1.322707	0.055148	-0.000004
C18	C	1.348748	-0.086168	-0.000007
C19	C	1.549503	0.524532	-0.000003
C20	C	1.677724	0.556704	-0.000008
C21	C	1.281990	0.706844	-0.000006
C22	C	1.256791	0.843572	-0.000008
N23	N	1.335698	0.484467	0.195664
N24	N	1.335755	0.484507	-0.195668
C25	C	1.431368	0.419318	0.238930
C26	C	1.431375	0.419318	0.325477
C27	C	1.335714	0.484475	0.368757
C28	C	1.240034	0.549626	0.325485
C29	C	1.240025	0.549618	0.238940
C30	C	1.240069	0.549658	0.674513
C31	C	1.240088	0.549664	0.761065
C32	C	1.431419	0.419358	0.761051
C33	C	1.431410	0.419350	0.674505
C34	C	1.335728	0.484495	0.631241
C35	C	1.335721	0.484493	0.537397
C36	C	1.335724	0.484486	0.462600
H37	H	0.921547	0.601802	-0.000001
H38	H	1.162120	0.602667	0.203713
N39	N	1.136862	0.619902	0.372169
H40	H	1.132632	0.710072	0.357095
H41	H	1.057497	0.586601	0.357108
H42	H	1.446751	-0.130629	-0.000004
H43	H	1.158788	-0.111968	-0.000001
N44	N	1.192895	0.114032	0.000022
H45	H	1.192692	0.206636	0.000031
H46	H	1.149567	0.087383	-0.050943
H47	H	1.162185	0.602724	0.796302
H48	H	1.512647	0.080943	0.000001
H49	H	1.509270	0.366266	0.203697
H50	H	0.974155	0.311599	-0.000056
H51	H	1.509276	0.366268	0.360704
N52	N	1.136870	0.619910	0.627856
H53	H	1.076275	0.661187	0.668409
H54	H	1.170283	0.684436	0.591930
N55	N	0.703631	0.690059	-0.000004
H56	H	0.794628	0.694911	-0.000002
H57	H	0.666747	0.732238	-0.050975
H58	H	0.749888	0.367199	0.000008
H59	H	1.509308	0.366299	0.639270
N60	N	1.534622	0.349089	0.807714
H61	H	1.520117	0.358974	0.869108
H62	H	1.538805	0.258947	0.792595
