data_functionalizedCrystal
_audit_creation_method	'MofGen! by Chris Wilmer'
_symmetry_space_group_name_H-M	'P1'
_symmetry_Int_Tables_number	1
_symmetry_cell_setting	triclinic
loop_
_symmetry_equiv_pos_as_xyz
  x,y,z
_cell_length_a	19.288859
_cell_length_b	19.288864
_cell_length_c	18.366186
_cell_angle_alpha	90.029997
_cell_angle_beta	89.992480
_cell_angle_gamma	83.134987
loop_
_atom_site_label
_atom_site_type_symbol
_atom_site_fract_x
_atom_site_fract_y
_atom_site_fract_z
O1	O	0.921337	0.086632	0.060599
O2	O	1.421337	0.586632	0.560599
O3	O	0.719076	0.098326	0.060602
O4	O	1.219076	0.598326	0.560602
O5	O	0.826051	-0.008651	0.060555
O6	O	1.326051	0.491349	0.560555
O7	O	0.814362	0.193609	0.060645
O8	O	1.314362	0.693609	0.560645
O9	O	0.826069	-0.008665	-0.060544
O10	O	1.326069	0.491335	0.439456
O11	O	0.719094	0.098312	-0.060498
O12	O	1.219094	0.598312	0.439502
O13	O	0.921355	0.086619	-0.060501
O14	O	1.421355	0.586619	0.439499
Zn15	Zn	0.820228	0.092463	-0.079726
Zn16	Zn	1.320228	0.592463	0.420274
Zn17	Zn	0.820204	0.092481	0.079827
Zn18	Zn	1.320204	0.592481	0.579827
O19	O	0.814380	0.193596	-0.060454
O20	O	1.314380	0.693596	0.439546
C21	C	0.693209	0.097943	0.000051
C22	C	1.193209	0.597943	0.500051
C23	C	0.616105	0.096816	0.000050
C24	C	1.116105	0.596816	0.500050
C25	C	0.052064	0.151959	0.000076
C26	C	0.552064	0.651959	0.500076
C27	C	0.124511	0.153025	0.000080
C28	C	0.624511	0.653025	0.500080
C29	C	0.169217	0.090255	0.000051
C30	C	0.669217	0.590255	0.500051
C31	C	0.141472	0.026416	0.000036
C32	C	0.641472	0.526416	0.500036
C33	C	0.069027	0.025353	0.000039
C34	C	0.569027	0.525353	0.500039
C35	C	0.290494	0.043438	-0.042399
C36	C	0.790494	0.543438	0.457601
C37	C	0.362938	0.044504	-0.042407
C38	C	0.862938	0.544504	0.457593
C39	C	0.392663	0.093533	0.000045
C40	C	0.892663	0.593533	0.500045
C41	C	0.349935	0.141508	0.042494
C42	C	0.849935	0.641508	0.542494
C43	C	0.277489	0.140444	0.042498
C44	C	0.777489	0.640444	0.542498
C45	C	0.247773	0.091402	0.000048
C46	C	0.747773	0.591402	0.500048
C47	C	0.498955	0.158523	0.000070
C48	C	0.998955	0.658523	0.500070
C49	C	0.571403	0.159586	0.000078
C50	C	1.071403	0.659586	0.500078
C51	C	0.588364	0.032976	0.000027
C52	C	1.088364	0.532976	0.500027
C53	C	0.515917	0.031915	0.000025
C54	C	1.015917	0.531915	0.500025
C55	C	0.471216	0.094691	0.000043
C56	C	0.971216	0.594691	0.500043
C57	C	0.825684	-0.034535	-0.000005
C58	C	1.325684	0.465465	0.499995
C59	C	0.824555	-0.111638	-0.000035
C60	C	1.324555	0.388362	0.499965
C61	C	0.947223	0.087001	0.000051
C62	C	1.447223	0.587001	0.500051
C63	C	1.024327	0.088128	0.000057
C64	C	1.524327	0.588128	0.500057
N65	N	0.820249	0.092451	-0.188618
N66	N	1.320249	0.592451	0.311382
C67	C	0.814747	0.219479	0.000107
C68	C	1.314747	0.719479	0.500107
C69	C	0.815876	0.296583	0.000142
C70	C	1.315876	0.796583	0.500142
C71	C	0.753108	0.341280	0.000128
C72	C	1.253108	0.841280	0.500128
C73	C	0.754169	0.413727	0.000111
C74	C	1.254169	0.913727	0.500111
C75	C	0.818001	0.441474	0.000094
C76	C	1.318001	0.941474	0.500094
C77	C	0.880778	0.396766	0.000112
C78	C	1.380778	0.896766	0.500112
C79	C	0.879715	0.324321	0.000136
C80	C	1.379715	0.824321	0.500136
C81	C	0.868187	0.549718	-0.042372
C82	C	1.368187	1.049718	0.457628
C83	C	0.869247	0.622162	-0.042400
C84	C	1.369247	1.122162	0.457600
C85	C	0.821281	0.664919	0.000024
C86	C	1.321281	1.164919	0.500024
C87	C	0.772244	0.635224	0.042467
C88	C	1.272244	1.135224	0.542467
C89	C	0.771181	0.562779	0.042491
C90	C	1.271181	1.062779	0.542491
C91	C	0.819161	0.520028	0.000069
C92	C	1.319161	1.020028	0.500069
C93	C	0.759659	0.788173	-0.000007
C94	C	1.259659	1.288173	0.499993
C95	C	0.760722	0.860621	-0.000018
C96	C	1.260722	1.360621	0.499982
C97	C	0.887333	0.843658	-0.000025
C98	C	1.387333	1.343658	0.499975
C99	C	0.886267	0.771211	-0.000006
C100	C	1.386267	1.271211	0.499994
C101	C	0.822429	0.743473	-0.000000
C102	C	1.322429	1.243473	0.500000
N103	N	0.820188	0.092488	0.188718
N104	N	1.320188	0.592488	0.688718
C105	C	0.862096	0.134589	0.226842
C106	C	1.362096	0.634589	0.726842
C107	C	0.862101	0.134589	0.303070
C108	C	1.362101	0.634589	0.803070
C109	C	0.820206	0.092476	0.341171
C110	C	1.320206	0.592476	0.841171
C111	C	0.778290	0.050373	0.303038
C112	C	1.278290	0.550373	0.803038
C113	C	0.778281	0.050379	0.226812
C114	C	1.278281	0.550379	0.726812
C115	C	0.818620	0.029823	0.461898
C116	C	1.318620	0.529823	0.961898
C117	C	0.818634	0.029816	0.538123
C118	C	1.318634	0.529816	1.038123
C119	C	0.820230	0.092457	0.576279
C120	C	1.320230	0.592457	1.076279
C121	C	0.821826	0.155108	0.538200
C122	C	1.321826	0.655108	1.038200
C123	C	0.821817	0.155114	0.461974
C124	C	1.321817	0.655114	0.961974
C125	C	0.820211	0.092465	0.423826
C126	C	1.320211	0.592465	0.923826
C127	C	0.862145	0.134562	0.697057
C128	C	1.362145	0.634562	1.197057
C129	C	0.862145	0.134564	0.773286
C130	C	1.362145	0.634564	1.273286
C131	C	0.778338	0.050341	0.773253
C132	C	1.278338	0.550341	1.273253
C133	C	0.778334	0.050345	0.697025
C134	C	1.278334	0.550345	1.197025
C135	C	0.820241	0.092455	0.658932
C136	C	1.320241	0.592455	1.158932
H137	H	0.242703	0.179506	0.077063
H138	H	0.742703	0.679506	0.577063
C139	C	0.923186	0.654820	-0.089082
C140	C	1.423186	1.154820	0.410918
H141	H	0.951609	0.618980	-0.114333
H142	H	1.451609	1.118980	0.385667
H143	H	0.899598	0.686270	-0.123209
H144	H	1.399598	1.186270	0.376791
H145	H	0.951640	0.679348	-0.058496
H146	H	1.451640	1.179348	0.441504
C147	C	0.823562	0.224024	0.420090
C148	C	1.323562	0.724024	0.920090
H149	H	0.824508	0.261334	0.453726
H150	H	1.324508	0.761334	0.953726
H151	H	0.864110	0.220781	0.390338
H152	H	1.364110	0.720781	0.890338
H153	H	0.783129	0.232477	0.390373
H154	H	1.283129	0.732477	0.890373
C155	C	0.732205	0.004048	0.344943
C156	C	1.232205	0.504048	0.844943
H157	H	0.707240	-0.021021	0.311317
H158	H	1.207240	0.478979	0.811317
H159	H	0.760825	-0.027949	0.374651
H160	H	1.260825	0.472051	0.874651
H161	H	0.700105	0.032544	0.374704
H162	H	1.200105	0.532544	0.874704
C163	C	0.816877	-0.039095	0.580002
C164	C	1.316877	0.460905	1.080002
H165	H	0.815911	-0.076400	0.546362
H166	H	1.315911	0.423600	1.046362
H167	H	0.857301	-0.047561	0.609722
H168	H	1.357301	0.452439	1.109722
H169	H	0.776321	-0.035843	0.609750
H170	H	1.276321	0.464157	1.109750
H171	H	0.733182	0.670036	0.077008
H172	H	1.233182	1.170036	0.577008
C173	C	0.485400	-0.038298	0.000000
C174	C	0.985400	0.461702	0.500000
H175	H	0.435852	-0.029942	0.000013
H176	H	0.935852	0.470058	0.500013
H177	H	0.500760	-0.064145	-0.042239
H178	H	1.000760	0.435855	0.457761
H179	H	0.500754	-0.064123	0.042227
H180	H	1.000754	0.435877	0.542227
C181	C	0.382625	0.195419	0.089223
C182	C	0.882625	0.695419	0.589223
H183	H	0.431892	0.189171	0.083158
H184	H	0.931892	0.689171	0.583158
H185	H	0.364611	0.241209	0.074349
H186	H	0.864611	0.741209	0.574349
H187	H	0.371553	0.189119	0.139002
H188	H	0.871553	0.689119	0.639002
H189	H	0.709607	0.897014	-0.000025
H190	H	1.209607	1.397014	0.499975
C191	C	0.948761	0.275148	0.000150
C192	C	1.448761	0.775148	0.500150
H193	H	0.938986	0.228029	0.000171
H194	H	1.438986	0.728029	0.500171
H195	H	0.974956	0.283502	-0.042082
H196	H	1.474956	0.783502	0.457918
H197	H	0.974935	0.283570	0.042384
H198	H	1.474935	0.783570	0.542384
C199	C	0.732183	0.004064	0.184874
C200	C	1.232183	0.504064	0.684874
H201	H	0.707233	-0.021020	0.218480
H202	H	1.207233	0.478980	0.718480
H203	H	0.700080	0.032558	0.155161
H204	H	1.200080	0.532558	0.655161
H205	H	0.760803	-0.027932	0.155114
H206	H	1.260803	0.472068	0.655114
C207	C	0.950993	0.427280	0.000091
C208	C	1.450993	0.927280	0.500091
H209	H	0.988225	0.390281	0.000108
H210	H	1.488225	0.890281	0.500108
H211	H	0.954046	0.455154	-0.042149
H212	H	1.454046	0.955154	0.457851
H213	H	0.954032	0.455223	0.042317
H214	H	1.454032	0.955223	0.542317
C215	C	0.908185	0.180914	0.184943
C216	C	1.408185	0.680914	0.684943
H217	H	0.933140	0.205993	0.218570
H218	H	1.433140	0.705993	0.718570
H219	H	0.940283	0.152428	0.155179
H220	H	1.440283	0.652428	0.655179
H221	H	0.879558	0.212915	0.155238
H222	H	1.379558	0.712915	0.655238
C223	C	0.816865	-0.039085	0.419930
C224	C	1.316865	0.460915	0.919930
H225	H	0.817082	-0.030109	0.369079
H226	H	1.317082	0.469891	0.869079
H227	H	0.856699	-0.070678	0.432392
H228	H	1.356699	0.429322	0.932392
H229	H	0.775719	-0.058973	0.432420
H230	H	1.275719	0.441027	0.932420
C231	C	0.908234	0.180883	0.655148
C232	C	1.408234	0.680883	1.155148
H233	H	0.902234	0.174850	0.604290
H234	H	1.402234	0.674850	1.104290
H235	H	0.895093	0.228427	0.667670
H236	H	1.395093	0.728427	1.167670
H237	H	0.955815	0.167937	0.667623
H238	H	1.455815	0.667937	1.167623
H239	H	0.177877	-0.024691	0.000014
H240	H	0.677877	0.475309	0.500014
H241	H	0.939306	0.866248	0.000014
H242	H	1.439306	1.366248	0.500014
H243	H	0.015673	0.203077	0.000094
H244	H	0.515673	0.703077	0.500094
C245	C	0.038515	-0.044864	0.000011
C246	C	0.538515	0.455136	0.500011
H247	H	0.075514	-0.082097	-0.000009
H248	H	0.575514	0.417903	0.499991
H249	H	0.010598	-0.047905	0.042238
H250	H	0.510598	0.452095	0.542238
H251	H	0.010615	-0.047915	-0.042227
H252	H	0.510615	0.452085	0.457773
H253	H	0.707677	0.765587	-0.000006
H254	H	1.207677	1.265587	0.499994
H255	H	0.147099	0.205005	0.000089
H256	H	0.647099	0.705005	0.500089
C257	C	0.955311	0.722039	0.000006
C258	C	1.455311	1.222039	0.500006
H259	H	0.945537	0.674920	0.000030
H260	H	1.445537	1.174920	0.500030
H261	H	0.981506	0.730390	-0.042226
H262	H	1.481506	1.230390	0.457774
H263	H	0.981484	0.730464	0.042239
H264	H	1.481484	1.230464	0.542239
H265	H	0.266299	0.003509	-0.076970
H266	H	0.766299	0.503509	0.423030
H267	H	0.823126	0.206117	0.569265
H268	H	1.323126	0.706117	1.069265
H269	H	0.731255	0.538604	0.077050
H270	H	1.231255	1.038604	0.577050
C271	C	0.920977	0.502685	-0.089008
C272	C	1.420977	1.002685	0.410992
H273	H	0.913334	0.455285	-0.082901
H274	H	1.413334	0.955285	0.417099
H275	H	0.915080	0.515317	-0.138804
H276	H	1.415080	1.015317	0.361196
H277	H	0.967095	0.508430	-0.074067
H278	H	1.467095	1.008430	0.425933
H279	H	0.896227	0.168875	0.334116
H280	H	1.396227	0.668875	0.834116
C281	C	0.908246	0.180877	0.815223
C282	C	1.408246	0.680877	1.315223
H283	H	0.933206	0.205949	0.781616
H284	H	1.433206	0.705949	1.281616
H285	H	0.879634	0.212871	0.844985
H286	H	1.379634	0.712871	1.344985
H287	H	0.940351	0.152375	0.844933
H288	H	1.440351	0.652375	1.344933
H289	H	0.397721	0.005443	-0.076976
H290	H	0.897721	0.505443	0.423024
C291	C	0.732251	0.004018	0.815152
C292	C	1.232251	0.504018	1.315152
H293	H	0.707288	-0.021054	0.781526
H294	H	1.207288	0.478946	1.281526
H295	H	0.760869	-0.027978	0.844864
H296	H	1.260869	0.472022	1.344864
H297	H	0.700148	0.032514	0.844910
H298	H	1.200148	0.532514	1.344910
C299	C	0.449782	0.227572	0.000105
C300	C	0.949782	0.727572	0.500105
H301	H	0.476680	0.265742	0.000130
H302	H	0.976680	0.765742	0.500130
H303	H	0.421171	0.229788	-0.042122
H304	H	0.921171	0.729788	0.457878
H305	H	0.421167	0.229789	0.042344
H306	H	0.921167	0.729789	0.542344
C307	C	0.682889	0.310772	0.000143
C308	C	1.182889	0.810772	0.500143
H309	H	0.645658	0.347773	0.000139
H310	H	1.145658	0.847773	0.500139
H311	H	0.679847	0.282827	-0.042076
H312	H	1.179847	0.782827	0.457924
H313	H	0.679836	0.282901	0.042390
H314	H	1.179836	0.782901	0.542390
H315	H	0.744211	0.016059	0.665985
H316	H	1.244211	0.516059	1.165985
H317	H	0.593984	0.211567	0.000100
H318	H	1.093984	0.711567	0.500100
H319	H	0.624763	-0.018132	0.000009
H320	H	1.124763	0.481868	0.500009
C321	C	0.685122	0.462904	0.000092
C322	C	1.185122	0.962904	0.500092
H323	H	0.646951	0.436008	0.000095
H324	H	1.146951	0.936008	0.500095
H325	H	0.682895	0.491555	0.042311
H326	H	1.182895	0.991555	0.542311
H327	H	0.682918	0.491479	-0.042155
H328	H	1.182918	0.991479	0.457845
