data_functionalizedCrystal
_audit_creation_method	'MofGen! by Chris Wilmer'
_symmetry_space_group_name_H-M	'P1'
_symmetry_Int_Tables_number	1
_symmetry_cell_setting	triclinic
loop_
_symmetry_equiv_pos_as_xyz
  x,y,z
_cell_length_a	19.188925
_cell_length_b	17.699083
_cell_length_c	16.176319
_cell_angle_alpha	89.998611
_cell_angle_beta	89.993545
_cell_angle_gamma	83.212782
loop_
_atom_site_label
_atom_site_type_symbol
_atom_site_fract_x
_atom_site_fract_y
_atom_site_fract_z
O1	O	0.088295	1.003961	-0.068630
O2	O	0.421628	1.337294	0.264703
O3	O	0.754961	1.670627	0.598037
O4	O	0.099782	0.783567	-0.068657
O5	O	0.433115	1.116900	0.264676
O6	O	0.766449	1.450234	0.598010
O7	O	-0.007610	0.900126	-0.068638
O8	O	0.325723	1.233459	0.264695
O9	O	0.659056	1.566793	0.598029
O10	O	0.195687	0.887401	-0.068649
O11	O	0.529020	1.220735	0.264684
O12	O	0.862354	1.554068	0.598018
O13	O	-0.007617	0.900110	0.068855
O14	O	0.325716	1.233443	0.402188
O15	O	0.659049	1.566777	0.735522
O16	O	0.099775	0.783551	0.068836
O17	O	0.433109	1.116884	0.402169
O18	O	0.766442	1.450218	0.735503
O19	O	0.088288	1.003945	0.068863
O20	O	0.421621	1.337278	0.402197
O21	O	0.754955	1.670611	0.735530
Cu22	Cu	0.094031	0.893746	0.081404
Cu23	Cu	0.427364	1.227080	0.414737
Cu24	Cu	0.760698	1.560413	0.748071
Cu25	Cu	0.094039	0.893765	-0.081198
Cu26	Cu	0.427372	1.227099	0.252136
Cu27	Cu	0.760706	1.560432	0.585469
O28	O	0.195680	0.887386	0.068844
O29	O	0.529014	1.220719	0.402178
O30	O	0.862347	1.554052	0.735511
C31	C	0.099367	0.755362	0.000086
C32	C	0.432700	1.088696	0.333419
C33	C	0.766034	1.422029	0.666753
C34	C	0.098132	0.671346	0.000076
C35	C	0.431465	1.004679	0.333409
C36	C	0.764799	1.338013	0.666743
C37	C	-0.033625	0.899707	0.000108
C38	C	0.299708	1.233040	0.333441
C39	C	0.633041	1.566373	0.666775
C40	C	-0.111131	0.898472	0.000106
C41	C	0.222202	1.231805	0.333439
C42	C	0.555535	1.565138	0.666773
C43	C	0.161169	0.622641	0.000073
C44	C	0.494503	0.955974	0.333406
C45	C	0.827836	1.289307	0.666739
C46	C	0.160005	0.543699	0.000084
C47	C	0.493338	0.877032	0.333417
C48	C	0.826671	1.210366	0.666750
C49	C	0.095803	0.513464	0.000092
C50	C	0.429136	0.846797	0.333425
C51	C	0.762469	1.180131	0.666758
C52	C	0.032761	0.562176	0.000097
C53	C	0.366094	0.895509	0.333430
C54	C	0.699427	1.228842	0.666764
C55	C	0.033926	0.641116	0.000092
C56	C	0.367259	0.974449	0.333426
C57	C	0.700592	1.307782	0.666759
C58	C	0.028060	0.243819	0.000118
C59	C	0.361394	0.577152	0.333451
C60	C	0.694727	0.910485	0.666784
C61	C	0.026900	0.164872	0.000120
C62	C	0.360233	0.498206	0.333454
C63	C	0.693567	0.831539	0.666787
C64	C	0.154139	0.146402	0.000109
C65	C	0.487473	0.479735	0.333442
C66	C	0.820806	0.813069	0.666776
C67	C	0.155304	0.225342	0.000104
C68	C	0.488638	0.558676	0.333438
C69	C	0.821971	0.892009	0.666771
C70	C	0.092263	0.274047	0.000114
C71	C	0.425596	0.607380	0.333448
C72	C	0.758930	0.940713	0.666781
C73	C	0.093526	0.359644	0.000104
C74	C	0.426860	0.692978	0.333437
C75	C	0.760193	1.026311	0.666771
C76	C	0.094538	0.427868	0.000096
C77	C	0.427872	0.761201	0.333429
C78	C	0.761205	1.094535	0.666762
C79	C	-0.672834	0.958596	0.000093
C80	C	-0.339501	1.291929	0.333426
C81	C	-0.006168	1.625262	0.666759
C82	C	-0.600010	0.959763	0.000100
C83	C	-0.266676	1.293096	0.333434
C84	C	0.066657	1.626429	0.666767
C85	C	-0.555152	0.891370	0.000092
C86	C	-0.221819	1.224703	0.333425
C87	C	0.111515	1.558036	0.666758
C88	C	-0.583124	0.821804	0.000096
C89	C	-0.249791	1.155138	0.333430
C90	C	0.083543	1.488471	0.666763
C91	C	-0.655947	0.820639	0.000097
C92	C	-0.322614	1.153973	0.333430
C93	C	0.010719	1.487306	0.666764
N94	N	-0.434525	0.841861	-0.046714
N95	N	-0.101191	1.175195	0.286620
N96	N	0.232142	1.508528	0.619953
N97	N	-0.365346	0.842973	-0.046716
N98	N	-0.032013	1.176306	0.286617
N99	N	0.301321	1.509639	0.619951
C100	C	-0.335739	0.894875	0.000091
C101	C	-0.002406	1.228209	0.333425
C102	C	0.330928	1.561542	0.666758
N103	N	-0.377925	0.945637	0.046891
N104	N	-0.044592	1.278970	0.380224
N105	N	0.288742	1.612303	0.713558
N106	N	-0.447110	0.944527	0.046890
N107	N	-0.113777	1.277861	0.380223
N108	N	0.219556	1.611194	0.713556
C109	C	-0.476186	0.892625	0.000091
C110	C	-0.142853	1.225958	0.333425
C111	C	0.190480	1.559292	0.666758
C112	C	-0.228811	0.965702	0.000101
C113	C	0.104523	1.299035	0.333434
C114	C	0.437856	1.632368	0.666767
C115	C	-0.155984	0.966866	0.000113
C116	C	0.177349	1.300199	0.333447
C117	C	0.510682	1.633532	0.666780
C118	C	-0.139100	0.828905	0.000101
C119	C	0.194234	1.162239	0.333435
C120	C	0.527567	1.495572	0.666768
C121	C	-0.211925	0.827743	0.000097
C122	C	0.121409	1.161076	0.333430
C123	C	0.454742	1.494410	0.666764
C124	C	-0.256776	0.896143	0.000093
C125	C	0.076557	1.229477	0.333426
C126	C	0.409891	1.562810	0.666759
C127	C	0.221695	0.887805	0.000096
C128	C	0.555029	1.221138	0.333430
C129	C	0.888362	1.554472	0.666763
C130	C	0.299201	0.889040	0.000093
C131	C	0.632535	1.222373	0.333426
C132	C	0.965868	1.555706	0.666759
C133	C	0.088703	1.032149	0.000118
C134	C	0.422036	1.365482	0.333452
C135	C	0.755370	1.698816	0.666785
C136	C	0.089938	1.116166	0.000123
C137	C	0.423271	1.449499	0.333456
C138	C	0.756604	1.782832	0.666790
N139	N	0.094025	0.893739	0.195769
N140	N	0.427358	1.227072	0.529102
N141	N	0.760691	1.560405	0.862436
N142	N	0.094040	0.893779	-0.195563
N143	N	0.427373	1.227112	0.137770
N144	N	0.760706	1.560446	0.471104
C145	C	0.046491	0.945366	0.239042
C146	C	0.379824	1.278700	0.572375
C147	C	0.713157	1.612033	0.905708
C148	C	0.046490	0.945370	0.325589
C149	C	0.379823	1.278704	0.658922
C150	C	0.713157	1.612037	0.992255
C151	C	0.094027	0.893749	0.368862
C152	C	0.427361	1.227083	0.702195
C153	C	0.760694	1.560416	1.035528
C154	C	0.141563	0.842116	0.325583
C155	C	0.474897	1.175449	0.658916
C156	C	0.808230	1.508783	0.992250
C157	C	0.141560	0.842109	0.239038
C158	C	0.474894	1.175442	0.572371
C159	C	0.808227	1.508776	0.905704
C160	C	0.141577	0.842142	0.674611
C161	C	0.474910	1.175475	1.007945
C162	C	0.808243	1.508808	1.341278
C163	C	0.141577	0.842154	0.761163
C164	C	0.474911	1.175488	1.094496
C165	C	0.808244	1.508821	1.427830
C166	C	0.046506	0.945403	0.761163
C167	C	0.379840	1.278736	1.094496
C168	C	0.713173	1.612070	1.427829
C169	C	0.046503	0.945396	0.674617
C170	C	0.379836	1.278729	1.007950
C171	C	0.713170	1.612063	1.341284
C172	C	0.094037	0.893760	0.631346
C173	C	0.427370	1.227094	0.964679
C174	C	0.760703	1.560427	1.298013
C175	C	0.094036	0.893756	0.537502
C176	C	0.427369	1.227089	0.870835
C177	C	0.760703	1.560423	1.204168
C178	C	0.094032	0.893757	0.462704
C179	C	0.427365	1.227090	0.796038
C180	C	0.760698	1.560423	1.129371
H181	H	0.213450	0.647251	0.000066
H182	H	0.546783	0.980585	0.333399
H183	H	0.880117	1.313918	0.666732
H184	H	-0.546596	0.766118	0.000092
H185	H	-0.213263	1.099452	0.333425
H186	H	0.120071	1.432785	0.666759
H187	H	0.211336	0.504046	0.000080
H188	H	0.544669	0.837379	0.333413
H189	H	0.878003	1.170712	0.666747
F190	F	0.192154	0.787173	0.371638
F191	F	0.525487	1.120506	0.704971
F192	F	0.858820	1.453839	1.038305
F193	F	0.223637	0.257516	0.000091
F194	F	0.556970	0.590849	0.333424
F195	F	0.890304	0.924182	0.666757
H196	H	0.180266	0.800068	0.203806
H197	H	0.513600	1.133401	0.537139
H198	H	0.846933	1.466734	0.870472
F199	F	-0.685709	0.746605	0.000097
F200	F	-0.352376	1.079938	0.333430
F201	F	-0.019043	1.413272	0.666763
F202	F	0.221234	0.094561	0.000102
F203	F	0.554568	0.427894	0.333435
F204	F	0.887901	0.761227	0.666768
F205	F	-0.276547	1.038498	0.000099
F206	F	0.056786	1.371831	0.333433
F207	F	0.390120	1.705165	0.666766
F208	F	-0.126224	1.040901	0.000111
F209	F	0.207110	1.374234	0.333445
F210	F	0.540443	1.707567	0.666778
H211	H	-0.102577	0.773218	0.000102
H212	H	0.230756	1.106552	0.333435
H213	H	0.564090	1.439885	0.666768
F214	F	-0.241687	0.753711	0.000091
F215	F	0.091646	1.087044	0.333424
F216	F	0.424979	1.420378	0.666757
H217	H	-0.025384	0.140259	0.000128
H218	H	0.307949	0.473592	0.333461
H219	H	0.641282	0.806926	0.666794
H220	H	-0.023272	0.283465	0.000127
H221	H	0.310061	0.616799	0.333460
H222	H	0.643394	0.950132	0.666793
F223	F	0.192175	0.787209	0.807216
F224	F	0.525508	1.120542	1.140549
F225	F	0.858841	1.453875	1.473882
F226	F	-0.033167	0.692952	0.000099
F227	F	0.300166	1.026285	0.333432
F228	F	0.633500	1.359618	0.666765
F229	F	-0.035569	0.529995	0.000111
F230	F	0.297765	0.863329	0.333444
F231	F	0.631098	1.196662	0.666778
H232	H	0.007800	0.987445	0.796403
H233	H	0.341133	1.320779	1.129736
H234	H	0.674466	1.654112	1.463070
H235	H	0.007784	0.987405	0.203815
H236	H	0.341117	1.320739	0.537148
H237	H	0.674450	1.654072	0.870481
F238	F	-0.004102	1.000317	0.371643
F239	F	0.329232	1.333651	0.704976
F240	F	0.662565	1.666984	1.038310
H241	H	-0.709348	1.014293	0.000094
H242	H	-0.376015	1.347626	0.333427
H243	H	-0.042682	1.680960	0.666760
F244	F	-0.570241	1.033797	0.000108
F245	F	-0.236908	1.367130	0.333441
F246	F	0.096426	1.700463	0.666775
H247	H	0.007796	0.987433	0.639387
H248	H	0.341130	1.320766	0.972720
H249	H	0.674463	1.654100	1.306054
H250	H	0.180281	0.800100	0.639387
H251	H	0.513614	1.133433	0.972720
H252	H	0.846948	1.466766	1.306053
