data_functionalizedCrystal
_audit_creation_method	'MofGen! by Chris Wilmer'
_symmetry_space_group_name_H-M	'P1'
_symmetry_Int_Tables_number	1
_symmetry_cell_setting	triclinic
loop_
_symmetry_equiv_pos_as_xyz
  x,y,z
_cell_length_a	10.654541
_cell_length_b	14.519709
_cell_length_c	9.130307
_cell_angle_alpha	89.995756
_cell_angle_beta	89.999822
_cell_angle_gamma	84.082037
loop_
_atom_site_label
_atom_site_type_symbol
_atom_site_fract_x
_atom_site_fract_y
_atom_site_fract_z
O1	O	1.666593	0.129520	-0.121758
O2	O	1.300996	0.141863	-0.121771
O3	O	1.493488	0.001504	-0.121751
O4	O	1.474101	0.269880	-0.121778
O5	O	1.493481	0.001502	0.121848
O6	O	1.300989	0.141862	0.121828
O7	O	1.666587	0.129519	0.121841
Cu8	Cu	1.483788	0.135690	0.144077
Cu9	Cu	1.483795	0.135692	-0.144007
O10	O	1.474095	0.269879	0.121821
C11	C	1.254203	0.140957	0.000027
C12	C	1.114786	0.138247	0.000022
C13	C	1.085201	0.306085	-0.000013
C14	C	1.004912	0.388727	-0.000036
C15	C	0.873919	0.386175	-0.000038
C16	C	0.823213	0.300972	-0.000011
C17	C	0.903502	0.218330	0.000012
C18	C	1.034496	0.220891	0.000009
C19	C	0.933086	0.050493	0.000058
C20	C	1.064080	0.053043	0.000049
C21	C	0.882380	-0.034710	0.000085
C22	C	0.962669	-0.117354	0.000098
C23	C	1.093670	-0.114798	0.000097
C24	C	1.144369	-0.029599	0.000072
C25	C	1.492581	-0.032862	0.000049
C26	C	1.489874	-0.135257	0.000049
C27	C	1.479906	-0.510204	0.000011
C28	C	1.482674	-0.405882	0.000022
C29	C	1.484890	-0.322734	0.000032
C30	C	1.487658	-0.218405	0.000040
C31	C	1.713380	0.130425	0.000040
C32	C	1.852797	0.133135	0.000035
C33	C	1.475002	0.304244	0.000018
C34	C	1.477709	0.406639	0.000008
N35	N	1.483792	0.135689	0.346700
N36	N	1.483801	0.135686	-0.346630
C37	C	1.654313	0.011436	0.346708
C38	C	1.739582	-0.050687	0.423378
C39	C	1.739594	-0.050688	0.576712
C40	C	1.654326	0.011440	0.653378
C41	C	1.569057	0.073564	0.576707
C42	C	1.569056	0.073559	0.423370
C43	C	1.398532	0.197810	0.576700
C44	C	1.398524	0.197816	0.423366
C45	C	1.313264	0.259937	0.653366
C46	C	1.227999	0.322067	0.576695
C47	C	1.227991	0.322066	0.423352
C48	C	1.313255	0.259940	0.346695
H49	H	0.808546	0.453470	-0.000046
C50	C	1.340076	-0.071631	-0.125142
C51	C	1.288357	-0.026786	0.000069
H52	H	1.428967	-0.069886	-0.125143
H53	H	1.321377	-0.134192	-0.125110
H54	H	1.304970	-0.041215	-0.210091
H55	H	1.323457	-0.057206	0.085018
H56	H	1.307067	0.035787	0.000051
C57	C	1.192582	0.467175	-0.000066
C58	C	1.060650	0.482380	-0.000066
H59	H	1.226986	0.524993	-0.000089
H60	H	1.220118	0.433124	0.084886
H61	H	1.220117	0.433108	-0.085011
H62	H	1.033116	0.516442	0.084886
H63	H	1.033104	0.516446	-0.085027
C64	C	1.338759	0.347004	0.127024
C65	C	1.313252	0.259937	0.178149
H66	H	1.338766	0.346995	0.022970
H67	H	1.275775	0.392883	0.161697
H68	H	1.419047	0.360172	0.161716
H69	H	1.232959	0.246771	0.143466
H70	H	1.376239	0.214043	0.143461
C71	C	1.766586	-0.176007	0.749176
C72	C	1.833316	-0.118975	0.661001
H73	H	1.824447	-0.218168	0.801206
H74	H	1.715820	-0.139003	0.816763
H75	H	1.714251	-0.209542	0.689352
H76	H	1.885644	-0.085435	0.720827
H77	H	1.884104	-0.155984	0.593407
H78	H	1.654322	0.011438	0.221855
C79	C	1.194927	0.240509	0.873030
C80	C	1.313274	0.259935	0.821912
H81	H	1.194939	0.240505	0.977084
H82	H	1.131955	0.286397	0.838346
H83	H	1.177637	0.181442	0.838344
H84	H	1.330561	0.319006	0.856590
H85	H	1.376266	0.214045	0.856611
H86	H	1.809004	-0.101273	0.360943
H87	H	0.921373	-0.186720	0.000118
H88	H	1.159035	-0.182096	0.000122
C89	C	1.010717	0.374716	0.623918
C90	C	1.134277	0.390345	0.660972
H91	H	0.952858	0.416866	0.675960
H92	H	0.998518	0.383620	0.521640
H93	H	0.996975	0.313065	0.649049
H94	H	1.148022	0.451995	0.635830
H95	H	1.146481	0.381449	0.763272
C96	C	1.154569	0.481217	0.376132
C97	C	1.134262	0.390356	0.339079
H98	H	1.096708	0.523376	0.324100
H99	H	1.142368	0.490098	0.478412
H100	H	1.238400	0.491801	0.350988
H101	H	1.050433	0.379770	0.364233
H102	H	1.146453	0.381472	0.236776
H103	H	1.191861	0.308172	-0.000044
H104	H	1.654331	0.011428	0.778230
H105	H	0.716550	0.298901	0.000006
C106	C	0.702779	-0.084051	0.125320
C107	C	0.738390	-0.037519	0.000083
H108	H	0.613885	-0.085781	0.125316
H109	H	0.743337	-0.145454	0.125330
H110	H	0.726948	-0.052462	0.210251
H111	H	0.714230	-0.069112	-0.084849
H112	H	0.697818	0.023895	0.000059
