data_functionalizedCrystal
_audit_creation_method	'MofGen! by Chris Wilmer'
_symmetry_space_group_name_H-M	'P1'
_symmetry_Int_Tables_number	1
_symmetry_cell_setting	triclinic
loop_
_symmetry_equiv_pos_as_xyz
  x,y,z
_cell_length_a	6.817900
_cell_length_b	15.866870
_cell_length_c	14.858572
_cell_angle_alpha	112.093349
_cell_angle_beta	104.524003
_cell_angle_gamma	102.655915
loop_
_atom_site_label
_atom_site_type_symbol
_atom_site_fract_x
_atom_site_fract_y
_atom_site_fract_z
V1	V	-4.065742	-0.133334	-0.335668
V2	V	-3.565742	0.366666	0.164332
O3	O	-4.024422	0.005786	-0.282457
O4	O	-3.524422	0.505786	0.217543
O5	O	-4.044008	-0.263781	-0.378402
O6	O	-3.544008	0.236219	0.121598
O7	O	-4.022016	-0.131555	-0.461520
O8	O	-3.522016	0.368445	0.038480
O9	O	-4.046567	-0.127355	-0.198764
O10	O	-3.546567	0.372645	0.301236
V11	V	-4.545308	-0.116661	-0.313823
V12	V	-4.045308	0.383339	0.186177
O13	O	-4.335678	-0.169906	-0.383586
O14	O	-3.835678	0.330094	0.116414
O15	O	-4.725569	-0.080089	-0.265904
O16	O	-4.225569	0.419911	0.234096
O17	O	-4.343835	0.013786	-0.271088
O18	O	-3.843835	0.513786	0.228912
O19	O	-4.704024	-0.255781	-0.367033
O20	O	-4.204024	0.244219	0.132967
O21	O	-4.681880	-0.122640	-0.450726
O22	O	-4.181880	0.377360	0.049274
O23	O	-4.365828	-0.118440	-0.187971
O24	O	-3.865828	0.381560	0.312029
C25	C	-3.895345	-0.295573	-0.384726
C26	C	-3.395345	0.204427	0.115274
C27	C	-3.958894	-0.402217	-0.420506
C28	C	-3.458894	0.097783	0.079494
C29	C	-3.935468	-0.683610	-0.088619
C30	C	-3.435468	-0.183610	0.411381
C31	C	-3.995192	-0.783823	-0.122270
C32	C	-3.495192	-0.283823	0.377730
C33	C	-4.088163	-0.811550	-0.302100
C34	C	-3.588163	-0.311550	0.197900
C35	C	-4.028436	-0.711337	-0.268463
C36	C	-3.528436	-0.211337	0.231537
C37	C	-3.952093	-0.647375	-0.161721
C38	C	-3.452093	-0.147375	0.338279
C39	C	-4.045061	-0.675101	-0.341565
C40	C	-3.545061	-0.175101	0.158435
C41	C	-3.985349	-0.574898	-0.307931
C42	C	-3.485349	-0.074898	0.192069
C43	C	-3.909012	-0.510929	-0.201194
C44	C	-3.409012	-0.010929	0.298806
C45	C	-3.892381	-0.547171	-0.128087
C46	C	-3.392381	-0.047171	0.371913
C47	C	-4.121418	-0.739066	-0.448307
C48	C	-3.621418	-0.239066	0.051693
C49	C	-4.138044	-0.702830	-0.521409
C50	C	-3.638044	-0.202830	-0.021409
C51	C	-4.078317	-0.602624	-0.487775
C52	C	-3.578317	-0.102624	0.012225
C53	C	-4.001980	-0.538656	-0.381038
C54	C	-3.501980	-0.038656	0.118962
C55	C	-4.094948	-0.566383	-0.560882
C56	C	-3.594948	-0.066383	-0.060882
C57	C	-4.035236	-0.466179	-0.527248
C58	C	-3.535236	0.033821	-0.027248
C59	C	-3.942268	-0.438452	-0.347404
C60	C	-3.442268	0.061548	0.152596
C61	C	-3.867290	-0.126905	-0.490749
C62	C	-3.367290	0.373095	0.009251
C63	C	-3.913000	-0.126314	-0.593930
C64	C	-3.413000	0.373686	-0.093930
C65	C	-4.080298	-0.124154	-0.971758
C66	C	-3.580298	0.375846	-0.471758
C67	C	-4.033742	-0.124755	-0.866634
C68	C	-3.533742	0.375245	-0.366634
C69	C	-3.996650	-0.125235	-0.782847
C70	C	-3.496650	0.374765	-0.282847
C71	C	-3.950091	-0.125834	-0.677716
C72	C	-3.450091	0.374166	-0.177716
C73	C	-4.155841	0.045573	-0.264763
C74	C	-3.655841	0.545573	0.235237
C75	C	-4.071532	0.152216	-0.228990
C76	C	-3.571532	0.652216	0.271010
C77	C	-4.183896	-0.123093	-0.158737
C78	C	-3.683896	0.376907	0.341263
C79	C	-4.117424	-0.123679	-0.055554
C80	C	-3.617424	0.376321	0.444446
H81	H	-4.048806	-0.436677	-0.586776
H82	H	-3.548806	0.063323	-0.086776
H83	H	-4.170038	-0.820658	-0.475688
H84	H	-3.670038	-0.320658	0.024312
F85	F	-3.977485	-0.822382	-0.044455
F86	F	-3.477485	-0.322382	0.455545
H87	H	-4.157133	-0.618476	-0.647792
H88	H	-3.657133	-0.118476	-0.147792
H89	H	-3.860402	-0.429338	-0.173811
H90	H	-3.360402	0.070662	0.326189
H91	H	-4.200216	-0.754922	-0.608319
H92	H	-3.700216	-0.254922	-0.108319
H93	H	-3.830183	-0.495087	-0.041166
H94	H	-3.330183	0.004913	0.458834
H95	H	-3.880070	-0.386369	-0.260483
H96	H	-3.380070	0.113631	0.239517
F97	F	-3.854185	-0.615530	0.024990
F98	F	-3.354185	-0.115530	0.524990
H99	H	-4.150336	-0.863641	-0.389009
H100	H	-3.650336	-0.363641	0.110991
