data_functionalizedCrystal
_audit_creation_method	'MofGen! by Chris Wilmer'
_symmetry_space_group_name_H-M	'P1'
_symmetry_Int_Tables_number	1
_symmetry_cell_setting	triclinic
loop_
_symmetry_equiv_pos_as_xyz
  x,y,z
_cell_length_a	13.635800
_cell_length_b	27.692531
_cell_length_c	19.453114
_cell_angle_alpha	80.025118
_cell_angle_beta	101.709288
_cell_angle_gamma	95.110812
loop_
_atom_site_label
_atom_site_type_symbol
_atom_site_fract_x
_atom_site_fract_y
_atom_site_fract_z
V1	V	1.958454	-0.067634	0.219465
O2	O	1.999186	0.002730	0.214811
O3	O	1.890415	-0.133606	0.218422
O4	O	1.930451	-0.066821	0.314973
O5	O	1.958872	-0.064517	0.117592
V6	V	2.206441	-0.059190	0.207225
O7	O	2.075426	-0.086155	0.246315
O8	O	2.314567	-0.040669	0.180374
O9	O	2.162877	0.006782	0.208268
O10	O	2.224408	-0.129554	0.211879
O11	O	2.264721	-0.062307	0.309097
O12	O	2.122841	-0.060003	0.111717
V13	V	2.458454	-0.067634	0.219465
O14	O	2.499186	0.002730	0.214811
O15	O	2.390415	-0.133606	0.218422
O16	O	2.430451	-0.066821	0.314973
O17	O	2.458872	-0.064517	0.117592
V18	V	2.706441	-0.059190	0.207225
O19	O	2.575426	-0.086155	0.246315
O20	O	2.814567	-0.040669	0.180374
O21	O	2.662877	0.006782	0.208268
O22	O	2.724408	-0.129554	0.211879
O23	O	2.764721	-0.062307	0.309097
O24	O	2.622841	-0.060003	0.111717
C25	C	2.302374	-0.149682	0.215078
C26	C	2.287362	-0.203617	0.214862
C27	C	2.181865	-0.530988	0.149074
C28	C	2.125481	-0.733693	0.148223
O29	O	2.107608	-0.753887	0.093370
N30	N	2.130921	-0.766115	0.212489
C31	C	2.150465	-0.747859	0.276973
O32	O	2.153809	-0.780087	0.331616
C33	C	2.206856	-0.545154	0.277823
C34	C	2.201405	-0.512734	0.213552
C35	C	2.176416	-0.498568	0.084808
C36	C	2.190506	-0.447895	0.085021
C37	C	2.210045	-0.429641	0.149500
C38	C	2.215494	-0.462061	0.213765
C39	C	2.226407	-0.526899	0.342306
C40	C	2.240507	-0.476219	0.342513
C41	C	2.235055	-0.443799	0.278242
C42	C	2.249123	-0.393134	0.278457
N43	N	2.243684	-0.360711	0.214191
C44	C	2.224145	-0.378965	0.149712
C45	C	2.120857	-0.854281	0.276522
C46	C	2.106757	-0.904957	0.276309
C47	C	2.081776	-0.890788	0.147559
C48	C	2.095869	-0.840111	0.147772
C49	C	2.115417	-0.821859	0.212256
C50	C	2.253734	-0.272548	0.150165
C51	C	2.267823	-0.221870	0.150383
C52	C	2.292808	-0.236044	0.279133
C53	C	2.278716	-0.286717	0.278915
C54	C	2.259182	-0.304967	0.214425
O55	O	2.267011	-0.372906	0.333282
O56	O	2.220827	-0.346729	0.095078
C57	C	2.167775	-0.581661	0.148860
C58	C	2.173225	-0.614081	0.213126
C59	C	2.192764	-0.595827	0.277605
C60	C	2.159125	-0.664757	0.212914
C61	C	2.139586	-0.683010	0.148435
C62	C	2.134146	-0.650588	0.084169
C63	C	2.148236	-0.599915	0.084382
C64	C	2.198204	-0.628249	0.341871
C65	C	2.184112	-0.678922	0.341652
C66	C	2.164573	-0.697176	0.277174
C67	C	1.802374	-0.149682	0.215078
C68	C	1.787362	-0.203617	0.214862
C69	C	1.853444	-0.064491	0.338237
C70	C	1.870900	-0.064263	0.416318
C71	C	2.082588	0.022855	0.211610
C72	C	2.087218	0.076790	0.211831
C73	C	2.031518	-0.062335	0.088449
C74	C	2.003683	-0.062560	0.010368
C75	C	2.353444	-0.064491	0.338237
C76	C	2.370900	-0.064263	0.416318
C77	C	1.968374	-0.066591	0.456591
C78	C	1.984776	-0.066378	0.529956
C79	C	1.903697	-0.063845	0.563048
C80	C	1.806210	-0.061514	0.522764
C81	C	1.789812	-0.061723	0.449399
N82	N	1.856799	-0.089468	0.682013
N83	N	1.872383	-0.089270	0.751708
C84	C	1.953099	-0.063214	0.784092
N85	N	2.017657	-0.037370	0.744151
N86	N	2.002074	-0.037569	0.674451
C87	C	1.921468	-0.063618	0.642599
C88	C	2.068364	-0.065311	0.903916
C89	C	2.084764	-0.065094	0.977282
C90	C	1.906194	-0.060234	0.970090
C91	C	1.889798	-0.060447	0.896724
C92	C	1.970887	-0.062987	0.863642
C93	C	2.582588	0.022855	0.211610
C94	C	2.587218	0.076790	0.211831
C95	C	2.531518	-0.062335	0.088449
C96	C	2.503683	-0.062560	0.010368
C97	C	1.869568	-0.231427	0.218287
C98	C	1.855479	-0.282106	0.218094
C99	C	1.759181	-0.304974	0.214472
C100	C	1.676969	-0.277160	0.211049
C101	C	1.691060	-0.226482	0.211246
C102	C	2.468385	-0.066583	0.456582
C103	C	2.484803	-0.066363	0.529946
C104	C	2.403733	-0.063826	0.563046
C105	C	2.306241	-0.061504	0.522775
C106	C	2.289825	-0.061721	0.449412
C107	C	2.677505	0.104600	0.208408
C108	C	2.681866	0.155279	0.208603
C109	C	2.595940	0.178146	0.212227
C110	C	2.505646	0.150332	0.215649
C111	C	2.501284	0.099655	0.215448
C112	C	2.402525	-0.065092	-0.022713
C113	C	2.376357	-0.065298	-0.096080
C114	C	2.451348	-0.062975	-0.136364
C115	C	2.552515	-0.060442	-0.103278
C116	C	2.578681	-0.060233	-0.029913
H117	H	2.237831	-0.287400	0.097651
H118	H	2.564192	-0.068256	0.562725
H119	H	1.922431	-0.304745	0.220880
C120	C	2.369303	-0.104121	0.675942
C121	C	2.421785	-0.063591	0.643690
H122	H	2.380448	-0.103974	0.725728
H123	H	2.392224	-0.133500	0.667280
H124	H	2.299641	-0.102369	0.656698
H125	H	2.491449	-0.065345	0.662930
H126	H	2.398869	-0.034205	0.652357
H127	H	2.747480	0.085988	0.205457
H128	H	2.065860	-0.905658	0.095058
C129	C	2.317944	-0.065928	-0.237527
C130	C	2.422574	-0.063211	-0.217006
H131	H	2.300179	-0.066078	-0.287311
H132	H	2.291468	-0.038337	-0.226216
H133	H	2.291228	-0.095216	-0.212978
H134	H	2.449290	-0.033921	-0.241552
H135	H	2.449061	-0.090805	-0.228324
H136	H	2.256434	-0.461362	0.395025
H137	H	2.613566	-0.058550	-0.136088
C138	C	2.766821	0.235156	0.205783
C139	C	2.781125	0.185844	0.204848
H140	H	2.828098	0.254024	0.203460
H141	H	2.745549	0.237920	0.248438
H142	H	2.717123	0.246969	0.166075
H143	H	2.830817	0.174030	0.244559
H144	H	2.802411	0.183078	0.162188
H145	H	2.661055	-0.058174	-0.002984
H146	H	2.599505	0.219411	0.212390
H147	H	2.186071	-0.421502	0.032685
H148	H	1.740196	-0.059450	0.549712
C149	C	2.132878	-0.913859	0.403593
C150	C	2.112743	-0.940590	0.346958
H151	H	2.136584	-0.935858	0.447209
H152	H	2.080762	-0.892218	0.398744
H153	H	2.194955	-0.895380	0.403240
H154	H	2.050662	-0.959066	0.347307
H155	H	2.164863	-0.962239	0.351808
H156	H	2.293978	-0.067360	-0.123007
H157	H	2.160510	-0.513424	0.032299
H158	H	2.263378	-0.195475	0.098044
H159	H	2.435688	0.168958	0.218598
H160	H	2.240239	-0.059439	0.549736
C161	C	2.216154	-0.025754	1.054207
C162	C	2.191916	-0.067651	1.021554
H163	H	2.282308	-0.027332	1.081536
H164	H	2.170217	-0.024215	1.084408
H165	H	2.212390	0.002700	1.018817
H166	H	2.195673	-0.096105	1.056944
H167	H	2.237866	-0.069195	0.991350
H168	H	2.136770	-0.839426	0.329035
C169	C	2.069769	-0.831208	0.020490
C170	C	2.089895	-0.804477	0.077125
H171	H	2.066090	-0.809210	-0.023125
H172	H	2.007693	-0.849680	0.020831
H173	H	2.121887	-0.852857	0.025352
H174	H	2.037772	-0.782831	0.072267
H175	H	2.151979	-0.785997	0.076784
C176	C	2.044595	-0.241420	0.225239
C177	C	1.975427	-0.206299	0.222270
H178	H	2.109951	-0.225909	0.227703
H179	H	2.027391	-0.256557	0.183836
H180	H	2.043361	-0.265609	0.266199
H181	H	1.976655	-0.182112	0.181307
H182	H	1.992636	-0.191155	0.263676
C183	C	2.252549	-0.535793	0.469587
C184	C	2.232410	-0.562527	0.412957
H185	H	2.256263	-0.557789	0.513206
H186	H	2.200431	-0.514153	0.464739
H187	H	2.314623	-0.517311	0.469228
H188	H	2.170333	-0.581005	0.413312
H189	H	2.284533	-0.584175	0.417806
H190	H	2.143795	-0.573522	0.032046
H191	H	2.283138	-0.313115	0.331248
C192	C	2.123255	-0.099593	0.430522
C193	C	2.182649	-0.059186	0.405176
H194	H	2.057085	-0.098031	0.403217
H195	H	2.121467	-0.099094	0.478950
H196	H	2.150926	-0.129059	0.426578
H197	H	2.154982	-0.029719	0.409125
H198	H	2.184433	-0.059680	0.356737
C199	C	2.325515	-0.164647	0.336613
C200	C	2.314291	-0.215973	0.350006
H201	H	2.338789	-0.152256	0.380368
H202	H	2.265595	-0.151855	0.307952
H203	H	2.379785	-0.155022	0.312444
H204	H	2.260015	-0.225598	0.374170
H205	H	2.374218	-0.228770	0.378678
H206	H	1.624113	-0.203842	0.208454
H207	H	2.427762	0.077015	0.218241
C208	C	2.101470	-0.721986	0.026689
C209	C	2.112679	-0.670660	0.013293
H210	H	2.088229	-0.734378	-0.017065
H211	H	2.047194	-0.731614	0.050841
H212	H	2.161394	-0.734774	0.055367
H213	H	2.052752	-0.657872	-0.015381
H214	H	2.166960	-0.661027	-0.010870
H215	H	2.214112	-0.613393	0.394378
C216	C	2.210243	-0.687826	0.468941
C217	C	2.190109	-0.714556	0.412306
H218	H	2.213958	-0.709824	0.512558
H219	H	2.158121	-0.666188	0.464095
H220	H	2.272314	-0.669342	0.468585
H221	H	2.128034	-0.733037	0.412659
H222	H	2.242235	-0.736202	0.417154
H223	H	2.034405	-0.068658	0.429660
H224	H	2.064153	-0.068276	0.562754
C225	C	1.641819	-0.374884	0.210353
C226	C	1.743701	-0.360680	0.214255
H227	H	1.632270	-0.409275	0.210223
H228	H	1.604057	-0.357984	0.167918
H229	H	1.620041	-0.367032	0.250281
H230	H	1.765478	-0.368529	0.174324
H231	H	1.781476	-0.377585	0.256694
H232	H	1.598564	-0.295786	0.208100
H233	H	2.341450	-0.066983	0.010076
C234	C	1.623227	-0.099579	0.430460
C235	C	1.682650	-0.059174	0.405141
H236	H	1.557069	-0.098009	0.403136
H237	H	1.621410	-0.099084	0.478883
H238	H	1.650896	-0.129047	0.426518
H239	H	1.654985	-0.029706	0.409087
H240	H	1.684464	-0.059664	0.356705
C241	C	2.206173	-0.111438	0.897203
C242	C	2.157494	-0.068097	0.867545
H243	H	2.261201	-0.113156	0.874752
H244	H	2.160462	-0.138910	0.890311
H245	H	2.229886	-0.111639	0.946660
H246	H	2.133774	-0.067898	0.818089
H247	H	2.203213	-0.040619	0.874431
C248	C	1.852042	-0.057757	1.079355
C249	C	1.817066	-0.057450	1.006455
H250	H	1.797015	-0.056039	1.101806
H251	H	1.897749	-0.030283	1.086240
H252	H	1.885068	-0.087162	1.099461
H253	H	1.784046	-0.028042	0.986348
H254	H	1.771342	-0.084926	0.999565
C255	C	1.723226	-0.098314	0.877804
C256	C	1.782633	-0.057905	0.852475
H257	H	1.657062	-0.096747	0.850490
H258	H	1.721423	-0.097820	0.926230
H259	H	1.750898	-0.127779	0.873857
H260	H	1.754965	-0.028439	0.856427
H261	H	1.784432	-0.058394	0.804037
H262	H	2.534408	-0.068651	0.429643
