data_functionalizedCrystal
_audit_creation_method	'MofGen! by Chris Wilmer'
_symmetry_space_group_name_H-M	'P1'
_symmetry_Int_Tables_number	1
_symmetry_cell_setting	triclinic
loop_
_symmetry_equiv_pos_as_xyz
  x,y,z
_cell_length_a	23.532355
_cell_length_b	23.532407
_cell_length_c	14.184680
_cell_angle_alpha	76.938487
_cell_angle_beta	103.078329
_cell_angle_gamma	82.838088
loop_
_atom_site_label
_atom_site_type_symbol
_atom_site_fract_x
_atom_site_fract_y
_atom_site_fract_z
O1	O	0.768259	0.056021	0.083298
O2	O	0.602396	0.066050	0.083331
O3	O	0.690326	-0.021894	0.083295
O4	O	0.680329	0.143965	0.083334
O5	O	0.664319	0.004089	-0.083554
O6	O	0.576389	0.092033	-0.083517
O7	O	0.742252	0.082004	-0.083551
Cu8	Cu	0.656946	0.089391	-0.098769
Cu9	Cu	0.687702	0.058663	0.098549
O10	O	0.654322	0.169948	-0.083515
C11	C	0.568177	0.078790	-0.000089
C12	C	0.504960	0.078034	-0.000077
C13	C	0.098763	0.087466	-0.091070
C14	C	0.039363	0.086749	-0.091074
O15	O	-0.003412	0.098404	-0.168422
N16	N	0.023831	0.072230	-0.000125
C17	C	0.067704	0.058421	0.090834
O18	O	0.049038	0.046005	0.168193
C19	C	0.127103	0.059134	0.090837
C20	C	0.142630	0.073660	-0.000118
C21	C	0.114292	0.101990	-0.182017
C22	C	0.173687	0.102708	-0.182013
C23	C	0.217555	0.088902	-0.091061
C24	C	0.202026	0.074378	-0.000113
C25	C	0.170975	0.045321	0.181795
C26	C	0.230378	0.046035	0.181790
C27	C	0.245905	0.060561	0.090835
C28	C	0.305289	0.061289	0.090843
N29	N	0.320821	0.075808	-0.000106
C30	C	0.276954	0.089615	-0.091058
C31	C	-0.057040	0.056924	0.090821
C32	C	-0.116438	0.056215	0.090819
C33	C	-0.144775	0.084542	-0.091089
C34	C	-0.085376	0.085255	-0.091086
C35	C	-0.041508	0.071443	-0.000128
C36	C	0.401691	0.091121	-0.091042
C37	C	0.461093	0.091840	-0.091029
C38	C	0.489425	0.063510	0.090878
C39	C	0.430027	0.062794	0.090867
C40	C	0.386161	0.076599	-0.000102
O41	O	0.348096	0.049638	0.168152
O42	O	0.295630	0.102021	-0.168403
C43	C	0.677068	-0.030118	-0.000132
C44	C	0.676301	-0.093334	-0.000139
C45	C	0.723542	-0.492453	-0.000094
C46	C	0.722832	-0.551854	-0.000086
O47	O	0.766623	-0.588611	-0.000058
N48	N	0.670556	-0.574472	-0.000076
C49	C	0.618988	-0.537687	-0.000064
O50	O	0.574458	-0.562380	-0.000054
C51	C	0.619700	-0.478288	-0.000064
C52	C	0.671978	-0.455672	-0.000084
C53	C	0.775816	-0.469837	-0.000113
C54	C	0.776526	-0.410439	-0.000122
C55	C	0.724962	-0.373658	-0.000113
C56	C	0.672688	-0.396274	-0.000094
C57	C	0.568134	-0.441505	-0.000045
C58	C	0.568851	-0.382103	-0.000045
C59	C	0.621129	-0.359487	-0.000065
C60	C	0.621834	-0.300096	-0.000095
N61	N	0.674110	-0.277478	-0.000104
C62	C	0.725674	-0.314259	-0.000114
C63	C	0.617497	-0.662430	-0.000061
C64	C	0.616784	-0.721826	-0.000068
C65	C	0.720628	-0.735990	-0.000088
C66	C	0.721340	-0.676591	-0.000088
C67	C	0.669773	-0.639812	-0.000071
C68	C	0.727160	-0.189519	-0.000135
C69	C	0.727865	-0.130115	-0.000148
C70	C	0.624022	-0.115958	-0.000123
C71	C	0.623316	-0.175356	-0.000114
C72	C	0.674890	-0.212136	-0.000117
O73	O	0.578066	-0.263305	-0.000119
O74	O	0.770198	-0.289560	-0.000110
C75	C	0.776472	0.069264	-0.000128
C76	C	0.839689	0.070018	-0.000134
C77	C	0.667581	0.178172	-0.000086
C78	C	0.668349	0.241386	-0.000071
N79	N	0.635317	0.111003	-0.237552
C80	C	0.571836	0.174463	-0.395093
C81	C	0.588200	0.158103	-0.290063
C82	C	0.666091	0.080247	-0.290059
C83	C	0.649735	0.096602	-0.395092
C84	C	0.602607	0.143710	-0.447601
C85	C	0.680506	0.065850	-0.447599
C86	C	0.664149	0.082202	-0.552622
C87	C	0.617022	0.129307	-0.605139
C88	C	0.586250	0.160062	-0.552624
C89	C	0.727631	0.018739	-0.395088
C90	C	0.758402	-0.012013	-0.447595
C91	C	0.742048	0.004342	-0.552621
C92	C	0.694921	0.051446	-0.605137
C93	C	0.772820	-0.026414	-0.605135
C94	C	0.756463	-0.010062	-0.710159
C95	C	0.678564	0.067799	-0.710161
N96	N	0.709335	0.037046	0.237332
H97	H	-0.180503	0.095783	-0.165147
H98	H	-0.021324	0.045681	0.164895
H99	H	0.769158	-0.219460	-0.000133
H100	H	-0.129076	0.044396	0.164884
H101	H	0.704462	0.041890	-0.247294
H102	H	0.819097	-0.392032	-0.000134
H103	H	0.781520	-0.035105	-0.752911
H104	H	0.580743	-0.193766	-0.000126
H105	H	0.811189	-0.064773	-0.562369
H106	H	0.640192	0.106163	-0.752915
H107	H	0.763909	-0.658182	-0.000104
H108	H	0.473730	0.103671	-0.165099
H109	H	0.603703	0.142619	-0.690656
H110	H	0.365980	0.102368	-0.165116
H111	H	0.547878	0.198426	-0.595379
H112	H	0.158345	0.033492	0.255860
H113	H	0.563138	0.183149	-0.247317
H114	H	0.762615	-0.765949	-0.000091
H115	H	0.266094	0.034787	0.255861
H116	H	0.796773	-0.050370	-0.404831
H117	H	0.817809	-0.499779	-0.000116
H118	H	0.533464	0.212827	-0.437848
H119	H	0.574211	-0.740232	-0.000069
H120	H	0.525565	-0.459909	-0.000023
H121	H	0.417384	0.050975	0.164929
H122	H	0.740945	0.005425	-0.309571
H123	H	0.770437	-0.111704	-0.000167
H124	H	0.186323	0.114533	-0.256077
H125	H	0.525151	0.052272	0.164929
H126	H	0.575502	-0.632485	-0.000055
H127	H	0.526858	-0.352159	-0.000029
H128	H	0.582039	-0.085999	-0.000119
H129	H	-0.072739	0.097084	-0.165150
H130	H	0.078579	0.113232	-0.256085
