data_functionalizedCrystal
_audit_creation_method	'MofGen! by Chris Wilmer'
_symmetry_space_group_name_H-M	'P1'
_symmetry_Int_Tables_number	1
_symmetry_cell_setting	triclinic
loop_
_symmetry_equiv_pos_as_xyz
  x,y,z
_cell_length_a	15.995350
_cell_length_b	15.995350
_cell_length_c	14.472310
_cell_angle_alpha	90.001162
_cell_angle_beta	89.990621
_cell_angle_gamma	83.492375
loop_
_atom_site_label
_atom_site_type_symbol
_atom_site_fract_x
_atom_site_fract_y
_atom_site_fract_z
O1	O	1.110997	0.107921	-0.076758
O2	O	0.867221	0.121248	-0.076776
O3	O	0.995773	-0.007303	-0.076766
O4	O	0.982445	0.236472	-0.076769
O5	O	0.995740	-0.007296	0.076916
O6	O	0.867188	0.121256	0.076906
O7	O	1.110963	0.107928	0.076924
Cu8	Cu	0.989073	0.114593	0.090947
Cu9	Cu	0.989112	0.114584	-0.090800
O10	O	0.982412	0.236480	0.076913
C11	C	0.836010	0.120701	0.000062
C12	C	0.743060	0.119049	0.000055
C13	C	0.405312	0.113117	0.000074
C14	C	0.452746	0.021565	0.000418
C15	C	0.549436	0.023217	0.000065
C16	C	0.572873	0.116060	0.000065
C17	C	0.531804	0.161212	-0.087692
C18	C	0.435169	0.158912	-0.087759
C19	C	0.434792	0.160812	0.087007
C20	C	0.531737	0.160790	0.088160
C21	C	0.667570	0.117727	0.000057
C22	C	0.310614	0.111452	0.000076
C23	C	0.995205	-0.038494	0.000073
C24	C	0.993553	-0.131444	0.000068
C25	C	0.987621	-0.469192	0.000071
C26	C	0.896069	-0.421758	-0.000281
C27	C	0.897721	-0.325068	0.000066
C28	C	0.990564	-0.301631	0.000069
C29	C	1.035701	-0.342705	0.087831
C30	C	1.033401	-0.439340	0.087904
C31	C	1.035330	-0.439707	-0.086861
C32	C	1.035309	-0.342762	-0.088021
C33	C	0.992231	-0.206934	0.000071
C34	C	0.985956	-0.563890	0.000075
C35	C	1.142175	0.108476	0.000083
C36	C	1.235125	0.110127	0.000084
C37	C	0.982980	0.267671	0.000072
C38	C	0.984631	0.360621	0.000071
N39	N	0.989051	0.114598	0.218778
N40	N	0.989140	0.114572	-0.218631
C41	C	0.989111	0.114581	0.592869
C42	C	0.920095	0.183135	0.553698
C43	C	0.920254	0.183385	0.446610
C44	C	0.989081	0.114590	0.407278
C45	C	1.076445	0.133671	0.446122
C46	C	1.076057	0.134159	0.553243
C47	C	0.971542	0.026741	0.553398
C48	C	0.969538	0.027327	0.446270
C49	C	0.989069	0.114593	0.302390
C50	C	0.989128	0.114579	0.697757
H51	H	0.433166	-0.014865	-0.062168
C52	C	1.096967	0.220700	0.586993
C53	C	1.100942	0.239059	0.691256
C54	C	1.121851	0.325602	0.725000
C55	C	1.138786	0.393788	0.654481
C56	C	1.134812	0.375431	0.550211
C57	C	1.113903	0.288887	0.516467
H58	H	1.088405	0.188582	0.743465
H59	H	1.124792	0.339191	0.802188
H60	H	1.154264	0.457853	0.679460
H61	H	1.147349	0.425908	0.498003
H62	H	1.110961	0.275299	0.439279
C63	C	0.832066	0.167985	0.588448
C64	C	0.821770	0.093186	0.652829
C65	C	0.733733	0.078008	0.687546
C66	C	0.655994	0.137629	0.657883
C67	C	0.666288	0.212433	0.593499
C68	C	0.754324	0.227611	0.558781
H69	H	0.879320	0.049046	0.674791
H70	H	0.726113	0.022633	0.735208
H71	H	0.590824	0.126394	0.683583
H72	H	0.608738	0.256573	0.571537
H73	H	0.761944	0.282987	0.511120
H74	H	1.005412	-0.460250	-0.153379
H75	H	0.862239	-0.296649	-0.062846
H76	H	1.002307	-0.315516	-0.152945
C77	C	0.391592	0.249709	-0.093154
C78	C	0.332920	0.276731	-0.174778
C79	C	0.289345	0.367525	-0.180182
C80	C	0.304441	0.431296	-0.103964
C81	C	0.363115	0.404275	-0.022335
C82	C	0.406690	0.313481	-0.016930
H83	H	0.321743	0.229523	-0.231204
H84	H	0.245911	0.387527	-0.240610
H85	H	0.272184	0.498506	-0.107965
H86	H	0.374293	0.451483	0.034091
H87	H	0.450125	0.293479	0.043497
C88	C	0.550885	0.253358	-0.092110
C89	C	0.604106	0.288761	-0.015901
C90	C	0.623187	0.380907	-0.020316
C91	C	0.589047	0.437650	-0.100942
C92	C	0.535822	0.402247	-0.177157
C93	C	0.516742	0.310101	-0.172742
H94	H	0.629382	0.246756	0.043788
H95	H	0.662588	0.407114	0.036104
H96	H	0.603172	0.505862	-0.104211
H97	H	0.510547	0.444252	-0.236846
H98	H	0.477341	0.283894	-0.229162
H99	H	1.129029	0.085068	0.420643
H100	H	1.004324	-0.314320	0.153137
H101	H	0.855314	0.172016	0.420349
C102	C	0.935086	0.270698	0.590017
C103	C	0.933909	0.288095	0.694691
C104	C	0.948926	0.375654	0.730999
C105	C	0.965120	0.445817	0.662633
C106	C	0.966297	0.428423	0.557953
C107	C	0.951280	0.340863	0.521645
H108	H	0.921921	0.236154	0.745304
H109	H	0.948055	0.388530	0.808490
H110	H	0.976236	0.510634	0.689511
H111	H	0.978285	0.480364	0.507339
H112	H	0.952151	0.327987	0.444154
C113	C	0.935416	0.271443	0.411974
C114	C	1.012463	0.282288	0.351168
C115	C	1.027629	0.370349	0.316534
C116	C	0.965749	0.447565	0.342706
C117	C	0.888696	0.436723	0.403515
C118	C	0.873530	0.348661	0.438148
H119	H	1.058275	0.225126	0.331791
H120	H	1.084669	0.378375	0.271520
H121	H	0.976976	0.512754	0.317068
H122	H	0.842884	0.493885	0.422891
H123	H	0.816490	0.340635	0.483163
C124	C	1.039527	-0.042183	0.587620
C125	C	1.036402	-0.134351	0.558406
C126	C	1.104389	-0.203267	0.592633
C127	C	1.175502	-0.180015	0.656075
C128	C	1.178629	-0.087842	0.685293
C129	C	1.110642	-0.018927	0.651066
H130	H	0.983758	-0.151568	0.511439
H131	H	1.102074	-0.271499	0.571004
H132	H	1.225830	-0.231030	0.681413
H133	H	1.231274	-0.070626	0.732260
H134	H	1.112958	0.049306	0.672695
C135	C	0.587833	-0.024746	0.085037
C136	C	0.530522	-0.064822	0.153690
C137	C	0.568915	-0.112796	0.238659
C138	C	0.664619	-0.120694	0.254975
C139	C	0.721935	-0.080617	0.186319
C140	C	0.683542	-0.032643	0.101350
H141	H	0.459671	-0.058976	0.141615
H142	H	0.526485	-0.142463	0.289483
H143	H	0.693040	-0.156207	0.317874
H144	H	0.792786	-0.086463	0.198395
H145	H	0.725972	-0.002976	0.050526
C146	C	0.846833	-0.448210	0.084264
C147	C	0.755041	-0.410236	0.099552
C148	C	0.705808	-0.436688	0.184099
C149	C	0.748368	-0.501115	0.253359
C150	C	0.840165	-0.539094	0.238074
C151	C	0.889398	-0.512642	0.153526
H152	H	0.723532	-0.362539	0.048279
H153	H	0.637854	-0.408573	0.195414
H154	H	0.711923	-0.520697	0.315946
H155	H	0.871674	-0.586790	0.289346
H156	H	0.957352	-0.540756	0.142211
C157	C	0.846655	-0.446793	-0.085309
C158	C	0.831865	-0.539321	-0.100060
C159	C	0.782456	-0.564361	-0.185096
C160	C	0.747837	-0.496871	-0.255381
C161	C	0.762627	-0.404337	-0.240632
C162	C	0.812036	-0.379298	-0.155596
H163	H	0.857493	-0.589286	-0.048028
H164	H	0.771508	-0.632861	-0.196013
H165	H	0.711262	-0.515407	-0.318330
H166	H	0.736999	-0.354372	-0.292664
H167	H	0.822984	-0.310797	-0.144679
C168	C	0.427693	-0.027878	0.085427
C169	C	0.363856	0.014269	0.155577
C170	C	0.338792	-0.035178	0.240586
C171	C	0.377565	-0.126771	0.255446
C172	C	0.441405	-0.168923	0.185294
C173	C	0.466469	-0.119476	0.100285
H174	H	0.335151	0.082076	0.144579
H175	H	0.291533	-0.003973	0.292517
H176	H	0.359011	-0.163374	0.318374
H177	H	0.470111	-0.236730	0.196292
H178	H	0.513729	-0.150680	0.048354
H179	H	0.577308	-0.012521	-0.062951
C180	C	1.147551	0.069453	0.588537
C181	C	1.148913	-0.024144	0.562962
C182	C	1.220423	-0.088758	0.598386
C183	C	1.290570	-0.059777	0.659385
C184	C	1.289210	0.033825	0.684964
C185	C	1.217700	0.098439	0.649540
H186	H	1.096984	-0.045602	0.517803
H187	H	1.221429	-0.158048	0.579451
H188	H	1.343505	-0.107608	0.685608
H189	H	1.341139	0.055283	0.730122
H190	H	1.216694	0.167729	0.668475
H191	H	1.100617	-0.471588	0.091888
C192	C	0.887329	0.001965	0.589919
C193	C	0.885582	-0.079252	0.646676
C194	C	0.801366	-0.104016	0.683197
C195	C	0.718896	-0.047564	0.662960
C196	C	0.720640	0.033658	0.606200
C197	C	0.804856	0.058423	0.569679
H198	H	0.946634	-0.121045	0.661659
H199	H	0.800075	-0.164142	0.725214
H200	H	0.656554	-0.065896	0.689995
H201	H	0.659588	0.075452	0.591217
H202	H	0.806147	0.118549	0.527662
H203	H	0.416874	0.125979	-0.153359
C204	C	0.568819	0.116198	0.175742
C205	C	0.663981	0.110996	0.194799
C206	C	0.701171	0.066372	0.282317
C207	C	0.643198	0.026950	0.350777
C208	C	0.548030	0.032150	0.331721
C209	C	0.510840	0.076774	0.244203
H210	H	0.706902	0.140179	0.144120
H211	H	0.771621	0.062522	0.296423
H212	H	0.670728	-0.006083	0.415562
H213	H	0.505109	0.002967	0.382400
H214	H	0.440390	0.080624	0.230097
H215	H	0.560193	0.129845	-0.153002
C216	C	1.126779	-0.322019	-0.095179
C217	C	1.182428	-0.356173	-0.176679
C218	C	1.273903	-0.335434	-0.183828
C219	C	1.309729	-0.280542	-0.109476
C220	C	1.254079	-0.246385	-0.027970
C221	C	1.162604	-0.267124	-0.020821
H222	H	1.155908	-0.396810	-0.231724
H223	H	1.315099	-0.360719	-0.244165
H224	H	1.377445	-0.265190	-0.114768
H225	H	1.280599	-0.205747	0.027075
H226	H	1.121409	-0.241838	0.039515
C227	C	1.127839	-0.323599	0.092255
C228	C	1.158707	-0.275511	0.175451
C229	C	1.250840	-0.256393	0.179874
C230	C	1.312105	-0.285363	0.101102
C231	C	1.281238	-0.333455	0.017900
C232	C	1.189105	-0.352572	0.013476
H233	H	1.113353	-0.254062	0.233769
H234	H	1.273689	-0.220792	0.241467
H235	H	1.380308	-0.271211	0.104376
H236	H	1.326592	-0.354903	-0.040418
H237	H	1.166256	-0.388173	-0.048116
H238	H	0.414242	0.130885	0.153524
H239	H	0.547101	0.228494	0.093461
C240	C	1.033037	-0.044823	0.410110
C241	C	1.127510	-0.045113	0.430761
C242	C	1.191019	-0.117259	0.394601
C243	C	1.160056	-0.189114	0.337791
C244	C	1.065579	-0.188826	0.317137
C245	C	1.002070	-0.116680	0.353297
H246	H	1.150435	0.008081	0.472818
H247	H	1.260958	-0.117472	0.409891
H248	H	1.207070	-0.242520	0.311023
H249	H	1.042654	-0.242020	0.275080
H250	H	0.932131	-0.116468	0.338007
H251	H	0.403031	0.228313	0.087600
H252	H	1.102831	-0.471468	-0.087449
H253	H	1.092297	0.197002	0.419285
H254	H	0.905272	0.012845	0.420883
H255	H	1.000459	-0.457639	0.153505
H256	H	0.861973	-0.297200	0.063079
