data_functionalizedCrystal
_audit_creation_method	'MofGen! by Chris Wilmer'
_symmetry_space_group_name_H-M	'P1'
_symmetry_Int_Tables_number	1
_symmetry_cell_setting	triclinic
loop_
_symmetry_equiv_pos_as_xyz
  x,y,z
_cell_length_a	12.759401
_cell_length_b	16.625546
_cell_length_c	16.625539
_cell_angle_alpha	90.028532
_cell_angle_beta	90.015268
_cell_angle_gamma	90.023993
loop_
_atom_site_label
_atom_site_type_symbol
_atom_site_fract_x
_atom_site_fract_y
_atom_site_fract_z
Zn1	Zn	1.606151	-0.320982	0.455859
Zn2	Zn	1.606036	-0.455821	0.321021
Zn3	Zn	1.430467	-0.321010	0.321044
Zn4	Zn	1.430418	-0.455780	0.455816
O5	O	1.518268	-0.388398	0.388435
O6	O	1.753157	-0.338875	0.437982
O7	O	1.582718	-0.437967	0.208192
O8	O	1.453841	-0.208174	0.338955
O9	O	1.753072	-0.437940	0.338917
O10	O	1.582915	-0.208153	0.438003
O11	O	1.453729	-0.338921	0.208208
O12	O	1.283439	-0.338882	0.338913
O13	O	1.453757	-0.437870	0.568654
O14	O	1.283403	-0.437897	0.437929
O15	O	1.582867	-0.338835	0.568686
O16	O	1.582671	-0.568648	0.338875
O17	O	1.453645	-0.568618	0.437907
C18	C	1.245300	-0.388388	0.388419
C19	C	1.128524	-0.388404	0.388431
C20	C	1.073670	-0.440039	0.439908
C21	C	0.963946	-0.440042	0.439924
C22	C	0.963939	-0.336772	0.336980
C23	C	1.073661	-0.336765	0.336968
C24	C	0.814033	-0.468985	0.534979
C25	C	0.759176	-0.520634	0.586449
C26	C	0.794758	-0.599323	0.598682
C27	C	0.885196	-0.626380	0.559433
C28	C	0.940047	-0.574736	0.507958
C29	C	0.904466	-0.496036	0.495740
C30	C	1.223576	-0.307831	0.241912
C31	C	1.278429	-0.256190	0.190432
C32	C	1.242849	-0.177499	0.178191
C33	C	1.152408	-0.150445	0.217425
C34	C	1.097555	-0.202085	0.268905
C35	C	1.133143	-0.280775	0.281147
C36	C	1.518168	-0.597889	0.388401
C37	C	1.518222	-0.687510	0.388414
C38	C	1.518405	-1.015686	0.388498
C39	C	1.518351	-0.924377	0.388477
C40	C	1.518313	-0.851601	0.388455
C41	C	1.518260	-0.760287	0.388435
C42	C	1.792301	-0.388409	0.388452
C43	C	1.909078	-0.388413	0.388459
C44	C	1.518319	-0.388345	0.598744
C45	C	1.518341	-0.388322	0.688365
C46	C	1.518396	-0.178089	0.388487
C47	C	1.518451	-0.088468	0.388509
C48	C	1.518277	-0.388393	0.178944
C49	C	1.518459	-0.388189	0.089324
C50	C	1.518358	-0.388305	0.761148
C51	C	1.518383	-0.388275	0.852456
C52	C	1.518408	-0.388246	0.925233
C53	C	1.518434	-0.388217	1.016547
H54	H	0.785060	-0.404907	0.525032
N55	N	0.735586	-0.655027	0.654192
H56	H	0.733633	-0.631168	0.710052
H57	H	0.771882	-0.708971	0.655920
N58	N	0.904765	-0.281100	0.281454
H59	H	0.826932	-0.288946	0.289263
H60	H	0.923925	-0.293592	0.223852
N61	N	1.261939	-0.392712	0.255114
H62	H	1.277990	-0.400952	0.314027
H63	H	1.327520	-0.401969	0.222397
N64	N	1.302001	-0.121794	0.122663
H65	H	1.303950	-0.145655	0.066805
H66	H	1.375921	-0.114584	0.143183
H67	H	0.685542	-0.498596	0.618405
N68	N	1.000006	-0.172906	0.311222
H69	H	1.017999	-0.125259	0.346323
H70	H	0.970702	-0.217609	0.345644
H71	H	1.118337	-0.482085	0.481814
N72	N	1.114018	-0.065573	0.204222
H73	H	1.162491	-0.036964	0.165658
H74	H	1.112909	-0.035962	0.257272
H75	H	1.352071	-0.278225	0.158485
H76	H	0.914153	-0.690461	0.569391
N77	N	1.037579	-0.603909	0.465622
H78	H	1.051797	-0.661600	0.481177
H79	H	1.099084	-0.569246	0.481839
