data_functionalizedCrystal
_audit_creation_method	'MofGen! by Chris Wilmer'
_symmetry_space_group_name_H-M	'P1'
_symmetry_Int_Tables_number	1
_symmetry_cell_setting	triclinic
loop_
_symmetry_equiv_pos_as_xyz
  x,y,z
_cell_length_a	19.805399
_cell_length_b	18.215407
_cell_length_c	18.215405
_cell_angle_alpha	90.025333
_cell_angle_beta	90.029242
_cell_angle_gamma	90.018772
loop_
_atom_site_label
_atom_site_type_symbol
_atom_site_fract_x
_atom_site_fract_y
_atom_site_fract_z
Zn1	Zn	-0.382697	-1.125064	0.292993
Zn2	Zn	-0.269506	-1.124975	0.416061
Zn3	Zn	-0.269524	-1.001999	0.293014
Zn4	Zn	-0.382654	-1.001963	0.416023
O5	O	-0.326095	-1.063500	0.354523
O6	O	-0.367693	-1.228037	0.309325
O7	O	-0.174792	-1.108640	0.399763
O8	O	-0.284562	-1.018377	0.190027
O9	O	-0.284532	-1.227971	0.399743
O10	O	-0.367710	-1.108792	0.190011
O11	O	-0.174805	-1.018290	0.309361
O12	O	-0.284520	-0.899010	0.309324
O13	O	-0.477377	-1.018315	0.399678
O14	O	-0.367636	-0.898983	0.399698
O15	O	-0.477408	-1.108757	0.309288
O16	O	-0.284490	-1.108604	0.519040
O17	O	-0.367619	-1.018228	0.519012
C18	C	-0.326076	-0.872294	0.354510
C19	C	-0.326084	-0.790495	0.354522
C20	C	-0.326063	-1.063423	0.545729
C21	C	-0.326071	-1.063457	0.627528
C22	C	-0.502638	-1.063542	0.354476
C23	C	-0.577870	-1.063559	0.354456
C24	C	-0.613232	-1.110653	0.307388
C25	C	-0.683920	-1.110661	0.307367
C26	C	-0.719246	-1.063577	0.354418
C27	C	-0.683879	-1.016478	0.401488
C28	C	-0.613192	-1.016467	0.401505
C29	C	-0.968952	-1.016519	0.401420
C30	C	-1.039645	-1.016535	0.401401
C31	C	-1.039681	-1.110713	0.307281
C32	C	-0.968994	-1.110702	0.307298
C33	C	-0.933633	-1.063601	0.354365
C34	C	-0.856985	-1.063592	0.354387
C35	C	-0.795893	-1.063589	0.354401
C36	C	-0.150239	-1.063501	0.354516
C37	C	-0.075008	-1.063626	0.354328
C38	C	-0.326115	-1.255453	0.354536
C39	C	-0.326124	-1.337252	0.354541
C40	C	-0.369308	-0.602306	0.401654
C41	C	-0.369316	-0.525448	0.401656
C42	C	-0.282897	-0.525446	0.307404
C43	C	-0.282893	-0.602303	0.307399
C44	C	-0.326097	-0.640732	0.354528
C45	C	-0.326110	-0.487016	0.354536
C46	C	-0.326119	-0.403682	0.354538
C47	C	-0.326089	-0.724071	0.354525
C48	C	-0.326143	-1.063598	0.162570
C49	C	-0.326163	-1.063640	0.080771
C50	C	-0.282865	-1.110626	0.815712
C51	C	-0.282882	-1.110659	0.892570
C52	C	-0.369374	-1.016468	0.892581
C53	C	-0.369360	-1.016440	0.815724
C54	C	-0.326102	-1.063518	0.777291
C55	C	-0.326132	-1.063579	0.931007
C56	C	-0.326150	-1.063614	1.014341
C57	C	-0.326085	-1.063483	0.693952
H58	H	-0.712709	-1.149012	0.269041
H59	H	-0.404572	-0.978078	0.784440
O60	O	-0.934714	-0.970734	0.447200
C61	C	-0.981053	-0.929165	0.488705
H62	H	-1.031440	-0.959325	0.491258
H63	H	-0.988582	-0.873297	0.461732
C64	C	-0.891552	-0.881437	0.563893
C65	C	-0.953436	-0.918484	0.567034
H66	H	-0.874516	-0.874846	0.612209
H67	H	-0.860332	-0.909441	0.535929
H68	H	-0.897835	-0.834885	0.541412
H69	H	-0.947152	-0.965039	0.589506
H70	H	-0.984655	-0.890488	0.595004
O71	O	-0.240816	-1.156442	0.929778
C72	C	-0.202649	-1.197999	0.879372
H73	H	-0.200269	-1.167834	0.824613
H74	H	-0.227481	-1.253872	0.871131
C75	C	-0.133549	-1.245715	0.976670
C76	C	-0.130621	-1.208663	0.909416
H77	H	-0.089120	-1.252297	0.995203
H78	H	-0.159264	-1.217720	1.010630
H79	H	-0.154246	-1.292272	0.969793
H80	H	-0.109933	-1.162104	0.916296
H81	H	-0.104901	-1.236650	0.875458
O82	O	-0.578761	-0.970827	0.447266
C83	C	-0.537879	-1.012701	0.494819
H84	H	-0.527312	-1.068484	0.468868
H85	H	-0.565106	-1.020762	0.549353
C86	C	-0.483698	-0.903685	0.540026
C87	C	-0.470715	-0.972197	0.508150
H88	H	-0.442269	-0.878699	0.548252
H89	H	-0.511242	-0.875473	0.507991
H90	H	-0.506388	-0.910411	0.585467
H91	H	-0.448033	-0.965468	0.462705
H92	H	-0.443165	-1.000406	0.540178
O93	O	-0.240944	-1.156396	0.778297
C94	C	-0.279515	-1.203897	0.733785
H95	H	-0.330782	-1.177900	0.722250
H96	H	-0.287007	-1.258440	0.763356
C97	C	-0.179303	-1.249153	0.674965
C98	C	-0.242269	-1.217221	0.660793
H99	H	-0.156327	-1.257375	0.629941
H100	H	-0.153316	-1.217153	0.704955
H101	H	-0.185555	-1.294602	0.699609
H102	H	-0.236015	-1.171769	0.636157
H103	H	-0.268253	-1.249213	0.630796
O104	O	-1.073990	-0.970898	0.447186
C105	C	-1.114882	-1.012779	0.494703
H106	H	-1.093584	-1.070733	0.499261
H107	H	-1.168461	-1.015340	0.471937
C108	C	-1.142101	-0.905602	0.565604
C109	C	-1.115939	-0.976781	0.571208
H110	H	-1.142757	-0.883395	0.612796
H111	H	-1.114554	-0.877385	0.533590
H112	H	-1.186748	-0.907746	0.546630
H113	H	-1.071291	-0.974635	0.590173
H114	H	-1.143480	-1.004996	0.603227
H115	H	-0.247705	-0.633590	0.269018
H116	H	-0.940235	-1.149045	0.268987
H117	H	-0.404592	-0.978138	0.923883
O118	O	-0.411196	-0.488041	0.447473
C119	C	-0.372586	-0.443560	0.494965
H120	H	-0.321336	-0.432031	0.468937
H121	H	-0.365055	-0.473156	0.549490
C122	C	-0.472757	-0.384726	0.540314
C123	C	-0.409814	-0.370561	0.508344
H124	H	-0.495722	-0.339698	0.548570
H125	H	-0.498771	-0.414695	0.508320
H126	H	-0.466473	-0.409391	0.585748
H127	H	-0.416100	-0.345905	0.462906
H128	H	-0.383802	-0.340586	0.540331
O129	O	-0.578951	-1.156313	0.261575
C130	C	-0.596256	-1.140278	0.188224
H131	H	-0.615677	-1.081490	0.184503
H132	H	-0.637301	-1.179748	0.168981
C133	C	-0.509627	-1.221064	0.143692
C134	C	-0.533474	-1.148857	0.139120
H135	H	-0.470902	-1.226358	0.113401
H136	H	-0.497969	-1.231869	0.193110
H137	H	-0.543837	-1.253947	0.127657
H138	H	-0.499268	-1.115976	0.155163
H139	H	-0.545125	-1.138046	0.089704
O140	O	-1.074136	-1.156394	0.261575
C141	C	-1.144101	-1.146321	0.271655
H142	H	-1.153742	-1.089516	0.295749
H143	H	-1.164161	-1.189956	0.310843
C144	C	-1.168569	-1.222881	0.167590
C145	C	-1.180409	-1.153108	0.197177
H146	H	-1.190966	-1.227070	0.121649
H147	H	-1.121432	-1.229669	0.160800
H148	H	-1.185285	-1.259235	0.200254
H149	H	-1.163686	-1.116756	0.164518
H150	H	-1.227544	-1.146314	0.203960
O151	O	-0.240998	-0.488150	0.261524
C152	C	-0.255899	-0.506979	0.188196
H153	H	-0.309977	-0.528128	0.184553
H154	H	-0.219641	-0.551586	0.168907
C155	C	-0.181683	-0.412745	0.143548
C156	C	-0.248105	-0.438715	0.139073
H157	H	-0.176872	-0.370638	0.113245
H158	H	-0.171642	-0.400061	0.192950
H159	H	-0.151476	-0.449923	0.127475
H160	H	-0.278309	-0.401540	0.155154
H161	H	-0.258150	-0.451391	0.089672
O162	O	-0.718118	-0.970777	0.447296
C163	C	-0.700840	-0.986831	0.520650
H164	H	-0.649520	-1.015111	0.522190
H165	H	-0.740622	-1.024662	0.545431
C166	C	-0.760584	-0.880329	0.563333
C167	C	-0.697549	-0.915058	0.565224
H168	H	-0.758557	-0.836057	0.590830
H169	H	-0.772227	-0.869514	0.513914
H170	H	-0.793729	-0.911863	0.583983
H171	H	-0.664407	-0.883528	0.544567
H172	H	-0.685900	-0.925866	0.614642
H173	H	-0.404490	-0.633593	0.440028
