data_functionalizedCrystal
_audit_creation_method	'MofGen! by Chris Wilmer'
_symmetry_space_group_name_H-M	'P1'
_symmetry_Int_Tables_number	1
_symmetry_cell_setting	triclinic
loop_
_symmetry_equiv_pos_as_xyz
  x,y,z
_cell_length_a	10.654546
_cell_length_b	10.654551
_cell_length_c	9.798715
_cell_angle_alpha	89.999433
_cell_angle_beta	90.011301
_cell_angle_gamma	95.515557
loop_
_atom_site_label
_atom_site_type_symbol
_atom_site_fract_x
_atom_site_fract_y
_atom_site_fract_z
O1	O	-1.667843	0.176376	-0.113723
O2	O	-1.302364	0.193187	-0.113672
O3	O	-1.493506	0.002042	-0.113699
O4	O	-1.476701	0.367521	-0.113695
O5	O	-1.493492	0.002041	0.113283
O6	O	-1.302350	0.193185	0.113310
O7	O	-1.667829	0.176375	0.113259
Zn8	Zn	-1.485087	0.184780	0.149323
Zn9	Zn	-1.485106	0.184782	-0.149736
O10	O	-1.476687	0.367519	0.113287
C11	C	-1.255559	0.191953	-0.000174
C12	C	-1.116116	0.188262	-0.000155
C13	C	-1.036630	0.300805	-0.000168
C14	C	-0.905609	0.297330	-0.000182
C15	C	-0.933572	0.068760	-0.000175
C16	C	-1.064590	0.072236	-0.000152
C17	C	-1.020485	0.432768	-0.000178
C18	C	-0.889464	0.429293	-0.000192
C19	C	-1.492265	-0.044757	-0.000211
C20	C	-1.488572	-0.184200	-0.000220
C21	C	-1.486848	-0.249711	-0.123945
C22	C	-1.483368	-0.380731	-0.123938
C23	C	-1.483342	-0.380718	0.123530
C24	C	-1.486813	-0.249699	0.123522
C25	C	-1.486868	-0.249720	-0.266819
C26	C	-1.483388	-0.380740	-0.266812
C27	C	-0.714634	0.177612	-0.000222
C28	C	-0.854076	0.181311	-0.000192
C29	C	-1.477928	0.414318	-0.000204
C30	C	-1.481621	0.553761	-0.000205
N31	N	-1.485083	0.184778	0.353423
N32	N	-1.485120	0.184774	-0.353835
C33	C	-1.558326	0.257613	0.421191
C34	C	-1.558346	0.257611	0.578353
H35	H	-0.891603	-0.025705	-0.000193
H36	H	-1.056147	0.474787	-0.098178
H37	H	-1.129304	-0.019407	-0.000121
C38	C	-1.769291	0.308243	0.376848
C39	C	-1.642964	0.341799	0.342457
H40	H	-1.821543	0.360214	0.328237
H41	H	-1.780398	0.319293	0.472124
H42	H	-1.791611	0.222466	0.353485
H43	H	-1.620641	0.427573	0.365830
H44	H	-1.631851	0.330760	0.247160
C45	C	-1.362427	-0.552292	-0.323631
C46	C	-1.359747	-0.420670	-0.326657
H47	H	-1.286093	-0.576941	-0.360567
H48	H	-1.431631	-0.588290	-0.376255
H49	H	-1.371353	-0.580907	-0.232012
H50	H	-1.350830	-0.392056	-0.418277
H51	H	-1.290522	-0.384658	-0.274034
C52	C	-1.675111	-0.350110	-0.385777
C53	C	-1.600559	-0.443246	-0.340865
H54	H	-1.747446	-0.388702	-0.431485
H55	H	-1.627685	-0.294769	-0.446696
H56	H	-1.700777	-0.303711	-0.309602
H57	H	-1.574885	-0.489639	-0.417042
H58	H	-1.647993	-0.498609	-0.279943
H59	H	-1.621046	0.319975	0.636632
C60	C	-1.316171	0.175973	0.485388
C61	C	-1.400453	0.100591	0.567513
H62	H	-1.263906	0.124000	0.436821
H63	H	-1.265330	0.233365	0.541155
H64	H	-1.362123	0.221662	0.422474
H65	H	-1.354501	0.054909	0.630434
H66	H	-1.451299	0.043176	0.511742
C67	C	-0.953061	0.541198	0.205823
C68	C	-1.060088	0.502429	0.128060
H69	H	-0.977514	0.584194	0.284993
H70	H	-0.896817	0.596159	0.153042
H71	H	-0.912280	0.469527	0.232189
H72	H	-1.100864	0.574102	0.101686
H73	H	-1.116353	0.447466	0.180851
H74	H	-1.488210	-0.196364	0.224271
H75	H	-1.422396	0.122416	0.411756
H76	H	-1.481907	-0.434064	0.224276
C77	C	-0.929999	0.540588	-0.206194
C78	C	-0.833123	0.496412	-0.128426
H79	H	-0.895214	0.582017	-0.285358
H80	H	-0.972484	0.598162	-0.153413
H81	H	-0.987989	0.471535	-0.232571
H82	H	-0.775137	0.565467	-0.102041
H83	H	-0.790617	0.438834	-0.181217
H84	H	-0.843787	0.469174	0.097807
H85	H	-1.400082	-0.203438	-0.321670
H86	H	-1.578470	-0.220155	-0.311161
