data_functionalizedCrystal
_audit_creation_method	'MofGen! by Chris Wilmer'
_symmetry_space_group_name_H-M	'P1'
_symmetry_Int_Tables_number	1
_symmetry_cell_setting	triclinic
loop_
_symmetry_equiv_pos_as_xyz
  x,y,z
_cell_length_a	12.594516
_cell_length_b	17.077404
_cell_length_c	17.077396
_cell_angle_alpha	89.980499
_cell_angle_beta	89.976855
_cell_angle_gamma	90.016278
loop_
_atom_site_label
_atom_site_type_symbol
_atom_site_fract_x
_atom_site_fract_y
_atom_site_fract_z
Zn1	Zn	0.423736	-1.200092	0.443872
Zn2	Zn	0.923736	-0.700092	0.943872
Zn3	Zn	0.601736	-1.200015	0.312618
Zn4	Zn	1.101736	-0.700015	0.812618
Zn5	Zn	0.423773	-1.068824	0.312620
Zn6	Zn	0.923773	-0.568824	0.812620
Zn7	Zn	0.601673	-1.068807	0.443842
Zn8	Zn	1.101673	-0.568807	0.943842
O9	O	0.512730	-1.134434	0.378238
O10	O	1.012730	-0.634434	0.878238
O11	O	0.447359	-1.309929	0.426473
O12	O	0.947359	-0.809929	0.926473
O13	O	0.578171	-1.182586	0.202771
O14	O	1.078171	-0.682586	0.702771
O15	O	0.274822	-1.086276	0.330044
O16	O	0.774822	-0.586276	0.830044
O17	O	0.578135	-1.309872	0.330041
O18	O	1.078135	-0.809872	0.830041
O19	O	0.274795	-1.182718	0.426474
O20	O	0.774795	-0.682718	0.926474
O21	O	0.447422	-1.086201	0.202773
O22	O	0.947422	-0.586201	0.702773
O23	O	0.447361	-0.958975	0.330015
O24	O	0.947361	-0.458975	0.830015
O25	O	0.578027	-1.086248	0.553693
O26	O	1.078027	-0.586248	1.053693
O27	O	0.578064	-0.958963	0.426423
O28	O	1.078064	-0.458963	0.926423
O29	O	0.447297	-1.182702	0.553715
O30	O	0.947297	-0.682702	1.053715
O31	O	0.750674	-1.182571	0.330012
O32	O	1.250674	-0.682571	0.830012
O33	O	0.750627	-1.086173	0.426421
O34	O	1.250627	-0.586173	0.926421
C35	C	0.512710	-0.930487	0.378216
C36	C	1.012710	-0.430487	0.878216
C37	C	0.512728	-0.843237	0.378226
C38	C	1.012728	-0.343237	0.878226
C39	C	0.789271	-1.134383	0.378230
C40	C	1.289271	-0.634383	0.878230
C41	C	0.907576	-1.134433	0.378253
C42	C	1.407576	-0.634433	0.878253
C43	C	0.235109	-1.134507	0.378263
C44	C	0.735109	-0.634507	0.878263
C45	C	0.116803	-1.134539	0.378273
C46	C	0.616803	-0.634539	0.878273
C47	C	0.976843	-1.081997	0.430653
C48	C	1.476843	-0.581997	0.930653
C49	C	1.047703	-1.062873	0.359026
C50	C	1.547703	-0.562873	0.859026
C51	C	1.047515	-1.153628	0.449893
C52	C	1.547515	-0.653628	0.949893
C53	C	0.976878	-1.115271	0.306587
C54	C	1.476878	-0.615271	0.806587
C55	C	0.976684	-1.206059	0.397503
C56	C	1.476684	-0.706059	0.897503
C57	C	1.047512	-1.186963	0.325826
C58	C	1.547512	-0.686963	0.825826
C59	C	0.512651	-1.134482	0.582982
C60	C	1.012651	-0.634482	1.082982
C61	C	0.512618	-1.134502	0.670232
C62	C	1.012618	-0.634502	1.170232
C63	C	0.512750	-1.339179	0.378260
C64	C	1.012750	-0.839179	0.878260
C65	C	0.512758	-1.426428	0.378269
C66	C	1.012758	-0.926428	0.878269
C67	C	0.580887	-0.802261	0.428345
C68	C	1.080887	-0.302261	0.928345
C69	C	0.580890	-0.720280	0.428357
C70	C	1.080890	-0.220280	0.928357
C71	C	0.512737	-0.679277	0.378246
C72	C	1.012737	-0.179277	0.878246
C73	C	0.444570	-0.720259	0.328125
C74	C	0.944570	-0.220259	0.828125
C75	C	0.444563	-0.802238	0.328117
C76	C	0.944563	-0.302238	0.828117
C77	C	0.444591	-0.549389	0.328144
C78	C	0.944591	-0.049389	0.828144
C79	C	0.444599	-0.467404	0.328150
C80	C	0.944599	0.032596	0.828150
C81	C	0.580917	-0.467431	0.428384
C82	C	1.080917	0.032569	0.928384
C83	C	0.580910	-0.549410	0.428376
C84	C	1.080910	-0.049410	0.928376
C85	C	0.512745	-0.590386	0.378253
C86	C	1.012745	-0.090386	0.878253
C87	C	0.512731	-1.134432	0.174290
C88	C	1.012731	-0.634432	0.674290
C89	C	0.512465	-1.134564	0.087041
C90	C	1.012465	-0.634564	0.587041
C91	C	0.444541	-1.184728	0.711235
C92	C	0.944541	-0.684728	1.211235
C93	C	0.444506	-1.184737	0.793216
C94	C	0.944506	-0.684737	1.293216
C95	C	0.512553	-1.134524	0.834192
C96	C	1.012553	-0.634524	1.334192
C97	C	0.580633	-1.084293	0.793183
C98	C	1.080633	-0.584293	1.293183
C99	C	0.580662	-1.084281	0.711204
C100	C	1.080662	-0.584281	1.211204
C101	C	0.580569	-1.084325	0.964053
C102	C	1.080569	-0.584325	1.464053
C103	C	0.580541	-1.084339	1.046038
C104	C	1.080541	-0.584339	1.546038
C105	C	0.444412	-1.184782	1.046065
C106	C	0.944412	-0.684782	1.546065
C107	C	0.444442	-1.184769	0.964086
C108	C	0.944442	-0.684769	1.464086
C109	C	0.512523	-1.134538	0.923083
C110	C	1.012523	-0.634538	1.423083
H111	H	0.945811	-1.037575	0.474902
H112	H	1.445811	-0.537575	0.974902
N113	N	0.371111	-0.423163	0.274102
N114	N	0.871111	0.076837	0.774102
H115	H	0.295073	-0.437427	0.286380
H116	H	0.795073	0.062573	0.786380
H117	H	0.381579	-0.365031	0.281747
H118	H	0.881579	0.134969	0.781747
H119	H	0.636087	-1.043374	0.677820
H120	H	1.136087	-0.543374	1.177820
H121	H	0.388976	-1.225680	1.079453
H122	H	0.888976	-0.725680	1.579453
H123	H	0.636034	-1.043406	0.826552
H124	H	1.136034	-0.543406	1.326552
N125	N	0.653992	-1.030145	0.919826
N126	N	1.153992	-0.530145	1.419826
H127	H	0.697099	-0.998339	0.958222
H128	H	1.197099	-0.498339	1.458222
H129	H	0.703264	-1.062081	0.885812
H130	H	1.203264	-0.562081	1.385812
H131	H	1.078921	-1.002349	0.342760
H132	H	1.578921	-0.502349	0.842760
N133	N	0.371058	-1.238931	0.919887
N134	N	0.871058	-0.738931	1.419887
H135	H	0.327923	-1.270753	0.958300
H136	H	0.827923	-0.770753	1.458300
H137	H	0.321812	-1.206986	0.885871
H138	H	0.821812	-0.706986	1.385871
N139	N	0.654419	-0.593630	0.482427
N140	N	1.154419	-0.093630	0.982427
H141	H	0.611221	-0.627666	0.518853
H142	H	1.111221	-0.127666	1.018853
H143	H	0.703672	-0.627576	0.450407
H144	H	1.203672	-0.127576	0.950407
N145	N	0.653911	-1.030180	1.090254
N146	N	1.153911	-0.530180	1.590254
H147	H	0.729976	-1.042332	1.075994
H148	H	1.229976	-0.542332	1.575994
H149	H	0.637276	-0.974117	1.075972
H150	H	1.137276	-0.474117	1.575972
N151	N	0.935961	-1.093732	0.226321
N152	N	1.435961	-0.593732	0.726321
H153	H	0.855770	-1.093802	0.226814
H154	H	1.355770	-0.593802	0.726814
H155	H	0.962500	-1.039857	0.211717
H156	H	1.462500	-0.539857	0.711717
N157	N	0.371047	-0.846429	0.274054
N158	N	0.871047	-0.346429	0.774054
H159	H	0.414233	-0.880421	0.237620
H160	H	0.914233	-0.380421	0.737620
H161	H	0.321786	-0.880417	0.306069
H162	H	0.821786	-0.380417	0.806069
N163	N	1.088617	-1.175087	0.530130
N164	N	1.588617	-0.675087	1.030130
H165	H	1.168803	-1.175467	0.529420
H166	H	1.668803	-0.675467	1.029420
H167	H	1.062837	-1.135386	0.569613
H168	H	1.562837	-0.635386	1.069613
H169	H	0.945468	-1.266570	0.413803
H170	H	1.445468	-0.766570	0.913803
N171	N	1.088361	-1.245765	0.267080
N172	N	1.588361	-0.745765	0.767080
H173	H	1.062526	-1.231206	0.213021
H174	H	1.562526	-0.731206	0.713021
H175	H	1.168545	-1.245785	0.267796
H176	H	1.668545	-0.745785	0.767796
N177	N	0.654403	-0.846483	0.482388
N178	N	1.154403	-0.346483	0.982388
H179	H	0.697580	-0.808082	0.514141
H180	H	1.197580	-0.308082	1.014141
H181	H	0.611139	-0.880521	0.518766
H182	H	1.111139	-0.380521	1.018766
N183	N	0.654421	-0.676087	0.482404
N184	N	1.154421	-0.176087	0.982404
H185	H	0.638004	-0.690382	0.538511
H186	H	1.138004	-0.190382	1.038511
H187	H	0.730412	-0.690360	0.470034
H188	H	1.230412	-0.190360	0.970034
N189	N	0.371069	-0.676036	0.274071
N190	N	0.871069	-0.176036	0.774071
H191	H	0.327888	-0.714436	0.242320
H192	H	0.827888	-0.214436	0.742320
H193	H	0.321871	-0.642042	0.306085
H194	H	0.821871	-0.142042	0.806085
H195	H	0.636417	-0.434065	0.469198
H196	H	1.136417	0.065935	0.969198
N197	N	0.371066	-0.593587	0.274088
N198	N	0.871066	-0.093587	0.774088
H199	H	0.327894	-0.555174	0.242341
H200	H	0.827894	-0.055174	0.742341
H201	H	0.414327	-0.627578	0.237705
H202	H	0.914327	-0.127578	0.737705
N203	N	0.371153	-1.238891	0.667042
N204	N	0.871153	-0.738891	1.167042
H205	H	0.328021	-1.270709	0.705460
H206	H	0.828021	-0.770709	1.205460
H207	H	0.321905	-1.206948	0.633027
H208	H	0.821905	-0.706948	1.133027
N209	N	0.371059	-1.238893	0.837441
N210	N	0.871059	-0.738893	1.337441
H211	H	0.327955	-1.270699	0.799043
H212	H	0.827955	-0.770699	1.299043
H213	H	0.414358	-1.275216	0.871467
H214	H	0.914358	-0.775216	1.371467
