data_functionalizedCrystal
_audit_creation_method	'MofGen! by Chris Wilmer'
_symmetry_space_group_name_H-M	'P1'
_symmetry_Int_Tables_number	1
_symmetry_cell_setting	triclinic
loop_
_symmetry_equiv_pos_as_xyz
  x,y,z
_cell_length_a	12.759401
_cell_length_b	12.759400
_cell_length_c	12.759393
_cell_angle_alpha	89.968436
_cell_angle_beta	90.019613
_cell_angle_gamma	89.985084
loop_
_atom_site_label
_atom_site_type_symbol
_atom_site_fract_x
_atom_site_fract_y
_atom_site_fract_z
Zn1	Zn	1.606256	0.418198	0.594013
Zn2	Zn	1.606150	0.593917	0.418333
Zn3	Zn	1.430557	0.418253	0.418349
Zn4	Zn	1.430546	0.593836	0.593971
O5	O	1.518377	0.506051	0.506166
O6	O	1.753263	0.441518	0.570719
O7	O	1.582818	0.570671	0.271314
O8	O	1.453913	0.271225	0.441675
O9	O	1.753185	0.570618	0.441648
O10	O	1.582998	0.271184	0.570735
O11	O	1.453811	0.441612	0.271325
O12	O	1.283535	0.441534	0.441634
O13	O	1.453894	0.570480	0.740998
O14	O	1.283527	0.570534	0.570663
O15	O	1.582987	0.441440	0.741028
O16	O	1.582807	0.740927	0.441607
O17	O	1.453791	0.740868	0.570648
C18	C	1.245410	0.506032	0.506147
C19	C	1.128633	0.506049	0.506163
C20	C	1.073734	0.573164	0.438864
C21	C	0.964010	0.573182	0.438882
C22	C	0.964094	0.438962	0.573502
C23	C	1.073816	0.438950	0.573488
C24	C	1.128552	0.640263	0.371539
C25	C	1.073653	0.707382	0.304234
C26	C	0.963929	0.707400	0.304252
C27	C	0.909104	0.640299	0.371576
C28	C	1.518315	0.779018	0.506144
C29	C	1.518384	0.895795	0.506170
C30	C	1.518451	0.505945	0.780200
C31	C	1.518482	0.505900	0.896976
C32	C	1.792411	0.506071	0.506187
C33	C	1.909187	0.506079	0.506195
C34	C	1.518468	0.232018	0.506211
C35	C	1.518507	0.115241	0.506230
C36	C	1.585637	0.950653	0.439053
C37	C	1.585702	1.060377	0.439085
C38	C	1.451252	1.060375	0.573355
C39	C	1.451193	0.950653	0.573327
C40	C	1.652828	0.895795	0.371896
C41	C	1.720086	0.950653	0.304773
C42	C	1.720150	1.060377	0.304805
C43	C	1.652957	1.115243	0.371961
C44	C	1.518364	0.506081	0.233199
C45	C	1.518537	0.505830	0.116423
C46	C	1.585710	0.438702	0.951856
C47	C	1.585735	0.438664	1.061580
C48	C	1.451301	0.573031	1.061535
C49	C	1.451272	0.573063	0.951813
C50	C	1.652920	0.371539	0.897019
C51	C	1.720155	0.304337	0.951899
C52	C	1.720180	0.304299	1.061623
C53	C	1.652970	0.371463	1.116468
H54	H	0.919446	0.384330	0.628312
H55	H	1.652910	0.371565	0.807677
C56	C	1.793996	0.890298	0.230908
N57	N	1.849667	0.844840	0.175271
C58	C	1.377335	1.120732	0.647211
N59	N	1.321655	1.166193	0.702836
C60	C	1.794136	1.120717	0.230971
N61	N	1.849859	1.166164	0.175351
H62	H	1.652780	0.806452	0.371859
H63	H	1.396431	0.905987	0.627981
H64	H	1.217895	0.640254	0.371515
C65	C	1.377378	0.646908	1.121868
N66	N	1.321699	0.702555	1.167311
H67	H	1.118515	0.384297	0.628286
C68	C	1.652997	0.371412	1.237168
N69	N	1.653021	0.371376	1.328079
H70	H	1.774867	0.249647	0.907238
H71	H	1.653024	1.204587	0.371990
H72	H	1.774917	0.249572	1.106304
H73	H	1.118299	0.762021	0.249429
H74	H	0.919233	0.762059	0.249456
C75	C	0.788403	0.640328	0.371596
N76	N	0.697493	0.640346	0.371607
H77	H	1.396513	0.627765	0.907129
