data_functionalizedCrystal
_audit_creation_method	'MofGen! by Chris Wilmer'
_symmetry_space_group_name_H-M	'P1'
_symmetry_Int_Tables_number	1
_symmetry_cell_setting	triclinic
loop_
_symmetry_equiv_pos_as_xyz
  x,y,z
_cell_length_a	19.188925
_cell_length_b	19.188930
_cell_length_c	10.065875
_cell_angle_alpha	98.754308
_cell_angle_beta	81.282196
_cell_angle_gamma	83.143665
loop_
_atom_site_label
_atom_site_type_symbol
_atom_site_fract_x
_atom_site_fract_y
_atom_site_fract_z
O1	O	0.936398	0.076851	-0.113536
O2	O	0.733086	0.088590	-0.113535
O3	O	0.840607	-0.018933	-0.113509
O4	O	0.828877	0.184374	-0.113562
O5	O	0.820104	0.001652	0.113475
O6	O	0.712583	0.109175	0.113449
O7	O	0.915895	0.097436	0.113447
Zn8	Zn	0.810984	0.106574	0.149487
Zn9	Zn	0.837997	0.079452	-0.149574
O10	O	0.808374	0.204959	0.113422
C11	C	0.696823	0.098503	-0.000042
C12	C	0.619319	0.097364	-0.000040
C13	C	0.057550	0.152826	-0.000058
C14	C	0.130374	0.153902	-0.000066
C15	C	0.175307	0.090812	-0.000047
C16	C	0.147413	0.026637	-0.000055
C17	C	0.074592	0.025562	-0.000061
N18	N	0.289003	0.052144	0.077232
N19	N	0.358180	0.053170	0.077241
C20	C	0.394714	0.094047	-0.000032
N21	N	0.359456	0.133872	-0.077296
N22	N	0.290272	0.132848	-0.077298
C23	C	0.254270	0.091970	-0.000041
C24	C	0.501564	0.159383	-0.000041
C25	C	0.574391	0.160455	-0.000057
C26	C	0.591428	0.033190	-0.000033
C27	C	0.518604	0.032118	-0.000031
C28	C	0.473676	0.095217	-0.000028
C29	C	0.829975	-0.034651	-0.000013
C30	C	0.828833	-0.112154	-0.000001
C31	C	0.891924	-0.157079	0.000005
C32	C	0.890854	-0.229905	-0.000017
C33	C	0.826688	-0.257800	-0.000018
C34	C	0.763590	-0.212866	-0.000031
C35	C	0.764662	-0.140044	-0.000023
N36	N	0.770663	-0.358799	0.077230
N37	N	0.769648	-0.427978	0.077225
C38	C	0.823452	-0.477211	-0.000045
N39	N	0.878319	-0.454652	-0.077293
N40	N	0.879336	-0.385467	-0.077282
C41	C	0.825518	-0.336764	-0.000027
C42	C	0.885387	-0.601103	-0.000065
C43	C	0.884316	-0.673930	-0.000095
C44	C	0.757048	-0.656889	-0.000096
C45	C	0.758123	-0.584064	-0.000079
C46	C	0.822294	-0.556175	-0.000057
C47	C	0.952158	0.087523	-0.000048
C48	C	1.029664	0.088661	-0.000059
C49	C	0.819007	0.220677	-0.000077
C50	C	0.820149	0.298179	-0.000098
N51	N	0.792553	0.125083	0.353588
N52	N	0.856434	0.060937	-0.353675
C53	C	0.831580	0.085888	0.421376
C54	C	0.817401	0.100138	0.578540
H55	H	0.184003	-0.024732	-0.000044
C56	C	0.758073	0.159727	0.657312
N57	N	0.713388	0.204608	0.716645
H58	H	0.875489	0.041778	0.363062
H59	H	0.935694	-0.710509	-0.000098
C60	C	0.693006	-0.243552	-0.000022
N61	N	0.639840	-0.266664	-0.000016
C62	C	0.452143	0.228790	-0.000064
N63	N	0.414921	0.281067	-0.000087
C64	C	0.915763	0.001349	0.567556
N65	N	0.960450	-0.043531	0.508226
C66	C	0.733228	0.184669	0.432365
N67	N	0.688543	0.229550	0.491698
H68	H	0.628012	-0.018181	-0.000028
C69	C	0.161055	0.224492	-0.000056
N70	N	0.184162	0.277661	-0.000044
H71	H	0.020974	0.204206	-0.000063
C72	C	0.955978	-0.570424	-0.000062
N73	N	1.009147	-0.547320	-0.000063
C74	C	0.605064	0.231046	-0.000051
N75	N	0.628167	0.284217	-0.000040
C76	C	0.043915	-0.045026	-0.000045
N77	N	0.020808	-0.098193	-0.000026
H78	H	0.704804	-0.679601	-0.000103
C79	C	0.960260	-0.279330	-0.000002
N80	N	1.012537	-0.316555	0.000013
C81	C	0.487925	-0.038467	-0.000002
N82	N	0.464819	-0.091635	0.000021
H83	H	0.944177	-0.134377	0.000018
C84	C	0.688717	-0.534644	-0.000078
N85	N	0.636437	-0.497421	-0.000083
H86	H	0.713285	-0.103465	-0.000028
