data_functionalizedCrystal
_audit_creation_method	'MofGen! by Chris Wilmer'
_symmetry_space_group_name_H-M	'P1'
_symmetry_Int_Tables_number	1
_symmetry_cell_setting	triclinic
loop_
_symmetry_equiv_pos_as_xyz
  x,y,z
_cell_length_a	15.698487
_cell_length_b	20.875641
_cell_length_c	20.875790
_cell_angle_alpha	59.253541
_cell_angle_beta	61.735621
_cell_angle_gamma	90.000762
loop_
_atom_site_label
_atom_site_type_symbol
_atom_site_fract_x
_atom_site_fract_y
_atom_site_fract_z
Zr1	Zr	0.864196	-0.051258	0.671127
O2	O	0.732561	-0.150357	0.805268
O3	O	0.898283	-0.025611	0.542109
O4	O	0.901235	-0.157184	0.678519
O5	O	0.734408	0.090386	0.661241
O6	O	1.041417	-0.157185	0.678521
O7	O	0.729609	-0.018785	0.668859
O8	O	1.036135	0.078174	0.434509
O9	O	0.739690	-0.144973	0.905253
O10	O	1.025007	-0.008957	0.593280
O11	O	0.923973	0.072517	0.587593
O12	O	0.927449	-0.082393	0.748198
O13	O	0.826415	-0.000919	0.742512
Zr14	Zr	1.095423	0.122853	0.658982
Zr15	Zr	1.087769	-0.051260	0.671131
Zr16	Zr	0.871850	0.122856	0.658978
Zr17	Zr	0.875565	-0.042672	0.830591
Zr18	Zr	1.084054	0.114267	0.499517
O19	O	1.061336	0.097207	0.788000
O20	O	1.050453	-0.150361	0.805274
O21	O	0.743445	0.097210	0.787994
O22	O	1.227058	0.221953	0.524840
O23	O	1.216175	-0.025615	0.542114
O24	O	0.909166	0.221956	0.524835
O25	O	1.225211	-0.018790	0.668868
O26	O	1.058384	0.228779	0.651590
O27	O	0.918203	0.228781	0.651588
O28	O	1.230010	0.090380	0.661250
O29	O	0.917400	-0.144975	0.905257
O30	O	1.042219	0.216571	0.424852
O31	O	1.219930	0.216569	0.424855
O32	O	1.213846	0.078172	0.434512
O33	O	0.745774	-0.006576	0.895597
O34	O	0.923484	-0.006578	0.895600
O35	O	1.032170	0.153988	0.581910
O36	O	1.133204	0.072515	0.587597
O37	O	1.035646	-0.000921	0.742515
O38	O	0.934612	0.080552	0.736829
C39	C	0.700154	0.035801	0.665049
C40	C	0.605242	0.035802	0.665048
C41	C	0.965589	0.025058	0.465589
C42	C	0.960763	0.021413	0.397892
C43	C	0.989384	0.253588	0.649858
C44	C	0.992633	0.327504	0.644701
C45	C	0.431457	0.035795	0.665063
C46	C	0.528161	0.035797	0.665058
C47	C	1.259465	0.035795	0.665059
C48	C	1.354378	0.035794	0.665061
C49	C	0.970236	-0.181992	0.680251
C50	C	0.966986	-0.255908	0.685408
C51	C	0.943237	0.323899	0.723141
C52	C	0.946286	0.393353	0.718290
C53	C	0.998736	0.466412	0.634997
C54	C	1.048133	0.470015	0.556551
C55	C	1.045078	0.400561	0.561403
C56	C	1.013328	0.678241	0.611814
C57	C	1.016382	0.747697	0.606968
C58	C	0.914532	0.671030	0.768708
C59	C	0.911487	0.601579	0.773552
C60	C	0.960879	0.605188	0.695106
N61	N	1.001856	0.537406	0.630036
N62	N	0.957753	0.534194	0.700068
C63	C	1.034420	0.076872	0.306804
C64	C	1.029840	0.073443	0.243215
C65	C	0.951605	0.014550	0.270716
C66	C	0.877941	-0.040912	0.361812
C67	C	0.882518	-0.037478	0.425399
C68	C	0.929769	-0.001846	0.086900
C69	C	0.925199	-0.005276	0.023305
C70	C	1.077097	0.109079	-0.095288
C71	C	1.081671	0.112505	-0.031694
C72	C	1.008004	0.057045	0.059396
N73	N	0.946923	0.011042	0.205719
N74	N	1.012682	0.060557	0.124390
C75	C	0.994030	0.046538	0.864520
C76	C	0.998856	0.050183	0.932217
C77	C	1.245245	0.025055	0.465594
C78	C	1.335331	0.021409	0.397898
C79	C	0.975163	0.242848	0.450392
C80	C	0.973586	0.313119	0.377538
C81	C	1.254819	0.242845	0.450397
C82	C	1.348154	0.313114	0.377545
C83	C	0.704800	-0.171249	0.879712
C84	C	0.611465	-0.241519	0.952564
C85	C	0.714375	0.046541	0.864515
C86	C	0.624288	0.050187	0.932210
C87	C	0.984456	-0.171252	0.879717
C88	C	0.986033	-0.241523	0.952571
C89	C	1.321158	-0.022838	0.369075
C90	C	1.405795	-0.026280	0.305478
C91	C	1.504604	0.014530	0.270701
C92	C	1.518775	0.058779	0.299531
C93	C	1.434139	0.062215	0.363131
C94	C	1.029324	0.388653	0.340358
C95	C	1.027839	0.454687	0.271912
C96	C	0.970622	0.445185	0.240643
C97	C	0.914878	0.369643	0.277830
C98	C	0.916357	0.303610	0.346279
C99	C	1.444734	0.303585	0.346300
C100	C	1.532442	0.369605	0.277857
C101	C	1.523567	0.445153	0.240654
C102	C	1.426978	0.454681	0.271905
C103	C	1.339272	0.388662	0.340351
C104	C	0.514886	-0.231990	0.983816
C105	C	0.427180	-0.298008	1.052279
C106	C	0.436054	-0.373556	1.089485
C107	C	0.532644	-0.383084	1.058231
C108	C	0.620348	-0.317066	0.989773
C109	C	0.638461	0.094427	0.961041
C110	C	0.553825	0.097850	1.024657
C111	C	0.455016	0.057038	1.059436
C112	C	0.440845	0.012793	1.030603
C113	C	0.525481	0.009365	0.966993
C114	C	1.043260	-0.231996	0.983818
C115	C	1.044762	-0.298016	1.052264
C116	C	0.989030	-0.373564	1.089465
C117	C	0.931800	-0.383090	1.058212
C118	C	0.930305	-0.317070	0.989763
H119	H	0.900531	0.264415	0.790967
C120	C	0.870540	-0.466200	1.099113
N121	N	0.824410	-0.528802	1.129914
C122	C	1.104581	-0.148900	0.942904
N123	N	1.150778	-0.086314	0.912087
C124	C	1.627474	0.103673	0.261260
N125	N	1.709348	0.137491	0.232427
H126	H	1.059092	0.807186	0.539137
C127	C	0.361924	0.060820	1.129405
N128	N	0.291811	0.063675	1.182102
C129	C	0.569436	0.146532	1.056354
N130	N	0.581197	0.183200	1.080224
C131	C	1.638680	0.359107	0.243487
N132	N	1.718695	0.351197	0.217599
H133	H	0.360384	-0.020435	1.058930
H134	H	1.594991	0.498903	0.184921
C135	C	0.801491	-0.098490	0.525600
N136	N	0.740458	-0.144444	0.601072
C137	C	1.067660	0.682221	0.525520
N138	N	1.108585	0.685219	0.460519
C139	C	1.449746	0.110901	0.394821
N140	N	1.461510	0.147575	0.418685
H141	H	1.075917	0.396405	0.365809
C142	C	0.853734	0.521217	0.865181
N143	N	0.810216	0.460687	0.934197
H144	H	1.073237	0.516190	0.241642
C145	C	0.867331	-0.327563	0.955411
N146	N	0.819893	-0.335472	0.929543
C147	C	1.167735	0.177291	-0.061955
N148	N	1.232561	0.226088	-0.084748
H149	H	1.419767	0.516201	0.241604
C150	C	0.509873	-0.039294	0.935277
N151	N	0.498109	-0.075946	0.911389
H152	H	0.969426	0.498959	0.184907
C153	C	1.107716	-0.287520	1.086633
N154	N	1.155131	-0.279612	1.112519
H155	H	1.090835	0.529505	0.488732
C156	C	1.233037	0.399157	0.374710
N157	N	1.153021	0.407068	0.400587
H158	H	0.539857	-0.444602	1.088533
H159	H	1.573511	0.011726	0.218913
H160	H	0.990256	-0.427314	1.145200
H161	H	1.085299	0.403501	0.497528
H162	H	0.718909	0.127667	0.932728
H163	H	0.348541	-0.290235	1.077715
C164	C	0.851948	0.359203	0.243419
N165	N	0.804555	0.351342	0.217494
H166	H	1.451979	0.242076	0.376581
C167	C	0.891953	0.389381	0.804581
N168	N	0.851029	0.386388	0.869580
H169	H	0.874318	0.668101	0.832574
H170	H	1.240711	-0.056081	0.397391
C171	C	0.339566	-0.446171	1.164784
N172	N	0.266887	-0.500862	1.221495
H173	H	1.098130	0.124827	0.284402
C174	C	1.390184	-0.074950	0.273769
N175	N	1.378423	-0.111605	0.249886
H176	H	0.870972	0.242109	0.376542
H177	H	0.507640	-0.170481	0.953527
H178	H	1.089819	0.118603	0.169049
H179	H	0.698984	-0.324834	0.964329
C180	C	1.158120	0.170086	-0.195489
N181	N	1.219146	0.216040	-0.270963
H182	H	0.869797	-0.047015	0.161063
C183	C	0.839135	-0.070068	0.053564
N184	N	0.774318	-0.118870	0.076354
H185	H	0.814237	-0.088860	0.384199
