data_functionalizedCrystal
_audit_creation_method	'MofGen! by Chris Wilmer'
_symmetry_space_group_name_H-M	'P1'
_symmetry_Int_Tables_number	1
_symmetry_cell_setting	triclinic
loop_
_symmetry_equiv_pos_as_xyz
  x,y,z
_cell_length_a	19.121112
_cell_length_b	19.121111
_cell_length_c	17.077396
_cell_angle_alpha	92.410841
_cell_angle_beta	92.457677
_cell_angle_gamma	89.871706
loop_
_atom_site_label
_atom_site_type_symbol
_atom_site_fract_x
_atom_site_fract_y
_atom_site_fract_z
Zn1	Zn	1.059843	0.324899	0.509778
Zn2	Zn	1.309843	0.574899	0.759778
Zn3	Zn	1.559843	0.824899	1.009778
Zn4	Zn	1.809843	1.074899	1.259778
Zn5	Zn	1.054746	0.442138	0.383855
Zn6	Zn	1.304746	0.692138	0.633855
Zn7	Zn	1.554746	0.942138	0.883855
Zn8	Zn	1.804746	1.192138	1.133855
Zn9	Zn	0.942605	0.319914	0.372707
Zn10	Zn	1.192605	0.569914	0.622707
Zn11	Zn	1.442605	0.819914	0.872707
Zn12	Zn	1.692605	1.069914	1.122707
Zn13	Zn	0.937565	0.437089	0.509259
Zn14	Zn	1.187565	0.687089	0.759259
Zn15	Zn	1.437565	0.937089	1.009259
Zn16	Zn	1.687565	1.187089	1.259259
O17	O	0.998689	0.381010	0.443900
O18	O	1.248689	0.631010	0.693900
O19	O	1.498689	0.881010	0.943900
O20	O	1.748689	1.131010	1.193900
O21	O	1.157271	0.344651	0.497957
O22	O	1.407271	0.594651	0.747957
O23	O	1.657271	0.844651	0.997957
O24	O	1.907271	1.094651	1.247957
O25	O	1.039846	0.425952	0.272529
O26	O	1.289846	0.675952	0.522529
O27	O	1.539846	0.925952	0.772529
O28	O	1.789846	1.175952	1.022529
O29	O	0.962399	0.222472	0.386442
O30	O	1.212399	0.472472	0.636442
O31	O	1.462399	0.722472	0.886442
O32	O	1.712399	0.972472	1.136442
O33	O	1.153527	0.430786	0.405441
O34	O	1.403527	0.680786	0.655441
O35	O	1.653527	0.930786	0.905441
O36	O	1.903527	1.180786	1.155441
O37	O	1.048533	0.226135	0.487148
O38	O	1.298533	0.476135	0.737148
O39	O	1.548533	0.726135	0.987148
O40	O	1.798533	0.976135	1.237148
O41	O	0.957457	0.336154	0.264339
O42	O	1.207457	0.586154	0.514339
O43	O	1.457457	0.836154	0.764339
O44	O	1.707457	1.086154	1.014339
O45	O	0.843831	0.331258	0.385938
O46	O	1.093831	0.581258	0.635938
O47	O	1.343831	0.831258	0.885938
O48	O	1.593831	1.081258	1.135938
O49	O	0.953809	0.422180	0.619175
O50	O	1.203809	0.672180	0.869175
O51	O	1.453809	0.922180	1.119175
O52	O	1.703809	1.172180	1.369175
O53	O	0.840129	0.417346	0.486262
O54	O	1.090129	0.667346	0.736262
O55	O	1.340129	0.917346	0.986262
O56	O	1.590129	1.167346	1.236262
O57	O	1.043646	0.339755	0.619556
O58	O	1.293646	0.589755	0.869556
O59	O	1.543646	0.839755	1.119556
O60	O	1.793646	1.089755	1.369556
O61	O	1.034959	0.539572	0.404938
O62	O	1.284959	0.789572	0.654938
O63	O	1.534959	1.039572	0.904938
O64	O	1.784959	1.289572	1.154938
O65	O	0.948867	0.535862	0.497072
O66	O	1.198867	0.785862	0.747072
O67	O	1.448867	1.035862	0.997072
O68	O	1.698867	1.285862	1.247072
C69	C	0.816543	0.373214	0.434835
C70	C	1.066543	0.623214	0.684835
C71	C	1.316543	0.873214	0.934835
C72	C	1.566543	1.123214	1.184835
C73	C	0.738619	0.369896	0.430976
C74	C	0.988619	0.619896	0.680976
C75	C	1.238619	0.869896	0.930976
C76	C	1.488619	1.119896	1.180976
C77	C	0.297993	0.348843	0.406535
C78	C	0.547993	0.598843	0.656535
C79	C	0.797993	0.848843	0.906535
C80	C	1.047993	1.098843	1.156535
C81	C	0.371211	0.351965	0.410165
C82	C	0.621211	0.601965	0.660165
C83	C	0.871211	0.851965	0.910165
C84	C	1.121211	1.101965	1.160165
C85	C	0.405905	0.398421	0.464135
C86	C	0.655905	0.648421	0.714135
C87	C	0.905905	0.898421	0.964135
C88	C	1.155905	1.148421	1.214135
C89	C	0.367377	0.441753	0.514484
C90	C	0.617377	0.691753	0.764484
C91	C	0.867377	0.941753	1.014484
C92	C	1.117377	1.191753	1.264484
C93	C	0.294161	0.438627	0.510858
C94	C	0.544161	0.688627	0.760858
C95	C	0.794161	0.938627	1.010858
C96	C	1.044161	1.188627	1.260858
C97	C	0.626875	0.410102	0.477698
C98	C	0.876875	0.660102	0.727698
C99	C	1.126875	0.910102	0.977698
C100	C	1.376875	1.160102	1.227698
C101	C	0.700096	0.413226	0.481320
C102	C	0.950096	0.663226	0.731320
C103	C	1.200096	0.913226	0.981320
C104	C	1.450096	1.163226	1.231320
C105	C	0.703925	0.323436	0.377001
C106	C	0.953925	0.573436	0.627001
C107	C	1.203925	0.823436	0.877001
C108	C	1.453925	1.073436	1.127001
C109	C	0.630707	0.320317	0.373376
C110	C	0.880707	0.570317	0.623376
C111	C	1.130707	0.820317	0.873376
C112	C	1.380707	1.070317	1.123376
C113	C	0.592186	0.363647	0.423728
C114	C	0.842186	0.613647	0.673728
C115	C	1.092186	0.863647	0.923728
C116	C	1.342186	1.113647	1.173728
C117	C	0.480745	0.401615	0.467845
C118	C	0.730745	0.651615	0.717845
C119	C	0.980745	0.901615	0.967845
C120	C	1.230745	1.151615	1.217845
C121	C	0.517347	0.360449	0.420021
C122	C	0.767347	0.610449	0.670021
C123	C	1.017347	0.860449	0.920021
C124	C	1.267347	1.110449	1.170021
C125	C	0.990832	0.563155	0.452176
C126	C	1.240832	0.813155	0.702176
C127	C	1.490832	1.063155	0.952176
C128	C	1.740832	1.313155	1.202176
C129	C	0.987535	0.641080	0.455746
C130	C	1.237535	0.891080	0.705746
C131	C	1.487535	1.141080	0.955746
C132	C	1.737535	1.391080	1.205746
C133	C	1.030844	0.679599	0.409497
C134	C	1.280844	0.929599	0.659497
C135	C	1.530844	1.179599	0.909497
C136	C	1.780844	1.429599	1.159497
C137	C	1.027747	0.752818	0.412860
C138	C	1.277747	1.002818	0.662860
C139	C	1.527747	1.252818	0.912860
C140	C	1.777747	1.502818	1.162860
C141	C	0.981337	0.787517	0.462467
C142	C	1.231337	1.037517	0.712467
C143	C	1.481337	1.287517	0.962467
C144	C	1.731337	1.537517	1.212467
C145	C	0.938026	0.748992	0.508721
C146	C	1.188026	0.998992	0.758721
C147	C	1.438026	1.248992	1.008721
C148	C	1.688026	1.498992	1.258721
C149	C	0.941127	0.675775	0.505362
C150	C	1.191127	0.925775	0.755362
C151	C	1.441127	1.175775	1.005362
C152	C	1.691127	1.425775	1.255362
C153	C	0.969733	1.008490	0.475010
C154	C	1.219733	1.258490	0.725010
C155	C	1.469733	1.508490	0.975010
C156	C	1.719733	1.758490	1.225010
C157	C	0.966634	1.081713	0.478364
C158	C	1.216634	1.331713	0.728364
C159	C	1.466634	1.581713	0.978364
C160	C	1.716634	1.831713	1.228364
C161	C	1.056356	1.085534	0.382503
C162	C	1.306356	1.335534	0.632503
C163	C	1.556356	1.585534	0.882503
C164	C	1.806356	1.835534	1.132503
C165	C	1.059450	1.012314	0.379145
C166	C	1.309450	1.262314	0.629145
C167	C	1.559450	1.512314	0.879145
C168	C	1.809450	1.762314	1.129145
C169	C	1.016142	0.973797	0.425402
C170	C	1.266142	1.223797	0.675402
C171	C	1.516142	1.473797	0.925402
C172	C	1.766142	1.723797	1.175402
C173	C	0.978169	0.862358	0.465904
C174	C	1.228169	1.112358	0.715904
C175	C	1.478169	1.362358	0.965904
C176	C	1.728169	1.612358	1.215904
C177	C	1.019314	0.898957	0.421970
C178	C	1.269314	1.148957	0.671970
C179	C	1.519314	1.398957	0.921970
C180	C	1.769314	1.648957	1.171970
C181	C	1.181548	0.388837	0.453001
C182	C	1.431548	0.638837	0.703001
C183	C	1.681548	0.888837	0.953001
C184	C	1.931548	1.138837	1.203001
C185	C	1.259471	0.392173	0.456879
C186	C	1.509471	0.642173	0.706879
C187	C	1.759471	0.892173	0.956879
C188	C	2.009471	1.142173	1.206879
C189	C	0.998734	0.380960	0.648644
C190	C	1.248734	0.630960	0.898644
C191	C	1.498734	0.880960	1.148644
C192	C	1.748734	1.130960	1.398644
C193	C	0.998753	0.380939	0.735894
C194	C	1.248753	0.630939	0.985894
C195	C	1.498753	0.880939	1.235894
C196	C	1.748753	1.130939	1.485894
C197	C	1.006591	1.198155	0.435619
C198	C	1.256591	1.448155	0.685619
C199	C	1.506591	1.698155	0.935619
C200	C	1.756591	1.948155	1.185619
C201	C	1.009943	1.120232	0.432115
C202	C	1.259943	1.370232	0.682115
C203	C	1.509943	1.620232	0.932115
C204	C	1.759943	1.870232	1.182115
C205	C	0.998688	0.381011	0.239952
C206	C	1.248688	0.631011	0.489952
C207	C	1.498688	0.881011	0.739952
C208	C	1.748688	1.131011	0.989952
C209	C	0.998813	0.380841	0.152700
C210	C	1.248813	0.630841	0.402700
C211	C	1.498813	0.880841	0.652700
C212	C	1.748813	1.130841	0.902700
C213	C	1.045533	0.338016	0.777084
C214	C	1.295533	0.588016	1.027084
C215	C	1.545533	0.838016	1.277084
C216	C	1.795533	1.088016	1.527084
C217	C	1.045542	0.337994	0.859064
C218	C	1.295542	0.587994	1.109064
C219	C	1.545542	0.837994	1.359064
C220	C	1.795542	1.087994	1.609064
C221	C	0.998775	0.380897	0.899852
C222	C	1.248775	0.630897	1.149852
C223	C	1.498775	0.880897	1.399852
C224	C	1.748775	1.130897	1.649852
C225	C	0.951990	0.423822	0.858656
C226	C	1.201990	0.673822	1.108656
C227	C	1.451990	0.923822	1.358656
C228	C	1.701990	1.173822	1.608656
C229	C	0.951978	0.423841	0.776678
C230	C	1.201978	0.673841	1.026678
C231	C	1.451978	0.923841	1.276678
C232	C	1.701978	1.173841	1.526678
C233	C	0.952020	0.423781	1.029526
C234	C	1.202020	0.673781	1.279526
C235	C	1.452020	0.923781	1.529526
C236	C	1.702020	1.173781	1.779526
C237	C	0.952033	0.423763	1.111510
C238	C	1.202033	0.673763	1.361510
C239	C	1.452033	0.923763	1.611510
C240	C	1.702033	1.173763	1.861510
C241	C	1.045585	0.337934	1.111912
C242	C	1.295585	0.587934	1.361912
C243	C	1.545585	0.837934	1.611912
C244	C	1.795585	1.087934	1.861912
C245	C	1.045572	0.337953	1.029933
C246	C	1.295572	0.587953	1.279933
C247	C	1.545572	0.837953	1.529933
C248	C	1.795572	1.087953	1.779933
C249	C	0.998788	0.380878	0.988743
C250	C	1.248788	0.630878	1.238743
C251	C	1.498788	0.880878	1.488743
C252	C	1.748788	1.130878	1.738743
H253	H	0.395631	0.479576	0.558431
H254	H	0.645631	0.729576	0.808431
H255	H	0.895631	0.979576	1.058431
H256	H	1.145631	1.229576	1.308431
H257	H	0.900240	0.777250	0.549116
H258	H	1.150240	1.027250	0.799116
H259	H	1.400240	1.277250	1.049116
H260	H	1.650240	1.527250	1.299116
Cl261	Cl	0.886681	0.627351	0.563509
Cl262	Cl	1.136681	0.877351	0.813509
Cl263	Cl	1.386681	1.127351	1.063509
Cl264	Cl	1.636681	1.377351	1.313509
H265	H	0.595520	0.445386	0.518696
H266	H	0.845520	0.695386	0.768696
H267	H	1.095520	0.945386	1.018696
H268	H	1.345520	1.195386	1.268696
H269	H	1.057104	0.870703	0.381582
H270	H	1.307104	1.120703	0.631582
H271	H	1.557104	1.370703	0.881582
H272	H	1.807104	1.620703	1.131582
Cl273	Cl	0.893164	0.477801	0.724895
Cl274	Cl	1.143164	0.727801	0.974895
Cl275	Cl	1.393164	0.977801	1.224895
Cl276	Cl	1.643164	1.227801	1.474895
H277	H	0.940380	0.890618	0.506293
H278	H	1.190380	1.140618	0.756293
H279	H	1.440380	1.390618	1.006293
H280	H	1.690380	1.640618	1.256293
H281	H	1.083619	0.303081	0.743880
H282	H	1.333619	0.553081	0.993880
H283	H	1.583619	0.803081	1.243880
H284	H	1.833619	1.053081	1.493880
H285	H	0.928849	1.109963	0.518774
H286	H	1.178849	1.359963	0.768774
H287	H	1.428849	1.609963	1.018774
H288	H	1.678849	1.859963	1.268774
Cl289	Cl	1.104384	0.284063	0.910845
Cl290	Cl	1.354384	0.534063	1.160845
Cl291	Cl	1.604384	0.784063	1.410845
Cl292	Cl	1.854384	1.034063	1.660845
H293	H	0.402573	0.316684	0.369167
H294	H	0.652573	0.566684	0.619167
H295	H	0.902573	0.816684	0.869167
H296	H	1.152573	1.066684	1.119167
Cl297	Cl	1.104371	0.284020	0.978657
Cl298	Cl	1.354371	0.534020	1.228657
Cl299	Cl	1.604371	0.784020	1.478657
Cl300	Cl	1.854371	1.034020	1.728657
Cl301	Cl	1.104400	0.283971	1.163693
Cl302	Cl	1.354400	0.533971	1.413693
Cl303	Cl	1.604400	0.783971	1.663693
Cl304	Cl	1.854400	1.033971	1.913693
H305	H	0.913913	0.458724	0.995990
H306	H	1.163913	0.708724	1.245990
H307	H	1.413913	0.958724	1.495990
H308	H	1.663913	1.208724	1.745990
H309	H	0.602464	0.282493	0.329423
H310	H	0.852464	0.532493	0.579423
H311	H	1.102464	0.782493	0.829423
H312	H	1.352464	1.032493	1.079423
H313	H	0.913949	0.458698	1.144718
H314	H	1.163949	0.708698	1.394718
H315	H	1.413949	0.958698	1.644718
H316	H	1.663949	1.208698	1.894718
H317	H	0.913909	0.458752	0.891873
H318	H	1.163909	0.708752	1.141873
H319	H	1.413909	0.958752	1.391873
H320	H	1.663909	1.208752	1.641873
H321	H	0.269751	0.311014	0.362586
H322	H	0.519751	0.561014	0.612586
H323	H	0.769751	0.811014	0.862586
H324	H	1.019751	1.061014	1.112586
H325	H	0.728342	0.451056	0.525273
H326	H	0.978342	0.701056	0.775273
H327	H	1.228342	0.951056	1.025273
H328	H	1.478342	1.201056	1.275273
Cl329	Cl	0.752355	0.268965	0.313710
Cl330	Cl	1.002355	0.518965	0.563710
Cl331	Cl	1.252355	0.768965	0.813710
Cl332	Cl	1.502355	1.018965	1.063710
H333	H	0.262797	0.473909	0.551855
H334	H	0.512797	0.723909	0.801855
H335	H	0.762797	0.973909	1.051855
H336	H	1.012797	1.223909	1.301855
H337	H	0.489096	0.322622	0.376082
H338	H	0.739096	0.572622	0.626082
H339	H	0.989096	0.822622	0.876082
H340	H	1.239096	1.072622	1.126082
H341	H	0.509001	0.439441	0.511786
H342	H	0.759001	0.689441	0.761786
H343	H	1.009001	0.939441	1.011786
H344	H	1.259001	1.189441	1.261786
H345	H	1.068633	0.651352	0.369098
H346	H	1.318633	0.901352	0.619098
H347	H	1.568633	1.151352	0.869098
H348	H	1.818633	1.401352	1.119098
H349	H	1.063014	0.784177	0.375199
H350	H	1.313014	1.034177	0.625199
H351	H	1.563014	1.284177	0.875199
H352	H	1.813014	1.534177	1.125199
H353	H	1.091616	1.116902	0.344845
H354	H	1.341616	1.366902	0.594845
H355	H	1.591616	1.616902	0.844845
H356	H	1.841616	1.866902	1.094845
Cl357	Cl	1.117807	0.968699	0.316791
Cl358	Cl	1.367807	1.218699	0.566791
Cl359	Cl	1.617807	1.468699	0.816791
Cl360	Cl	1.867807	1.718699	1.066791
H361	H	0.934468	0.977135	0.512673
H362	H	1.184468	1.227135	0.762673
H363	H	1.434468	1.477135	1.012673
H364	H	1.684468	1.727135	1.262673
