data_functionalizedCrystal
_audit_creation_method	'MofGen! by Chris Wilmer'
_symmetry_space_group_name_H-M	'P1'
_symmetry_Int_Tables_number	1
_symmetry_cell_setting	triclinic
loop_
_symmetry_equiv_pos_as_xyz
  x,y,z
_cell_length_a	14.519731
_cell_length_b	15.944499
_cell_length_c	13.596369
_cell_angle_alpha	89.997258
_cell_angle_beta	89.994584
_cell_angle_gamma	83.583231
loop_
_atom_site_label
_atom_site_type_symbol
_atom_site_fract_x
_atom_site_fract_y
_atom_site_fract_z
O1	O	1.223641	0.110197	-0.081786
O2	O	1.723641	0.610197	0.418214
O3	O	0.955142	0.123145	-0.081787
O4	O	1.455142	0.623145	0.418213
O5	O	1.096748	-0.005596	-0.081788
O6	O	1.596748	0.494404	0.418212
O7	O	1.082034	0.238938	-0.081785
O8	O	1.582034	0.738938	0.418215
O9	O	1.096734	-0.005603	0.081795
O10	O	1.596734	0.494397	0.581795
O11	O	0.955128	0.123138	0.081796
O12	O	1.455128	0.623138	0.581796
O13	O	1.223627	0.110190	0.081797
O14	O	1.723627	0.610190	0.581797
Zn15	Zn	1.089375	0.116663	0.107769
Zn16	Zn	1.589375	0.616663	0.607769
Zn17	Zn	1.089394	0.116672	-0.107759
Zn18	Zn	1.589394	0.616672	0.392241
O19	O	1.082020	0.238931	0.081798
O20	O	1.582020	0.738931	0.581798
C21	C	0.920776	0.122535	0.000004
C22	C	1.420776	0.622535	0.500004
C23	C	0.818400	0.120717	0.000004
C24	C	1.318400	0.620717	0.500004
C25	C	0.735258	0.119240	-0.000000
C26	C	1.235258	0.619240	0.500000
C27	C	0.630953	0.117394	-0.000001
C28	C	1.130953	0.617394	0.499999
C29	C	0.547817	0.115929	-0.000000
C30	C	1.047817	0.615929	0.500000
C31	C	0.443505	0.114083	-0.000003
C32	C	0.943505	0.614083	0.499997
C33	C	1.096139	-0.036895	0.000001
C34	C	1.596139	0.463105	0.500001
C35	C	1.094333	-0.130146	-0.000007
C36	C	1.594333	0.369854	0.499993
C37	C	1.176603	-0.421557	-0.000001
C38	C	1.676603	0.078443	0.499999
C39	C	1.133830	-0.360600	0.080657
C40	C	1.633830	0.139400	0.580657
C41	C	1.087771	-0.465792	0.000005
C42	C	1.587771	0.034208	0.500005
C43	C	1.133820	-0.360599	-0.080623
C44	C	1.633820	0.139401	0.419377
C45	C	1.091000	-0.300879	-0.000002
C46	C	1.591000	0.199121	0.499998
C47	C	1.044974	-0.406064	0.080730
C48	C	1.544974	0.093936	0.580730
C49	C	1.044976	-0.406069	-0.080623
C50	C	1.544976	0.093931	0.419377
C51	C	1.002139	-0.345130	0.000055
C52	C	1.502139	0.154870	0.500055
C53	C	1.085914	-0.560795	0.000010
C54	C	1.585914	-0.060795	0.500010
C55	C	1.092851	-0.205877	-0.000000
C56	C	1.592851	0.294123	0.500000
C57	C	1.257992	0.110800	0.000003
C58	C	1.757992	0.610800	0.500003
C59	C	1.360369	0.112618	-0.000003
C60	C	1.860369	0.612618	0.499997
C61	C	1.082630	0.270230	0.000007
C62	C	1.582630	0.770230	0.500007
C63	C	1.084436	0.363481	0.000008
C64	C	1.584436	0.863481	0.500008
N65	N	1.089369	0.116656	0.254861
N66	N	1.589369	0.616656	0.754861
N67	N	1.089407	0.116672	-0.254851
N68	N	1.589407	0.616672	0.245149
C69	C	1.089392	0.116673	0.656151
C70	C	1.589392	0.616673	1.156151
C71	C	1.089383	0.116671	0.544500
C72	C	1.589383	0.616671	1.044500
C73	C	1.089381	0.116665	0.455510
C74	C	1.589381	0.616665	0.955510
C75	C	1.089371	0.116662	0.343851
C76	C	1.589371	0.616662	0.843851
H77	H	1.171397	-0.340455	0.148846
H78	H	1.671397	0.159545	0.648846
H79	H	0.928354	-0.312060	0.000102
H80	H	1.428354	0.187940	0.500102
H81	H	1.007426	-0.426105	0.148991
H82	H	1.507426	0.073895	0.648991
H83	H	1.007441	-0.426236	-0.148815
H84	H	1.507441	0.073764	0.351185
H85	H	1.171413	-0.340459	-0.148807
H86	H	1.671413	0.159541	0.351193
H87	H	1.250324	-0.454774	0.000076
H88	H	1.750324	0.045226	0.500076
