data_functionalizedCrystal
_audit_creation_method	'MofGen! by Chris Wilmer'
_symmetry_space_group_name_H-M	'P1'
_symmetry_Int_Tables_number	1
_symmetry_cell_setting	triclinic
loop_
_symmetry_equiv_pos_as_xyz
  x,y,z
_cell_length_a	21.295418
_cell_length_b	12.645330
_cell_length_c	12.645323
_cell_angle_alpha	90.024870
_cell_angle_beta	89.958322
_cell_angle_gamma	89.966493
loop_
_atom_site_label
_atom_site_type_symbol
_atom_site_fract_x
_atom_site_fract_y
_atom_site_fract_z
Zn1	Zn	0.962399	0.421583	-0.599984
Zn2	Zn	0.962329	0.598871	-0.422724
Zn3	Zn	0.857126	0.421671	-0.422670
Zn4	Zn	0.857115	0.598854	-0.599881
O5	O	0.909742	0.510245	-0.511315
O6	O	1.050479	0.445071	-0.576536
O7	O	0.948349	0.575409	-0.274369
O8	O	0.871125	0.273312	-0.446211
O9	O	1.050428	0.575324	-0.446304
O10	O	0.948468	0.273248	-0.576483
O11	O	0.871057	0.445221	-0.274329
O12	O	0.769035	0.445205	-0.446111
O13	O	0.871106	0.575295	-0.748242
O14	O	0.769027	0.575380	-0.576307
O15	O	0.948458	0.445055	-0.748318
O16	O	0.948338	0.747216	-0.446204
O17	O	0.871038	0.747204	-0.576360
C18	C	0.746191	0.510301	-0.511193
C19	C	0.676222	0.510350	-0.511165
C20	C	0.909696	0.785675	-0.511300
C21	C	0.909734	0.903505	-0.511329
C22	C	0.909789	0.510163	-0.787820
C23	C	0.909808	0.510128	-0.905650
C24	C	0.643368	0.578222	-0.578857
C25	C	0.577626	0.578196	-0.578905
C26	C	0.544740	0.510309	-0.511242
C27	C	0.577602	0.442424	-0.443545
C28	C	0.643343	0.442444	-0.443507
N29	N	0.441465	0.502032	-0.418520
N30	N	0.379013	0.502018	-0.418560
C31	C	0.346665	0.510241	-0.511354
N32	N	0.379128	0.518499	-0.604110
N33	N	0.441585	0.518518	-0.604070
C34	C	0.473455	0.510279	-0.511276
C35	C	0.242526	0.578089	-0.579103
C36	C	0.176782	0.578055	-0.579153
C37	C	0.176760	0.442288	-0.443784
C38	C	0.242502	0.442316	-0.443744
C39	C	0.275381	0.510222	-0.511402
C40	C	1.073933	0.510190	-0.511438
C41	C	1.143901	0.510166	-0.511490
C42	C	0.909806	0.233740	-0.511353
C43	C	0.909832	0.115910	-0.511369
C44	C	0.861305	1.071105	-0.593463
C45	C	0.861058	0.948546	-0.593199
C46	C	0.891774	0.948107	-0.399597
C47	C	0.891479	1.070706	-0.400095
C48	C	0.976419	1.070563	-0.540021
C49	C	0.976011	0.947956	-0.542464
C50	C	0.860996	0.591676	-1.073166
C51	C	0.861124	0.592080	-0.950607
C52	C	0.976136	0.540416	-0.950207
C53	C	0.975868	0.540927	-1.072805
C54	C	0.892920	0.397836	-1.072839
C55	C	0.891440	0.398510	-0.950231
C56	C	0.909732	0.510250	-0.235885
C57	C	0.909834	0.509986	-0.118055
H58	H	0.670134	0.633515	-0.633952
H59	H	1.012573	1.099534	-0.480229
C60	C	0.998550	1.112214	-0.648226
N61	N	1.015212	1.143585	-0.729731
C62	C	0.278643	0.367660	-0.369266
N63	N	0.305864	0.311425	-0.313168
H64	H	1.014070	0.917288	-0.487028
C65	C	0.541427	0.367748	-0.369115
N66	N	0.514179	0.311497	-0.313055
H67	H	0.550870	0.633465	-0.634032
H68	H	0.842629	0.375668	-0.921105
H69	H	1.013490	0.484009	-1.102505
C70	C	0.679484	0.367782	-0.369032
N71	N	0.706707	0.311548	-0.312933
H72	H	0.269297	0.633377	-0.634200
C73	C	0.794678	0.566477	-0.909900
N74	N	0.744628	0.547196	-0.879246
C75	C	0.140642	0.652733	-0.653614
N76	N	0.113421	0.708987	-0.709695
H77	H	0.149985	0.387008	-0.388696
C78	C	0.940976	0.315615	-1.112058
N79	N	0.977175	0.253695	-1.141601
H80	H	0.989555	0.918800	-0.624693
C81	C	0.795030	1.112866	-0.568135
N82	N	0.745112	1.144319	-0.549051
H83	H	0.811693	0.919334	-0.574213
C84	C	0.876236	0.907799	-0.705123
N85	N	0.887665	0.877114	-0.789430
C86	C	0.876341	1.110840	-0.705755
N87	N	0.887666	1.140779	-0.790336
H88	H	0.842803	1.099420	-0.375828
C89	C	0.794350	0.566318	-1.112936
N90	N	0.744151	0.547217	-1.142899
H91	H	0.925290	1.100347	-0.336841
H92	H	0.925999	0.918933	-0.336757
H93	H	0.843606	0.917518	-0.374891
H94	H	0.872054	0.674299	-1.103992
H95	H	0.872290	0.675222	-0.921299
H96	H	0.990206	0.622910	-1.101424
C97	C	1.026616	0.462582	-0.910870
N98	N	1.064636	0.403957	-0.881238
C99	C	0.995837	0.650014	-0.908767
N100	N	1.010671	0.732567	-0.877558
C101	C	0.935976	0.311935	-0.908869
N102	N	0.969521	0.246728	-0.877708
C103	C	0.828713	0.360536	-1.114541
N104	N	0.780349	0.332455	-1.145950
