data_functionalizedCrystal
_audit_creation_method	'MofGen! by Chris Wilmer'
_symmetry_space_group_name_H-M	'P1'
_symmetry_Int_Tables_number	1
_symmetry_cell_setting	triclinic
loop_
_symmetry_equiv_pos_as_xyz
  x,y,z
_cell_length_a	11.026607
_cell_length_b	10.489741
_cell_length_c	9.482900
_cell_angle_alpha	99.430409
_cell_angle_beta	78.636152
_cell_angle_gamma	96.562595
loop_
_atom_site_label
_atom_site_type_symbol
_atom_site_fract_x
_atom_site_fract_y
_atom_site_fract_z
O1	O	1.633618	0.519526	-0.120902
O2	O	1.279780	0.458584	-0.120903
O3	O	1.464749	0.305229	-0.120894
O4	O	1.448649	0.672881	-0.120911
O5	O	1.427179	0.336539	0.120897
O6	O	1.242210	0.489894	0.120887
O7	O	1.596048	0.550836	0.120889
Cu8	Cu	1.415698	0.523224	0.142965
Cu9	Cu	1.460129	0.486196	-0.142980
O10	O	1.411079	0.704190	0.120879
C11	C	1.215686	0.462996	-0.000008
C12	C	1.080679	0.429482	-0.000008
C13	C	1.007683	0.522021	-0.000014
C14	C	0.868146	0.487384	-0.000014
C15	C	1.444748	0.273085	0.000000
C16	C	1.441110	0.130655	-0.000002
C17	C	1.323420	0.036624	-0.000013
C18	C	1.360492	-0.027831	0.119202
C19	C	1.397561	-0.058669	-0.119184
C20	C	1.478215	0.068088	0.119312
C21	C	1.515284	0.037242	-0.119182
C22	C	1.552438	-0.027163	0.000063
C23	C	1.660143	0.546423	-0.000010
C24	C	1.795151	0.579936	-0.000019
C25	C	1.431080	0.736334	-0.000018
C26	C	1.434720	0.878763	-0.000025
N27	N	1.384457	0.549268	0.344084
N28	N	1.491380	0.460144	-0.344099
C29	C	1.450906	0.493869	0.416286
C30	C	1.424922	0.515551	0.583703
H31	H	1.048490	0.626890	-0.000010
H32	H	0.827348	0.382504	-0.000046
C33	C	1.527139	0.282715	0.369039
C34	C	1.553682	0.408193	0.332392
H35	H	1.590589	0.229829	0.317229
H36	H	1.523190	0.286024	0.470525
H37	H	1.449642	0.247187	0.344192
H38	H	1.631175	0.443725	0.357249
H39	H	1.557645	0.404889	0.230883
C40	C	0.972789	0.246894	-0.124305
C41	C	1.025607	0.287906	-0.000008
H42	H	0.938801	0.159486	-0.124307
H43	H	0.908915	0.300457	-0.124294
H44	H	1.034842	0.252907	-0.208613
H45	H	0.963552	0.281902	0.084300
H46	H	1.089487	0.234327	-0.000006
H47	H	1.295034	-0.056746	0.219990
C48	C	1.167469	0.582560	0.391288
C49	C	1.281682	0.634961	0.427942
H50	H	1.104019	0.635461	0.443065
H51	H	1.171455	0.579245	0.289795
H52	H	1.149467	0.497440	0.416172
H53	H	1.299688	0.720078	0.403048
H54	H	1.277698	0.638291	0.529457
C55	C	1.348717	0.726711	0.630851
C56	C	1.322141	0.601251	0.667546
H57	H	1.285260	0.779612	0.682608
H58	H	1.426195	0.762238	0.655716
H59	H	1.352698	0.723367	0.529342
H60	H	1.318169	0.604593	0.769055
H61	H	1.244642	0.565715	0.642691
H62	H	0.835951	0.684814	-0.000014
C63	C	1.112015	0.042528	0.125143
C64	C	1.192773	0.074952	0.000142
H65	H	1.031364	0.066200	0.125245
H66	H	1.108672	-0.048230	0.125995
H67	H	1.141234	0.087644	0.208966
H68	H	1.163559	0.029828	-0.083681
H69	H	1.196112	0.165726	-0.000723
C70	C	1.708381	0.426621	0.608326
C71	C	1.594053	0.374384	0.571880
H72	H	1.771731	0.373655	0.556407
H73	H	1.726425	0.511741	0.583489
H74	H	1.704525	0.429872	0.709801
H75	H	1.597906	0.371142	0.470407
H76	H	1.576006	0.289241	0.596708
C77	C	1.643706	0.109332	0.256004
C78	C	1.524216	0.142113	0.255528
H79	H	1.672101	0.155041	0.340094
H80	H	1.641696	0.018686	0.256806
H81	H	1.698360	0.132059	0.171444
H82	H	1.469559	0.119377	0.340083
H83	H	1.526218	0.232780	0.254740
H84	H	1.649280	-0.055274	0.000129
H85	H	1.580702	0.066180	-0.219975
C86	C	1.231507	-0.101047	-0.255003
C87	C	1.351462	-0.132896	-0.255250
H88	H	1.203047	-0.146863	-0.339005
H89	H	1.177342	-0.124260	-0.170360
H90	H	1.232788	-0.010417	-0.255500
H91	H	1.350179	-0.223525	-0.254742
H92	H	1.405641	-0.109691	-0.339915
