data_functionalizedCrystal
_audit_creation_method	'MofGen! by Chris Wilmer'
_symmetry_space_group_name_H-M	'P1'
_symmetry_Int_Tables_number	1
_symmetry_cell_setting	triclinic
loop_
_symmetry_equiv_pos_as_xyz
  x,y,z
_cell_length_a	6.817900
_cell_length_b	16.256208
_cell_length_c	16.256277
_cell_angle_alpha	95.347650
_cell_angle_beta	103.500353
_cell_angle_gamma	103.499088
loop_
_atom_site_label
_atom_site_type_symbol
_atom_site_fract_x
_atom_site_fract_y
_atom_site_fract_z
V1	V	-4.026899	-0.117778	-0.264177
O2	O	-4.014315	0.004956	-0.258838
O3	O	-3.978507	-0.232858	-0.262668
O4	O	-3.978517	-0.116276	-0.379257
O5	O	-4.014305	-0.112433	-0.141442
V6	V	-4.510524	-0.103061	-0.249461
O7	O	-4.287935	-0.150061	-0.296458
O8	O	-4.699686	-0.070779	-0.217179
O9	O	-4.335710	0.012018	-0.250969
O10	O	-4.640505	-0.225796	-0.254800
O11	O	-4.640515	-0.108406	-0.372196
O12	O	-4.335700	-0.104564	-0.134380
C13	C	-3.823509	-0.260902	-0.258578
C14	C	-3.865229	-0.354983	-0.258112
C15	C	-3.823521	-0.112189	-0.407298
C16	C	-3.865246	-0.111721	-0.501379
C17	C	-4.181121	-0.643088	-0.261104
C18	C	-4.024681	-0.573416	-0.189042
C19	C	-4.015253	-0.693616	-0.256398
C20	C	-4.097471	-0.595653	-0.329278
C21	C	-3.941552	-0.527235	-0.257242
C22	C	-3.859330	-0.625174	-0.184272
C23	C	-3.932182	-0.647427	-0.324572
C24	C	-3.775605	-0.577774	-0.252489
C25	C	-4.057715	-0.789464	-0.255912
C26	C	-3.899073	-0.431388	-0.257722
C27	C	-4.156191	-0.114987	-0.733208
C28	C	-4.049623	-0.042354	-0.776111
C29	C	-3.941543	-0.110842	-0.673623
C30	C	-4.122412	-0.182590	-0.798346
C31	C	-4.015258	-0.109996	-0.840004
C32	C	-3.834394	-0.038157	-0.715278
C33	C	-3.907241	-0.178457	-0.737519
C34	C	-3.800513	-0.105804	-0.780391
C35	C	-3.899083	-0.111328	-0.577775
C36	C	-4.057699	-0.109503	-0.935848
C37	C	-4.154050	0.040058	-0.255057
C38	C	-4.091567	0.134138	-0.255529
C39	C	-4.154038	-0.108654	-0.106335
C40	C	-4.091551	-0.109117	-0.012254
H41	H	-4.063341	-0.541196	-0.131744
H42	H	-3.893602	-0.679667	-0.381874
H43	H	-3.759056	-0.638474	-0.122925
C44	C	-4.232933	-0.577535	-0.412071
C45	C	-4.473058	-0.607473	-0.432516
C46	C	-4.608534	-0.589358	-0.515304
C47	C	-4.503886	-0.541304	-0.577648
C48	C	-4.263749	-0.511363	-0.557204
C49	C	-4.128272	-0.529478	-0.474416
H50	H	-4.550536	-0.643049	-0.386364
H51	H	-4.786301	-0.611523	-0.530437
H52	H	-4.604174	-0.527894	-0.638932
H53	H	-4.186270	-0.475788	-0.603356
H54	H	-3.950506	-0.507313	-0.459283
H55	H	-4.244604	-0.243622	-0.834390
C56	C	-4.131476	0.035383	-0.799414
C57	C	-4.347926	0.021744	-0.862241
C58	C	-4.429807	0.099474	-0.885543
C59	C	-4.295239	0.190842	-0.846017
C60	C	-4.078775	0.204484	-0.783186
C61	C	-3.996894	0.126755	-0.759885
H62	H	-4.447554	-0.045895	-0.891504
H63	H	-4.590048	0.089374	-0.932054
H64	H	-4.355852	0.248382	-0.863266
H65	H	-3.979148	0.272124	-0.753924
H66	H	-3.836653	0.136854	-0.713373
C67	C	-3.669474	0.044386	-0.666722
C68	C	-3.599366	0.059201	-0.568140
C69	C	-3.434456	0.141744	-0.519583
C70	C	-3.339654	0.209472	-0.569608
C71	C	-3.409761	0.194660	-0.668196
C72	C	-3.574672	0.112117	-0.716753
H73	H	-3.669545	0.009062	-0.531104
H74	H	-3.382558	0.152708	-0.446602
H75	H	-3.217577	0.270575	-0.533663
H76	H	-3.339582	0.244798	-0.705232
H77	H	-3.626569	0.101152	-0.789734
H78	H	-3.603727	-0.549395	-0.248828
H79	H	-4.306067	-0.118785	-0.712327
H80	H	-3.650379	-0.101895	-0.801094
H81	H	-4.352879	-0.671603	-0.264652
H82	H	-3.846732	-0.236011	-0.720260
