data_functionalizedCrystal
_audit_creation_method	'MofGen! by Chris Wilmer'
_symmetry_space_group_name_H-M	'P1'
_symmetry_Int_Tables_number	1
_symmetry_cell_setting	triclinic
loop_
_symmetry_equiv_pos_as_xyz
  x,y,z
_cell_length_a	6.817900
_cell_length_b	11.168144
_cell_length_c	11.168138
_cell_angle_alpha	92.019895
_cell_angle_beta	108.508793
_cell_angle_gamma	108.508840
loop_
_atom_site_label
_atom_site_type_symbol
_atom_site_fract_x
_atom_site_fract_y
_atom_site_fract_z
V1	V	-4.109885	-0.393710	-0.174723
O2	O	-4.069468	-0.386204	0.008378
O3	O	-4.086174	-0.391027	-0.346428
O4	O	-4.086176	-0.565415	-0.172043
O5	O	-4.069466	-0.210609	-0.167214
V6	V	-4.587114	-0.371808	-0.152821
O7	O	-4.384949	-0.441752	-0.222766
O8	O	-4.762247	-0.323765	-0.104777
O9	O	-4.387618	-0.374490	0.018885
O10	O	-4.744928	-0.379314	-0.335921
O11	O	-4.744930	-0.554909	-0.160329
O12	O	-4.387616	-0.200102	-0.155500
C13	C	-3.936382	-0.384819	-0.388286
C14	C	-3.998447	-0.383771	-0.528657
C15	C	-3.851278	-0.377314	-0.585128
C16	C	-3.915421	-0.376230	-0.730209
C17	C	-3.936383	-0.607267	-0.165839
C18	C	-3.998445	-0.747637	-0.164784
C19	C	-4.082930	-0.827364	-0.274207
C20	C	-4.147076	-0.972444	-0.273120
C21	C	-4.200753	-0.380695	0.060736
C22	C	-4.117927	-0.381752	0.201106
C23	C	-4.200751	-0.158244	-0.161708
C24	C	-4.117926	-0.017873	-0.162757
H25	H	-3.789535	-0.370708	-0.778797
H26	H	-3.973615	-0.786787	-0.070299
H27	H	-4.045475	-0.949382	-0.069072
H28	H	-4.243832	-0.387287	-0.750316
N29	N	-4.243023	-1.063157	-0.397222
H30	H	-4.144736	-1.114306	-0.397614
H31	H	-4.394976	-1.122970	-0.406112
N32	N	-4.228208	-0.389999	-0.606927
H33	H	-4.339297	-0.471557	-0.599162
H34	H	-4.257705	-0.314219	-0.574560
N35	N	-3.621469	-0.371048	-0.506911
H36	H	-3.608222	-0.372710	-0.414356
H37	H	-3.591904	-0.446766	-0.539356
N38	N	-4.115868	-0.775524	-0.399374
H39	H	-4.065382	-0.679232	-0.382409
H40	H	-4.027038	-0.802021	-0.445447
