data_functionalizedCrystal
_audit_creation_method	'MofGen! by Chris Wilmer'
_symmetry_space_group_name_H-M	'P1'
_symmetry_Int_Tables_number	1
_symmetry_cell_setting	triclinic
loop_
_symmetry_equiv_pos_as_xyz
  x,y,z
_cell_length_a	14.971486
_cell_length_b	23.532357
_cell_length_c	13.448316
_cell_angle_alpha	89.987857
_cell_angle_beta	89.998199
_cell_angle_gamma	83.221211
loop_
_atom_site_label
_atom_site_type_symbol
_atom_site_fract_x
_atom_site_fract_y
_atom_site_fract_z
O1	O	1.186142	0.074218	-0.082590
O2	O	0.925646	0.083106	-0.082619
O3	O	1.063773	-0.004238	-0.082583
O4	O	1.048016	0.161562	-0.082626
O5	O	1.063755	-0.004243	0.082801
O6	O	0.925629	0.083101	0.082765
O7	O	1.186125	0.074213	0.082794
Cu8	Cu	1.055875	0.078656	0.097880
Cu9	Cu	1.055896	0.078663	-0.097705
O10	O	1.047998	0.161557	0.082758
C11	C	0.892317	0.082706	0.000070
C12	C	0.793033	0.081515	0.000060
C13	C	1.063370	-0.025459	0.000112
C14	C	1.062185	-0.088682	0.000121
C15	C	0.735251	0.132827	0.000048
C16	C	0.641964	0.131704	0.000063
C17	C	0.606460	0.079269	0.000083
C18	C	0.664249	0.027953	0.000098
C19	C	0.757535	0.029076	0.000090
C20	C	0.469812	0.025615	0.000112
C21	C	0.376520	0.024492	0.000118
C22	C	0.354241	0.128244	0.000086
C23	C	0.447526	0.129367	0.000078
C24	C	0.505309	0.078050	0.000090
C25	C	1.054755	-0.480723	-0.090084
C26	C	1.053629	-0.540127	-0.090090
O27	O	1.053024	-0.570843	-0.166760
N28	N	1.053061	-0.569844	0.000060
C29	C	1.053610	-0.540152	0.090221
O30	O	1.053023	-0.570883	0.166899
C31	C	1.054730	-0.480748	0.090225
C32	C	1.055307	-0.451036	0.000070
C33	C	1.055331	-0.451010	-0.180232
C34	C	1.056459	-0.391610	-0.180226
C35	C	1.057011	-0.361923	-0.090072
C36	C	1.056435	-0.391635	0.000076
C37	C	1.055273	-0.451057	0.180385
C38	C	1.056393	-0.391649	0.180382
C39	C	1.056970	-0.361937	0.090227
C40	C	1.058115	-0.302548	0.090237
N41	N	1.058683	-0.272832	0.000087
C42	C	1.058131	-0.302519	-0.090067
C43	C	1.051256	-0.664904	0.090204
C44	C	1.050143	-0.724307	0.090200
C45	C	1.050160	-0.724278	-0.090111
C46	C	1.051280	-0.664874	-0.090106
C47	C	1.051824	-0.635187	0.000054
C48	C	1.060501	-0.177775	-0.090047
C49	C	1.061633	-0.118370	-0.090033
C50	C	1.061611	-0.118404	0.090277
C51	C	1.060484	-0.177804	0.090264
C52	C	1.059926	-0.207488	0.000093
O53	O	1.058717	-0.271794	0.166867
O54	O	1.058707	-0.271780	-0.166733
C55	C	1.219454	0.074613	0.000103
C56	C	1.318738	0.075804	0.000106
C57	C	1.048401	0.182778	0.000061
C58	C	1.049586	0.246001	0.000045
N59	N	1.055868	0.078651	0.235445
N60	N	1.055911	0.078663	-0.235269
C61	C	1.117049	0.039991	0.287501
C62	C	1.117054	0.039991	0.391604
C63	C	1.055882	0.078654	0.443649
C64	C	0.994695	0.117315	0.391586
C65	C	0.994685	0.117313	0.287484
C66	C	0.994719	0.117319	0.608566
C67	C	0.994729	0.117323	0.712674
C68	C	1.117088	0.039998	0.712685
C69	C	1.117079	0.039995	0.608584
C70	C	1.055892	0.078657	0.556528
H71	H	0.764150	0.175526	0.000031
N72	N	0.932240	0.156804	0.765855
N73	N	0.932261	0.156798	0.858801
H74	H	0.888126	0.184682	0.896362
H75	H	0.944891	0.148801	0.566185
N76	N	0.295235	0.180668	0.000089
N77	N	0.326946	0.227482	0.000068
H78	H	0.285271	0.264506	0.000068
H79	H	0.944883	0.148793	0.433967
N80	N	0.528824	-0.026808	0.000138
N81	N	0.497116	-0.073622	0.000157
H82	H	0.538793	-0.110645	0.000174
H83	H	1.056926	-0.367423	-0.253640
N84	N	1.179523	0.000497	0.444804
N85	N	1.234870	0.018607	0.502911
H86	H	1.278976	-0.009292	0.540493
H87	H	0.594921	0.173488	0.000053
H88	H	1.166866	0.008510	0.245132
H89	H	1.054805	-0.475239	0.253800
H90	H	0.944864	0.148793	0.245101
H91	H	1.056823	-0.367480	0.253804
H92	H	0.635335	-0.014741	0.000128
N93	N	0.483780	0.182932	0.000043
N94	N	0.432181	0.228745	0.000029
H95	H	0.457784	0.266577	0.000004
N96	N	1.062163	-0.088061	0.182353
N97	N	0.999727	-0.049704	0.202441
H98	H	1.000110	-0.028271	0.267470
N99	N	1.179574	0.000484	0.765835
N100	N	1.178821	-0.052156	0.754203
H101	H	1.222951	-0.080064	0.791736
H102	H	0.804581	-0.012708	0.000099
N103	N	0.340267	-0.029073	0.000141
N104	N	0.391865	-0.074887	0.000162
H105	H	0.366262	-0.112718	0.000179
N106	N	1.062229	-0.088029	-0.182138
N107	N	1.061736	-0.114547	-0.262624
H108	H	1.062157	-0.093122	-0.327672
H109	H	1.166894	0.008516	0.566209
N110	N	1.054783	-0.481318	-0.272342
N111	N	1.117980	-0.479870	-0.332685
H112	H	1.117601	-0.501271	-0.397746
N113	N	1.059927	-0.208081	-0.182161
N114	N	1.060442	-0.181535	-0.262637
H115	H	1.060041	-0.202939	-0.327693
H116	H	1.051748	-0.640686	-0.163519
N117	N	1.049609	-0.754618	-0.182195
N118	N	1.048613	-0.807657	-0.182176
H119	H	1.048229	-0.829088	-0.247206
N120	N	1.049552	-0.754662	0.182283
N121	N	1.048542	-0.807700	0.182279
H122	H	1.048119	-0.829138	0.247315
H123	H	1.051703	-0.640736	0.163628
N124	N	1.059903	-0.208150	0.182361
N125	N	1.060396	-0.181633	0.262849
H126	H	1.059976	-0.203060	0.327896
