data_functionalizedCrystal
_audit_creation_method	'MofGen! by Chris Wilmer'
_symmetry_space_group_name_H-M	'P1'
_symmetry_Int_Tables_number	1
_symmetry_cell_setting	triclinic
loop_
_symmetry_equiv_pos_as_xyz
  x,y,z
_cell_length_a	16.120530
_cell_length_b	21.395361
_cell_length_c	21.395355
_cell_angle_alpha	89.978489
_cell_angle_beta	87.079043
_cell_angle_gamma	87.125977
loop_
_atom_site_label
_atom_site_type_symbol
_atom_site_fract_x
_atom_site_fract_y
_atom_site_fract_z
Zn1	Zn	1.274542	-0.298157	-0.402756
Zn2	Zn	1.774542	0.201843	0.097244
Zn3	Zn	1.274412	-0.402911	-0.297968
Zn4	Zn	1.774412	0.097089	0.202032
Zn5	Zn	1.135113	-0.292835	-0.292686
Zn6	Zn	1.635113	0.207165	0.207314
Zn7	Zn	1.135072	-0.397577	-0.397405
Zn8	Zn	1.635072	0.102423	0.102595
O9	O	1.204785	-0.347870	-0.347704
O10	O	1.704785	0.152130	0.152296
O11	O	1.391190	-0.316512	-0.393305
O12	O	1.891190	0.183488	0.106695
O13	O	1.255897	-0.388315	-0.209588
O14	O	1.755897	0.111685	0.290412
O15	O	1.153680	-0.205866	-0.307316
O16	O	1.653680	0.294134	0.192684
O17	O	1.391095	-0.393475	-0.316318
O18	O	1.891095	0.106525	0.183682
O19	O	1.256118	-0.209776	-0.388183
O20	O	1.756118	0.290224	0.111817
O21	O	1.153554	-0.307442	-0.205707
O22	O	1.653554	0.192558	0.294293
O23	O	1.018442	-0.302270	-0.302127
O24	O	1.518442	0.197730	0.197873
O25	O	1.153610	-0.384383	-0.485794
O26	O	1.653610	0.115617	0.014206
O27	O	1.018412	-0.379223	-0.379064
O28	O	1.518412	0.120777	0.120936
O29	O	1.256078	-0.311340	-0.489725
O30	O	1.756078	0.188660	0.010275
O31	O	1.255857	-0.489879	-0.311129
O32	O	1.755857	0.010121	0.188871
O33	O	1.153484	-0.485960	-0.384185
O34	O	1.653484	0.014040	0.115815
C35	C	1.204675	-0.510654	-0.347664
C36	C	1.704675	-0.010654	0.152336
C37	C	1.204704	-0.580296	-0.347672
C38	C	1.704704	-0.080296	0.152328
C39	C	0.988177	-0.339591	-0.339442
C40	C	1.488177	0.160409	0.160558
C41	C	0.895511	-0.336064	-0.335923
C42	C	1.395511	0.163936	0.164077
C43	C	1.258056	-0.615031	-0.309674
C44	C	1.758056	-0.115031	0.190326
C45	C	1.258095	-0.680468	-0.309690
C46	C	1.758095	-0.180468	0.190310
C47	C	1.204767	-0.711167	-0.347695
C48	C	1.704767	-0.211167	0.152305
C49	C	1.151410	-0.676424	-0.385701
C50	C	1.651410	-0.176424	0.114299
C51	C	1.151379	-0.610988	-0.385689
C52	C	1.651379	-0.110988	0.114311
C53	C	1.129700	-0.812017	-0.349748
C54	C	1.629700	-0.312017	0.150252
C55	C	1.129730	-0.877451	-0.349756
C56	C	1.629730	-0.377451	0.150244
C57	C	1.204864	-0.912991	-0.347736
C58	C	1.704864	-0.412991	0.152264
C59	C	1.279969	-0.883089	-0.345695
C60	C	1.779969	-0.383089	0.154305
C61	C	1.279938	-0.817654	-0.345683
C62	C	1.779938	-0.317654	0.154317
C63	C	1.204795	-0.782120	-0.347713
C64	C	1.704795	-0.282120	0.152287
C65	C	1.258263	-1.018680	-0.309753
C66	C	1.758263	-0.518680	0.190247
C67	C	1.258303	-1.084118	-0.309773
C68	C	1.758303	-0.584118	0.190227
C69	C	1.151611	-1.080073	-0.385781
C70	C	1.651611	-0.580073	0.114219
C71	C	1.151578	-1.014636	-0.385764
C72	C	1.651578	-0.514636	0.114236
C73	C	1.204903	-0.983944	-0.347747
C74	C	1.704903	-0.483944	0.152253
C75	C	0.725850	-0.329610	-0.329503
C76	C	1.225850	0.170390	0.170497
C77	C	0.684560	-0.366176	-0.365950
C78	C	1.184560	0.133824	0.134050
C79	C	0.590155	-0.362585	-0.362378
C80	C	1.090155	0.137415	0.137622
C81	C	0.820264	-0.333200	-0.333074
C82	C	1.320264	0.166800	0.166926
C83	C	1.422238	-0.356182	-0.355998
C84	C	1.922238	0.143818	0.144002
C85	C	1.514904	-0.359724	-0.359532
C86	C	2.014904	0.140276	0.140468
C87	C	1.204854	-0.347860	-0.511129
C88	C	1.704854	0.152140	-0.011129
C89	C	1.204884	-0.347856	-0.580772
C90	C	1.704884	0.152144	-0.080772
C91	C	1.204918	-0.184452	-0.347757
C92	C	1.704918	0.315548	0.152243
C93	C	1.204975	-0.114813	-0.347780
C94	C	1.704975	0.385187	0.152220
C95	C	1.258236	-0.309820	-0.615533
C96	C	1.758236	0.190180	-0.115533
C97	C	1.258235	-0.309793	-0.680968
C98	C	1.758235	0.190207	-0.180968
C99	C	1.204890	-0.347813	-0.711641
C100	C	1.704890	0.152187	-0.211641
C101	C	1.151527	-0.385851	-0.676871
C102	C	1.651527	0.114149	-0.176871
C103	C	1.151524	-0.385873	-0.611437
C104	C	1.651524	0.114127	-0.111437
C105	C	1.198269	-0.403976	-0.815051
C106	C	1.698269	0.096024	-0.315051
C107	C	1.198278	-0.403956	-0.880484
C108	C	1.698278	0.096044	-0.380484
C109	C	1.204895	-0.347747	-0.913462
C110	C	1.704895	0.152253	-0.413462
C111	C	1.211521	-0.291558	-0.880998
C112	C	1.711521	0.208442	-0.380998
C113	C	1.211517	-0.291579	-0.815564
C114	C	1.711517	0.208421	-0.315564
C115	C	1.204887	-0.347794	-0.782593
C116	C	1.704887	0.152206	-0.282593
C117	C	1.258249	-0.309679	-1.019175
C118	C	1.758249	0.190321	-0.519175
C119	C	1.258242	-0.309651	-1.084612
C120	C	1.758242	0.190349	-0.584612
C121	C	1.151539	-0.385715	-1.080513
C122	C	1.651539	0.114285	-0.580513
C123	C	1.151541	-0.385737	-1.015078
C124	C	1.651541	0.114263	-0.515078
C125	C	1.204901	-0.347721	-0.984413
C126	C	1.704901	0.152279	-0.484413
C127	C	1.204764	-0.347837	-0.184915
C128	C	1.704764	0.152163	0.315085
C129	C	1.204896	-0.347671	-0.115279
C130	C	1.704896	0.152329	0.384721
H131	H	1.301479	-0.590043	-0.278720
H132	H	1.801479	-0.090043	0.221280
Cl133	Cl	1.325387	-1.127786	-0.262005
Cl134	Cl	1.825387	-0.627786	0.237995
H135	H	1.301685	-0.278863	-0.590570
H136	H	1.801685	0.221137	-0.090570
H137	H	0.720111	-0.400177	-0.399837
H138	H	1.220111	0.099823	0.100163
H139	H	1.341150	-0.912025	-0.344051
H140	H	1.841150	-0.412025	0.155949
H141	H	1.301679	-0.278816	-0.709276
H142	H	1.801679	0.221184	-0.209276
Cl143	Cl	1.325298	-0.980092	-0.261961
Cl144	Cl	1.825298	-0.480092	0.238039
Cl145	Cl	0.670965	-0.277119	-0.277186
Cl146	Cl	1.170965	0.222881	0.222814
H147	H	1.216910	-0.245827	-0.789134
H148	H	1.716910	0.254173	-0.289134
Cl149	Cl	1.219843	-0.220890	-0.922447
Cl150	Cl	1.719843	0.279110	-0.422447
Cl151	Cl	1.189975	-0.474648	-0.773602
Cl152	Cl	1.689975	0.025352	-0.273602
H153	H	1.301693	-0.278720	-0.994206
H154	H	1.801693	0.221280	-0.494206
Cl155	Cl	1.084469	-0.433559	-0.971376
Cl156	Cl	1.584469	0.066441	-0.471376
H157	H	1.301687	-0.278674	-1.112913
H158	H	1.801687	0.221326	-0.612913
H159	H	1.108096	-0.416665	-1.105486
H160	H	1.608096	0.083335	-0.605486
H161	H	1.192888	-0.449709	-0.906911
H162	H	1.692888	0.050291	-0.406911
H163	H	1.108091	-0.416806	-0.701849
H164	H	1.608091	0.083194	-0.201849
H165	H	1.108074	-0.416845	-0.583134
H166	H	1.608074	0.083155	-0.083134
H167	H	1.107932	-0.582706	-0.416631
H168	H	1.607932	-0.082706	0.083369
Cl169	Cl	1.325171	-0.724143	-0.261917
Cl170	Cl	1.825171	-0.224143	0.238083
H171	H	1.108193	-1.105067	-0.416729
H172	H	1.608193	-0.605067	0.083271
Cl173	Cl	1.084498	-0.970967	-0.433532
Cl174	Cl	1.584498	-0.470967	0.066468
Cl175	Cl	1.035313	-0.915035	-0.352320
Cl176	Cl	1.535313	-0.415035	0.147680
Cl177	Cl	1.374352	-0.780065	-0.343124
Cl178	Cl	1.874352	-0.280065	0.156876
Cl179	Cl	1.035237	-0.767344	-0.352288
Cl180	Cl	1.535237	-0.267344	0.147712
Cl181	Cl	1.084372	-0.715016	-0.433482
Cl182	Cl	1.584372	-0.215016	0.066518
