data_functionalizedCrystal
_audit_creation_method	'MofGen! by Chris Wilmer'
_symmetry_space_group_name_H-M	'P1'
_symmetry_Int_Tables_number	1
_symmetry_cell_setting	triclinic
loop_
_symmetry_equiv_pos_as_xyz
  x,y,z
_cell_length_a	19.288862
_cell_length_b	15.995350
_cell_length_c	18.366186
_cell_angle_alpha	89.995992
_cell_angle_beta	90.025700
_cell_angle_gamma	96.686171
loop_
_atom_site_label
_atom_site_type_symbol
_atom_site_fract_x
_atom_site_fract_y
_atom_site_fract_z
O1	O	-0.921625	0.104442	-0.060827
O2	O	-0.421625	0.604442	0.439173
O3	O	-0.719401	0.118534	-0.060766
O4	O	-0.219401	0.618534	0.439234
O5	O	-0.826041	-0.010420	-0.060798
O6	O	-0.326041	0.489580	0.439202
O7	O	-0.814985	0.233397	-0.060796
O8	O	-0.314985	0.733397	0.439204
O9	O	-0.826023	-0.010427	0.060302
O10	O	-0.326023	0.489573	0.560302
O11	O	-0.719382	0.118528	0.060333
O12	O	-0.219382	0.618528	0.560333
O13	O	-0.921607	0.104436	0.060272
O14	O	-0.421607	0.604436	0.560272
Zn15	Zn	-0.820492	0.111481	0.079530
Zn16	Zn	-0.320492	0.611481	0.579530
Zn17	Zn	-0.820516	0.111489	-0.080024
Zn18	Zn	-0.320516	0.611489	0.419976
O19	O	-0.814967	0.233390	0.060304
O20	O	-0.314967	0.733390	0.560304
C21	C	-0.693514	0.118078	-0.000209
C22	C	-0.193514	0.618078	0.499791
C23	C	-0.616407	0.116718	-0.000186
C24	C	-0.116407	0.616718	0.499814
C25	C	-0.571907	0.192383	-0.000195
C26	C	-0.071907	0.692383	0.499805
C27	C	-0.499456	0.191105	-0.000199
C28	C	0.000544	0.691105	0.499801
C29	C	-0.471509	0.114158	-0.000209
C30	C	0.028491	0.614158	0.499791
C31	C	-0.516019	0.038483	-0.000196
C32	C	-0.016019	0.538483	0.499804
C33	C	-0.588468	0.039763	-0.000185
C34	C	-0.088468	0.539763	0.499815
C35	C	-0.363096	0.053672	-0.042655
C36	C	0.136904	0.553672	0.457345
C37	C	-0.290648	0.052395	-0.042671
C38	C	0.209352	0.552395	0.457329
C39	C	-0.248053	0.110207	-0.000242
C40	C	0.251947	0.610207	0.499758
C41	C	-0.277913	0.169309	0.042194
C42	C	0.222087	0.669309	0.542194
C43	C	-0.350362	0.170589	0.042206
C44	C	0.149638	0.670589	0.542206
C45	C	-0.392951	0.112761	-0.000221
C46	C	0.107049	0.612761	0.499779
C47	C	-0.124993	0.184491	-0.000254
C48	C	0.375007	0.684491	0.499746
C49	C	-0.052542	0.183210	-0.000254
C50	C	0.447458	0.683210	0.499746
C51	C	-0.069106	0.030586	-0.000259
C52	C	0.430894	0.530586	0.499741
C53	C	-0.141556	0.031870	-0.000252
C54	C	0.358444	0.531870	0.499748
C55	C	-0.169495	0.108824	-0.000253
C56	C	0.330505	0.608824	0.499747
C57	C	-0.825575	-0.041616	-0.000249
C58	C	-0.325575	0.458384	0.499751
C59	C	-0.824204	-0.134562	-0.000253
C60	C	-0.324204	0.365438	0.499747
C61	C	-0.819283	-0.472291	-0.000249
C62	C	-0.319283	0.027709	0.499751
C63	C	-0.743336	-0.424569	-0.000498
C64	C	-0.243336	0.075431	0.499502
C65	C	-0.744707	-0.327884	-0.000225
C66	C	-0.244707	0.172116	0.499775
C67	C	-0.821724	-0.304739	-0.000251
C68	C	-0.321724	0.195261	0.499749
C69	C	-0.859174	-0.345962	0.068890
C70	C	-0.359174	0.154038	0.568890
C71	C	-0.857266	-0.442591	0.068948
C72	C	-0.357266	0.057409	0.568948
C73	C	-0.858855	-0.442947	-0.068765
C74	C	-0.358855	0.057053	0.431235
C75	C	-0.858837	-0.346002	-0.069679
C76	C	-0.358837	0.153998	0.430321
C77	C	-0.823108	-0.210047	-0.000250
C78	C	-0.323108	0.289953	0.499750
C79	C	-0.817902	-0.566983	-0.000245
C80	C	-0.317902	-0.066983	0.499755
C81	C	0.052507	0.104895	-0.000274
C82	C	0.552507	0.604895	0.499726
C83	C	-0.024600	0.106262	-0.000263
C84	C	0.475400	0.606262	0.499737
C85	C	-0.815433	0.264587	-0.000246
C86	C	-0.315433	0.764587	0.499754
C87	C	-0.816803	0.357532	-0.000248
C88	C	-0.316803	0.857532	0.499752
N89	N	-0.820481	0.111475	0.188421
N90	N	-0.320481	0.611475	0.688421
N91	N	-0.820532	0.111489	-0.188915
N92	N	-0.320532	0.611489	0.311085
C93	C	-0.867716	0.054402	0.226507
C94	C	-0.367716	0.554402	0.726507
C95	C	-0.867721	0.054398	0.302735
C96	C	-0.367721	0.554398	0.802735
C97	C	-0.820496	0.111482	0.340874
C98	C	-0.320496	0.611482	0.840874
C99	C	-0.773251	0.168559	0.302778
C100	C	-0.273251	0.668559	0.802778
C101	C	-0.773244	0.168556	0.226552
C102	C	-0.273244	0.668556	0.726552
C103	C	-0.811396	0.187773	0.461636
C104	C	-0.311396	0.687773	0.961636
C105	C	-0.811408	0.187777	0.537861
C106	C	-0.311408	0.687777	1.037861
C107	C	-0.820516	0.111492	0.575981
C108	C	-0.320516	0.611492	1.075981
C109	C	-0.829625	0.035199	0.537867
C110	C	-0.329625	0.535199	1.037867
C111	C	-0.829618	0.035196	0.461640
C112	C	-0.329618	0.535196	0.961640
C113	C	-0.820499	0.111491	0.423528
C114	C	-0.320499	0.611491	0.923528
C115	C	-0.867759	0.054410	0.696723
C116	C	-0.367759	0.554410	1.196723
C117	C	-0.867758	0.054405	0.772952
C118	C	-0.367758	0.554405	1.272952
C119	C	-0.773292	0.168574	0.772993
C120	C	-0.273292	0.668574	1.272993
C121	C	-0.773290	0.168572	0.696765
C122	C	-0.273290	0.668572	1.196765
C123	C	-0.820526	0.111491	0.658635
C124	C	-0.320526	0.611491	1.158635
H125	H	-0.016310	0.244828	-0.000257
H126	H	0.483690	0.744828	0.499743
O127	O	-0.189556	-0.049743	-0.000245
O128	O	0.310444	0.450257	0.499755
H129	H	-0.222993	-0.052808	-0.049594
H130	H	0.277007	0.447192	0.450406
O131	O	-0.934122	-0.327531	0.072286
O132	O	-0.434122	0.172469	0.572286
H133	H	-0.945501	-0.288698	0.024617
H134	H	-0.445501	0.211302	0.524617
O135	O	-0.918689	-0.007184	0.655603
O136	O	-0.418689	0.492816	1.155603
H137	H	-0.889435	-0.047781	0.620901
H138	H	-0.389435	0.452219	1.120901
O139	O	-0.382560	0.234310	0.088003
O140	O	0.117440	0.734310	0.588003
H141	H	-0.361644	0.298779	0.070562
H142	H	0.138356	0.798779	0.570562
H143	H	-0.715268	-0.299348	-0.049788
H144	H	-0.215268	0.200652	0.450212
H145	H	-0.833148	-0.317485	0.120360
H146	H	-0.333148	0.182515	0.620360
O147	O	-0.825976	-0.470015	-0.138187
O148	O	-0.325976	0.029985	0.361813
H149	H	-0.781058	-0.504688	-0.124628
H150	H	-0.281058	-0.004688	0.375372
O151	O	-0.703125	-0.448955	-0.066169
O152	O	-0.203125	0.051045	0.433831
H153	H	-0.656210	-0.477305	-0.047933
H154	H	-0.156210	0.022695	0.452067
O155	O	-0.409037	-0.008681	-0.088425
O156	O	0.090963	0.491319	0.411575
H157	H	-0.376103	-0.049981	-0.117944
H158	H	0.123897	0.450019	0.382056
O159	O	-0.485876	-0.044508	-0.000203
O160	O	0.014124	0.455492	0.499797
H161	H	-0.528995	-0.096910	-0.000188
H162	H	-0.028995	0.403090	0.499812
H163	H	-0.266342	0.004274	-0.077228
H164	H	0.233658	0.504274	0.422772
O165	O	-0.703296	-0.450361	0.064842
O166	O	-0.203296	0.049639	0.564842
H167	H	-0.700341	-0.519211	0.062907
H168	H	-0.200341	-0.019211	0.562907
H169	H	-0.147742	0.247152	-0.000245
H170	H	0.352258	0.747152	0.499755
O171	O	-0.918715	-0.007146	0.814037
O172	O	-0.418715	0.492854	1.314037
H173	H	-0.951565	-0.046827	0.774713
H174	H	-0.451565	0.453173	1.274713
O175	O	-0.918679	-0.007154	0.343825
O176	O	-0.418679	0.492846	0.843825
H177	H	-0.909846	-0.072406	0.329208
H178	H	-0.409846	0.427594	0.829208
O179	O	-0.722300	0.230122	0.185465
O180	O	-0.222300	0.730122	0.685465
H181	H	-0.689463	0.269820	0.224788
H182	H	-0.189463	0.769820	0.724788
H183	H	-0.831457	-0.318647	-0.120828
H184	H	-0.331457	0.181353	0.379172
H185	H	-0.715055	-0.299910	0.049439
H186	H	-0.215055	0.200090	0.549439
O187	O	-0.801563	0.270065	0.420536
O188	O	-0.301563	0.770065	0.920536
H189	H	-0.754290	0.272134	0.385845
H190	H	-0.254290	0.772134	0.885845
H191	H	-0.829942	-0.460791	0.120651
H192	H	-0.329942	0.039209	0.620651
H193	H	-0.624700	-0.021854	-0.000178
H194	H	-0.124700	0.478146	0.499822
H195	H	-0.734838	0.215049	0.804045
H196	H	-0.234838	0.715049	1.304045
H197	H	-0.046352	-0.032065	-0.000312
H198	H	0.453648	0.467935	0.499688
O199	O	-0.231984	0.231666	0.087967
O200	O	0.268016	0.731666	0.587967
H201	H	-0.176590	0.220842	0.080840
H202	H	0.323410	0.720842	0.580840
H203	H	-0.913025	-0.475050	0.072067
H204	H	-0.413025	0.024950	0.572067
H205	H	-0.915002	-0.330852	-0.073873
H206	H	-0.415002	0.169148	0.426127
H207	H	-0.734799	0.215036	0.333834
H208	H	-0.234799	0.715036	0.833834
O209	O	-0.722350	0.230139	0.655678
O210	O	-0.222350	0.730139	1.155678
H211	H	-0.689516	0.269839	0.695002
H212	H	-0.189516	0.769839	1.195002
H213	H	-0.914851	-0.474920	-0.069249
H214	H	-0.414851	0.025080	0.430751
H215	H	-0.837041	-0.026920	0.568902
H216	H	-0.337041	0.473080	1.068902
H217	H	-0.906178	0.007921	0.195464
H218	H	-0.406178	0.507921	0.695464
H219	H	-0.594650	0.255045	-0.000197
H220	H	-0.094650	0.755045	0.499803
H221	H	-0.837033	-0.026925	0.430611
H222	H	-0.337033	0.473075	0.930611
H223	H	-0.803995	0.249899	0.568888
H224	H	-0.303995	0.749899	1.068888
H225	H	-0.463218	0.252722	-0.000204
H226	H	0.036782	0.752722	0.499796
