data_functionalizedCrystal
_audit_creation_method	'MofGen! by Chris Wilmer'
_symmetry_space_group_name_H-M	'P1'
_symmetry_Int_Tables_number	1
_symmetry_cell_setting	triclinic
loop_
_symmetry_equiv_pos_as_xyz
  x,y,z
_cell_length_a	19.288864
_cell_length_b	26.809956
_cell_length_c	19.288862
_cell_angle_alpha	89.996837
_cell_angle_beta	96.864237
_cell_angle_gamma	90.022644
loop_
_atom_site_label
_atom_site_type_symbol
_atom_site_fract_x
_atom_site_fract_y
_atom_site_fract_z
O1	O	0.921353	0.041648	-0.086638
O2	O	0.719092	0.041615	-0.098327
O3	O	0.826068	0.041619	0.008648
O4	O	0.814377	0.041643	-0.193613
O5	O	0.826048	-0.041340	0.008632
O6	O	0.719072	-0.041345	-0.098343
O7	O	0.921333	-0.041312	-0.086654
Zn8	Zn	0.820199	-0.054500	-0.092501
Zn9	Zn	0.820226	0.054803	-0.092480
O10	O	0.814357	-0.041316	-0.193629
C11	C	0.693206	0.000131	-0.097959
C12	C	0.616102	0.000117	-0.096830
N13	N	0.820186	-0.129096	-0.092515
C14	C	0.571405	0.000133	-0.159598
C15	C	0.498958	0.000138	-0.158537
C16	C	0.471211	0.000138	-0.094705
C17	C	0.515918	0.000120	-0.031929
C18	C	0.588363	0.000110	-0.032991
C19	C	0.362957	0.029213	-0.044520
C20	C	0.290512	0.029227	-0.043460
C21	C	0.247766	0.000168	-0.091425
C22	C	0.277471	-0.028898	-0.140462
C23	C	0.349916	-0.028908	-0.141524
C24	C	0.392657	0.000149	-0.093546
C25	C	0.124513	0.000188	-0.153047
C26	C	0.052065	0.000191	-0.151984
C27	C	0.069026	0.000178	-0.025374
C28	C	0.141473	0.000171	-0.026439
C29	C	0.169211	0.000178	-0.090278
C30	C	0.867589	-0.473720	-0.045123
C31	C	0.867605	-0.682597	-0.045112
O32	O	0.907880	-0.709599	-0.004822
N33	N	0.820230	-0.708723	-0.092464
C34	C	0.772844	-0.682626	-0.139819
O35	O	0.732544	-0.709640	-0.180090
C36	C	0.772825	-0.473749	-0.139826
C37	C	0.820208	-0.447626	-0.092476
C38	C	0.914967	-0.447597	0.002224
C39	C	0.914965	-0.395380	0.002219
C40	C	0.867584	-0.369287	-0.045134
C41	C	0.820206	-0.395410	-0.092481
C42	C	0.725436	-0.447653	-0.187177
C43	C	0.725434	-0.395430	-0.187174
C44	C	0.772817	-0.369307	-0.139823
C45	C	0.772823	-0.317100	-0.139840
N46	N	0.820198	-0.290975	-0.092488
C47	C	0.867579	-0.317068	-0.045135
C48	C	0.772858	-0.792289	-0.139813
C49	C	0.772864	-0.844508	-0.139813
C50	C	0.867624	-0.844476	-0.045105
C51	C	0.867622	-0.792256	-0.045109
C52	C	0.820234	-0.766163	-0.092461
C53	C	0.867571	-0.207410	-0.045151
C54	C	0.867567	-0.155189	-0.045163
C55	C	0.772804	-0.155226	-0.139868
C56	C	0.772811	-0.207442	-0.139859
C57	C	0.820197	-0.233533	-0.092495
O58	O	0.732564	-0.290066	-0.180104
O59	O	0.907863	-0.290045	-0.004860
C60	C	0.867591	-0.525936	-0.045117
C61	C	0.820212	-0.552059	-0.092464
C62	C	0.772831	-0.525965	-0.139817
C63	C	0.820217	-0.604278	-0.092464
C64	C	0.867598	-0.630371	-0.045111
C65	C	0.914974	-0.604246	0.002241
C66	C	0.914972	-0.552029	0.002235
C67	C	0.725456	-0.552091	-0.187169
C68	C	0.725462	-0.604307	-0.187160
C69	C	0.772843	-0.630400	-0.139807
C70	C	0.947219	0.000174	-0.087022
C71	C	1.024323	0.000190	-0.088151
C72	C	0.825682	0.000137	0.034516
C73	C	0.824554	0.000131	0.111620
N74	N	0.820245	0.129399	-0.092460
C75	C	0.887322	0.000137	0.156316
C76	C	0.886262	0.000143	0.228764
C77	C	0.822430	0.000132	0.256511
C78	C	0.759653	0.000128	0.211805
C79	C	0.760715	0.000128	0.139359
C80	C	0.772244	-0.028938	0.364793
C81	C	0.771185	-0.028941	0.437238
C82	C	0.819152	0.000136	0.479957
C83	C	0.868190	0.029209	0.450225
C84	C	0.869252	0.029209	0.377779
C85	C	0.821271	0.000133	0.335065
C86	C	0.880775	0.000150	0.603209
C87	C	0.879713	0.000159	0.675658
C88	C	0.753102	0.000139	0.658697
C89	C	0.754167	0.000135	0.586251
C90	C	0.818005	0.000138	0.558511
C91	C	0.814745	0.000160	0.780503
C92	C	0.815880	0.000148	0.703400
H93	H	0.593985	0.000140	-0.211580
H94	H	0.953555	-0.530764	0.040793
H95	H	0.266332	0.052896	-0.003534
O96	O	0.686462	0.000118	0.538042
H97	H	0.683919	0.033932	0.504631
O98	O	0.947419	0.000167	0.723867
H99	H	0.935958	0.000174	0.778904
H100	H	0.015673	0.000200	-0.203099
H101	H	0.462559	0.000149	-0.209652
H102	H	0.397756	0.052880	-0.005459
O103	O	0.674323	-0.367282	-0.238243
H104	H	0.682999	-0.377296	-0.292371
O105	O	0.189685	0.000156	0.041263
H106	H	0.223131	0.033961	0.043814
O107	O	0.956176	0.000154	0.126402
H108	H	0.986325	-0.033650	0.144379
O109	O	0.636579	0.000093	0.034711
H110	H	0.626774	0.033905	0.065277
H111	H	0.374100	-0.052576	-0.181450
O112	O	0.919938	0.060575	0.496282
H113	H	0.891364	0.087872	0.525515
O114	O	0.966068	-0.367209	0.053295
H115	H	0.936935	-0.343427	0.086977
H116	H	0.932756	0.000155	0.580623
O117	O	0.918671	-0.127018	0.005921
H118	H	0.889535	-0.103236	0.039599
H119	H	0.953551	-0.468838	0.040788
O120	O	0.693009	0.000114	0.091150
H121	H	0.690467	0.033926	0.057736
H122	H	0.493322	0.000127	0.020044
H123	H	0.906205	-0.865730	-0.006549
H124	H	0.242668	-0.052561	-0.179519
H125	H	0.906205	-0.770990	-0.006552
O126	O	0.918688	-0.235548	0.005925
H127	H	0.951635	-0.208603	0.038837
H128	H	0.734268	-0.771048	-0.178375
O129	O	0.154440	0.000186	-0.221897
H130	H	0.111185	0.000188	-0.265367
H131	H	0.734287	-0.865773	-0.178377
O132	O	0.674354	-0.475821	-0.238273
H133	H	0.641416	-0.448895	-0.271199
H134	H	0.734234	-0.228711	-0.178423
H135	H	0.046436	0.000209	0.026600
H136	H	0.734229	-0.133972	-0.178424
O137	O	0.684255	0.000126	0.688619
H138	H	0.640785	0.000122	0.645363
O139	O	0.966077	-0.632393	0.053319
H140	H	0.958109	-0.673092	0.045365
H141	H	0.686878	-0.625573	-0.225725
H142	H	0.686871	-0.530849	-0.225729
H143	H	0.937377	0.000150	0.265162
H144	H	0.731252	-0.052611	0.461439
H145	H	0.909179	0.052882	0.353574
H146	H	0.733182	-0.052619	0.330016
H147	H	0.707681	0.000120	0.234402
