data_functionalizedCrystal
_audit_creation_method	'MofGen! by Chris Wilmer'
_symmetry_space_group_name_H-M	'P1'
_symmetry_Int_Tables_number	1
_symmetry_cell_setting	triclinic
loop_
_symmetry_equiv_pos_as_xyz
  x,y,z
_cell_length_a	14.560438
_cell_length_b	14.560438
_cell_length_c	14.560438
_cell_angle_alpha	60.000084
_cell_angle_beta	90.000907
_cell_angle_gamma	59.999939
loop_
_atom_site_label
_atom_site_type_symbol
_atom_site_fract_x
_atom_site_fract_y
_atom_site_fract_z
Zr1	Zr	0.884770	1.005260	-0.120478
O2	O	0.738122	1.196866	-0.267128
O3	O	0.929726	0.813658	-0.075525
O4	O	0.929726	1.005262	-0.267125
O5	O	0.738122	1.005260	0.075614
O6	O	1.080867	1.005259	-0.267120
O7	O	0.738122	1.005262	-0.075527
O8	O	1.080866	0.662515	0.075618
O9	O	0.738122	1.348004	-0.267125
O10	O	1.061694	0.892463	-0.056346
O11	O	0.948899	0.892463	0.056445
O12	O	0.948899	1.118052	-0.169140
O13	O	0.836105	1.118053	-0.056349
Zr14	Zr	1.125823	1.005252	0.120582
Zr15	Zr	1.125823	1.005256	-0.120470
Zr16	Zr	0.884771	1.005256	0.120574
Zr17	Zr	0.884771	1.246308	-0.120474
Zr18	Zr	1.125822	0.764204	0.120577
O19	O	1.080868	1.196854	0.075628
O20	O	1.080867	1.196860	-0.267117
O21	O	0.738122	1.196860	0.075617
O22	O	1.272471	0.813646	0.267232
O23	O	1.272471	0.813651	-0.075513
O24	O	0.929726	0.813652	0.267221
O25	O	1.272471	1.005252	-0.075510
O26	O	1.080867	1.005250	0.267229
O27	O	0.929726	1.005253	0.267224
O28	O	1.272472	1.005250	0.075631
O29	O	0.929727	1.348001	-0.267119
O30	O	1.080867	0.662511	0.267223
O31	O	1.272471	0.662508	0.267229
O32	O	1.272471	0.662511	0.075625
O33	O	0.738122	1.348001	-0.075521
O34	O	0.929727	1.347997	-0.075515
O35	O	1.061694	0.892459	0.169244
O36	O	1.174489	0.892459	0.056453
O37	O	1.061694	1.118048	-0.056342
O38	O	0.948899	1.118049	0.056449
C39	C	1.005296	0.703742	0.000046
C40	C	1.005296	0.601411	0.000044
C41	C	1.064171	0.553335	-0.058832
C42	C	1.064176	0.457176	-0.058821
C43	C	0.946420	0.457181	0.058943
C44	C	0.946423	0.553332	0.058938
C45	C	0.703777	1.005262	0.000042
C46	C	0.601444	1.005263	0.000039
C47	C	0.553360	1.005267	-0.083224
C48	C	0.457215	1.005255	-0.083209
C49	C	0.457242	1.005241	0.083336
C50	C	0.553390	1.005244	0.083325
C51	C	0.553341	1.005281	-0.179381
C52	C	0.457196	1.005268	-0.179366
C53	C	1.306816	1.005250	0.000062
C54	C	1.409149	1.005248	0.000065
C55	C	1.005296	1.005261	-0.301468
C56	C	1.005296	1.005263	-0.403801
C57	C	1.005297	1.306770	0.000058
C58	C	1.005297	1.409101	0.000059
C59	C	0.946414	1.123016	-0.510754
C60	C	0.946417	1.123010	-0.606903
C61	C	1.064186	0.887487	-0.489131
C62	C	1.064189	0.887494	-0.392984
C63	C	0.878417	1.258993	-0.578750
C64	C	0.878420	1.258987	-0.674899
C65	C	1.005297	1.005251	0.301571
C66	C	1.005297	1.005249	0.403904
C67	C	1.306816	0.703736	0.000056
C68	C	1.409149	0.601403	0.000058
C69	C	1.005296	0.703737	0.301566
C70	C	1.005296	0.601404	0.403897
C71	C	1.306816	0.703731	0.301576
C72	C	1.409149	0.601397	0.403910
C73	C	0.703777	1.306781	-0.301472
C74	C	0.601444	1.409115	-0.403806
C75	C	0.703777	1.306775	0.000048
C76	C	0.601445	1.409108	0.000046
C77	C	1.005297	1.306775	-0.301462
C78	C	1.005297	1.409108	-0.403793
C79	C	1.398350	0.553327	-0.058819
C80	C	1.494506	0.457182	-0.058821
C81	C	1.612257	0.457195	0.058938
C82	C	1.516102	0.553345	0.058933
C83	C	1.064173	0.553324	0.510852
C84	C	1.064160	0.457180	0.606999
C85	C	0.946392	0.457202	0.489222
C86	C	0.946399	0.553350	0.393078
C87	C	1.516103	0.553317	0.393114
C88	C	1.612252	0.457171	0.489272
C89	C	1.494479	0.457189	0.607018
C90	C	1.398333	0.553340	0.510862
H91	H	0.898487	0.418024	0.106891
H92	H	0.898449	0.592501	0.305984
Br93	Br	1.253169	0.618608	0.525513
H94	H	1.311268	0.592465	-0.106771
Br95	Br	0.618665	1.005206	0.196343
H96	H	0.788391	1.311190	-0.727095
H97	H	1.699336	0.418029	0.480474
Br98	Br	1.144110	0.727666	-0.474461
H99	H	1.485704	0.418044	-0.106766
Br100	Br	0.338348	1.155933	-0.316228
H101	H	1.112111	0.592477	-0.106785
H102	H	0.923281	1.301178	-0.725820
H103	H	0.624635	0.914874	-0.171090
Br104	Br	1.144060	0.391939	0.752152
Br105	Br	1.144080	0.391933	-0.138729
H106	H	1.485686	0.418047	0.694108
Br107	Br	1.757409	0.391963	0.138840
Br108	Br	0.866528	0.618572	0.138860
H109	H	0.418107	1.005224	0.151146
H110	H	0.536522	1.098553	-0.255858
H111	H	1.112150	0.791609	-0.305901
Br112	Br	1.530784	0.618541	0.247969
H113	H	1.524903	0.592493	0.106877
H114	H	0.916233	1.311208	-0.578770
Br115	Br	0.485217	0.849796	-0.151339
Br116	Br	0.733354	1.329197	-0.564133
H117	H	1.112126	0.592451	0.519667
Br118	Br	0.866466	0.391979	0.474548
