data_functionalizedCrystal
_audit_creation_method	'MofGen! by Chris Wilmer'
_symmetry_space_group_name_H-M	'P1'
_symmetry_Int_Tables_number	1
_symmetry_cell_setting	triclinic
loop_
_symmetry_equiv_pos_as_xyz
  x,y,z
_cell_length_a	12.811439
_cell_length_b	11.892095
_cell_length_c	12.811415
_cell_angle_alpha	91.507040
_cell_angle_beta	95.441449
_cell_angle_gamma	91.497754
loop_
_atom_site_label
_atom_site_type_symbol
_atom_site_fract_x
_atom_site_fract_y
_atom_site_fract_z
O1	O	-1.390874	-0.033833	0.143748
O2	O	-1.087665	-0.001411	0.156823
O3	O	-1.245802	-0.033838	-0.001321
O4	O	-1.232736	-0.001406	0.301892
O5	O	-1.232617	-0.219144	0.011844
O6	O	-1.074479	-0.186716	0.169988
O7	O	-1.377689	-0.219139	0.156913
Zn8	Zn	-1.223990	-0.232349	0.165541
Zn9	Zn	-1.241363	0.011799	0.148195
O10	O	-1.219551	-0.186712	0.315057
C11	C	-1.042239	-0.090199	0.162271
C12	C	-0.926529	-0.078686	0.158876
C13	C	-0.694723	-0.259096	0.166830
C14	C	-0.586003	-0.248284	0.163640
C15	C	-0.600369	-0.046251	0.149298
C16	C	-0.709089	-0.057063	0.152488
C17	C	-0.756261	-0.163489	0.161256
C18	C	-0.864982	-0.174299	0.164453
C19	C	-0.879347	0.027732	0.150104
C20	C	-0.770627	0.038544	0.146914
N21	N	-1.212142	-0.398975	0.177378
C22	C	-1.335667	-0.660945	0.053919
C23	C	-1.327392	-0.777590	0.062201
C24	C	-1.187314	-0.748910	0.202219
C25	C	-1.195588	-0.632266	0.193937
C26	C	-1.269768	-0.588288	0.119786
C27	C	-1.278047	-0.471641	0.111509
C28	C	-1.137964	-0.442964	0.251521
C29	C	-1.129690	-0.559609	0.259803
C30	C	-0.423114	-0.130351	0.151469
C31	C	-0.538822	-0.141865	0.154876
C32	C	-1.238073	-0.130354	-0.033572
C33	C	-1.234675	-0.141865	-0.149284
N34	N	-1.253219	0.178423	0.136349
C35	C	-1.242648	0.038552	-0.381061
C36	C	-1.239455	0.027743	-0.489782
C37	C	-1.225091	-0.174291	-0.475450
C38	C	-1.228283	-0.163482	-0.366728
C39	C	-1.237063	-0.057057	-0.319538
C40	C	-1.240263	-0.046249	-0.210815
C41	C	-1.225891	-0.248281	-0.196483
C42	C	-1.222699	-0.259090	-0.305205
C43	C	-1.227280	-0.090193	0.347308
C44	C	-1.230678	-0.078675	0.463019
H45	H	-0.903388	-0.260956	0.171599
H46	H	-1.243999	0.105598	-0.539870
C47	C	-1.399879	-0.857514	-0.010249
H48	H	-1.384323	-0.933283	0.005296
H49	H	-1.470915	-0.844278	0.000548
H50	H	-1.389100	-0.844300	-0.081297
H51	H	-1.396074	-0.625138	-0.006451
H52	H	-1.084308	-0.383792	0.305157
C53	C	-1.215419	-0.291346	-0.527365
H54	H	-1.212541	-0.346743	-0.475153
H55	H	-1.274508	-0.306722	-0.576731
H56	H	-1.153222	-0.292792	-0.562225
C57	C	-1.213040	-0.376150	-0.357115
H58	H	-1.210165	-0.431542	-0.304899
H59	H	-1.272133	-0.391522	-0.406477
H60	H	-1.150846	-0.377610	-0.391979
H61	H	-1.126912	-0.784733	0.262584
C62	C	-1.219752	-0.353459	-0.128811
H63	H	-1.214075	-0.418387	-0.172492
H64	H	-1.160063	-0.346493	-0.078851
H65	H	-1.281351	-0.360393	-0.093354
C66	C	-0.548467	0.070810	0.139681
H67	H	-0.600687	0.126207	0.136821
H68	H	-0.499116	0.086160	0.198787
H69	H	-0.513592	0.072286	0.077495
H70	H	-0.929463	0.105583	0.145571
H71	H	-1.069291	-0.595429	0.320173
C72	C	-0.746619	-0.376158	0.176454
H73	H	-0.694398	-0.431552	0.179307
H74	H	-0.781502	-0.377633	0.238630
H75	H	-0.795965	-0.391517	0.117338
H76	H	-1.247416	0.040407	-0.172395
C77	C	-1.252313	0.155610	-0.329149
H78	H	-1.255180	0.211005	-0.381362
H79	H	-1.314496	0.157064	-0.294277
H80	H	-1.193210	0.170985	-0.279792
H81	H	-0.535901	-0.326136	0.168185
H82	H	-0.732204	0.125192	0.139770
C83	C	-1.359636	-0.423266	0.029944
H84	H	-1.397689	-0.483248	-0.008104
H85	H	-1.406682	-0.378345	0.064719
H86	H	-1.324864	-0.378374	-0.017123
