data_functionalizedCrystal
_audit_creation_method	'MofGen! by Chris Wilmer'
_symmetry_space_group_name_H-M	'P1'
_symmetry_Int_Tables_number	1
_symmetry_cell_setting	triclinic
loop_
_symmetry_equiv_pos_as_xyz
  x,y,z
_cell_length_a	10.489741
_cell_length_b	10.489741
_cell_length_c	9.565339
_cell_angle_alpha	90.000516
_cell_angle_beta	89.999100
_cell_angle_gamma	84.539174
loop_
_atom_site_label
_atom_site_type_symbol
_atom_site_fract_x
_atom_site_fract_y
_atom_site_fract_z
O1	O	1.694053	0.179959	-0.116173
O2	O	1.322857	0.196852	-0.116194
O3	O	1.516901	0.002807	-0.116175
O4	O	1.500009	0.374003	-0.116192
O5	O	1.516886	0.002819	0.116345
O6	O	1.322842	0.196864	0.116326
O7	O	1.694038	0.179971	0.116347
Zn8	Zn	1.508437	0.188419	0.153254
Zn9	Zn	1.508458	0.188403	-0.153101
O10	O	1.499993	0.374015	0.116328
C11	C	1.275318	0.195582	0.000063
C12	C	1.133688	0.191765	0.000055
C13	C	1.065548	0.068300	0.000074
C14	C	0.973429	0.126617	-0.114571
C15	C	0.973448	0.126659	0.114676
C16	C	1.043435	0.250133	-0.114684
C17	C	1.043463	0.250157	0.114665
C18	C	0.951371	0.308564	-0.000007
C19	C	1.515618	-0.044718	0.000084
C20	C	1.511801	-0.186348	0.000082
C21	C	1.388336	-0.254488	0.000064
C22	C	1.446652	-0.346604	0.114712
C23	C	1.446696	-0.346591	-0.114534
C24	C	1.570168	-0.276599	0.114824
C25	C	1.570195	-0.276576	-0.114525
C26	C	1.628600	-0.368665	0.000150
C27	C	1.741577	0.181241	0.000087
C28	C	1.883206	0.185058	0.000086
C29	C	1.501277	0.421541	0.000066
C30	C	1.505094	0.563170	0.000059
N31	N	1.508433	0.188429	0.362334
N32	N	1.508472	0.188383	-0.362180
C33	C	1.418666	0.278138	0.453528
C34	C	1.534163	0.303949	0.546712
C35	C	1.392986	0.162629	0.546704
C36	C	1.623988	0.214298	0.453466
C37	C	1.482735	0.072928	0.453451
C38	C	1.598314	0.098690	0.546593
H39	H	0.901947	0.410168	-0.000074
H40	H	1.342823	0.354073	0.412665
H41	H	1.674328	0.022802	0.587199
H42	H	1.555926	0.401606	0.587676
H43	H	1.295338	0.140828	0.587664
O44	O	1.124999	-0.052711	0.000015
C45	C	1.258805	-0.047468	0.001209
H46	H	1.281890	0.048402	0.045962
H47	H	1.305414	-0.128527	0.068695
H48	H	1.297312	-0.058040	-0.110059
O49	O	1.080345	0.312518	-0.230306
C50	C	1.142122	0.420189	-0.189407
H51	H	1.181094	0.405208	-0.078770
H52	H	1.224481	0.433240	-0.264213
H53	H	1.070748	0.509184	-0.192166
H54	H	1.721659	0.236217	0.412683
H55	H	1.394447	-0.377560	-0.211470
H56	H	1.622398	-0.245536	-0.211451
O57	O	0.936509	0.064090	-0.230090
C58	C	0.995212	-0.062539	-0.229700
H59	H	1.022650	-0.091884	-0.118136
H60	H	0.925583	-0.129723	-0.272997
H61	H	1.084867	-0.068408	-0.297652
H62	H	1.074503	0.302360	0.211590
H63	H	1.730204	-0.418089	0.000220
O64	O	0.936652	0.064153	0.230267
C65	C	0.995313	-0.062492	0.229809
H66	H	1.085469	-0.067786	0.162694
H67	H	1.021917	-0.092823	0.341304
H68	H	0.925992	-0.129275	0.185061
H69	H	1.622356	-0.245762	0.211859
O70	O	1.267153	-0.195452	0.000252
C71	C	1.178626	-0.288511	0.001539
H72	H	1.226438	-0.381893	0.046139
H73	H	1.092893	-0.253513	0.069204
H74	H	1.144962	-0.305376	-0.109681
O75	O	1.384124	-0.383520	0.230234
C76	C	1.257495	-0.324816	0.229842
H77	H	1.228150	-0.297382	0.118276
H78	H	1.190311	-0.394442	0.273144
H79	H	1.251626	-0.235158	0.297788
O80	O	1.456509	-0.043489	0.404594
C81	C	1.334636	-0.070307	0.452046
H82	H	1.274955	0.023179	0.478254
H83	H	1.284672	-0.122866	0.366731
H84	H	1.345730	-0.132919	0.549520
