data_functionalizedCrystal
_audit_creation_method	'MofGen! by Chris Wilmer'
_symmetry_space_group_name_H-M	'P1'
_symmetry_Int_Tables_number	1
_symmetry_cell_setting	triclinic
loop_
_symmetry_equiv_pos_as_xyz
  x,y,z
_cell_length_a	11.026607
_cell_length_b	15.944551
_cell_length_c	9.482900
_cell_angle_alpha	99.334197
_cell_angle_beta	78.636152
_cell_angle_gamma	96.042377
loop_
_atom_site_label
_atom_site_type_symbol
_atom_site_fract_x
_atom_site_fract_y
_atom_site_fract_z
O1	O	1.629108	0.341447	-0.120915
O2	O	1.275798	0.301394	-0.120914
O3	O	1.462099	0.200605	-0.120901
O4	O	1.442807	0.442235	-0.120927
O5	O	1.424257	0.221183	0.120889
O6	O	1.237956	0.321972	0.120876
O7	O	1.591266	0.362024	0.120875
Cu8	Cu	1.411156	0.343877	0.142953
Cu9	Cu	1.455908	0.319541	-0.142992
O10	O	1.404965	0.462813	0.120862
C11	C	1.211666	0.304294	-0.000019
C12	C	1.076950	0.282267	-0.000019
C13	C	1.442377	0.179479	-0.000006
C14	C	1.439975	0.085870	-0.000005
C15	C	1.003151	0.343086	-0.000026
C16	C	0.863914	0.320322	-0.000026
C17	C	1.318759	-0.147313	-0.000025
C18	C	1.356391	-0.189675	0.119192
C19	C	1.435632	-0.085514	-0.000016
C20	C	1.393728	-0.209942	-0.119194
C21	C	1.431430	-0.251064	-0.000034
C22	C	1.473281	-0.126634	0.119299
C23	C	1.510618	-0.146907	-0.119194
C24	C	1.548331	-0.189236	0.000052
C25	C	1.438050	0.009855	-0.000005
C26	C	1.429020	-0.346429	-0.000034
C27	C	1.655399	0.359124	-0.000023
C28	C	1.790116	0.381150	-0.000033
C29	C	1.424688	0.483939	-0.000036
C30	C	1.427091	0.577547	-0.000046
N31	N	1.379688	0.360994	0.344071
N32	N	1.487386	0.302419	-0.344110
C33	C	1.446618	0.324584	0.416275
C34	C	1.420446	0.338834	0.583690
H35	H	0.824028	0.251392	-0.000055
H36	H	1.523292	0.282860	0.354152
H37	H	1.221729	-0.128660	0.000094
H38	H	1.043047	0.412009	-0.000025
C39	C	0.843987	0.474267	-0.000038
H40	H	0.779627	0.509471	-0.000032
H41	H	0.905978	0.478216	-0.084352
H42	H	0.879575	0.492563	0.084293
H43	H	1.037058	0.213341	-0.000048
C44	C	1.518670	-0.077953	0.255609
H45	H	1.536131	-0.117520	0.312464
H46	H	1.456084	-0.043316	0.311336
H47	H	1.591816	-0.042998	0.227114
C48	C	1.316856	0.395200	0.667598
H49	H	1.312860	0.397388	0.769112
H50	H	1.239672	0.371849	0.642746
H51	H	1.334148	0.451146	0.642716
C52	C	1.276104	0.417357	0.427984
H53	H	1.272108	0.419545	0.529498
H54	H	1.198920	0.394006	0.403132
H55	H	1.293395	0.473304	0.403102
C56	C	1.268307	-0.215353	0.255343
H57	H	1.186773	-0.201193	0.255201
H58	H	1.295791	-0.185707	0.340000
H59	H	1.267996	-0.275008	0.254804
H60	H	1.645417	-0.207711	0.000119
C61	C	1.598647	-0.121204	-0.255352
H62	H	1.570247	-0.150045	-0.339980
H63	H	1.679882	-0.136313	-0.256211
H64	H	1.600094	-0.061393	-0.253885
H65	H	1.360054	-0.246072	-0.219990
H66	H	1.564064	0.260692	0.593771
