data_functionalizedCrystal
_audit_creation_method	'MofGen! by Chris Wilmer'
_symmetry_space_group_name_H-M	'P1'
_symmetry_Int_Tables_number	1
_symmetry_cell_setting	triclinic
loop_
_symmetry_equiv_pos_as_xyz
  x,y,z
_cell_length_a	19.077409
_cell_length_b	13.897448
_cell_length_c	19.077276
_cell_angle_alpha	87.715128
_cell_angle_beta	85.511266
_cell_angle_gamma	92.319430
loop_
_atom_site_label
_atom_site_type_symbol
_atom_site_fract_x
_atom_site_fract_y
_atom_site_fract_z
Zn1	Zn	1.061623	-0.345205	0.355456
Zn2	Zn	1.066318	-0.499729	0.237577
Zn3	Zn	0.948504	-0.345204	0.242303
Zn4	Zn	0.943720	-0.513217	0.360140
O5	O	1.005041	-0.425839	0.298869
O6	O	1.160894	-0.360059	0.335880
O7	O	1.054656	-0.473585	0.139556
O8	O	0.963546	-0.210221	0.257331
O9	O	1.164343	-0.473587	0.249275
O10	O	1.046655	-0.210222	0.340464
O11	O	0.968098	-0.360056	0.143029
O12	O	0.849221	-0.373135	0.261873
O13	O	0.955394	-0.496575	0.458166
O14	O	0.845706	-0.496573	0.348447
O15	O	1.042016	-0.373138	0.454725
O16	O	1.050017	-0.636501	0.253817
O17	O	0.959946	-0.646410	0.343864
C18	C	0.821885	-0.436318	0.306182
C19	C	0.743529	-0.440826	0.309327
C20	C	0.302274	-0.473079	0.331918
C21	C	0.375898	-0.468850	0.328950
C22	C	0.414514	-0.402373	0.282466
C23	C	0.379502	-0.340128	0.238943
C24	C	0.305879	-0.344361	0.241908
C25	C	0.634895	-0.382814	0.268769
C26	C	0.708523	-0.378582	0.265808
C27	C	0.704914	-0.507307	0.355815
C28	C	0.631290	-0.511531	0.358779
C29	C	0.596285	-0.449289	0.315253
N30	N	0.489769	-0.398047	0.279432
N31	N	0.521030	-0.453620	0.318284
C32	C	1.004990	-0.676455	0.298851
C33	C	1.005032	-0.783667	0.298864
C34	C	1.005105	-0.979960	0.298905
C35	C	1.005062	-0.870729	0.298884
C36	C	1.188912	-0.415319	0.291528
C37	C	1.267267	-0.410836	0.288400
C38	C	0.997648	-0.436361	0.482739
C39	C	0.994497	-0.440845	0.561094
C40	C	1.005110	-0.174244	0.298902
C41	C	1.005140	-0.067029	0.298916
C42	C	0.971927	-0.473039	1.002338
C43	C	0.974885	-0.468812	0.928716
C44	C	1.021467	-0.402436	0.890117
C45	C	1.065089	-0.340277	0.925143
C46	C	1.062127	-0.344501	0.998764
C47	C	1.035158	-0.382910	0.669741
C48	C	1.038118	-0.378693	0.596115
C49	C	0.947912	-0.507227	0.599693
C50	C	0.944957	-0.511448	0.673315
C51	C	0.988577	-0.449286	0.708336
N52	N	1.024493	-0.398116	0.814863
N53	N	0.985547	-0.453603	0.783588
C54	C	1.012399	-0.415377	1.115714
C55	C	1.015548	-0.410887	1.037360
H56	H	0.410949	-0.286005	0.201091
H57	H	0.739962	-0.324437	0.227961
H58	H	0.733423	-0.557982	0.391251
H59	H	1.103014	-0.286229	0.893710
N60	N	1.079720	-0.319412	0.705496
N61	N	1.121310	-0.260159	0.671021
H62	H	1.152786	-0.215311	0.696275
N63	N	0.270130	-0.280778	0.197447
N64	N	0.304614	-0.221428	0.155945
H65	H	0.279367	-0.176523	0.124541
H66	H	0.270838	-0.527207	0.369774
N67	N	0.924337	-0.540844	1.041753
N68	N	0.885389	-0.596323	1.010471
H69	H	0.851773	-0.644208	1.038306
N70	N	1.085706	-0.310882	0.556696
N71	N	1.124647	-0.255384	0.587971
H72	H	1.158255	-0.207494	0.560132
N73	N	1.106684	-0.280999	1.034529
N74	N	1.148270	-0.221735	1.000060
H75	H	1.179736	-0.176880	1.025317
H76	H	0.606403	-0.332135	0.233324
N77	N	0.411660	-0.532419	0.373409
N78	N	0.450959	-0.498792	0.416716
H79	H	0.476218	-0.543690	0.448114
H80	H	0.939372	-0.519433	0.900205
H81	H	0.907026	-0.565499	0.704738
H82	H	0.912398	-0.557835	0.571172
H83	H	0.599854	-0.565666	0.396630
