data_functionalizedCrystal
_audit_creation_method	'MofGen! by Chris Wilmer'
_symmetry_space_group_name_H-M	'P1'
_symmetry_Int_Tables_number	1
_symmetry_cell_setting	triclinic
loop_
_symmetry_equiv_pos_as_xyz
  x,y,z
_cell_length_a	19.121102
_cell_length_b	25.639239
_cell_length_c	19.120904
_cell_angle_alpha	92.410104
_cell_angle_beta	90.088173
_cell_angle_gamma	87.592882
loop_
_atom_site_label
_atom_site_type_symbol
_atom_site_fract_x
_atom_site_fract_y
_atom_site_fract_z
Zn1	Zn	1.054765	-0.255751	-0.442042
Zn2	Zn	1.059658	-0.339618	-0.324799
Zn3	Zn	0.942536	-0.248315	-0.319827
Zn4	Zn	0.937469	-0.339266	-0.437001
O5	O	0.998607	-0.295738	-0.380917
O6	O	1.153518	-0.270136	-0.430680
O7	O	1.048290	-0.324541	-0.226035
O8	O	0.957496	-0.176139	-0.336067
O9	O	1.157113	-0.331752	-0.344542
O10	O	1.039950	-0.181603	-0.425859
O11	O	0.962241	-0.257461	-0.222382
O12	O	0.843760	-0.257121	-0.331180
O13	O	0.948861	-0.331153	-0.535775
O14	O	0.840037	-0.323942	-0.417267
O15	O	1.035037	-0.269795	-0.539478
O16	O	1.043377	-0.412733	-0.339654
O17	O	0.953605	-0.412475	-0.422089
C18	C	0.816461	-0.289687	-0.373137
C19	C	0.738537	-0.287111	-0.369826
C20	C	0.700012	-0.320740	-0.413021
C21	C	0.626794	-0.318313	-0.409912
C22	C	0.592104	-0.282260	-0.363605
C23	C	0.630634	-0.248627	-0.320408
C24	C	0.703850	-0.251052	-0.323520
C25	C	0.371134	-0.273194	-0.351972
C26	C	0.297913	-0.270773	-0.348862
C27	C	0.294078	-0.340458	-0.438367
C28	C	0.367296	-0.342882	-0.441472
C29	C	0.405820	-0.309247	-0.398278
C30	C	0.517264	-0.279779	-0.360425
C31	C	0.480658	-0.311726	-0.401462
C32	C	0.998491	-0.431575	-0.380880
C33	C	0.998504	-0.489690	-0.380890
C34	C	1.045465	-0.850185	-0.338075
C35	C	1.045491	-0.904791	-0.338085
O36	O	1.085298	-0.933135	-0.301642
N37	N	0.998728	-0.931982	-0.380969
C38	C	0.951940	-0.904565	-0.423850
O39	O	0.912167	-0.932708	-0.460327
C40	C	0.951917	-0.849961	-0.423843
C41	C	0.998679	-0.822772	-0.380951
C42	C	1.092223	-0.822997	-0.295188
C43	C	1.092195	-0.768395	-0.295176
C44	C	1.045409	-0.740982	-0.338052
C45	C	0.998651	-0.768171	-0.380940
C46	C	0.905133	-0.822546	-0.466727
C47	C	0.905115	-0.767938	-0.466716
C48	C	0.951876	-0.740749	-0.423825
C49	C	0.951837	-0.686156	-0.423805
N50	N	0.998600	-0.658965	-0.380921
C51	C	1.045386	-0.686378	-0.338045
C52	C	0.951992	-1.019238	-0.423863
C53	C	0.952011	-1.073841	-0.423867
C54	C	1.045564	-1.074063	-0.338103
C55	C	1.045541	-1.019459	-0.338096
C56	C	0.998756	-0.992047	-0.380980
C57	C	1.045324	-0.571710	-0.338024
C58	C	1.045290	-0.517103	-0.338014
C59	C	0.951740	-0.516886	-0.423780
C60	C	0.951771	-0.571488	-0.423788
C61	C	0.998569	-0.598899	-0.380907
O62	O	0.912052	-0.657777	-0.460232
O63	O	1.085159	-0.658229	-0.301581
C64	C	1.181464	-0.301813	-0.388728
C65	C	1.259387	-0.304401	-0.392057
C66	C	0.990838	-0.301264	-0.563775
C67	C	0.987527	-0.303619	-0.641698
C68	C	0.998742	-0.159371	-0.380971
C69	C	0.998800	-0.101259	-0.380993
C70	C	1.030837	-0.272781	-0.680236
C71	C	1.027718	-0.274992	-0.753453
C72	C	0.981292	-0.308044	-0.788130
C73	C	0.937977	-0.338883	-0.749587
C74	C	0.941093	-0.336669	-0.676372
C75	C	0.969635	-0.316324	-1.009097
C76	C	0.966523	-0.318536	-1.082318
C77	C	1.056263	-0.254644	-1.086178
C78	C	1.059378	-0.252436	-1.012961
C79	C	1.016061	-0.283273	-0.974424
C80	C	0.978104	-0.310306	-0.862970
C81	C	1.019246	-0.281008	-0.899586
C82	C	1.006386	-0.290196	-0.198772
C83	C	1.009833	-0.287698	-0.120856
H84	H	0.489010	-0.250426	-0.322720
H85	H	0.262704	-0.367840	-0.473534
H86	H	0.913645	-0.494558	-0.458687
H87	H	1.083618	-0.997325	-0.303171
C88	C	1.081909	-0.236421	-0.642097
N89	N	1.120376	-0.209031	-0.613373
H90	H	0.900174	-0.365793	-0.777828
H91	H	0.508906	-0.341078	-0.439168
C92	C	0.746228	-0.214059	-0.276001
N93	N	0.778146	-0.186193	-0.240209
C94	C	0.927031	-0.346658	-0.901122
N95	N	0.888561	-0.374036	-0.929861
C96	C	0.900564	-1.103742	-0.471044
N97	N	0.861814	-1.126262	-0.506583
H98	H	1.097185	-0.225523	-0.984732
C99	C	0.405450	-0.382546	-0.492410
N100	N	0.434188	-0.412423	-0.530775
H101	H	0.728252	-0.350100	-0.450727
C102	C	1.075363	-0.241069	-0.795841
N103	N	1.111252	-0.215516	-0.827767
C104	C	1.103900	-0.220719	-1.128574
N105	N	1.139778	-0.195162	-1.160507
H106	H	1.083369	-0.494968	-0.303084
H107	H	0.928715	-0.345452	-1.110550
C108	C	0.413501	-0.236198	-0.304452
N109	N	0.445415	-0.208331	-0.268657
H110	H	1.083662	-1.096393	-0.303194
C111	C	0.893450	-0.370595	-0.633981
N112	N	0.857563	-0.396147	-0.602052
H113	H	1.130325	-0.845310	-0.260273
H114	H	1.083432	-0.594021	-0.303108
C115	C	1.143631	-0.738494	-0.247986
N116	N	1.182374	-0.715976	-0.212437
C117	C	0.900524	-0.989090	-0.471044
N118	N	0.861762	-0.966386	-0.506585
C119	C	0.853646	-0.737788	-0.513893
N120	N	0.814878	-0.715081	-0.549425
C121	C	0.584420	-0.355317	-0.457417
N122	N	0.552504	-0.383194	-0.493195
C123	C	0.853693	-0.852441	-0.513914
N124	N	0.814946	-0.874958	-0.549459
C125	C	0.259754	-0.231109	-0.297919
N126	N	0.231014	-0.201236	-0.259549
H127	H	0.602383	-0.219270	-0.282707
C128	C	0.900329	-0.601397	-0.470967
N129	N	0.861587	-0.623920	-0.506510
H130	H	0.934373	-0.341441	-0.977730
H131	H	1.057043	-0.254095	-0.871348
