data_functionalizedCrystal
_audit_creation_method	'MofGen! by Chris Wilmer'
_symmetry_space_group_name_H-M	'P1'
_symmetry_Int_Tables_number	1
_symmetry_cell_setting	triclinic
loop_
_symmetry_equiv_pos_as_xyz
  x,y,z
_cell_length_a	16.992694
_cell_length_b	14.421503
_cell_length_c	15.944493
_cell_angle_alpha	89.988928
_cell_angle_beta	92.928367
_cell_angle_gamma	89.996610
loop_
_atom_site_label
_atom_site_type_symbol
_atom_site_fract_x
_atom_site_fract_y
_atom_site_fract_z
O1	O	1.040372	-0.076976	-0.178098
O2	O	0.812087	-0.077003	-0.176144
O3	O	0.932487	-0.076996	-0.055262
O4	O	0.919972	-0.076982	-0.298979
O5	O	0.932465	0.077227	-0.055283
O6	O	0.812065	0.077220	-0.176164
O7	O	1.040350	0.077248	-0.178118
Cu8	Cu	0.926205	0.091316	-0.177143
Cu9	Cu	0.926231	-0.091071	-0.177119
O10	O	0.919950	0.077241	-0.299000
C11	C	0.782864	0.000105	-0.173640
C12	C	0.695821	0.000094	-0.166140
N13	N	0.926193	0.219597	-0.177160
C14	C	0.645570	0.000099	-0.238506
C15	C	0.563784	0.000111	-0.231454
C16	C	0.532251	0.000112	-0.152035
C17	C	0.582508	0.000110	-0.079664
C18	C	0.664292	0.000104	-0.086717
C19	C	0.288657	0.000135	-0.122803
C20	C	0.206867	0.000138	-0.115756
C21	C	0.188149	0.000141	-0.267547
C22	C	0.269935	0.000130	-0.274593
C23	C	0.320185	0.000132	-0.202221
N24	N	0.448653	0.000122	-0.144825
N25	N	0.403781	0.000129	-0.209433
C26	C	0.870506	0.469248	-0.233031
C27	C	0.941354	0.531060	-0.254092
C28	C	0.926209	0.408759	-0.177144
C29	C	0.855378	0.531040	-0.156107
C30	C	0.926219	0.591480	-0.177130
C31	C	0.997092	0.469210	-0.198244
C32	C	0.911070	0.469185	-0.100223
C33	C	0.981968	0.530969	-0.121255
C34	C	0.926203	0.303497	-0.177154
C35	C	0.926234	0.696739	-0.177120
C36	C	1.069573	0.000138	-0.180622
C37	C	1.156616	0.000143	-0.188122
C38	C	0.931964	0.000111	-0.023943
C39	C	0.930431	0.000099	0.069408
N40	N	0.926237	0.780648	-0.177111
C41	C	0.920472	0.000131	-0.330319
C42	C	0.922006	0.000137	-0.423670
C43	C	1.001301	0.000126	0.300415
C44	C	0.963094	-0.075919	0.353556
C45	C	0.927589	0.000110	0.240320
C46	C	0.963055	0.076133	0.353513
C47	C	0.924850	0.000125	0.405413
C48	C	0.889402	-0.075997	0.292231
C49	C	0.889374	0.076124	0.292185
C50	C	0.851113	0.000061	0.345296
C51	C	0.929169	0.000101	0.145214
C52	C	0.923264	0.000128	0.500516
H53	H	0.671237	0.000097	-0.303177
H54	H	0.295603	0.000118	-0.339264
C55	C	0.716273	0.536534	-0.190707
C56	C	0.774510	0.567697	-0.132084
H57	H	0.666348	0.559158	-0.175876
H58	H	0.727412	0.558636	-0.244953
H59	H	0.715557	0.470670	-0.191037
H60	H	0.775229	0.633562	-0.131759
H61	H	0.763368	0.545600	-0.077824
H62	H	0.994233	-0.140202	0.380422
H63	H	0.823449	0.442147	-0.280336
C64	C	1.030389	0.534704	0.022838
C65	C	1.045631	0.567330	-0.057444
H66	H	1.069696	0.557149	0.062227
H67	H	0.980134	0.555996	0.037900
H68	H	1.031012	0.468838	0.022835
H69	H	1.045002	0.633197	-0.057443
H70	H	1.095899	0.546043	-0.072509
H71	H	0.556827	0.000124	-0.014999
H72	H	0.705206	0.000100	-0.027788
H73	H	0.147227	0.000141	-0.326467
H74	H	0.898232	0.441985	-0.035198
C75	C	0.900249	0.536613	-0.400332
C76	C	0.958654	0.567761	-0.341895
H77	H	0.910925	0.559274	-0.454537
H78	H	0.899898	0.470758	-0.401096
H79	H	0.850314	0.558698	-0.385000
H80	H	1.008589	0.545670	-0.357224
H81	H	0.959013	0.633629	-0.341133
H82	H	0.858300	-0.140355	0.265507
C83	C	0.726941	-0.079689	0.340759
C84	C	0.765336	-0.000002	0.371938
H85	H	0.673989	-0.079731	0.357213
H86	H	0.727473	-0.080194	0.281222
H87	H	0.753317	-0.133184	0.362710
H88	H	0.738964	0.053494	0.349982
H89	H	0.764800	0.000512	0.431487
H90	H	0.858262	0.140409	0.265301
C91	C	0.233580	0.000145	0.033582
C92	C	0.172204	0.000141	-0.028452
H93	H	0.212179	0.000149	0.087476
H94	H	0.265092	-0.053632	0.027687
H95	H	0.265087	0.053931	0.027662
H96	H	0.140701	-0.053649	-0.022536
H97	H	0.140679	0.053923	-0.022554
H98	H	1.057010	0.442165	-0.216108
C99	C	1.083673	0.162773	0.367274
C100	C	1.005080	0.162924	0.389731
H101	H	1.109618	0.216354	0.389628
H102	H	1.109328	0.108786	0.389144
H103	H	1.085372	0.163094	0.307816
H104	H	1.003381	0.162596	0.449189
H105	H	0.979418	0.216926	0.367865
C106	C	0.391482	-0.079157	-0.042661
C107	C	0.343884	0.000125	-0.043252
H108	H	0.425581	-0.079160	0.006452
H109	H	0.359188	-0.132925	-0.043060
H110	H	0.421968	-0.079143	-0.090968
H111	H	0.313394	0.000108	0.005052
H112	H	0.376182	0.053908	-0.042845
H113	H	1.064795	0.000057	0.280528
C114	C	0.553497	0.000101	-0.382198
C115	C	0.508548	0.000112	-0.311001
H116	H	0.519395	0.000097	-0.431309
H117	H	0.585785	0.053874	-0.381803
H118	H	0.585786	-0.053688	-0.381774
H119	H	0.476263	0.053905	-0.311422
H120	H	0.476247	-0.053667	-0.311397
