data_functionalizedCrystal
_audit_creation_method	'MofGen! by Chris Wilmer'
_symmetry_space_group_name_H-M	'P1'
_symmetry_Int_Tables_number	1
_symmetry_cell_setting	triclinic
loop_
_symmetry_equiv_pos_as_xyz
  x,y,z
_cell_length_a	19.288864
_cell_length_b	9.065218
_cell_length_c	18.366186
_cell_angle_alpha	89.995673
_cell_angle_beta	89.977106
_cell_angle_gamma	84.076066
loop_
_atom_site_label
_atom_site_type_symbol
_atom_site_fract_x
_atom_site_fract_y
_atom_site_fract_z
O1	O	0.922782	0.184031	-0.060781
O2	O	0.720714	0.208857	-0.060731
O3	O	0.825924	-0.018345	-0.060755
O4	O	0.817571	0.411233	-0.060756
O5	O	0.825906	-0.018356	0.060344
O6	O	0.720696	0.208846	0.060369
O7	O	0.922763	0.184020	0.060319
Zn8	Zn	0.821727	0.196431	0.079571
Zn9	Zn	0.821751	0.196446	-0.079983
O10	O	0.817553	0.411222	0.060343
C11	C	0.694822	0.208053	-0.000174
C12	C	0.617700	0.205655	-0.000155
C13	C	0.574039	0.338966	-0.000167
C14	C	0.501574	0.336713	-0.000175
C15	C	0.472774	0.201142	-0.000186
C16	C	0.516445	0.067812	-0.000170
C17	C	0.588908	0.070069	-0.000155
C18	C	0.363691	0.094571	-0.042637
C19	C	0.291229	0.092320	-0.042657
C20	C	0.249274	0.194176	-0.000230
C21	C	0.279789	0.298308	0.042207
C22	C	0.352252	0.300565	0.042222
C23	C	0.394201	0.198680	-0.000202
C24	C	0.127038	0.325054	-0.000250
C25	C	0.054572	0.322796	-0.000253
C26	C	0.069445	0.053891	-0.000256
C27	C	0.141909	0.056153	-0.000245
C28	C	0.170701	0.191739	-0.000245
C29	C	0.825112	-0.073309	-0.000206
C30	C	0.822712	-0.237067	-0.000209
C31	C	0.948655	0.184825	-0.000239
C32	C	1.025777	0.187223	-0.000263
C33	C	0.818365	0.466186	-0.000207
C34	C	0.820765	0.629945	-0.000209
N35	N	0.821715	0.196420	0.188462
N36	N	0.821767	0.196445	-0.188874
C37	C	0.868318	0.095865	0.226552
C38	C	0.868323	0.095858	0.302779
C39	C	0.821731	0.196433	0.340915
C40	C	0.775119	0.296996	0.302816
C41	C	0.775111	0.296990	0.226590
C42	C	0.813476	0.330848	0.461676
C43	C	0.813489	0.330856	0.537901
C44	C	0.821751	0.196451	0.576022
C45	C	0.830015	0.062032	0.537909
C46	C	0.830007	0.062026	0.461683
C47	C	0.821734	0.196450	0.423570
C48	C	0.868361	0.095880	0.696767
C49	C	0.868361	0.095871	0.772996
C50	C	0.775160	0.297022	0.773031
C51	C	0.775157	0.297018	0.696803
C52	C	0.821761	0.196448	0.658676
H53	H	0.177459	-0.052404	-0.000239
C54	C	0.385820	0.415088	0.088907
C55	C	0.465527	0.417562	0.088923
C56	C	0.499096	0.532080	0.135612
C57	C	0.452958	0.644124	0.182284
C58	C	0.373246	0.641654	0.182270
C59	C	0.339677	0.527136	0.135581
H60	H	0.499686	0.334616	0.054372
H61	H	0.558104	0.533908	0.135622
H62	H	0.477807	0.728898	0.216846
H63	H	0.339087	0.724600	0.216821
H64	H	0.280669	0.525308	0.135570
H65	H	0.806764	0.440308	0.568927
H66	H	0.836742	-0.047414	0.568946
H67	H	0.806736	0.440305	0.430644
C68	C	0.233652	0.410358	0.088885
C69	C	0.234368	0.577962	0.075722
C70	C	0.188228	0.690010	0.122398
C71	C	0.141372	0.634454	0.182237
C72	C	0.140654	0.466841	0.195402
C73	C	0.186794	0.354793	0.148727
H74	H	0.269055	0.619095	0.031424
H75	H	0.188760	0.814088	0.112652
H76	H	0.107217	0.717398	0.216789
H77	H	0.105967	0.425708	0.239701
H78	H	0.186262	0.230715	0.158473
H79	H	0.737182	0.378883	0.333870
H80	H	0.737160	0.378875	0.195577
C81	C	0.919593	-0.014753	0.344688
C82	C	0.970875	-0.125327	0.302747
C83	C	1.022146	-0.235936	0.344652
C84	C	1.022136	-0.235971	0.428499
C85	C	0.970853	-0.125393	0.470444
C86	C	0.919581	-0.014784	0.428539
H87	H	0.970884	-0.125305	0.240675
H88	H	1.060109	-0.317793	0.313601
H89	H	1.060090	-0.317850	0.459519
H90	H	0.970844	-0.125415	0.532516
H91	H	0.881618	0.067073	0.459590
C92	C	0.006543	0.469451	-0.000263
C93	C	0.010404	0.580675	-0.063149
C94	C	-0.037626	0.727333	-0.063159
C95	C	-0.089517	0.762768	-0.000282
C96	C	-0.093381	0.651541	0.062609
C97	C	-0.045351	0.504883	0.062619
H98	H	0.048819	0.554446	-0.109699
H99	H	-0.034765	0.809670	-0.109715
H100	H	-0.125072	0.871333	-0.000289
H101	H	-0.131796	0.677770	0.109159
H102	H	-0.048211	0.422546	0.109175
H103	H	0.597476	0.449370	-0.000169
H104	H	0.045997	-0.056494	-0.000310
C105	C	0.257665	-0.022212	-0.089340
C106	C	0.303810	-0.134266	-0.136001
C107	C	0.270249	-0.248797	-0.182688
C108	C	0.190542	-0.251273	-0.182715
C109	C	0.144392	-0.139215	-0.136053
C110	C	0.177954	-0.024684	-0.089365
H111	H	0.362818	-0.132436	-0.135983
H112	H	0.304412	-0.331749	-0.217230
H113	H	0.165698	-0.336056	-0.217275
H114	H	0.085384	-0.141044	-0.136071
H115	H	0.143790	0.058269	-0.054823
H116	H	0.906308	0.013979	0.804009
C117	C	0.409840	-0.017476	-0.089310
C118	C	0.409124	-0.185082	-0.076152
C119	C	0.455273	-0.297123	-0.122821
C120	C	0.502139	-0.241560	-0.182649
C121	C	0.502857	-0.073946	-0.195810
C122	C	0.456707	0.038096	-0.149140
H123	H	0.374429	-0.226221	-0.031861
H124	H	0.454741	-0.421203	-0.113078
H125	H	0.536301	-0.324500	-0.217196
H126	H	0.537551	-0.032807	-0.240100
H127	H	0.457239	0.162175	-0.158883
C128	C	0.723899	0.407645	0.654898
C129	C	0.672666	0.518320	0.696838
C130	C	0.621405	0.628949	0.654933
C131	C	0.621376	0.628902	0.571087
C132	C	0.672612	0.518222	0.529142
C133	C	0.723873	0.407594	0.571048
H134	H	0.672685	0.518358	0.758910
H135	H	0.583477	0.710881	0.685984
H136	H	0.583429	0.710796	0.540065
H137	H	0.672592	0.518184	0.467070
H138	H	0.761801	0.325661	0.539997
C139	C	0.839083	-0.085825	0.419758
C140	C	0.848167	-0.233677	0.461678
C141	C	0.857237	-0.381529	0.419753
C142	C	0.857224	-0.381529	0.335907
C143	C	0.848139	-0.233671	0.293982
C144	C	0.839069	-0.085819	0.335907
H145	H	0.848178	-0.233682	0.523750
H146	H	0.863962	-0.490982	0.450789
H147	H	0.863938	-0.490978	0.304871
H148	H	0.848129	-0.233666	0.231910
H149	H	0.832344	0.023635	0.304871
C150	C	0.636940	-0.076583	-0.000148
C151	C	0.633079	-0.187820	0.062733
C152	C	0.681112	-0.334474	0.062737
C153	C	0.733007	-0.369890	-0.000139
C154	C	0.736870	-0.258651	-0.063024
C155	C	0.688836	-0.111997	-0.063029
H156	H	0.594662	-0.161605	0.109281
H157	H	0.678252	-0.416820	0.109289
H158	H	0.768564	-0.478452	-0.000135
H159	H	0.775287	-0.284866	-0.109573
H160	H	0.691696	-0.029650	-0.109581
C161	C	0.919617	-0.014756	0.654822
C162	C	0.917397	-0.182743	0.665312
C163	C	0.968653	-0.293381	0.623370
C164	C	1.022130	-0.236032	0.570939
C165	C	1.024353	-0.068037	0.560448
C166	C	0.973097	0.042601	0.602389
H167	H	0.877808	-0.225203	0.704126
H168	H	0.967008	-0.417742	0.631137
H169	H	1.060074	-0.317933	0.539892
H170	H	1.063942	-0.025576	0.521633
H171	H	0.974742	0.166962	0.594622
H172	H	0.466018	0.445275	-0.000183
H173	H	0.150482	0.435456	-0.000239
H174	H	0.492991	-0.042571	-0.000189
H175	H	0.906265	0.013972	0.195510
H176	H	0.737221	0.378906	0.804081
