data_functionalizedCrystal
_audit_creation_method	'MofGen! by Chris Wilmer'
_symmetry_space_group_name_H-M	'P1'
_symmetry_Int_Tables_number	1
_symmetry_cell_setting	triclinic
loop_
_symmetry_equiv_pos_as_xyz
  x,y,z
_cell_length_a	27.732048
_cell_length_b	27.731996
_cell_length_c	13.596369
_cell_angle_alpha	89.988048
_cell_angle_beta	90.000164
_cell_angle_gamma	82.632022
loop_
_atom_site_label
_atom_site_type_symbol
_atom_site_fract_x
_atom_site_fract_y
_atom_site_fract_z
O1	O	0.640917	0.057519	-0.081677
O2	O	1.140917	0.557519	0.418323
O3	O	0.500122	0.066265	-0.081709
O4	O	1.000122	0.566265	0.418291
O5	O	0.574905	-0.008506	-0.081671
O6	O	1.074905	0.491494	0.418329
O7	O	0.566133	0.132291	-0.081715
O8	O	1.066133	0.632291	0.418285
O9	O	0.574898	-0.008510	0.081912
O10	O	1.074898	0.491490	0.581912
O11	O	0.500114	0.066261	0.081874
O12	O	1.000114	0.566261	0.581874
O13	O	0.640909	0.057515	0.081906
O14	O	1.140909	0.557515	0.581906
Zn15	Zn	0.570511	0.061888	0.107862
Zn16	Zn	1.070511	0.561888	0.607862
Zn17	Zn	0.570520	0.061893	-0.107665
Zn18	Zn	1.070520	0.561893	0.392335
O19	O	0.566126	0.132287	0.081868
O20	O	1.066126	0.632287	0.581868
C21	C	0.482111	0.066079	0.000079
C22	C	0.982111	0.566079	0.500079
C23	C	0.428456	0.065527	0.000068
C24	C	0.928456	0.565527	0.500068
C25	C	0.089634	0.106231	0.000098
C26	C	0.589634	0.606231	0.500098
C27	C	-0.112026	0.104180	0.000107
C28	C	0.387974	0.604180	0.500107
O29	O	-0.143288	0.141402	0.000138
O30	O	0.356712	0.641402	0.500138
N31	N	-0.131141	0.059844	0.000119
N32	N	0.368859	0.559844	0.500119
C33	C	-0.099838	0.016017	0.000136
C34	C	0.400162	0.516017	0.500136
O35	O	-0.120724	-0.021740	0.000156
O36	O	0.379276	0.478260	0.500156
C37	C	0.101820	0.018069	0.000133
C38	C	0.601820	0.518069	0.500133
C39	C	0.120933	0.062408	0.000111
C40	C	0.620933	0.562408	0.500111
C41	C	0.108747	0.150567	0.000076
C42	C	0.608747	0.650567	0.500076
C43	C	0.159159	0.151079	0.000069
C44	C	0.659159	0.651079	0.500069
C45	C	0.190457	0.107256	0.000082
C46	C	0.690457	0.607256	0.500082
C47	C	0.171344	0.062920	0.000103
C48	C	0.671344	0.562920	0.500103
C49	C	0.133122	-0.025757	0.000157
C50	C	0.633122	0.474243	0.500157
C51	C	0.183539	-0.025240	0.000159
C52	C	0.683539	0.474760	0.500159
C53	C	0.202652	0.019099	0.000136
C54	C	0.702652	0.519099	0.500136
C55	C	0.253055	0.019609	0.000109
C56	C	0.753055	0.519609	0.500109
N57	N	0.272171	0.063946	0.000097
N58	N	0.772171	0.563946	0.500097
C59	C	0.240872	0.107769	0.000083
C60	C	0.740872	0.607769	0.500083
C61	C	-0.205712	0.014943	0.000135
C62	C	0.294288	0.514943	0.500135
C63	C	-0.256126	0.014430	0.000134
C64	C	0.243874	0.514430	0.500134
C65	C	-0.268310	0.102594	0.000107
C66	C	0.231690	0.602594	0.500107
C67	C	-0.217895	0.103106	0.000101
C68	C	0.282105	0.603106	0.500101
C69	C	-0.186597	0.059280	0.000123
C70	C	0.313403	0.559280	0.500123
C71	C	0.346741	0.108842	0.000066
C72	C	0.846741	0.608842	0.500066
C73	C	0.397158	0.109350	0.000054
C74	C	0.897158	0.609350	0.500054
C75	C	0.409337	0.021187	0.000086
C76	C	0.909337	0.521187	0.500086
C77	C	0.358925	0.020678	0.000093
C78	C	0.858925	0.520678	0.500093
C79	C	0.327627	0.064510	0.000086
C80	C	0.827627	0.564510	0.500086
O81	O	0.284346	-0.017592	0.000089
O82	O	0.784346	0.482408	0.500089
O83	O	0.261767	0.145521	0.000084
O84	O	0.761767	0.645521	0.500084
C85	C	0.039222	0.105719	0.000105
C86	C	0.539222	0.605719	0.500105
C87	C	0.020109	0.061384	0.000126
C88	C	0.520109	0.561384	0.500126
C89	C	0.051408	0.017560	0.000140
C90	C	0.551408	0.517560	0.500140
C91	C	-0.030305	0.060871	0.000125
C92	C	0.469695	0.560871	0.500125
C93	C	-0.061604	0.104694	0.000112
C94	C	0.438396	0.604694	0.500112
C95	C	-0.042489	0.149030	0.000100
C96	C	0.457511	0.649030	0.500100
C97	C	0.007923	0.149543	0.000092
C98	C	0.507923	0.649543	0.500092
C99	C	0.032292	-0.026776	0.000152
C100	C	0.532292	0.473224	0.500152
C101	C	-0.018120	-0.027285	0.000159
C102	C	0.481880	0.472715	0.500159
C103	C	-0.049419	0.016539	0.000145
C104	C	0.450581	0.516539	0.500145
C105	C	0.574721	-0.026516	0.000124
C106	C	1.074721	0.473484	0.500124
C107	C	0.574179	-0.080172	0.000134
C108	C	1.074179	0.419828	0.500134
C109	C	0.570768	-0.412886	-0.089084
C110	C	1.070768	0.087114	0.410916
C111	C	0.568707	-0.614544	-0.089102
C112	C	1.068707	-0.114544	0.410898
O113	O	0.568423	-0.640613	-0.164937
O114	O	1.068423	-0.140613	0.335063
N115	N	0.568447	-0.639764	0.000066
N116	N	1.068447	-0.139764	0.500066
C117	C	0.568699	-0.614565	0.089245
C118	C	1.068699	-0.114565	0.589245
O119	O	0.568426	-0.640642	0.165088
O120	O	1.068426	-0.140642	0.665088
C121	C	0.570756	-0.412907	0.089262
C122	C	1.070756	0.087093	0.589262
C123	C	0.571021	-0.387691	0.000088
C124	C	1.071021	0.112309	0.500088
C125	C	0.571032	-0.387670	-0.178251
C126	C	1.071032	0.112330	0.321749
C127	C	0.571550	-0.337259	-0.178245
C128	C	1.071550	0.162741	0.321755
C129	C	0.571804	-0.312064	-0.089073
C130	C	1.071804	0.187936	0.410927
C131	C	0.571539	-0.337280	0.000093
C132	C	1.071539	0.162720	0.500093
C133	C	0.571005	-0.387709	0.178440
C134	C	1.071005	0.112291	0.678440
C135	C	0.571518	-0.337291	0.178436
C136	C	1.071518	0.162709	0.678436
C137	C	0.571783	-0.312075	0.089262
C138	C	1.071783	0.187925	0.589262
C139	C	0.572311	-0.261674	0.089271
C140	C	1.072311	0.238326	0.589271
N141	N	0.572571	-0.236454	0.000103
N142	N	1.072571	0.263546	0.500103
C143	C	0.572317	-0.261649	-0.089069
C144	C	1.072317	0.238351	0.410931
C145	C	0.567620	-0.720438	0.089230
C146	C	1.067620	-0.220438	0.589230
C147	C	0.567106	-0.770853	0.089226
C148	C	1.067106	-0.270853	0.589226
C149	C	0.567113	-0.770829	-0.089121
C150	C	1.067113	-0.270829	0.410879
C151	C	0.567630	-0.720414	-0.089116
C152	C	1.067630	-0.220414	0.410884
C153	C	0.567880	-0.695219	0.000062
C154	C	1.067880	-0.195219	0.500062
C155	C	0.573405	-0.155782	-0.089051
C156	C	1.073405	0.344218	0.410949
C157	C	0.573925	-0.105367	-0.089038
C158	C	1.073925	0.394633	0.410962
C159	C	0.573915	-0.105395	0.089309
C160	C	1.073915	0.394605	0.589309
C161	C	0.573398	-0.155806	0.089296
C162	C	1.073398	0.344194	0.589296
C163	C	0.573141	-0.180999	0.000108
C164	C	1.073141	0.319001	0.500108
O165	O	0.572589	-0.235573	0.165067
O166	O	1.072589	0.264427	0.665067
O167	O	0.572580	-0.235562	-0.164901
O168	O	1.072580	0.264438	0.335099
C169	C	0.570250	-0.463297	-0.089089
C170	C	1.070250	0.036703	0.410911
C171	C	0.569986	-0.488513	0.000077
C172	C	1.069986	0.011487	0.500077
C173	C	0.570239	-0.463318	0.089249
C174	C	1.070239	0.036682	0.589249
C175	C	0.569472	-0.538928	0.000074
C176	C	1.069472	-0.038928	0.500074
C177	C	0.569219	-0.564123	-0.089099
C178	C	1.069219	-0.064123	0.410901
C179	C	0.569479	-0.538904	-0.178267
C180	C	1.069479	-0.038904	0.321733
C181	C	0.569996	-0.488492	-0.178261
C182	C	1.069996	0.011508	0.321739
C183	C	0.569979	-0.488538	0.178418
C184	C	1.069979	0.011462	0.678418
C185	C	0.569462	-0.538949	0.178405
C186	C	1.069462	-0.038949	0.678405
C187	C	0.569208	-0.564144	0.089233
C188	C	1.069208	-0.064144	0.589233
C189	C	0.658920	0.057701	0.000116
C190	C	1.158920	0.557701	0.500116
C191	C	0.712575	0.058254	0.000120
C192	C	1.212575	0.558254	0.500120
C193	C	0.566310	0.150296	0.000071
C194	C	1.066310	0.650296	0.500071
C195	C	0.566853	0.203952	0.000054
C196	C	1.066853	0.703952	0.500054
N197	N	0.570508	0.061884	0.254954
N198	N	1.070508	0.561884	0.754954
N199	N	0.570527	0.061893	-0.254757
N200	N	1.070527	0.561893	0.245243
C201	C	0.570520	0.061893	0.656245
C202	C	1.070520	0.561893	1.156245
C203	C	0.570515	0.061892	0.544594
C204	C	1.070515	0.561892	1.044594
C205	C	0.570514	0.061889	0.455603
C206	C	1.070514	0.561889	0.955603
C207	C	0.570509	0.061887	0.343945
C208	C	1.070509	0.561887	0.843945
H209	H	0.209021	-0.060930	0.000177
H210	H	0.709021	0.439070	0.500177
O211	O	0.338305	-0.027143	0.000114
O212	O	0.838305	0.472857	0.500114
H213	H	0.368541	-0.057529	0.000126
H214	H	0.868541	0.442471	0.500126
H215	H	-0.271683	-0.021675	0.000137
H216	H	0.228317	0.478325	0.500137
O217	O	0.566823	-0.798003	-0.185305
O218	O	1.066823	-0.298003	0.314695
H219	H	0.599877	-0.792888	-0.228082
H220	H	1.099877	-0.292888	0.271918
H221	H	-0.033676	-0.063394	0.000169
H222	H	0.466324	0.436606	0.500169
H223	H	-0.293803	0.138276	0.000096
H224	H	0.206197	0.638276	0.500096
O225	O	0.571789	-0.310117	0.274625
O226	O	1.071789	0.189883	0.774625
H227	H	0.604982	-0.291706	0.278902
H228	H	1.104982	0.208294	0.778902
O229	O	0.074995	0.197840	0.000058
O230	O	0.574995	0.697840	0.500058
H231	H	0.051737	0.199723	0.066734
H232	H	0.551737	0.699723	0.566734
H233	H	0.574124	-0.084872	0.161910
H234	H	1.074124	0.415128	0.661910
O235	O	0.569195	-0.566085	-0.274444
O236	O	1.069195	-0.066085	0.225556
H237	H	0.569463	-0.540085	-0.336457
H238	H	1.069463	-0.040085	0.163543
H239	H	0.434830	-0.014493	0.000094
H240	H	0.934830	0.485507	0.500094
H241	H	0.567845	-0.699886	-0.161730
H242	H	1.067845	-0.199886	0.338270
O243	O	-0.197287	0.150931	0.000092
O244	O	0.302713	0.650931	0.500092
H245	H	-0.174612	0.153282	-0.066583
H246	H	0.325388	0.653282	0.433417
H247	H	0.566898	-0.791380	0.161841
H248	H	1.066898	-0.291380	0.661841
O249	O	-0.171956	-0.032329	0.000154
O250	O	0.328044	0.467671	0.500154
H251	H	-0.193723	-0.063241	0.000154
H252	H	0.306277	0.436759	0.500154
H253	H	0.574142	-0.084839	-0.161657
H254	H	1.074142	0.415161	0.338343
H255	H	0.570212	-0.467966	-0.250876
H256	H	1.070212	0.032034	0.249124
H257	H	0.571764	-0.316732	-0.250860
H258	H	1.071764	0.183268	0.249140
O259	O	0.112515	-0.073581	0.000201
O260	O	0.612515	0.426419	0.500201
H261	H	0.142756	-0.103962	0.000229
H262	H	0.642756	0.396038	0.500229
O263	O	0.066045	-0.074047	0.000170
O264	O	0.566045	0.425953	0.500170
H265	H	0.089306	-0.075922	-0.066503
H266	H	0.589306	0.424078	0.433497
H267	H	0.570824	-0.408178	-0.250869
H268	H	1.070824	0.091822	0.249131
H269	H	0.573194	-0.176288	-0.161677
H270	H	1.073194	0.323712	0.338323
H271	H	0.569250	-0.559476	0.251027
H272	H	1.069250	-0.059476	0.751027
H273	H	0.567825	-0.699930	0.161854
H274	H	1.067825	-0.199930	0.661854
O275	O	0.028535	0.197365	0.000088
O276	O	0.528535	0.697365	0.500088
H277	H	-0.001705	0.227748	0.000093
H278	H	0.498295	0.727748	0.500093
O279	O	0.570262	-0.461370	0.274605
O280	O	1.070262	0.038630	0.774605
H281	H	0.537206	-0.466498	0.317366
H282	H	1.037206	0.033502	0.817366
O283	O	0.573114	-0.183009	0.185472
O284	O	1.073114	0.316991	0.685472
H285	H	0.573375	-0.157017	0.247479
H286	H	1.073375	0.342983	0.747479
H287	H	-0.067981	0.184713	0.000085
H288	H	0.432019	0.684713	0.500085
H289	H	0.570790	-0.408231	0.251055
H290	H	1.070790	0.091769	0.751055
H291	H	0.321264	0.144533	0.000064
H292	H	0.821264	0.644533	0.500064
O293	O	0.417769	0.157176	0.000047
O294	O	0.917769	0.657176	0.500047
H295	H	0.405164	0.178221	-0.066625
H296	H	0.905164	0.678221	0.433375
O297	O	0.179771	0.198902	0.000074
O298	O	0.679771	0.698902	0.500074
H299	H	0.149530	0.229285	0.000082
H300	H	0.649530	0.729285	0.500082
