data_functionalizedCrystal
_audit_creation_method	'MofGen! by Chris Wilmer'
_symmetry_space_group_name_H-M	'P1'
_symmetry_Int_Tables_number	1
_symmetry_cell_setting	triclinic
loop_
_symmetry_equiv_pos_as_xyz
  x,y,z
_cell_length_a	14.908571
_cell_length_b	29.839132
_cell_length_c	14.908308
_cell_angle_alpha	93.258850
_cell_angle_beta	89.824947
_cell_angle_gamma	93.258973
loop_
_atom_site_label
_atom_site_type_symbol
_atom_site_fract_x
_atom_site_fract_y
_atom_site_fract_z
Zn1	Zn	1.345095	0.234439	0.587514
Zn2	Zn	1.353615	0.305496	0.437133
Zn3	Zn	1.203418	0.225811	0.428514
Zn4	Zn	1.194643	0.304962	0.578785
O5	O	1.274193	0.267677	0.507987
O6	O	1.472048	0.247700	0.574826
O7	O	1.340929	0.291538	0.310166
O8	O	1.222319	0.164093	0.449651
O9	O	1.478308	0.299905	0.464342
O10	O	1.326408	0.170432	0.566468
O11	O	1.230580	0.232993	0.303834
O12	O	1.076431	0.232476	0.441188
O13	O	1.207363	0.298995	0.705767
O14	O	1.069984	0.290628	0.551591
O15	O	1.317900	0.247182	0.712180
O16	O	1.332420	0.368288	0.455878
O17	O	1.215624	0.367896	0.559949
C18	C	1.040583	0.260558	0.494508
C19	C	0.940643	0.257524	0.488762
C20	C	0.746189	0.312462	0.592776
C21	C	0.652285	0.309612	0.587381
C22	C	0.658932	0.248974	0.472583
C23	C	0.752835	0.251823	0.477978
C24	C	0.796460	0.283569	0.538075
C25	C	0.890365	0.286420	0.543465
C26	C	0.897009	0.225780	0.428672
C27	C	0.803106	0.222931	0.423278
C28	C	1.274018	0.384393	0.507923
C29	C	1.274024	0.434328	0.507930
C30	C	1.335046	0.744172	0.453846
C31	C	1.335131	0.931848	0.453872
O32	O	1.386919	0.956280	0.407866
N33	N	1.274286	0.955122	0.508007
C34	C	1.213420	0.931475	0.562144
O35	O	1.161676	0.955579	0.608196
C36	C	1.213340	0.743800	0.562122
C37	C	1.274183	0.720528	0.507977
C38	C	1.395885	0.720899	0.399706
C39	C	1.395860	0.673982	0.399697
C40	C	1.334996	0.650339	0.453828
C41	C	1.274158	0.673611	0.507968
C42	C	1.152479	0.720154	0.616263
C43	C	1.152466	0.673233	0.616255
C44	C	1.213309	0.649960	0.562110
C45	C	1.213269	0.603051	0.562089
N46	N	1.274114	0.579776	0.507954
C47	C	1.334978	0.603420	0.453823
C48	C	1.213465	1.030007	0.562149
C49	C	1.213483	1.076926	0.562154
C50	C	1.335196	1.077295	0.453883
C51	C	1.335172	1.030376	0.453874
C52	C	1.274310	1.006733	0.508015
C53	C	1.334920	0.504892	0.453807
C54	C	1.334887	0.457971	0.453800
C55	C	1.213178	0.457607	0.562073
C56	C	1.213207	0.504523	0.562078
C57	C	1.274086	0.528165	0.507942
O58	O	1.161515	0.578591	0.608078
O59	O	1.386727	0.579310	0.407792
C60	C	1.335071	0.791088	0.453856
C61	C	1.274233	0.814361	0.507996
C62	C	1.213369	0.790717	0.562127
C63	C	1.274252	0.861279	0.508000
C64	C	1.335115	0.884923	0.453870
C65	C	1.395960	0.861648	0.399735
C66	C	1.395935	0.814732	0.399725
C67	C	1.152525	0.813991	0.616262
C68	C	1.152554	0.860908	0.616266
C69	C	1.213417	0.884552	0.562135
C70	C	1.508715	0.274824	0.521519
C71	C	1.608654	0.277870	0.527285
C72	C	1.260702	0.273992	0.742510
C73	C	1.254953	0.276682	0.842450
C74	C	1.274359	1.150505	0.508050
C75	C	1.274347	1.100570	0.508023
C76	C	1.287683	0.261356	0.274379
C77	C	1.293606	0.258544	0.174449
C78	C	1.359250	0.227775	1.036927
C79	C	1.353851	0.230302	1.130830
C80	C	1.238753	0.284260	1.124159
C81	C	1.244152	0.281733	1.030257
C82	C	1.304403	0.253491	0.986644
C83	C	1.309806	0.250966	0.892740
C84	C	1.194704	0.304922	0.886071
C85	C	1.189305	0.307449	0.979974
H86	H	0.611358	0.333139	0.631925
O87	O	0.616403	0.218163	0.414262
C88	C	0.522741	0.221829	0.421270
H89	H	0.508189	0.256927	0.449815
H90	H	0.493406	0.195716	0.467765
C91	C	0.497584	0.170590	0.292502
C92	C	0.479712	0.213699	0.327553
H93	H	0.471041	0.165572	0.234694
H94	H	0.560686	0.168118	0.287781
H95	H	0.473138	0.148833	0.331256
H96	H	0.504168	0.235454	0.288805
H97	H	0.416613	0.216173	0.332265
O98	O	1.454847	0.651354	0.347003
C99	C	1.407051	0.621120	0.285937
H100	H	1.336564	0.632984	0.276238
H101	H	1.402327	0.586210	0.313542
C102	C	1.543010	0.604657	0.206956
C103	C	1.456439	0.619230	0.195038
H104	H	1.573476	0.603490	0.150887
H105	H	1.575212	0.625025	0.248099
H106	H	1.539061	0.575566	0.229963
H107	H	1.460388	0.648323	0.172043
H108	H	1.424238	0.598868	0.153889
H109	H	1.408313	0.204781	1.001417
O110	O	1.180293	0.311678	1.166676
C111	C	1.187267	0.308378	1.260337
H112	H	1.255949	0.296130	1.277174
H113	H	1.132451	0.283539	1.283910
C114	C	1.091800	0.369912	1.287381
C115	C	1.176159	0.354874	1.308061
H116	H	1.084944	0.398593	1.316820
H117	H	1.087098	0.372135	1.224280
H118	H	1.046129	0.349210	1.307026
H119	H	1.221828	0.375574	1.288406
H120	H	1.180868	0.352656	1.371160
H121	H	0.767573	0.197083	0.374351
H122	H	1.102905	0.653985	0.660345
H123	H	1.384495	0.524136	0.409726
H124	H	0.937950	0.202254	0.384129
H125	H	1.163667	0.523473	0.606170
O126	O	1.394081	0.435436	0.401178
C127	C	1.447790	0.466369	0.353390
H128	H	1.448769	0.500890	0.390409
H129	H	1.418851	0.468551	0.283180
C130	C	1.543027	0.408179	0.300558
C131	C	1.544235	0.450578	0.346030
H132	H	1.602517	0.398438	0.296013
H133	H	1.506840	0.387339	0.332750
H134	H	1.518907	0.410003	0.242054
H135	H	1.568344	0.448752	0.404536
H136	H	1.580428	0.471418	0.313847
O137	O	1.455044	0.743791	0.347034
C138	C	1.508745	0.713181	0.299273
H139	H	1.472077	0.678551	0.294018
H140	H	1.575109	0.711116	0.336189
C141	C	1.572325	0.771845	0.210787
C142	C	1.527286	0.729313	0.204327
H143	H	1.583766	0.781796	0.152221
H144	H	1.536149	0.792468	0.242966
H145	H	1.627623	0.770119	0.241554
H146	H	1.471984	0.731041	0.173570
H147	H	1.563453	0.708690	0.172140
O148	O	1.394363	1.007842	0.401258
C149	C	1.448064	1.038776	0.353465
H150	H	1.449036	1.073298	0.390481
H151	H	1.419121	1.040955	0.283255
C152	C	1.543312	0.980591	0.300634
C153	C	1.544513	1.022990	0.346102
H154	H	1.602805	0.970853	0.296088
H155	H	1.507131	0.959749	0.332830
H156	H	1.519189	0.982412	0.242131
H157	H	1.568625	1.021167	0.404608
H158	H	1.580699	1.043832	0.313916
O159	O	1.154341	1.099462	0.614826
C160	C	1.100608	1.068525	0.662583
H161	H	1.137244	1.036268	0.667840
H162	H	1.034242	1.060609	0.625662
C163	C	1.037076	1.128620	0.751064
C164	C	1.082077	1.089002	0.757528
H165	H	1.025641	1.141251	0.809629
H166	H	1.073274	1.149463	0.718887
H167	H	0.981776	1.122017	0.720293
H168	H	1.137380	1.095606	0.788288
H169	H	1.045888	1.068161	0.789712
O170	O	1.368424	0.223597	0.850335
C171	C	1.429571	0.249474	0.799330
H172	H	1.433451	0.285785	0.827925
H173	H	1.405858	0.248261	0.726560
C174	C	1.518388	0.185730	0.768170
C175	C	1.523160	0.230327	0.803295
H176	H	1.576118	0.173919	0.770612
H177	H	1.477191	0.168295	0.802530
H178	H	1.498624	0.184725	0.707531
H179	H	1.542913	0.231331	0.863936
H180	H	1.564363	0.247762	0.768946
H181	H	0.925883	0.312269	0.592398
H182	H	1.163901	1.010761	0.606238
H183	H	1.163621	0.438348	0.606143
O184	O	1.130908	0.334935	1.022392
C185	C	1.178930	0.366961	1.079662
H186	H	1.251369	0.371129	1.055447
H187	H	1.177955	0.355079	1.151015
C188	C	1.045878	0.407243	1.108285
C189	C	1.134848	0.412366	1.078539
H190	H	1.018685	0.435251	1.107596
H191	H	1.013524	0.385666	1.069704
H192	H	1.045078	0.397340	1.167744
H193	H	1.135646	0.422263	1.019077
H194	H	1.167201	0.433945	1.117110
H195	H	1.150046	0.325862	0.845121
O196	O	1.093359	0.883526	0.668733
C197	C	1.038295	0.907573	0.614170
H198	H	1.036855	0.891381	0.543025
H199	H	1.066291	0.943882	0.612712
C200	C	0.944040	0.926553	0.740021
C201	C	0.942265	0.906664	0.652642
H202	H	0.884805	0.925994	0.763754
H203	H	0.981139	0.910354	0.776783
H204	H	0.967374	0.956809	0.738795
H205	H	0.918942	0.876407	0.653870
H206	H	0.905159	0.922858	0.615881
H207	H	0.781709	0.338312	0.641704
H208	H	1.384754	1.096554	0.409808
H209	H	1.102930	0.739095	0.660350
H210	H	1.445479	0.795787	0.355635
O211	O	1.455217	0.884571	0.347205
C212	C	1.543668	0.876318	0.372126
H213	H	1.543486	0.843230	0.406790
H214	H	1.571264	0.904864	0.420134
C215	C	1.603481	0.914078	0.245096
C216	C	1.603258	0.873436	0.287665
H217	H	1.640240	0.912302	0.192998
H218	H	1.543890	0.919639	0.228308
H219	H	1.626475	0.937862	0.285112
H220	H	1.580253	0.849654	0.247653
H221	H	1.662846	0.867870	0.304445
H222	H	1.102963	0.794744	0.660343
H223	H	1.398511	0.209361	1.171767
