data_functionalizedCrystal
_audit_creation_method	'MofGen! by Chris Wilmer'
_symmetry_space_group_name_H-M	'P1'
_symmetry_Int_Tables_number	1
_symmetry_cell_setting	triclinic
loop_
_symmetry_equiv_pos_as_xyz
  x,y,z
_cell_length_a	18.215407
_cell_length_b	18.215399
_cell_length_c	17.077402
_cell_angle_alpha	90.031154
_cell_angle_beta	89.979673
_cell_angle_gamma	89.985640
loop_
_atom_site_label
_atom_site_type_symbol
_atom_site_fract_x
_atom_site_fract_y
_atom_site_fract_z
Zn1	Zn	1.125060	-0.416063	0.312551
Zn2	Zn	1.625060	0.083937	0.812551
Zn3	Zn	1.124979	-0.292995	0.443829
Zn4	Zn	1.624979	0.207005	0.943829
Zn5	Zn	1.001999	-0.293016	0.312575
Zn6	Zn	1.501999	0.206984	0.812575
Zn7	Zn	1.001963	-0.416026	0.443773
Zn8	Zn	1.501963	0.083974	0.943773
O9	O	1.063501	-0.354525	0.378182
O10	O	1.563501	0.145475	0.878182
O11	O	1.228034	-0.399745	0.329979
O12	O	1.728034	0.100255	0.829979
O13	O	1.108647	-0.190014	0.426452
O14	O	1.608647	0.309986	0.926452
O15	O	1.018373	-0.309363	0.202725
O16	O	1.518373	0.190637	0.702725
O17	O	1.227974	-0.309328	0.426428
O18	O	1.727974	0.190672	0.926428
O19	O	1.108785	-0.399765	0.202707
O20	O	1.608785	0.100235	0.702707
O21	O	1.018294	-0.190029	0.330020
O22	O	1.518294	0.309971	0.830020
O23	O	0.899010	-0.309326	0.329966
O24	O	1.399010	0.190674	0.829966
O25	O	1.018311	-0.519015	0.426332
O26	O	1.518311	-0.019015	0.926332
O27	O	0.898984	-0.399701	0.426356
O28	O	1.398984	0.100299	0.926356
O29	O	1.108750	-0.519043	0.329924
O30	O	1.608750	-0.019043	0.829924
O31	O	1.108612	-0.309291	0.553669
O32	O	1.608612	0.190709	1.053669
O33	O	1.018232	-0.399681	0.553627
O34	O	1.518232	0.100319	1.053627
C35	C	0.872294	-0.354512	0.378158
C36	C	1.372294	0.145488	0.878158
C37	C	0.790495	-0.354524	0.378167
C38	C	1.290495	0.145476	0.878167
C39	C	0.602331	-0.401679	0.328049
C40	C	1.102331	0.098321	0.828049
C41	C	0.525473	-0.401681	0.328056
C42	C	1.025473	0.098319	0.828056
C43	C	0.525422	-0.307384	0.428338
C44	C	1.025422	0.192616	0.928338
C45	C	0.602279	-0.307379	0.428326
C46	C	1.102279	0.192621	0.928326
C47	C	0.640732	-0.354530	0.378183
C48	C	1.140732	0.145470	0.878183
C49	C	0.487016	-0.354538	0.378201
C50	C	0.987016	0.145462	0.878201
C51	C	0.403682	-0.354541	0.378209
C52	C	0.903682	0.145459	0.878209
C53	C	0.724071	-0.354527	0.378174
C54	C	1.224071	0.145473	0.878174
C55	C	1.063535	-0.546478	0.378119
C56	C	1.563535	-0.046478	0.878119
C57	C	1.063550	-0.628277	0.378093
C58	C	1.563550	-0.128277	0.878093
C59	C	1.016543	-0.816480	0.327847
C60	C	1.516543	-0.316480	0.827847
C61	C	1.016556	-0.893339	0.327831
C62	C	1.516556	-0.393339	0.827831
C63	C	1.110645	-0.893312	0.428245
C64	C	1.610645	-0.393312	0.928245
C65	C	1.110628	-0.816455	0.428264
C66	C	1.610628	-0.316455	0.928264
C67	C	1.063578	-0.778041	0.378061
C68	C	1.563578	-0.278041	0.878061
C69	C	1.063608	-0.931757	0.378026
C70	C	1.563608	-0.431757	0.878026
C71	C	1.063622	-1.015091	0.378009
C72	C	1.563622	-0.515091	0.878009
C73	C	1.063563	-0.694702	0.378078
C74	C	1.563563	-0.194702	0.878078
C75	C	1.255453	-0.354538	0.378207
C76	C	1.755453	0.145462	0.878207
C77	C	1.337252	-0.354544	0.378218
C78	C	1.837252	0.145456	0.878218
C79	C	1.063430	-0.354496	0.582130
C80	C	1.563430	0.145504	1.082130
C81	C	1.063466	-0.354508	0.669380
C82	C	1.563466	0.145492	1.169380
C83	C	1.063508	-0.163319	0.378188
C84	C	1.563508	0.336681	0.878188
C85	C	1.063636	-0.081520	0.377994
C86	C	1.563636	0.418480	0.877994
C87	C	1.063592	-0.354571	0.173438
C88	C	1.563592	0.145429	0.673438
C89	C	1.063631	-0.354590	0.086188
C90	C	1.563631	0.145410	0.586188
C91	C	1.110575	-0.307492	0.710365
C92	C	1.610575	0.192508	1.210365
C93	C	1.110611	-0.307511	0.792346
C94	C	1.610611	0.192489	1.292346
C95	C	1.063534	-0.354542	0.833339
C96	C	1.563534	0.145458	1.333339
C97	C	1.016423	-0.401563	0.792348
C98	C	1.516423	0.098437	1.292348
C99	C	1.016392	-0.401547	0.710369
C100	C	1.516392	0.098453	1.210369
C101	C	1.016492	-0.401591	0.963218
C102	C	1.516492	0.098409	1.463218
C103	C	1.016522	-0.401606	1.045203
C104	C	1.516522	0.098394	1.545203
C105	C	1.110711	-0.307555	1.045195
C106	C	1.610711	0.192445	1.545195
C107	C	1.110679	-0.307539	0.963216
C108	C	1.610679	0.192461	1.463216
C109	C	1.063567	-0.354559	0.922230
C110	C	1.563567	0.145441	1.422230
H111	H	0.633546	-0.268980	0.469152
H112	H	1.133546	0.231020	0.969152
O113	O	0.970772	-0.447355	0.832132
O114	O	1.470772	0.052645	1.332132
C115	C	0.986791	-0.520713	0.812016
C116	C	1.486791	-0.020713	1.312016
H117	H	1.045572	-0.524476	0.789429
H118	H	1.545572	-0.024476	1.289429
H119	H	0.980450	-0.557074	0.865906
H120	H	1.480450	-0.057074	1.365906
H121	H	0.947305	-0.539908	0.764448
H122	H	1.447305	-0.039908	1.264448
O123	O	1.156357	-0.779029	0.476935
O124	O	1.656357	-0.279029	0.976935
C125	C	1.203909	-0.734598	0.432259
C126	C	1.703909	-0.234598	0.932259
H127	H	1.177976	-0.723103	0.372771
H128	H	1.677976	-0.223103	0.872771
H129	H	1.213741	-0.680541	0.464246
H130	H	1.713741	-0.180541	0.964246
H131	H	1.258459	-0.764218	0.423635
H132	H	1.758459	-0.264218	0.923635
H133	H	1.148952	-0.924598	0.469118
H134	H	1.648952	-0.424598	0.969118
O135	O	0.970662	-0.447293	0.923525
O136	O	1.470662	0.052707	1.423525
C137	C	0.929131	-0.488822	0.977283
C138	C	1.429131	0.011178	1.477283
H139	H	0.926619	-0.458685	1.035746
H140	H	1.426619	0.041315	1.535746
H141	H	0.871135	-0.496622	0.953636
H142	H	1.371135	0.003378	1.453636
H143	H	0.956053	-0.544737	0.985939
H144	H	1.456053	-0.044737	1.485939
O145	O	0.488057	-0.447416	0.279384
O146	O	0.988057	0.052584	0.779384
C147	C	0.411974	-0.437325	0.290156
C148	C	0.911974	0.062675	0.790156
H149	H	0.401452	-0.380488	0.315787
H150	H	0.901452	0.119512	0.815787
H151	H	0.382780	-0.442420	0.231368
H152	H	0.882780	0.057580	0.731368
H153	H	0.390168	-0.480907	0.332020
H154	H	0.890168	0.019093	0.832020
O155	O	0.970905	-0.779050	0.279113
O156	O	1.470905	-0.279050	0.779113
C157	C	0.980960	-0.702970	0.289908
C158	C	1.480960	-0.202970	0.789908
H159	H	1.037743	-0.692465	0.315620
H160	H	1.537743	-0.192465	0.815620
H161	H	0.975982	-0.673778	0.231117
H162	H	1.475982	-0.173778	0.731117
H163	H	0.937288	-0.681147	0.331714
H164	H	1.437288	-0.181147	0.831714
H165	H	0.978255	-0.924633	0.286943
H166	H	1.478255	-0.424633	0.786943
O167	O	1.156374	-0.261780	0.670669
O168	O	1.656374	0.238220	1.170669
C169	C	1.197948	-0.220275	0.724428
C170	C	1.697948	0.279725	1.224428
H171	H	1.200500	-0.250434	0.782838
H172	H	1.700500	0.249566	1.282838
H173	H	1.255927	-0.212469	0.700701
H174	H	1.755927	0.287531	1.200701
H175	H	1.171035	-0.164361	0.733215
H176	H	1.671035	0.335639	1.233215
H177	H	1.148971	-0.269226	0.825713
H178	H	1.648971	0.230774	1.325713
O179	O	0.970735	-0.447295	0.670516
O180	O	1.470735	0.052705	1.170516
C181	C	1.012590	-0.494841	0.623011
C182	C	1.512590	0.005159	1.123011
H183	H	1.070557	-0.499440	0.647669
H184	H	1.570557	0.000560	1.147669
H185	H	0.985940	-0.551454	0.622056
H186	H	1.485940	-0.051454	1.122056
H187	H	1.015118	-0.472076	0.560897
H188	H	1.515118	0.027924	1.060897
O189	O	1.156478	-0.261831	0.923515
O190	O	1.656478	0.238169	1.423515
C191	C	1.198056	-0.220321	0.977266
C192	C	1.698056	0.279679	1.477266
H193	H	1.200610	-0.250474	1.035680
H194	H	1.700610	0.249526	1.535680
H195	H	1.256034	-0.212520	0.953535
H196	H	1.756034	0.287480	1.453535
H197	H	1.171146	-0.164405	0.986049
H198	H	1.671146	0.335595	1.486049
H199	H	0.494104	-0.268996	0.469163
H200	H	0.994104	0.231004	0.969163
O201	O	1.156632	-0.262028	1.084995
O202	O	1.656632	0.237972	1.584995
C203	C	1.204145	-0.304041	1.132292
C204	C	1.704145	0.195959	1.632292
H205	H	1.208530	-0.362011	1.107536
H206	H	1.708530	0.137989	1.607536
H207	H	1.260836	-0.277555	1.133112
H208	H	1.760836	0.222445	1.633112
H209	H	1.181489	-0.306531	1.194472
H210	H	1.681489	0.193469	1.694472
O211	O	0.639571	-0.447500	0.279265
O212	O	1.139571	0.052500	0.779265
C213	C	0.589193	-0.489128	0.235031
C214	C	1.089193	0.010872	0.735031
H215	H	0.534398	-0.458991	0.232282
H216	H	1.034398	0.041009	0.732282
H217	H	0.611414	-0.497080	0.173191
H218	H	1.111414	0.002920	0.673191
H219	H	0.581029	-0.544974	0.263850
H220	H	1.081029	-0.044974	0.763850
O221	O	0.970899	-0.447329	1.085114
O222	O	1.470899	0.052671	1.585114
C223	C	1.012797	-0.494909	1.132450
C224	C	1.512797	0.005091	1.632450
H225	H	1.068587	-0.468997	1.144698
H226	H	1.568587	0.031003	1.644698
H227	H	0.982842	-0.504752	1.190119
H228	H	1.482842	-0.004752	1.690119
H229	H	1.020839	-0.549451	1.100814
H230	H	1.520839	-0.049451	1.600814
