data_functionalizedCrystal
_audit_creation_method	'MofGen! by Chris Wilmer'
_symmetry_space_group_name_H-M	'P1'
_symmetry_Int_Tables_number	1
_symmetry_cell_setting	triclinic
loop_
_symmetry_equiv_pos_as_xyz
  x,y,z
_cell_length_a	10.723024
_cell_length_b	10.723024
_cell_length_c	9.198806
_cell_angle_alpha	89.995977
_cell_angle_beta	90.002264
_cell_angle_gamma	95.532131
loop_
_atom_site_label
_atom_site_type_symbol
_atom_site_fract_x
_atom_site_fract_y
_atom_site_fract_z
O1	O	0.175025	-1.657187	0.120900
O2	O	0.191778	-1.294035	0.120900
O3	O	0.001825	-1.483988	0.120895
O4	O	0.364978	-1.467234	0.120906
O5	O	0.001824	-1.483974	-0.120890
O6	O	0.191777	-1.294021	-0.120885
O7	O	0.175023	-1.657173	-0.120885
Cu8	Cu	0.183400	-1.475596	-0.142962
Cu9	Cu	0.183402	-1.475612	0.142977
O10	O	0.364976	-1.467220	-0.120880
C11	C	0.190558	-1.247528	0.000008
C12	C	0.186911	-1.108974	0.000008
C13	C	0.293198	-1.033991	0.000011
C14	C	0.289431	-0.890788	0.000011
C15	C	-0.044675	-1.482762	0.000004
C16	C	-0.183229	-1.479114	0.000009
C17	C	-0.258212	-1.585401	0.000011
C18	C	-0.401415	-1.581634	0.000016
C19	C	0.411477	-1.468447	0.000014
C20	C	0.550031	-1.472094	0.000019
N21	N	0.183398	-1.475593	-0.344076
C22	C	0.176243	-0.703680	0.000008
C23	C	0.179891	-0.842234	0.000008
C24	C	0.103469	-1.555546	-0.583679
C25	C	0.103471	-1.555529	-0.416267
N26	N	0.183394	-1.475625	0.344091
H27	H	0.093125	-1.067152	0.000041
H28	H	0.035045	-1.623987	-0.645777
H29	H	-0.385544	-1.381099	0.000007
H30	H	-0.225051	-1.385328	0.000019
H31	H	-0.465848	-1.672624	0.000012
H32	H	0.035039	-1.623948	-0.354152
H33	H	0.251824	-1.407161	-0.406181
Cl34	Cl	0.289053	-1.369967	-0.560042
H35	H	0.386984	-1.075814	0.000006
H36	H	0.380421	-0.826355	0.000019
H37	H	-0.216390	-1.679187	0.000002
H38	H	0.088896	-0.906659	0.000014
