data_functionalizedCrystal
_audit_creation_method	'MofGen! by Chris Wilmer'
_symmetry_space_group_name_H-M	'P1'
_symmetry_Int_Tables_number	1
_symmetry_cell_setting	triclinic
loop_
_symmetry_equiv_pos_as_xyz
  x,y,z
_cell_length_a	14.519709
_cell_length_b	12.837942
_cell_length_c	11.295483
_cell_angle_alpha	85.469583
_cell_angle_beta	94.107320
_cell_angle_gamma	89.254543
loop_
_atom_site_label
_atom_site_type_symbol
_atom_site_fract_x
_atom_site_fract_y
_atom_site_fract_z
O1	O	-1.241202	-0.128949	-0.098867
O2	O	-0.741202	0.371051	0.401133
O3	O	-0.974110	-0.144951	-0.098903
O4	O	-0.474110	0.355049	0.401097
O5	O	-1.101733	0.013963	-0.098879
O6	O	-0.601733	0.513963	0.401121
O7	O	-1.113579	-0.287864	-0.098892
O8	O	-0.613579	0.212136	0.401108
O9	O	-1.090522	0.000027	0.099170
O10	O	-0.590522	0.500027	0.599170
O11	O	-0.962899	-0.158888	0.099145
O12	O	-0.462899	0.341112	0.599145
O13	O	-1.229991	-0.142885	0.099181
O14	O	-0.729991	0.357115	0.599181
Cu15	Cu	-1.095421	-0.152159	0.117247
Cu16	Cu	-0.595421	0.347841	0.617247
Cu17	Cu	-1.108680	-0.135678	-0.116969
Cu18	Cu	-0.608680	0.364322	0.383031
O19	O	-1.102368	-0.301800	0.099157
O20	O	-0.602368	0.198200	0.599157
C21	C	-1.092126	0.045623	0.000144
C22	C	-0.592126	0.545623	0.500144
C23	C	-1.080192	0.160723	0.000141
C24	C	-0.580192	0.660723	0.500141
C25	C	-0.934081	-0.151173	0.000116
C26	C	-0.434081	0.348827	0.500116
C27	C	-0.831507	-0.148937	0.000103
C28	C	-0.331507	0.351063	0.500103
C29	C	-1.270021	-0.136663	0.000159
C30	C	-0.770021	0.363337	0.500159
C31	C	-1.372595	-0.138899	0.000165
C32	C	-0.872595	0.361101	0.500165
C33	C	-0.455897	-0.140712	0.000157
C34	C	0.044103	0.359288	0.500157
C35	C	-0.560403	-0.142996	0.000142
C36	C	-0.060403	0.357004	0.500142
C37	C	-0.643699	-0.144824	0.000129
C38	C	-0.143699	0.355176	0.500129
C39	C	-0.748212	-0.147109	0.000115
C40	C	-0.248212	0.352891	0.500115
C41	C	-1.111975	-0.333460	0.000131
C42	C	-0.611975	0.166540	0.500131
C43	C	-1.123909	-0.448558	0.000127
C44	C	-0.623909	0.051442	0.500127
N45	N	-1.086102	-0.163750	0.281981
N46	N	-0.586102	0.336250	0.781981
C47	C	-1.223663	0.401415	0.000135
C48	C	-0.723663	0.901415	0.500135
C49	C	-1.212454	0.509562	0.000132
C50	C	-0.712454	1.009562	0.500132
C51	C	-1.046567	0.485166	0.000122
C52	C	-0.546567	0.985166	0.500122
C53	C	-1.057776	0.377019	0.000125
C54	C	-0.557776	0.877019	0.500125
C55	C	-1.146327	0.335148	0.000134
C56	C	-0.646327	0.835148	0.500134
C57	C	-1.157534	0.226998	0.000146
C58	C	-0.657534	0.726998	0.500146
C59	C	-0.991648	0.202605	0.000127
C60	C	-0.491648	0.702605	0.500127
C61	C	-0.980440	0.310751	0.000124
C62	C	-0.480440	0.810751	0.500124
N63	N	-1.118005	-0.124078	-0.281703
N64	N	-0.618005	0.375922	0.218297
C65	C	-1.185082	-0.040579	0.531290
C66	C	-0.685082	0.459421	1.031290
C67	C	-1.178047	-0.049346	0.655952
C68	C	-0.678047	0.450654	1.155952
C69	C	-1.064993	-0.190046	0.655971
C70	C	-0.564993	0.309954	1.155971
C71	C	-1.072028	-0.181279	0.531308
C72	C	-0.572028	0.318721	1.031308
C73	C	-1.132075	-0.106544	0.468972
C74	C	-0.632075	0.393456	0.968972
C75	C	-1.139115	-0.097782	0.344308
C76	C	-0.639115	0.402218	0.844308
C77	C	-1.026057	-0.238477	0.344328
C78	C	-0.526057	0.261523	0.844328
C79	C	-1.019022	-0.247244	0.468991
C80	C	-0.519022	0.252756	0.968991
H81	H	-1.229636	0.192909	0.000157
H82	H	-0.729636	0.692909	0.500157
H83	H	-1.016097	-0.250887	0.706741
H84	H	-0.516097	0.249113	1.206741
H85	H	-0.974474	0.519278	0.000102
H86	H	-0.474474	1.019278	0.500102
H87	H	-0.908344	0.344859	0.000112
H88	H	-0.408344	0.844859	0.500112
C89	C	-0.906575	0.129709	0.000116
C90	C	-0.406575	0.629709	0.500116
H91	H	-0.925931	0.059303	0.000111
H92	H	-0.425931	0.559303	0.500111
H93	H	-0.866748	0.137565	0.069173
H94	H	-0.366748	0.637565	0.569173
H95	H	-0.874572	0.147278	-0.068963
H96	H	-0.374572	0.647278	0.431037
H97	H	-0.982898	-0.292193	0.293575
H98	H	-0.482898	0.207807	0.793575
H99	H	-1.295764	0.367323	0.000154
H100	H	-0.795764	0.867323	0.500154
C101	C	-1.297524	0.582453	0.000140
C102	C	-0.797524	1.082453	0.500140
H103	H	-1.351863	0.542022	0.000154
H104	H	-0.851863	1.042022	0.500154
H105	H	-1.300508	0.630007	-0.068923
H106	H	-0.800508	1.130007	0.431077
H107	H	-1.292691	0.620288	0.069214
H108	H	-0.792691	1.120288	0.569214
H109	H	-0.970129	-0.308090	0.519759
H110	H	-0.470129	0.191910	1.019759
H111	H	-1.188011	-0.036932	0.293555
H112	H	-0.688011	0.463068	0.793555
H113	H	-1.233981	0.020267	0.480535
H114	H	-0.733981	0.520267	0.980535
H115	H	-1.221208	0.004371	0.706688
H116	H	-0.721208	0.504371	1.206688
