data_functionalizedCrystal
_audit_creation_method	'MofGen! by Chris Wilmer'
_symmetry_space_group_name_H-M	'P1'
_symmetry_Int_Tables_number	1
_symmetry_cell_setting	triclinic
loop_
_symmetry_equiv_pos_as_xyz
  x,y,z
_cell_length_a	12.759401
_cell_length_b	16.120484
_cell_length_c	12.759393
_cell_angle_alpha	92.862621
_cell_angle_beta	89.982620
_cell_angle_gamma	92.925560
loop_
_atom_site_label
_atom_site_type_symbol
_atom_site_fract_x
_atom_site_fract_y
_atom_site_fract_z
Zn1	Zn	1.584960	-0.331851	-0.615146
Zn2	Zn	1.575915	-0.471289	-0.448359
Zn3	Zn	1.409262	-0.331895	-0.439488
Zn4	Zn	1.400312	-0.471225	-0.623996
O5	O	1.492612	-0.401565	-0.531747
O6	O	1.730780	-0.350357	-0.593029
O7	O	1.553768	-0.452844	-0.300164
O8	O	1.440101	-0.215224	-0.455373
O9	O	1.724135	-0.452801	-0.470492
O10	O	1.569185	-0.215192	-0.584428
O11	O	1.431330	-0.350432	-0.293646
O12	O	1.261055	-0.350369	-0.463955
O13	O	1.424845	-0.452691	-0.769840
O14	O	1.254478	-0.452734	-0.599512
O15	O	1.560505	-0.350294	-0.763338
O16	O	1.545089	-0.587946	-0.479074
O17	O	1.416074	-0.587899	-0.608114
C18	C	1.219646	-0.401550	-0.531732
C19	C	1.102868	-0.401563	-0.531751
C20	C	1.478657	-0.618172	-0.545539
C21	C	1.472783	-0.710838	-0.551475
C22	C	1.044604	-0.454950	-0.602230
C23	C	0.934879	-0.454961	-0.602242
C24	C	0.941693	-0.348196	-0.461287
C25	C	1.051416	-0.348181	-0.461281
C26	C	1.040669	-0.516593	-0.683607
C27	C	0.930944	-0.516603	-0.683619
C28	C	1.462065	-0.880498	-0.562333
C29	C	1.523347	-0.921791	-0.501178
C30	C	1.517384	-1.016197	-0.507219
C31	C	1.468028	-0.786085	-0.556293
C32	C	1.766644	-0.401581	-0.531763
C33	C	1.883421	-0.401588	-0.531770
C34	C	1.492686	-0.401480	-0.805775
C35	C	1.492717	-0.401444	-0.922549
C36	C	1.506650	-0.184112	-0.517924
C37	C	1.512632	-0.091447	-0.512033
C38	C	1.428993	-0.348108	-0.974023
C39	C	1.429026	-0.348083	-1.083746
C40	C	1.556517	-0.454733	-1.090511
C41	C	1.556478	-0.454761	-0.980791
C42	C	1.355390	-0.286533	-0.970118
C43	C	1.355423	-0.286508	-1.079841
C44	C	1.492603	-0.401590	-0.258781
C45	C	1.492790	-0.401391	-0.141992
H46	H	1.098851	-0.304703	-0.403897
O47	O	1.591184	-0.879261	-0.433318
C48	C	1.659115	-0.745021	-0.365419
C49	C	1.582236	-0.793087	-0.442299
H50	H	1.651922	-0.675341	-0.372669
H51	H	1.639643	-0.762092	-0.281738
H52	H	1.742759	-0.762054	-0.384987
H53	H	1.498566	-0.776079	-0.422827
H54	H	1.601798	-0.776011	-0.525958
H55	H	1.405125	-0.916045	-0.619223
O56	O	1.261531	-0.314103	-1.122377
C57	C	1.160626	-0.343677	-1.280662
C58	C	1.267009	-0.312415	-1.232626
H59	H	1.165012	-0.342306	-1.369803
H60	H	1.141277	-0.410072	-1.257360
H61	H	1.096799	-0.301737	-1.250366
H62	H	1.330904	-0.354293	-1.262897
H63	H	1.286267	-0.246006	-1.255922
O64	O	0.890395	-0.593632	-0.662542
C65	C	0.781059	-0.712679	-0.723164
C66	C	0.826930	-0.625467	-0.747178
H67	H	0.729720	-0.738436	-0.791567
H68	H	0.847730	-0.755762	-0.711321
H69	H	0.731710	-0.708378	-0.648778
H70	H	0.876268	-0.629688	-0.821573
H71	H	0.760211	-0.582418	-0.758955
H72	H	1.608352	-0.498204	-0.938886
H73	H	1.608430	-0.498141	-1.137944
O74	O	0.892092	-0.488980	-0.774048
C75	C	0.790429	-0.386862	-0.853528
C76	C	0.834391	-0.418045	-0.751049
H77	H	0.743750	-0.329517	-0.834967
H78	H	0.858012	-0.370150	-0.908322
H79	H	0.736917	-0.437879	-0.893161
H80	H	0.887888	-0.367065	-0.711328
H81	H	0.766757	-0.434782	-0.696329
H82	H	1.381382	-0.221929	-1.105519
H83	H	1.272891	-0.303823	-0.941443
O84	O	1.394704	-0.213308	-0.924911
C85	C	1.378178	-0.065177	-0.903779
C86	C	1.333529	-0.148046	-0.955021
H87	H	1.328752	-0.012388	-0.928121
H88	H	1.376284	-0.068513	-0.814755
H89	H	1.462611	-0.053274	-0.930585
H90	H	1.249082	-0.159999	-0.928298
H91	H	1.335504	-0.144669	-1.044038
O92	O	0.891542	-0.296429	-0.392866
C93	C	0.725530	-0.249102	-0.330442
C94	C	0.782188	-0.307781	-0.407974
H95	H	0.637109	-0.258247	-0.342644
H96	H	0.746059	-0.263666	-0.246600
H97	H	0.751492	-0.181900	-0.344734
H98	H	0.756258	-0.375003	-0.393778
H99	H	0.761658	-0.293145	-0.491789
O100	O	1.076391	-0.589789	-0.653363
C101	C	1.031117	-0.727305	-0.596385
C102	C	0.990519	-0.644462	-0.630646
H103	H	0.961711	-0.771525	-0.577988
H104	H	1.079522	-0.756382	-0.662363
H105	H	1.082188	-0.715311	-0.523361
H106	H	0.939406	-0.656385	-0.703646
H107	H	0.942172	-0.615411	-0.564606
H108	H	1.071580	-0.499373	-0.763915
