data_functionalizedCrystal
_audit_creation_method	'MofGen! by Chris Wilmer'
_symmetry_space_group_name_H-M	'P1'
_symmetry_Int_Tables_number	1
_symmetry_cell_setting	triclinic
loop_
_symmetry_equiv_pos_as_xyz
  x,y,z
_cell_length_a	13.339070
_cell_length_b	14.044220
_cell_length_c	11.804365
_cell_angle_alpha	102.927057
_cell_angle_beta	74.875130
_cell_angle_gamma	104.409086
loop_
_atom_site_label
_atom_site_type_symbol
_atom_site_fract_x
_atom_site_fract_y
_atom_site_fract_z
O1	O	1.405383	0.472644	-0.099085
O2	O	1.105089	0.408756	-0.099076
O3	O	1.250726	0.301532	-0.099069
O4	O	1.259745	0.579868	-0.099093
O5	O	1.212382	0.329720	0.098985
O6	O	1.066744	0.436945	0.098978
O7	O	1.367038	0.500832	0.098969
Cu8	Cu	1.213390	0.471462	0.117057
Cu9	Cu	1.258737	0.438126	-0.117165
O10	O	1.221401	0.608057	0.098961
C11	C	1.047253	0.412058	-0.000048
C12	C	0.932048	0.379890	-0.000044
C13	C	0.589834	0.630011	-0.000084
C14	C	0.698075	0.660237	-0.000092
C15	C	0.756574	0.590153	-0.000079
C16	C	0.706820	0.489838	-0.000060
C17	C	0.598569	0.459607	-0.000062
C18	C	0.765309	0.419749	-0.000057
C19	C	0.715555	0.319434	-0.000038
C20	C	0.607315	0.289209	-0.000040
C21	C	0.548817	0.359293	-0.000052
C22	C	0.873560	0.449980	-0.000055
C23	C	0.882295	0.279576	-0.000034
C24	C	0.774054	0.249350	-0.000026
C25	C	1.227608	0.279274	-0.000041
C26	C	1.215837	0.170953	-0.000039
C27	C	1.194321	-0.027371	-0.000056
C28	C	1.277803	-0.063049	-0.000062
C29	C	1.265832	-0.173403	-0.000071
C30	C	1.206291	0.082993	-0.000047
C31	C	1.424874	0.497530	-0.000062
C32	C	1.540081	0.529697	-0.000074
C33	C	1.244520	0.630314	-0.000069
C34	C	1.256292	0.738634	-0.000078
N35	N	1.181503	0.494911	0.281796
N36	N	1.290631	0.414672	-0.281904
C37	C	1.367201	0.358346	0.655754
C38	C	1.391322	0.340602	0.531094
C39	C	1.338869	0.379178	0.468763
C40	C	1.262292	0.435500	0.531106
C41	C	1.238175	0.453251	0.655778
C42	C	1.209842	0.474083	0.468787
C43	C	1.133265	0.530405	0.531129
C44	C	1.109151	0.548153	0.655790
C45	C	1.161604	0.509578	0.718120
C46	C	1.233960	0.456332	0.344115
C47	C	1.104933	0.551237	0.344138
C48	C	1.080812	0.568980	0.468799
H49	H	0.929926	0.222507	-0.000029
H50	H	1.358282	-0.010728	-0.000144
H51	H	1.113865	-0.079700	-0.000056
H52	H	1.296309	0.410475	0.293367
H53	H	0.733530	0.167670	-0.000021
O54	O	1.418109	0.320713	0.716176
C55	C	1.398461	0.215823	0.685761
H56	H	1.376049	0.192526	0.595249
H57	H	1.472859	0.187922	0.681500
H58	H	1.330588	0.182203	0.755936
H59	H	1.358512	0.364729	0.367259
O60	O	0.532845	0.697959	-0.000046
C61	C	0.426645	0.649759	-0.000080
H62	H	0.408361	0.577747	0.037427
H63	H	0.371575	0.700864	0.057409
H64	H	0.414123	0.631691	-0.095099
H65	H	1.046806	0.594023	0.706549
H66	H	1.453671	0.294747	0.480339
H67	H	0.460677	0.334688	-0.000045
O68	O	1.138011	0.526870	0.839219
C69	C	1.059201	0.584880	0.880883
H70	H	1.012900	0.575327	0.809052
H71	H	1.002842	0.559447	0.964292
H72	H	1.098131	0.666770	0.902996
O73	O	1.006352	0.623569	0.529497
C74	C	0.923775	0.564980	0.601607
H75	H	0.954587	0.502539	0.620271
H76	H	0.894081	0.613662	0.689277
H77	H	0.855884	0.531365	0.553586
O78	O	0.746306	0.757683	-0.000270
C79	C	0.737067	0.787504	-0.102869
H80	H	0.666341	0.736450	-0.137056
H81	H	0.724885	0.867692	-0.079817
H82	H	0.812502	0.782487	-0.174696
O83	O	0.921972	0.547413	0.000087
C84	C	0.964440	0.584611	0.102674
H85	H	0.977830	0.520037	0.136886
H86	H	1.043175	0.638642	0.079596
H87	H	0.906658	0.625232	0.174492
O88	O	0.559135	0.191712	-0.000188
C89	C	0.608091	0.132669	-0.102770
H90	H	0.692063	0.173977	-0.136969
H91	H	0.611327	0.059046	-0.079690
H92	H	0.560473	0.117242	-0.174599
O93	O	0.861699	0.619688	-0.000026
C94	C	0.893075	0.723251	-0.000073
H95	H	0.820960	0.759415	0.037408
H96	H	0.954088	0.756838	0.057431
H97	H	0.929549	0.737245	-0.095093
O98	O	1.054144	0.588775	0.283475
C99	C	1.128992	0.653047	0.211365
H100	H	1.210204	0.633083	0.192674
H101	H	1.104084	0.644529	0.123708
H102	H	1.133213	0.733500	0.259400
