data_functionalizedCrystal
_audit_creation_method	'MofGen! by Chris Wilmer'
_symmetry_space_group_name_H-M	'P1'
_symmetry_Int_Tables_number	1
_symmetry_cell_setting	triclinic
loop_
_symmetry_equiv_pos_as_xyz
  x,y,z
_cell_length_a	15.944499
_cell_length_b	14.519709
_cell_length_c	13.596369
_cell_angle_alpha	90.006934
_cell_angle_beta	89.992083
_cell_angle_gamma	96.421123
loop_
_atom_site_label
_atom_site_type_symbol
_atom_site_fract_x
_atom_site_fract_y
_atom_site_fract_z
O1	O	1.114724	-0.118716	-0.081852
O2	O	1.364724	0.131284	0.168148
O3	O	1.614724	0.381284	0.418148
O4	O	1.864724	0.631284	0.668148
O5	O	0.870190	-0.133430	-0.081842
O6	O	1.120190	0.116570	0.168158
O7	O	1.370190	0.366570	0.418158
O8	O	1.620190	0.616570	0.668158
O9	O	0.998941	0.008178	-0.081839
O10	O	1.248941	0.258178	0.168161
O11	O	1.498941	0.508178	0.418161
O12	O	1.748941	0.758178	0.668161
O13	O	0.985974	-0.260324	-0.081856
O14	O	1.235974	-0.010324	0.168144
O15	O	1.485974	0.239676	0.418144
O16	O	1.735974	0.489676	0.668144
O17	O	0.998928	0.008186	0.081744
O18	O	1.248928	0.258186	0.331744
O19	O	1.498928	0.508186	0.581744
O20	O	1.748928	0.758186	0.831744
O21	O	0.870177	-0.133423	0.081741
O22	O	1.120177	0.116577	0.331741
O23	O	1.370177	0.366577	0.581741
O24	O	1.620177	0.616577	0.831741
O25	O	1.114711	-0.118708	0.081730
O26	O	1.364711	0.131292	0.331730
O27	O	1.614711	0.381292	0.581730
O28	O	1.864711	0.631292	0.831730
Zn29	Zn	0.992442	-0.126064	0.107708
Zn30	Zn	1.242442	0.123936	0.357708
Zn31	Zn	1.492442	0.373936	0.607708
Zn32	Zn	1.742442	0.623936	0.857708
Zn33	Zn	0.992459	-0.126074	-0.107819
Zn34	Zn	1.242459	0.123926	0.142181
Zn35	Zn	1.492459	0.373926	0.392181
Zn36	Zn	1.742459	0.623926	0.642181
O37	O	0.985961	-0.260317	0.081727
O38	O	1.235961	-0.010317	0.331727
O39	O	1.485961	0.239683	0.581727
O40	O	1.735961	0.489683	0.831727
C41	C	0.838888	-0.132824	-0.000049
C42	C	1.088888	0.117176	0.249951
C43	C	1.338888	0.367176	0.499951
C44	C	1.588888	0.617176	0.749951
C45	C	0.745637	-0.131018	-0.000045
C46	C	0.995637	0.118982	0.249955
C47	C	1.245637	0.368982	0.499955
C48	C	1.495637	0.618982	0.749955
C49	C	0.454220	-0.213289	-0.000064
C50	C	0.704220	0.036711	0.249936
C51	C	0.954220	0.286711	0.499936
C52	C	1.204220	0.536711	0.749936
C53	C	0.515194	-0.170526	-0.080718
C54	C	0.765194	0.079474	0.169282
C55	C	1.015194	0.329474	0.419282
C56	C	1.265194	0.579474	0.669282
C57	C	0.409991	-0.124456	-0.000067
C58	C	0.659991	0.125544	0.249933
C59	C	0.909991	0.375544	0.499933
C60	C	1.159991	0.625544	0.749933
C61	C	0.515167	-0.170495	0.080562
C62	C	0.765167	0.079505	0.330562
C63	C	1.015167	0.329505	0.580562
C64	C	1.265167	0.579505	0.830562
C65	C	0.574905	-0.127685	-0.000054
C66	C	0.824905	0.122315	0.249946
C67	C	1.074905	0.372315	0.499946
C68	C	1.324905	0.622315	0.749946
C69	C	0.469736	-0.081669	-0.080787
C70	C	0.719736	0.168331	0.169213
C71	C	0.969736	0.418331	0.419213
C72	C	1.219736	0.668331	0.669213
C73	C	0.469703	-0.081650	0.080565
C74	C	0.719703	0.168350	0.330565
C75	C	0.969703	0.418350	0.580565
C76	C	1.219703	0.668350	0.830565
C77	C	0.530659	-0.038823	-0.000109
C78	C	0.780659	0.211177	0.249891
C79	C	1.030659	0.461177	0.499891
C80	C	1.280659	0.711177	0.749891
C81	C	0.314988	-0.122599	-0.000075
C82	C	0.564988	0.127401	0.249925
C83	C	0.814988	0.377401	0.499925
C84	C	1.064988	0.627401	0.749925
C85	C	0.669906	-0.129536	-0.000053
C86	C	0.919906	0.120464	0.249947
C87	C	1.169906	0.370464	0.499947
C88	C	1.419906	0.620464	0.749947
C89	C	0.998330	0.042540	-0.000047
C90	C	1.248330	0.292540	0.249953
C91	C	1.498330	0.542540	0.499953
C92	C	1.748330	0.792540	0.749953
C93	C	0.996519	0.144918	-0.000046
C94	C	1.246519	0.394918	0.249954
C95	C	1.496519	0.644918	0.499954
C96	C	1.746519	0.894918	0.749954
C97	C	1.146013	-0.119315	-0.000065
C98	C	1.396013	0.130685	0.249935
C99	C	1.646013	0.380685	0.499935
C100	C	1.896013	0.630685	0.749935
C101	C	1.239264	-0.121121	-0.000075
C102	C	1.489264	0.128879	0.249925
C103	C	1.739264	0.378879	0.499925
C104	C	1.989264	0.628879	0.749925
C105	C	0.986572	-0.294679	-0.000067
C106	C	1.236572	-0.044679	0.249933
C107	C	1.486572	0.205321	0.499933
C108	C	1.736572	0.455321	0.749933
C109	C	0.988383	-0.397057	-0.000074
C110	C	1.238383	-0.147057	0.249926
C111	C	1.488383	0.102943	0.499926
C112	C	1.738383	0.352943	0.749926
N113	N	0.992437	-0.126057	0.254800
N114	N	1.242437	0.123943	0.504800
N115	N	1.492437	0.373943	0.754800
N116	N	1.742437	0.623943	1.004800
C117	C	0.989852	0.519801	-0.000072
C118	C	1.239852	0.769801	0.249928
C119	C	1.489852	1.019801	0.499928
C120	C	1.739852	1.269801	0.749928
C121	C	0.991704	0.415497	-0.000064
C122	C	1.241704	0.665497	0.249936
C123	C	1.491704	0.915497	0.499936
C124	C	1.741704	1.165497	0.749936
C125	C	0.993185	0.332363	-0.000058
C126	C	1.243185	0.582363	0.249942
C127	C	1.493185	0.832363	0.499942
C128	C	1.743185	1.082363	0.749942
C129	C	0.995037	0.228052	-0.000052
C130	C	1.245037	0.478052	0.249948
C131	C	1.495037	0.728052	0.499948
C132	C	1.745037	0.978052	0.749948
N133	N	0.992471	-0.126074	-0.254911
N134	N	1.242471	0.123926	-0.004911
N135	N	1.492471	0.373926	0.245089
N136	N	1.742471	0.623926	0.495089
C137	C	0.992458	-0.126075	0.656091
C138	C	1.242458	0.123925	0.906091
C139	C	1.492458	0.373925	1.156091
C140	C	1.742458	0.623925	1.406091
C141	C	0.992450	-0.126073	0.544440
C142	C	1.242450	0.123927	0.794440
C143	C	1.492450	0.373927	1.044440
C144	C	1.742450	0.623927	1.294440
C145	C	0.992448	-0.126067	0.455449
C146	C	1.242448	0.123933	0.705449
C147	C	1.492448	0.373933	0.955449
C148	C	1.742448	0.623933	1.205449
C149	C	0.992439	-0.126063	0.343790
C150	C	1.242439	0.123937	0.593790
C151	C	1.492439	0.373937	0.843790
C152	C	1.742439	0.623937	1.093790
H153	H	0.420997	-0.287010	-0.000147
H154	H	0.670997	-0.037010	0.249853
H155	H	0.920997	0.212990	0.499853
H156	H	1.170997	0.462990	0.749853
N157	N	0.541823	-0.220272	0.170882
N158	N	0.791823	0.029728	0.420882
N159	N	1.041823	0.279728	0.670882
N160	N	1.291823	0.529728	0.920882
H161	H	0.581822	-0.176618	0.211300
H162	H	0.831822	0.073382	0.461300
H163	H	1.081822	0.323382	0.711300
H164	H	1.331822	0.573382	0.961300
H165	H	0.571047	-0.275399	0.150221
H166	H	0.821047	-0.025399	0.400221
H167	H	1.071047	0.224601	0.650221
H168	H	1.321047	0.474601	0.900221
N169	N	0.541907	-0.220283	-0.171046
N170	N	0.791907	0.029717	0.078954
N171	N	1.041907	0.279717	0.328954
N172	N	1.291907	0.529717	0.578954
H173	H	0.524573	-0.187386	-0.231957
H174	H	0.774573	0.062614	0.018043
H175	H	1.024573	0.312614	0.268043
H176	H	1.274573	0.562614	0.518043
H177	H	0.513819	-0.286173	-0.170911
H178	H	0.763819	-0.036173	0.079089
H179	H	1.013819	0.213827	0.329089
H180	H	1.263819	0.463827	0.579089
H181	H	0.449708	-0.044135	-0.149051
H182	H	0.699708	0.205865	0.100949
H183	H	0.949708	0.455865	0.350949
H184	H	1.199708	0.705865	0.600949
N185	N	0.574462	0.058917	-0.000143
N186	N	0.824462	0.308917	0.249857
N187	N	1.074462	0.558917	0.499857
N188	N	1.324462	0.808917	0.749857
H189	H	0.557951	0.092339	-0.061085
H190	H	0.807951	0.342339	0.188915
H191	H	1.057951	0.592339	0.438915
H192	H	1.307951	0.842339	0.688915
H193	H	0.637594	0.057088	0.000476
H194	H	0.887594	0.307088	0.250476
H195	H	1.137594	0.557088	0.500476
H196	H	1.387594	0.807088	0.750476
N197	N	0.442967	-0.031920	0.170892
N198	N	0.692967	0.218080	0.420892
N199	N	0.942967	0.468080	0.670892
N200	N	1.192967	0.718080	0.920892
H201	H	0.414691	0.023903	0.150347
H202	H	0.664691	0.273903	0.400347
H203	H	0.914691	0.523903	0.650347
H204	H	1.164691	0.773903	0.900347
H205	H	0.494245	-0.011168	0.212222
H206	H	0.744245	0.238832	0.462222
H207	H	0.994245	0.488832	0.712222
H208	H	1.244245	0.738832	0.962222
