data_functionalizedCrystal
_audit_creation_method	'MofGen! by Chris Wilmer'
_symmetry_space_group_name_H-M	'P1'
_symmetry_Int_Tables_number	1
_symmetry_cell_setting	triclinic
loop_
_symmetry_equiv_pos_as_xyz
  x,y,z
_cell_length_a	14.971486
_cell_length_b	14.853567
_cell_length_c	13.448316
_cell_angle_alpha	89.997194
_cell_angle_beta	89.998199
_cell_angle_gamma	83.624529
loop_
_atom_site_label
_atom_site_type_symbol
_atom_site_fract_x
_atom_site_fract_y
_atom_site_fract_z
O1	O	1.186969	0.117488	-0.082569
O2	O	1.686969	0.617488	0.417431
O3	O	0.926571	0.131557	-0.082595
O4	O	1.426571	0.631557	0.417405
O5	O	1.063725	-0.006709	-0.082584
O6	O	1.563725	0.493291	0.417416
O7	O	1.049814	0.255753	-0.082580
O8	O	1.549814	0.755753	0.417420
O9	O	1.063708	-0.006717	0.082800
O10	O	1.563708	0.493283	0.582800
O11	O	0.926554	0.131549	0.082789
O12	O	1.426554	0.631549	0.582789
O13	O	1.186951	0.117479	0.082815
O14	O	1.686951	0.617479	0.582815
Cu15	Cu	1.056751	0.124513	0.097903
Cu16	Cu	1.556751	0.624513	0.597903
Cu17	Cu	1.056771	0.124523	-0.097683
Cu18	Cu	1.556771	0.624523	0.402317
O19	O	1.049797	0.255745	0.082804
O20	O	1.549797	0.755745	0.582804
C21	C	0.893238	0.130924	0.000093
C22	C	1.393238	0.630924	0.500093
C23	C	0.793940	0.129038	0.000083
C24	C	1.293940	0.629038	0.500083
C25	C	0.736730	0.210265	0.000086
C26	C	1.236730	0.710265	0.500086
C27	C	0.643430	0.208488	0.000101
C28	C	1.143430	0.708488	0.500101
C29	C	0.607342	0.125483	0.000106
C30	C	1.107342	0.625483	0.500106
C31	C	0.664560	0.044249	0.000106
C32	C	1.164560	0.544249	0.500106
C33	C	0.757858	0.046027	0.000098
C34	C	1.257858	0.546027	0.500098
C35	C	0.470097	0.040549	0.000119
C36	C	0.970097	0.540549	0.500119
C37	C	0.376793	0.038771	0.000125
C38	C	0.876793	0.538771	0.500125
C39	C	0.355669	0.203010	0.000122
C40	C	0.855669	0.703010	0.500122
C41	C	0.448967	0.204788	0.000114
C42	C	0.948967	0.704788	0.500114
C43	C	0.506178	0.123554	0.000113
C44	C	1.006178	0.623554	0.500113
C45	C	1.063087	-0.040301	0.000105
C46	C	1.563087	0.459699	0.500105
C47	C	1.061198	-0.140385	0.000096
C48	C	1.561198	0.359615	0.500096
C49	C	0.971740	-0.552902	0.000106
C50	C	1.471740	-0.052902	0.500106
C51	C	1.134683	-0.574213	0.000122
C52	C	1.634683	-0.074213	0.500122
C53	C	1.136459	-0.480180	0.000116
C54	C	1.636459	0.019820	0.500116
C55	C	1.055874	-0.422503	0.000107
C56	C	1.555874	0.077497	0.500107
C57	C	0.973514	-0.458860	0.000103
C58	C	1.473514	0.041140	0.500103
C59	C	1.218818	-0.443816	0.000130
C60	C	1.718818	0.056184	0.500130
C61	C	1.220597	-0.349777	0.000126
C62	C	1.720597	0.150223	0.500126
C63	C	1.140012	-0.292099	0.000109
C64	C	1.640012	0.207901	0.500109
C65	C	1.057648	-0.328461	0.000104
C66	C	1.557648	0.171539	0.500104
C67	C	0.977064	-0.270784	0.000095
C68	C	1.477064	0.229216	0.500095
C69	C	0.894699	-0.307144	0.000083
C70	C	1.394699	0.192856	0.500083
C71	C	0.892928	-0.401181	0.000087
C72	C	1.392928	0.098819	0.500087
C73	C	1.141782	-0.198061	0.000105
C74	C	1.641782	0.301939	0.500105
C75	C	0.978837	-0.176741	0.000092
C76	C	1.478837	0.323259	0.500092
C77	C	1.220285	0.118113	0.000124
C78	C	1.720285	0.618113	0.500124
C79	C	1.319582	0.119998	0.000128
C80	C	1.819582	0.619998	0.500128
C81	C	1.050436	0.289338	0.000113
C82	C	1.550436	0.789338	0.500113
C83	C	1.052325	0.389421	0.000115
C84	C	1.552325	0.889421	0.500115
N85	N	1.056743	0.124505	0.235467
N86	N	1.556743	0.624505	0.735467
N87	N	1.056786	0.124524	-0.235247
N88	N	1.556786	0.624524	0.264753
C89	C	1.117494	0.063307	0.287512
C90	C	1.617494	0.563307	0.787512
C91	C	1.117500	0.063306	0.391615
C92	C	1.617500	0.563306	0.891615
C93	C	1.056758	0.124509	0.443672
C94	C	1.556758	0.624509	0.943672
C95	C	0.996001	0.185711	0.391619
C96	C	1.496001	0.685711	0.891619
C97	C	0.995991	0.185707	0.287518
C98	C	1.495991	0.685707	0.787518
C99	C	0.996025	0.185717	0.608599
C100	C	1.496025	0.685717	1.108599
C101	C	0.996036	0.185723	0.712708
C102	C	1.496036	0.685723	1.212708
C103	C	1.117534	0.063316	0.712697
C104	C	1.617534	0.563316	1.212697
C105	C	1.117525	0.063312	0.608595
C106	C	1.617525	0.563312	1.108595
C107	C	1.056768	0.124515	0.556550
C108	C	1.556768	0.624515	1.056550
H109	H	0.766104	0.277858	0.000081
H110	H	1.266104	0.777858	0.500081
Br111	Br	0.565789	0.318731	0.000101
Br112	Br	1.065789	0.818731	0.500101
Br113	Br	0.859965	-0.602244	0.000076
Br114	Br	1.359965	-0.102244	0.500076
H115	H	0.309082	0.269154	0.000128
H116	H	0.809082	0.769154	0.500128
H117	H	1.200291	-0.621179	0.000138
H118	H	1.700291	-0.121179	0.500138
H119	H	0.478346	0.272378	0.000101
H120	H	0.978346	0.772378	0.500101
H121	H	0.946521	0.235540	0.245144
H122	H	1.446521	0.735540	0.745144
H123	H	0.347414	-0.028819	0.000130
H124	H	0.847414	0.471181	0.500130
H125	H	0.516677	-0.025600	0.000120
H126	H	1.016677	0.474400	0.500120
H127	H	0.635171	-0.023335	0.000124
H128	H	1.135171	0.476665	0.500124
Br129	Br	0.869466	-0.098472	0.000067
Br130	Br	1.369466	0.401528	0.500067
Br131	Br	0.785338	-0.228858	0.000083
Br132	Br	1.285338	0.271142	0.500083
Br133	Br	1.199945	-0.019754	0.462252
Br134	Br	1.699945	0.480246	0.962252
H135	H	0.804439	-0.020116	0.000095
H136	H	1.304439	0.479884	0.500095
H137	H	0.825871	-0.430795	0.000078
H138	H	1.325871	0.069205	0.500078
H139	H	1.284425	-0.490782	0.000147
H140	H	1.784425	0.009218	0.500147
Br141	Br	1.332375	-0.300439	0.000127
Br142	Br	1.832375	0.199561	0.500127
H143	H	1.208842	-0.168461	0.000122
H144	H	1.708842	0.331539	0.500122
Br145	Br	1.199941	-0.019753	0.216875
Br146	Br	1.699941	0.480247	0.716875
Br147	Br	1.199967	-0.019741	0.537944
Br148	Br	1.699967	0.480259	1.037944
H149	H	1.167003	0.013483	0.755078
H150	H	1.667003	0.513483	1.255078
H151	H	0.946572	0.235560	0.755087
H152	H	1.446572	0.735560	1.255087
Br153	Br	0.913557	0.268768	0.462263
Br154	Br	1.413557	0.768768	0.962263
H155	H	0.946548	0.235552	0.566228
H156	H	1.446548	0.735552	1.066228
