data_functionalizedCrystal
_audit_creation_method	'MofGen! by Chris Wilmer'
_symmetry_space_group_name_H-M	'P1'
_symmetry_Int_Tables_number	1
_symmetry_cell_setting	triclinic
loop_
_symmetry_equiv_pos_as_xyz
  x,y,z
_cell_length_a	11.792241
_cell_length_b	11.792241
_cell_length_c	11.295487
_cell_angle_alpha	94.120228
_cell_angle_beta	85.866312
_cell_angle_gamma	84.193416
loop_
_atom_site_label
_atom_site_type_symbol
_atom_site_fract_x
_atom_site_fract_y
_atom_site_fract_z
O1	O	1.514505	0.147984	-0.098909
O2	O	1.847838	0.481317	0.234424
O3	O	2.181172	0.814651	0.567757
O4	O	1.184166	0.164015	-0.098937
O5	O	1.517499	0.497348	0.234396
O6	O	1.850833	0.830681	0.567730
O7	O	1.357351	-0.009170	-0.098914
O8	O	1.690685	0.324163	0.234419
O9	O	2.024018	0.657496	0.567752
O10	O	1.341320	0.321169	-0.098932
O11	O	1.674653	0.654503	0.234401
O12	O	2.007986	0.987836	0.567734
O13	O	1.342126	0.006009	0.099135
O14	O	1.675459	0.339343	0.432468
O15	O	2.008793	0.672676	0.765802
O16	O	1.168941	0.179195	0.099112
O17	O	1.502274	0.512528	0.432445
O18	O	1.835608	0.845861	0.765779
O19	O	1.499280	0.163164	0.099140
O20	O	1.832613	0.496497	0.432473
O21	O	2.165946	0.829830	0.765806
Cu22	Cu	1.332720	0.172565	0.117209
Cu23	Cu	1.666053	0.505899	0.450543
Cu24	Cu	1.999387	0.839232	0.783876
Cu25	Cu	1.350726	0.154613	-0.117007
Cu26	Cu	1.684059	0.487947	0.216327
Cu27	Cu	2.017392	0.821280	0.549660
O28	O	1.326095	0.336349	0.099117
O29	O	1.659428	0.669682	0.432450
O30	O	1.992761	1.003016	0.765784
C31	C	1.134263	0.170597	0.000084
C32	C	1.467596	0.503931	0.333417
C33	C	1.800929	0.837264	0.666751
C34	C	1.008250	0.167582	0.000074
C35	C	1.341583	0.500915	0.333407
C36	C	1.674917	0.834249	0.666740
C37	C	0.777535	0.162042	0.000108
C38	C	1.110868	0.495375	0.333441
C39	C	1.444202	0.828708	0.666775
C40	C	0.905922	0.165120	0.000089
C41	C	1.239255	0.498453	0.333422
C42	C	1.572588	0.831787	0.666756
C43	C	1.348732	-0.043872	0.000110
C44	C	1.682065	0.289462	0.333443
C45	C	2.015398	0.622795	0.666777
C46	C	1.345717	-0.169885	0.000108
C47	C	1.679051	0.163448	0.333442
C48	C	2.012384	0.496781	0.666775
C49	C	1.340176	-0.400599	0.000088
C50	C	1.673509	-0.067266	0.333421
C51	C	2.006843	0.266068	0.666755
C52	C	1.343255	-0.272213	0.000099
C53	C	1.676588	0.061120	0.333433
C54	C	2.009922	0.394454	0.666766
C55	C	1.549183	0.156581	0.000116
C56	C	1.882517	0.489914	0.333449
C57	C	2.215850	0.823248	0.666783
C58	C	1.675197	0.159596	0.000119
C59	C	2.008530	0.492929	0.333452
C60	C	2.341863	0.826262	0.666785
C61	C	1.334714	0.371050	0.000090
C62	C	1.668048	0.704383	0.333423
C63	C	2.001381	1.037717	0.666757
C64	C	1.337729	0.497063	0.000084
C65	C	1.671063	0.830396	0.333417
C66	C	2.004396	1.163730	0.666750
N67	N	1.320064	0.185191	0.281944
N68	N	1.653398	0.518524	0.615278
N69	N	1.986731	0.851858	0.948611
C70	C	1.229043	0.276189	0.468954
C71	C	1.562376	0.609522	0.802288
C72	C	1.895709	0.942856	1.135621
C73	C	1.238586	0.266630	0.344292
C74	C	1.571920	0.599963	0.677625
C75	C	1.905253	0.933297	1.010958
C76	C	1.392002	0.113303	0.344268
C77	C	1.725335	0.446636	0.677602
C78	C	2.058668	0.779970	1.010935
C79	C	1.382458	0.122862	0.468931
C80	C	1.715791	0.456195	0.802264
C81	C	2.049125	0.789528	1.135598
C82	C	1.300977	0.204309	0.531270
C83	C	1.634310	0.537642	0.864603
C84	C	1.967644	0.870975	1.197936
C85	C	1.291440	0.213872	0.655934
C86	C	1.624773	0.547206	0.989268
C87	C	1.958106	0.880539	1.322601
C88	C	1.444849	0.060540	0.655909
C89	C	1.778182	0.393874	0.989242
C90	C	2.111515	0.727207	1.322575
C91	C	1.454392	0.050981	0.531246
C92	C	1.787726	0.384315	0.864579
C93	C	2.121059	0.717648	1.197913
N94	N	1.363377	0.141984	0.718258
N95	N	1.696710	0.475318	1.051592
N96	N	2.030044	0.808651	1.384925
H97	H	1.225097	0.280193	0.706690
H98	H	1.558430	0.613526	1.040023
H99	H	1.891763	0.946860	1.373356
H100	H	1.458334	0.046983	0.293496
H101	H	1.791667	0.380317	0.626829
H102	H	2.125001	0.713650	0.960163
H103	H	1.180009	0.325161	0.293558
H104	H	1.513342	0.658494	0.626891
H105	H	1.846675	0.991828	0.960225
Br106	Br	1.542489	-0.037005	0.740490
Br107	Br	1.875822	0.296328	1.073823
Br108	Br	2.209155	0.629661	1.407157
H109	H	1.520730	-0.015334	0.480476
H110	H	1.854063	0.317999	0.813809
H111	H	2.187397	0.651333	1.147142
Br112	Br	1.118480	0.386736	0.553560
Br113	Br	1.451813	0.720069	0.886893
Br114	Br	1.785146	1.053403	1.220227
