data_functionalizedCrystal
_audit_creation_method	'MofGen! by Chris Wilmer'
_symmetry_space_group_name_H-M	'P1'
_symmetry_Int_Tables_number	1
_symmetry_cell_setting	triclinic
loop_
_symmetry_equiv_pos_as_xyz
  x,y,z
_cell_length_a	14.519731
_cell_length_b	15.625950
_cell_length_c	14.185569
_cell_angle_alpha	120.545593
_cell_angle_beta	103.175552
_cell_angle_gamma	96.021155
loop_
_atom_site_label
_atom_site_type_symbol
_atom_site_fract_x
_atom_site_fract_y
_atom_site_fract_z
O1	O	-0.023873	1.290708	0.385934
O2	O	-0.064419	1.002657	0.281190
O3	O	0.090786	1.154307	0.336327
O4	O	-0.179078	1.139058	0.330797
O5	O	0.136630	1.199106	0.519450
O6	O	-0.018575	1.047456	0.464313
O7	O	0.021971	1.335507	0.569056
Cu8	Cu	0.005884	1.195572	0.533405
Cu9	Cu	-0.048332	1.142592	0.316841
O10	O	-0.133233	1.183857	0.513919
C11	C	-0.044200	0.988192	0.359346
C12	C	-0.052245	0.878345	0.319402
C13	C	0.046160	0.639047	0.686996
C14	C	0.038569	0.535814	0.649411
C15	C	-0.011404	0.487028	0.449797
C16	C	-0.003823	0.590257	0.487365
C17	C	0.024961	0.666260	0.605966
C18	C	-0.025022	0.617471	0.406335
C19	C	-0.017435	0.720692	0.443901
C20	C	0.011350	0.796700	0.562497
C21	C	0.032547	0.769481	0.643532
C22	C	-0.053798	0.541467	0.287735
C23	C	-0.074997	0.568681	0.206705
C24	C	-0.067418	0.671903	0.244270
C25	C	-0.038633	0.747911	0.362866
C26	C	-0.088615	0.699121	0.163235
C27	C	-0.081029	0.802343	0.200801
C28	C	-0.031046	0.851132	0.400432
C29	C	-0.190449	1.162173	0.422620
C30	C	-0.292632	1.164316	0.423404
C31	C	-0.375619	1.166055	0.424033
C32	C	-0.479731	1.168227	0.424813
C33	C	-0.562715	1.169950	0.425432
C34	C	-0.666834	1.172122	0.426214
C35	C	0.148001	1.175991	0.427624
C36	C	0.250182	1.173846	0.426832
C37	C	0.001752	1.349972	0.490898
C38	C	0.009795	1.459817	0.530835
N39	N	0.044018	1.232842	0.685727
N40	N	-0.086458	1.105330	0.164523
C41	C	-0.198455	0.995830	0.967203
C42	C	-0.169575	1.024068	1.082492
C43	C	-0.032185	1.158382	1.131287
C44	C	-0.061052	1.130151	1.015999
C45	C	-0.144188	1.048875	0.933966
C46	C	-0.006784	1.183196	0.982761
C47	C	-0.035651	1.154971	0.867485
C48	C	-0.118786	1.073701	0.785446
C49	C	-0.173055	1.020650	0.818689
C50	C	0.076348	1.264477	1.064798
C51	C	0.130615	1.317522	1.031560
C52	C	0.101753	1.289292	0.916280
C53	C	0.018618	1.208022	0.834241
C54	C	0.156022	1.342343	0.883037
C55	C	0.127155	1.314118	0.767760
C56	C	-0.010249	1.179797	0.718965
H57	H	-0.034836	0.425134	0.353232
O58	O	0.048668	1.237251	1.210842
C59	C	0.131453	1.214075	1.176767
H60	H	0.106972	1.155451	1.079209
H61	H	0.182521	1.287387	1.199816
H62	H	0.171807	1.180648	1.223720
O63	O	0.074230	0.712994	0.802182
C64	C	0.160937	0.785187	0.833899
H65	H	0.167324	0.783142	0.754198
H66	H	0.158668	0.865615	0.901647
H67	H	0.226931	0.765182	0.871498
O68	O	0.236780	1.421341	0.962592
C69	C	0.278509	1.462087	0.908527
H70	H	0.220230	1.443160	0.826790
H71	H	0.307973	1.549226	0.970535
H72	H	0.341064	1.426826	0.884539
O73	O	0.060333	0.843330	0.758723
C74	C	-0.014585	0.893474	0.782403
H75	H	-0.087532	0.840806	0.711635
H76	H	-0.019528	0.912517	0.869762
H77	H	0.002722	0.967644	0.784961
H78	H	-0.098296	0.824498	0.134817
O79	O	-0.091112	1.100951	0.639349
C80	C	-0.173901	1.124076	0.673439
H81	H	-0.159356	1.211045	0.733919
H82	H	-0.240171	1.094222	0.593525
H83	H	-0.189123	1.085662	0.720435
H84	H	-0.266147	0.929640	0.900404
O85	O	-0.102801	0.494910	0.091496
C86	C	-0.035364	0.516344	0.043943
H87	H	0.037831	0.566705	0.115465
H88	H	-0.024572	0.441101	-0.024700
H89	H	-0.064817	0.558557	0.002613
H90	H	-0.213775	0.980866	1.109544
O91	O	-0.253866	0.941798	0.738916
C92	C	-0.322734	0.978563	0.691552
H93	H	-0.283432	1.051692	0.702398
H94	H	-0.361293	0.917451	0.595491
H95	H	-0.379163	0.996274	0.738463
H96	H	0.099845	1.287457	1.158663
O97	O	-0.061308	0.441145	0.251076
C98	C	-0.158354	0.382218	0.179764
H99	H	-0.195532	0.423780	0.141809
H100	H	-0.157512	0.303672	0.106453
H101	H	-0.200492	0.371550	0.233362
H102	H	0.198304	1.383700	1.098365
O103	O	0.018820	0.896957	0.598868
C104	C	0.088481	0.929107	0.560706
H105	H	0.096450	0.859061	0.482103
H106	H	0.063109	0.983702	0.535883
H107	H	0.162212	0.970558	0.633272
H108	H	-0.007622	0.913017	0.497008
O109	O	-0.146853	1.046096	0.673398
C110	C	-0.146111	0.942726	0.600749
H111	H	-0.153568	0.900740	0.646018
H112	H	-0.210005	0.903668	0.516303
H113	H	-0.074162	0.940183	0.581181
O114	O	0.059157	0.509552	0.728283
C115	C	0.086214	0.598775	0.841015
H116	H	0.054754	0.661167	0.837068
H117	H	0.056205	0.579825	0.897727
H118	H	0.169562	0.627480	0.879410
H119	H	0.171345	1.357314	0.740700
H120	H	-0.112041	0.637227	0.066670
