data_functionalizedCrystal
_audit_creation_method	'MofGen! by Chris Wilmer'
_symmetry_space_group_name_H-M	'P1'
_symmetry_Int_Tables_number	1
_symmetry_cell_setting	triclinic
loop_
_symmetry_equiv_pos_as_xyz
  x,y,z
_cell_length_a	12.645331
_cell_length_b	21.295417
_cell_length_c	21.295411
_cell_angle_alpha	89.978356
_cell_angle_beta	89.982206
_cell_angle_gamma	90.029742
loop_
_atom_site_label
_atom_site_type_symbol
_atom_site_fract_x
_atom_site_fract_y
_atom_site_fract_z
Zn1	Zn	1.620658	-0.250694	-0.355798
Zn2	Zn	1.620494	-0.355946	-0.250523
Zn3	Zn	1.443366	-0.250693	-0.250555
Zn4	Zn	1.443315	-0.355928	-0.355767
O5	O	1.531958	-0.303315	-0.303161
O6	O	1.768984	-0.264664	-0.341832
O7	O	1.596950	-0.341991	-0.162438
O8	O	1.466975	-0.162604	-0.264542
O9	O	1.768863	-0.341992	-0.264487
O10	O	1.597230	-0.162604	-0.341863
O11	O	1.466816	-0.264662	-0.162462
O12	O	1.295012	-0.264645	-0.264513
O13	O	1.466887	-0.341961	-0.443861
O14	O	1.294974	-0.341960	-0.341811
O15	O	1.597180	-0.264646	-0.443883
O16	O	1.596900	-0.444033	-0.264458
O17	O	1.466728	-0.444019	-0.341780
C18	C	1.256529	-0.303301	-0.303162
C19	C	1.138699	-0.303310	-0.303178
C20	C	0.971146	-0.352216	-0.351553
C21	C	1.093706	-0.352058	-0.351756
C22	C	1.094247	-0.237013	-0.321312
C23	C	0.971648	-0.237311	-0.321653
C24	C	0.971443	-0.320167	-0.236515
C25	C	1.094048	-0.321617	-0.236875
C26	C	1.531819	-0.466867	-0.303126
C27	C	1.531857	-0.536835	-0.303132
C28	C	1.599698	-0.569687	-0.262912
C29	C	1.599748	-0.635430	-0.262926
C30	C	1.531937	-0.668317	-0.303154
C31	C	1.464091	-0.635457	-0.343382
C32	C	1.464051	-0.569715	-0.343371
N33	N	1.439201	-0.771583	-0.307953
N34	N	1.439243	-0.834035	-0.307960
C35	C	1.532056	-0.866392	-0.303190
N36	N	1.624829	-0.833939	-0.298401
N37	N	1.624786	-0.771481	-0.298391
C38	C	1.531974	-0.739603	-0.303170
C39	C	1.599957	-0.970530	-0.262983
C40	C	1.600008	-1.036274	-0.263001
C41	C	1.464343	-1.036299	-0.343454
C42	C	1.464301	-0.970557	-0.343439
C43	C	1.532106	-0.937676	-0.303200
C44	C	1.808464	-0.303330	-0.303160
C45	C	1.926294	-0.303336	-0.303159
C46	C	1.532046	-0.303302	-0.467351
C47	C	1.532084	-0.303296	-0.537319
C48	C	1.532127	-0.139125	-0.303210
C49	C	1.532199	-0.069157	-0.303230
C50	C	1.599925	-0.263036	-0.570199
C51	C	1.599923	-0.263009	-0.635941
C52	C	1.532092	-0.303253	-0.668802
C53	C	1.464238	-0.343515	-0.635915
C54	C	1.464234	-0.343537	-0.570173
N55	N	1.523913	-0.358320	-0.772018
N56	N	1.523923	-0.358298	-0.834469
C57	C	1.532099	-0.303189	-0.866877
N58	N	1.540285	-0.248102	-0.834473
N59	N	1.540280	-0.248125	-0.772016
C60	C	1.532088	-0.303233	-0.740087
C61	C	1.599942	-0.262896	-0.971042
C62	C	1.599933	-0.262868	-1.036785
C63	C	1.464253	-0.343380	-1.036758
C64	C	1.464256	-0.343402	-0.971015
C65	C	1.532106	-0.303162	-0.938161
C66	C	1.531932	-0.303283	-0.139609
C67	C	1.532100	-0.303111	-0.069642
H68	H	1.123112	-0.370403	-0.223198
H69	H	1.655172	-0.230268	-0.543453
H70	H	1.655175	-0.230080	-1.063555
H71	H	0.942437	-0.284563	-0.200457
H72	H	0.940362	-0.341222	-0.400646
H73	H	1.655165	-0.230221	-0.662717
H74	H	0.943082	-0.223033	-0.370373
H75	H	1.654912	-0.542918	-0.230148
H76	H	1.124675	-0.288597	-0.198882
H77	H	1.655183	-0.230126	-0.944290
H78	H	1.654996	-0.662184	-0.230174
H79	H	1.123391	-0.199605	-0.287166
H80	H	1.655259	-1.063021	-0.230250
H81	H	1.408882	-0.662238	-0.376137
H82	H	1.408985	-0.376320	-0.543403
H83	H	0.941980	-0.199587	-0.288022
H84	H	1.408806	-0.542966	-0.376125
H85	H	1.409013	-0.376140	-1.063512
H86	H	1.655172	-0.943758	-0.230219
H87	H	1.409053	-0.943806	-0.376188
H88	H	1.409006	-0.376280	-0.662674
H89	H	1.409135	-1.063076	-0.376212
H90	H	1.123062	-0.340920	-0.401136
H91	H	0.940502	-0.367686	-0.220035
H92	H	1.409019	-0.376190	-0.944244
H93	H	1.124980	-0.222474	-0.369504
H94	H	0.941635	-0.401542	-0.340312
H95	H	1.123759	-0.401222	-0.340389
