data_functionalizedCrystal
_audit_creation_method	'MofGen! by Chris Wilmer'
_symmetry_space_group_name_H-M	'P1'
_symmetry_Int_Tables_number	1
_symmetry_cell_setting	triclinic
loop_
_symmetry_equiv_pos_as_xyz
  x,y,z
_cell_length_a	16.109302
_cell_length_b	26.809956
_cell_length_c	16.109304
_cell_angle_alpha	90.001744
_cell_angle_beta	83.462209
_cell_angle_gamma	90.018004
loop_
_atom_site_label
_atom_site_type_symbol
_atom_site_fract_x
_atom_site_fract_y
_atom_site_fract_z
O1	O	1.103147	0.041499	0.106868
O2	O	0.861085	0.041495	0.120167
O3	O	0.988764	0.041497	-0.007513
O4	O	0.975467	0.041496	0.234548
O5	O	0.988725	-0.041462	-0.007514
O6	O	0.861046	-0.041465	0.120166
O7	O	1.103107	-0.041460	0.106868
Zn8	Zn	0.982070	-0.054634	0.113517
Zn9	Zn	0.982122	0.054668	0.113517
O10	O	0.975428	-0.041463	0.234548
C11	C	0.830090	0.000014	0.119628
C12	C	0.737795	0.000013	0.118012
N13	N	0.982041	-0.129230	0.113516
C14	C	0.525433	-0.045203	0.114277
C15	C	0.438713	-0.045202	0.112750
C16	C	0.438766	0.045245	0.112755
C17	C	0.525485	0.045243	0.114276
C18	C	0.568816	0.000017	0.115041
C19	C	0.395377	0.000021	0.111994
C20	C	0.301351	0.000023	0.110338
C21	C	0.662848	0.000015	0.116695
C22	C	1.032520	-0.473855	0.163949
C23	C	1.032547	-0.682733	0.163949
O24	O	1.075444	-0.709736	0.206819
N25	N	0.982142	-0.708857	0.113509
C26	C	0.931731	-0.682759	0.063062
O27	O	0.888866	-0.709772	0.020153
C28	C	0.931709	-0.473882	0.063058
C29	C	0.982111	-0.447761	0.113508
C30	C	1.082918	-0.447734	0.214394
C31	C	1.082908	-0.395518	0.214397
C32	C	1.032499	-0.369423	0.163955
C33	C	0.982100	-0.395544	0.113511
C34	C	0.881303	-0.447784	0.012607
C35	C	0.881304	-0.395562	0.012609
C36	C	0.931705	-0.369440	0.063059
C37	C	0.931681	-0.317233	0.063072
N38	N	0.982085	-0.291109	0.113512
C39	C	1.032494	-0.317204	0.163954
C40	C	0.931745	-0.792422	0.063068
C41	C	0.931749	-0.844641	0.063070
C42	C	1.032566	-0.844612	0.163956
C43	C	1.032557	-0.792392	0.163958
C44	C	0.982150	-0.766298	0.113508
C45	C	1.032468	-0.207546	0.163957
C46	C	1.032450	-0.155325	0.163958
C47	C	0.931636	-0.155359	0.063069
C48	C	0.931650	-0.207575	0.063071
C49	C	0.982073	-0.233667	0.113517
O50	O	0.888813	-0.290198	0.020217
O51	O	1.075367	-0.290182	0.206842
C52	C	1.032531	-0.526072	0.163946
C53	C	0.982132	-0.552193	0.113502
C54	C	0.931723	-0.526098	0.063060
C55	C	0.982136	-0.604412	0.113504
C56	C	1.032545	-0.630507	0.163945
C57	C	1.082950	-0.604383	0.214385
C58	C	1.082940	-0.552167	0.214388
C59	C	0.881318	-0.552222	0.012620
C60	C	0.881332	-0.604439	0.012622
C61	C	0.931741	-0.630534	0.063064
C62	C	1.134102	0.000021	0.107407
C63	C	1.226397	0.000026	0.109022
C64	C	0.988206	0.000019	-0.038488
C65	C	0.986590	0.000022	-0.130784
N66	N	0.982158	0.129264	0.113512
C67	C	0.982877	0.045241	-0.343121
C68	C	0.981351	0.045241	-0.429841
C69	C	0.981313	-0.045206	-0.429838
C70	C	0.982833	-0.045205	-0.343119
C71	C	0.983619	0.000020	-0.299763
C72	C	0.980573	0.000018	-0.473202
C73	C	0.978918	0.000018	-0.567228
C74	C	0.985273	0.000021	-0.205731
C75	C	0.975987	0.000017	0.265523
C76	C	0.977603	0.000017	0.357818
H77	H	0.403394	-0.082025	0.112129
H78	H	0.890697	-0.865904	0.021999
N79	N	0.980505	-0.091404	-0.474115
N80	N	0.922090	-0.121684	-0.456748
H81	H	0.921519	-0.154313	-0.488017
H82	H	0.983432	-0.082032	-0.307815
N83	N	0.983683	0.091440	-0.298846
N84	N	0.983021	0.131812	-0.337573
H85	H	0.983589	0.164442	-0.306307
N86	N	0.829812	-0.474450	-0.038931
N87	N	0.784818	-0.451135	-0.083964
H88	H	0.748450	-0.469966	-0.120368
H89	H	0.890695	-0.771181	0.021983
H90	H	0.980745	0.082064	-0.465139
N91	N	0.394504	0.091439	0.111963
N92	N	0.353801	0.101532	0.052544
H93	H	0.322541	0.134158	0.051985
N94	N	0.569794	0.091442	0.115047
N95	N	0.531098	0.131818	0.114368
H96	H	0.562391	0.164445	0.114910
H97	H	1.073527	-0.228784	0.205034
N98	N	0.569680	-0.091403	0.115069
N99	N	0.530930	-0.131774	0.114394
H100	H	0.562176	-0.164405	0.114956
N101	N	1.083939	-0.128651	0.215501
N102	N	1.128944	-0.151961	0.260531
H103	H	1.165309	-0.133124	0.296931
N104	N	1.134387	-0.368847	0.265945
N105	N	1.179382	-0.392161	0.310981
H106	H	1.215740	-0.373329	0.347393
H107	H	0.890599	-0.228844	0.022001
H108	H	1.123972	-0.468975	0.255470
H109	H	1.073598	-0.771127	0.205039
H110	H	1.073608	-0.865867	0.205031
H111	H	0.840255	-0.374319	-0.028475
H112	H	0.890592	-0.134103	0.022003
H113	H	1.123982	-0.530903	0.255469
N114	N	0.829855	-0.631118	-0.038925
N115	N	0.862347	-0.660244	-0.093890
H116	H	0.825997	-0.679086	-0.130300
H117	H	1.123991	-0.625639	0.255460
H118	H	0.840270	-0.530981	-0.028457
