data_functionalizedCrystal
_audit_creation_method	'MofGen! by Chris Wilmer'
_symmetry_space_group_name_H-M	'P1'
_symmetry_Int_Tables_number	1
_symmetry_cell_setting	triclinic
loop_
_symmetry_equiv_pos_as_xyz
  x,y,z
_cell_length_a	10.686220
_cell_length_b	12.645330
_cell_length_c	10.686551
_cell_angle_alpha	94.406611
_cell_angle_beta	89.691918
_cell_angle_gamma	94.394340
loop_
_atom_site_label
_atom_site_type_symbol
_atom_site_fract_x
_atom_site_fract_y
_atom_site_fract_z
Zn1	Zn	1.972300	-0.258448	0.562381
Zn2	Zn	1.956079	-0.450323	0.352619
Zn3	Zn	1.746419	-0.285567	0.368698
Zn4	Zn	1.762509	-0.448175	0.578396
O5	O	1.859327	-0.360628	0.465524
O6	O	2.145689	-0.273451	0.521124
O7	O	1.914746	-0.440716	0.179206
O8	O	1.776437	-0.133617	0.394417
O9	O	2.133772	-0.414421	0.367012
O10	O	1.942391	-0.113693	0.536715
O11	O	1.760709	-0.319670	0.191019
O12	O	1.573012	-0.317587	0.409947
O13	O	1.803860	-0.410759	0.751818
O14	O	1.584834	-0.437055	0.564011
O15	O	1.957992	-0.271368	0.740051
O16	O	1.930347	-0.598391	0.382542
O17	O	1.788132	-0.596812	0.548420
C18	C	1.533407	-0.380031	0.490462
C19	C	1.393979	-0.388355	0.501161
C20	C	1.859262	-0.636064	0.465499
C21	C	1.859352	-0.753887	0.465521
C22	C	1.948649	-0.922422	0.360983
C23	C	1.948982	-0.799827	0.361196
C24	C	1.905354	-0.786941	0.595009
C25	C	1.906083	-0.909530	0.594435
C26	C	1.724115	-0.931468	0.441878
C27	C	1.724523	-0.809031	0.438864
C28	C	2.186519	-0.341150	0.440488
C29	C	2.325949	-0.332850	0.429820
C30	C	1.884531	-0.337799	0.792724
C31	C	1.895271	-0.328070	0.932158
C32	C	1.859429	-0.084113	0.465573
C33	C	1.859472	0.033721	0.465595
C34	C	1.834293	-0.383288	0.139590
C35	C	1.823796	-0.392704	0.000139
H36	H	1.374372	-0.278963	0.360555
H37	H	1.345550	-0.442254	0.570422
C38	C	1.908465	-0.770306	0.231070
N39	N	1.877935	-0.748077	0.133058
H40	H	1.754390	-0.455484	0.951670
H41	H	1.964690	-0.265292	0.980632
H42	H	1.657546	-0.959845	0.518195
C43	C	1.908538	-0.973373	0.230424
N44	N	1.878324	-1.011756	0.132083
H45	H	2.048150	-0.945784	0.375653
H46	H	1.844530	-0.938000	0.674514
C47	C	2.084145	-0.750073	0.381291
N48	N	2.185956	-0.712600	0.396425
H49	H	2.005324	-0.930265	0.615705
H50	H	2.003537	-0.748408	0.616842
C51	C	1.670250	-0.984871	0.317248
N52	N	1.629693	-1.025094	0.223369
C53	C	1.820880	-0.746071	0.702545
N54	N	1.757253	-0.715284	0.783540
H55	H	1.653672	-0.778379	0.510288
C56	C	1.677900	-0.781159	0.310204
N57	N	1.642784	-0.760154	0.213299
