data_functionalizedCrystal
_audit_creation_method	'MofGen! by Chris Wilmer'
_symmetry_space_group_name_H-M	'P1'
_symmetry_Int_Tables_number	1
_symmetry_cell_setting	triclinic
loop_
_symmetry_equiv_pos_as_xyz
  x,y,z
_cell_length_a	14.044220
_cell_length_b	10.723024
_cell_length_c	9.198806
_cell_angle_alpha	89.997988
_cell_angle_beta	90.000900
_cell_angle_gamma	88.828374
loop_
_atom_site_label
_atom_site_type_symbol
_atom_site_fract_x
_atom_site_fract_y
_atom_site_fract_z
O1	O	-1.259664	-0.301050	0.120731
O2	O	-0.759664	0.198950	0.620731
O3	O	-0.983624	-0.290186	0.120768
O4	O	-0.483624	0.209814	0.620768
O5	O	-1.128011	-0.114679	0.120743
O6	O	-0.628011	0.385321	0.620743
O7	O	-1.115277	-0.476557	0.120756
O8	O	-0.615277	0.023443	0.620756
O9	O	-1.128000	-0.114677	-0.121042
O10	O	-0.628000	0.385323	0.378958
O11	O	-0.983612	-0.290184	-0.121017
O12	O	-0.483612	0.209816	0.378983
O13	O	-1.259652	-0.301048	-0.121054
O14	O	-0.759652	0.198952	0.378946
Cu15	Cu	-1.121631	-0.295616	-0.143112
Cu16	Cu	-0.621631	0.204384	0.356888
Cu17	Cu	-1.121645	-0.295618	0.142826
Cu18	Cu	-0.621645	0.204382	0.642826
O19	O	-1.115265	-0.476555	-0.121029
O20	O	-0.615265	0.023445	0.378971
C21	C	-1.127079	-0.068086	-0.000147
C22	C	-0.627079	0.431914	0.499853
C23	C	-1.124306	0.070746	-0.000142
C24	C	-0.624306	0.570746	0.499858
C25	C	-0.948273	-0.285430	-0.000120
C26	C	-0.448273	0.214570	0.499880
C27	C	-0.842955	-0.271245	-0.000106
C28	C	-0.342955	0.228755	0.499894
C29	C	-1.295003	-0.305804	-0.000163
C30	C	-0.795003	0.194196	0.499837
C31	C	-1.400321	-0.319989	-0.000168
C32	C	-0.900321	0.180011	0.499832
C33	C	-0.650125	-0.245313	-0.000135
C34	C	-0.150125	0.254687	0.499865
C35	C	-0.593146	-0.345915	-0.000138
C36	C	-0.093146	0.154085	0.499862
C37	C	-0.485848	-0.331486	-0.000155
C38	C	0.014152	0.168514	0.499845
C39	C	-0.757432	-0.259740	-0.000119
C40	C	-0.257432	0.240260	0.499881
C41	C	-1.116197	-0.523149	-0.000135
C42	C	-0.616197	-0.023149	0.499865
C43	C	-1.118970	-0.661980	-0.000131
C44	C	-0.618970	-0.161980	0.499869
N45	N	-1.121629	-0.295615	-0.344226
N46	N	-0.621629	0.204385	0.155774
C47	C	-1.205097	0.137646	-0.000151
C48	C	-0.705097	0.637646	0.499849
C49	C	-1.202234	0.281136	-0.000145
C50	C	-0.702234	0.781136	0.499855
C51	C	-1.182253	-0.221572	-0.416434
C52	C	-0.682253	0.278428	0.083566
C53	C	-1.182267	-0.221570	-0.583846
C54	C	-0.682267	0.278430	-0.083846
N55	N	-1.121655	-0.295610	0.343940
N56	N	-0.621655	0.204390	0.843940
H57	H	-0.618325	-0.148357	-0.000147
H58	H	-0.118325	0.351643	0.499853
N59	N	-1.056551	-0.375162	-0.578184
N60	N	-0.556551	0.124838	-0.078184
N61	N	-1.087369	-0.455872	-0.493222
N62	N	-0.587369	0.044128	0.006778
H63	H	-1.041391	-0.512058	-0.438213
H64	H	-0.541391	-0.012058	0.061787
H65	H	-1.053017	0.119700	-0.000123
H66	H	-0.553017	0.619700	0.499877
N67	N	-1.247391	-0.142042	-0.661716
N68	N	-0.747391	0.357958	-0.161716
N69	N	-1.335113	-0.153239	-0.644819
N70	N	-0.835113	0.346761	-0.144819
H71	H	-1.381109	-0.097070	-0.699818
H72	H	-0.881109	0.402930	-0.199818
H73	H	-1.276386	0.088691	-0.000169
H74	H	-0.776386	0.588691	0.499831
N75	N	-0.633048	-0.467550	-0.000133
N76	N	-0.133048	0.032450	0.499867
N77	N	-0.721418	-0.479254	-0.000120
N78	N	-0.221418	0.020746	0.499880
H79	H	-0.749604	-0.565156	-0.000114
H80	H	-0.249604	-0.065156	0.499886
N81	N	-1.288996	0.353293	-0.000173
N82	N	-0.788996	0.853293	0.499827
N83	N	-1.286547	0.469753	-0.000177
N84	N	-0.786547	0.969753	0.499823
H85	H	-1.347825	0.520718	-0.000200
H86	H	-0.847825	1.020718	0.499800
H87	H	-1.049803	0.280515	-0.000134
H88	H	-0.549803	0.780515	0.499866
N89	N	-1.056513	-0.375135	-0.422119
N90	N	-0.556513	0.124865	0.077881
N91	N	-0.968789	-0.363930	-0.405243
N92	N	-0.468789	0.136070	0.094757
H93	H	-0.922797	-0.420093	-0.460250
H94	H	-0.422797	0.079907	0.039750
N95	N	-1.247340	-0.142045	-0.338497
N96	N	-0.747340	0.357955	0.161503
N97	N	-1.247233	-0.142156	-0.202612
N98	N	-0.747233	0.357844	0.297388
H99	H	-1.293202	-0.085986	-0.147569
H100	H	-0.793202	0.414014	0.352431
