data_functionalizedCrystal
_audit_creation_method	'MofGen! by Chris Wilmer'
_symmetry_space_group_name_H-M	'P1'
_symmetry_Int_Tables_number	1
_symmetry_cell_setting	triclinic
loop_
_symmetry_equiv_pos_as_xyz
  x,y,z
_cell_length_a	17.639617
_cell_length_b	12.827893
_cell_length_c	12.827885
_cell_angle_alpha	89.974949
_cell_angle_beta	78.758244
_cell_angle_gamma	101.190607
loop_
_atom_site_label
_atom_site_type_symbol
_atom_site_fract_x
_atom_site_fract_y
_atom_site_fract_z
Zn1	Zn	1.208567	-0.093408	-0.914473
Zn2	Zn	1.208514	-0.268200	-0.739733
Zn3	Zn	1.076377	-0.128741	-0.704353
Zn4	Zn	1.076393	-0.303386	-0.879058
O5	O	1.142463	-0.198434	-0.809404
O6	O	1.319175	-0.087082	-0.920921
O7	O	1.190957	-0.249762	-0.588796
O8	O	1.093928	0.022186	-0.732240
O9	O	1.319137	-0.215500	-0.792541
O10	O	1.191047	0.048145	-0.886614
O11	O	1.093876	-0.147302	-0.562802
O12	O	0.965764	-0.181421	-0.697900
O13	O	1.093955	-0.275470	-1.030000
O14	O	0.965776	-0.309732	-0.826255
O15	O	1.191063	-0.121201	-1.056019
O16	O	1.190973	-0.419107	-0.758201
O17	O	1.093904	-0.444958	-0.860562
C18	C	0.937089	-0.253229	-0.754396
C19	C	0.849229	-0.276696	-0.730888
C20	C	0.560340	-0.020135	-0.988250
C21	C	0.477783	-0.042212	-0.966140
C22	C	0.477764	-0.175713	-0.832265
C23	C	0.560324	-0.153650	-0.854368
C24	C	0.601605	-0.075860	-0.932361
C25	C	0.601589	-0.209375	-0.798478
C26	C	0.684141	-0.187310	-0.820576
C27	C	0.725428	-0.109521	-0.898563
C28	C	0.684158	-0.053795	-0.954458
C29	C	0.560305	-0.287160	-0.720480
C30	C	0.601570	-0.342885	-0.664591
C31	C	0.684124	-0.320826	-0.686693
C32	C	0.725411	-0.243036	-0.764680
C33	C	0.725395	-0.376552	-0.630798
C34	C	0.807947	-0.354487	-0.652895
C35	C	0.807964	-0.220972	-0.786778
C36	C	1.142456	-0.469945	-0.809407
C37	C	1.142525	-0.586080	-0.809462
C38	C	1.142517	-0.198319	-1.081989
C39	C	1.142540	-0.198270	-1.198148
C40	C	1.348639	-0.143425	-0.864628
C41	C	1.436499	-0.119983	-0.888161
C42	C	1.142491	0.074144	-0.809431
C43	C	1.142503	0.190300	-0.809442
C44	C	1.094456	0.229242	-0.733066
C45	C	1.094467	0.349296	-0.733076
C46	C	1.190597	-0.121919	-1.262809
C47	C	1.190622	-0.121867	-1.382867
C48	C	1.142455	-0.198460	-0.537892
C49	C	1.142585	-0.198174	-0.421775
H50	H	0.792648	-0.091554	-0.916550
H51	H	1.183644	0.245838	-0.874841
Cl52	Cl	1.254152	-0.020943	-1.468639
Cl53	Cl	1.254074	-0.021030	-1.211057
Cl54	Cl	0.736061	0.043992	-1.052517
Cl55	Cl	0.859827	-0.424551	-0.582643
Cl56	Cl	1.079061	-0.299110	-1.336010
H57	H	0.841578	-0.157631	-0.850291
H58	H	1.101409	-0.263593	-1.231670
Cl59	Cl	0.612244	0.077652	-1.086309
H60	H	1.183666	0.380389	-0.874851
Cl61	Cl	1.030922	0.143500	-0.632103
Cl62	Cl	0.425909	0.027857	-1.036405
Cl63	Cl	1.030959	0.401071	-0.632111
H64	H	0.493086	-0.305099	-0.702468
Cl65	Cl	0.425860	-0.273500	-0.734218
H66	H	0.567947	-0.406219	-0.601086
H67	H	0.691771	-0.439881	-0.567289
