data_functionalizedCrystal
_audit_creation_method	'MofGen! by Chris Wilmer'
_symmetry_space_group_name_H-M	'P1'
_symmetry_Int_Tables_number	1
_symmetry_cell_setting	triclinic
loop_
_symmetry_equiv_pos_as_xyz
  x,y,z
_cell_length_a	15.995350
_cell_length_b	15.995292
_cell_length_c	14.472311
_cell_angle_alpha	89.994907
_cell_angle_beta	89.998542
_cell_angle_gamma	83.480495
loop_
_atom_site_label
_atom_site_type_symbol
_atom_site_fract_x
_atom_site_fract_y
_atom_site_fract_z
O1	O	1.110963	0.107934	-0.076756
O2	O	0.867185	0.121262	-0.076774
O3	O	0.995763	-0.007293	-0.076766
O4	O	0.982385	0.236489	-0.076764
O5	O	0.995752	-0.007306	0.076916
O6	O	0.867174	0.121249	0.076908
O7	O	1.110952	0.107921	0.076926
Cu8	Cu	0.989062	0.114584	0.090949
Cu9	Cu	0.989075	0.114599	-0.090798
O10	O	0.982373	0.236476	0.076918
C11	C	0.835985	0.120704	0.000064
C12	C	0.743035	0.119053	0.000057
C13	C	0.995213	-0.038495	0.000073
C14	C	0.993581	-0.131448	0.000066
C15	C	0.987580	-0.469186	0.000074
C16	C	1.080384	-0.445874	0.000424
C17	C	1.082148	-0.349199	0.000074
C18	C	0.990557	-0.301631	0.000070
C19	C	0.944166	-0.330724	-0.087690
C20	C	0.943049	-0.427515	-0.087761
C21	C	0.941141	-0.427386	0.087004
C22	C	0.944580	-0.330894	0.088161
C23	C	0.992235	-0.206934	0.000065
C24	C	0.985899	-0.563882	0.000072
C25	C	0.405288	0.113120	0.000076
C26	C	0.452742	0.021566	0.000418
C27	C	0.549431	0.023218	0.000066
C28	C	0.572848	0.116063	0.000067
C29	C	0.531759	0.161228	-0.087689
C30	C	0.435123	0.158928	-0.087756
C31	C	0.434771	0.160805	0.087010
C32	C	0.531716	0.160783	0.088163
C33	C	0.667546	0.117731	0.000059
C34	C	0.310591	0.111455	0.000078
C35	C	1.142152	0.108479	0.000085
C36	C	1.235102	0.110130	0.000087
C37	C	0.982924	0.267678	0.000077
C38	C	0.984556	0.360631	0.000078
N39	N	0.989058	0.114573	0.218780
N40	N	0.989085	0.114603	-0.218628
C41	C	0.989067	0.114584	0.407280
C42	C	1.057883	0.045820	0.446486
C43	C	1.058132	0.046003	0.553574
C44	C	0.989076	0.114593	0.592871
C45	C	1.007778	0.202068	0.553980
C46	C	1.008267	0.201659	0.446859
C47	C	0.901343	0.096660	0.446764
C48	C	0.901937	0.094680	0.553893
C49	C	0.989080	0.114603	0.697760
C50	C	0.989066	0.114579	0.302392
H51	H	1.118480	-0.330179	0.062983
C52	C	0.832163	0.164389	0.412511
H53	H	0.779304	0.153227	0.436603
H54	H	0.830257	0.163551	0.346918
H55	H	0.844249	0.218180	0.432897
H56	H	1.072232	0.217403	0.421872
H57	H	1.046999	-0.019408	0.420714
H58	H	1.122621	0.057136	0.419554
C59	C	0.876935	0.012304	0.410289
H60	H	0.823814	0.002692	0.434942
H61	H	0.918237	-0.031974	0.428650
H62	H	0.873689	0.014157	0.344763
H63	H	0.414236	0.130868	0.153527
H64	H	0.975187	-0.454326	-0.153360
H65	H	1.123240	0.057492	0.579200
H66	H	1.115961	-0.474887	-0.062155
C67	C	1.128704	-0.483693	0.085449
H68	H	1.092718	-0.514047	0.121494
H69	H	1.147164	-0.439727	0.121578
H70	H	1.176035	-0.520654	0.065730
H71	H	0.875004	-0.442065	-0.091740
C72	C	0.853121	-0.287670	-0.092114
H73	H	0.842568	-0.251479	-0.040356
H74	H	0.815173	-0.329241	-0.091302
H75	H	0.845457	-0.255711	-0.147412
C76	C	0.848861	-0.446286	0.087810
H77	H	0.821125	-0.420859	0.140491
H78	H	0.847085	-0.505411	0.090066
H79	H	0.821439	-0.424232	0.033365
C80	C	0.829552	0.157923	0.590019
H81	H	0.851626	0.197479	0.629517
H82	H	0.790827	0.128701	0.623480
H83	H	0.801557	0.186624	0.539339
C84	C	0.426293	-0.027648	-0.084124
H85	H	0.455251	-0.082893	-0.083384
H86	H	0.439947	0.000312	-0.139079
H87	H	0.367360	-0.030734	-0.082054
C88	C	0.987623	-0.303517	-0.175918
H89	H	1.034040	-0.274450	-0.159458
H90	H	0.948660	-0.267448	-0.211339
H91	H	1.006976	-0.351846	-0.211379
H92	H	0.559035	0.127813	0.153085
C93	C	0.943117	0.272890	0.411815
H94	H	0.916473	0.301952	0.463049
H95	H	0.902085	0.249693	0.375344
H96	H	0.970612	0.310982	0.375445
C97	C	0.990184	-0.305792	0.175875
H98	H	0.962070	-0.323660	0.228928
H99	H	0.990014	-0.246402	0.177473
H100	H	1.046600	-0.331832	0.175341
H101	H	0.416827	0.126002	-0.153357
C102	C	1.131522	-0.324321	-0.085058
H103	H	1.150572	-0.373327	-0.119568
H104	H	1.178506	-0.297494	-0.065492
H105	H	1.095937	-0.286802	-0.122650
C106	C	0.980406	-0.465562	0.176866
H107	H	1.025495	-0.507354	0.162205
H108	H	0.938939	-0.490327	0.211131
H109	H	1.001030	-0.422554	0.212692
H110	H	0.402861	0.226146	-0.091737
C111	C	0.391847	0.251993	0.087823
H112	H	0.409915	0.280489	0.140505
H113	H	0.332531	0.251676	0.090081
H114	H	0.406628	0.280075	0.033380
H115	H	0.877728	-0.297925	0.093458
H116	H	0.887737	0.030328	0.579312
H117	H	0.577863	-0.012284	0.062973
H118	H	0.958974	0.254486	0.579433
C119	C	0.552449	0.252248	0.095329
H120	H	0.586608	0.264415	0.044457
H121	H	0.581795	0.259329	0.151341
H122	H	0.501727	0.289432	0.094590
H123	H	1.071011	0.218190	0.580807
H124	H	0.434222	-0.015036	0.063352
H125	H	0.577302	-0.012513	-0.062952
H126	H	0.545869	0.229439	-0.090951
H127	H	0.560144	0.129868	-0.152999
C128	C	1.043185	-0.041827	0.589103
H129	H	1.036907	-0.077942	0.538068
H130	H	0.993579	-0.037435	0.625700
H131	H	1.089868	-0.064302	0.625447
