data_functionalizedCrystal
_audit_creation_method	'MofGen! by Chris Wilmer'
_symmetry_space_group_name_H-M	'P1'
_symmetry_Int_Tables_number	1
_symmetry_cell_setting	triclinic
loop_
_symmetry_equiv_pos_as_xyz
  x,y,z
_cell_length_a	19.077115
_cell_length_b	10.685194
_cell_length_c	19.077569
_cell_angle_alpha	96.507052
_cell_angle_beta	94.700051
_cell_angle_gamma	91.901587
loop_
_atom_site_label
_atom_site_type_symbol
_atom_site_fract_x
_atom_site_fract_y
_atom_site_fract_z
Zn1	Zn	1.069327	-0.549533	0.417364
Zn2	Zn	1.054783	-0.768715	0.289713
Zn3	Zn	0.946709	-0.549551	0.294760
Zn4	Zn	0.942406	-0.752339	0.403564
O5	O	1.003306	-0.655034	0.351350
O6	O	1.165744	-0.585453	0.404094
O7	O	1.036160	-0.746503	0.191426
O8	O	0.970862	-0.372952	0.318912
O9	O	1.155058	-0.746485	0.310310
O10	O	1.060949	-0.372939	0.408988
O11	O	0.956759	-0.585484	0.195134
O12	O	0.847792	-0.569605	0.305530
O13	O	0.963529	-0.718575	0.504351
O14	O	0.844631	-0.718593	0.385467
O15	O	1.056777	-0.569574	0.514490
O16	O	1.031988	-0.943138	0.296928
O17	O	0.949425	-0.931107	0.380573
C18	C	0.820711	-0.642325	0.344549
C19	C	0.742596	-0.636917	0.341655
C20	C	0.303065	-0.598075	0.320907
C21	C	0.376463	-0.603163	0.323630
C22	C	0.411523	-0.683415	0.366531
C23	C	0.373182	-0.758574	0.406717
C24	C	0.299786	-0.753479	0.403998
C25	C	0.630858	-0.706981	0.379122
C26	C	0.704260	-0.712073	0.381837
C27	C	0.707536	-0.556660	0.298750
C28	C	0.634138	-0.551577	0.296031
C29	C	0.595803	-0.626731	0.336220
N30	N	0.486547	-0.688621	0.369313
N31	N	0.520781	-0.621518	0.333441
C32	C	0.988681	-0.982912	0.336722
C33	C	0.982490	-1.123183	0.330489
C34	C	1.186614	-0.667794	0.358179
C35	C	1.264729	-0.673232	0.361088
C36	C	1.011295	-0.642246	0.535797
C37	C	1.014700	-0.636797	0.614397
C38	C	1.018008	-0.325876	0.366053
C39	C	1.024273	-0.185608	0.372318
C40	C	0.995393	-0.667684	0.167627
C41	C	0.992140	-0.672788	0.089049
C42	C	0.967751	-0.711807	0.646046
C43	C	0.970956	-0.706687	0.719899
C44	C	1.021107	-0.626549	0.762102
C45	C	1.068060	-0.551536	0.730448
C46	C	1.064858	-0.556663	0.656596
C47	C	1.035892	-0.602902	0.983543
C48	C	1.039089	-0.597777	1.057400
C49	C	0.941985	-0.752931	1.046845
C50	C	0.938785	-0.758046	0.972992
C51	C	0.985741	-0.683037	0.941345
N52	N	1.024382	-0.621311	0.837592
N53	N	0.982468	-0.688283	0.865856
H54	H	0.605596	-0.486237	0.261091
H55	H	0.738755	-0.495473	0.266031
H56	H	0.897957	-0.823323	0.938634
H57	H	0.268574	-0.814675	0.436720
C58	C	1.115905	-0.475437	0.622188
C59	C	1.155933	-0.552973	0.578291
C60	C	1.202974	-0.478195	0.546590
H61	H	1.090308	-0.420566	0.594777
H62	H	1.146271	-0.426998	0.657876
H63	H	1.125571	-0.601390	0.542607
H64	H	1.181544	-0.607843	0.605684
H65	H	1.233339	-0.429756	0.582279
H66	H	1.177371	-0.423327	0.519184
H67	H	1.230142	-0.530792	0.516808
C68	C	0.928397	-1.194772	0.276356
C69	C	0.891083	-1.109071	0.239030
C70	C	0.841242	-1.174971	0.189164
H71	H	0.951646	-1.250184	0.244245
H72	H	0.896640	-1.242184	0.299965
H73	H	0.922835	-1.061681	0.215422
H74	H	0.867818	-1.053657	0.271121
H75	H	0.809485	-1.222383	0.212773
H76	H	0.864497	-1.230381	0.157059
H77	H	0.815913	-1.116833	0.163837
H78	H	0.903756	-0.813999	1.072621
C79	C	1.086740	-0.521331	0.949114
C80	C	1.048704	-0.440641	0.908846
C81	C	1.095517	-0.365465	0.877117
H82	H	1.117068	-0.472754	0.984764
H83	H	1.113963	-0.573656	0.919243
H84	H	1.021492	-0.388322	0.938715
H85	H	1.018378	-0.489185	0.873185
H86	H	1.122740	-0.417789	0.847246
H87	H	1.125842	-0.316895	0.912772
H88	H	1.069716	-0.310716	0.849787
C89	C	1.078208	-1.113845	0.426542
C90	C	1.064472	-1.139852	0.494521
C91	C	1.114137	-1.073744	0.544492
H92	H	1.124085	-1.139257	0.417146
H93	H	1.075329	-1.025935	0.423729
H94	H	1.067359	-1.227743	0.497332
H95	H	1.018605	-1.114435	0.503940
H96	H	1.111257	-0.985834	0.541679
H97	H	1.160011	-1.099162	0.535089
H98	H	1.104820	-1.091372	0.590622
H99	H	0.932726	-0.767770	0.745664
C100	C	0.913280	-0.798958	0.600348
C101	C	0.872867	-0.863585	0.643875
C102	C	0.822691	-0.943903	0.601806
H103	H	0.883492	-0.750705	0.572537
H104	H	0.936449	-0.857877	0.570101
H105	H	0.849699	-0.804675	0.674110
H106	H	0.902635	-0.911862	0.671686
H107	H	0.845860	-1.002821	0.571559
H108	H	0.792909	-0.895640	0.573997
H109	H	0.795269	-0.987770	0.631332
H110	H	0.401734	-0.823911	0.441651
C111	C	1.093616	-0.510733	1.103100
C112	C	1.134066	-0.446165	1.059578
C113	C	1.184304	-0.365984	1.101652
H114	H	1.070519	-0.451768	1.133372
H115	H	1.123365	-0.559118	1.130885
H116	H	1.104322	-0.397783	1.031806
H117	H	1.157179	-0.505097	1.029307
H118	H	1.214052	-0.414368	1.129436
H119	H	1.161201	-0.307027	1.131921
H120	H	1.211759	-0.322173	1.072128
H121	H	0.274525	-0.532727	0.285971
H122	H	0.732803	-0.777424	0.416776
H123	H	0.599655	-0.768181	0.411844
H124	H	0.407673	-0.541969	0.290906
H125	H	1.108897	-0.486292	0.764816
