data_functionalizedCrystal
_audit_creation_method	'MofGen! by Chris Wilmer'
_symmetry_space_group_name_H-M	'P1'
_symmetry_Int_Tables_number	1
_symmetry_cell_setting	triclinic
loop_
_symmetry_equiv_pos_as_xyz
  x,y,z
_cell_length_a	19.288864
_cell_length_b	10.654550
_cell_length_c	18.366186
_cell_angle_alpha	89.994973
_cell_angle_beta	89.977106
_cell_angle_gamma	83.810575
loop_
_atom_site_label
_atom_site_type_symbol
_atom_site_fract_x
_atom_site_fract_y
_atom_site_fract_z
O1	O	0.922379	0.156657	-0.060782
O2	O	0.720256	0.177789	-0.060732
O3	O	0.825965	-0.015616	-0.060755
O4	O	0.816670	0.350062	-0.060758
O5	O	0.825946	-0.015625	0.060344
O6	O	0.720238	0.177780	0.060368
O7	O	0.922360	0.156647	0.060318
Zn8	Zn	0.821296	0.167212	0.079570
Zn9	Zn	0.821320	0.167224	-0.079984
O10	O	0.816652	0.350052	0.060341
C11	C	0.694366	0.177105	-0.000176
C12	C	0.617249	0.175063	-0.000156
C13	C	0.825273	-0.062404	-0.000206
C14	C	0.823231	-0.201803	-0.000208
C15	C	0.573296	0.288545	-0.000169
C16	C	0.500836	0.286627	-0.000177
C17	C	0.472333	0.171222	-0.000187
C18	C	0.516296	0.057725	-0.000171
C19	C	0.588754	0.059646	-0.000155
C20	C	0.363484	0.080503	-0.042637
C21	C	0.291027	0.078587	-0.042657
C22	C	0.248849	0.165292	-0.000231
C23	C	0.279136	0.253935	0.042205
C24	C	0.351594	0.255855	0.042221
C25	C	0.393766	0.169126	-0.000203
C26	C	0.126326	0.276702	-0.000251
C27	C	0.053865	0.274779	-0.000255
C28	C	0.069327	0.045875	-0.000256
C29	C	0.141786	0.047800	-0.000245
C30	C	0.170281	0.163217	-0.000246
C31	C	0.885471	-0.282621	-0.000221
C32	C	0.883548	-0.413601	-0.000226
C33	C	0.757141	-0.382932	-0.000201
C34	C	0.759065	-0.251955	-0.000202
C35	C	0.949637	-0.232470	-0.000228
C36	C	1.011882	-0.313290	-0.000240
C37	C	1.009959	-0.444269	-0.000245
C38	C	0.945792	-0.494429	-0.000237
C39	C	0.948250	0.157332	-0.000240
C40	C	1.025367	0.159373	-0.000264
C41	C	0.817344	0.396840	-0.000209
C42	C	0.819385	0.536240	-0.000212
N43	N	0.821285	0.167203	0.188461
N44	N	0.821337	0.167224	-0.188875
C45	C	0.868108	0.081605	0.226551
C46	C	0.868113	0.081599	0.302779
C47	C	0.821300	0.167213	0.340914
C48	C	0.774468	0.252817	0.302815
C49	C	0.774461	0.252812	0.226588
C50	C	0.812752	0.281634	0.461675
C51	C	0.812764	0.281641	0.537899
C52	C	0.821320	0.167229	0.576021
C53	C	0.829879	0.052804	0.537909
C54	C	0.829871	0.052799	0.461682
C55	C	0.821303	0.167228	0.423569
C56	C	0.868151	0.081618	0.696766
C57	C	0.868151	0.081610	0.772995
C58	C	0.774509	0.252840	0.773030
C59	C	0.774507	0.252836	0.696802
C60	C	0.821331	0.167226	0.658675
H61	H	0.596492	0.382526	-0.000171
N62	N	0.453417	0.409028	-0.000192
H63	H	0.482464	0.482434	-0.000190
H64	H	0.423046	0.413205	-0.045093
H65	H	0.704899	-0.423784	-0.000194
H66	H	0.493084	-0.036239	-0.000189
N67	N	1.081086	-0.259190	-0.000247
H68	H	1.108372	-0.288703	0.044638
H69	H	1.108336	-0.288691	-0.045175
H70	H	0.624542	-0.032767	-0.000146
H71	H	0.944232	-0.601083	-0.000248
N72	N	0.408970	-0.013026	-0.088398
H73	H	0.395601	-0.001655	-0.141341
H74	H	0.459451	0.001687	-0.081889
H75	H	1.060642	-0.510069	-0.000262
H76	H	0.708384	-0.186150	-0.000190
N77	N	0.918659	-0.010707	0.814085
H78	H	0.949633	0.037164	0.845692
H79	H	0.891810	-0.066171	0.845688
N80	N	0.918607	-0.010731	0.185428
H81	H	0.948270	-0.064959	0.221130
H82	H	0.891749	-0.066132	0.153822
H83	H	0.736352	0.322524	0.333868
H84	H	0.906243	0.011892	0.333797
H85	H	0.736331	0.322517	0.195575
N86	N	0.384262	0.351448	0.087990
H87	H	0.346553	0.406088	0.114867
H88	H	0.417425	0.306024	0.124233
N89	N	0.724012	0.345173	0.814150
H90	H	0.731120	0.332187	0.868219
H91	H	0.732459	0.434226	0.800816
N92	N	0.038589	-0.078596	-0.000266
H93	H	0.054602	-0.128296	-0.045154
H94	H	0.054562	-0.128197	0.044659
N95	N	0.951714	-0.091202	-0.000232
H96	H	0.902548	-0.047613	-0.000224
H97	H	0.977010	-0.065786	0.044658
H98	H	0.836838	-0.040369	0.430654
H99	H	0.836846	-0.040361	0.568946
N100	N	0.724002	0.345168	0.655720
H101	H	0.732428	0.434262	0.668974
H102	H	0.731122	0.332068	0.601658
N103	N	0.258361	-0.017013	-0.088424
H104	H	0.270214	-0.004992	-0.141361
H105	H	0.276940	-0.104988	-0.072513
H106	H	0.906276	0.011905	0.665722
N107	N	0.803530	0.405047	0.579004
H108	H	0.798096	0.477526	0.543289
H109	H	0.760559	0.407856	0.610651
H110	H	0.805772	0.374809	0.430642
H111	H	0.177574	-0.044609	-0.000239
N112	N	0.233655	0.347468	0.087965
H113	H	0.183158	0.332802	0.081520
H114	H	0.247086	0.336062	0.140887
H115	H	0.149528	0.370681	-0.000241
N116	N	0.006477	0.397210	-0.000257
H117	H	-0.023913	0.401548	-0.045149
H118	H	-0.023903	0.401456	0.044664
