data_functionalizedCrystal
_audit_creation_method	'MofGen! by Chris Wilmer'
_symmetry_space_group_name_H-M	'P1'
_symmetry_Int_Tables_number	1
_symmetry_cell_setting	triclinic
loop_
_symmetry_equiv_pos_as_xyz
  x,y,z
_cell_length_a	12.759401
_cell_length_b	19.076808
_cell_length_c	12.759393
_cell_angle_alpha	92.334138
_cell_angle_beta	90.020938
_cell_angle_gamma	92.325019
loop_
_atom_site_label
_atom_site_type_symbol
_atom_site_fract_x
_atom_site_fract_y
_atom_site_fract_z
Zn1	Zn	1.589386	-0.280155	0.577177
Zn2	Zn	2.089386	0.219845	1.077177
Zn3	Zn	1.582184	-0.397876	0.394420
Zn4	Zn	2.082184	0.102124	0.894420
Zn5	Zn	1.413683	-0.280193	0.401510
Zn6	Zn	1.913683	0.219807	0.901510
Zn7	Zn	1.406587	-0.397827	0.570060
Zn8	Zn	1.906587	0.102173	1.070060
O9	O	1.497960	-0.339013	0.485792
O10	O	1.997960	0.160987	0.985792
O11	O	1.735451	-0.295776	0.552945
O12	O	2.235451	0.204224	1.052945
O13	O	1.559788	-0.382302	0.248337
O14	O	2.059788	0.117698	0.748337
O15	O	1.442974	-0.181691	0.430759
O16	O	1.942974	0.318309	0.930759
O17	O	1.730160	-0.382265	0.418675
O18	O	2.230160	0.117735	0.918675
O19	O	1.572062	-0.181663	0.559820
O20	O	2.072062	0.318337	1.059820
O21	O	1.435990	-0.295840	0.253546
O22	O	1.935990	0.204160	0.753546
O23	O	1.265721	-0.295792	0.423858
O24	O	1.765721	0.204208	0.923858
O25	O	1.430880	-0.382182	0.718028
O26	O	1.930880	0.117818	1.218028
O27	O	1.260507	-0.382218	0.547691
O28	O	1.760507	0.117782	1.047691
O29	O	1.565182	-0.295729	0.723257
O30	O	2.065182	0.204271	1.223257
O31	O	1.552907	-0.496367	0.411773
O32	O	2.052907	0.003633	0.911773
O33	O	1.423896	-0.496331	0.540816
O34	O	1.923896	0.003669	1.040816
C35	C	1.224993	-0.339004	0.485772
C36	C	1.724993	0.160996	0.985772
C37	C	1.108216	-0.339018	0.485787
C38	C	1.608216	0.160982	0.985787
C39	C	1.050662	-0.384088	0.550157
C40	C	1.550662	0.115912	1.050157
C41	C	0.940938	-0.384091	0.550178
C42	C	1.440938	0.115909	1.050178
C43	C	0.946330	-0.293951	0.421449
C44	C	1.446330	0.206049	0.921449
C45	C	1.056052	-0.293945	0.421435
C46	C	1.556052	0.206055	0.921435
C47	C	1.486879	-0.521888	0.474776
C48	C	1.986879	-0.021888	0.974776
C49	C	1.482234	-0.600123	0.470098
C50	C	1.982234	-0.100123	0.970098
C51	C	1.547211	-0.636803	0.535150
C52	C	2.047211	-0.136803	1.035150
C53	C	1.542843	-0.710312	0.530757
C54	C	2.042843	-0.210312	1.030757
C55	C	1.473502	-0.747141	0.461305
C56	C	1.973502	-0.247141	0.961305
C57	C	1.408518	-0.710456	0.396250
C58	C	1.908518	-0.210456	0.896250
C59	C	1.412881	-0.636947	0.400650
C60	C	1.912881	-0.136947	0.900650
C61	C	1.453245	-0.966996	0.440941
C62	C	1.953245	-0.466996	0.940941
C63	C	1.448889	-1.040509	0.436545
C64	C	1.948889	-0.540509	0.936545
C65	C	1.583213	-1.040361	0.571053
C66	C	2.083213	-0.540361	1.071053
C67	C	1.587575	-0.966851	0.575442
C68	C	2.087575	-0.466851	1.075442
C69	C	1.522587	-0.930172	0.510391
C70	C	2.022587	-0.430172	1.010391
N71	N	1.469038	-0.822280	0.456811
N72	N	1.969038	-0.322280	0.956811
N73	N	1.527047	-0.855035	0.514892
N74	N	2.027047	-0.355035	1.014892
C75	C	1.771992	-0.339022	0.485813
C76	C	2.271992	0.160978	0.985813
C77	C	1.888769	-0.339026	0.485822
C78	C	2.388769	0.160974	0.985822
C79	C	1.498042	-0.338945	0.759830
C80	C	1.998042	0.161055	1.259830
C81	C	1.498078	-0.338917	0.876608
C82	C	1.998078	0.161083	1.376608
C83	C	1.509113	-0.155424	0.496874
C84	C	2.009113	0.344576	0.996874
C85	C	1.513866	-0.077189	0.501597
C86	C	2.013866	0.422811	1.001597
C87	C	1.497941	-0.339030	0.212824
C88	C	1.997941	0.160970	0.712824
C89	C	1.498121	-0.338860	0.096058
C90	C	1.998121	0.161140	0.596058
C91	C	1.568014	-0.293893	0.934195
C92	C	2.068014	0.206107	1.434195
C93	C	1.568034	-0.293863	1.043921
C94	C	2.068034	0.206137	1.543921
C95	C	1.428177	-0.383885	1.038463
C96	C	1.928177	0.116115	1.538463
C97	C	1.428153	-0.383912	0.928739
C98	C	1.928153	0.116088	1.428739
H99	H	1.102914	-0.257239	0.369017
H100	H	1.602914	0.242761	0.869017
C101	C	1.372601	-1.081019	0.360143
C102	C	1.872601	-0.581019	0.860143
N103	N	1.315144	-1.111531	0.302600
N104	N	1.815144	-0.611531	0.802600
H105	H	1.624948	-0.257254	0.891753
H106	H	2.124948	0.242746	1.391753
H107	H	1.603681	-0.606822	0.591701
H108	H	2.103681	-0.106822	1.091701
H109	H	0.903845	-0.257256	0.369055
H110	H	1.403845	0.242744	0.869055
H111	H	1.371249	-0.420520	1.080922
H112	H	1.871249	0.079480	1.580922
C113	C	1.332306	-0.750970	0.319789
C114	C	1.832306	-0.250970	0.819789
N115	N	1.274927	-0.781484	0.262170
N116	N	1.774927	-0.281484	0.762170
H117	H	1.624981	-0.257200	1.090803
H118	H	2.124981	0.242800	1.590803
C119	C	0.877634	-0.433678	0.620980
C120	C	1.377634	0.066322	1.120980
N121	N	0.829954	-0.471031	0.674308
N122	N	1.329954	0.028969	1.174308
C123	C	1.614338	-0.750657	0.602306
C124	C	2.114338	-0.250657	1.102306
N125	N	1.668195	-0.781044	0.656197
N126	N	2.168195	-0.281044	1.156197
H127	H	1.093130	-0.420787	0.602559
H128	H	1.593130	0.079213	1.102559
H129	H	1.371195	-0.420574	0.881851
H130	H	1.871195	0.079426	1.381851
H131	H	1.644038	-0.936867	0.631995
H132	H	2.144038	-0.436867	1.131995
H133	H	1.359969	-0.607083	0.347679
H134	H	1.859969	-0.107083	0.847679
H135	H	1.636121	-1.070233	0.624015
H136	H	2.136121	-0.570233	1.124015
H137	H	1.400331	-0.937138	0.387972
H138	H	1.900331	-0.437138	0.887972
