data_functionalizedCrystal
_audit_creation_method	'MofGen! by Chris Wilmer'
_symmetry_space_group_name_H-M	'P1'
_symmetry_Int_Tables_number	1
_symmetry_cell_setting	triclinic
loop_
_symmetry_equiv_pos_as_xyz
  x,y,z
_cell_length_a	17.077404
_cell_length_b	18.050590
_cell_length_c	17.077395
_cell_angle_alpha	89.971485
_cell_angle_beta	89.985498
_cell_angle_gamma	90.016523
loop_
_atom_site_label
_atom_site_type_symbol
_atom_site_fract_x
_atom_site_fract_y
_atom_site_fract_z
Zn1	Zn	1.200048	-0.295709	-0.443812
Zn2	Zn	1.533382	0.037624	-0.110478
Zn3	Zn	1.866715	0.370958	0.222855
Zn4	Zn	1.199974	-0.419903	-0.312543
Zn5	Zn	1.533308	-0.086570	0.020791
Zn6	Zn	1.866641	0.246763	0.354124
Zn7	Zn	1.068789	-0.295727	-0.312562
Zn8	Zn	1.402122	0.037606	0.020771
Zn9	Zn	1.735456	0.370939	0.354104
Zn10	Zn	1.068758	-0.419857	-0.443769
Zn11	Zn	1.402091	-0.086524	-0.110436
Zn12	Zn	1.735425	0.246809	0.222898
O13	O	1.134392	-0.357799	-0.378171
O14	O	1.467726	-0.024466	-0.044838
O15	O	1.801059	0.308867	0.288495
O16	O	1.309885	-0.312195	-0.426408
O17	O	1.643219	0.021138	-0.093075
O18	O	1.976552	0.354471	0.240258
O19	O	1.182554	-0.403458	-0.202698
O20	O	1.515887	-0.070125	0.130635
O21	O	1.849221	0.263208	0.463968
O22	O	1.086245	-0.191800	-0.329999
O23	O	1.419578	0.141533	0.003334
O24	O	1.752911	0.474866	0.336668
O25	O	1.309831	-0.403440	-0.329966
O26	O	1.643164	-0.070107	0.003368
O27	O	1.976498	0.263226	0.336701
O28	O	1.182680	-0.191787	-0.426427
O29	O	1.516014	0.141547	-0.093094
O30	O	1.849347	0.474880	0.240239
O31	O	1.086173	-0.312227	-0.202713
O32	O	1.419506	0.021107	0.130621
O33	O	1.752840	0.354440	0.463954
O34	O	0.958938	-0.312182	-0.329957
O35	O	1.292271	0.021152	0.003376
O36	O	1.625605	0.354485	0.336709
O37	O	1.086192	-0.403362	-0.553622
O38	O	1.419525	-0.070028	-0.220288
O39	O	1.752859	0.263305	0.113045
O40	O	0.958915	-0.403379	-0.426354
O41	O	1.292249	-0.070046	-0.093021
O42	O	1.625582	0.263287	0.240312
O43	O	1.182650	-0.312150	-0.553653
O44	O	1.515984	0.021183	-0.220320
O45	O	1.849317	0.354516	0.113014
O46	O	1.182524	-0.523822	-0.329924
O47	O	1.515857	-0.190489	0.003409
O48	O	1.849191	0.142845	0.336742
O49	O	1.086120	-0.523788	-0.426336
O50	O	1.419454	-0.190455	-0.093002
O51	O	1.752787	0.142879	0.240331
C52	C	0.930445	-0.357778	-0.378154
C53	C	1.263778	-0.024445	-0.044821
C54	C	1.597111	0.308889	0.288513
C55	C	0.843195	-0.357787	-0.378165
C56	C	1.176528	-0.024454	-0.044832
C57	C	1.509861	0.308880	0.288502
C58	C	0.802234	-0.310360	-0.428459
C59	C	1.135567	0.022973	-0.095126
C60	C	1.468900	0.356307	0.238207
C61	C	0.720253	-0.310365	-0.428463
C62	C	1.053587	0.022968	-0.095130
C63	C	1.386920	0.356302	0.238204
C64	C	0.679235	-0.357801	-0.378176
C65	C	1.012569	-0.024468	-0.044842
C66	C	1.345902	0.308866	0.288491
C67	C	0.720202	-0.405230	-0.327876
C68	C	1.053535	-0.071897	0.005458
C69	C	1.386869	0.261437	0.338791
C70	C	0.802181	-0.405221	-0.327869
C71	C	1.135514	-0.071887	0.005465
C72	C	1.468848	0.261446	0.338798
C73	C	0.549332	-0.405247	-0.327895
C74	C	0.882665	-0.071913	0.005438
C75	C	1.215999	0.261420	0.338772
C76	C	0.467347	-0.405257	-0.327903
C77	C	0.800681	-0.071924	0.005430
C78	C	1.134014	0.261410	0.338764
C79	C	0.467404	-0.310391	-0.428489
C80	C	0.800738	0.022942	-0.095156
C81	C	1.134071	0.356276	0.238177
C82	C	0.549383	-0.310382	-0.428482
C83	C	0.882717	0.022952	-0.095149
C84	C	1.216050	0.356285	0.238184
C85	C	0.590344	-0.357812	-0.378183
C86	C	0.923678	-0.024479	-0.044850
C87	C	1.257011	0.308855	0.288483
C88	C	1.134332	-0.550751	-0.378140
C89	C	1.467665	-0.217418	-0.044807
C90	C	1.800999	0.115915	0.288526
C91	C	1.134378	-0.633297	-0.378153
C92	C	1.467711	-0.299964	-0.044820
C93	C	1.801045	0.033370	0.288514
C94	C	1.186912	-0.832739	-0.325798
C95	C	1.520245	-0.499406	0.007536
C96	C	1.853578	-0.166073	0.340869
C97	C	1.206082	-0.882072	-0.397440
C98	C	1.539415	-0.548739	-0.064107
C99	C	1.872748	-0.215406	0.269227
C100	C	1.134423	-0.784427	-0.378184
C101	C	1.467756	-0.451094	-0.044851
C102	C	1.801089	-0.117761	0.288482
C103	C	1.115333	-0.882176	-0.306574
C104	C	1.448666	-0.548843	0.026759
C105	C	1.781999	-0.215509	0.360092
C106	C	1.134467	-0.930413	-0.378208
C107	C	1.467800	-0.597079	-0.044875
C108	C	1.801134	-0.263746	0.288458
C109	C	1.153629	-0.832673	-0.449864
C110	C	1.486963	-0.499340	-0.116531
C111	C	1.820296	-0.166007	0.216802
C112	C	1.062847	-0.832773	-0.358950
C113	C	1.396180	-0.499439	-0.025617
C114	C	1.729514	-0.166106	0.307716
C115	C	1.081990	-0.882083	-0.430642
C116	C	1.415323	-0.548750	-0.097309
C117	C	1.748656	-0.215417	0.236025
C118	C	1.134399	-0.700329	-0.378170
C119	C	1.467732	-0.366996	-0.044836
C120	C	1.801066	-0.033663	0.288497
C121	C	1.134491	-1.014509	-0.378231
C122	C	1.467824	-0.681176	-0.044898
C123	C	1.801157	-0.347842	0.288435
C124	C	1.339137	-0.357821	-0.378190
C125	C	1.672470	-0.024488	-0.044856
C126	C	2.005803	0.308846	0.288477
C127	C	1.426386	-0.357830	-0.378197
C128	C	1.759720	-0.024497	-0.044864
C129	C	2.093053	0.308837	0.288469
C130	C	1.134426	-0.357749	-0.582916
C131	C	1.467759	-0.024415	-0.249583
C132	C	1.801093	0.308918	0.083751
C133	C	1.134440	-0.357727	-0.670166
C134	C	1.467774	-0.024394	-0.336832
C135	C	1.801107	0.308939	-0.003499
C136	C	1.134474	-0.164094	-0.378220
C137	C	1.467808	0.169240	-0.044887
C138	C	1.801141	0.502573	0.288447
C139	C	1.134509	-0.081548	-0.378241
C140	C	1.467843	0.251786	-0.044907
C141	C	1.801176	0.585119	0.288426
C142	C	1.184753	-0.310133	-1.045998
C143	C	1.518087	0.023201	-0.712665
C144	C	1.851420	0.356534	-0.379331
C145	C	1.184737	-0.310159	-0.964017
C146	C	1.518071	0.023175	-0.630684
C147	C	1.851404	0.356508	-0.297351
C148	C	1.134505	-0.357657	-0.923015
C149	C	1.467838	-0.024324	-0.589681
C150	C	1.801172	0.309010	-0.256348
C151	C	1.084291	-0.405138	-0.963997
C152	C	1.417625	-0.071804	-0.630664
C153	C	1.750958	0.261529	-0.297330
C154	C	1.084312	-0.405115	-1.045976
C155	C	1.417645	-0.071781	-0.712643
C156	C	1.750978	0.261552	-0.379309
C157	C	1.084251	-0.405181	-0.793127
C158	C	1.417584	-0.071847	-0.459793
C159	C	1.750917	0.261486	-0.126460
C160	C	1.084229	-0.405203	-0.711142
C161	C	1.417562	-0.071869	-0.377809
C162	C	1.750895	0.261464	-0.044475
C163	C	1.184676	-0.310225	-0.711168
C164	C	1.518010	0.023109	-0.377835
C165	C	1.851343	0.356442	-0.044502
C166	C	1.184697	-0.310202	-0.793147
C167	C	1.518030	0.023132	-0.459814
C168	C	1.851363	0.356465	-0.126481
C169	C	1.134482	-0.357682	-0.834124
C170	C	1.467815	-0.024348	-0.500790
C171	C	1.801148	0.308985	-0.167457
C172	C	1.134404	-0.357796	-0.174224
C173	C	1.467737	-0.024463	0.159110
C174	C	1.801071	0.308871	0.492443
C175	C	1.134542	-0.357608	-0.086974
C176	C	1.467875	-0.024275	0.246359
C177	C	1.801208	0.309058	0.579692
H178	H	0.433953	-0.443884	-0.286955
H179	H	0.767286	-0.110551	0.046378
H180	H	1.100620	0.222783	0.379712
F181	F	1.030832	-0.455691	-0.920357
F182	F	1.364165	-0.122358	-0.587023
F183	F	1.697499	0.210976	-0.253690
H184	H	1.225562	-0.271563	-0.677801
H185	H	1.558895	0.061770	-0.344468
H186	H	1.892228	0.395103	-0.011135
F187	F	0.593036	-0.259901	-0.482010
F188	F	0.926369	0.073432	-0.148677
F189	F	1.259703	0.406766	0.184657
H190	H	1.043307	-0.443863	-0.677760
H191	H	1.376640	-0.110529	-0.344427
H192	H	1.709974	0.222804	-0.011093
H193	H	0.434050	-0.271770	-0.469443
H194	H	0.767383	0.061563	-0.136110
H195	H	1.100716	0.394897	0.197223
H196	H	0.582680	-0.443868	-0.286934
H197	H	0.916013	-0.110534	0.046399
H198	H	1.249347	0.222799	0.379732
H199	H	1.043425	-0.443775	-1.079338
H200	H	1.376758	-0.110441	-0.746004
H201	H	1.710092	0.222892	-0.412671
H202	H	1.231315	-0.811072	-0.281542
H203	H	1.564648	-0.477739	0.051792
H204	H	1.897981	-0.144406	0.385125
H205	H	0.686799	-0.443849	-0.286927
H206	H	1.020132	-0.110516	0.046406
H207	H	1.353465	0.222817	0.379740
H208	H	0.835531	-0.443840	-0.286913
H209	H	1.168864	-0.110507	0.046420
H210	H	1.502197	0.222826	0.379753
H211	H	0.835625	-0.271734	-0.469411
H212	H	1.168958	0.061599	-0.136078
H213	H	1.502291	0.394933	0.197255
F214	F	1.023996	-0.910227	-0.488625
F215	F	1.357329	-0.576894	-0.155292
F216	F	1.690663	-0.243560	0.178041
F217	F	1.030806	-0.455715	-0.836735
F218	F	1.364140	-0.122382	-0.503402
F219	F	1.697473	0.210952	-0.170068
F220	F	0.676663	-0.259888	-0.481995
F221	F	1.009996	0.073445	-0.148661
F222	F	1.343330	0.406779	0.184672
F223	F	1.285225	-0.910366	-0.418736
F224	F	1.618559	-0.577033	-0.085402
F225	F	1.951892	-0.243700	0.247931
F226	F	1.094203	-0.910598	-0.227407
F227	F	1.427537	-0.577264	0.105927
F228	F	1.760870	-0.243931	0.439260
F229	F	1.174859	-0.804376	-0.529055
F230	F	1.508192	-0.471043	-0.195721
F231	F	1.841525	-0.137709	0.137612
H232	H	1.225653	-0.271449	-1.079376
H233	H	1.558987	0.061884	-0.746043
H234	H	1.892320	0.395217	-0.412710
H235	H	1.002315	-0.811100	-0.342645
H236	H	1.335649	-0.477766	-0.009312
H237	H	1.668982	-0.144433	0.324022
F238	F	1.238180	-0.259630	-0.920411
F239	F	1.571514	0.073704	-0.587078
F240	F	1.904847	0.407037	-0.253744
F241	F	1.238169	-0.259658	-0.836784
F242	F	1.571502	0.073675	-0.503451
F243	F	1.904836	0.407009	-0.170117
