data_functionalizedCrystal
_audit_creation_method	'MofGen! by Chris Wilmer'
_symmetry_space_group_name_H-M	'P1'
_symmetry_Int_Tables_number	1
_symmetry_cell_setting	triclinic
loop_
_symmetry_equiv_pos_as_xyz
  x,y,z
_cell_length_a	19.288867
_cell_length_b	19.288857
_cell_length_c	9.130313
_cell_angle_alpha	89.993335
_cell_angle_beta	89.997966
_cell_angle_gamma	83.135089
loop_
_atom_site_label
_atom_site_type_symbol
_atom_site_fract_x
_atom_site_fract_y
_atom_site_fract_z
O1	O	0.921344	0.086655	-0.121755
O2	O	0.719083	0.098342	-0.121770
O3	O	0.826061	-0.008632	-0.121744
O4	O	0.814366	0.193629	-0.121780
O5	O	0.826053	-0.008636	0.121854
O6	O	0.719076	0.098339	0.121829
O7	O	0.921337	0.086651	0.121844
Cu8	Cu	0.820206	0.092495	0.144079
Cu9	Cu	0.820214	0.092498	-0.144005
O10	O	0.814359	0.193626	0.121818
C11	C	0.693203	0.097964	0.000028
C12	C	0.616100	0.096834	0.000023
C13	C	0.060538	0.088700	-0.132745
C14	C	0.132986	0.089757	-0.132750
C15	C	0.169211	0.090287	0.000035
C16	C	0.132984	0.089742	0.132836
C17	C	0.060539	0.088678	0.132837
C18	C	0.278534	0.132654	0.101758
C19	C	0.350977	0.133722	0.101751
C20	C	0.392656	0.093566	0.000035
C21	C	0.361882	0.052351	-0.101699
C22	C	0.289437	0.051287	-0.101697
C23	C	0.247765	0.091441	0.000048
C24	C	0.507430	0.095253	-0.132764
C25	C	0.579880	0.096305	-0.132764
C26	C	0.579876	0.096298	0.132826
C27	C	0.507429	0.095238	0.132822
C28	C	0.471210	0.094719	0.000023
C29	C	0.825682	-0.034511	0.000056
C30	C	0.824555	-0.111614	0.000060
C31	C	0.824033	-0.147823	-0.132726
C32	C	0.822964	-0.220269	-0.132737
C33	C	0.822431	-0.256506	0.000046
C34	C	0.822950	-0.220287	0.132850
C35	C	0.824011	-0.147842	0.132857
C36	C	0.861430	-0.376738	0.101768
C37	C	0.860373	-0.449183	0.101756
C38	C	0.819154	-0.479951	0.000029
C39	C	0.779001	-0.438267	-0.101709
C40	C	0.780063	-0.365822	-0.101702
C41	C	0.821280	-0.335061	0.000053
C42	C	0.817472	-0.594714	-0.132778
C43	C	0.816399	-0.667161	-0.132783
C44	C	0.816391	-0.667179	0.132807
C45	C	0.817457	-0.594732	0.132808
C46	C	0.818001	-0.558505	0.000012
C47	C	0.947217	0.087029	0.000043
C48	C	1.024320	0.088159	0.000038
C49	C	0.814738	0.219504	0.000014
C50	C	0.815865	0.296608	0.000001
N51	N	0.820205	0.092492	0.346702
N52	N	0.820221	0.092496	-0.346628
C53	C	0.867590	0.045143	0.423365
C54	C	0.867597	0.045143	0.576702
C55	C	0.772830	0.139847	0.576698
C56	C	0.772821	0.139843	0.423364
H57	H	0.162483	0.090173	0.240950
H58	H	0.376025	0.167299	0.184557
H59	H	0.906181	0.006587	0.639116
H60	H	0.817911	-0.565216	-0.240908
H61	H	0.893070	-0.483117	0.184592
H62	H	0.734252	0.178400	0.639133
O63	O	0.905894	-0.343554	0.211487
H64	H	0.933644	-0.384709	0.282210
O65	O	0.721710	0.190910	0.340652
H66	H	0.730386	0.245040	0.370033
O67	O	0.021477	0.088101	-0.275970
H68	H	0.058841	0.088637	-0.368305
H69	H	0.162480	0.090201	-0.240882
O70	O	0.021530	0.088264	0.276161
H71	H	-0.017748	0.135171	0.282359
H72	H	0.824473	-0.118331	-0.240859
H73	H	0.822535	-0.249756	-0.240870
O74	O	0.256242	0.006823	-0.211387
H75	H	0.297391	-0.020929	-0.282111
O76	O	0.734530	-0.471437	-0.211429
H77	H	0.768351	-0.509043	-0.280113
H78	H	0.395816	0.019654	-0.184530
H79	H	0.747368	-0.331885	-0.184538
O80	O	0.824587	-0.108782	0.276081
H81	H	0.824042	-0.146148	0.368416
H82	H	0.817888	-0.565252	0.240937
H83	H	0.815952	-0.696681	0.240921
O84	O	0.468360	0.094675	-0.275986
H85	H	0.505721	0.095215	-0.368324
O86	O	0.815809	-0.706217	-0.276009
H87	H	0.816362	-0.668852	-0.368342
O88	O	0.233577	0.175952	0.211491
H89	H	0.195442	0.213668	0.152548
H90	H	0.609368	0.096741	-0.240897
O91	O	0.822388	-0.259366	0.276070
H92	H	0.821573	-0.315827	0.253759
H93	H	0.609369	0.096727	0.240942
O94	O	0.468355	0.094668	0.276039
H95	H	0.505712	0.095221	0.368375
H96	H	0.906172	0.006586	0.360949
