data_functionalizedCrystal
_audit_creation_method	'MofGen! by Chris Wilmer'
_symmetry_space_group_name_H-M	'P1'
_symmetry_Int_Tables_number	1
_symmetry_cell_setting	triclinic
loop_
_symmetry_equiv_pos_as_xyz
  x,y,z
_cell_length_a	16.992695
_cell_length_b	16.956995
_cell_length_c	8.140239
_cell_angle_alpha	89.994135
_cell_angle_beta	89.997290
_cell_angle_gamma	96.638653
loop_
_atom_site_label
_atom_site_type_symbol
_atom_site_fract_x
_atom_site_fract_y
_atom_site_fract_z
O1	O	-0.032362	1.060097	-0.136719
O2	O	0.467638	1.560097	0.363281
O3	O	-0.059776	0.829687	-0.136692
O4	O	0.440224	1.329687	0.363308
O5	O	0.068014	0.943969	-0.136720
O6	O	0.568014	1.443969	0.363280
O7	O	-0.160152	0.945816	-0.136691
O8	O	0.339848	1.445816	0.363309
O9	O	0.068015	0.943962	0.136507
O10	O	0.568015	1.443962	0.636507
O11	O	-0.059775	0.829680	0.136535
O12	O	0.440225	1.329680	0.636535
O13	O	-0.032361	1.060091	0.136508
O14	O	0.467639	1.560091	0.636508
Zn15	Zn	-0.046068	0.944884	0.179902
Zn16	Zn	0.453932	1.444884	0.679902
Zn17	Zn	-0.046069	0.944893	-0.180086
Zn18	Zn	0.453931	1.444893	0.319914
O19	O	-0.160151	0.945809	0.136536
O20	O	0.339849	1.445809	0.636536
C21	C	-0.061179	0.800065	-0.000075
C22	C	0.438821	1.300065	0.499925
C23	C	-0.065352	0.711811	-0.000066
C24	C	0.434648	1.211811	0.499934
C25	C	-0.096570	0.214500	-0.000123
C26	C	0.403430	0.714500	0.499877
C27	C	-0.092643	0.297425	-0.000123
C28	C	0.407357	0.797425	0.499877
C29	C	-0.018931	0.343815	-0.000119
C30	C	0.481069	0.843815	0.499881
C31	C	0.050860	0.307278	-0.000134
C32	C	0.550860	0.807278	0.499866
C33	C	0.046932	0.224354	-0.000146
C34	C	0.546932	0.724354	0.499854
C35	C	0.000510	0.592349	-0.000093
C36	C	0.500510	1.092349	0.499907
C37	C	0.004433	0.675278	-0.000075
C38	C	0.504433	1.175278	0.499925
C39	C	-0.139071	0.665419	-0.000067
C40	C	0.360929	1.165419	0.499933
C41	C	-0.142992	0.582495	-0.000070
C42	C	0.357008	1.082495	0.499930
C43	C	-0.073202	0.545964	-0.000093
C44	C	0.426798	1.045964	0.499907
N45	N	-0.014915	0.428578	-0.000113
N46	N	0.485085	0.928578	0.499887
N47	N	-0.077218	0.461203	-0.000111
N48	N	0.422782	0.961203	0.499889
C49	C	-0.189210	0.948189	-0.000075
C50	C	0.310790	1.448189	0.499925
C51	C	-0.275795	0.955280	-0.000065
C52	C	0.224205	1.455280	0.499935
C53	C	-0.330469	0.886865	-0.000057
C54	C	0.169531	1.386865	0.499943
C55	C	-0.411824	0.893532	-0.000079
C56	C	0.088176	1.393532	0.499921
C57	C	-0.438502	0.968615	-0.000096
C58	C	0.061498	1.468615	0.499904
C59	C	-0.383821	1.037034	-0.000108
C60	C	0.116179	1.537034	0.499892
C61	C	-0.302468	1.030367	-0.000099
C62	C	0.197532	1.530367	0.499901
C63	C	-0.680309	0.996250	-0.000137
C64	C	-0.180309	1.496250	0.499863
C65	C	-0.761668	1.002913	-0.000141
C66	C	-0.261668	1.502913	0.499859
C67	C	-0.789666	0.859409	-0.000115
C68	C	-0.289666	1.359409	0.499885
C69	C	-0.708310	0.852748	-0.000096
C70	C	-0.208310	1.352748	0.499904
C71	C	-0.653636	0.921168	-0.000117
C72	C	-0.153636	1.421168	0.499883
N73	N	-0.521659	0.975431	-0.000112
N74	N	-0.021659	1.475431	0.499888
N75	N	-0.570480	0.914351	-0.000112
N76	N	-0.070480	1.414351	0.499888
C77	C	0.097073	0.941589	-0.000113
C78	C	0.597073	1.441589	0.499887
C79	C	0.183657	0.934498	-0.000134
C80	C	0.683657	1.434498	0.499866
C81	C	-0.030958	1.089712	-0.000113
C82	C	0.469042	1.589712	0.499887
C83	C	-0.026785	1.177967	-0.000133
C84	C	0.473215	1.677967	0.499867
N85	N	-0.046066	0.944884	0.425585
N86	N	0.453934	1.444884	0.925585
N87	N	-0.046064	0.944900	-0.425769
N88	N	0.453936	1.444900	0.074231
H89	H	-0.149470	0.327165	-0.000130
H90	H	0.350530	0.827165	0.499870
O91	O	-0.627178	1.062690	-0.000441
O92	O	-0.127178	1.562690	0.499559
C93	C	-0.579266	1.063125	-0.141929
C94	C	-0.079266	1.563125	0.358071
H95	H	-0.611721	1.024414	-0.240825
H96	H	-0.111721	1.524414	0.259175
H97	H	-0.565969	1.126510	-0.189440
H98	H	-0.065969	1.626510	0.310560
H99	H	-0.521368	1.038805	-0.109933
H100	H	-0.021368	1.538805	0.390067
O101	O	-0.409636	1.110015	0.000087
O102	O	0.090364	1.610015	0.500087
C103	C	-0.381260	1.152028	0.141605
C104	C	0.118740	1.652028	0.641605
H105	H	-0.326177	1.126783	0.188795
H106	H	0.173823	1.626783	0.688795
H107	H	-0.365664	1.217438	0.109763
H108	H	0.134336	1.717438	0.609763
H109	H	-0.428992	1.145837	0.240691
H110	H	0.071008	1.645837	0.740691
H111	H	0.064462	0.713048	-0.000081
H112	H	0.564462	1.213048	0.499919
H113	H	0.110878	0.345056	-0.000141
H114	H	0.610878	0.845056	0.499859
O115	O	-0.168195	0.169473	-0.000419
O116	O	0.331805	0.669473	0.499581
C117	C	-0.210885	0.186767	-0.141904
C118	C	0.289115	0.686767	0.358096
H119	H	-0.167819	0.212453	-0.240803
H120	H	0.332181	0.712453	0.259197
H121	H	-0.246013	0.130004	-0.189414
H122	H	0.253987	0.630004	0.310586
H123	H	-0.253344	0.231827	-0.109907
H124	H	0.246656	0.731827	0.390093
O125	O	-0.206882	0.700870	0.000229
O126	O	0.293118	1.200870	0.500229
C127	C	-0.251508	0.677581	0.141708
C128	C	0.248492	1.177581	0.641708
H129	H	-0.210611	0.657662	0.240616
H130	H	0.289389	1.157662	0.740616
H131	H	-0.281476	0.729875	0.189208
H132	H	0.218524	1.229875	0.689208
H133	H	-0.298523	0.626377	0.109705
H134	H	0.201477	1.126377	0.609705
H135	H	0.103758	0.194611	-0.000157
H136	H	0.603758	0.694611	0.499843
H137	H	0.057338	0.562616	-0.000107
H138	H	0.557338	1.062616	0.499893
H139	H	-0.308755	0.825724	-0.000024
H140	H	0.191245	1.325724	0.499976
O141	O	-0.787450	1.075914	-0.000254
O142	O	-0.287450	1.575914	0.499746
C143	C	-0.721750	1.134874	-0.000240
C144	C	-0.221750	1.634874	0.499760
H145	H	-0.667858	1.109088	-0.051947
H146	H	-0.167858	1.609088	0.448053
H147	H	-0.735464	1.186974	-0.079596
H148	H	-0.235464	1.686974	0.420404
H149	H	-0.708799	1.156238	0.130830
H150	H	-0.208799	1.656238	0.630830
H151	H	-0.257952	1.086078	-0.000112
H152	H	0.242048	1.586078	0.499888
O153	O	-0.464827	0.826993	0.000014
O154	O	0.035173	1.326993	0.500014
C155	C	-0.423835	0.759294	0.000006
C156	C	0.076165	1.259294	0.500006
H157	H	-0.361742	0.775579	0.051733
H158	H	0.138258	1.275579	0.551733
H159	H	-0.457135	0.711041	0.079347
H160	H	0.042865	1.211041	0.579347
H161	H	-0.419482	0.736518	-0.131065
H162	H	0.080518	1.236518	0.368935
H163	H	-0.203017	0.544728	-0.000078
H164	H	0.296983	1.044728	0.499922
O165	O	-0.682531	0.779751	-0.000151
O166	O	-0.182531	1.279751	0.499849
C167	C	-0.748235	0.720794	-0.000103
C168	C	-0.248235	1.220794	0.499897
H169	H	-0.802119	0.746579	-0.051850
H170	H	-0.302119	1.246579	0.448150
H171	H	-0.734515	0.668685	-0.079407
H172	H	-0.234515	1.168685	0.420593
H173	H	-0.761200	0.699444	0.130983
H174	H	-0.261200	1.199444	0.630983
H175	H	-0.834189	0.803706	-0.000100
H176	H	-0.334189	1.303706	0.499900
