data_functionalizedCrystal
_audit_creation_method	'MofGen! by Chris Wilmer'
_symmetry_space_group_name_H-M	'P1'
_symmetry_Int_Tables_number	1
_symmetry_cell_setting	triclinic
loop_
_symmetry_equiv_pos_as_xyz
  x,y,z
_cell_length_a	10.489711
_cell_length_b	10.489711
_cell_length_c	9.130307
_cell_angle_alpha	90.000390
_cell_angle_beta	89.996941
_cell_angle_gamma	84.527009
loop_
_atom_site_label
_atom_site_type_symbol
_atom_site_fract_x
_atom_site_fract_y
_atom_site_fract_z
O1	O	1.694051	0.179787	-0.121839
O2	O	1.322849	0.196720	-0.121829
O3	O	1.516916	0.002653	-0.121839
O4	O	1.499984	0.373855	-0.121830
O5	O	1.516910	0.002651	0.121760
O6	O	1.322843	0.196718	0.121770
O7	O	1.694045	0.179786	0.121760
Cu8	Cu	1.508443	0.188252	0.144007
Cu9	Cu	1.508451	0.188254	-0.144077
O10	O	1.499977	0.373853	0.121769
C11	C	1.275314	0.195448	-0.000029
C12	C	1.133683	0.191646	-0.000025
C13	C	0.951284	0.308352	-0.000040
C14	C	1.043439	0.250057	-0.120146
C15	C	1.043405	0.250024	0.120024
C16	C	0.973501	0.126513	-0.120262
C17	C	0.973458	0.126497	0.120015
C18	C	1.065585	0.068112	-0.000120
C19	C	1.515642	-0.044880	-0.000043
C20	C	1.511840	-0.186511	-0.000055
C21	C	1.628547	-0.368910	-0.000044
C22	C	1.570247	-0.276761	0.120064
C23	C	1.570222	-0.276783	-0.120106
C24	C	1.446703	-0.346699	0.120180
C25	C	1.446695	-0.346731	-0.120098
C26	C	1.388306	-0.254609	0.000039
C27	C	1.741580	0.181057	-0.000044
C28	C	1.883211	0.184859	-0.000057
C29	C	1.501251	0.421386	-0.000030
C30	C	1.505054	0.563017	-0.000027
N31	N	1.508447	0.188249	0.346630
N32	N	1.508457	0.188246	-0.346700
C33	C	1.680365	0.016453	0.346612
C34	C	1.766332	-0.069441	0.423270
C35	C	1.766345	-0.069442	0.576603
C36	C	1.680378	0.016458	0.653282
C37	C	1.594411	0.102353	0.576625
C38	C	1.594410	0.102347	0.423288
C39	C	1.422489	0.274141	0.576643
C40	C	1.422481	0.274150	0.423309
C41	C	1.336523	0.360041	0.653322
C42	C	1.250560	0.445944	0.576664
C43	C	1.250552	0.445942	0.423322
C44	C	1.336514	0.360044	0.346652
H45	H	1.074430	0.302314	-0.221681
H46	H	1.286712	-0.205133	0.000108
Br47	Br	0.922177	0.039485	-0.289693
Br48	Br	1.336518	0.360042	0.138555
H49	H	1.730049	-0.418611	0.000072
Br50	Br	1.148051	-0.101216	-0.000222
H51	H	0.901583	0.409855	-0.000157
Br52	Br	0.921751	0.039472	0.289263
Br53	Br	1.359675	-0.398428	-0.289347
H54	H	1.836323	-0.139383	0.360824
Br55	Br	1.883005	-0.186024	0.680643
Br56	Br	1.680374	0.016437	0.861379
Br57	Br	1.657335	-0.225110	0.289296
Br58	Br	1.094997	0.337148	0.289261
Br59	Br	1.336526	0.360036	0.861419
Br60	Br	1.133892	0.562500	0.680731
Br61	Br	1.680377	0.016466	0.138515
Br62	Br	1.359680	-0.398032	0.289617
Br63	Br	1.657353	-0.225182	-0.289342
Br64	Br	1.133864	0.562509	0.319300
