data_functionalizedCrystal
_audit_creation_method	'MofGen! by Chris Wilmer'
_symmetry_space_group_name_H-M	'P1'
_symmetry_Int_Tables_number	1
_symmetry_cell_setting	triclinic
loop_
_symmetry_equiv_pos_as_xyz
  x,y,z
_cell_length_a	12.759395
_cell_length_b	13.897448
_cell_length_c	12.759387
_cell_angle_alpha	89.966131
_cell_angle_beta	89.981185
_cell_angle_gamma	90.019229
loop_
_atom_site_label
_atom_site_type_symbol
_atom_site_fract_x
_atom_site_fract_y
_atom_site_fract_z
Zn1	Zn	1.606229	-0.383913	-0.593991
Zn2	Zn	1.606116	-0.545244	-0.418306
Zn3	Zn	1.430533	-0.383969	-0.418328
Zn4	Zn	1.430511	-0.545173	-0.593945
O5	O	1.518347	-0.464575	-0.506142
O6	O	1.753235	-0.405321	-0.570696
O7	O	1.582786	-0.523904	-0.271287
O8	O	1.453896	-0.248980	-0.441659
O9	O	1.753152	-0.523850	-0.441621
O10	O	1.582979	-0.248939	-0.570718
O11	O	1.453786	-0.405416	-0.271304
O12	O	1.283509	-0.405347	-0.441614
O13	O	1.453858	-0.523728	-0.740972
O14	O	1.283492	-0.523782	-0.570639
O15	O	1.582958	-0.405251	-0.741006
O16	O	1.582765	-0.680216	-0.441576
O17	O	1.453748	-0.680164	-0.570617
C18	C	1.245380	-0.464563	-0.506124
C19	C	1.128603	-0.464581	-0.506142
C20	C	1.128625	-0.588108	-0.640278
C21	C	1.073775	-0.649878	-0.707349
C22	C	0.964053	-0.649890	-0.707362
C23	C	0.909179	-0.588122	-0.640299
C24	C	0.964029	-0.526352	-0.573227
C25	C	1.073753	-0.526349	-0.573220
C26	C	0.964007	-0.402822	-0.439098
C27	C	1.073729	-0.402814	-0.439078
C28	C	0.909133	-0.341054	-0.372035
C29	C	0.963983	-0.279287	-0.304957
C30	C	1.073711	-0.279279	-0.304946
C31	C	1.128579	-0.341043	-0.372007
C32	C	1.518270	-0.715189	-0.506112
C33	C	1.518334	-0.822403	-0.506134
C34	C	1.518444	-1.018698	-0.506200
C35	C	1.518380	-0.909466	-0.506167
C36	C	1.792381	-0.464587	-0.506161
C37	C	1.909157	-0.464593	-0.506169
C38	C	1.518418	-0.464475	-0.780176
C39	C	1.518449	-0.464433	-0.896953
C40	C	1.518453	-0.212982	-0.506196
C41	C	1.518498	-0.105768	-0.506219
C42	C	1.384130	-0.341043	-0.896989
C43	C	1.316989	-0.279329	-0.951868
C44	C	1.317021	-0.279294	-1.061589
C45	C	1.384198	-0.340982	-1.116435
C46	C	1.451338	-0.402696	-1.061556
C47	C	1.451301	-0.402722	-0.951832
C48	C	1.585650	-0.526089	-1.061520
C49	C	1.585626	-0.526121	-0.951798
C50	C	1.652827	-0.587777	-1.116365
C51	C	1.719974	-0.649488	-1.061487
C52	C	1.719941	-0.649520	-0.951758
C53	C	1.652766	-0.587835	-0.896919
C54	C	1.518337	-0.464605	-0.233175
C55	C	1.518510	-0.464375	-0.116399
H56	H	0.919395	-0.700184	-0.761982
H57	H	1.118363	-0.228971	-0.250335
C58	C	1.384091	-0.341079	-0.776298
H59	H	1.334465	-0.295509	-0.751494
H60	H	1.451890	-0.324421	-0.751479
H61	H	1.365871	-0.403334	-0.751463
C62	C	1.793792	-0.717407	-0.891395
H63	H	1.784152	-0.708600	-0.818193
H64	H	1.864396	-0.703301	-0.909385
H65	H	1.778374	-0.782212	-0.909358
C66	C	1.384226	-0.340948	-1.237125
H67	H	1.334621	-0.295357	-1.261954
H68	H	1.366036	-0.403185	-1.261926
H69	H	1.452043	-0.324261	-1.261955
C70	C	1.793859	-0.717334	-1.121816
H71	H	1.784263	-0.708474	-1.195021
H72	H	1.778452	-0.782148	-1.103812
H73	H	1.864457	-0.703221	-1.103847
C74	C	1.652553	-0.588031	-1.237055
H75	H	1.702074	-0.633700	-1.261855
H76	H	1.670668	-0.525870	-1.262226
H77	H	1.584655	-0.604787	-1.261540
H78	H	1.217920	-0.341045	-0.372002
C79	C	1.243087	-0.211486	-0.891542
H80	H	1.203097	-0.174736	-0.939941
H81	H	1.283273	-0.169472	-0.848745
H82	H	1.197277	-0.248406	-0.848735
C83	C	1.652730	-0.587870	-0.776229
H84	H	1.702340	-0.633455	-0.751396
H85	H	1.584914	-0.604544	-0.751402
H86	H	1.670932	-0.525630	-0.751429
H87	H	1.262348	-0.229042	-1.106271
H88	H	0.819838	-0.588129	-0.640324
H89	H	1.217966	-0.588111	-0.640266
H90	H	0.819792	-0.341064	-0.372054
C91	C	1.134137	-0.717818	-0.781112
H92	H	1.207339	-0.708973	-0.771496
H93	H	1.116189	-0.703786	-0.851733
H94	H	1.116130	-0.782615	-0.765600
C95	C	0.903622	-0.211352	-0.231198
H96	H	0.830421	-0.220206	-0.240812
H97	H	0.921631	-0.146558	-0.246696
H98	H	0.921562	-0.225395	-0.160572
