data_functionalizedCrystal
_audit_creation_method	'MofGen! by Chris Wilmer'
_symmetry_space_group_name_H-M	'P1'
_symmetry_Int_Tables_number	1
_symmetry_cell_setting	triclinic
loop_
_symmetry_equiv_pos_as_xyz
  x,y,z
_cell_length_a	16.109302
_cell_length_b	9.482900
_cell_length_c	16.109301
_cell_angle_alpha	99.330319
_cell_angle_beta	96.538369
_cell_angle_gamma	99.288686
loop_
_atom_site_label
_atom_site_type_symbol
_atom_site_fract_x
_atom_site_fract_y
_atom_site_fract_z
O1	O	1.116101	0.120965	-0.093841
O2	O	0.874038	0.120954	-0.107141
O3	O	1.001717	0.120945	0.020538
O4	O	0.988421	0.120974	-0.221521
O5	O	0.975783	-0.120845	-0.005500
O6	O	0.848103	-0.120836	-0.133180
O7	O	1.090166	-0.120826	-0.119880
Cu8	Cu	0.966767	-0.142908	-0.128907
Cu9	Cu	0.997437	0.143037	-0.098114
O10	O	0.962487	-0.120816	-0.247559
C11	C	0.830095	0.000057	-0.119622
C12	C	0.737800	0.000053	-0.118007
C13	C	0.511323	-0.131733	-0.128464
C14	C	0.424604	-0.131728	-0.126937
C15	C	0.452890	0.131885	-0.098552
C16	C	0.539608	0.131879	-0.100074
C17	C	0.568822	0.000065	-0.115034
C18	C	0.395384	0.000076	-0.111985
C19	C	0.301359	0.000083	-0.110329
C20	C	0.662853	0.000058	-0.116689
N21	N	0.945200	-0.344027	-0.150565
C22	C	0.991070	-0.416229	-0.104497
C23	C	0.973133	-0.583646	-0.122524
C24	C	1.134109	0.000075	-0.107399
C25	C	1.226406	0.000089	-0.109013
C26	C	0.988211	0.000049	0.038494
C27	C	0.986596	0.000047	0.130789
N28	N	1.019010	0.344156	-0.076449
C29	C	0.975993	0.000083	-0.265514
C30	C	0.977609	0.000095	-0.357808
C31	C	1.058606	0.000073	0.353064
C32	C	1.057084	0.000085	0.439786
C33	C	0.905594	0.000073	0.419910
C34	C	0.907118	0.000071	0.333191
C35	C	0.983626	0.000064	0.299770
C36	C	0.980579	0.000077	0.473210
C37	C	0.978927	0.000090	0.567238
C38	C	0.985279	0.000054	0.205737
H39	H	0.586427	0.239211	-0.089135
F40	F	1.087841	-0.574655	-0.007587
H41	H	0.535105	-0.239064	-0.140646
H42	H	1.120904	0.000071	0.325856
H43	H	0.429093	0.239203	-0.086373
H44	H	0.892647	-0.406153	-0.203348
H45	H	0.843303	0.000076	0.447133
F46	F	1.136888	0.000098	0.496502
H47	H	0.846057	0.000068	0.289797
F48	F	0.904437	-0.664838	-0.191520
F49	F	1.059611	-0.335032	-0.035354
F50	F	0.363412	-0.272007	-0.141231
