data_functionalizedCrystal
_audit_creation_method	'MofGen! by Chris Wilmer'
_symmetry_space_group_name_H-M	'P1'
_symmetry_Int_Tables_number	1
_symmetry_cell_setting	triclinic
loop_
_symmetry_equiv_pos_as_xyz
  x,y,z
_cell_length_a	12.759401
_cell_length_b	16.120484
_cell_length_c	12.759401
_cell_angle_alpha	87.116031
_cell_angle_beta	90.003890
_cell_angle_gamma	92.925678
loop_
_atom_site_label
_atom_site_type_symbol
_atom_site_fract_x
_atom_site_fract_y
_atom_site_fract_z
Zn1	Zn	1.584803	-0.332037	0.615158
Zn2	Zn	1.575800	-0.471424	0.448368
Zn3	Zn	1.409150	-0.332027	0.439497
Zn4	Zn	1.400152	-0.471413	0.624008
O5	O	1.492476	-0.401725	0.531758
O6	O	1.730629	-0.350535	0.593042
O7	O	1.553692	-0.452933	0.300170
O8	O	1.439984	-0.215361	0.455382
O9	O	1.724015	-0.452942	0.470502
O10	O	1.569035	-0.215368	0.584440
O11	O	1.431255	-0.350519	0.293653
O12	O	1.260936	-0.350509	0.463964
O13	O	1.424648	-0.452924	0.769855
O14	O	1.254325	-0.452915	0.599524
O15	O	1.560310	-0.350525	0.763353
O16	O	1.544967	-0.588090	0.479083
O17	O	1.415919	-0.588082	0.608126
C18	C	1.219510	-0.401710	0.531742
C19	C	1.102732	-0.401724	0.531762
C20	C	0.934718	-0.455141	0.602255
C21	C	1.044443	-0.455131	0.602244
C22	C	1.051291	-0.348329	0.461280
C23	C	0.941568	-0.348343	0.461287
C24	C	1.478518	-0.618337	0.545551
C25	C	1.472642	-0.711004	0.551486
C26	C	1.461922	-0.880668	0.562345
C27	C	1.523219	-0.921942	0.501188
C28	C	1.517254	-1.016349	0.507230
C29	C	1.467885	-0.786253	0.556304
C30	C	1.766508	-0.401741	0.531774
C31	C	1.883285	-0.401748	0.531781
C32	C	1.492480	-0.401724	0.805791
C33	C	1.492481	-0.401724	0.922568
C34	C	1.506518	-0.184268	0.517934
C35	C	1.512501	-0.091601	0.512043
C36	C	1.563103	-0.348413	1.083777
C37	C	1.563112	-0.348413	0.974053
C38	C	1.421844	-0.455044	0.980812
C39	C	1.421841	-0.455048	1.090535
C40	C	1.492465	-0.401741	1.258791
C41	C	1.492469	-0.401728	1.142014
H42	H	0.887267	-0.498627	0.659656
H43	H	1.580176	-0.886376	0.444292
H44	H	1.364321	-0.498467	1.137953
H45	H	1.364340	-0.498454	0.938885
H46	H	1.620630	-0.305000	0.926641
H47	H	0.899690	-0.304862	0.403893
H48	H	1.404967	-0.916232	0.619235
H49	H	1.098759	-0.304847	0.403888
H50	H	1.086315	-0.498610	0.659630
H51	H	1.620612	-0.304996	1.125688
