data_functionalizedCrystal
_audit_creation_method	'MofGen! by Chris Wilmer'
_symmetry_space_group_name_H-M	'P1'
_symmetry_Int_Tables_number	1
_symmetry_cell_setting	triclinic
loop_
_symmetry_equiv_pos_as_xyz
  x,y,z
_cell_length_a	10.489716
_cell_length_b	10.489741
_cell_length_c	9.798715
_cell_angle_alpha	89.997135
_cell_angle_beta	89.996678
_cell_angle_gamma	84.534155
loop_
_atom_site_label
_atom_site_type_symbol
_atom_site_fract_x
_atom_site_fract_y
_atom_site_fract_z
O1	O	1.694071	0.179816	-0.113479
O2	O	1.322871	0.196742	-0.113484
O3	O	1.516917	0.002680	-0.113474
O4	O	1.500024	0.373877	-0.113490
O5	O	1.516903	0.002680	0.113509
O6	O	1.322856	0.196741	0.113498
O7	O	1.694056	0.179816	0.113503
Zn8	Zn	1.508454	0.188278	0.149539
Zn9	Zn	1.508473	0.188279	-0.149520
O10	O	1.500010	0.373877	0.113492
C11	C	1.275332	0.195470	0.000006
C12	C	1.133701	0.191665	0.000004
C13	C	1.036027	0.310669	-0.000004
C14	C	0.958674	0.247785	0.111919
C15	C	0.958694	0.247757	-0.111868
C16	C	1.058213	0.128830	0.112020
C17	C	1.058239	0.128820	-0.111867
C18	C	0.980935	0.065848	0.000083
C19	C	1.515634	-0.044852	0.000017
C20	C	1.511817	-0.186481	0.000014
C21	C	1.388351	-0.254610	0.000003
C22	C	1.446668	-0.346738	0.111917
C23	C	1.446711	-0.346712	-0.111869
C24	C	1.570185	-0.276743	0.112021
C25	C	1.570211	-0.276708	-0.111866
C26	C	1.628618	-0.368808	0.000076
C27	C	1.741596	0.181087	0.000009
C28	C	1.883227	0.184892	0.000002
C29	C	1.501293	0.421409	-0.000001
C30	C	1.505110	0.563038	-0.000008
N31	N	1.508450	0.188277	0.353638
N32	N	1.508487	0.188270	-0.353620
C33	C	1.589925	0.106437	0.421420
C34	C	1.589945	0.106432	0.578583
H35	H	1.101523	0.078622	0.206735
H36	H	1.659704	0.036370	0.636872
N37	N	1.068736	0.447775	0.000135
H38	H	1.119751	0.464206	-0.084422
H39	H	0.987179	0.507293	0.001121
N40	N	1.115877	0.062348	-0.237210
H41	H	1.211897	0.064724	-0.235808
H42	H	1.094751	-0.029592	-0.238036
N43	N	0.948567	-0.071367	0.000160
H44	H	0.985123	-0.116152	0.084728
H45	H	0.852472	-0.073121	-0.000689
H46	H	1.394421	-0.377745	0.206532
N47	N	0.901074	0.314313	0.237257
H48	H	0.920698	0.406726	0.237174
H49	H	0.805247	0.310393	0.236719
H50	H	1.730222	-0.418241	0.000140
N51	N	1.377511	-0.387744	-0.237204
H52	H	1.376162	-0.483889	-0.236747
H53	H	1.286794	-0.345710	-0.237030
N54	N	0.900958	0.314364	-0.237099
H55	H	0.920542	0.406788	-0.236968
H56	H	0.938511	0.270356	-0.321649
H57	H	1.622414	-0.245668	-0.206485
H58	H	1.622374	-0.245916	0.206743
N59	N	1.253889	-0.188828	0.000132
H60	H	1.207415	-0.214118	0.084751
H61	H	1.257522	-0.092965	-0.000784
H62	H	1.659659	0.036368	0.363101
H63	H	1.438734	0.258345	0.588100
N64	N	1.416062	0.281080	0.430881
H65	H	1.465550	0.337825	0.490157
H66	H	1.361707	0.335609	0.363970
