data_functionalizedCrystal
_audit_creation_method	'MofGen! by Chris Wilmer'
_symmetry_space_group_name_H-M	'P1'
_symmetry_Int_Tables_number	1
_symmetry_cell_setting	triclinic
loop_
_symmetry_equiv_pos_as_xyz
  x,y,z
_cell_length_a	10.654554
_cell_length_b	10.654550
_cell_length_c	9.730223
_cell_angle_alpha	89.998181
_cell_angle_beta	89.999646
_cell_angle_gamma	84.485844
loop_
_atom_site_label
_atom_site_type_symbol
_atom_site_fract_x
_atom_site_fract_y
_atom_site_fract_z
O1	O	1.667831	0.176420	-0.114296
O2	O	1.302353	0.193220	-0.114298
O3	O	1.493495	0.002081	-0.114287
O4	O	1.476689	0.367559	-0.114308
O5	O	1.493493	0.002086	0.114293
O6	O	1.302351	0.193225	0.114282
O7	O	1.667829	0.176425	0.114283
Zn8	Zn	1.485089	0.184826	0.150575
Zn9	Zn	1.485092	0.184819	-0.150589
O10	O	1.476687	0.367564	0.114272
C11	C	1.255554	0.191988	-0.000008
C12	C	1.116111	0.188294	-0.000009
C13	C	0.905603	0.297367	-0.000018
C14	C	1.036624	0.300839	-0.000019
C15	C	1.064571	0.072269	-0.000013
C16	C	0.933552	0.068799	-0.000022
C17	C	0.889469	0.429330	-0.000016
C18	C	1.020490	0.432802	-0.000016
C19	C	1.492260	-0.044714	0.000003
C20	C	1.488568	-0.184158	0.000003
C21	C	1.483354	-0.380708	0.124578
C22	C	1.486827	-0.249687	0.124595
C23	C	1.486823	-0.249655	-0.124615
C24	C	1.483342	-0.380673	-0.124630
C25	C	1.483362	-0.380726	0.268458
C26	C	1.486834	-0.249705	0.268475
C27	C	1.714628	0.177657	-0.000009
C28	C	1.854070	0.181351	-0.000018
C29	C	1.477922	0.414360	-0.000021
C30	C	1.481614	0.553803	-0.000030
N31	N	1.485096	0.184829	0.356111
N32	N	1.485095	0.184806	-0.356126
C33	C	1.569756	0.100222	0.428042
C34	C	1.569753	0.100207	0.571925
C35	C	1.400426	0.269417	0.571933
C36	C	1.400424	0.269426	0.428053
C37	C	1.667519	0.002533	0.428039
C38	C	1.667516	0.002518	0.571922
H39	H	1.129300	-0.019366	-0.000018
H40	H	1.056124	0.474825	-0.098715
H41	H	1.637003	-0.088706	0.616542
H42	H	1.394686	-0.405554	0.323703
H43	H	1.331477	0.338309	0.369487
H44	H	1.331488	0.338293	0.630523
C45	C	0.953139	0.541215	0.207453
C46	C	1.060138	0.502451	0.129124
H47	H	0.977621	0.584200	0.287181
H48	H	0.896881	0.596184	0.154314
H49	H	0.912362	0.469543	0.234006
H50	H	1.100911	0.574124	0.102562
H51	H	1.116417	0.447479	0.182273
C52	C	1.492117	-0.048793	-0.235247
C53	C	1.488707	-0.177624	-0.261572
H54	H	1.493281	-0.004330	-0.319803
H55	H	1.419590	-0.018405	-0.184040
H56	H	1.565808	-0.036275	-0.184065
H57	H	1.415011	-0.190144	-0.312746
H58	H	1.561242	-0.208023	-0.312801
H59	H	1.764027	0.024038	0.610972
H60	H	1.758703	0.033123	0.383411
H61	H	1.575514	-0.224887	0.323720
H62	H	1.572802	-0.432445	0.313097
H63	H	1.646076	-0.094000	0.388990
H64	H	1.397390	-0.198001	0.313129
C65	C	1.374515	-0.407781	-0.337063
C66	C	1.481439	-0.452647	-0.261612
H67	H	1.373353	-0.452208	-0.421638
H68	H	1.300847	-0.420338	-0.285881
H69	H	1.376844	-0.320370	-0.354859
H70	H	1.479106	-0.540056	-0.243807
H71	H	1.555126	-0.440101	-0.312805
C72	C	0.974342	-0.156780	-0.000024
C73	C	0.876907	-0.058729	-0.000030
H74	H	0.939369	-0.235512	-0.000020
H75	H	1.024863	-0.150668	-0.079726
H76	H	1.024860	-0.150667	0.079696
H77	H	0.826394	-0.064836	-0.079755
H78	H	0.826364	-0.064844	0.079681
C79	C	0.770442	0.411556	-0.207473
C80	C	0.833101	0.496449	-0.129151
H81	H	0.735638	0.452996	-0.287187
H82	H	0.828434	0.342529	-0.234037
H83	H	0.704745	0.381588	-0.154313
H84	H	0.898804	0.526410	-0.182307
H85	H	0.775104	0.565499	-0.102588
H86	H	0.843817	0.469201	0.098674
