data_functionalizedCrystal
_audit_creation_method	'MofGen! by Chris Wilmer'
_symmetry_space_group_name_H-M	'P1'
_symmetry_Int_Tables_number	1
_symmetry_cell_setting	triclinic
loop_
_symmetry_equiv_pos_as_xyz
  x,y,z
_cell_length_a	10.967819
_cell_length_b	10.065875
_cell_length_c	10.654546
_cell_angle_alpha	98.865580
_cell_angle_beta	95.402307
_cell_angle_gamma	110.771277
loop_
_atom_site_label
_atom_site_type_symbol
_atom_site_fract_x
_atom_site_fract_y
_atom_site_fract_z
O1	O	1.740635	0.522895	-0.091856
O2	O	1.363327	0.434163	-0.123019
O3	O	1.560651	0.480528	0.075626
O4	O	1.543310	0.476531	-0.290500
O5	O	1.523026	0.244698	0.037599
O6	O	1.325701	0.198334	-0.161045
O7	O	1.703009	0.287066	-0.129882
Zn8	Zn	1.508381	0.205257	-0.151501
Zn9	Zn	1.557955	0.515972	-0.101400
O10	O	1.505684	0.240701	-0.328527
C11	C	1.296201	0.304886	-0.142637
C12	C	1.152244	0.271029	-0.144423
C13	C	0.958778	0.343136	-0.127375
C14	C	1.107565	0.378120	-0.125521
N15	N	1.474558	-0.006796	-0.185693
C16	C	1.546178	-0.057747	-0.113288
C17	C	1.520157	-0.221028	-0.139613
C18	C	1.770135	0.416346	-0.110264
C19	C	1.914093	0.450212	-0.108476
C20	C	1.540564	0.362306	0.103361
C21	C	1.536751	0.361387	0.242656
N22	N	1.591788	0.728028	-0.067198
C23	C	1.652933	0.388691	0.326559
C24	C	1.649342	0.387831	0.457441
C25	C	1.413377	0.332354	0.420501
C26	C	1.416970	0.333225	0.289624
C27	C	1.789164	0.420714	0.347886
C28	C	1.785574	0.419854	0.478768
C29	C	1.525767	0.358876	0.643731
C30	C	1.529567	0.359656	0.504415
H31	H	1.080354	0.153449	-0.161984
O32	O	1.303982	0.306621	0.208286
C33	C	1.069574	0.251609	0.185481
C34	C	1.197435	0.281681	0.277731
H35	H	0.983403	0.231468	0.241595
H36	H	1.049505	0.151889	0.107387
H37	H	1.081184	0.349321	0.139171
H38	H	1.185922	0.184056	0.324133
H39	H	1.217462	0.381455	0.355748
O40	O	1.378501	-0.098786	-0.283040
C41	C	1.297885	-0.161767	-0.511006
C42	C	1.406745	-0.057468	-0.400878
H43	H	1.320696	-0.128418	-0.606308
H44	H	1.198406	-0.157144	-0.493389
H45	H	1.294006	-0.277031	-0.514853
H46	H	1.410745	0.057843	-0.396969
H47	H	1.506170	-0.062216	-0.418539
H48	H	1.315856	0.309426	0.458760
O49	O	1.871509	0.553502	0.334479
C50	C	2.018073	0.794514	0.441551
C51	C	1.924837	0.644214	0.456919
H52	H	2.061236	0.867887	0.540529
H53	H	1.960525	0.844428	0.382106
H54	H	2.101560	0.782456	0.390627
H55	H	1.841332	0.656146	0.507874
H56	H	1.982478	0.594354	0.516314
O57	O	1.000038	0.590400	-0.087499
C58	C	1.226675	0.753082	-0.066657
C59	C	1.129496	0.594254	-0.090398
H60	H	1.331360	0.756251	-0.069020
H61	H	1.221451	0.812907	0.031422
H62	H	1.199133	0.807677	-0.144895
H63	H	1.156973	0.539535	-0.012239
H64	H	1.134737	0.534537	-0.188518
H65	H	1.816301	0.329097	0.297492
O66	O	1.642179	0.034350	-0.015945
C67	C	1.722925	0.097327	0.211995
C68	C	1.614094	-0.007073	0.101891
H69	H	1.700272	0.063857	0.307288
H70	H	1.726758	0.212595	0.215982
H71	H	1.822377	0.092760	0.194205
H72	H	1.514585	-0.002633	0.119603
H73	H	1.610378	-0.122294	0.097933
H74	H	1.439566	-0.298285	-0.221091
H75	H	1.821159	0.333225	0.506567
O76	O	0.873168	0.202819	-0.148160
C77	C	0.810108	-0.023446	-0.074926
C78	C	0.907169	0.135428	-0.051254
H79	H	0.837546	-0.077970	0.003420
H80	H	0.815455	-0.083319	-0.172935
H81	H	0.705397	-0.026633	-0.072747
H82	H	1.011924	0.138748	-0.053368
H83	H	0.901707	0.195232	0.046738
O84	O	1.687763	-0.180059	0.030260
C85	C	1.768225	-0.117703	0.258241
C86	C	1.659450	-0.221782	0.147941
H87	H	1.745388	-0.151415	0.353410
H88	H	1.772216	-0.002349	0.262450
H89	H	1.867663	-0.122350	0.240498
H90	H	1.559956	-0.217262	0.165607
H91	H	1.655576	-0.337088	0.143762
O92	O	1.853862	0.552891	0.554719
C93	C	1.845290	0.748435	0.711011
C94	C	1.767797	0.597790	0.625041
H95	H	1.775746	0.784769	0.767908
H96	H	1.889683	0.829725	0.648330
H97	H	1.927849	0.742290	0.780510
H98	H	1.685179	0.603794	0.555529
H99	H	1.723500	0.516561	0.687802
H100	H	1.179455	0.495699	-0.107975
