data_functionalizedCrystal
_audit_creation_method	'MofGen! by Chris Wilmer'
_symmetry_space_group_name_H-M	'P1'
_symmetry_Int_Tables_number	1
_symmetry_cell_setting	triclinic
loop_
_symmetry_equiv_pos_as_xyz
  x,y,z
_cell_length_a	16.109301
_cell_length_b	17.038272
_cell_length_c	15.186229
_cell_angle_alpha	89.995962
_cell_angle_beta	89.999362
_cell_angle_gamma	87.286518
loop_
_atom_site_label
_atom_site_type_symbol
_atom_site_fract_x
_atom_site_fract_y
_atom_site_fract_z
O1	O	1.110268	0.100495	-0.073174
O2	O	1.610268	0.600495	0.426826
O3	O	0.869094	0.113001	-0.073188
O4	O	1.369094	0.613001	0.426812
O5	O	0.988247	-0.007067	-0.073174
O6	O	1.488247	0.492933	0.426826
O7	O	0.991114	0.220563	-0.073187
O8	O	1.491114	0.720563	0.426813
O9	O	0.988239	-0.007069	0.073284
O10	O	1.488239	0.492931	0.573284
O11	O	0.869085	0.113000	0.073270
O12	O	1.369085	0.613000	0.573270
O13	O	1.110259	0.100493	0.073284
O14	O	1.610259	0.600493	0.573284
Zn15	Zn	0.989671	0.106746	0.096530
Zn16	Zn	1.489671	0.606746	0.596530
Zn17	Zn	0.989682	0.106748	-0.096434
Zn18	Zn	1.489682	0.606748	0.403566
O19	O	0.991105	0.220562	0.073270
O20	O	1.491105	0.720562	0.573270
C21	C	0.838079	0.112494	0.000039
C22	C	1.338079	0.612494	0.500039
C23	C	0.745676	0.110975	0.000034
C24	C	1.245676	0.610975	0.500034
C25	C	0.528212	0.178690	0.000040
C26	C	1.028212	0.678690	0.500040
C27	C	0.441390	0.177257	0.000046
C28	C	0.941390	0.677257	0.500046
C29	C	0.451147	0.034799	0.000051
C30	C	0.951147	0.534799	0.500051
C31	C	0.537968	0.036233	0.000051
C32	C	1.037968	0.536233	0.500051
C33	C	0.576498	0.108181	0.000042
C34	C	1.076498	0.608181	0.500042
C35	C	0.402855	0.105314	0.000047
C36	C	0.902855	0.605314	0.500047
C37	C	0.308719	0.103759	0.000053
C38	C	0.808719	0.603759	0.500053
C39	C	0.670640	0.109736	0.000037
C40	C	1.170640	0.609736	0.500037
C41	C	0.985636	-0.036196	0.000055
C42	C	1.485636	0.463804	0.500055
C43	C	0.977857	-0.122989	0.000054
C44	C	1.477857	0.377011	0.500054
C45	C	1.049277	-0.173104	0.000059
C46	C	1.549277	0.326896	0.500059
C47	C	1.041963	-0.254654	0.000050
C48	C	1.541963	0.245346	0.500050
C49	C	0.963228	-0.286089	0.000043
C50	C	1.463228	0.213911	0.500043
C51	C	0.891802	-0.235967	0.000035
C52	C	1.391802	0.264033	0.500035
C53	C	0.899116	-0.154418	0.000038
C54	C	1.399116	0.345582	0.500038
C55	C	0.937385	-0.531846	0.000029
C56	C	1.437385	-0.031846	0.500029
C57	C	0.930076	-0.613402	0.000029
C58	C	1.430076	-0.113402	0.500029
C59	C	1.080238	-0.632083	0.000043
C60	C	1.580238	-0.132083	0.500043
C61	C	1.087546	-0.550532	0.000051
C62	C	1.587546	-0.050532	0.500051
C63	C	1.016120	-0.500418	0.000038
C64	C	1.516120	-0.000418	0.500038
C65	C	0.955749	-0.369446	0.000037
C66	C	1.455749	0.130554	0.500037
C67	C	1.023599	-0.417062	0.000038
C68	C	1.523599	0.082938	0.500038
C69	C	1.141274	0.101001	0.000055
C70	C	1.641274	0.601001	0.500055
C71	C	1.233677	0.102519	0.000054
C72	C	1.733677	0.602519	0.500054
C73	C	0.993717	0.249691	0.000039
C74	C	1.493717	0.749691	0.500039
C75	C	1.001496	0.336484	0.000034
C76	C	1.501496	0.836484	0.500034
N77	N	0.989669	0.106744	0.228223
N78	N	1.489669	0.606744	0.728223
N79	N	0.989690	0.106744	-0.228126
N80	N	1.489690	0.606744	0.271874
C81	C	1.042451	0.053596	0.453952
C82	C	1.542451	0.553596	0.953952
C83	C	1.042453	0.053594	0.546141
C84	C	1.542453	0.553594	1.046141
C85	C	0.936902	0.159895	0.546138
C86	C	1.436902	0.659895	1.046138
C87	C	0.936896	0.159893	0.453950
C88	C	1.436896	0.659893	0.953950
C89	C	0.989675	0.106744	0.407859
C90	C	1.489675	0.606744	0.907859
C91	C	0.989684	0.106745	0.592237
C92	C	1.489684	0.606745	1.092237
C93	C	0.989686	0.106743	0.692193
C94	C	1.489686	0.606743	1.192193
C95	C	0.989672	0.106744	0.307897
C96	C	1.489672	0.606744	0.807897
H97	H	1.113392	-0.147517	0.000071
H98	H	1.613392	0.352483	0.500071
O99	O	0.879993	0.217227	0.595856
O100	O	1.379993	0.717227	1.095856
H101	H	0.843291	0.254182	0.548314
H102	H	1.343291	0.754182	1.048314
H103	H	1.151661	-0.524945	0.000057
H104	H	1.651661	-0.024945	0.500057
O105	O	1.157274	-0.686132	0.000051
O106	O	1.657274	-0.186132	0.500051
H107	H	1.138964	-0.748119	0.000042
H108	H	1.638964	-0.248119	0.500042
O109	O	1.099386	-0.003720	0.595859
O110	O	1.599386	0.496280	1.095859
H111	H	1.136089	-0.040669	0.548318
H112	H	1.636089	0.459331	1.048318
O113	O	0.569774	0.256286	0.000048
O114	O	1.069774	0.756286	0.500048
H115	H	0.521608	0.305074	0.000059
H116	H	1.021608	0.805074	0.500059
O117	O	0.389307	0.253305	0.000042
O118	O	0.889307	0.753305	0.500042
H119	H	0.430689	0.303571	0.000030
H120	H	0.930689	0.803571	0.500030
H121	H	0.891642	-0.395049	0.000032
H122	H	1.391642	0.104951	0.500032
O123	O	0.409584	-0.042796	0.000057
O124	O	0.909584	0.457204	0.500057
H125	H	0.457749	-0.091585	0.000068
H126	H	0.957749	0.408415	0.500068
H127	H	0.577284	-0.021187	0.000055
H128	H	1.077284	0.478813	0.500055
O129	O	0.845147	-0.647303	0.000028
O130	O	1.345147	-0.147303	0.500028
H131	H	0.852063	-0.712429	0.000043
H132	H	1.352063	-0.212429	0.500043
H133	H	0.893916	0.203173	0.416419
H134	H	1.393916	0.703173	0.916419
O135	O	1.118994	-0.308710	0.000070
O136	O	1.618994	0.191290	0.500070
H137	H	1.174973	-0.273151	0.000092
H138	H	1.674973	0.226849	0.500092
O139	O	0.860351	-0.477799	0.000038
O140	O	1.360351	0.022201	0.500038
H141	H	0.804375	-0.513360	0.000048
H142	H	1.304375	-0.013360	0.500048
H143	H	0.827693	-0.261567	0.000023
H144	H	1.327693	0.238433	0.500023
O145	O	0.822083	-0.100363	0.000044
O146	O	1.322083	0.399637	0.500044
H147	H	0.784676	-0.111534	-0.059648
H148	H	1.284676	0.388466	0.440352
O149	O	1.108521	-0.383166	0.000043
O150	O	1.608521	0.116834	0.500043
H151	H	1.115439	-0.346467	0.059741
H152	H	1.615439	0.153533	0.559741
O153	O	1.099363	-0.003734	0.404235
O154	O	1.599363	0.496266	0.904235
H155	H	1.136054	-0.040698	0.451778
H156	H	1.636054	0.459302	0.951778
