data_functionalizedCrystal
_audit_creation_method	'MofGen! by Chris Wilmer'
_symmetry_space_group_name_H-M	'P1'
_symmetry_Int_Tables_number	1
_symmetry_cell_setting	triclinic
loop_
_symmetry_equiv_pos_as_xyz
  x,y,z
_cell_length_a	13.897449
_cell_length_b	12.645330
_cell_length_c	13.897441
_cell_angle_alpha	90.029436
_cell_angle_beta	90.020733
_cell_angle_gamma	90.013926
loop_
_atom_site_label
_atom_site_type_symbol
_atom_site_fract_x
_atom_site_fract_y
_atom_site_fract_z
Zn1	Zn	1.474736	-0.421969	0.545389
Zn2	Zn	1.808070	-0.088636	0.878722
Zn3	Zn	2.141403	0.244697	1.212056
Zn4	Zn	1.474645	-0.599265	0.384094
Zn5	Zn	1.807978	-0.265931	0.717427
Zn6	Zn	2.141311	0.067402	1.050760
Zn7	Zn	1.313426	-0.422020	0.384107
Zn8	Zn	1.646759	-0.088686	0.717441
Zn9	Zn	1.980092	0.244647	1.050774
Zn10	Zn	1.313421	-0.599195	0.545346
Zn11	Zn	1.646755	-0.265862	0.878680
Zn12	Zn	1.980088	0.067472	1.212013
O13	O	1.394057	-0.510612	0.464734
O14	O	1.727390	-0.177279	0.798067
O15	O	2.060724	0.156054	1.131401
O16	O	1.609706	-0.445496	0.524005
O17	O	1.943039	-0.112163	0.857338
O18	O	2.276373	0.221171	1.190672
O19	O	1.453222	-0.575803	0.249114
O20	O	1.786555	-0.242470	0.582447
O21	O	2.119889	0.090864	0.915780
O22	O	1.334864	-0.273666	0.405525
O23	O	1.668197	0.059667	0.738859
O24	O	2.001531	0.393001	1.072192
O25	O	1.609638	-0.575754	0.405502
O26	O	1.942972	-0.242421	0.738835
O27	O	2.276305	0.090912	1.072169
O28	O	1.453378	-0.273629	0.524018
O29	O	1.786712	0.059705	0.857352
O30	O	2.120045	0.393038	1.190685
O31	O	1.334775	-0.445582	0.249124
O32	O	1.668108	-0.112249	0.582457
O33	O	2.001442	0.221085	0.915790
O34	O	1.178443	-0.445514	0.405484
O35	O	1.511777	-0.112181	0.738817
O36	O	1.845110	0.221152	1.072151
O37	O	1.334857	-0.575635	0.680334
O38	O	1.668190	-0.242302	1.013667
O39	O	2.001524	0.091031	1.347000
O40	O	1.178440	-0.575684	0.523945
O41	O	1.511774	-0.242351	0.857279
O42	O	1.845107	0.090982	1.190612
O43	O	1.453374	-0.445428	0.680365
O44	O	1.786708	-0.112095	1.013698
O45	O	2.120041	0.221238	1.347032
O46	O	1.453218	-0.747603	0.405461
O47	O	1.786551	-0.414269	0.738794
O48	O	2.119885	-0.080936	1.072127
O49	O	1.334768	-0.747552	0.523932
O50	O	1.668101	-0.414218	0.857265
O51	O	2.001435	-0.080885	1.190599
C52	C	1.143443	-0.510598	0.464712
C53	C	1.476776	-0.177265	0.798045
C54	C	1.810109	0.156069	1.131379
C55	C	1.036229	-0.510618	0.464726
C56	C	1.369562	-0.177284	0.798059
C57	C	1.702895	0.156049	1.131392
C58	C	1.394009	-0.786042	0.464711
C59	C	1.727342	-0.452709	0.798045
C60	C	2.060675	-0.119375	1.131378
C61	C	1.394076	-0.903872	0.464734
C62	C	1.727410	-0.570539	0.798067
C63	C	2.060743	-0.237205	1.131400
C64	C	0.839934	-0.510621	0.464751
C65	C	1.173267	-0.177288	0.798084
C66	C	1.506600	0.156045	1.131417
C67	C	0.949166	-0.510616	0.464734
C68	C	1.282499	-0.177283	0.798067
C69	C	1.615833	0.156051	1.131401
C70	C	1.468474	-1.071424	0.390052
C71	C	1.801807	-0.738091	0.723385
C72	C	2.135140	-0.404757	1.056719
C73	C	1.468716	-0.948864	0.390235
C74	C	1.802049	-0.615530	0.723568
C75	C	2.135383	-0.282197	1.056902
C76	C	1.421645	-0.948249	0.566410
C77	C	1.754979	-0.614915	0.899743
C78	C	2.088312	-0.281582	1.233077
C79	C	1.422236	-1.070847	0.566014
C80	C	1.755569	-0.737513	0.899347
C81	C	2.088902	-0.404180	1.232680
C82	C	1.292081	-1.071203	0.438741
C83	C	1.625414	-0.737870	0.772075
C84	C	1.958747	-0.404537	1.105408
C85	C	1.292570	-0.948599	0.436461
C86	C	1.625903	-0.615265	0.769794
C87	C	1.959236	-0.281932	1.103128
C88	C	1.645650	-0.510627	0.464757
C89	C	1.978983	-0.177294	0.798090
C90	C	2.312317	0.156039	1.131423
C91	C	1.752864	-0.510634	0.464766
C92	C	2.086197	-0.177300	0.798100
C93	C	2.419531	0.156033	1.131433
C94	C	1.394125	-0.510519	0.716327
C95	C	1.727459	-0.177185	1.049661
C96	C	2.060792	0.156148	1.382994
C97	C	1.394155	-0.510479	0.823541
C98	C	1.727488	-0.177145	1.156875
C99	C	2.060821	0.156188	1.490208
C100	C	1.394132	-0.234107	0.464778
C101	C	1.727465	0.099226	0.798111
C102	C	2.060798	0.432560	1.131445
C103	C	1.394164	-0.116277	0.464797
C104	C	1.727497	0.217056	0.798130
C105	C	2.060830	0.550390	1.131464
C106	C	1.394044	-0.510629	0.214120
C107	C	1.727378	-0.177296	0.547453
C108	C	2.060711	0.156038	0.880786
C109	C	1.394202	-0.510370	0.106906
C110	C	1.727535	-0.177037	0.440240
C111	C	2.060869	0.156296	0.773573
C112	C	1.394181	-0.510407	1.019836
C113	C	1.727514	-0.177074	1.353170
C114	C	2.060847	0.156260	1.686503
C115	C	1.394163	-0.510450	0.910604
C116	C	1.727497	-0.177116	1.243937
C117	C	2.060830	0.156217	1.577271
H118	H	1.451467	-0.918865	0.314843
H119	H	1.784800	-0.585531	0.648177
H120	H	2.118133	-0.252198	0.981510
O121	O	1.215263	-0.908049	0.503277
O122	O	1.548596	-0.574715	0.836610
O123	O	1.881930	-0.241382	1.169943
H124	H	1.248130	-0.855154	0.557929
H125	H	1.581463	-0.521821	0.891262
H126	H	1.914797	-0.188487	1.224595
H127	H	1.369169	-0.919102	0.623593
H128	H	1.702503	-0.585768	0.956926
H129	H	2.035836	-0.252435	1.290259
H130	H	1.451440	-1.100981	0.314440
H131	H	1.784773	-0.767647	0.647773
H132	H	2.118107	-0.434314	0.981107
O133	O	1.218689	-1.109836	0.510705
O134	O	1.552023	-0.776503	0.844039
O135	O	1.885356	-0.443170	1.177372
H136	H	1.254687	-1.160866	0.564788
H137	H	1.588020	-0.827533	0.898122
H138	H	1.921354	-0.494199	1.231455
O139	O	1.568094	-1.112106	0.412632
O140	O	1.901428	-0.778773	0.745965
O141	O	2.234761	-0.445439	1.079298
H142	H	1.568222	-1.199790	0.408949
H143	H	1.901555	-0.866456	0.742282
H144	H	2.234889	-0.533123	1.075615
O145	O	1.568865	-0.909890	0.413063
O146	O	1.902199	-0.576557	0.746396
O147	O	2.235532	-0.243223	1.079729
H148	H	1.617311	-0.978610	0.424025
H149	H	1.950644	-0.645276	0.757359
H150	H	2.283977	-0.311943	1.090692
O151	O	1.521075	-1.108625	0.595236
O152	O	1.854408	-0.775292	0.928569
O153	O	2.187741	-0.441959	1.261903
H154	H	1.568002	-1.039330	0.609513
H155	H	1.901336	-0.705997	0.942846
H156	H	2.234669	-0.372664	1.276179
O157	O	1.258877	-1.112268	0.342235
O158	O	1.592211	-0.778935	0.675568
O159	O	1.925544	-0.445601	1.008902
H160	H	1.186757	-1.079347	0.325518
H161	H	1.520091	-0.746014	0.658852
H162	H	1.853424	-0.412680	0.992185
O163	O	1.353670	-1.110157	0.642304
O164	O	1.687004	-0.776824	0.975638
O165	O	2.020337	-0.443491	1.308971
H166	H	1.320244	-1.041599	0.679323
H167	H	1.653577	-0.708265	1.012656
H168	H	1.986910	-0.374932	1.345989
H169	H	1.271782	-0.919606	0.361636
H170	H	1.605116	-0.586273	0.694969
H171	H	1.938449	-0.252940	1.028302
O172	O	1.519374	-0.907484	0.596138
O173	O	1.852708	-0.574151	0.929471
O174	O	2.186041	-0.240817	1.262805
H175	H	1.548467	-0.855631	0.538667
H176	H	1.881800	-0.522298	0.872000
H177	H	2.215133	-0.188964	1.205334
