data_functionalizedCrystal
_audit_creation_method	'MofGen! by Chris Wilmer'
_symmetry_space_group_name_H-M	'P1'
_symmetry_Int_Tables_number	1
_symmetry_cell_setting	triclinic
loop_
_symmetry_equiv_pos_as_xyz
  x,y,z
_cell_length_a	6.817900
_cell_length_b	13.167930
_cell_length_c	16.015572
_cell_angle_alpha	82.528611
_cell_angle_beta	104.485554
_cell_angle_gamma	105.754568
loop_
_atom_site_label
_atom_site_type_symbol
_atom_site_fract_x
_atom_site_fract_y
_atom_site_fract_z
V1	V	-3.996640	-0.042085	-0.272767
O2	O	-3.966969	0.107267	-0.255665
O3	O	-3.965442	-0.184668	-0.282356
O4	O	-3.927310	0.004742	-0.386504
O5	O	-4.005364	-0.083454	-0.150796
V6	V	-4.480751	-0.029677	-0.256787
O7	O	-4.256608	-0.069302	-0.307821
O8	O	-4.670979	-0.002460	-0.221733
O9	O	-4.288742	0.112906	-0.247198
O10	O	-4.627819	-0.179029	-0.273889
O11	O	-4.589423	0.011692	-0.378758
O12	O	-4.326874	-0.076504	-0.143050
C13	C	-3.815304	-0.220870	-0.281009
C14	C	-3.870944	-0.337136	-0.289607
C15	C	-3.919304	-0.585899	-0.149927
C16	C	-3.971581	-0.695142	-0.158002
C17	C	-4.027789	-0.664868	-0.313831
C18	C	-3.975512	-0.555625	-0.305756
C19	C	-3.921267	-0.516145	-0.223801
C20	C	-3.868976	-0.406899	-0.215727
C21	C	-3.925198	-0.376627	-0.371556
C22	C	-3.977475	-0.485871	-0.379630
C23	C	-3.766663	0.020743	-0.413859
C24	C	-3.791376	0.058086	-0.506915
C25	C	-4.119998	-0.273369	-0.911122
C26	C	-4.143220	-0.238246	-0.998555
C27	C	-4.044309	-0.056530	-0.959280
C28	C	-4.021068	-0.091638	-0.871841
C29	C	-4.058919	-0.200059	-0.847770
C30	C	-3.959989	-0.018328	-0.808489
C31	C	-3.936761	-0.053434	-0.721058
C32	C	-3.974613	-0.161850	-0.696979
C33	C	-4.035691	-0.235165	-0.760339
C34	C	-3.922153	0.090092	-0.832562
C35	C	-3.861074	0.163403	-0.769210
C36	C	-3.837831	0.128297	-0.681777
C37	C	-3.875683	0.019881	-0.657698
C38	C	-3.776753	0.201612	-0.618417
C39	C	-3.753525	0.166507	-0.530986
C40	C	-3.852455	-0.015224	-0.570267
C41	C	-4.102223	0.149101	-0.248543
C42	C	-4.025821	0.265369	-0.239951
C43	C	-4.150864	-0.092510	-0.115691
C44	C	-4.105390	-0.129848	-0.022633
H45	H	-3.824796	-0.374756	-0.148995
C46	C	-3.892705	-0.132923	-0.544102
C47	C	-3.756150	-0.175649	-0.572801
C48	C	-3.792920	-0.284047	-0.548660
H49	H	-3.869867	-0.143324	-0.482961
H50	H	-4.033124	-0.167076	-0.569417
H51	H	-3.615764	-0.141507	-0.547483
H52	H	-3.778965	-0.165277	-0.633940
H53	H	-3.933339	-0.318200	-0.573975
H54	H	-3.770082	-0.294437	-0.487519
H55	H	-3.700288	-0.313052	-0.568135
H56	H	-4.021656	-0.518031	-0.446355
H57	H	-3.875109	-0.553753	-0.083196
H58	H	-3.955703	-0.190431	-0.625787
H59	H	-3.926787	-0.319820	-0.431709
H60	H	-4.066486	-0.323451	-0.740739
C61	C	-4.160587	-0.391117	-0.885137
C62	C	-4.218775	-0.447808	-0.959323
C63	C	-4.255896	-0.556267	-0.935411
H64	H	-4.036973	-0.406189	-0.848935
H65	H	-4.269950	-0.411166	-0.854804
H66	H	-4.109421	-0.427766	-0.989642
H67	H	-4.342399	-0.432768	-0.995534
H68	H	-4.365259	-0.576316	-0.905078
H69	H	-4.132275	-0.571328	-0.899208
H70	H	-4.295399	-0.594745	-0.985742
H71	H	-4.192950	-0.297952	-1.050137
C72	C	-3.736076	0.319325	-0.644522
C73	C	-3.872364	0.362251	-0.615834
C74	C	-3.834980	0.470683	-0.639877
H75	H	-3.595622	0.353313	-0.619154
H76	H	-3.758762	0.329772	-0.705669
H77	H	-3.849661	0.351813	-0.554700
H78	H	-4.012829	0.328295	-0.641199
H79	H	-3.857666	0.481129	-0.701023
H80	H	-3.694523	0.504660	-0.614507
H81	H	-3.927457	0.499820	-0.620423
H82	H	-3.969980	-0.751934	-0.097845
C83	C	-4.086648	-0.707949	-0.402725
C84	C	-4.131967	-0.818549	-0.393978
C85	C	-4.186168	-0.858271	-0.475848
H86	H	-4.206104	-0.686290	-0.436439
H87	H	-3.973186	-0.681540	-0.430477
H88	H	-4.245418	-0.844948	-0.366239
H89	H	-4.012539	-0.840237	-0.360280
H90	H	-4.072706	-0.831862	-0.503600
H91	H	-4.305620	-0.836605	-0.509556
H92	H	-4.216905	-0.933316	-0.469924
C93	C	-4.003612	0.061184	-0.985383
C94	C	-4.139891	0.104119	-0.956697
C95	C	-4.102480	0.212551	-0.980736
H96	H	-3.863156	0.095163	-0.960011
H97	H	-4.026290	0.071632	-1.046529
H98	H	-4.117197	0.093679	-0.895563
H99	H	-4.280359	0.070170	-0.982065
H100	H	-4.125157	0.223000	-1.041882
H101	H	-3.962020	0.246521	-0.955363
H102	H	-4.194950	0.241695	-0.961283
H103	H	-3.941038	0.118672	-0.903754
C104	C	-3.820378	0.281116	-0.795313
C105	C	-3.956656	0.324052	-0.766627
C106	C	-3.919246	0.432484	-0.790666
H107	H	-3.679921	0.315096	-0.769941
H108	H	-3.843055	0.291565	-0.856459
H109	H	-3.933963	0.313611	-0.705493
H110	H	-4.097124	0.290103	-0.791995
H111	H	-3.941923	0.442933	-0.851812
H112	H	-3.778786	0.466453	-0.765293
H113	H	-4.011716	0.461627	-0.771213
H114	H	-3.703789	0.226203	-0.479402
