data_functionalizedCrystal
_audit_creation_method	'MofGen! by Chris Wilmer'
_symmetry_space_group_name_H-M	'P1'
_symmetry_Int_Tables_number	1
_symmetry_cell_setting	triclinic
loop_
_symmetry_equiv_pos_as_xyz
  x,y,z
_cell_length_a	15.297475
_cell_length_b	16.625546
_cell_length_c	16.625539
_cell_angle_alpha	89.971468
_cell_angle_beta	80.318194
_cell_angle_gamma	80.324704
loop_
_atom_site_label
_atom_site_type_symbol
_atom_site_fract_x
_atom_site_fract_y
_atom_site_fract_z
Zn1	Zn	1.379196	-0.534670	-0.668844
Zn2	Zn	1.379097	-0.669493	-0.533991
Zn3	Zn	1.228337	-0.511324	-0.510732
Zn4	Zn	1.228295	-0.646088	-0.645497
O5	O	1.303731	-0.590394	-0.589766
O6	O	1.505429	-0.572121	-0.670460
O7	O	1.359075	-0.648537	-0.418070
O8	O	1.248408	-0.401598	-0.531743
O9	O	1.505357	-0.671175	-0.571385
O10	O	1.359244	-0.418750	-0.647907
O11	O	1.248312	-0.532330	-0.400981
O12	O	1.102085	-0.509635	-0.509104
O13	O	1.248336	-0.631283	-0.761430
O14	O	1.102054	-0.608645	-0.608116
O15	O	1.359202	-0.549425	-0.778583
O16	O	1.359034	-0.779212	-0.548746
O17	O	1.248240	-0.762016	-0.630669
C18	C	1.069335	-0.554067	-0.553553
C19	C	0.969059	-0.538546	-0.538080
C20	C	0.686434	-0.701332	-0.700356
C21	C	0.780648	-0.715921	-0.714891
C22	C	0.827756	-0.671578	-0.670690
C23	C	0.780640	-0.612645	-0.611950
C24	C	0.686417	-0.598059	-0.597409
C25	C	0.827738	-0.568305	-0.567743
C26	C	0.780622	-0.509372	-0.509004
C27	C	0.686408	-0.494788	-0.494465
C28	C	0.639301	-0.539130	-0.538667
C29	C	0.921961	-0.582891	-0.582285
C30	C	0.921944	-0.479618	-0.479338
C31	C	0.827730	-0.465029	-0.464802
C32	C	1.303646	-0.799871	-0.589719
C33	C	1.303692	-0.889500	-0.589739
C34	C	1.303849	-1.217700	-0.589847
C35	C	1.303803	-1.126384	-0.589819
C36	C	1.303770	-1.053602	-0.589793
C37	C	1.303725	-0.962281	-0.589765
C38	C	1.539043	-0.626863	-0.626121
C39	C	1.639318	-0.642403	-0.641614
C40	C	1.303775	-0.590347	-0.800082
C41	C	1.303794	-0.590328	-0.889706
C42	C	1.303842	-0.380102	-0.589835
C43	C	1.303889	-0.290488	-0.589864
C44	C	1.303809	-0.590312	-0.962491
C45	C	1.303830	-0.590285	-1.053803
C46	C	1.303851	-0.590260	-1.126582
C47	C	1.303874	-0.590235	-1.217900
C48	C	1.303739	-0.590390	-0.380277
C49	C	1.303895	-0.590210	-0.290680
H50	H	0.960298	-0.443512	-0.443344
C51	C	0.973782	-0.647710	-0.646899
C52	C	0.960793	-0.737352	-0.638149
C53	C	1.012614	-0.802174	-0.702769
C54	C	1.077423	-0.777354	-0.776139
C55	C	1.090415	-0.687707	-0.784892
C56	C	1.038594	-0.622885	-0.720272
H57	H	0.912815	-0.755730	-0.583833
H58	H	1.002996	-0.868537	-0.696289
H59	H	1.115783	-0.825339	-0.823975
H60	H	1.138393	-0.669330	-0.839208
H61	H	1.048212	-0.556523	-0.726752
C62	C	0.832473	-0.780737	-0.779506
C63	C	0.780663	-0.829510	-0.828132
C64	C	0.832489	-0.894328	-0.892753
C65	C	0.936125	-0.910375	-0.908749
C66	C	0.987941	-0.861601	-0.860122
C67	C	0.936115	-0.796783	-0.795501
H68	H	0.703940	-0.817632	-0.816292
H69	H	0.794131	-0.930433	-0.928750
H70	H	0.974490	-0.958357	-0.956585
H71	H	1.064663	-0.873479	-0.871962
H72	H	0.974473	-0.760678	-0.759504
C73	C	0.634619	-0.750107	-0.748970
C74	C	0.647608	-0.745666	-0.842650
C75	C	0.595793	-0.794447	-0.891268
C76	C	0.530989	-0.847670	-0.846206
C77	C	0.517996	-0.852113	-0.752521
C78	C	0.569811	-0.803331	-0.703903
H79	H	0.695583	-0.706265	-0.876012
H80	H	0.605412	-0.791158	-0.960620
H81	H	0.492632	-0.883780	-0.882196
H82	H	0.470021	-0.891513	-0.719159
H83	H	0.560193	-0.806621	-0.634551
H84	H	0.904469	-0.683460	-0.682529
H85	H	0.648049	-0.446809	-0.446627
C86	C	0.775894	-0.400208	-0.400187
C87	C	0.711153	-0.326935	-0.425256
C88	C	0.659316	-0.262114	-0.360642
C89	C	0.672221	-0.270566	-0.270958
C90	C	0.736965	-0.343842	-0.245884
C91	C	0.788801	-0.408663	-0.310499
H92	H	0.701598	-0.320675	-0.491650
H93	H	0.611389	-0.207870	-0.379204
H94	H	0.633848	-0.222582	-0.223127
H95	H	0.746520	-0.350102	-0.179491
H96	H	0.836729	-0.462907	-0.291937
H97	H	0.562584	-0.527254	-0.526837
