data_functionalizedCrystal
_audit_creation_method	'MofGen! by Chris Wilmer'
_symmetry_space_group_name_H-M	'P1'
_symmetry_Int_Tables_number	1
_symmetry_cell_setting	triclinic
loop_
_symmetry_equiv_pos_as_xyz
  x,y,z
_cell_length_a	10.723024
_cell_length_b	13.930277
_cell_length_c	10.723024
_cell_angle_alpha	90.003357
_cell_angle_beta	84.467869
_cell_angle_gamma	90.006913
loop_
_atom_site_label
_atom_site_type_symbol
_atom_site_fract_x
_atom_site_fract_y
_atom_site_fract_z
O1	O	1.657194	0.079822	0.175026
O2	O	1.294041	0.079825	0.191780
O3	O	1.483994	0.079820	0.001827
O4	O	1.467241	0.079827	0.364979
O5	O	1.483967	-0.079842	0.001823
O6	O	1.294015	-0.079837	0.191775
O7	O	1.657167	-0.079840	0.175022
Zn8	Zn	1.475586	-0.105188	0.183398
Zn9	Zn	1.475622	0.105173	0.183404
O10	O	1.467214	-0.079835	0.364975
C11	C	1.247528	-0.000005	0.190558
C12	C	1.108974	-0.000004	0.186911
N13	N	1.475572	-0.248754	0.183393
C14	C	1.033991	-0.000002	0.293198
C15	C	0.890788	-0.000000	0.289431
C16	C	1.391507	-0.701021	0.267481
C17	C	1.559771	-0.700995	0.099317
C18	C	1.559756	-0.600499	0.099312
C19	C	1.475616	-0.550260	0.183395
C20	C	1.391492	-0.600516	0.267483
C21	C	1.643887	-0.550236	0.015235
C22	C	1.643877	-0.449734	0.015229
C23	C	1.559730	-0.399492	0.099307
C24	C	1.475601	-0.449755	0.183396
C25	C	1.391462	-0.399515	0.267480
C26	C	1.307326	-0.449776	0.351564
C27	C	1.307346	-0.550275	0.351561
C28	C	1.559711	-0.298994	0.099310
C29	C	1.391447	-0.299010	0.267481
C30	C	1.703680	-0.000007	0.176243
C31	C	1.842234	-0.000002	0.179891
C32	C	1.482762	-0.000010	-0.044675
C33	C	1.479114	-0.000006	-0.183229
N34	N	1.475646	0.248739	0.183398
C35	C	1.585401	-0.000006	-0.258212
C36	C	1.581634	-0.000002	-0.401415
C37	C	1.468447	-0.000003	0.411477
C38	C	1.472094	0.000000	0.550031
H39	H	1.075814	-0.000005	0.386984
H40	H	1.323001	-0.741946	0.335939
Cl41	Cl	1.331599	-0.000008	-0.350504
Cl42	Cl	0.791315	0.000011	0.429921
H43	H	1.712397	-0.591144	-0.053217
H44	H	1.672624	-0.000006	-0.465848
Cl45	Cl	0.941699	0.000002	0.039396
Cl46	Cl	1.665481	-0.235815	-0.006380
Cl47	Cl	1.334308	0.000004	-0.247788
H48	H	1.067152	0.000018	0.093125
H49	H	1.628281	-0.741903	0.030864
Cl50	Cl	1.285659	-0.235860	0.373185
H51	H	1.238825	-0.408859	0.420031
H52	H	1.712383	-0.408818	-0.053238
H53	H	1.238846	-0.591203	0.420020
Cl54	Cl	1.730207	-0.000001	-0.193653
