data_functionalizedCrystal
_audit_creation_method	'MofGen! by Chris Wilmer'
_symmetry_space_group_name_H-M	'P1'
_symmetry_Int_Tables_number	1
_symmetry_cell_setting	triclinic
loop_
_symmetry_equiv_pos_as_xyz
  x,y,z
_cell_length_a	15.538191
_cell_length_b	14.044220
_cell_length_c	14.185569
_cell_angle_alpha	75.620253
_cell_angle_beta	97.875798
_cell_angle_gamma	70.230486
loop_
_atom_site_label
_atom_site_type_symbol
_atom_site_fract_x
_atom_site_fract_y
_atom_site_fract_z
O1	O	1.205756	-0.271175	-0.083422
O2	O	0.940435	-0.164802	-0.083425
O3	O	1.069115	-0.354606	-0.083414
O4	O	1.077076	-0.081371	-0.083433
O5	O	1.107129	-0.410672	0.083424
O6	O	0.978449	-0.220867	0.083413
O7	O	1.243770	-0.327240	0.083415
Cu8	Cu	1.114580	-0.279173	0.098648
Cu9	Cu	1.069625	-0.212869	-0.098657
O10	O	1.115089	-0.137436	0.083404
C11	C	0.925281	-0.181705	-0.000006
C12	C	0.823493	-0.148554	-0.000006
C13	C	0.508030	-0.477901	0.000002
C14	C	0.412383	-0.446726	-0.000001
C15	C	0.404671	-0.271379	-0.000014
C16	C	0.500321	-0.302540	-0.000006
C17	C	0.551993	-0.405802	0.000001
C18	C	0.544283	-0.230442	-0.000007
C19	C	0.639923	-0.261599	-0.000004
C20	C	0.691600	-0.364855	-0.000001
C21	C	0.647632	-0.436960	0.000003
C22	C	0.492608	-0.127178	-0.000020
C23	C	0.536570	-0.055080	-0.000021
C24	C	0.632213	-0.086239	-0.000012
C25	C	0.683891	-0.189495	-0.000008
C26	C	0.676181	-0.014135	-0.000016
C27	C	0.771821	-0.045293	-0.000013
C28	C	0.779531	-0.220653	-0.000005
C29	C	1.084636	-0.416754	0.000006
C30	C	1.074236	-0.518402	0.000007
C31	C	1.055220	-0.704517	-0.000008
C32	C	1.128978	-0.787527	-0.000010
C33	C	1.118398	-0.891087	-0.000018
C34	C	1.065800	-0.600946	0.000000
C35	C	1.258923	-0.310336	-0.000005
C36	C	1.360709	-0.343485	-0.000012
C37	C	1.099568	-0.075288	-0.000017
C38	C	1.109966	0.026363	-0.000025
N39	N	1.146206	-0.325810	0.237422
N40	N	1.038005	-0.166242	-0.237431
C41	C	0.945085	-0.029261	0.605054
C42	C	0.969048	-0.064584	0.710078
C43	C	1.083023	-0.232618	0.710049
C44	C	1.059066	-0.197311	0.605023
C45	C	0.990097	-0.095631	0.552534
C46	C	1.104079	-0.263681	0.552503
C47	C	1.080128	-0.228374	0.447486
C48	C	1.011163	-0.126697	0.394990
C49	C	0.966146	-0.060324	0.447518
C50	C	1.173053	-0.365358	0.604994
C51	C	1.218065	-0.431728	0.552473
C52	C	1.194109	-0.396424	0.447455
C53	C	1.125145	-0.294747	0.394959
C54	C	1.239127	-0.462797	0.394927
C55	C	1.215175	-0.427490	0.289911
C56	C	1.101193	-0.259440	0.289942
H57	H	0.821607	-0.304741	0.000006
O58	O	0.354347	-0.171131	0.000027
C59	C	0.260498	-0.159079	-0.000003
H60	H	0.257943	-0.240791	0.031580
H61	H	0.232724	-0.107524	0.048435
H62	H	0.214941	-0.119177	-0.080045
H63	H	0.550106	-0.561989	0.000013
H64	H	0.807618	0.013414	-0.000005
O65	O	1.306243	-0.561503	0.445872
C66	C	1.392265	-0.569035	0.420162
H67	H	1.392329	-0.485725	0.391292
H68	H	1.453074	-0.618633	0.489210
H69	H	1.400955	-0.608837	0.359196
H70	H	0.991666	-0.097950	0.309479
O71	O	1.213739	-0.779367	0.000045
C72	C	1.205572	-0.676274	0.000028
H73	H	1.143180	-0.639848	0.031607
H74	H	1.272948	-0.681492	0.048476
H75	H	1.193984	-0.624121	-0.080009
O76	O	0.970490	-0.712713	0.000040
C77	C	0.978654	-0.815792	0.000010
H78	H	1.055438	-0.873444	0.031587
H79	H	0.933357	-0.843153	0.048453
H80	H	0.953770	-0.814134	-0.080031
O81	O	0.369608	-0.516724	0.000138
C82	C	0.334225	-0.533011	0.086557
H83	H	0.323110	-0.461899	0.115361
H84	H	0.264177	-0.541683	0.067124
H85	H	0.386774	-0.608620	0.147065
H86	H	1.251830	-0.481536	0.247148
O87	O	1.034294	-0.160638	0.238832
C88	C	1.074244	-0.100204	0.178090
H89	H	1.139218	-0.156206	0.162349
H90	H	1.020416	-0.047691	0.104248
H91	H	1.095401	-0.047847	0.218554
H92	H	0.909977	0.022469	0.404779
O93	O	0.878093	0.069559	0.554213
C94	C	0.843472	0.120562	0.623085
H95	H	0.898162	0.083552	0.697938
H96	H	0.828762	0.209134	0.592741
H97	H	0.775500	0.110245	0.634268
H98	H	0.932388	-0.010528	0.752835
H99	H	1.139181	-0.315406	0.752797
H100	H	0.769473	-0.390217	-0.000012
O101	O	1.196315	-0.399832	0.707007
C102	C	1.178353	-0.492681	0.742097
H103	H	1.178754	-0.533052	0.681571
H104	H	1.235265	-0.549742	0.812340
H105	H	1.106517	-0.470329	0.760755
O106	O	1.285176	-0.530438	0.603416
C107	C	1.371202	-0.537981	0.577710
H108	H	1.371276	-0.454675	0.548848
H109	H	1.432008	-0.587589	0.646759
H110	H	1.379887	-0.577777	0.516741
O111	O	0.697757	-0.537221	-0.000166
C112	C	0.657037	-0.553927	-0.086555
H113	H	0.614722	-0.473766	-0.146952
H114	H	0.715077	-0.604434	-0.115557
H115	H	0.608385	-0.597088	-0.067014
O116	O	0.399728	-0.096833	0.000112
C117	C	0.385350	-0.067385	0.086524
H118	H	0.444775	-0.043819	0.115325
H119	H	0.315041	0.003093	0.067084
H120	H	0.384605	-0.137613	0.147037
O121	O	0.486244	0.045239	-0.000159
C122	C	0.411020	0.097561	-0.086580
H123	H	0.393476	0.035788	-0.115391
H124	H	0.346561	0.150046	-0.067149
H125	H	0.432193	0.149159	-0.147083
H126	H	0.634094	0.069944	-0.000031
