data_functionalizedCrystal
_audit_creation_method	'MofGen! by Chris Wilmer'
_symmetry_space_group_name_H-M	'P1'
_symmetry_Int_Tables_number	1
_symmetry_cell_setting	triclinic
loop_
_symmetry_equiv_pos_as_xyz
  x,y,z
_cell_length_a	9.065218
_cell_length_b	12.503552
_cell_length_c	9.065218
_cell_angle_alpha	93.573739
_cell_angle_beta	85.015919
_cell_angle_gamma	86.422336
loop_
_atom_site_label
_atom_site_type_symbol
_atom_site_fract_x
_atom_site_fract_y
_atom_site_fract_z
O1	O	-1.968811	0.089372	-0.207937
O2	O	-1.539525	0.089361	-0.225685
O3	O	-1.763041	0.089364	-0.002169
O4	O	-1.745295	0.089368	-0.431453
O5	O	-1.746212	-0.089278	-0.018993
O6	O	-1.522696	-0.089282	-0.242509
O7	O	-1.951982	-0.089271	-0.224762
Cu8	Cu	-1.735802	-0.105588	-0.235172
Cu9	Cu	-1.755705	0.105678	-0.215275
O10	O	-1.728466	-0.089274	-0.448278
C11	C	-1.476124	0.000039	-0.232391
C12	C	-1.312281	0.000035	-0.227292
N13	N	-1.721815	-0.254181	-0.249165
C14	C	-1.790272	-0.526613	-0.180680
C15	C	-1.701251	-0.473290	-0.269750
C16	C	-1.712696	-0.351366	-0.258294
C17	C	-1.778829	-0.648548	-0.192134
C18	C	-1.015383	0.000047	-0.218055
C19	C	-1.179225	0.000038	-0.223156
C20	C	-1.752921	0.000045	0.044406
C21	C	-1.747822	0.000050	0.208249
N22	N	-1.769704	0.254271	-0.201270
C23	C	-1.738586	0.000048	-0.494852
C24	C	-1.743686	0.000050	-0.658695
H25	H	-1.616443	-0.519207	-0.354611
H26	H	-1.875076	-0.480701	-0.095827
