data_functionalizedCrystal
_audit_creation_method	'MofGen! by Chris Wilmer'
_symmetry_space_group_name_H-M	'P1'
_symmetry_Int_Tables_number	1
_symmetry_cell_setting	triclinic
loop_
_symmetry_equiv_pos_as_xyz
  x,y,z
_cell_length_a	18.215407
_cell_length_b	18.101395
_cell_length_c	18.215399
_cell_angle_alpha	89.973573
_cell_angle_beta	89.980167
_cell_angle_gamma	90.031552
loop_
_atom_site_label
_atom_site_type_symbol
_atom_site_fract_x
_atom_site_fract_y
_atom_site_fract_z
Zn1	Zn	1.125040	-0.294828	-0.416124
Zn2	Zn	1.375040	-0.044828	-0.166124
Zn3	Zn	1.625040	0.205172	0.083876
Zn4	Zn	1.875040	0.455172	0.333876
Zn5	Zn	1.124935	-0.418675	-0.293061
Zn6	Zn	1.374935	-0.168675	-0.043061
Zn7	Zn	1.624935	0.081325	0.206939
Zn8	Zn	1.874935	0.331325	0.456939
Zn9	Zn	1.001973	-0.294853	-0.293071
Zn10	Zn	1.251973	-0.044853	-0.043071
Zn11	Zn	1.501973	0.205147	0.206929
Zn12	Zn	1.751973	0.455147	0.456929
Zn13	Zn	1.001925	-0.418634	-0.416086
Zn14	Zn	1.251925	-0.168634	-0.166086
Zn15	Zn	1.501925	0.081366	0.083914
Zn16	Zn	1.751925	0.331366	0.333914
O17	O	1.063468	-0.356747	-0.354585
O18	O	1.313468	-0.106747	-0.104585
O19	O	1.563468	0.143253	0.145415
O20	O	1.813468	0.393253	0.395415
O21	O	1.228010	-0.311264	-0.399811
O22	O	1.478010	-0.061264	-0.149811
O23	O	1.728010	0.188736	0.100189
O24	O	1.978010	0.438736	0.350189
O25	O	1.108600	-0.402277	-0.190078
O26	O	1.358600	-0.152277	0.059922
O27	O	1.608600	0.097723	0.309922
O28	O	1.858600	0.347723	0.559922
O29	O	1.018362	-0.191216	-0.309415
O30	O	1.268362	0.058784	-0.059415
O31	O	1.518362	0.308784	0.190585
O32	O	1.768362	0.558784	0.440585
O33	O	1.227933	-0.402253	-0.309397
O34	O	1.477933	-0.152253	-0.059397
O35	O	1.727933	0.097747	0.190603
O36	O	1.977933	0.347747	0.440603
O37	O	1.108779	-0.191199	-0.399821
O38	O	1.358779	0.058801	-0.149821
O39	O	1.608779	0.308801	0.100179
O40	O	1.858779	0.558801	0.350179
O41	O	1.018260	-0.311305	-0.190085
O42	O	1.268260	-0.061305	0.059915
O43	O	1.518260	0.188695	0.309915
O44	O	1.768260	0.438695	0.559915
O45	O	0.898982	-0.311265	-0.309378
O46	O	1.148982	-0.061265	-0.059378
O47	O	1.398982	0.188735	0.190622
O48	O	1.648982	0.438735	0.440622
O49	O	1.018281	-0.402183	-0.519075
O50	O	1.268281	-0.152183	-0.269075
O51	O	1.518281	0.097817	-0.019075
O52	O	1.768281	0.347817	0.230925
O53	O	0.898947	-0.402207	-0.399756
O54	O	1.148947	-0.152207	-0.149756
O55	O	1.398947	0.097793	0.100244
O56	O	1.648947	0.347793	0.350244
O57	O	1.108733	-0.311224	-0.519103
O58	O	1.358733	-0.061224	-0.269103
O59	O	1.608733	0.188776	-0.019103
O60	O	1.858733	0.438776	0.230897
O61	O	1.108554	-0.522302	-0.309360
O62	O	1.358554	-0.272302	-0.059360
O63	O	1.608554	-0.022302	0.190640
O64	O	1.858554	0.227698	0.440640
O65	O	1.018179	-0.522272	-0.399746
O66	O	1.268179	-0.272272	-0.149746
O67	O	1.518179	-0.022272	0.100254
O68	O	1.768179	0.227728	0.350254
C69	C	0.872262	-0.356735	-0.354564
C70	C	1.122262	-0.106735	-0.104564
C71	C	1.372262	0.143265	0.145436
C72	C	1.622262	0.393265	0.395436
C73	C	0.790463	-0.356747	-0.354572
C74	C	1.040463	-0.106747	-0.104572
C75	C	1.290463	0.143253	0.145428
C76	C	1.540463	0.393253	0.395428
C77	C	1.063370	-0.549158	-0.354564
C78	C	1.313370	-0.299158	-0.104564
C79	C	1.563370	-0.049158	0.145436
C80	C	1.813370	0.200842	0.395436
C81	C	1.063395	-0.631472	-0.354579
C82	C	1.313395	-0.381472	-0.104579
C83	C	1.563395	-0.131472	0.145421
C84	C	1.813395	0.118528	0.395421
C85	C	0.602270	-0.404175	-0.401573
C86	C	0.852270	-0.154175	-0.151573
C87	C	1.102270	0.095825	0.098427
C88	C	1.352270	0.345825	0.348427
C89	C	0.525412	-0.404177	-0.401583
C90	C	0.775412	-0.154177	-0.151583
C91	C	1.025412	0.095823	0.098417
C92	C	1.275412	0.345823	0.348417
C93	C	0.525418	-0.309333	-0.307613
C94	C	0.775418	-0.059333	-0.057613
C95	C	1.025418	0.190667	0.192387
C96	C	1.275418	0.440667	0.442387
C97	C	0.602276	-0.309328	-0.307608
C98	C	0.852276	-0.059328	-0.057608
C99	C	1.102276	0.190672	0.192392
C100	C	1.352276	0.440672	0.442392
C101	C	0.640700	-0.356753	-0.354587
C102	C	0.890700	-0.106753	-0.104587
C103	C	1.140700	0.143247	0.145413
C104	C	1.390700	0.393247	0.395413
C105	C	0.486984	-0.356761	-0.354601
C106	C	0.736984	-0.106761	-0.104601
C107	C	0.986984	0.143239	0.145399
C108	C	1.236984	0.393239	0.395399
C109	C	0.403650	-0.356763	-0.354611
C110	C	0.653650	-0.106763	-0.104611
C111	C	0.903650	0.143237	0.145389
C112	C	1.153650	0.393237	0.395389
C113	C	0.724039	-0.356750	-0.354579
C114	C	0.974039	-0.106750	-0.104579
C115	C	1.224039	0.143250	0.145421
C116	C	1.474039	0.393250	0.395421
C117	C	1.063557	-0.930563	-0.354619
C118	C	1.313557	-0.680563	-0.104619
C119	C	1.563557	-0.430563	0.145381
C120	C	1.813557	-0.180563	0.395381
C121	C	1.006827	-0.899249	-0.411628
C122	C	1.256827	-0.649249	-0.161628
C123	C	1.506827	-0.399249	0.088372
C124	C	1.756827	-0.149249	0.338372
C125	C	1.006557	-0.813632	-0.411450
C126	C	1.256557	-0.563632	-0.161450
C127	C	1.506557	-0.313632	0.088550
C128	C	1.756557	-0.063632	0.338550
C129	C	1.063476	-0.782180	-0.354600
C130	C	1.313476	-0.532180	-0.104600
C131	C	1.563476	-0.282180	0.145400
C132	C	1.813476	-0.032180	0.395400
C133	C	1.042479	-0.813331	-0.277038
C134	C	1.292479	-0.563331	-0.027038
C135	C	1.542479	-0.313331	0.222962
C136	C	1.792479	-0.063331	0.472962
C137	C	1.042113	-0.898976	-0.277380
C138	C	1.292113	-0.648976	-0.027380
C139	C	1.542113	-0.398976	0.222620
C140	C	1.792113	-0.148976	0.472620
C141	C	1.141408	-0.898906	-0.374487
C142	C	1.391408	-0.648906	-0.124487
C143	C	1.641408	-0.398906	0.125513
C144	C	1.891408	-0.148906	0.375513
C145	C	1.140950	-0.813255	-0.376188
C146	C	1.390950	-0.563255	-0.126188
C147	C	1.640950	-0.313255	0.123812
C148	C	1.890950	-0.063255	0.373812
C149	C	1.063432	-0.698321	-0.354584
C150	C	1.313432	-0.448321	-0.104584
C151	C	1.563432	-0.198321	0.145416
C152	C	1.813432	0.051679	0.395416
C153	C	1.063599	-1.014422	-0.354629
C154	C	1.313599	-0.764422	-0.104629
C155	C	1.563599	-0.514422	0.145371
C156	C	1.813599	-0.264422	0.395371
C157	C	1.255421	-0.356761	-0.354607
C158	C	1.505421	-0.106761	-0.104607
C159	C	1.755421	0.143239	0.145393
C160	C	2.005421	0.393239	0.395393
C161	C	1.337220	-0.356766	-0.354616
C162	C	1.587220	-0.106766	-0.104616
C163	C	1.837220	0.143234	0.145384
C164	C	2.087220	0.393234	0.395384
C165	C	1.063513	-0.356696	-0.546538
C166	C	1.313513	-0.106696	-0.296538
C167	C	1.563513	0.143304	-0.046538
C168	C	1.813513	0.393304	0.203462
C169	C	1.063532	-0.356675	-0.628337
C170	C	1.313532	-0.106675	-0.378337
C171	C	1.563532	0.143325	-0.128337
C172	C	1.813532	0.393325	0.121663
C173	C	1.063587	-0.163585	-0.354623
C174	C	1.313587	0.086415	-0.104623
C175	C	1.563587	0.336415	0.145377
C176	C	1.813587	0.586415	0.395377
C177	C	1.063638	-0.081271	-0.354639
C178	C	1.313638	0.168729	-0.104639
C179	C	1.563638	0.418729	0.145361
C180	C	1.813638	0.668729	0.395361
C181	C	1.110648	-0.309268	-0.816547
C182	C	1.360648	-0.059268	-0.566547
C183	C	1.610648	0.190732	-0.316547
C184	C	1.860648	0.440732	-0.066547
C185	C	1.110656	-0.309246	-0.893406
C186	C	1.360656	-0.059246	-0.643406
C187	C	1.610656	0.190754	-0.393406
C188	C	1.860656	0.440754	-0.143406
C189	C	1.016469	-0.403967	-0.893365
C190	C	1.266469	-0.153967	-0.643365
C191	C	1.516469	0.096033	-0.393365
C192	C	1.766469	0.346033	-0.143365
C193	C	1.016457	-0.403984	-0.816508
C194	C	1.266457	-0.153984	-0.566508
C195	C	1.516457	0.096016	-0.316508
C196	C	1.766457	0.346016	-0.066508
C197	C	1.063551	-0.356636	-0.778101
C198	C	1.313551	-0.106636	-0.528101
C199	C	1.563551	0.143364	-0.278101
C200	C	1.813551	0.393364	-0.028101
C201	C	1.063571	-0.356597	-0.931817
C202	C	1.313571	-0.106597	-0.681817
C203	C	1.563571	0.143403	-0.431817
C204	C	1.813571	0.393403	-0.181817
C205	C	1.063580	-0.356574	-1.015151
C206	C	1.313580	-0.106574	-0.765151
C207	C	1.563580	0.143426	-0.515151
C208	C	1.813580	0.393426	-0.265151
C209	C	1.063541	-0.356657	-0.694762
C210	C	1.313541	-0.106657	-0.444762
C211	C	1.563541	0.143343	-0.194762
C212	C	1.813541	0.393343	0.055238
C213	C	1.063466	-0.356745	-0.163379
C214	C	1.313466	-0.106745	0.086621
C215	C	1.563466	0.143255	0.336621
C216	C	1.813466	0.393255	0.586621
C217	C	1.063590	-0.356558	-0.081580
C218	C	1.313590	-0.106558	0.168420
C219	C	1.563590	0.143442	0.418420
C220	C	1.813590	0.393442	0.668420
H221	H	0.633553	-0.442789	-0.439829
H222	H	0.883553	-0.192789	-0.189829
H223	H	1.133553	0.057211	0.060171
H224	H	1.383553	0.307211	0.310171
H225	H	0.494126	-0.442792	-0.439845
H226	H	0.744126	-0.192792	-0.189845
H227	H	0.994126	0.057208	0.060155
H228	H	1.244126	0.307208	0.310155
H229	H	1.183674	-0.919155	-0.332965
H230	H	1.433674	-0.669155	-0.082965
H231	H	1.683674	-0.419155	0.167035
H232	H	1.933674	-0.169155	0.417035
Br233	Br	0.910376	-0.779585	-0.389520
Br234	Br	1.160376	-0.529585	-0.139520
Br235	Br	1.410376	-0.279585	0.110480
Br236	Br	1.660376	-0.029585	0.360480
Br237	Br	0.473267	-0.244974	-0.243859
Br238	Br	0.723267	0.005026	0.006141
Br239	Br	0.973267	0.255026	0.256141
Br240	Br	1.223267	0.505026	0.506141
Br241	Br	1.174558	-0.245008	-0.764425
Br242	Br	1.424558	0.004992	-0.514425
Br243	Br	1.674558	0.254992	-0.264425
Br244	Br	1.924558	0.504992	-0.014425
H245	H	0.633566	-0.270707	-0.269346
H246	H	0.883566	-0.020707	-0.019346
H247	H	1.133566	0.229293	0.230654
H248	H	1.383566	0.479293	0.480654
Br249	Br	1.174582	-0.244964	-0.945580
Br250	Br	1.424582	0.005036	-0.695580
Br251	Br	1.674582	0.255036	-0.445580
Br252	Br	1.924582	0.505036	-0.195580
Br253	Br	1.028452	-0.778520	-0.507305
Br254	Br	1.278452	-0.528520	-0.257305
Br255	Br	1.528452	-0.278520	-0.007305
Br256	Br	1.778452	-0.028520	0.242695
H257	H	0.978129	-0.442518	-0.924646
H258	H	1.228129	-0.192518	-0.674646
H259	H	1.478129	0.057482	-0.424646
H260	H	1.728129	0.307482	-0.174646
Br261	Br	0.911234	-0.935247	-0.389989
Br262	Br	1.161234	-0.685247	-0.139989
Br263	Br	1.411234	-0.435247	0.110011
Br264	Br	1.661234	-0.185247	0.360011
H265	H	0.978100	-0.442556	-0.785204
H266	H	1.228100	-0.192556	-0.535204
H267	H	1.478100	0.057444	-0.285204
H268	H	1.728100	0.307444	-0.035204
Br269	Br	1.028501	-0.933499	-0.507798
Br270	Br	1.278501	-0.683499	-0.257798
Br271	Br	1.528501	-0.433499	-0.007798
Br272	Br	1.778501	-0.183499	0.242202
H273	H	0.985204	-0.919019	-0.260549
H274	H	1.235204	-0.669019	-0.010549
H275	H	1.485204	-0.419019	0.239451
H276	H	1.735204	-0.169019	0.489451
H277	H	1.082498	-0.792959	-0.233404
H278	H	1.332498	-0.542959	0.016596
H279	H	1.582498	-0.292959	0.266596
H280	H	1.832498	-0.042959	0.516596
Br281	Br	1.107984	-0.933509	-0.204164
Br282	Br	1.357984	-0.683509	0.045836
Br283	Br	1.607984	-0.433509	0.295836
Br284	Br	1.857984	-0.183509	0.545836
Br285	Br	1.173317	-0.934821	-0.467147
Br286	Br	1.423317	-0.684821	-0.217147
Br287	Br	1.673317	-0.434821	0.032853
Br288	Br	1.923317	-0.184821	0.282853
Br289	Br	0.948629	-0.777694	-0.248480
Br290	Br	1.198629	-0.527694	0.001520
Br291	Br	1.448629	-0.277694	0.251520
Br292	Br	1.698629	-0.027694	0.501520
H293	H	1.156785	-0.792893	-0.433269
H294	H	1.406785	-0.542893	-0.183269
H295	H	1.656785	-0.292893	0.066731
H296	H	1.906785	-0.042893	0.316731
Br297	Br	1.215130	-0.777559	-0.312032
Br298	Br	1.465130	-0.527559	-0.062032
Br299	Br	1.715130	-0.277559	0.187968
Br300	Br	1.965130	-0.027559	0.437968
