data_functionalizedCrystal
_audit_creation_method	'MofGen! by Chris Wilmer'
_symmetry_space_group_name_H-M	'P1'
_symmetry_Int_Tables_number	1
_symmetry_cell_setting	triclinic
loop_
_symmetry_equiv_pos_as_xyz
  x,y,z
_cell_length_a	15.995350
_cell_length_b	15.995350
_cell_length_c	14.472310
_cell_angle_alpha	89.998838
_cell_angle_beta	90.009379
_cell_angle_gamma	83.492375
loop_
_atom_site_label
_atom_site_type_symbol
_atom_site_fract_x
_atom_site_fract_y
_atom_site_fract_z
O1	O	-1.110997	-0.107921	-0.076758
O2	O	-0.867221	-0.121248	-0.076776
O3	O	-0.995773	0.007303	-0.076766
O4	O	-0.982445	-0.236472	-0.076769
O5	O	-0.995740	0.007296	0.076916
O6	O	-0.867188	-0.121256	0.076906
O7	O	-1.110963	-0.107928	0.076924
Cu8	Cu	-0.989073	-0.114593	0.090947
Cu9	Cu	-0.989112	-0.114584	-0.090800
O10	O	-0.982412	-0.236480	0.076913
C11	C	-0.836010	-0.120701	0.000062
C12	C	-0.743060	-0.119049	0.000055
N13	N	-0.989051	-0.114598	0.218778
C14	C	-0.995205	0.038494	0.000073
C15	C	-0.993553	0.131444	0.000068
C16	C	-1.142175	-0.108476	0.000083
C17	C	-1.235125	-0.110127	0.000084
C18	C	-0.405312	-0.113117	0.000074
C19	C	-0.452746	-0.021565	0.000418
C20	C	-0.549436	-0.023217	0.000065
C21	C	-0.572873	-0.116060	0.000065
C22	C	-0.531804	-0.161212	-0.087692
C23	C	-0.435169	-0.158912	-0.087759
C24	C	-0.434792	-0.160812	0.087007
C25	C	-0.531737	-0.160790	0.088160
C26	C	-0.667570	-0.117727	0.000057
C27	C	-0.310614	-0.111452	0.000076
C28	C	-0.982980	-0.267671	0.000072
C29	C	-0.984631	-0.360621	0.000071
C30	C	-0.987621	0.469192	0.000071
C31	C	-0.896069	0.421758	-0.000281
C32	C	-0.897721	0.325068	0.000066
C33	C	-0.990564	0.301631	0.000069
C34	C	-1.035701	0.342705	0.087831
C35	C	-1.033401	0.439340	0.087904
C36	C	-1.035330	0.439707	-0.086861
C37	C	-1.035309	0.342762	-0.088021
C38	C	-0.992231	0.206934	0.000071
C39	C	-0.985956	0.563890	0.000075
N40	N	-0.989140	-0.114572	-0.218631
C41	C	-0.989111	-0.114581	0.592869
C42	C	-0.920095	-0.183135	0.553698
C43	C	-0.920254	-0.183385	0.446610
C44	C	-0.989081	-0.114590	0.407278
C45	C	-1.076445	-0.133671	0.446122
C46	C	-1.076057	-0.134159	0.553243
C47	C	-0.971542	-0.026741	0.553398
C48	C	-0.969538	-0.027327	0.446270
C49	C	-0.989069	-0.114593	0.302390
C50	C	-0.989128	-0.114579	0.697757
H51	H	-0.577852	0.012275	0.062973
H52	H	-1.091540	-0.198219	0.578220
N53	N	-1.117723	0.479788	0.092915
N54	N	-1.178080	0.436620	0.096353
H55	H	-1.237631	0.465182	0.099898
H56	H	-1.102831	0.471468	-0.087449
N57	N	-0.838671	-0.169532	0.413675
N58	N	-0.781220	-0.159599	0.469805
H59	H	-0.723554	-0.149972	0.446551
N60	N	-0.934340	-0.265159	0.414462
N61	N	-0.996881	-0.273973	0.365114
H62	H	-1.006831	-0.331732	0.342417
H63	H	-0.862239	0.296649	-0.062846
N64	N	-1.096317	-0.213126	0.412464
N65	N	-1.048725	-0.278650	0.430130
H66	H	-1.062754	-0.334769	0.406360
N67	N	-0.412225	-0.117599	-0.170057
N68	N	-0.467557	-0.090661	-0.227043
H69	H	-0.451358	-0.061482	-0.285168
H70	H	-0.433166	0.014865	-0.062168
H71	H	-1.103909	0.328579	0.091097
H72	H	-0.545930	-0.229421	-0.090955
H73	H	-0.559040	-0.127830	0.153082
N74	N	-0.551017	-0.245723	0.094804
N75	N	-0.595582	-0.274800	0.034447
H76	H	-0.609198	-0.334787	0.039132
H77	H	-1.004324	0.314320	0.153137
H78	H	-0.560193	-0.129845	-0.153002
H79	H	-1.129029	-0.085068	0.420643
N80	N	-1.142418	-0.073899	0.585740
N81	N	-1.188873	-0.031622	0.529303
H82	H	-1.235742	0.010933	0.552249
N83	N	-0.992052	0.462299	0.170182
N84	N	-0.926601	0.497933	0.164725
H85	H	-0.897394	0.514143	0.222835
N86	N	-0.893340	-0.003726	0.587296
N87	N	-0.868735	0.064446	0.563240
H88	H	-0.813501	0.080694	0.587180
N89	N	-0.409006	-0.123265	0.170447
N90	N	-0.368582	-0.060890	0.166853
H91	H	-0.350369	-0.034365	0.225778
N92	N	-0.852875	0.290114	0.079118
N93	N	-0.820263	0.337139	0.134210
H94	H	-0.788589	0.312455	0.190046
N95	N	-0.997799	0.465490	-0.170302
N96	N	-0.935424	0.505915	-0.166708
H97	H	-0.908910	0.524127	-0.225634
H98	H	-0.577308	0.012521	-0.062951
N99	N	-0.838367	-0.169101	0.586045
N100	N	-0.830028	-0.108413	0.638350
H101	H	-0.772305	-0.098499	0.661200
N102	N	-0.888914	-0.009169	0.414423
N103	N	-0.845962	-0.060261	0.363196
H104	H	-0.789021	-0.047440	0.340697
N105	N	-1.034670	0.037271	0.585163
N106	N	-1.080146	0.080062	0.528270
H107	H	-1.124732	0.125266	0.550708
N108	N	-0.394946	-0.245489	0.087742
N109	N	-0.345042	-0.270700	0.024587
H110	H	-0.316897	-0.330500	0.025099
H111	H	-0.931159	-0.247952	0.580608
N112	N	-1.028501	0.039666	0.412676
N113	N	-1.086147	0.024117	0.359215
H114	H	-1.127796	0.071429	0.335488
H115	H	-0.402921	-0.226128	-0.091741
N116	N	-0.429495	0.024293	0.079405
N117	N	-0.354388	0.036283	0.091417
H118	H	-0.337968	0.068655	0.147220
N119	N	-0.850187	0.445025	-0.079232
N120	N	-0.838191	0.520136	-0.091185
H121	H	-0.805788	0.536575	-0.146949
N122	N	-0.850373	0.446330	0.078243
N123	N	-0.876428	0.433971	0.157955
H124	H	-0.844162	0.451327	0.213418
H125	H	-1.002307	0.315516	-0.152945
H126	H	-1.103014	0.327400	-0.093317
