data_functionalizedCrystal
_audit_creation_method	'MofGen! by Chris Wilmer'
_symmetry_space_group_name_H-M	'P1'
_symmetry_Int_Tables_number	1
_symmetry_cell_setting	triclinic
loop_
_symmetry_equiv_pos_as_xyz
  x,y,z
_cell_length_a	6.817900
_cell_length_b	11.102188
_cell_length_c	19.453114
_cell_angle_alpha	94.506101
_cell_angle_beta	101.709288
_cell_angle_gamma	108.603886
loop_
_atom_site_label
_atom_site_type_symbol
_atom_site_fract_x
_atom_site_fract_y
_atom_site_fract_z
V1	V	-4.033145	-0.177162	-0.218999
O2	O	-3.993679	0.007152	-0.214830
O3	O	-4.010449	-0.349973	-0.217502
O4	O	-3.975743	-0.175034	-0.314512
O5	O	-4.028625	-0.168998	-0.117148
V6	V	-4.514608	-0.155045	-0.206817
O7	O	-4.298920	-0.225677	-0.245722
O8	O	-4.699030	-0.106531	-0.180094
O9	O	-4.314098	0.017766	-0.208315
O10	O	-4.671471	-0.339359	-0.210986
O11	O	-4.636525	-0.163210	-0.308668
O12	O	-4.348803	-0.157173	-0.111304
C13	C	-3.861994	-0.392082	-0.214047
C14	C	-3.924664	-0.533361	-0.213459
C15	C	-3.975874	-0.713952	-0.148311
C16	C	-3.916966	-0.581204	-0.148860
C17	C	-3.991254	-0.618274	-0.277513
C18	C	-4.050146	-0.751019	-0.276962
C19	C	-3.968192	-0.761787	-0.083708
C20	C	-3.901602	-0.676883	-0.019655
C21	C	-3.842694	-0.544135	-0.020204
C22	C	-3.850376	-0.496291	-0.084807
C23	C	-3.817722	-0.168929	-0.337793
C24	C	-3.852244	-0.168333	-0.415875
C25	C	-4.051193	-0.174432	-0.456132
C26	C	-4.083631	-0.173872	-0.529499
C27	C	-3.917119	-0.167238	-0.562608
C28	C	-3.718139	-0.161131	-0.522341
C29	C	-3.685701	-0.161678	-0.448974
N30	N	-3.867359	-0.234355	-0.681397
N31	N	-3.898187	-0.233838	-0.751093
C32	C	-4.014840	-0.165586	-0.783656
N33	N	-4.099538	-0.097887	-0.743893
N34	N	-4.068716	-0.098410	-0.674192
C35	C	-3.952272	-0.166643	-0.642161
C36	C	-4.248973	-0.171077	-0.903466
C37	C	-4.281399	-0.170508	-0.976833
C38	C	-3.915908	-0.157780	-0.969675
C39	C	-3.883481	-0.158336	-0.896308
C40	C	-4.050024	-0.164990	-0.863208
C41	C	-4.125896	0.059868	-0.211767
C42	C	-4.042464	0.201146	-0.212360
C43	C	-4.170167	-0.163283	-0.088020
C44	C	-4.114883	-0.163873	-0.009937
H45	H	-4.016159	-0.869876	-0.083254
H46	H	-3.582564	-0.155726	-0.549302
Br47	Br	-3.415678	-0.153403	-0.394336
H48	H	-3.780325	-0.152368	-0.996630
Br49	Br	-4.551422	-0.178780	-1.031470
Br50	Br	-3.891143	-0.741810	0.068017
H51	H	-3.997505	-0.579308	-0.330109
H52	H	-4.245647	-0.178845	-0.562283
H53	H	-3.788455	-0.475008	0.031952
H54	H	-4.104361	-0.820149	-0.329116
H55	H	-3.802348	-0.388195	-0.085248
H56	H	-4.186807	-0.179845	-0.429187
H57	H	-4.384580	-0.176491	-0.876515
Br58	Br	-3.613471	-0.150076	-0.841671
