data_functionalizedCrystal
_audit_creation_method	'MofGen! by Chris Wilmer'
_symmetry_space_group_name_H-M	'P1'
_symmetry_Int_Tables_number	1
_symmetry_cell_setting	triclinic
loop_
_symmetry_equiv_pos_as_xyz
  x,y,z
_cell_length_a	16.109301
_cell_length_b	16.053802
_cell_length_c	16.992695
_cell_angle_alpha	87.258926
_cell_angle_beta	87.064852
_cell_angle_gamma	92.577771
loop_
_atom_site_label
_atom_site_type_symbol
_atom_site_fract_x
_atom_site_fract_y
_atom_site_fract_z
O1	O	1.113143	0.069377	0.097485
O2	O	0.871918	0.069390	0.110027
O3	O	0.991563	0.069377	-0.010386
O4	O	0.993498	0.069390	0.217898
O5	O	0.984976	-0.069481	-0.003786
O6	O	0.865331	-0.069468	0.116627
O7	O	1.106555	-0.069481	0.104086
Zn8	Zn	0.984897	-0.091521	0.111404
Zn9	Zn	0.993576	0.091430	0.102708
O10	O	0.986911	-0.069468	0.224499
C11	C	0.837616	-0.000037	0.112819
C12	C	0.745219	-0.000032	0.111296
N13	N	0.978980	-0.216381	0.117339
C14	C	0.527478	-0.000038	0.179205
C15	C	0.440662	-0.000043	0.177768
C16	C	0.451002	-0.000048	0.034902
C17	C	0.537817	-0.000049	0.036340
C18	C	0.576053	-0.000039	0.108494
C19	C	0.402421	-0.000044	0.105618
C20	C	0.308291	-0.000050	0.104060
C21	C	0.670189	-0.000035	0.110053
C22	C	1.029910	-0.260081	0.066121
C23	C	1.025779	-0.347487	0.070280
C24	C	0.970722	-0.391192	0.125661
C25	C	0.919786	-0.347486	0.176881
C26	C	0.923913	-0.260082	0.172718
C27	C	0.952692	-0.652600	0.143824
C28	C	0.948570	-0.740011	0.147985
C29	C	1.054562	-0.740005	0.041382
C30	C	1.058688	-0.652599	0.037227
C31	C	1.007750	-0.608901	0.088445
N32	N	0.966500	-0.480535	0.129915
N33	N	1.011968	-0.519559	0.084186
C34	C	1.140858	-0.000052	0.101293
C35	C	1.233255	-0.000051	0.102817
C36	C	0.985782	-0.000052	-0.036298
C37	C	0.978358	-0.000051	-0.123340
N38	N	0.999500	0.216290	0.096767
C39	C	1.049984	-0.000056	-0.173599
C40	C	1.043004	-0.000048	-0.255384
C41	C	0.964398	-0.000041	-0.286909
C42	C	0.892767	-0.000033	-0.236644
C43	C	0.899747	-0.000036	-0.154860
C44	C	0.935466	-0.000028	-0.530500
C45	C	0.928490	-0.000028	-0.612289
C46	C	1.078729	-0.000041	-0.631024
C47	C	1.085702	-0.000048	-0.549238
C48	C	1.014071	-0.000036	-0.498980
N49	N	0.957261	-0.000035	-0.370506
N50	N	1.021209	-0.000036	-0.415385
C51	C	0.992692	-0.000037	0.250410
C52	C	1.000116	-0.000033	0.337452
H53	H	0.401116	-0.000044	0.235349
H54	H	0.882440	-0.224502	0.214424
C55	C	0.851084	-0.000030	-0.729341
C56	C	0.842080	-0.000021	-0.646944
H57	H	0.797740	-0.000033	-0.750733
H58	H	0.883098	0.048386	-0.748888
H59	H	0.878509	-0.048460	-0.744280
H60	H	0.814660	0.048413	-0.632004
H61	H	0.810053	-0.048442	-0.627389
C62	C	0.436475	0.071332	-0.090702
C63	C	0.408972	-0.000048	-0.044408
H64	H	0.410531	0.071330	-0.139667
H65	H	0.422415	0.119746	-0.063886
H66	H	0.495131	0.071320	-0.099959
H67	H	0.350316	-0.000032	-0.035146
H68	H	0.423026	-0.048474	-0.071230
H69	H	0.577368	-0.000052	-0.021245
H70	H	1.103520	-0.617016	-0.007868
C71	C	1.192206	-0.000080	-0.265686
C72	C	1.121738	-0.000063	-0.310628
H73	H	1.240813	-0.000095	-0.299793
H74	H	1.194107	0.048339	-0.235699
H75	H	1.189493	-0.048507	-0.231096
H76	H	1.124448	0.048368	-0.345214
H77	H	1.119836	-0.048487	-0.340629
H78	H	1.074747	-0.224502	0.021028
C79	C	1.130985	-0.338702	-0.035486
C80	C	1.081777	-0.395521	0.013992
H81	H	1.165562	-0.368358	-0.070232
H82	H	1.096121	-0.304628	-0.065334
H83	H	1.164653	-0.304595	-0.004447
H84	H	1.048104	-0.429625	-0.017047
H85	H	1.116645	-0.429609	0.043842
C86	C	0.750543	-0.000029	-0.144551
C87	C	0.821014	-0.000033	-0.099613
H88	H	0.701936	-0.000029	-0.110442
H89	H	0.753244	0.048390	-0.179137
H90	H	0.748652	-0.048456	-0.174542
H91	H	0.822909	0.048398	-0.069627
H92	H	0.818313	-0.048457	-0.065013
H93	H	1.149712	-0.000054	-0.523577
C94	C	1.148374	0.071315	-0.095881
C95	C	1.136390	-0.000063	-0.138947
H96	H	1.201717	0.071309	-0.074488
H97	H	1.144828	0.119730	-0.129695
H98	H	1.106710	0.071306	-0.054245
H99	H	1.178051	-0.000051	-0.180587
H100	H	1.139944	-0.048490	-0.105131
H101	H	0.828764	-0.000022	-0.262318
C102	C	0.845315	-0.554329	0.156140
C103	C	0.896714	-0.604569	0.200130
H104	H	0.810756	-0.524678	0.190906
H105	H	0.878692	-0.515797	0.122566
H106	H	0.811628	-0.588445	0.125124
H107	H	0.930406	-0.570453	0.231142
H108	H	0.863334	-0.643106	0.233718
C109	C	1.093091	-0.766925	-0.093060
C110	C	1.110541	-0.788040	-0.014922
H111	H	1.127653	-0.796577	-0.127823
H112	H	1.036368	-0.781262	-0.100898
H113	H	1.103432	-0.708614	-0.103454
H114	H	1.100194	-0.846351	-0.004526
H115	H	1.167277	-0.773709	-0.007080
C116	C	0.844187	-0.731241	0.252923
C117	C	0.888033	-0.788053	0.208853
H118	H	0.806812	-0.760903	0.290493
H119	H	0.882267	-0.697143	0.279525
H120	H	0.813734	-0.697158	0.218639
H121	H	0.918492	-0.822133	0.243137
H122	H	0.849948	-0.822166	0.182250
C123	C	0.777643	-0.374423	0.224153
C124	C	0.859262	-0.395529	0.237752
H125	H	0.740279	-0.404087	0.261731
H126	H	0.772815	-0.316122	0.229009
H127	H	0.764479	-0.388762	0.172499
H128	H	0.872429	-0.381184	0.289405
H129	H	0.864093	-0.453843	0.232903
H130	H	1.137046	-0.000049	-0.671952
H131	H	0.877138	-0.000018	-0.489589
H132	H	0.558607	-0.000037	0.237958
