data_functionalizedCrystal
_audit_creation_method	'MofGen! by Chris Wilmer'
_symmetry_space_group_name_H-M	'P1'
_symmetry_Int_Tables_number	1
_symmetry_cell_setting	triclinic
loop_
_symmetry_equiv_pos_as_xyz
  x,y,z
_cell_length_a	19.288864
_cell_length_b	16.109301
_cell_length_c	18.366186
_cell_angle_alpha	89.992337
_cell_angle_beta	89.977106
_cell_angle_gamma	83.298863
loop_
_atom_site_label
_atom_site_type_symbol
_atom_site_fract_x
_atom_site_fract_y
_atom_site_fract_z
O1	O	0.921600	0.103716	-0.060785
O2	O	0.719373	0.117707	-0.060736
O3	O	0.826042	-0.010339	-0.060755
O4	O	0.814931	0.231761	-0.060767
O5	O	0.826024	-0.010345	0.060345
O6	O	0.719355	0.117701	0.060363
O7	O	0.921582	0.103710	0.060314
Zn8	Zn	0.820466	0.110704	0.079566
Zn9	Zn	0.820490	0.110712	-0.079988
O10	O	0.814913	0.231755	0.060333
C11	C	0.693487	0.117254	-0.000180
C12	C	0.616380	0.115902	-0.000161
C13	C	0.571863	0.191034	-0.000176
C14	C	0.499413	0.189764	-0.000184
C15	C	0.471483	0.113359	-0.000191
C16	C	0.516009	0.038218	-0.000172
C17	C	0.588458	0.039489	-0.000157
C18	C	0.363084	0.053298	-0.042639
C19	C	0.290636	0.052029	-0.042659
C20	C	0.248028	0.109433	-0.000235
C21	C	0.277874	0.168120	0.042199
C22	C	0.350323	0.169391	0.042214
C23	C	0.392925	0.111971	-0.000207
C24	C	0.124952	0.183193	-0.000258
C25	C	0.052501	0.181920	-0.000262
C26	C	0.069099	0.030372	-0.000257
C27	C	0.141548	0.031647	-0.000246
C28	C	0.169470	0.108060	-0.000250
C29	C	0.825583	-0.041315	-0.000205
C30	C	0.824234	-0.133606	-0.000203
C31	C	0.884391	-0.356084	-0.000229
C32	C	0.883118	-0.442800	-0.000235
C33	C	0.756559	-0.422493	-0.000201
C34	C	0.757833	-0.335778	-0.000201
C35	C	0.821751	-0.302577	-0.000211
C36	C	0.819204	-0.476007	-0.000217
C37	C	0.817823	-0.570028	-0.000223
C38	C	0.823133	-0.208549	-0.000206
C39	C	0.947469	0.104163	-0.000244
C40	C	1.024576	0.105514	-0.000268
C41	C	0.815372	0.262732	-0.000219
C42	C	0.816722	0.355022	-0.000225
N43	N	0.820455	0.110698	0.188457
N44	N	0.820506	0.110712	-0.188879
C45	C	0.867703	0.054027	0.226549
C46	C	0.867707	0.054023	0.302777
C47	C	0.820470	0.110705	0.340910
C48	C	0.773213	0.167380	0.302808
C49	C	0.773205	0.167377	0.226582
C50	C	0.811353	0.186459	0.461668
C51	C	0.811365	0.186463	0.537893
C52	C	0.820490	0.110715	0.576017
C53	C	0.829616	0.034960	0.537908
C54	C	0.829609	0.034956	0.461681
C55	C	0.820473	0.110715	0.423564
C56	C	0.867746	0.054036	0.696764
C57	C	0.867745	0.054031	0.772993
C58	C	0.773254	0.167395	0.773023
C59	C	0.773251	0.167392	0.696796
C60	C	0.820500	0.110714	0.658671
H61	H	0.243184	0.214863	0.076745
C62	C	0.688927	-0.276913	-0.000184
H63	H	0.698842	-0.220514	-0.000195
H64	H	0.662709	-0.286952	0.042051
H65	H	0.662728	-0.286948	-0.042415
C66	C	0.721293	0.229743	0.814960
H67	H	0.728066	0.221632	0.865814
H68	H	0.674940	0.220856	0.802493
H69	H	0.728825	0.285211	0.802456
H70	H	0.934126	-0.486363	-0.000251
H71	H	0.734750	0.213530	0.333860
H72	H	0.936438	-0.329054	-0.000239
C73	C	0.637429	-0.043159	-0.000149
H74	H	0.610421	-0.088847	-0.000158
H75	H	0.666017	-0.045817	0.042084
H76	H	0.666054	-0.045806	-0.042381
H77	H	0.016255	0.243104	-0.000270
H78	H	0.734779	0.213542	0.665779
H79	H	0.906175	0.007874	0.195510
H80	H	0.906217	0.007882	0.665722
H81	H	0.704519	-0.449537	-0.000191
C82	C	0.602577	0.275082	-0.000176
H83	H	0.652101	0.265082	-0.000171
H84	H	0.587269	0.306009	0.042047
H85	H	0.587318	0.306002	-0.042418
H86	H	0.803938	0.248148	0.568916
C87	C	0.919684	-0.008315	0.344687
H88	H	0.947824	-0.042068	0.311064
H89	H	0.894714	-0.042848	0.374444
H90	H	0.948590	0.021518	0.374401
H91	H	0.837038	-0.026726	0.430655
H92	H	0.463160	0.250947	-0.000194
C93	C	0.839648	-0.048368	0.579834
H94	H	0.838337	-0.037520	0.630689
H95	H	0.883459	-0.078153	0.567327
H96	H	0.803326	-0.080831	0.567361
C97	C	0.190522	-0.050997	-0.000240
H98	H	0.237669	-0.039297	-0.000225
H99	H	0.182082	-0.082336	-0.042471
H100	H	0.182035	-0.082340	0.041994
H101	H	0.906218	0.007878	0.804009
C102	C	0.801320	0.269787	0.419738
H103	H	0.795898	0.314902	0.453350
H104	H	0.760876	0.271597	0.390020
H105	H	0.841010	0.274271	0.389983
C106	C	0.721238	0.229724	0.184676
H107	H	0.727999	0.221603	0.133817
H108	H	0.728768	0.285189	0.197159
H109	H	0.674883	0.220834	0.197189
C110	C	0.383153	0.233933	0.088895
H111	H	0.347406	0.267938	0.114164
H112	H	0.407759	0.268000	0.058315
H113	H	0.414542	0.205673	0.123018
H114	H	0.266341	0.004247	-0.077214
H115	H	0.147687	0.245413	-0.000251
H116	H	0.397770	0.006551	-0.077190
H117	H	0.046359	-0.031839	-0.000308
H118	H	0.493264	-0.023992	-0.000188
