data_functionalizedCrystal
_audit_creation_method	'MofGen! by Chris Wilmer'
_symmetry_space_group_name_H-M	'P1'
_symmetry_Int_Tables_number	1
_symmetry_cell_setting	triclinic
loop_
_symmetry_equiv_pos_as_xyz
  x,y,z
_cell_length_a	16.109301
_cell_length_b	14.472310
_cell_length_c	16.109301
_cell_angle_alpha	90.002494
_cell_angle_beta	83.461481
_cell_angle_gamma	90.010306
loop_
_atom_site_label
_atom_site_type_symbol
_atom_site_fract_x
_atom_site_fract_y
_atom_site_fract_z
O1	O	1.103143	0.076785	0.106861
O2	O	0.861081	0.076801	0.120161
O3	O	0.988761	0.076783	-0.007520
O4	O	0.975462	0.076803	0.234542
O5	O	0.988729	-0.076899	-0.007512
O6	O	0.861048	-0.076881	0.120168
O7	O	1.103110	-0.076897	0.106869
Cu8	Cu	0.982076	-0.090921	0.113519
Cu9	Cu	0.982115	0.090825	0.113510
O10	O	0.975429	-0.076879	0.234550
C11	C	0.830090	-0.000039	0.119626
C12	C	0.737794	-0.000033	0.118011
N13	N	0.982055	-0.218752	0.113525
C14	C	0.515522	-0.000038	0.190018
C15	C	0.428801	-0.000044	0.188494
C16	C	0.448676	-0.000053	0.037006
C17	C	0.535394	-0.000053	0.038530
C18	C	0.568815	-0.000041	0.115039
C19	C	0.395376	-0.000047	0.111990
C20	C	0.301350	-0.000053	0.110337
C21	C	0.662847	-0.000036	0.116693
C22	C	0.982114	-0.592844	0.113507
C23	C	0.913565	-0.553668	0.181597
C24	C	0.913723	-0.446580	0.181846
C25	C	0.982084	-0.407252	0.113516
C26	C	1.068828	-0.446093	0.132440
C27	C	1.068443	-0.553215	0.132924
C28	C	0.964692	-0.553379	0.026291
C29	C	0.962702	-0.446251	0.026873
C30	C	0.982072	-0.302364	0.113519
C31	C	0.982131	-0.697732	0.113506
C32	C	1.134101	-0.000055	0.107404
C33	C	1.226397	-0.000055	0.109019
C34	C	0.988206	-0.000058	-0.038491
C35	C	0.986591	-0.000059	-0.130786
N36	N	0.982143	0.218656	0.113498
C37	C	1.058599	-0.000049	-0.353059
C38	C	1.057075	-0.000042	-0.439779
C39	C	0.905586	-0.000036	-0.419905
C40	C	0.907111	-0.000037	-0.333186
C41	C	0.983620	-0.000048	-0.299766
C42	C	0.980571	-0.000040	-0.473205
C43	C	0.978918	-0.000031	-0.567231
C44	C	0.985273	-0.000055	-0.205734
C45	C	0.975984	-0.000036	0.265521
C46	C	0.977600	-0.000028	0.357816
H47	H	0.542730	-0.000035	0.252317
H48	H	0.385413	-0.000043	0.249550
Br49	Br	0.607728	-0.000069	-0.063234
Br50	Br	0.403314	-0.000065	-0.066823
H51	H	0.849244	-0.420321	0.170574
Br52	Br	0.805738	-0.596617	0.163108
H53	H	1.120897	-0.000057	-0.325851
H54	H	0.924846	-0.420942	0.246568
Br55	Br	0.931855	-0.598490	0.288870
Br56	Br	0.805346	-0.000023	-0.260853
Br57	Br	1.158837	-0.000038	-0.512103
Br58	Br	1.094037	-0.594841	0.238936
Br59	Br	1.155926	-0.596411	0.053316
Br60	Br	1.155881	-0.403640	0.051977
Br61	Br	1.095041	-0.401358	0.237243
Br62	Br	0.861538	-0.598456	-0.004032
H63	H	1.014681	-0.578712	-0.024379
Br64	Br	0.856347	-0.403945	0.002932
Br65	Br	1.040524	-0.401652	-0.061537
Br66	Br	0.801758	-0.000018	-0.465267
