data_functionalizedCrystal
_audit_creation_method	'MofGen! by Chris Wilmer'
_symmetry_space_group_name_H-M	'P1'
_symmetry_Int_Tables_number	1
_symmetry_cell_setting	triclinic
loop_
_symmetry_equiv_pos_as_xyz
  x,y,z
_cell_length_a	29.917948
_cell_length_b	29.917021
_cell_length_c	29.913391
_cell_angle_alpha	60.005297
_cell_angle_beta	60.010472
_cell_angle_gamma	59.993667
loop_
_atom_site_label
_atom_site_type_symbol
_atom_site_fract_x
_atom_site_fract_y
_atom_site_fract_z
O1	O	0.061938	-0.653075	0.546110
O2	O	0.023328	-0.508466	0.440017
O3	O	0.114898	-0.599963	0.439941
O4	O	-0.029633	-0.561578	0.546186
O5	O	0.145278	-0.569587	0.470242
O6	O	0.053708	-0.478090	0.470318
O7	O	0.092318	-0.622699	0.576411
Zn8	Zn	0.077836	-0.545572	0.528175
Zn9	Zn	0.037809	-0.585593	0.488253
O10	O	0.000747	-0.531202	0.576487
N11	N	0.105154	-0.518262	0.555424
N12	N	0.010496	-0.612908	0.461004
C13	C	0.164136	-0.309209	0.614352
C14	C	0.164251	-0.459335	0.764424
C15	C	0.164150	-0.459313	0.614341
C16	C	0.314282	-0.459305	0.614278
C17	C	0.180666	-0.358742	0.630849
C18	C	0.180732	-0.442815	0.714891
C19	C	0.264747	-0.442797	0.630809
C20	C	0.180676	-0.442802	0.630843
C21	C	0.143097	-0.246161	0.593354
C22	C	0.143120	-0.480326	0.593337
C23	C	0.201706	-0.421790	0.651848
C24	C	0.405963	-0.443499	0.565998
C25	C	0.463273	-0.462598	0.546874
C26	C	0.463297	-0.555329	0.582235
C27	C	0.405988	-0.536228	0.601360
C28	C	0.156905	-0.217495	0.537012
C29	C	0.137776	-0.160180	0.517926
C30	C	0.091035	-0.160201	0.611524
C31	C	0.110164	-0.217516	0.630611
C32	C	0.086772	-0.466488	0.607209
C33	C	0.067659	-0.485590	0.588108
C34	C	0.161236	-0.532368	0.541277
C35	C	0.180352	-0.513266	0.560371
C36	C	0.086942	-0.466529	0.856152
C37	C	0.067877	-0.485647	0.913465
C38	C	0.161489	-0.532436	0.913415
C39	C	0.180552	-0.513318	0.856101
C40	C	0.143277	-0.480363	0.827471
C41	C	0.377323	-0.480313	0.593239
C42	C	-0.111377	-0.650681	0.422736
C43	C	-0.027364	-0.650787	0.422929
C44	C	-0.048335	-0.671770	0.401835
C45	C	-0.064214	-0.763416	0.450041
C46	C	-0.045160	-0.820731	0.469172
C47	C	0.047573	-0.820841	0.433980
C48	C	0.028517	-0.763527	0.414847
C49	C	-0.140115	-0.664483	0.479060
C50	C	-0.197425	-0.645309	0.498058
C51	C	-0.197256	-0.598535	0.404405
C52	C	-0.139946	-0.617709	0.385407
C53	C	-0.041168	-0.594444	0.409067
C54	C	-0.022104	-0.575374	0.428250
C55	C	0.024568	-0.668986	0.475143
C56	C	0.005504	-0.688059	0.455967
C57	C	-0.041000	-0.594453	0.310105
C58	C	-0.021803	-0.575386	0.252792
C59	C	0.024951	-0.669004	0.252854
C60	C	0.005755	-0.688070	0.310168
C61	C	-0.027222	-0.650793	0.338792
C62	C	-0.027377	-0.734817	0.422881
N63	N	0.491125	-0.518235	0.555255
O64	O	0.678406	-0.527360	0.420422
O65	O	0.678588	-0.633782	0.564887
O66	O	0.678516	-0.633539	0.473265
O67	O	0.678478	-0.527602	0.512044
O68	O	0.587469	-0.603251	0.503685
O69	O	0.587541	-0.603493	0.595307
O70	O	0.587359	-0.497071	0.450842
Zn71	Zn	0.572994	-0.545473	0.527905
Zn72	Zn	0.692953	-0.585380	0.487825
O73	O	0.587431	-0.497313	0.542465
N74	N	0.774821	-0.612618	0.460470
N75	N	0.105125	-0.132348	0.555445
O76	O	-0.029633	0.055031	0.546198
O77	O	0.114837	0.055047	0.439777
O78	O	0.023189	0.055024	0.440050
O79	O	0.062016	0.055054	0.545925
O80	O	0.053572	-0.036031	0.470398
O81	O	0.145220	-0.036008	0.470125
O82	O	0.000750	-0.036024	0.576546
Zn83	Zn	0.077809	-0.050473	0.528154
Zn84	Zn	0.037778	0.069496	0.488169
O85	O	0.092399	-0.036001	0.576273
N86	N	0.010456	0.151371	0.460879
N87	N	0.105414	-0.518315	0.941279
O88	O	0.096182	-0.653057	1.128644
O89	O	-0.010215	-0.508539	1.128670
O90	O	-0.009968	-0.600172	1.128636
O91	O	0.095935	-0.561424	1.128678
O92	O	0.020367	-0.569808	1.037586
O93	O	0.020121	-0.478175	1.037620
O94	O	0.126517	-0.622693	1.037594
Zn95	Zn	0.078135	-0.545613	1.023151
Zn96	Zn	0.038167	-0.585619	1.143113
O97	O	0.126270	-0.531061	1.037628
N98	N	0.010887	-0.612923	1.224985
C99	C	0.034899	-0.475056	0.440551
C100	C	0.148298	-0.588365	0.440456
C101	C	0.080746	-0.656109	0.575876
C102	C	-0.032653	-0.542801	0.575971
C103	C	0.633086	-0.633292	0.598298
C104	C	0.632998	-0.632993	0.484834
C105	C	0.632857	-0.497559	0.417433
C106	C	0.632949	-0.497860	0.530895
C107	C	0.148191	0.009634	0.440259
C108	C	0.034733	0.009493	0.440634
C109	C	-0.032641	0.009502	0.576027
C110	C	0.080854	0.009529	0.575690
C111	C	-0.009699	-0.475150	1.083148
C112	C	-0.009388	-0.588620	1.083088
C113	C	0.126001	-0.656082	1.083116
C114	C	0.125697	-0.542605	1.083155
H115	H	0.022003	-0.474373	0.936811
H116	H	0.633132	-0.666701	0.639790
H117	H	0.632941	-0.464583	0.539193
H118	H	0.088995	-0.697649	0.609197
O119	O	0.197780	-0.598039	0.400583
C120	C	0.253955	-0.561986	0.308298
C121	C	0.197888	-0.550961	0.353402
H122	H	0.254065	-0.523928	0.270146
H123	H	0.261955	-0.597779	0.297974
H124	H	0.287369	-0.572405	0.323401
H125	H	0.164439	-0.540519	0.338336
H126	H	0.189935	-0.515184	0.363719
O127	O	0.165459	-0.532759	1.083088
C128	C	0.256600	-0.527607	1.035904
C129	C	0.211622	-0.538784	1.035919
H130	H	0.293929	-0.532462	0.997765
H131	H	0.268622	-0.557930	1.073980
H132	H	0.240527	-0.484110	1.035941
H133	H	0.227656	-0.582266	1.035862
H134	H	0.199606	-0.508427	0.997846
H135	H	0.189596	0.009891	0.406765
O136	O	-0.082128	-0.533087	0.615844
C137	C	-0.131052	-0.528135	0.707078
C138	C	-0.074986	-0.539161	0.661974
H139	H	-0.125298	-0.533031	0.744382
H140	H	-0.150753	-0.558510	0.719096
H141	H	-0.158620	-0.484657	0.691129
H142	H	-0.047375	-0.582623	0.677885
H143	H	-0.055329	-0.508752	0.649963
H144	H	-0.042644	-0.596897	1.083039
O145	O	0.165787	-0.705634	1.083129
C146	C	0.191253	-0.795809	1.083061
C147	C	0.146144	-0.739722	1.083061
H148	H	0.175393	-0.823381	1.082994
H149	H	0.203195	-0.815516	1.121177
H150	H	0.228587	-0.790037	1.044968
H151	H	0.108781	-0.745446	1.121128
H152	H	0.134249	-0.720034	1.044919
H153	H	0.633014	-0.666272	0.476534
O154	O	0.090726	0.009461	0.615444
C155	C	0.095929	-0.037727	0.706586
C156	C	0.084725	-0.037711	0.661615
H157	H	0.091094	-0.075867	0.743922
H158	H	0.065610	0.000351	0.718602
H159	H	0.139422	-0.037694	0.690507
H160	H	0.041248	-0.037763	0.677656
H161	H	0.115079	-0.075786	0.649605
H162	H	-0.043102	-0.433644	1.083156
H163	H	-0.074131	0.009496	0.609437
H164	H	0.026418	0.009490	0.407371
O165	O	0.050656	-0.434539	0.828428
C166	C	-0.044207	-0.390119	0.834531
C167	C	-0.003176	-0.426359	0.865996
H168	H	-0.087739	-0.383484	0.864891
H169	H	-0.037664	-0.411104	0.807712
H170	H	-0.037590	-0.348904	0.807688
H171	H	-0.009768	-0.467580	0.892869
H172	H	-0.009729	-0.405330	0.892780
O173	O	0.197772	-0.564459	0.941142
C174	C	0.292634	-0.608828	0.935044
C175	C	0.251605	-0.572561	0.903575
H176	H	0.336167	-0.615380	0.904685
H177	H	0.286091	-0.650080	0.961852
H178	H	0.286015	-0.587839	0.961897
H179	H	0.258200	-0.593501	0.876693
H180	H	0.258159	-0.531310	0.876801
H181	H	0.632798	-0.464146	0.375944
H182	H	0.056452	-0.439666	0.634048
O183	O	0.235275	-0.526823	0.828218
C184	C	0.311128	-0.570881	0.763457
C185	C	0.249152	-0.555634	0.795008
H186	H	0.322366	-0.594167	0.736591
H187	H	0.334520	-0.597746	0.793743
H188	H	0.322376	-0.531978	0.736651
H189	H	0.237854	-0.594506	0.821815
H190	H	0.225795	-0.528748	0.764692
H191	H	0.191560	-0.559196	0.514439
O192	O	0.012927	-0.472086	0.601487
C193	C	-0.062993	-0.428009	0.568603
C194	C	-0.001006	-0.443257	0.553374
H195	H	-0.074275	-0.404708	0.529712
H196	H	-0.086347	-0.401158	0.595422
H197	H	-0.074241	-0.466912	0.591953
H198	H	0.010293	-0.404384	0.530004
H199	H	0.022314	-0.470129	0.526580
O200	O	0.235100	-0.526675	0.546800
C201	C	0.320888	-0.522238	0.474103
C202	C	0.258897	-0.507032	0.489398
H203	H	0.340145	-0.506354	0.427695
H204	H	0.340270	-0.568646	0.489859
H205	H	0.328136	-0.502938	0.493442
H206	H	0.251600	-0.526295	0.470064
H207	H	0.239547	-0.460620	0.473652
O208	O	0.378198	-0.572004	0.627732
C209	C	0.360702	-0.639408	0.622635
C210	C	0.392195	-0.598899	0.592703
H211	H	0.372016	-0.661172	0.594331
H212	H	0.314809	-0.616184	0.634896
H213	H	0.371995	-0.670886	0.660857
H214	H	0.380948	-0.567412	0.554462
H215	H	0.438081	-0.622160	0.580483
O216	O	0.491073	-0.426803	0.520327
C217	C	0.508538	-0.347337	0.443093
C218	C	0.477030	-0.387843	0.473100
H219	H	0.497186	-0.315822	0.404911
H220	H	0.554429	-0.370563	0.430773
H221	H	0.497296	-0.325618	0.471408
H222	H	0.488226	-0.409574	0.444815
H223	H	0.431146	-0.364588	0.485428
O224	O	0.378091	-0.389174	0.558041
C225	C	0.313324	-0.307759	0.517966
C226	C	0.344861	-0.369275	0.526928
H227	H	0.286442	-0.291655	0.492820
H228	H	0.343617	-0.284696	0.495182
H229	H	0.286537	-0.301392	0.559302
H230	H	0.371650	-0.375693	0.485616
H231	H	0.314539	-0.392307	0.549738
H232	H	0.183721	-0.240813	0.506671
O233	O	0.151256	-0.132414	0.463176
C234	C	0.199602	-0.138440	0.372350
C235	C	0.184390	-0.169950	0.434340
H236	H	0.226383	-0.168774	0.349018
H237	H	0.222960	-0.111614	0.361027
H238	H	0.160685	-0.111598	0.361115
H239	H	0.223279	-0.196822	0.445619
H240	H	0.161011	-0.196741	0.445630
H241	H	0.486634	-0.600858	0.588843
H242	H	0.064226	-0.136878	0.641864
H243	H	-0.033030	-0.529506	0.229442
O244	O	0.096720	-0.245276	0.685359
C245	C	0.048308	-0.239245	0.776183
C246	C	0.063506	-0.207738	0.714193
H247	H	0.021443	-0.208909	0.799513
H248	H	0.087194	-0.266060	0.787479
H249	H	0.025005	-0.266098	0.787448
H250	H	0.086795	-0.180856	0.702884
H251	H	0.024600	-0.180957	0.702930
H252	H	-0.067855	-0.564093	0.333408
H253	H	0.016979	-0.733950	0.333522
O254	O	0.056990	-0.705291	0.225137
C255	C	0.101297	-0.800162	0.231255
C256	C	0.065019	-0.759126	0.262712
H257	H	0.107790	-0.843697	0.261621
H258	H	0.142571	-0.793661	0.204511
H259	H	0.080354	-0.793502	0.204339
H260	H	0.085913	-0.765762	0.289658
H261	H	0.023747	-0.765638	0.289422
O262	O	-0.073176	-0.558214	0.377061
C263	C	-0.157446	-0.483964	0.369572
C264	C	-0.121256	-0.524974	0.405882
H265	H	-0.196321	-0.457071	0.392855
H266	H	-0.168749	-0.507240	0.358251
H267	H	-0.134036	-0.457193	0.330707
H268	H	-0.144633	-0.551755	0.444770
H269	H	-0.109951	-0.501665	0.417159
O270	O	-0.035431	-0.520637	0.414687
C271	C	-0.030917	-0.434850	0.342000
C272	C	-0.015786	-0.496830	0.357287
H273	H	-0.015050	-0.415581	0.295591
H274	H	-0.011622	-0.427599	0.361342
H275	H	-0.077321	-0.415477	0.357754
H276	H	0.030610	-0.516244	0.341536
H277	H	-0.035120	-0.504042	0.337952
O278	O	0.056553	-0.705246	0.507168
C279	C	0.140852	-0.779453	0.514639
C280	C	0.104677	-0.738425	0.478315
H281	H	0.179773	-0.806281	0.491322
H282	H	0.117499	-0.806285	0.553492
H283	H	0.152080	-0.756135	0.525983
H284	H	0.093440	-0.761698	0.466929
H285	H	0.128051	-0.711594	0.439488
O286	O	0.018888	-0.742801	0.469505
C287	C	0.014364	-0.828615	0.542138
C288	C	-0.000820	-0.766633	0.526897
H289	H	-0.001574	-0.847901	0.588539
H290	H	0.060768	-0.848018	0.526436
H291	H	-0.004897	-0.835806	0.522714
H292	H	0.018404	-0.759393	0.546316
H293	H	-0.047229	-0.747262	0.542589
H294	H	0.058518	-0.740243	0.392731
H295	H	0.093086	-0.844219	0.427442
H296	H	-0.075156	-0.844016	0.491279
H297	H	-0.109727	-0.740044	0.456586
O298	O	-0.112447	-0.696485	0.515393
C299	C	-0.118664	-0.740876	0.610291
C300	C	-0.150065	-0.704619	0.569202
H301	H	-0.149064	-0.747473	0.653804
H302	H	-0.091844	-0.719927	0.603792
H303	H	-0.091830	-0.782107	0.603689
H304	H	-0.176928	-0.663382	0.575779
H305	H	-0.176850	-0.725611	0.575711
H306	H	-0.220518	-0.571693	0.374008
O307	O	-0.225367	-0.658623	0.552770
C308	C	-0.290187	-0.625628	0.628595
C309	C	-0.258571	-0.610471	0.566631
H310	H	-0.317049	-0.586707	0.639819
H311	H	-0.259946	-0.652462	0.652037
H312	H	-0.317002	-0.648943	0.639797
H313	H	-0.231755	-0.587138	0.555378
H314	H	-0.288841	-0.583664	0.543223
O315	O	-0.112050	-0.604371	0.330686
C316	C	-0.094398	-0.608737	0.244800
C317	C	-0.126014	-0.623888	0.306764
H318	H	-0.105685	-0.624499	0.225439
H319	H	-0.048523	-0.628121	0.237603
H320	H	-0.105608	-0.562333	0.225478
H321	H	-0.114850	-0.670283	0.326127
H322	H	-0.171881	-0.604464	0.313923
O323	O	0.024965	-0.425479	0.400848
C324	C	-0.039989	-0.335341	0.375676
C325	C	-0.028815	-0.391466	0.420683
H326	H	-0.083465	-0.307821	0.391699
H327	H	-0.035122	-0.341003	0.338332
H328	H	-0.009630	-0.315635	0.363686
H329	H	-0.059164	-0.411202	0.432719
H330	H	-0.033662	-0.385768	0.457997
