data_functionalizedCrystal
_audit_creation_method	'MofGen! by Chris Wilmer'
_symmetry_space_group_name_H-M	'P1'
_symmetry_Int_Tables_number	1
_symmetry_cell_setting	triclinic
loop_
_symmetry_equiv_pos_as_xyz
  x,y,z
_cell_length_a	8.559649
_cell_length_b	8.559649
_cell_length_c	7.088929
_cell_angle_alpha	84.655815
_cell_angle_beta	95.325015
_cell_angle_gamma	69.778664
loop_
_atom_site_label
_atom_site_type_symbol
_atom_site_fract_x
_atom_site_fract_y
_atom_site_fract_z
O1	O	2.108185	-0.036318	-0.158958
O2	O	1.632699	0.047464	-0.158965
O3	O	1.912333	-0.232170	-0.158959
O4	O	1.828551	0.243315	-0.158964
O5	O	1.949712	-0.269616	0.159017
O6	O	1.670079	0.010018	0.159011
O7	O	2.145564	-0.073764	0.159018
Cu8	Cu	1.911235	-0.035292	0.188048
Cu9	Cu	1.867029	0.008992	-0.187995
O10	O	1.865931	0.205870	0.159012
C11	C	1.591080	0.035090	0.000022
C12	C	1.411380	0.053990	0.000019
C13	C	1.937372	-0.311201	0.000026
C14	C	1.956269	-0.490899	0.000015
C15	C	2.187183	-0.061390	0.000027
C16	C	2.366881	-0.080288	0.000017
C17	C	1.840892	0.284902	0.000023
C18	C	1.821992	0.464601	0.000021
N19	N	1.942338	-0.066441	0.452537
N20	N	1.835940	0.040127	-0.452484
H21	H	1.692573	-0.436021	0.000025
C22	C	1.688843	0.187530	0.439004
C23	C	1.595734	0.280838	0.569308
C24	C	1.460228	0.416653	0.469404
H25	H	1.619083	0.146869	0.360920
H26	H	1.729851	0.257050	0.360946
H27	H	1.554725	0.211330	0.647332
H28	H	1.665445	0.321540	0.647396
H29	H	1.501236	0.486172	0.391347
H30	H	1.390482	0.375976	0.391324
H31	H	1.397047	0.479987	0.557800
C32	C	1.278897	0.226663	-0.000383
C33	C	1.277984	0.332252	-0.163998
C34	C	1.155949	0.491320	-0.164447
H35	H	1.303984	0.272658	0.110373
H36	H	1.171631	0.216946	-0.000492
H37	H	1.385226	0.341974	-0.163871
H38	H	1.252877	0.286311	-0.274780
H39	H	1.048683	0.481602	-0.164556
H40	H	1.181048	0.537298	-0.053684
H41	H	1.155303	0.562976	-0.275465
H42	H	1.466259	-0.209706	0.000009
H43	H	2.085699	-0.590290	0.000033
H44	H	2.052625	-0.176874	0.534195
