data_functionalizedCrystal
_audit_creation_method	'MofGen! by Chris Wilmer'
_symmetry_space_group_name_H-M	'P1'
_symmetry_Int_Tables_number	1
_symmetry_cell_setting	triclinic
loop_
_symmetry_equiv_pos_as_xyz
  x,y,z
_cell_length_a	17.019282
_cell_length_b	10.540539
_cell_length_c	9.016244
_cell_angle_alpha	89.999933
_cell_angle_beta	93.873887
_cell_angle_gamma	83.955777
loop_
_atom_site_label
_atom_site_type_symbol
_atom_site_fract_x
_atom_site_fract_y
_atom_site_fract_z
O1	O	1.047591	0.161627	0.010518
O2	O	0.818043	0.182266	-0.018814
O3	O	0.938054	-0.012846	-0.003477
O4	O	0.927580	0.356739	-0.004819
O5	O	0.938036	-0.012842	0.243202
O6	O	0.818025	0.182271	0.227865
O7	O	1.047573	0.161631	0.257196
Cu8	Cu	0.932798	0.171952	0.265054
Cu9	Cu	0.932819	0.171946	-0.026672
O10	O	0.927562	0.356744	0.241860
C11	C	0.937260	-0.060134	0.119759
C12	C	0.934910	-0.201043	0.119451
C13	C	0.788641	0.181489	0.100770
C14	C	0.701057	0.179151	0.089578
C15	C	0.844860	-0.382986	0.107391
C16	C	0.847242	-0.236407	0.108251
C17	C	0.977089	-0.263394	0.265708
C18	C	0.974097	-0.409889	0.265444
C19	C	0.975900	-0.410442	-0.014848
C20	C	0.976708	-0.263473	-0.016607
C21	C	0.659906	0.178052	0.218788
C22	C	0.577614	0.175835	0.208277
C23	C	0.536474	0.174726	0.068554
C24	C	0.577631	0.175821	-0.060666
C25	C	0.659923	0.178029	-0.050153
C26	C	0.288008	0.168050	0.030085
C27	C	0.205710	0.165846	0.019582
C28	C	0.205698	0.165857	0.288526
C29	C	0.287991	0.168073	0.299026
C30	C	0.329142	0.169161	0.169806
C31	C	0.452358	0.172463	0.057806
C32	C	0.413257	0.171415	0.180556
C33	C	1.076976	0.162409	0.137610
C34	C	1.164559	0.164747	0.148792
C35	C	0.928357	0.404032	0.118620
C36	C	0.930707	0.544941	0.118919
N37	N	0.932789	0.171955	0.470239
N38	N	0.932834	0.171933	-0.231856
C39	C	0.868394	0.275984	0.697043
C40	C	0.868536	0.276367	0.525170
C41	C	1.015261	0.200729	0.543116
C42	C	1.014909	0.201464	0.715016
C43	C	0.915530	0.038801	0.702579
C44	C	0.913638	0.039696	0.530383
H45	H	0.814053	-0.193258	0.003031
H46	H	0.321482	0.168970	0.412803
N47	N	0.882168	0.399237	0.752951
N48	N	0.895008	0.485587	0.665542
H49	H	0.904738	0.572636	0.705027
N50	N	0.163663	0.164760	0.420512
N51	N	0.110972	0.252964	0.443789
H52	H	0.081284	0.252189	0.537011
N53	N	0.934974	-0.444652	0.392530
N54	N	0.970555	-0.520194	0.487508
H55	H	0.942923	-0.544742	0.577264
N56	N	1.053184	-0.471382	0.283623
N57	N	1.073430	-0.543620	0.392573
H58	H	1.129284	-0.587047	0.405423
N59	N	0.163676	0.164718	-0.123141
N60	N	0.110988	0.252921	-0.159878
H61	H	0.081300	0.252128	-0.260671
N62	N	0.841663	0.004044	0.747562
N63	N	0.817900	-0.099260	0.705916
H64	H	0.765728	-0.123796	0.737683
N65	N	0.330023	0.169161	-0.101920
N66	N	0.293279	0.168175	-0.226660
H67	H	0.322954	0.168960	-0.319896
H68	H	0.544130	0.174909	-0.174431
H69	H	0.693427	0.178927	-0.155370
N70	N	1.056892	-0.234426	-0.017083
N71	N	1.078844	-0.175759	-0.124775
H72	H	1.135478	-0.155248	-0.125108
H73	H	0.446757	0.172311	0.294317
H74	H	1.041469	-0.242101	0.279172
H75	H	1.039222	-0.458712	-0.007704
N76	N	0.410332	0.171315	-0.084913
N77	N	0.371188	0.080645	-0.119907
H78	H	0.341505	0.079828	-0.220702
N79	N	1.076881	0.108173	0.499677
N80	N	1.060662	0.019762	0.414316
H81	H	1.104180	-0.045609	0.383635
N82	N	0.791556	0.255509	0.462479
N83	N	0.737351	0.240549	0.545656
H84	H	0.682940	0.226056	0.501384
N85	N	0.938042	-0.211442	-0.152259
N86	N	0.934671	-0.094387	-0.177920
H87	H	0.907361	-0.057622	-0.273717
N88	N	0.837521	0.012304	0.469572
N89	N	0.777243	0.085942	0.493260
H90	H	0.723484	0.066602	0.450305
N91	N	0.801433	-0.418146	-0.024898
N92	N	0.833241	-0.496739	-0.112226
H93	H	0.802572	-0.521576	-0.205663
H94	H	1.064398	0.128658	0.762922
H95	H	0.957463	-0.041347	0.493008
H96	H	0.693395	0.178965	0.332566
H97	H	0.947774	-0.220309	0.366790
N98	N	0.801588	-0.420174	0.227878
N99	N	0.833699	-0.499527	0.322200
H100	H	0.803141	-0.525796	0.407297
N101	N	0.805296	-0.183340	0.229784
N102	N	0.774173	-0.254574	0.314240
H103	H	0.744548	-0.217098	0.400081
N104	N	0.535591	0.174702	0.340277
N105	N	0.572332	0.175696	0.465020
H106	H	0.542655	0.174893	0.558253
H107	H	0.947534	-0.441529	-0.125240
H108	H	0.806923	0.259144	0.730581
H109	H	0.879659	0.375168	0.485443
N110	N	1.033880	0.323272	0.767712
N111	N	0.990804	0.422139	0.726745
H112	H	1.004200	0.508172	0.763951
N113	N	1.034663	0.321153	0.491594
N114	N	1.045637	0.408367	0.582171
H115	H	1.059335	0.493423	0.545789
N116	N	0.974464	-0.058329	0.761141
N117	N	0.983491	-0.078260	0.898202
H118	H	1.025114	-0.146849	0.939572
