data_functionalizedCrystal
_audit_creation_method	'MofGen! by Chris Wilmer'
_symmetry_space_group_name_H-M	'P1'
_symmetry_Int_Tables_number	1
_symmetry_cell_setting	triclinic
loop_
_symmetry_equiv_pos_as_xyz
  x,y,z
_cell_length_a	16.994747
_cell_length_b	12.759401
_cell_length_c	12.759393
_cell_angle_alpha	90.020938
_cell_angle_beta	89.989525
_cell_angle_gamma	89.987417
loop_
_atom_site_label
_atom_site_type_symbol
_atom_site_fract_x
_atom_site_fract_y
_atom_site_fract_z
Zn1	Zn	0.313958	1.606293	0.594166
Zn2	Zn	0.445882	1.606195	0.418548
Zn3	Zn	0.314000	1.430592	0.418501
Zn4	Zn	0.445827	1.430595	0.594185
O5	O	0.379917	1.518419	0.506350
O6	O	0.331463	1.753301	0.570882
O7	O	0.428428	1.582859	0.271521
O8	O	0.203613	1.453938	0.441777
O9	O	0.428388	1.753229	0.441856
O10	O	0.203582	1.583025	0.570837
O11	O	0.331535	1.453844	0.271486
O12	O	0.331481	1.283571	0.441795
O13	O	0.428294	1.453944	0.741204
O14	O	0.428334	1.283573	0.570869
O15	O	0.331410	1.583028	0.741190
O16	O	0.556256	1.582862	0.441874
O17	O	0.556216	1.453849	0.570914
C18	C	0.379907	1.245451	0.506329
C19	C	0.379922	1.128675	0.506345
C20	C	0.430430	1.073841	0.573448
C21	C	0.430433	0.964117	0.573469
C22	C	0.329418	0.964070	0.439275
C23	C	0.329411	1.073792	0.439260
C24	C	0.584857	1.518358	0.506397
C25	C	0.674179	1.518365	0.506394
C26	C	0.174177	1.518485	0.506297
C27	C	0.084855	1.518517	0.506274
Zn28	Zn	0.945086	1.430622	0.418472
Zn29	Zn	0.945023	1.606340	0.594120
Zn30	Zn	0.813219	1.430631	0.594167
Zn31	Zn	0.813137	1.606214	0.418513
O32	O	0.879116	1.518452	0.506318
O33	O	1.055459	1.453980	0.441735
O34	O	0.927546	1.583088	0.741147
O35	O	0.830773	1.283608	0.570863
O36	O	1.055412	1.583079	0.570783
O37	O	0.927655	1.283602	0.441781
O38	O	0.830711	1.453995	0.741182
O39	O	0.702827	1.453873	0.570904
O40	O	0.830633	1.582866	0.271487
O41	O	0.702767	1.582874	0.441852
O42	O	0.927575	1.453858	0.271456
O43	O	0.927467	1.753344	0.570823
O44	O	0.830571	1.753252	0.441806
C45	C	0.379841	1.518497	0.780384
C46	C	0.379809	1.518531	0.897160
C47	C	0.379927	1.792452	0.506372
C48	C	0.379931	1.909229	0.506381
C49	C	0.379935	1.518401	0.233383
C50	C	0.379745	1.518571	0.116607
C51	C	0.329353	1.585750	0.952017
C52	C	0.329319	1.585768	1.061741
C53	C	0.430203	1.451344	1.061742
C54	C	0.430232	1.451322	0.952020
C55	C	0.879005	1.791419	0.506317
C56	C	0.878981	1.908196	0.506346
C57	C	0.879102	1.518347	0.232285
C58	C	0.879096	1.518302	0.115508
C59	C	0.879230	1.244418	0.506323
C60	C	0.879278	1.127642	0.506325
C61	C	0.879176	1.518481	0.779286
C62	C	0.879333	1.518232	0.896062
C63	C	0.929454	1.963071	0.573478
C64	C	0.929429	2.072795	0.573500
C65	C	0.828451	2.072759	0.439256
C66	C	0.828481	1.963037	0.439229
C67	C	0.929565	1.451120	0.060628
C68	C	0.929553	1.451079	-0.049096
C69	C	0.828601	1.585412	-0.049051
C70	C	0.828610	1.585447	0.060671
H71	H	0.288293	1.640473	0.907353
H72	H	0.970673	1.396445	0.105273
C73	C	0.475278	1.242059	0.633010
C74	C	0.485945	1.134171	0.647194
H75	H	0.509554	1.279300	0.678537
H76	H	0.422299	1.260053	0.648482
H77	H	0.486761	1.259993	0.562394
H78	H	0.474456	1.116236	0.717809
H79	H	0.538936	1.116170	0.631730
H80	H	0.970648	1.396369	-0.093774
C81	C	0.783774	1.645021	-0.217229
C82	C	0.773119	1.659229	-0.109332
H83	H	0.749526	1.690602	-0.254439
H84	H	0.772253	1.574430	-0.235208
H85	H	0.836769	1.660412	-0.235214
H86	H	0.720126	1.643831	-0.091345
H87	H	0.784635	1.729836	-0.091345
C88	C	0.318317	1.197126	0.297944
C89	C	0.273890	1.134076	0.365494
H90	H	0.284039	1.234347	0.252414
H91	H	0.352640	1.154296	0.257698
H92	H	0.348392	1.245509	0.337912
H93	H	0.243819	1.085688	0.325527
H94	H	0.239553	1.176910	0.405745
C95	C	0.318335	0.840610	0.297990
C96	C	0.273902	0.903737	0.365532
H97	H	0.284060	0.803370	0.252460
H98	H	0.348411	0.792254	0.337956
H99	H	0.352658	0.883399	0.257734
H100	H	0.239583	0.860947	0.405794
H101	H	0.243813	0.952098	0.325562
H102	H	0.288232	1.640503	1.106400
C103	C	0.817486	1.839656	0.297867
C104	C	0.773006	1.902724	0.365408
H105	H	0.783243	1.802430	0.252283
H106	H	0.847552	1.791287	0.337830
H107	H	0.851821	1.882483	0.257668
H108	H	0.738675	1.859895	0.405612
H109	H	0.742926	1.951098	0.325440
C110	C	0.695020	1.636578	0.094500
C111	C	0.773128	1.659302	0.120998
H112	H	0.660770	1.682174	0.131739
H113	H	0.683516	1.565996	0.112487
H114	H	0.687803	1.646171	0.021304
H115	H	0.780347	1.649701	0.194194
H116	H	0.784636	1.729901	0.103019
C117	C	0.530288	0.975193	0.706100
C118	C	0.485957	0.903845	0.647227
H119	H	0.564570	0.937981	0.751632
H120	H	0.495957	1.018015	0.746344
H121	H	0.560413	1.017960	0.660248
H122	H	0.455828	0.861083	0.693079
H123	H	0.520292	0.861005	0.606979
H124	H	0.471258	1.396627	1.106423
C125	C	0.529961	1.318456	0.963034
C126	C	0.485701	1.377433	0.891714
H127	H	0.564205	1.272847	0.925801
H128	H	0.495582	1.278289	1.005812
H129	H	0.560123	1.364238	1.005847
H130	H	0.455534	1.331650	0.848906
H131	H	0.520084	1.417602	0.848917
H132	H	0.970575	1.918422	0.628129
C133	C	1.029235	2.061802	0.706201
C134	C	0.984907	2.133113	0.647298
H135	H	1.063482	2.099042	0.751766
H136	H	1.059388	2.019007	0.660377
H137	H	0.994893	2.019004	0.746421
H138	H	1.019249	2.175906	0.607072
H139	H	0.954751	2.175926	0.693128
C140	C	0.783562	2.240941	0.379697
C141	C	0.772935	2.133045	0.365494
H142	H	0.749282	2.278154	0.334164
H143	H	0.836538	2.258927	0.364247
H144	H	0.772059	2.258915	0.450312
H145	H	0.784443	2.115069	0.294880
H146	H	0.719947	2.115051	0.380937
