data_functionalizedCrystal
_audit_creation_method	'MofGen! by Chris Wilmer'
_symmetry_space_group_name_H-M	'P1'
_symmetry_Int_Tables_number	1
_symmetry_cell_setting	triclinic
loop_
_symmetry_equiv_pos_as_xyz
  x,y,z
_cell_length_a	13.897449
_cell_length_b	18.101395
_cell_length_c	13.897441
_cell_angle_alpha	89.969302
_cell_angle_beta	89.979267
_cell_angle_gamma	90.032384
loop_
_atom_site_label
_atom_site_type_symbol
_atom_site_fract_x
_atom_site_fract_y
_atom_site_fract_z
Zn1	Zn	1.474613	-0.294781	-0.545380
Zn2	Zn	1.474469	-0.418636	-0.384082
Zn3	Zn	1.313302	-0.294816	-0.384099
Zn4	Zn	1.313246	-0.418588	-0.545334
O5	O	1.393907	-0.356705	-0.464724
O6	O	1.609575	-0.311216	-0.523996
O7	O	1.453053	-0.402246	-0.249102
O8	O	1.334784	-0.191178	-0.405520
O9	O	1.609470	-0.402212	-0.405490
O10	O	1.453298	-0.191152	-0.524013
O11	O	1.334644	-0.311276	-0.249115
O12	O	1.178313	-0.311229	-0.405475
O13	O	1.334688	-0.402129	-0.680322
O14	O	1.178272	-0.402164	-0.523934
O15	O	1.453244	-0.311169	-0.680356
O16	O	1.452999	-0.522263	-0.405445
O17	O	1.334549	-0.522227	-0.523917
C18	C	1.143293	-0.356695	-0.464702
C19	C	1.036079	-0.356709	-0.464715
C20	C	1.393778	-0.549116	-0.464695
C21	C	1.393811	-0.631430	-0.464716
C22	C	0.839784	-0.356712	-0.464741
C23	C	0.949016	-0.356708	-0.464724
C24	C	1.394023	-0.930521	-0.464767
C25	C	1.319670	-0.899204	-0.539492
C26	C	1.319317	-0.813586	-0.539258
C27	C	1.393918	-0.782138	-0.464743
C28	C	1.366392	-0.813295	-0.363084
C29	C	1.365913	-0.898940	-0.363531
C30	C	1.496064	-0.898862	-0.490807
C31	C	1.495464	-0.813210	-0.493037
C32	C	1.393860	-0.698279	-0.464722
C33	C	1.394078	-1.014380	-0.464781
C34	C	1.645500	-0.356716	-0.464746
C35	C	1.752714	-0.356720	-0.464756
C36	C	1.393976	-0.356640	-0.716317
C37	C	1.394005	-0.356612	-0.823531
C38	C	1.394063	-0.163543	-0.464773
C39	C	1.394130	-0.081229	-0.464795
C40	C	1.394031	-0.356562	-1.019826
C41	C	1.394014	-0.356592	-0.910594
C42	C	1.393895	-0.356717	-0.214109
C43	C	1.394052	-0.356536	-0.106896
H44	H	1.336539	-0.792518	-0.614637
H45	H	1.291321	-0.918985	-0.341472
O46	O	1.229021	-0.789308	-0.518788
C47	C	1.164438	-0.815556	-0.589140
H48	H	1.195686	-0.866969	-0.624688
H49	H	1.152578	-0.770976	-0.645880
C50	C	1.029322	-0.771849	-0.497663
C51	C	1.067697	-0.835000	-0.541318
H52	H	0.969646	-0.783841	-0.468167
H53	H	1.072832	-0.754163	-0.450267
H54	H	1.019447	-0.734706	-0.544954
H55	H	1.077583	-0.872139	-0.494026
H56	H	1.024186	-0.852693	-0.588706
H57	H	1.553792	-0.791799	-0.442578
O58	O	1.562042	-0.923118	-0.425831
C59	C	1.516271	-0.968448	-0.357119
H60	H	1.447111	-0.991870	-0.388971
H61	H	1.498421	-0.934392	-0.290486
C62	C	1.668754	-1.003563	-0.289920
C63	C	1.583814	-1.032335	-0.329045
H64	H	1.710418	-1.042969	-0.272599
H65	H	1.699591	-0.973021	-0.336210
H66	H	1.653866	-0.975183	-0.234398
H67	H	1.598702	-1.060706	-0.384573
H68	H	1.552981	-1.062883	-0.282763
H69	H	1.292590	-0.791912	-0.340630
O70	O	1.340109	-0.923809	-0.629644
C71	C	1.422001	-0.969689	-0.626517
H72	H	1.430809	-0.992995	-0.550812
H73	H	1.488540	-0.936129	-0.646422
C74	C	1.398854	-1.005033	-0.791459
C75	C	1.409668	-1.033663	-0.698479
H76	H	1.391250	-1.044493	-0.835851
H77	H	1.343684	-0.974120	-0.793567
H78	H	1.454306	-0.977066	-0.808033
H79	H	1.354211	-1.061621	-0.681901
H80	H	1.464829	-1.064582	-0.696369
O81	O	1.427592	-0.923641	-0.294726
C82	C	1.397798	-0.897462	-0.203953
H83	H	1.317736	-0.883912	-0.206306
H84	H	1.440187	-0.845550	-0.184924
C85	C	1.514477	-0.973936	-0.124431
C86	C	1.416142	-0.957299	-0.127319
H87	H	1.525796	-1.010844	-0.077158
H88	H	1.534553	-0.991571	-0.185587
H89	H	1.549789	-0.930671	-0.108578
H90	H	1.380833	-1.000561	-0.143184
H91	H	1.396060	-0.939672	-0.066164
O92	O	1.230039	-0.924992	-0.519017
C93	C	1.234237	-0.971257	-0.437478
H94	H	1.300649	-0.956917	-0.393122
H95	H	1.238529	-1.031374	-0.461507
C96	C	1.061741	-0.977572	-0.430349
C97	C	1.143306	-0.959954	-0.375865
H98	H	1.005650	-0.970603	-0.392344
H99	H	1.058912	-0.946404	-0.485285
H100	H	1.065332	-1.027668	-0.450370
H101	H	1.139720	-0.909856	-0.355856
H102	H	1.146132	-0.991113	-0.320924
O103	O	1.429020	-0.788903	-0.294959
C104	C	1.498878	-0.743216	-0.338332
H105	H	1.469135	-0.719788	-0.408422
H106	H	1.566285	-0.776975	-0.354106
C107	C	1.560838	-0.708127	-0.183634
C108	C	1.524304	-0.679348	-0.269716
H109	H	1.576527	-0.668733	-0.141308
H110	H	1.513777	-0.738910	-0.154412
H111	H	1.617007	-0.736260	-0.196793
H112	H	1.468131	-0.651225	-0.256558
H113	H	1.571357	-0.648560	-0.298934
O114	O	1.526171	-0.924515	-0.577701
C115	C	1.617731	-0.895097	-0.598856
H116	H	1.654970	-0.878312	-0.529132
H117	H	1.609418	-0.844605	-0.647204
C118	C	1.632937	-0.974460	-0.736474
C119	C	1.678677	-0.953849	-0.650837
H120	H	1.670530	-1.010698	-0.768542
H121	H	1.571249	-0.994277	-0.722224
H122	H	1.626011	-0.932377	-0.776752
H123	H	1.685591	-0.995929	-0.610555
H124	H	1.740367	-0.934040	-0.665081
O125	O	1.520110	-0.788817	-0.582279
C126	C	1.445869	-0.743883	-0.619037
H127	H	1.401607	-0.720701	-0.556938
H128	H	1.397456	-0.778198	-0.667885
C129	C	1.544325	-0.708234	-0.753358
C130	C	1.489967	-0.679756	-0.677087
H131	H	1.571525	-0.668679	-0.789171
H132	H	1.594342	-0.738509	-0.728597
H133	H	1.503972	-0.736830	-0.794055
H134	H	1.530323	-0.651169	-0.636386
H135	H	1.439958	-0.649475	-0.701844
