data_functionalizedCrystal
_audit_creation_method	'MofGen! by Chris Wilmer'
_symmetry_space_group_name_H-M	'P1'
_symmetry_Int_Tables_number	1
_symmetry_cell_setting	triclinic
loop_
_symmetry_equiv_pos_as_xyz
  x,y,z
_cell_length_a	16.625547
_cell_length_b	14.908783
_cell_length_c	14.908308
_cell_angle_alpha	90.211273
_cell_angle_beta	93.278524
_cell_angle_gamma	86.707299
loop_
_atom_site_label
_atom_site_type_symbol
_atom_site_fract_x
_atom_site_fract_y
_atom_site_fract_z
Zn1	Zn	0.282013	1.345417	0.587896
Zn2	Zn	0.782013	1.845417	1.087896
Zn3	Zn	0.408662	1.354044	0.437566
Zn4	Zn	0.908662	1.854044	0.937566
Zn5	Zn	0.281141	1.203730	0.428867
Zn6	Zn	0.781141	1.703730	0.928867
Zn7	Zn	0.424102	1.195075	0.579192
Zn8	Zn	0.924102	1.695075	1.079192
O9	O	0.348979	1.274566	0.508380
O10	O	0.848979	1.774566	1.008380
O11	O	0.292717	1.472387	0.575238
O12	O	0.792717	1.972387	1.075238
O13	O	0.384920	1.341337	0.310588
O14	O	0.884920	1.841337	0.810588
O15	O	0.168423	1.222537	0.449965
O16	O	0.668423	1.722537	0.949965
O17	O	0.385766	1.478725	0.464791
O18	O	0.885766	1.978725	0.964791
O19	O	0.169065	1.326634	0.566803
O20	O	0.669065	1.826634	1.066803
O21	O	0.291230	1.230902	0.304196
O22	O	0.791230	1.730902	0.804196
O23	O	0.306201	1.076756	0.441525
O24	O	0.806201	1.576756	0.941525
O25	O	0.412080	1.207785	0.706171
O26	O	0.912080	1.707785	1.206171
O27	O	0.411234	1.070397	0.551967
O28	O	0.911234	1.570397	1.051967
O29	O	0.307688	1.318241	0.712566
O30	O	0.807688	1.818241	1.212566
O31	O	0.523543	1.332944	0.456351
O32	O	1.023543	1.832944	0.956351
O33	O	0.534887	1.216150	0.560402
O34	O	1.034887	1.716150	1.060402
C35	C	0.360299	1.040952	0.494858
C36	C	0.860299	1.540952	0.994858
C37	C	0.365162	0.941009	0.489094
C38	C	0.865162	1.441009	0.989094
C39	C	0.277560	0.746594	0.593448
C40	C	0.777560	1.246594	1.093448
C41	C	0.282126	0.652689	0.588036
C42	C	0.782126	1.152689	1.088036
C43	C	0.378857	0.659292	0.472853
C44	C	0.878857	1.159292	0.972853
C45	C	0.374291	0.753197	0.478266
C46	C	0.874291	1.253197	0.978266
C47	C	0.323641	0.796845	0.538566
C48	C	0.823641	1.296845	1.038566
C49	C	0.319079	0.890752	0.543982
C50	C	0.819079	1.390752	1.043982
C51	C	0.415805	0.897353	0.428796
C52	C	0.915805	1.397353	0.928796
C53	C	0.420372	0.803448	0.423384
C54	C	0.920372	1.303448	0.923384
C55	C	0.138670	1.274589	0.508385
C56	C	0.638670	1.774589	1.008385
C57	C	0.049048	1.274598	0.508387
C58	C	0.549048	1.774598	1.008387
C59	C	-0.279127	1.274642	0.508437
C60	C	0.220873	1.774642	1.008437
C61	C	-0.187819	1.274633	0.508426
C62	C	0.312181	1.774633	1.008426
C63	C	-0.115042	1.274621	0.508411
C64	C	0.384958	1.774621	1.008411
C65	C	-0.023728	1.274610	0.508401
C66	C	0.476272	1.774610	1.008401
C67	C	0.558471	1.274567	0.508397
C68	C	1.058471	1.774567	1.008397
C69	C	0.648090	1.274648	0.508439
C70	C	1.148090	1.774648	1.008439
C71	C	0.361704	1.261086	0.742906
C72	C	0.861704	1.761086	1.242906
C73	C	0.367126	1.255341	0.842847
C74	C	0.867126	1.755341	1.342847
C75	C	0.337616	1.509093	0.521956
C76	C	0.837616	2.009093	1.021956
C77	C	0.332774	1.609035	0.527741
C78	C	0.832774	2.109035	1.027741
C79	C	0.336244	1.288046	0.274770
C80	C	0.836244	1.788046	0.774770
C81	C	0.330586	1.293965	0.174840
C82	C	0.830586	1.793965	0.674840
C83	C	0.268593	1.359561	1.037307
C84	C	0.768593	1.859561	1.537307
C85	C	0.273685	1.354166	1.131211
C86	C	0.773685	1.854166	1.631211
C87	C	0.382397	1.239153	1.124559
C88	C	0.882397	1.739153	1.624559
C89	C	0.377305	1.244547	1.030655
C90	C	0.877305	1.744547	1.530655
C91	C	0.320402	1.304755	0.987033
C92	C	0.820402	1.804755	1.487033
C93	C	0.315315	1.310153	0.893128
C94	C	0.815315	1.810153	1.393128
C95	C	0.424023	1.195136	0.886478
C96	C	0.924023	1.695136	1.386478
C97	C	0.429115	1.189741	0.980381
C98	C	0.929115	1.689741	1.480381
H99	H	0.420084	0.623738	0.423750
H100	H	0.920084	1.123738	0.923750
H101	H	0.461607	0.767897	0.374286
H102	H	0.961607	1.267897	0.874286
C103	C	0.263361	0.938763	0.610311
C104	C	0.763361	1.438763	1.110311
N105	N	0.221390	0.974922	0.660268
N106	N	0.721390	1.474922	1.160268
C107	C	0.252718	1.376379	0.845145
C108	C	0.752718	1.876379	1.345145
N109	N	0.205566	1.426259	0.809006
N110	N	0.705566	1.926259	1.309006
H111	H	0.453335	0.938276	0.384114
H112	H	0.953335	1.438276	0.884114
H113	H	0.475442	1.140720	1.015911
H114	H	0.975442	1.640720	1.515911
C115	C	0.206004	1.425793	0.989321
C116	C	0.706004	1.925793	1.489321
N117	N	0.158860	1.475679	0.953179
N118	N	0.658860	1.975679	1.453179
H119	H	0.236322	0.782133	0.642551
H120	H	0.736322	1.282133	1.142551
C121	C	0.216693	1.414460	1.186509
C122	C	0.716693	1.914460	1.686509
N123	N	0.173764	1.459877	1.228161
N124	N	0.673764	1.959877	1.728161
H125	H	0.244600	0.611779	0.632724
H126	H	0.744600	1.111779	1.132724
H127	H	0.428725	1.190134	1.160092
H128	H	0.928725	1.690134	1.660092
C129	C	0.481017	1.134845	0.831168
C130	C	0.981017	1.634845	1.331168
N131	N	0.523945	1.089437	0.789508
N132	N	1.023945	1.589437	1.289508
