data_functionalizedCrystal
_audit_creation_method	'MofGen! by Chris Wilmer'
_symmetry_space_group_name_H-M	'P1'
_symmetry_Int_Tables_number	1
_symmetry_cell_setting	triclinic
loop_
_symmetry_equiv_pos_as_xyz
  x,y,z
_cell_length_a	16.109301
_cell_length_b	15.072220
_cell_length_c	16.109298
_cell_angle_alpha	89.995736
_cell_angle_beta	83.460834
_cell_angle_gamma	90.009777
loop_
_atom_site_label
_atom_site_type_symbol
_atom_site_fract_x
_atom_site_fract_y
_atom_site_fract_z
O1	O	1.103141	0.073716	0.106862
O2	O	0.861079	0.073728	0.120161
O3	O	0.988761	0.073728	-0.007520
O4	O	0.975459	0.073716	0.234543
O5	O	0.988729	-0.073837	-0.007513
O6	O	0.861047	-0.073837	0.120168
O7	O	1.103109	-0.073849	0.106869
Zn8	Zn	0.982073	-0.097272	0.113520
Zn9	Zn	0.982115	0.097151	0.113510
O10	O	0.975427	-0.073849	0.234550
C11	C	0.830088	-0.000052	0.119626
C12	C	0.737793	-0.000047	0.118011
N13	N	0.982051	-0.229961	0.113526
C14	C	0.515520	-0.000061	0.190019
C15	C	0.428799	-0.000066	0.188495
C16	C	0.448675	-0.000055	0.037006
C17	C	0.535394	-0.000056	0.038531
C18	C	0.568814	-0.000054	0.115039
C19	C	0.395375	-0.000059	0.111990
C20	C	0.301349	-0.000065	0.110337
C21	C	0.662846	-0.000050	0.116693
C22	C	0.982113	-0.589163	0.113507
C23	C	0.913564	-0.551555	0.181598
C24	C	0.913721	-0.448730	0.181846
C25	C	0.982082	-0.410958	0.113516
C26	C	1.068826	-0.448256	0.132440
C27	C	1.068442	-0.551114	0.132924
C28	C	0.964692	-0.551257	0.026291
C29	C	0.962701	-0.448394	0.026873
C30	C	0.982069	-0.310245	0.113520
C31	C	0.982131	-0.689876	0.113505
C32	C	1.134100	-0.000067	0.107404
C33	C	1.226395	-0.000066	0.109019
C34	C	0.988207	-0.000051	-0.038491
C35	C	0.986593	-0.000040	-0.130787
N36	N	0.982144	0.229840	0.113498
C37	C	0.981343	0.080379	-0.429859
C38	C	0.982870	0.080385	-0.343139
C39	C	0.982848	-0.080498	-0.343117
C40	C	0.981326	-0.080504	-0.429836
C41	C	0.980569	-0.000062	-0.473205
C42	C	0.983619	-0.000051	-0.299766
C43	C	0.985276	-0.000045	-0.205740
C44	C	0.978914	-0.000068	-0.567236
C45	C	0.975981	-0.000068	0.265521
C46	C	0.977595	-0.000073	0.357817
H47	H	0.542727	-0.000066	0.252317
O48	O	0.371315	-0.000071	0.269364
H49	H	0.409126	-0.000064	0.322818
H50	H	0.983501	0.145889	-0.307852
H51	H	0.924532	-0.577398	0.245955
O52	O	0.980532	0.167137	-0.476638
H53	H	0.923200	0.170981	-0.508710
H54	H	0.983463	-0.145991	-0.307796
O55	O	0.980489	-0.167269	-0.476597
H56	H	0.981258	-0.223204	-0.431871
O57	O	0.412627	-0.000056	-0.045511
H58	H	0.434052	0.060087	-0.081544
H59	H	0.578789	-0.000053	-0.022530
O60	O	0.828309	-0.415317	0.166934
H61	H	0.786518	-0.472627	0.159482
O62	O	0.827873	-0.584358	0.166934
H63	H	0.833222	-0.627821	0.110961
O64	O	0.928452	-0.416117	0.267575
H65	H	0.989646	-0.441029	0.283135
O66	O	1.088784	-0.582895	0.217173
H67	H	1.041139	-0.557452	0.266638
O68	O	1.138039	-0.584076	0.069739
H69	H	1.171826	-0.526547	0.038977
O70	O	1.138016	-0.415850	0.068501
H71	H	1.111247	-0.372710	0.022449
O72	O	1.030887	-0.583533	-0.040819
H73	H	1.000945	-0.622215	-0.087934
O74	O	1.089657	-0.414145	0.215737
H75	H	1.038368	-0.370639	0.243785
O76	O	0.878178	-0.416107	0.007846
H77	H	0.864945	-0.442854	-0.053481
O78	O	0.882713	-0.585642	0.002182
H79	H	0.831193	-0.565034	0.049945
O80	O	1.024557	-0.414357	-0.043385
H81	H	1.021412	-0.340835	-0.045407
