data_functionalizedCrystal
_audit_creation_method	'MofGen! by Chris Wilmer'
_symmetry_space_group_name_H-M	'P1'
_symmetry_Int_Tables_number	1
_symmetry_cell_setting	triclinic
loop_
_symmetry_equiv_pos_as_xyz
  x,y,z
_cell_length_a	16.109302
_cell_length_b	15.944493
_cell_length_c	14.586319
_cell_angle_alpha	90.002083
_cell_angle_beta	89.994552
_cell_angle_gamma	83.468412
loop_
_atom_site_label
_atom_site_type_symbol
_atom_site_fract_x
_atom_site_fract_y
_atom_site_fract_z
O1	O	1.103143	0.107972	-0.076269
O2	O	1.436476	0.441306	0.257064
O3	O	1.769810	0.774639	0.590397
O4	O	0.861083	0.121408	-0.076261
O5	O	1.194416	0.454741	0.257073
O6	O	1.527750	0.788075	0.590406
O7	O	0.988748	-0.007590	-0.076273
O8	O	1.322082	0.325743	0.257060
O9	O	1.655415	0.659076	0.590394
O10	O	0.975478	0.236970	-0.076257
O11	O	1.308811	0.570304	0.257076
O12	O	1.642144	0.903637	0.590409
O13	O	0.988739	-0.007592	0.076208
O14	O	1.322073	0.325741	0.409541
O15	O	1.655406	0.659075	0.742875
O16	O	0.861074	0.121406	0.076220
O17	O	1.194407	0.454740	0.409553
O18	O	1.527741	0.788073	0.742887
O19	O	1.103134	0.107970	0.076211
O20	O	1.436468	0.441304	0.409545
O21	O	1.769801	0.774637	0.742878
Cu22	Cu	0.982103	0.114688	0.090138
Cu23	Cu	1.315437	0.448021	0.423472
Cu24	Cu	1.648770	0.781355	0.756805
Cu25	Cu	0.982114	0.114690	-0.090188
Cu26	Cu	1.315447	0.448024	0.243146
Cu27	Cu	1.648780	0.781357	0.576479
O28	O	0.975469	0.236969	0.076224
O29	O	1.308802	0.570302	0.409557
O30	O	1.642136	0.903635	0.742890
C31	C	0.830103	0.120863	-0.000019
C32	C	1.163437	0.454196	0.333314
C33	C	1.496770	0.787530	0.666647
C34	C	0.737808	0.119231	-0.000017
C35	C	1.071141	0.452564	0.333317
C36	C	1.404475	0.785897	0.666650
C37	C	0.525462	0.115456	0.083091
C38	C	0.858795	0.448789	0.416425
C39	C	1.192128	0.782123	0.749758
C40	C	0.438742	0.113914	0.083088
C41	C	0.772075	0.447247	0.416421
C42	C	1.105408	0.780580	0.749755
C43	C	0.438762	0.113920	-0.083155
C44	C	0.772095	0.447253	0.250178
C45	C	1.105428	0.780587	0.583512
C46	C	0.525481	0.115456	-0.083151
C47	C	0.858814	0.448790	0.250183
C48	C	1.192148	0.782123	0.583516
C49	C	0.568828	0.116229	-0.000025
C50	C	0.902162	0.449562	0.333308
C51	C	1.235495	0.782895	0.666642
C52	C	0.395389	0.113150	-0.000032
C53	C	0.728722	0.446483	0.333301
C54	C	1.062055	0.779816	0.666634
C55	C	0.301363	0.111477	-0.000037
C56	C	0.634696	0.444811	0.333297
C57	C	0.968029	0.778144	0.666630
C58	C	0.662861	0.117900	-0.000020
C59	C	0.996194	0.451233	0.333313
C60	C	1.329527	0.784566	0.666646
C61	C	0.988201	-0.038886	-0.000036
C62	C	1.321535	0.294448	0.333297
C63	C	1.654868	0.627781	0.666630
C64	C	0.986575	-0.132134	-0.000048
C65	C	1.319909	0.201200	0.333285
C66	C	1.653242	0.534533	0.666619
C67	C	1.061722	-0.367918	-0.000033
C68	C	1.395055	-0.034585	0.333300
C69	C	1.728389	0.298748	0.666633
C70	C	1.021203	-0.418472	-0.075212
C71	C	1.354536	-0.085139	0.258121
C72	C	1.687869	0.248195	0.591454
C73	C	0.983562	-0.302854	-0.000037
C74	C	1.316896	0.030479	0.333297
C75	C	1.650229	0.363813	0.666630
C76	C	1.021176	-0.418450	0.075122
C77	C	1.354509	-0.085117	0.408455
C78	C	1.687842	0.248217	0.741788
C79	C	0.980658	-0.467763	-0.000022
C80	C	1.313991	-0.134429	0.333312
C81	C	1.647324	0.198904	0.666645
C82	C	0.943064	-0.352179	-0.075278
C83	C	1.276397	-0.018846	0.258056
C84	C	1.609731	0.314487	0.591389
C85	C	0.943048	-0.352154	0.075124
C86	C	1.276382	-0.018821	0.408457
C87	C	1.609715	0.314513	0.741791
C88	C	0.902472	-0.402675	-0.000074
C89	C	1.235805	-0.069342	0.333260
C90	C	1.569138	0.263992	0.666593
C91	C	0.985238	-0.207855	-0.000046
C92	C	1.318571	0.125479	0.333287
C93	C	1.651904	0.458812	0.666621
C94	C	0.978976	-0.562759	-0.000019
C95	C	1.312309	-0.229426	0.333314
C96	C	1.645643	0.103908	0.666648
C97	C	1.134114	0.108516	-0.000032
C98	C	1.467447	0.441849	0.333301
C99	C	1.800780	0.775182	0.666635
C100	C	1.226409	0.110148	-0.000041
C101	C	1.559742	0.443481	0.333293
C102	C	1.893076	0.776814	0.666626
C103	C	0.976016	0.268264	-0.000015
C104	C	1.309349	0.601597	0.333318
C105	C	1.642682	0.934931	0.666652
C106	C	0.977642	0.361512	-0.000009
C107	C	1.310975	0.694846	0.333324
C108	C	1.644309	1.028179	0.666657
N109	N	0.982102	0.114686	0.216970
N110	N	1.315435	0.448019	0.550304
N111	N	1.648769	0.781353	0.883637
N112	N	0.982122	0.114686	-0.217019
N113	N	1.315455	0.448019	0.116314
N114	N	1.648788	0.781352	0.449647
C115	C	1.038651	0.057585	0.451971
C116	C	1.371984	0.390918	0.785305
C117	C	1.705318	0.724251	1.118638
C118	C	1.038653	0.057583	0.547952
C119	C	1.371987	0.390916	0.881286
C120	C	1.705320	0.724249	1.214619
C121	C	0.925567	0.171790	0.547973
C122	C	1.258900	0.505123	0.881306
C123	C	1.592233	0.838456	1.214639
C124	C	0.925561	0.171787	0.451993
C125	C	1.258894	0.505121	0.785327
C126	C	1.592228	0.838454	1.118660
C127	C	0.982108	0.114686	0.403995
C128	C	1.315441	0.448019	0.737328
C129	C	1.648774	0.781352	1.070662
C130	C	0.982116	0.114686	0.595956
C131	C	1.315449	0.448020	0.929289
C132	C	1.648783	0.781353	1.262622
C133	C	0.982118	0.114684	0.700023
C134	C	1.315451	0.448018	1.033356
C135	C	1.648785	0.781351	1.366690
C136	C	0.982105	0.114686	0.299921
C137	C	1.315438	0.448019	0.633255
C138	C	1.648771	0.781353	0.966588
H139	H	0.403458	0.113292	-0.150833
H140	H	0.736791	0.446625	0.182500
H141	H	1.070124	0.779959	0.515834
H142	H	0.560791	0.116083	-0.150838
H143	H	0.894125	0.449417	0.182495
H144	H	1.227458	0.782750	0.515829
H145	H	0.560753	0.116085	0.150778
H146	H	0.894086	0.449418	0.484111
H147	H	1.227419	0.782752	0.817444
Br148	Br	0.790173	-0.428419	-0.000132
Br149	Br	1.123507	-0.095086	0.333201
Br150	Br	1.456840	0.238247	0.666535
H151	H	1.054196	-0.447393	0.138676
H152	H	1.387530	-0.114059	0.472009
H153	H	1.720863	0.219274	0.805342
H154	H	0.910065	-0.323183	0.138688
H155	H	1.243398	0.010150	0.472021
H156	H	1.576732	0.343483	0.805354
Br157	Br	0.848812	0.249280	0.386875
Br158	Br	1.182146	0.582613	0.720208
Br159	Br	1.515479	0.915947	1.053542
Br160	Br	1.173932	-0.341904	-0.000157
Br161	Br	1.507266	-0.008570	0.333177
Br162	Br	1.840599	0.324763	0.666510
Br163	Br	0.888087	-0.304132	-0.181328
Br164	Br	1.221420	0.029201	0.152005
Br165	Br	1.554754	0.362534	0.485338
Br166	Br	0.848829	0.249284	0.613116
Br167	Br	1.182162	0.582617	0.946450
Br168	Br	1.515496	0.915950	1.279783
Br169	Br	1.076221	-0.466736	-0.181153
Br170	Br	1.409554	-0.133402	0.152181
Br171	Br	1.742888	0.199931	0.485514
Br172	Br	1.115389	-0.019918	0.613062
Br173	Br	1.448723	0.313415	0.946395
Br174	Br	1.782056	0.646748	1.279728
Br175	Br	0.379890	0.112864	0.195894
Br176	Br	0.713223	0.446197	0.529227
Br177	Br	1.046557	0.779530	0.862560
Br178	Br	1.115391	-0.019912	0.386834
Br179	Br	1.448724	0.313422	0.720167
Br180	Br	1.782058	0.646755	1.053501
