data_functionalizedCrystal
_audit_creation_method	'MofGen! by Chris Wilmer'
_symmetry_space_group_name_H-M	'P1'
_symmetry_Int_Tables_number	1
_symmetry_cell_setting	triclinic
loop_
_symmetry_equiv_pos_as_xyz
  x,y,z
_cell_length_a	19.188930
_cell_length_b	13.339070
_cell_length_c	11.804499
_cell_angle_alpha	80.554863
_cell_angle_beta	103.339260
_cell_angle_gamma	80.612963
loop_
_atom_site_label
_atom_site_type_symbol
_atom_site_fract_x
_atom_site_fract_y
_atom_site_fract_z
O1	O	0.365845	-1.358906	0.099127
O2	O	0.319939	-1.064580	0.099113
O3	O	0.242896	-1.220232	0.099097
O4	O	0.442888	-1.203253	0.099143
O5	O	0.210683	-1.183912	-0.098964
O6	O	0.287726	-1.028260	-0.098948
O7	O	0.333632	-1.322586	-0.098934
Cu8	Cu	0.307737	-1.172107	-0.117025
Cu9	Cu	0.345833	-1.215059	0.117204
O10	O	0.410675	-1.166934	-0.098918
C11	C	0.296078	-1.008764	0.000080
C12	C	0.272964	-0.896564	0.000074
C13	C	0.200670	-1.201522	0.000063
C14	C	0.122840	-1.199868	0.000053
N15	N	0.280944	-1.141904	-0.281770
C16	C	0.095802	-1.291202	0.000051
C17	C	0.022678	-1.289654	0.000070
C18	C	-0.023410	-1.196763	0.000067
C19	C	0.003636	-1.105419	0.000075
C20	C	0.076762	-1.106972	0.000068
N21	N	-0.156283	-1.113399	-0.067340
N22	N	-0.225749	-1.111929	-0.067336
C23	C	-0.243733	-1.192080	0.000091
N24	N	-0.189628	-1.273767	0.067498
N25	N	-0.120156	-1.275239	0.067489
C26	C	-0.102703	-1.195069	0.000075
C27	C	-0.350060	-1.281741	0.000112
C28	C	-0.423185	-1.280191	0.000138
C29	C	-0.442227	-1.095951	0.000131
C30	C	-0.369101	-1.097506	0.000116
C31	C	-0.323023	-1.190403	0.000101
C32	C	0.452901	-1.185645	0.000118
C33	C	0.530732	-1.187299	0.000136
C34	C	0.357493	-1.378402	0.000101
C35	C	0.380608	-1.490604	0.000115
C36	C	0.452687	-0.530987	0.000134
C37	C	0.474407	-0.636405	0.000144
C38	C	0.424048	-0.701450	0.000126
C39	C	0.351966	-0.661066	0.000099
C40	C	0.330246	-0.555639	0.000098
C41	C	0.301606	-0.726102	0.000090
C42	C	0.229525	-0.685718	0.000064
C43	C	0.207808	-0.580301	0.000062
C44	C	0.258167	-0.515256	0.000080
C45	C	0.323327	-0.831529	0.000091
C46	C	0.200885	-0.856181	0.000056
C47	C	0.179166	-0.750763	0.000046
C48	C	0.436976	-1.317806	-0.655696
C49	C	0.457254	-1.340649	-0.531031
C50	C	0.413178	-1.290965	-0.468710
C51	C	0.348821	-1.218433	-0.531065
C52	C	0.328544	-1.195582	-0.655742
C53	C	0.304746	-1.168741	-0.468756
C54	C	0.240388	-1.096209	-0.531112
C55	C	0.220114	-1.073362	-0.655776
C56	C	0.264190	-1.123046	-0.718098
C57	C	0.325023	-1.191592	-0.344079
C58	C	0.216590	-1.069368	-0.344126
C59	C	0.196312	-1.046525	-0.468790
N60	N	0.372623	-1.245270	0.281949
H61	H	0.133316	-1.366846	0.000043
O62	O	-0.339940	-0.998989	0.000104
H63	H	-0.281347	-1.015675	0.000109
H64	H	-0.445196	-1.354570	0.000144
H65	H	0.509654	-1.399705	-0.480270
H66	H	0.098774	-1.032594	0.000069
O67	O	-0.006496	-1.388168	0.000057
H68	H	-0.052497	-1.377043	-0.080667
O69	O	0.401064	-0.875072	0.000097
H70	H	0.439382	-0.863724	0.080823
H71	H	-0.033893	-1.029787	0.000075
H72	H	0.143911	-0.987467	-0.519578
H73	H	0.120477	-0.717869	0.000034
H74	H	0.159879	-0.909142	0.000046
O75	O	0.169040	-1.015810	-0.276904
H76	H	0.201170	-0.971761	-0.220081
O77	O	-0.300355	-1.381939	0.000119
H78	H	-0.279728	-1.372260	-0.080617
H79	H	-0.479751	-1.020319	0.000134
H80	H	0.472858	-1.358246	-0.706449
H81	H	0.377424	-1.250647	-0.293321
O82	O	0.435096	-1.315495	-0.334249
H83	H	0.487268	-1.374245	-0.301359
O84	O	0.242316	-1.098410	-0.852563
H85	H	0.239051	-1.014456	-0.885454
O86	O	0.447465	-0.815149	0.000117
H87	H	0.506045	-0.832301	0.000124
O88	O	0.552141	-0.679959	0.000146
H89	H	0.583507	-0.617019	0.000139
H90	H	0.149116	-0.547427	0.000054
H91	H	0.493683	-0.478021	0.000158
O92	O	0.150685	-0.995154	-0.723011
H93	H	0.154048	-0.918683	-0.699092
O94	O	0.234736	-0.401550	0.000064
H95	H	0.281864	-0.363111	0.000079
