data_functionalizedCrystal
_audit_creation_method	'MofGen! by Chris Wilmer'
_symmetry_space_group_name_H-M	'P1'
_symmetry_Int_Tables_number	1
_symmetry_cell_setting	triclinic
loop_
_symmetry_equiv_pos_as_xyz
  x,y,z
_cell_length_a	15.995350
_cell_length_b	13.339070
_cell_length_c	11.804365
_cell_angle_alpha	74.887832
_cell_angle_beta	101.844755
_cell_angle_gamma	99.560835
loop_
_atom_site_label
_atom_site_type_symbol
_atom_site_fract_x
_atom_site_fract_y
_atom_site_fract_z
O1	O	-1.153436	-0.109993	-0.098919
O2	O	-0.913404	-0.126090	-0.098942
O3	O	-1.005872	0.029222	-0.098930
O4	O	-1.060968	-0.265305	-0.098931
O5	O	-0.981519	-0.011624	0.099123
O6	O	-0.889052	-0.166936	0.099110
O7	O	-1.129083	-0.150839	0.099134
Cu8	Cu	-1.006844	-0.162617	0.117206
Cu9	Cu	-1.035644	-0.114312	-0.117014
O10	O	-1.036616	-0.306151	0.099121
C11	C	-0.869879	-0.145847	0.000081
C12	C	-0.776466	-0.143849	0.000072
C13	C	-0.984389	0.046489	0.000094
C14	C	-0.956648	0.158792	0.000087
C15	C	-1.172609	-0.131082	0.000108
C16	C	-1.266023	-0.133078	0.000110
C17	C	-0.437050	-0.136687	0.000097
C18	C	-0.458733	-0.026166	0.000539
C19	C	-0.555943	-0.028068	0.000084
C20	C	-0.605438	-0.140240	0.000085
C21	C	-0.590932	-0.171473	-0.113008
C22	C	-0.493661	-0.168676	-0.113095
C23	C	-0.466160	-0.217412	0.112128
C24	C	-0.562916	-0.217692	0.113614
C25	C	-0.700605	-0.142253	0.000074
C26	C	-0.341885	-0.134676	0.000099
C27	C	-1.058099	-0.323417	0.000095
C28	C	-1.085841	-0.435719	0.000095
N29	N	-0.986593	-0.196592	0.281944
C30	C	-1.172349	0.523580	0.000109
C31	C	-1.198415	0.418065	0.000122
C32	C	-1.137975	0.353242	0.000113
C33	C	-1.051466	0.393944	0.000091
C34	C	-1.025397	0.499468	0.000086
C35	C	-0.991023	0.329129	0.000091
C36	C	-0.904514	0.369832	0.000068
C37	C	-0.878449	0.475346	0.000063
C38	C	-0.938888	0.540169	0.000072
C39	C	-1.017092	0.223605	0.000095
C40	C	-0.870140	0.199493	0.000073
C41	C	-0.844074	0.305009	0.000059
N42	N	-1.055899	-0.080328	-0.281752
C43	C	-1.104523	0.001277	0.655909
C44	C	-1.119840	0.026984	0.531249
C45	C	-1.086529	-0.028908	0.468917
C46	C	-1.037899	-0.110511	0.531256
C47	C	-1.022586	-0.136225	0.655928
C48	C	-1.004593	-0.166410	0.468936
C49	C	-0.955963	-0.248013	0.531275
C50	C	-0.940652	-0.273723	0.655935
C51	C	-0.973962	-0.217831	0.718267
C52	C	-1.019906	-0.140696	0.344264
C53	C	-0.937970	-0.278198	0.344283
C54	C	-0.922652	-0.303905	0.468943
H55	H	-0.564440	-0.001903	0.081155
Cl56	Cl	-0.879529	-0.376320	0.734306
H57	H	-0.426683	-0.198930	0.197850
Cl58	Cl	-0.906141	0.672853	-0.000086
Cl59	Cl	-0.954701	-0.250145	0.874989
Cl60	Cl	-1.081038	-0.038113	0.265910
H61	H	-0.883057	-0.370348	0.519715
Cl62	Cl	-0.428002	0.067472	-0.123980
Cl63	Cl	-0.769692	0.526508	0.000052
Cl64	Cl	-0.794153	0.118007	0.000069
Cl65	Cl	-0.896095	-0.348470	0.265930
Cl66	Cl	-0.735323	0.356190	0.000029
H67	H	-1.268850	0.384932	0.000142
H68	H	-1.099003	-0.007974	0.367413
H69	H	-1.159435	0.093423	0.480497
Cl70	Cl	-0.398875	0.016275	0.125757
Cl71	Cl	-1.146403	0.071525	0.734270
Cl72	Cl	-1.170746	0.220593	0.000124
H73	H	-0.476505	-0.111455	-0.197635
Cl74	Cl	-0.473970	-0.292419	-0.121021
Cl75	Cl	-0.598953	0.064202	-0.125514
H76	H	-0.624719	-0.253015	-0.117213
H77	H	-0.596445	-0.300900	0.120446
H78	H	-1.087528	0.190476	0.000114
Cl79	Cl	-0.574795	-0.182743	0.242789
Cl80	Cl	-0.637122	-0.086169	-0.242959
Cl81	Cl	-1.248316	0.605070	0.000142
H82	H	-0.453251	-0.299123	0.112893
