data_functionalizedCrystal
_audit_creation_method	'MofGen! by Chris Wilmer'
_symmetry_space_group_name_H-M	'P1'
_symmetry_Int_Tables_number	1
_symmetry_cell_setting	triclinic
loop_
_symmetry_equiv_pos_as_xyz
  x,y,z
_cell_length_a	23.532355
_cell_length_b	23.532407
_cell_length_c	12.376457
_cell_angle_alpha	101.199798
_cell_angle_beta	78.786949
_cell_angle_gamma	82.838088
loop_
_atom_site_label
_atom_site_type_symbol
_atom_site_fract_x
_atom_site_fract_y
_atom_site_fract_z
O1	O	0.766246	0.058031	-0.093859
O2	O	1.266246	0.558031	0.406141
O3	O	0.600382	0.068061	-0.093896
O4	O	1.100382	0.568061	0.406104
O5	O	0.688313	-0.019884	-0.093856
O6	O	1.188313	0.480116	0.406144
O7	O	0.678315	0.145976	-0.093899
O8	O	1.178315	0.645976	0.406101
O9	O	0.666338	0.002072	0.094146
O10	O	1.166338	0.502072	0.594146
O11	O	0.578408	0.090017	0.094106
O12	O	1.078408	0.590017	0.594106
O13	O	0.744271	0.079988	0.094143
O14	O	1.244271	0.579988	0.594143
Zn15	Zn	0.657850	0.088489	0.123974
Zn16	Zn	1.157850	0.588489	0.623974
Zn17	Zn	0.686803	0.059560	-0.123727
Zn18	Zn	1.186803	0.559560	0.376273
O19	O	0.656340	0.167933	0.094103
O20	O	1.156340	0.667933	0.594103
C21	C	0.568179	0.078788	0.000100
C22	C	1.068179	0.578788	0.500100
C23	C	0.504962	0.078032	0.000087
C24	C	1.004962	0.578032	0.500087
C25	C	0.100964	0.085268	0.102615
C26	C	0.600964	0.585268	0.602615
C27	C	0.041564	0.084551	0.102620
C28	C	0.541564	0.584551	0.602620
O29	O	0.000658	0.094339	0.189774
O30	O	0.500658	0.594339	0.689774
N31	N	0.023834	0.072227	0.000141
N32	N	0.523834	0.572227	0.500141
C33	C	0.065508	0.060613	-0.102350
C34	C	0.565508	0.560613	0.397650
O35	O	0.044973	0.050064	-0.189516
O36	O	0.544973	0.550064	0.310484
C37	C	0.124908	0.061326	-0.102354
C38	C	0.624908	0.561326	0.397646
C39	C	0.142633	0.073657	0.000133
C40	C	0.642633	0.573657	0.500133
C41	C	0.118691	0.097597	0.205093
C42	C	0.618691	0.597597	0.705093
C43	C	0.178086	0.098315	0.205088
C44	C	0.678086	0.598315	0.705088
C45	C	0.219756	0.086704	0.102605
C46	C	0.719756	0.586704	0.602605
C47	C	0.202029	0.074375	0.000128
C48	C	0.702029	0.574375	0.500128
C49	C	0.166582	0.049709	-0.204843
C50	C	0.666582	0.549709	0.295157
C51	C	0.225984	0.050422	-0.204838
C52	C	0.725984	0.550422	0.295162
C53	C	0.243709	0.062753	-0.102351
C54	C	0.743709	0.562753	0.397649
C55	C	0.303094	0.063482	-0.102360
C56	C	0.803094	0.563482	0.397640
N57	N	0.320824	0.075806	0.000119
N58	N	0.820824	0.575806	0.500119
C59	C	0.279155	0.087417	0.102602
C60	C	0.779155	0.587417	0.602602
C61	C	-0.059235	0.059116	-0.102335
C62	C	0.440765	0.559116	0.397665
C63	C	-0.118633	0.058407	-0.102333
C64	C	0.381367	0.558407	0.397667
C65	C	-0.142574	0.082344	0.102637
C66	C	0.357426	0.582344	0.602637
C67	C	-0.083174	0.083057	0.102634
C68	C	0.416826	0.583057	0.602634
C69	C	-0.041505	0.071440	0.000144
C70	C	0.458495	0.571440	0.500144
C71	C	0.403891	0.088924	0.102584
C72	C	0.903891	0.588924	0.602584
C73	C	0.463293	0.089643	0.102570
C74	C	0.963293	0.589643	0.602570
C75	C	0.487228	0.065703	-0.102400
C76	C	0.987228	0.565703	0.397600
C77	C	0.427831	0.064987	-0.102387
C78	C	0.927831	0.564987	0.397613
C79	C	0.386163	0.076597	0.000114
C80	C	0.886163	0.576597	0.500114
O81	O	0.344032	0.053697	-0.189470
O82	O	0.844032	0.553697	0.310530
O83	O	0.299700	0.097957	0.189754
O84	O	0.799700	0.597957	0.689754
C85	C	0.677071	-0.030121	0.000148
C86	C	1.177071	0.469879	0.500148
C87	C	0.676304	-0.093337	0.000157
C88	C	1.176304	0.406663	0.500157
C89	C	0.723545	-0.492455	0.000106
C90	C	1.223545	0.007545	0.500106
C91	C	0.722834	-0.551856	0.000097
C92	C	1.222834	-0.051856	0.500097
O93	O	0.766625	-0.588613	0.000065
O94	O	1.266625	-0.088613	0.500065
N95	N	0.670558	-0.574474	0.000086
N96	N	1.170558	-0.074474	0.500086
C97	C	0.618990	-0.537688	0.000072
C98	C	1.118990	-0.037688	0.500072
O99	O	0.574460	-0.562381	0.000061
O100	O	1.074460	-0.062381	0.500061
C101	C	0.619702	-0.478289	0.000073
C102	C	1.119702	0.021711	0.500073
C103	C	0.671980	-0.455674	0.000095
C104	C	1.171980	0.044326	0.500095
C105	C	0.775819	-0.469839	0.000127
C106	C	1.275819	0.030161	0.500127
C107	C	0.776529	-0.410442	0.000138
C108	C	1.276529	0.089558	0.500138
C109	C	0.724964	-0.373661	0.000127
C110	C	1.224964	0.126339	0.500127
C111	C	0.672690	-0.396277	0.000106
C112	C	1.172690	0.103723	0.500106
C113	C	0.568135	-0.441506	0.000051
C114	C	1.068135	0.058494	0.500051
C115	C	0.568852	-0.382104	0.000051
C116	C	1.068852	0.117896	0.500051
C117	C	0.621130	-0.359488	0.000073
C118	C	1.121130	0.140512	0.500073
C119	C	0.621836	-0.300098	0.000106
C120	C	1.121836	0.199902	0.500106
N121	N	0.674112	-0.277480	0.000118
N122	N	1.174112	0.222520	0.500118
C123	C	0.725676	-0.314262	0.000128
C124	C	1.225676	0.185738	0.500128
C125	C	0.617499	-0.662431	0.000069
C126	C	1.117499	-0.162431	0.500069
C127	C	0.616785	-0.721828	0.000076
C128	C	1.116785	-0.221828	0.500076
C129	C	0.720630	-0.735992	0.000099
C130	C	1.220630	-0.235992	0.500099
C131	C	0.721342	-0.676593	0.000099
C132	C	1.221342	-0.176593	0.500099
C133	C	0.669775	-0.639813	0.000080
C134	C	1.169775	-0.139813	0.500080
C135	C	0.727163	-0.189522	0.000152
C136	C	1.227163	0.310478	0.500152
C137	C	0.727868	-0.130119	0.000167
C138	C	1.227868	0.369881	0.500167
C139	C	0.624025	-0.115961	0.000139
C140	C	1.124025	0.384039	0.500139
C141	C	0.623319	-0.175358	0.000129
C142	C	1.123319	0.324642	0.500129
C143	C	0.674893	-0.212139	0.000132
C144	C	1.174893	0.287861	0.500132
O145	O	0.578069	-0.263308	0.000134
O146	O	1.078069	0.236692	0.500134
O147	O	0.770201	-0.289562	0.000124
O148	O	1.270201	0.210438	0.500124
C149	C	0.776475	0.069260	0.000144
C150	C	1.276475	0.569260	0.500144
C151	C	0.839693	0.070015	0.000150
C152	C	1.339693	0.570015	0.500150
C153	C	0.667583	0.178170	0.000096
C154	C	1.167583	0.678170	0.500096
C155	C	0.668351	0.241385	0.000081
C156	C	1.168351	0.741385	0.500081
N157	N	0.638095	0.108231	0.293023
N158	N	1.138095	0.608231	0.793023
N159	N	0.706563	0.039813	-0.292776
N160	N	1.206563	0.539813	0.207224
C161	C	0.752421	-0.006027	0.648061
C162	C	1.252421	0.493973	1.148061
C163	C	0.766245	-0.019845	0.529728
C164	C	1.266245	0.480155	1.029728
C165	C	0.734208	0.012173	0.470546
C166	C	1.234208	0.512173	0.970546
C167	C	0.688346	0.058011	0.529709
C168	C	1.188346	0.558011	1.029709
C169	C	0.674524	0.071833	0.648054
C170	C	1.174524	0.571833	1.148054
C171	C	0.656312	0.090033	0.470538
C172	C	1.156312	0.590033	0.970538
C173	C	0.610450	0.135871	0.529702
C174	C	1.110450	0.635871	1.029702
C175	C	0.596630	0.149691	0.648035
C176	C	1.096630	0.649691	1.148035
C177	C	0.628666	0.117673	0.707217
C178	C	1.128666	0.617673	1.207217
C179	C	0.670134	0.076211	0.352193
C180	C	1.170134	0.576211	0.852193
C181	C	0.592237	0.154071	0.352186
C182	C	1.092237	0.654071	0.852186
C183	C	0.578413	0.167889	0.470520
C184	C	1.078413	0.667889	0.970520
H185	H	0.521165	0.056252	-0.185839
H186	H	1.021165	0.556252	0.314161
H187	H	0.477720	0.099687	0.186030
H188	H	0.977720	0.599687	0.686030
Br189	Br	0.142542	0.032972	-0.343941
Br190	Br	0.642542	0.532972	0.156059
H191	H	0.369970	0.098383	0.186050
H192	H	0.869970	0.598383	0.686050
Br193	Br	0.202133	0.115048	0.344184
Br194	Br	0.702133	0.615048	0.844184
Br195	Br	0.548760	0.197530	0.271877
Br196	Br	1.048760	0.697530	0.771877
Br197	Br	0.609900	0.136424	0.867820
Br198	Br	1.109900	0.636424	1.367820
H199	H	0.819100	-0.392035	0.000151
H200	H	1.319100	0.107965	0.500151
H201	H	0.559290	0.187019	0.696206
H202	H	1.059290	0.687019	1.196206
Br203	Br	0.516172	0.230096	0.550824
Br204	Br	1.016172	0.730096	1.050824
H205	H	0.084768	0.107052	0.288552
H206	H	0.584768	0.607052	0.788552
H207	H	0.259910	0.040962	-0.288299
H208	H	0.759910	0.540962	0.211701
Br209	Br	0.403772	0.048264	-0.241476
Br210	Br	0.903772	0.548264	0.258524
H211	H	0.580746	-0.193769	0.000142
H212	H	1.080746	0.306231	0.500142
Br213	Br	0.547507	-0.612520	0.000051
Br214	Br	1.047507	-0.112520	0.500051
H215	H	0.525566	-0.459909	0.000026
H216	H	1.025566	0.040091	0.500026
H217	H	0.526859	-0.352160	0.000033
H218	H	1.026859	0.147840	0.500033
H219	H	0.574213	-0.740234	0.000077
H220	H	1.074213	-0.240234	0.500077
H221	H	0.817812	-0.499782	0.000131
H222	H	1.317812	0.000218	0.500131
Br223	Br	-0.002688	0.043354	-0.241442
Br224	Br	0.497312	0.543354	0.258558
H225	H	0.582042	-0.086002	0.000134
H226	H	1.082042	0.413998	0.500134
Br227	Br	-0.059125	0.099792	0.241727
Br228	Br	0.440875	0.599792	0.741727
Br229	Br	-0.199136	0.098101	0.241723
Br230	Br	0.300864	0.598101	0.741723
Br231	Br	0.798822	-0.099430	0.000199
Br232	Br	1.298822	0.400570	0.500199
Br233	Br	0.797158	-0.239430	0.000154
Br234	Br	1.297158	0.260570	0.500154
H235	H	0.778504	-0.032089	0.696255
H236	H	1.278504	0.467911	1.196255
Br237	Br	0.732373	0.014005	0.271915
Br238	Br	1.232373	0.514005	0.771915
H239	H	-0.133060	0.048375	-0.185788
H240	H	0.366940	0.548375	0.314212
Br241	Br	0.828484	-0.082049	0.449436
Br242	Br	1.328484	0.417951	0.949436
H243	H	0.763912	-0.658184	0.000117
H244	H	1.263912	-0.158184	0.500117
H245	H	0.762617	-0.765951	0.000103
H246	H	1.262617	-0.265951	0.500103
H247	H	0.745466	0.000920	0.374193
H248	H	1.245466	0.500920	0.874193
