data_functionalizedCrystal
_audit_creation_method	'MofGen! by Chris Wilmer'
_symmetry_space_group_name_H-M	'P1'
_symmetry_Int_Tables_number	1
_symmetry_cell_setting	triclinic
loop_
_symmetry_equiv_pos_as_xyz
  x,y,z
_cell_length_a	13.032831
_cell_length_b	12.759400
_cell_length_c	13.033454
_cell_angle_alpha	97.215029
_cell_angle_beta	89.091650
_cell_angle_gamma	97.180361
loop_
_atom_site_label
_atom_site_type_symbol
_atom_site_fract_x
_atom_site_fract_y
_atom_site_fract_z
Zn1	Zn	1.498577	0.510089	-0.780885
Zn2	Zn	1.998577	1.010089	-0.280885
Zn3	Zn	1.520314	0.710550	-0.608898
Zn4	Zn	2.020314	1.210550	-0.108898
Zn5	Zn	1.348418	0.515689	-0.587115
Zn6	Zn	1.848418	1.015689	-0.087115
Zn7	Zn	1.326574	0.666525	-0.759031
Zn8	Zn	1.826574	1.166525	-0.259031
O9	O	1.423471	0.600713	-0.683982
O10	O	1.923471	1.100713	-0.183982
O11	O	1.645384	0.552761	-0.776333
O12	O	2.145384	1.052761	-0.276333
O13	O	1.515751	0.705470	-0.462084
O14	O	2.015751	1.205470	0.037916
O15	O	1.368382	0.367927	-0.612849
O16	O	1.868382	0.867927	-0.112849
O17	O	1.661354	0.700040	-0.649975
O18	O	2.161354	1.200040	-0.149975
O19	O	1.478703	0.363813	-0.755211
O20	O	1.978703	0.863813	-0.255211
O21	O	1.389460	0.562307	-0.446080
O22	O	1.889460	1.062307	0.053920
O23	O	1.201598	0.519617	-0.591658
O24	O	1.701598	1.019617	-0.091658
O25	O	1.331152	0.625005	-0.905854
O26	O	1.831152	1.125005	-0.405854
O27	O	1.185549	0.630435	-0.717964
O28	O	1.685549	1.130435	-0.217964
O29	O	1.457522	0.510072	-0.921910
O30	O	1.957522	1.010072	-0.421910
O31	O	1.494569	0.851729	-0.628784
O32	O	1.994569	1.351729	-0.128784
O33	O	1.352229	0.819384	-0.739086
O34	O	1.852229	1.319384	-0.239086
C35	C	1.423413	0.873677	-0.683953
C36	C	1.923413	1.373677	-0.183953
C37	C	1.423478	0.990457	-0.683987
C38	C	1.923478	1.490457	-0.183987
C39	C	1.156255	0.570857	-0.650076
C40	C	1.656255	1.070857	-0.150076
C41	C	1.041936	0.558106	-0.635596
C42	C	1.541936	1.058106	-0.135596
C43	C	1.389475	0.562002	-0.952244
C44	C	1.889475	1.062002	-0.452244
C45	C	1.374988	0.545506	-1.066561
C46	C	1.874988	1.045506	-0.566561
C47	C	0.983068	0.607368	-0.691540
C48	C	1.483068	1.107368	-0.191540
C49	C	0.864913	0.594191	-0.676575
C50	C	1.364913	1.094191	-0.176575
C51	C	1.691730	0.630687	-0.718021
C52	C	2.191730	1.130687	-0.218021
C53	C	1.806046	0.643460	-0.732527
C54	C	2.306046	1.143460	-0.232527
C55	C	1.423555	0.326684	-0.684038
C56	C	1.923555	0.826684	-0.184038
C57	C	1.423590	0.209908	-0.684061
C58	C	1.923590	0.709908	-0.184061
C59	C	1.497658	1.062124	-0.626635
C60	C	1.997658	1.562124	-0.126635
C61	C	1.497717	1.171851	-0.626674
C62	C	1.997717	1.671851	-0.126674
C63	C	1.349406	1.138232	-0.741420
C64	C	1.849406	1.638232	-0.241420
C65	C	1.349353	1.028508	-0.741386
C66	C	1.849353	1.528508	-0.241386
C67	C	1.583281	1.081535	-0.560383
C68	C	2.083281	1.581535	-0.060383
C69	C	1.583340	1.191261	-0.560423
C70	C	2.083340	1.691261	-0.060423
C71	C	1.431016	0.608986	-1.125445
C72	C	1.931016	1.108986	-0.625445
C73	C	1.416044	0.591938	-1.243598
C74	C	1.916044	1.091938	-0.743598
C75	C	1.457394	0.639204	-0.416772
C76	C	1.957394	1.139204	0.083228
C77	C	1.472080	0.655427	-0.302481
C78	C	1.972080	1.155427	0.197519
H79	H	1.020142	0.659294	-0.750518
H80	H	1.520142	1.159294	-0.250518
Br81	Br	0.803135	0.507619	-0.578280
Br82	Br	1.303135	1.007619	-0.078280
Br83	Br	1.276570	0.433874	-1.128317
Br84	Br	1.776570	0.933874	-0.628317
Br85	Br	1.317622	0.480302	-1.305350
Br86	Br	1.817622	0.980302	-0.805350
H87	H	1.660195	1.057490	-0.591873
H88	H	2.160195	1.557490	-0.091873
H89	H	1.490071	0.675951	-1.088387
H90	H	1.990071	1.175951	-0.588387
H91	H	1.289057	1.169227	-0.788154
H92	H	1.789057	1.669227	-0.288154
H93	H	0.843114	0.695387	-0.791512
H94	H	1.343114	1.195387	-0.291512
H95	H	1.564383	1.055300	-0.481072
H96	H	2.064383	1.555300	0.018928
H97	H	1.004861	0.506171	-0.576625
H98	H	1.504861	1.006171	-0.076625
Br99	Br	1.703401	1.255069	-0.624102
Br100	Br	2.203401	1.755069	-0.124102
Br101	Br	1.564741	1.256196	-0.423152
Br102	Br	2.064741	1.756196	0.076848
Br103	Br	1.248693	0.931246	-0.819247
Br104	Br	1.748693	1.431246	-0.319247
H105	H	1.531140	0.722397	-1.265429
H106	H	2.031140	1.222397	-0.765429
