data_functionalizedCrystal
_audit_creation_method	'MofGen! by Chris Wilmer'
_symmetry_space_group_name_H-M	'P1'
_symmetry_Int_Tables_number	1
_symmetry_cell_setting	triclinic
loop_
_symmetry_equiv_pos_as_xyz
  x,y,z
_cell_length_a	16.776229
_cell_length_b	10.654550
_cell_length_c	10.654550
_cell_angle_alpha	95.515069
_cell_angle_beta	90.006473
_cell_angle_gamma	89.996122
loop_
_atom_site_label
_atom_site_type_symbol
_atom_site_fract_x
_atom_site_fract_y
_atom_site_fract_z
O1	O	0.066228	-1.667846	0.176402
O2	O	0.066243	-1.302367	0.193208
O3	O	0.066230	-1.493509	0.002066
O4	O	0.066241	-1.476703	0.367544
O5	O	-0.066346	-1.493484	0.002054
O6	O	-0.066333	-1.302342	0.193196
O7	O	-0.066348	-1.667820	0.176390
Zn8	Zn	-0.087390	-1.485077	0.184791
Zn9	Zn	0.087285	-1.485111	0.184807
O10	O	-0.066335	-1.476678	0.367532
C11	C	-0.000043	-1.255556	0.191968
C12	C	-0.000038	-1.116113	0.188276
N13	N	-0.206601	-1.485063	0.184779
C14	C	-0.000057	-1.492263	-0.044738
C15	C	-0.000056	-1.488571	-0.184181
C16	C	-0.248324	-1.569727	0.100177
C17	C	-0.331776	-1.569734	0.100176
C18	C	-0.373504	-1.485082	0.184785
C19	C	-0.331776	-1.400409	0.269391
C20	C	-0.248325	-1.400396	0.269385
C21	C	-0.668323	-1.400454	0.269416
C22	C	-0.751779	-1.400475	0.269418
C23	C	-0.751774	-1.569792	0.100207
C24	C	-0.668323	-1.569779	0.100201
C25	C	-0.626602	-1.485102	0.184803
C26	C	-0.536114	-1.485094	0.184801
C27	C	-0.463991	-1.485095	0.184793
N28	N	0.206496	-1.485134	0.184809
C29	C	-0.000060	-1.714631	0.177630
C30	C	-0.000060	-1.854074	0.181322
C31	C	-0.000037	-1.036628	0.300818
C32	C	-0.000051	-0.905607	0.297341
C33	C	-0.000063	-0.933570	0.068772
C34	C	-0.000055	-1.064588	0.072250
C35	C	-0.000060	-1.601112	-0.263667
C36	C	-0.000050	-1.597636	-0.394688
C37	C	-0.000035	-1.369066	-0.366725
C38	C	-0.000040	-1.372544	-0.235706
C39	C	-0.000046	-1.477925	0.414336
C40	C	-0.000042	-1.481616	0.553779
H41	H	-0.365746	-1.638673	0.031286
O42	O	-0.000208	-1.713785	-0.213556
C43	C	-0.068863	-1.722617	-0.138597
H44	H	-0.116852	-1.656709	-0.170154
H45	H	-0.091912	-1.823731	-0.149486
H46	H	-0.053341	-1.694557	-0.035540
H47	H	-0.000082	-0.891602	-0.025693
O48	O	-0.627718	-1.318388	0.351667
C49	C	-0.579451	-1.386314	0.429794
H50	H	-0.566934	-1.484143	0.380674
H51	H	-0.520777	-1.334052	0.449194
H52	H	-0.611611	-1.395673	0.522687
O53	O	-0.207916	-1.652006	0.017866
C54	C	-0.262642	-1.726753	-0.056785
H55	H	-0.322133	-1.675258	-0.058676
H56	H	-0.238540	-1.745041	-0.156910
H57	H	-0.271503	-1.820401	-0.015138
H58	H	-0.000058	-1.129309	-0.019401
O59	O	-0.207705	-1.318329	0.351625
C60	C	-0.159432	-1.386247	0.429751
H61	H	-0.146925	-1.484085	0.380644
H62	H	-0.100752	-1.333990	0.449124
H63	H	-0.191581	-1.395585	0.522657
O64	O	-0.627666	-1.651776	0.017946
C65	C	-0.545064	-1.633486	0.035959
H66	H	-0.533619	-1.587676	0.135464
H67	H	-0.513272	-1.728395	0.022529
H68	H	-0.521507	-1.569601	-0.035546
O69	O	0.000011	-1.256256	-0.416572
C70	C	-0.000004	-1.157670	-0.318315
H71	H	0.025091	-1.193659	-0.229014
H72	H	0.038493	-1.076746	-0.346384
H73	H	-0.063606	-1.122883	-0.300096
O74	O	-0.792427	-1.651920	0.018059
C75	C	-0.875031	-1.633803	0.036217
H76	H	-0.886437	-1.534364	0.082225
H77	H	-0.906751	-1.646963	-0.058766
H78	H	-0.898700	-1.705432	0.099874
O79	O	-0.000092	-1.707077	-0.471720
C80	C	-0.000086	-1.810223	-0.398141
H81	H	-0.025188	-1.779189	-0.300655
H82	H	-0.038581	-1.889136	-0.445784
H83	H	0.063514	-1.845751	-0.388486
O84	O	0.000106	-1.263248	-0.158434
C85	C	0.068758	-1.258458	-0.081777
H86	H	0.116744	-1.322275	-0.129189
H87	H	0.091813	-1.157428	-0.067916
H88	H	0.053231	-1.291798	0.013758
H89	H	-0.785753	-1.331537	0.338319
O90	O	-0.000186	-0.828342	0.406629
C91	C	-0.068843	-0.751701	0.411449
H92	H	-0.116838	-0.799122	0.347649
H93	H	-0.091881	-0.737851	0.512489
H94	H	-0.053330	-0.656160	0.378110
O95	O	0.000116	-1.086739	0.413491
C96	C	0.068774	-1.161707	0.422337
H97	H	0.116760	-1.130157	0.356437
H98	H	0.091826	-1.150821	0.523454
H99	H	0.053257	-1.264762	0.394273
H100	H	-0.365755	-1.331477	0.338277
