data_functionalizedCrystal
_audit_creation_method	'MofGen! by Chris Wilmer'
_symmetry_space_group_name_H-M	'P1'
_symmetry_Int_Tables_number	1
_symmetry_cell_setting	triclinic
loop_
_symmetry_equiv_pos_as_xyz
  x,y,z
_cell_length_a	11.792241
_cell_length_b	14.971486
_cell_length_c	13.448316
_cell_angle_alpha	90.006811
_cell_angle_beta	90.002543
_cell_angle_gamma	83.903772
loop_
_atom_site_label
_atom_site_type_symbol
_atom_site_fract_x
_atom_site_fract_y
_atom_site_fract_z
O1	O	-1.506121	-0.122599	-0.082596
O2	O	-1.175699	-0.135234	-0.082619
O3	O	-1.349766	0.001248	-0.082600
O4	O	-1.332054	-0.259081	-0.082615
O5	O	-1.349744	0.001256	0.082784
O6	O	-1.175677	-0.135226	0.082765
O7	O	-1.506099	-0.122591	0.082788
Cu8	Cu	-1.340886	-0.128907	0.097877
Cu9	Cu	-1.340912	-0.128917	-0.097708
O10	O	-1.332032	-0.259073	0.082769
C11	C	-1.348963	0.034580	0.000092
C12	C	-1.346589	0.133887	0.000091
C13	C	-1.133402	-0.134436	0.000070
C14	C	-1.007404	-0.132061	0.000061
C15	C	-1.548396	-0.123389	0.000097
C16	C	-1.674395	-0.125764	0.000099
C17	C	-0.776720	-0.127692	0.000090
C18	C	-0.905089	-0.130120	0.000074
C19	C	-1.332835	-0.292405	0.000075
C20	C	-1.335209	-0.391711	0.000069
N21	N	-1.340876	-0.128900	0.235442
C22	C	-1.448849	0.190702	0.000099
C23	C	-1.446612	0.284011	0.000088
C24	C	-1.342114	0.320502	0.000078
C25	C	-1.239846	0.263679	0.000067
C26	C	-1.242084	0.170372	0.000070
C27	C	-1.235188	0.458160	0.000063
C28	C	-1.232949	0.551473	0.000062
C29	C	-1.439715	0.571798	0.000081
C30	C	-1.441954	0.478492	0.000085
C31	C	-1.339685	0.421675	0.000076
N32	N	-1.340931	-0.128918	-0.235273
C33	C	-1.417977	-0.068491	0.287490
C34	C	-1.417984	-0.068490	0.391594
C35	C	-1.340895	-0.128903	0.443646
C36	C	-1.263786	-0.189315	0.391590
C37	C	-1.263774	-0.189311	0.287489
C38	C	-1.263817	-0.189321	0.608570
C39	C	-1.263830	-0.189327	0.712678
C40	C	-1.418027	-0.068500	0.712675
C41	C	-1.418016	-0.068496	0.608574
C42	C	-1.340908	-0.128909	0.556525
H43	H	-1.533944	0.160999	0.000114
Cl44	Cl	-1.166875	-0.265270	0.543141
H45	H	-1.147857	0.581181	0.000069
Cl46	Cl	-1.166866	-0.265261	0.457025
H47	H	-1.154761	0.293397	0.000051
Cl48	Cl	-1.113523	0.098946	0.000056
H49	H	-1.151910	0.411902	0.000053
Cl50	Cl	-1.514963	0.007445	0.778111
H51	H	-1.201055	-0.238521	0.755054
Cl52	Cl	-1.575174	0.355433	0.000101
H53	H	-1.200989	-0.238501	0.245111
H54	H	-1.480793	-0.019307	0.566193
Cl55	Cl	-1.514912	0.007455	0.457028
Cl56	Cl	-1.573325	0.432619	0.000093
H57	H	-1.522986	0.618063	0.000086
Cl58	Cl	-1.514901	0.007459	0.222064
