data_functionalizedCrystal
_audit_creation_method	'MofGen! by Chris Wilmer'
_symmetry_space_group_name_H-M	'P1'
_symmetry_Int_Tables_number	1
_symmetry_cell_setting	triclinic
loop_
_symmetry_equiv_pos_as_xyz
  x,y,z
_cell_length_a	11.026607
_cell_length_b	10.540539
_cell_length_c	10.065875
_cell_angle_alpha	98.880198
_cell_angle_beta	79.302338
_cell_angle_gamma	96.555754
loop_
_atom_site_label
_atom_site_type_symbol
_atom_site_fract_x
_atom_site_fract_y
_atom_site_fract_z
O1	O	1.632406	0.517971	-0.113482
O2	O	1.278575	0.457324	-0.113485
O3	O	1.463562	0.304709	-0.113482
O4	O	1.447418	0.670585	-0.113485
O5	O	1.428289	0.333960	0.113506
O6	O	1.243301	0.486575	0.113503
O7	O	1.597132	0.547222	0.113506
Zn8	Zn	1.414616	0.521543	0.149544
Zn9	Zn	1.461091	0.483003	-0.149523
O10	O	1.412145	0.699836	0.113503
C11	C	1.215630	0.460761	0.000009
C12	C	1.080627	0.427408	0.000007
C13	C	1.007620	0.519500	0.000005
C14	C	0.868087	0.485031	0.000004
C15	C	1.444715	0.271766	0.000010
C16	C	1.441094	0.130024	0.000002
C17	C	1.302369	-0.083873	-0.000508
C18	C	1.305961	0.063616	0.000003
C19	C	1.485983	0.099314	0.129624
C20	C	1.481354	-0.048226	0.129734
C21	C	1.524215	-0.081406	-0.128394
C22	C	1.525726	0.065627	-0.130108
C23	C	1.660077	0.543784	0.000010
C24	C	1.795082	0.577136	0.000002
C25	C	1.430992	0.732779	0.000008
C26	C	1.434615	0.874520	0.000007
N27	N	1.382908	0.547846	0.353649
N28	N	1.492809	0.456692	-0.353628
C29	C	1.450050	0.492145	0.421429
C30	C	1.425656	0.512401	0.578596
H31	H	0.827302	0.380657	-0.000030
C32	C	1.598837	0.367886	0.427199
C33	C	1.594529	0.371726	0.567657
H34	H	1.661558	0.315338	0.378607
H35	H	1.520988	0.333001	0.404042
H36	H	1.616907	0.452718	0.403689
H37	H	1.576449	0.286895	0.591169
H38	H	1.672395	0.406607	0.590823
C39	C	0.968492	0.738954	0.000008
C40	C	1.062677	0.660392	0.000007
H41	H	1.002481	0.825936	0.000017
H42	H	0.931870	0.711915	-0.079145
H43	H	0.907260	0.732304	0.079167
H44	H	1.123905	0.667034	-0.079158
H45	H	1.099319	0.687439	0.079168
H46	H	1.350104	0.575083	0.636915
C47	C	1.192867	0.558639	0.514556
C48	C	1.280924	0.632468	0.432376
H49	H	1.129910	0.610886	0.563161
H50	H	1.157127	0.488656	0.458817
H51	H	1.231845	0.526322	0.577438
H52	H	1.241947	0.664777	0.369487
H53	H	1.316667	0.702474	0.488119
C54	C	0.898000	0.279640	-0.000004
C55	C	1.025569	0.286516	0.000001
H56	H	0.864016	0.192656	-0.000017
H57	H	0.859433	0.330983	0.079149
H58	H	0.884039	0.310601	-0.079164
H59	H	1.039530	0.255564	0.079166
H60	H	1.064148	0.235156	-0.079160
H61	H	0.835869	0.681507	0.000010
C62	C	1.223133	-0.027466	-0.201703
C63	C	1.256359	0.089844	-0.125420
H64	H	1.192497	-0.011276	-0.279128
H65	H	1.293694	-0.075068	-0.230871
H66	H	1.160657	-0.075604	-0.146847
H67	H	1.318842	0.137978	-0.180274
H68	H	1.185789	0.137465	-0.096253
H69	H	1.577626	-0.074149	0.135615
C70	C	1.735328	-0.076835	-0.244277
C71	C	1.656163	-0.116449	-0.129582
H72	H	1.816782	-0.098467	-0.244994
H73	H	1.706861	-0.118970	-0.324671
H74	H	1.736043	0.013803	-0.240934
H75	H	1.655441	-0.207089	-0.132930
H76	H	1.684638	-0.074318	-0.049167
H77	H	1.263433	-0.136144	-0.093462
H78	H	1.418236	-0.074467	0.226628
C79	C	1.162934	-0.014744	0.204444
C80	C	1.211195	-0.124278	0.124268
H81	H	1.106642	-0.039694	0.281470
H82	H	1.228610	0.042358	0.234257
H83	H	1.120800	0.027376	0.151981
H84	H	1.253336	-0.166394	0.176729
H85	H	1.145508	-0.181402	0.094456
H86	H	1.239969	0.106079	0.093075
C87	C	1.662291	0.225400	0.023464
C88	C	1.618935	0.159680	0.136150
H89	H	1.744367	0.262674	0.027499
H90	H	1.661869	0.166701	-0.058191
H91	H	1.610050	0.291411	0.024678
H92	H	1.671171	0.093662	0.134931
H93	H	1.619365	0.218384	0.217826
H94	H	1.425819	0.144449	0.226084
H95	H	1.525590	0.429456	0.363106
C96	C	1.458169	-0.065439	-0.339019
C97	C	1.485791	-0.154014	-0.261030
H98	H	1.434446	-0.110267	-0.420900
H99	H	1.392105	-0.018452	-0.288413
H100	H	1.529235	-0.007541	-0.360653
H101	H	1.414722	-0.211907	-0.239387
H102	H	1.551861	-0.201023	-0.311646
H103	H	1.493044	0.083706	-0.225999
H104	H	1.625464	0.110420	-0.137935
