data_functionalizedCrystal
_audit_creation_method	'MofGen! by Chris Wilmer'
_symmetry_space_group_name_H-M	'P1'
_symmetry_Int_Tables_number	1
_symmetry_cell_setting	triclinic
loop_
_symmetry_equiv_pos_as_xyz
  x,y,z
_cell_length_a	6.817900
_cell_length_b	9.582889
_cell_length_c	11.102193
_cell_angle_alpha	90.975919
_cell_angle_beta	108.604059
_cell_angle_gamma	111.207298
loop_
_atom_site_label
_atom_site_type_symbol
_atom_site_fract_x
_atom_site_fract_y
_atom_site_fract_z
V1	V	-4.125315	-0.207067	-0.396025
O2	O	-4.069885	0.009939	-0.388726
O3	O	-4.115654	-0.410567	-0.393086
O4	O	-4.101877	-0.203886	-0.568850
O5	O	-4.083758	-0.198173	-0.211745
V6	V	-4.600688	-0.181110	-0.374011
O7	O	-4.404449	-0.264005	-0.444313
O8	O	-4.771751	-0.124171	-0.325723
O9	O	-4.387142	0.022391	-0.376950
O10	O	-4.773515	-0.398115	-0.381311
O11	O	-4.759642	-0.190003	-0.558291
O12	O	-4.400920	-0.184290	-0.201186
C13	C	-3.969272	-0.460176	-0.386779
C14	C	-4.042826	-0.626541	-0.385528
C15	C	-3.951696	-0.196532	-0.610982
C16	C	-4.014073	-0.195278	-0.752266
C17	C	-4.152669	-0.469382	-0.788285
C18	C	-4.251263	-0.605838	-0.872667
C19	C	-4.309870	-0.604652	-1.005415
C20	C	-4.269883	-0.466994	-1.053780
C21	C	-4.171290	-0.330538	-0.969398
C22	C	-4.112683	-0.331739	-0.836649
C23	C	-4.032709	-0.056438	-0.933380
C24	C	-3.974086	-0.057621	-0.800632
C25	C	-3.992722	0.081219	-0.981746
C26	C	-3.894112	0.217679	-0.897362
C27	C	-3.835502	0.216487	-0.764608
C28	C	-3.875492	0.078835	-0.716249
C29	C	-4.196868	0.071992	-0.383254
C30	C	-4.102553	0.238356	-0.384513
C31	C	-4.214443	-0.191649	-0.159048
C32	C	-4.131303	-0.192895	-0.017762
H33	H	-4.283819	-0.717916	-0.833273
C34	C	-4.334371	-0.465691	-1.199804
C35	C	-4.228959	-0.533290	-1.276572
C36	C	-4.293449	-0.531985	-1.422596
C37	C	-4.463350	-0.463081	-1.491853
C38	C	-4.568772	-0.395477	-1.415085
C39	C	-4.504282	-0.396782	-1.269061
H40	H	-4.103179	-0.584301	-1.225304
H41	H	-4.215407	-0.582030	-1.479425
H42	H	-4.511088	-0.462115	-1.599949
H43	H	-4.694552	-0.344466	-1.466353
H44	H	-4.582324	-0.346737	-1.212232
C45	C	-3.850140	0.369088	-0.950565
C46	C	-3.914628	0.370395	-1.096583
C47	C	-3.870655	0.521806	-1.149792
C48	C	-3.762196	0.671910	-1.056982
C49	C	-3.697702	0.670608	-0.910955
C50	C	-3.741674	0.519197	-0.857747
H51	H	-3.994922	0.259274	-1.165294
H52	H	-3.918399	0.522769	-1.257891
H53	H	-3.729645	0.783994	-1.096370
H54	H	-3.617407	0.781729	-0.842244
H55	H	-3.693931	0.518234	-0.749648
C56	C	-3.811026	0.077523	-0.570227
C57	C	-3.916466	0.145108	-0.493469
C58	C	-3.852008	0.143789	-0.347447
C59	C	-3.682111	0.074885	-0.278183
C60	C	-3.576661	0.007295	-0.354942
C61	C	-3.641118	0.008614	-0.500964
H62	H	-4.042243	0.196119	-0.544742
H63	H	-3.930070	0.193824	-0.290626
H64	H	-3.634396	0.073909	-0.170089
H65	H	-3.450884	-0.043716	-0.303669
H66	H	-3.563056	-0.041421	-0.557785
H67	H	-4.104924	-0.470360	-0.680196
H68	H	-4.040465	0.082175	-1.089837
H69	H	-4.390156	-0.715767	-1.074121
H70	H	-3.755232	0.327607	-0.695909
