data_functionalizedCrystal
_audit_creation_method	'MofGen! by Chris Wilmer'
_symmetry_space_group_name_H-M	'P1'
_symmetry_Int_Tables_number	1
_symmetry_cell_setting	triclinic
loop_
_symmetry_equiv_pos_as_xyz
  x,y,z
_cell_length_a	10.489741
_cell_length_b	10.489716
_cell_length_c	8.965430
_cell_angle_alpha	90.003830
_cell_angle_beta	90.000479
_cell_angle_gamma	84.534155
loop_
_atom_site_label
_atom_site_type_symbol
_atom_site_fract_x
_atom_site_fract_y
_atom_site_fract_z
O1	O	1.694035	0.179976	0.123932
O2	O	1.322838	0.196869	0.123954
O3	O	1.516899	0.002823	0.123948
O4	O	1.499974	0.374022	0.123938
O5	O	1.516888	0.002804	-0.124131
O6	O	1.322827	0.196851	-0.124125
O7	O	1.694024	0.179958	-0.124146
Cu8	Cu	1.508424	0.188402	-0.146787
Cu9	Cu	1.508437	0.188424	0.146595
O10	O	1.499963	0.374004	-0.124140
C11	C	1.275301	0.195584	-0.000082
C12	C	1.133672	0.191767	-0.000073
C13	C	1.515622	-0.044719	-0.000087
C14	C	1.511817	-0.186350	-0.000073
C15	C	1.065542	0.068301	-0.000084
C16	C	0.973416	0.126634	0.122227
C17	C	0.973439	0.126645	-0.122359
C18	C	1.043410	0.250151	0.122339
C19	C	1.043443	0.250145	-0.122357
C20	C	0.951344	0.308568	-0.000016
C21	C	1.630822	-0.284024	-0.000093
C22	C	1.567942	-0.361375	0.122222
C23	C	1.567904	-0.361357	-0.122364
C24	C	1.448988	-0.261836	0.122344
C25	C	1.448967	-0.261813	-0.122352
C26	C	1.386000	-0.339115	-0.000007
C27	C	1.741561	0.181243	-0.000107
C28	C	1.883190	0.185060	-0.000106
C29	C	1.501240	0.421545	-0.000102
C30	C	1.505044	0.563176	-0.000106
N31	N	1.508425	0.188386	-0.353136
C32	C	1.597469	0.097939	-0.549809
C33	C	1.624292	0.213088	-0.450337
C34	C	1.481658	0.073247	-0.450401
C35	C	1.535329	0.303637	-0.549773
C36	C	1.392643	0.163721	-0.549845
C37	C	1.419419	0.278953	-0.450418
N38	N	1.508447	0.188430	0.352944
H39	H	1.115241	-0.033196	0.000072
H40	H	1.398770	-0.218302	-0.225761
H41	H	1.618161	-0.404837	-0.225770
Br42	Br	1.803348	-0.242890	0.000092
H43	H	1.459009	-0.024143	-0.406748
H44	H	1.672812	0.021519	-0.593448
H45	H	1.074480	0.302336	-0.225772
H46	H	1.722215	0.233978	-0.406628
Br47	Br	1.651676	-0.433860	0.294571
Br48	Br	1.573275	0.465998	-0.622210
Br49	Br	1.293921	0.406602	-0.378128
H50	H	1.074238	0.302359	0.225860
H51	H	1.398783	-0.218524	0.225867
Br52	Br	1.229478	0.128846	-0.622755
Br53	Br	0.921743	0.039583	0.294590
H54	H	0.942461	0.074374	-0.225764
H55	H	0.901911	0.410172	0.000048
H56	H	1.282408	-0.363546	0.000065
