data_functionalizedCrystal
_audit_creation_method	'MofGen! by Chris Wilmer'
_symmetry_space_group_name_H-M	'P1'
_symmetry_Int_Tables_number	1
_symmetry_cell_setting	triclinic
loop_
_symmetry_equiv_pos_as_xyz
  x,y,z
_cell_length_a	14.044220
_cell_length_b	13.339070
_cell_length_c	12.376897
_cell_angle_alpha	98.995044
_cell_angle_beta	78.348299
_cell_angle_gamma	75.590914
loop_
_atom_site_label
_atom_site_type_symbol
_atom_site_fract_x
_atom_site_fract_y
_atom_site_fract_z
O1	O	0.465458	-1.366977	0.094053
O2	O	0.401571	-1.066686	0.094044
O3	O	0.294347	-1.212326	0.094037
O4	O	0.572682	-1.221336	0.094060
O5	O	0.336899	-1.250749	-0.093958
O6	O	0.444123	-1.105109	-0.093951
O7	O	0.508010	-1.405399	-0.093942
Zn8	Zn	0.482823	-1.261355	-0.123795
Zn9	Zn	0.426758	-1.210731	0.123896
O10	O	0.615234	-1.259759	-0.093935
C11	C	0.412055	-1.047235	0.000045
C12	C	0.379887	-0.932031	0.000042
C13	C	0.279271	-1.227592	0.000039
C14	C	0.170950	-1.215822	0.000037
N15	N	0.521086	-1.295912	-0.292837
C16	C	-0.027375	-1.194299	0.000053
C17	C	-0.063054	-1.277779	0.000059
C18	C	-0.173408	-1.265804	0.000067
C19	C	0.082989	-1.206273	0.000044
C20	C	0.630309	-1.244493	0.000065
C21	C	0.738629	-1.256262	0.000074
C22	C	0.497525	-1.424850	0.000059
C23	C	0.529691	-1.540053	0.000070
C24	C	0.630005	-0.589801	0.000080
C25	C	0.660230	-0.698040	0.000087
C26	C	0.590147	-0.756543	0.000075
C27	C	0.489833	-0.706796	0.000057
C28	C	0.459603	-0.598545	0.000059
C29	C	0.419745	-0.765287	0.000054
C30	C	0.319431	-0.715540	0.000037
C31	C	0.289206	-0.607300	0.000038
C32	C	0.359289	-0.548797	0.000049
C33	C	0.449976	-0.873538	0.000053
C34	C	0.279574	-0.882282	0.000032
C35	C	0.249348	-0.774043	0.000025
C36	C	0.299648	-1.095925	-0.647913
C37	C	0.272860	-1.071721	-0.529584
C38	C	0.334915	-1.127767	-0.470392
C39	C	0.423761	-1.208020	-0.529540
C40	C	0.450547	-1.232231	-0.647880
C41	C	0.485814	-1.264073	-0.470359
C42	C	0.574660	-1.344326	-0.529506
C43	C	0.601442	-1.368533	-0.647835
C44	C	0.539388	-1.312488	-0.707028
C45	C	0.459028	-1.239862	-0.352018
C46	C	0.609927	-1.376168	-0.351985
C47	C	0.636715	-1.400371	-0.470314
N48	N	0.388489	-1.176181	0.292939
H49	H	-0.010739	-1.358226	0.000137
N50	N	0.552445	-0.924333	0.000050
N51	N	0.624048	-0.925499	-0.079190
H52	H	0.696425	-0.961372	-0.079195
H53	H	-0.079704	-1.113843	0.000053
N54	N	0.621035	-0.867104	0.000085
N55	N	0.710601	-0.911508	0.000100
H56	H	0.732422	-0.989597	0.000103
H57	H	0.741904	-0.738534	0.000110
H58	H	0.687053	-0.542156	0.000099
H59	H	0.334684	-0.460659	0.000043
N60	N	0.186731	-0.556495	0.000042
N61	N	0.124164	-0.608735	0.000036
H62	H	0.051789	-0.572856	0.000041
H63	H	0.167668	-0.733522	0.000020
N64	N	0.207988	-0.942044	0.000028
N65	N	0.234990	-1.038689	0.000027
H66	H	0.184438	-1.080902	0.000027
H67	H	0.249129	-1.050308	-0.696119
N68	N	0.307568	-1.103062	-0.349522
N69	N	0.292610	-1.172567	-0.296683
H70	H	0.273296	-1.155115	-0.211314
N71	N	0.368293	-1.157881	-0.291591
N72	N	0.344386	-1.136267	-0.185937
H73	H	0.280301	-1.078361	-0.143258
H74	H	0.200520	-1.006382	-0.481435
H75	H	0.561197	-1.332186	-0.803381
N76	N	0.692188	-1.450525	-0.708237
N77	N	0.747585	-1.500561	-0.655380
H78	H	0.811674	-1.558470	-0.698037
H79	H	0.709055	-1.465715	-0.518489
N80	N	0.673305	-1.433420	-0.291517
N81	N	0.649378	-1.411795	-0.185863
H82	H	0.694132	-1.452228	-0.143150
