data_functionalizedCrystal
_audit_creation_method	'MofGen! by Chris Wilmer'
_symmetry_space_group_name_H-M	'P1'
_symmetry_Int_Tables_number	1
_symmetry_cell_setting	triclinic
loop_
_symmetry_equiv_pos_as_xyz
  x,y,z
_cell_length_a	16.120484
_cell_length_b	16.625547
_cell_length_c	16.120297
_cell_angle_alpha	92.874036
_cell_angle_beta	95.614431
_cell_angle_gamma	92.925712
loop_
_atom_site_label
_atom_site_type_symbol
_atom_site_fract_x
_atom_site_fract_y
_atom_site_fract_z
Zn1	Zn	-0.356754	1.191152	-0.489547
Zn2	Zn	0.143246	1.691152	0.010453
Zn3	Zn	-0.489444	1.191051	-0.356858
Zn4	Zn	0.010556	1.691051	0.143142
Zn5	Zn	-0.349689	1.063517	-0.349783
Zn6	Zn	0.150311	1.563517	0.150217
Zn7	Zn	-0.496484	1.049081	-0.496569
Zn8	Zn	0.003516	1.549081	0.003431
O9	O	-0.423093	1.123700	-0.423189
O10	O	0.076907	1.623700	0.076811
O11	O	-0.374366	1.303970	-0.471968
O12	O	0.125634	1.803970	0.028032
O13	O	-0.465002	1.180132	-0.238958
O14	O	0.034998	1.680132	0.261042
O15	O	-0.233661	1.086532	-0.362424
O16	O	0.266339	1.586532	0.137576
O17	O	-0.471852	1.303895	-0.374481
O18	O	0.028148	1.803895	0.125519
O19	O	-0.238852	1.180306	-0.465108
O20	O	0.261148	1.680306	0.034892
O21	O	-0.362325	1.086434	-0.233760
O22	O	0.137675	1.586434	0.266240
O23	O	-0.369152	0.948771	-0.369233
O24	O	0.130848	1.448771	0.130767
O25	O	-0.483852	1.061928	-0.612599
O26	O	0.016148	1.561928	-0.112599
O27	O	-0.477001	0.938165	-0.477076
O28	O	0.022999	1.438165	0.022924
O29	O	-0.381193	1.166307	-0.607440
O30	O	0.118807	1.666307	-0.107440
O31	O	-0.607343	1.166134	-0.381290
O32	O	-0.107343	1.666134	0.118710
O33	O	-0.612515	1.061829	-0.483935
O34	O	-0.112515	1.561829	0.016065
C35	C	-0.423075	0.914212	-0.423149
C36	C	0.076925	1.414212	0.076851
C37	C	-0.423088	0.824590	-0.423152
C38	C	0.076912	1.324590	0.076848
C39	C	-0.640258	1.112425	-0.434160
C40	C	-0.140258	1.612425	0.065840
C41	C	-0.733163	1.107674	-0.438882
C42	C	-0.233163	1.607674	0.061118
C43	C	-0.423090	0.751807	-0.423163
C44	C	0.076910	1.251807	0.076837
C45	C	-0.423096	0.660498	-0.423184
C46	C	0.076904	1.160498	0.076816
C47	C	-0.423104	0.587720	-0.423206
C48	C	0.076896	1.087720	0.076794
C49	C	-0.423111	0.496404	-0.423226
C50	C	0.076889	0.996404	0.076774
C51	C	-0.903263	1.099003	-0.447519
C52	C	-0.403263	1.599003	0.052481
C53	C	-0.942083	1.148542	-0.398873
C54	C	-0.442083	1.648542	0.101127
C55	C	-1.036732	1.143717	-0.403679
C56	C	-0.536732	1.643717	0.096321
C57	C	-0.808605	1.103826	-0.442715
C58	C	-0.308605	1.603826	0.057285
C59	C	-0.205081	1.135041	-0.412193
C60	C	0.294919	1.635041	0.087807
C61	C	-0.112177	1.139873	-0.407508
C62	C	0.387823	1.639873	0.092492
C63	C	-0.434096	1.112518	-0.641194
C64	C	0.065904	1.612518	-0.141194
C65	C	-0.438784	1.107753	-0.734095
C66	C	0.061216	1.607753	-0.234095
C67	C	-0.423112	1.334006	-0.423230
C68	C	0.076888	1.834006	0.076770
C69	C	-0.423120	1.423626	-0.423248
C70	C	0.076880	1.923626	0.076752
C71	C	-0.447326	1.099025	-0.904184
C72	C	0.052674	1.599025	-0.404184
C73	C	-0.398609	1.148547	-0.943033
C74	C	0.101391	1.648547	-0.443033
C75	C	-0.403362	1.143691	-1.037677
C76	C	0.096638	1.643691	-0.537677
C77	C	-0.442574	1.103880	-0.809532
C78	C	0.057426	1.603880	-0.309532
C79	C	-0.412073	1.134888	-0.206029
C80	C	0.087927	1.634888	0.293971
C81	C	-0.407149	1.139822	-0.113117
C82	C	0.092851	1.639822	0.386883
H83	H	-0.904232	1.194576	-0.353615
H84	H	-0.404232	1.694576	0.146385
C85	C	-0.508488	1.036823	-0.955275
C86	C	-0.008488	1.536823	-0.455275
N87	N	-0.554556	0.989973	-0.993767
N88	N	-0.054556	1.489973	-0.493767
H89	H	-0.941111	1.052971	-0.492772
H90	H	-0.441111	1.552971	0.007228
C91	C	-0.337448	1.210759	-0.891942
C92	C	0.162552	1.710759	-0.391942
N93	N	-0.291387	1.257618	-0.853457
N94	N	0.208613	1.757618	-0.353457
