data_functionalizedCrystal
_audit_creation_method	'MofGen! by Chris Wilmer'
_symmetry_space_group_name_H-M	'P1'
_symmetry_Int_Tables_number	1
_symmetry_cell_setting	triclinic
loop_
_symmetry_equiv_pos_as_xyz
  x,y,z
_cell_length_a	10.654550
_cell_length_b	8.559649
_cell_length_c	9.130313
_cell_angle_alpha	90.000859
_cell_angle_beta	89.996220
_cell_angle_gamma	77.131784
loop_
_atom_site_label
_atom_site_type_symbol
_atom_site_fract_x
_atom_site_fract_y
_atom_site_fract_z
O1	O	1.644677	0.224178	-0.121910
O2	O	1.276992	0.245536	-0.121886
O3	O	1.493228	0.002614	-0.121899
O4	O	1.428441	0.467100	-0.121898
O5	O	1.493225	0.002621	0.121700
O6	O	1.276989	0.245543	0.121713
O7	O	1.644674	0.224184	0.121688
Cu8	Cu	1.460831	0.234864	0.143943
Cu9	Cu	1.460835	0.234856	-0.144141
O10	O	1.428438	0.467107	0.121701
C11	C	1.230355	0.243972	-0.000084
C12	C	1.091396	0.239279	-0.000075
C13	C	0.997136	0.382308	-0.000096
C14	C	0.866571	0.377890	-0.000121
C15	C	0.924542	0.087401	-0.000111
C16	C	1.055103	0.091821	-0.000075
C17	C	0.963666	0.550020	-0.000108
C18	C	0.833101	0.545601	-0.000133
C19	C	1.498136	-0.056858	-0.000103
C20	C	1.512750	-0.234076	-0.000112
C21	C	1.691311	0.225749	-0.000117
C22	C	1.830270	0.230441	-0.000136
C23	C	1.423530	0.526579	-0.000098
C24	C	1.408916	0.703797	-0.000099
N25	N	1.460838	0.234869	0.346566
N26	N	1.460839	0.234839	-0.346763
C27	C	1.556605	0.127340	0.423212
C28	C	1.556604	0.127320	0.576549
C29	C	1.365062	0.342374	0.576580
C30	C	1.365060	0.342384	0.423245
C31	C	1.667194	0.003185	0.423195
C32	C	1.667192	0.003166	0.576532
H33	H	0.894975	-0.032654	-0.000133
H34	H	0.986220	0.615614	0.101844
H35	H	0.782193	0.596289	0.105035
H36	H	0.993806	0.603419	-0.105280
O37	O	1.146783	-0.047012	-0.000239
C38	C	1.224057	-0.053189	-0.126397
H39	H	1.218468	0.073569	-0.168467
H40	H	1.328126	-0.111554	-0.097991
H41	H	1.188064	-0.126578	-0.214747
O42	O	1.644872	-0.135010	0.633323
C43	C	1.532709	-0.099933	0.720227
H44	H	1.469466	0.019525	0.684428
H45	H	1.477392	-0.198677	0.706386
H46	H	1.560569	-0.092286	0.840136
O47	O	0.775619	0.621201	-0.121712
C48	C	0.787758	0.781895	-0.121455
H49	H	0.873399	0.793263	-0.050655
H50	H	0.803492	0.820603	-0.238242
H51	H	0.696200	0.861758	-0.075263
H52	H	1.760879	0.030513	0.618142
O53	O	1.289491	-0.197993	0.000160
C54	C	1.222137	-0.227774	0.126307
H55	H	1.293811	-0.284030	0.214489
H56	H	1.160538	-0.110144	0.168649
H57	H	1.157599	-0.313228	0.097792
H58	H	1.287081	0.429908	0.639029
O59	O	1.656490	-0.143107	0.373611
C60	C	1.540593	-0.176706	0.425249
H61	H	1.469635	-0.059679	0.452504
H62	H	1.497709	-0.243505	0.337115
H63	H	1.560716	-0.254103	0.527879
H64	H	1.754362	0.042059	0.375631
O65	O	1.271962	0.446979	0.349018
C66	C	1.187413	0.541840	0.449582
H67	H	1.238667	0.544256	0.558878
H68	H	1.155960	0.669086	0.405290
H69	H	1.099246	0.488888	0.465896
H70	H	1.612835	-0.316473	-0.000107
