data_functionalizedCrystal
_audit_creation_method	'MofGen! by Chris Wilmer'
_symmetry_space_group_name_H-M	'P1'
_symmetry_Int_Tables_number	1
_symmetry_cell_setting	triclinic
loop_
_symmetry_equiv_pos_as_xyz
  x,y,z
_cell_length_a	12.759401
_cell_length_b	12.594516
_cell_length_c	12.759393
_cell_angle_alpha	89.970876
_cell_angle_beta	89.980596
_cell_angle_gamma	90.015974
loop_
_atom_site_label
_atom_site_type_symbol
_atom_site_fract_x
_atom_site_fract_y
_atom_site_fract_z
Zn1	Zn	1.606246	-0.423682	-0.594025
Zn2	Zn	2.106246	0.076318	-0.094025
Zn3	Zn	1.606136	-0.601701	-0.418352
Zn4	Zn	2.106136	-0.101701	0.081648
Zn5	Zn	1.430547	-0.423737	-0.418361
Zn6	Zn	1.930547	0.076263	0.081639
Zn7	Zn	1.430532	-0.601618	-0.593991
Zn8	Zn	1.930532	-0.101618	-0.093991
O9	O	1.518365	-0.512684	-0.506182
O10	O	2.018365	-0.012684	-0.006182
O11	O	1.753252	-0.447308	-0.570732
O12	O	2.253252	0.052692	-0.070732
O13	O	1.582804	-0.578151	-0.271332
O14	O	2.082804	-0.078151	0.228668
O15	O	1.453907	-0.274783	-0.441681
O16	O	1.953907	0.225217	0.058319
O17	O	1.753171	-0.578098	-0.441666
O18	O	2.253171	-0.078098	0.058334
O19	O	1.582991	-0.274743	-0.570740
O20	O	2.082991	0.225257	-0.070740
O21	O	1.453800	-0.447401	-0.271339
O22	O	1.953800	0.052599	0.228661
O23	O	1.283524	-0.447321	-0.441649
O24	O	1.783524	0.052679	0.058351
O25	O	1.453880	-0.577957	-0.741016
O26	O	1.953880	-0.077957	-0.241016
O27	O	1.283513	-0.578010	-0.570683
O28	O	1.783513	-0.078010	-0.070683
O29	O	1.582976	-0.447228	-0.741041
O30	O	2.082976	0.052772	-0.241041
O31	O	1.582789	-0.750636	-0.441633
O32	O	2.082789	-0.250636	0.058367
O33	O	1.453774	-0.750575	-0.570674
O34	O	1.953774	-0.250575	-0.070674
C35	C	1.245398	-0.512664	-0.506164
C36	C	1.745398	-0.012664	-0.006164
C37	C	1.128621	-0.512680	-0.506181
C38	C	1.628621	-0.012680	-0.006181
C39	C	0.964009	-0.444561	-0.439124
C40	C	1.464009	0.055439	0.060876
C41	C	1.073733	-0.444541	-0.439112
C42	C	1.573733	0.055459	0.060888
C43	C	1.073779	-0.580837	-0.573274
C44	C	1.573779	-0.080837	-0.073274
C45	C	0.964057	-0.580851	-0.573291
C46	C	1.464057	-0.080851	-0.073291
C47	C	0.963984	-0.365875	-0.361663
C48	C	1.463984	0.134125	0.138337
C49	C	1.073708	-0.365854	-0.361651
C50	C	1.573708	0.134146	0.138349
C51	C	1.518296	-0.789225	-0.506172
C52	C	2.018296	-0.289225	-0.006172
C53	C	1.518363	-0.907531	-0.506203
C54	C	2.018363	-0.407531	-0.006203
C55	C	1.448185	-0.976789	-0.576339
C56	C	1.948185	-0.476789	-0.076339
C57	C	1.422585	-1.047660	-0.480472
C58	C	1.922585	-0.547660	0.019528
C59	C	1.544058	-1.047459	-0.602086
C60	C	2.044058	-0.547459	-0.102086
C61	C	1.492713	-0.976843	-0.410285
C62	C	1.992713	-0.476843	0.089715
C63	C	1.614230	-0.976636	-0.531964
C64	C	2.114230	-0.476636	-0.031964
C65	C	1.588667	-1.047474	-0.436031
C66	C	2.088667	-0.547474	0.063969
C67	C	1.792398	-0.512706	-0.506202
C68	C	2.292398	-0.012706	-0.006202
C69	C	1.909175	-0.512715	-0.506210
C70	C	2.409175	-0.012715	-0.006210
C71	C	1.518439	-0.512577	-0.780216
C72	C	2.018439	-0.012577	-0.280216
C73	C	1.518470	-0.512531	-0.896992
C74	C	2.018470	-0.012531	-0.396992
C75	C	1.518463	-0.235063	-0.506216
C76	C	2.018463	0.264937	-0.006216
C77	C	1.518505	-0.116758	-0.506230
C78	C	2.018505	0.383242	-0.006230
C79	C	1.585700	-0.444454	-0.951869
C80	C	2.085700	0.055546	-0.451869
C81	C	1.585725	-0.444415	-1.061593
C82	C	2.085725	0.055585	-0.561593
C83	C	1.451288	-0.580541	-1.061554
C84	C	1.951288	-0.080541	-0.561554
C85	C	1.451258	-0.580573	-0.951832
C86	C	1.951258	-0.080573	-0.451832
C87	C	1.663319	-0.365866	-0.951892
C88	C	2.163319	0.134134	-0.451892
C89	C	1.663344	-0.365828	-1.061617
C90	C	2.163344	0.134172	-0.561617
C91	C	1.518352	-0.512714	-0.233215
C92	C	2.018352	-0.012714	0.266785
C93	C	1.518525	-0.512460	-0.116439
C94	C	2.018525	-0.012460	0.383561
H95	H	0.929909	-0.395318	-0.284327
H96	H	1.429909	0.104682	0.215673
F97	F	1.118226	-0.263540	-0.399909
F98	F	1.618226	0.236460	0.100091
H99	H	0.934231	-0.283468	-0.383592
H100	H	1.434231	0.216532	0.116408
H101	H	1.118477	-0.636310	-0.627890
H102	H	1.618477	-0.136310	-0.127890
H103	H	1.341578	-1.078880	-0.458705
H104	H	1.841578	-0.578880	0.041295
F105	F	1.769701	-0.394673	-1.100547
F106	F	2.269701	0.105327	-0.600547
H107	H	1.740590	-0.395417	-0.917859
H108	H	2.240590	0.104583	-0.417859
H109	H	1.565734	-1.078479	-0.683163
H110	H	2.065734	-0.578479	-0.183163
F111	F	0.905702	-0.653377	-0.644704
F112	F	1.405702	-0.153377	-0.144704
F113	F	1.625175	-0.263504	-1.106120
F114	F	2.125175	0.236496	-0.606120
F115	F	1.112581	-0.394590	-0.255246
F116	F	1.612581	0.105410	0.244754
H117	H	1.470943	-0.945951	-0.329186
H118	H	1.970943	-0.445951	0.170814
F119	F	1.370478	-0.936219	-0.653752
F120	F	1.870478	-0.436219	-0.153752
H121	H	1.648075	-1.078315	-0.376662
H122	H	2.148075	-0.578315	0.123338
H123	H	1.641552	-0.283437	-0.922133
H124	H	2.141552	0.216563	-0.422133
F125	F	1.379689	-0.653015	-0.893432
F126	F	1.879689	-0.153015	-0.393432
F127	F	1.720089	-0.935830	-0.560474
F128	F	2.220089	-0.435830	-0.060474
H129	H	1.396564	-0.635935	-1.106218
H130	H	1.896564	-0.135935	-0.606218
