data_functionalizedCrystal
_audit_creation_method	'MofGen! by Chris Wilmer'
_symmetry_space_group_name_H-M	'P1'
_symmetry_Int_Tables_number	1
_symmetry_cell_setting	triclinic
loop_
_symmetry_equiv_pos_as_xyz
  x,y,z
_cell_length_a	13.032831
_cell_length_b	18.215405
_cell_length_c	18.215399
_cell_angle_alpha	90.030970
_cell_angle_beta	97.190377
_cell_angle_gamma	82.829003
loop_
_atom_site_label
_atom_site_type_symbol
_atom_site_fract_x
_atom_site_fract_y
_atom_site_fract_z
Zn1	Zn	1.597604	-0.436090	0.558718
Zn2	Zn	1.847604	-0.186090	0.808718
Zn3	Zn	2.097604	0.063910	1.058718
Zn4	Zn	2.347604	0.313910	1.308718
Zn5	Zn	1.597476	-0.559150	0.435635
Zn6	Zn	1.847476	-0.309150	0.685635
Zn7	Zn	2.097476	-0.059150	0.935635
Zn8	Zn	2.347476	0.190850	1.185635
Zn9	Zn	1.422849	-0.420461	0.420066
Zn10	Zn	1.672849	-0.170461	0.670066
Zn11	Zn	1.922849	0.079539	0.920066
Zn12	Zn	2.172849	0.329539	1.170066
Zn13	Zn	1.422799	-0.543461	0.543067
Zn14	Zn	1.672799	-0.293461	0.793067
Zn15	Zn	1.922799	-0.043461	1.043067
Zn16	Zn	2.172799	0.206539	1.293067
O17	O	1.510182	-0.489791	0.489371
O18	O	1.760182	-0.239791	0.739371
O19	O	2.010182	0.010209	0.989371
O20	O	2.260182	0.260209	1.239371
O21	O	1.743826	-0.465521	0.555457
O22	O	1.993826	-0.215521	0.805457
O23	O	2.243826	0.034479	1.055457
O24	O	2.493826	0.284479	1.305457
O25	O	1.574278	-0.540778	0.330582
O26	O	1.824278	-0.290778	0.580582
O27	O	2.074278	-0.040778	0.830582
O28	O	2.324278	0.209222	1.080582
O29	O	1.446106	-0.319556	0.438492
O30	O	1.696106	-0.069556	0.688492
O31	O	1.946106	0.180444	0.938492
O32	O	2.196106	0.430444	1.188492
O33	O	1.743731	-0.555933	0.465028
O34	O	1.993731	-0.305933	0.715028
O35	O	2.243731	-0.055933	0.965028
O36	O	2.493731	0.194067	1.215028
O37	O	1.574497	-0.331039	0.540360
O38	O	1.824497	-0.081039	0.790360
O39	O	2.074497	0.168961	1.040360
O40	O	2.324497	0.418961	1.290360
O41	O	1.445981	-0.438883	0.319144
O42	O	1.695981	-0.188883	0.569144
O43	O	1.945981	0.061117	0.819144
O44	O	2.195981	0.311117	1.069144
O45	O	1.276604	-0.423670	0.423316
O46	O	1.526604	-0.173670	0.673316
O47	O	1.776604	0.076330	0.923316
O48	O	2.026604	0.326330	1.173316
O49	O	1.446021	-0.529193	0.648130
O50	O	1.696021	-0.279193	0.898130
O51	O	1.946021	-0.029193	1.148130
O52	O	2.196021	0.220807	1.398130
O53	O	1.276568	-0.514038	0.513684
O54	O	1.526568	-0.264038	0.763684
O55	O	1.776568	-0.014038	1.013684
O56	O	2.026568	0.235962	1.263684
O57	O	1.574449	-0.450308	0.659629
O58	O	1.824449	-0.200308	0.909629
O59	O	2.074449	0.049692	1.159629
O60	O	2.324449	0.299692	1.409629
O61	O	1.574230	-0.660047	0.449852
O62	O	1.824230	-0.410047	0.699852
O63	O	2.074230	-0.160047	0.949852
O64	O	2.324230	0.089953	1.199852
O65	O	1.445896	-0.648520	0.528781
O66	O	1.695896	-0.398520	0.778781
O67	O	1.945896	-0.148520	1.028781
O68	O	2.195896	0.101480	1.278781
C69	C	1.510072	-0.680987	0.489326
C70	C	1.760072	-0.430987	0.739326
C71	C	2.010072	-0.180987	0.989326
C72	C	2.260072	0.069013	1.239326
C73	C	1.510120	-0.762790	0.489340
C74	C	1.760120	-0.512790	0.739340
C75	C	2.010120	-0.262790	0.989340
C76	C	2.260120	-0.012790	1.239340
C77	C	1.238668	-0.465456	0.465113
C78	C	1.488668	-0.215456	0.715113
C79	C	1.738668	0.034544	0.965113
C80	C	1.988668	0.284544	1.215113
C81	C	1.122513	-0.455064	0.454752
C82	C	1.372513	-0.205064	0.704752
C83	C	1.622513	0.044936	0.954752
C84	C	1.872513	0.294936	1.204752
C85	C	1.577101	-0.956976	0.448342
C86	C	1.827101	-0.706976	0.698342
C87	C	2.077101	-0.456976	0.948342
C88	C	2.327101	-0.206976	1.198342
C89	C	1.577147	-1.033838	0.448364
C90	C	1.827147	-0.783838	0.698364
C91	C	2.077147	-0.533838	0.948364
C92	C	2.327147	-0.283838	1.198364
C93	C	1.443397	-1.021865	0.530466
C94	C	1.693397	-0.771865	0.780466
C95	C	1.943397	-0.521865	1.030466
C96	C	2.193397	-0.271865	1.280466
C97	C	1.443357	-0.945004	0.530447
C98	C	1.693357	-0.695004	0.780447
C99	C	1.943357	-0.445004	1.030447
C100	C	2.193357	-0.195004	1.280447
C101	C	1.510207	-0.912561	0.489381
C102	C	1.760207	-0.662561	0.739381
C103	C	2.010207	-0.412561	0.989381
C104	C	2.260207	-0.162561	1.239381
C105	C	1.510294	-1.066285	0.489421
C106	C	1.760294	-0.816285	0.739421
C107	C	2.010294	-0.566285	0.989421
C108	C	2.260294	-0.316285	1.239421
C109	C	1.510344	-1.149623	0.489446
C110	C	1.760344	-0.899623	0.739446
C111	C	2.010344	-0.649623	0.989446
C112	C	2.260344	-0.399623	1.239446
C113	C	1.510158	-0.829218	0.489358
C114	C	1.760158	-0.579218	0.739358
C115	C	2.010158	-0.329218	0.989358
C116	C	2.260158	-0.079218	1.239358
C117	C	1.070737	-0.495215	0.494779
C118	C	1.320737	-0.245215	0.744779
C119	C	1.570737	0.004785	0.994779
C120	C	1.820737	0.254785	1.244779
C121	C	0.950685	-0.484474	0.484071
C122	C	1.200685	-0.234474	0.734071
C123	C	1.450685	0.015526	0.984071
C124	C	1.700685	0.265526	1.234071
C125	C	1.782756	-0.514220	0.513725
C126	C	2.032756	-0.264220	0.763725
C127	C	2.282756	-0.014220	1.013725
C128	C	2.532756	0.235780	1.263725
C129	C	1.898911	-0.524631	0.524103
C130	C	2.148911	-0.274631	0.774103
C131	C	2.398911	-0.024631	1.024103
C132	C	2.648911	0.225369	1.274103
C133	C	1.510244	-0.489744	0.681330
C134	C	1.760244	-0.239744	0.931330
C135	C	2.010244	0.010256	1.181330
C136	C	2.260244	0.260256	1.431330
C137	C	1.510270	-0.489724	0.763131
C138	C	1.760270	-0.239724	1.013131
C139	C	2.010270	0.010276	1.263131
C140	C	2.260270	0.260276	1.513131
C141	C	1.510321	-0.297850	0.489435
C142	C	1.760321	-0.047850	0.739435
C143	C	2.010321	0.202150	0.989435
C144	C	2.260321	0.452150	1.239435
C145	C	1.510381	-0.216056	0.489463
C146	C	1.760381	0.033944	0.739463
C147	C	2.010381	0.283944	0.989463
C148	C	2.260381	0.533944	1.239463
C149	C	1.510181	-0.489789	0.298165
C150	C	1.760181	-0.239789	0.548165
C151	C	2.010181	0.010211	0.798165
C152	C	2.260181	0.260211	1.048165
C153	C	1.510358	-0.489620	0.216382
C154	C	1.760358	-0.239620	0.466382
C155	C	2.010358	0.010380	0.716382
C156	C	2.260358	0.260380	0.966382
C157	C	1.577181	-0.448588	1.034181
C158	C	1.827181	-0.198588	1.284181
C159	C	2.077181	0.051412	1.534181
C160	C	2.327181	0.301412	1.784181
C161	C	1.577169	-0.448607	0.957321
C162	C	1.827169	-0.198607	1.207321
C163	C	2.077169	0.051393	1.457321
C164	C	2.327169	0.301393	1.707321
C165	C	1.443443	-0.530761	0.945337
C166	C	1.693443	-0.280761	1.195337
C167	C	1.943443	-0.030761	1.445337
C168	C	2.193443	0.219239	1.695337
C169	C	1.443462	-0.530746	1.022197
C170	C	1.693462	-0.280746	1.272197
C171	C	1.943462	-0.030746	1.522197
C172	C	2.193462	0.219254	1.772197
C173	C	1.510329	-0.489655	1.066616
C174	C	1.760329	-0.239655	1.316616
C175	C	2.010329	0.010345	1.566616
C176	C	2.260329	0.260345	1.816616
C177	C	1.510298	-0.489689	0.912897
C178	C	1.760298	-0.239689	1.162897
C179	C	2.010298	0.010311	1.412897
C180	C	2.260298	0.260311	1.662897
C181	C	1.510284	-0.489710	0.829562
C182	C	1.760284	-0.239710	1.079562
C183	C	2.010284	0.010290	1.329562
C184	C	2.260284	0.260290	1.579562
C185	C	1.510345	-0.489635	1.149957
C186	C	1.760345	-0.239635	1.399957
C187	C	2.010345	0.010365	1.649957
C188	C	2.260345	0.260365	1.899957
H189	H	1.631536	-0.930563	0.414904
H190	H	1.881536	-0.680563	0.664904
H191	H	2.131536	-0.430563	0.914904
H192	H	2.381536	-0.180563	1.164904
H193	H	1.389001	-0.564214	0.909162
H194	H	1.639001	-0.314214	1.159162
H195	H	1.889001	-0.064214	1.409162
H196	H	2.139001	0.185786	1.659162
N197	N	1.649275	-0.404312	0.922342
N198	N	1.899275	-0.154312	1.172342
N199	N	2.149275	0.095688	1.422342
N200	N	2.399275	0.345688	1.672342
H201	H	1.606824	-0.366413	0.886666
H202	H	1.856824	-0.116413	1.136666
H203	H	2.106824	0.133587	1.386666
H204	H	2.356824	0.383587	1.636666
H205	H	1.697667	-0.438615	0.894816
H206	H	1.947667	-0.188615	1.144816
H207	H	2.197667	0.061385	1.394816
H208	H	2.447667	0.311385	1.644816
N209	N	1.063512	-0.399002	0.398852
N210	N	1.313512	-0.149002	0.648852
N211	N	1.563512	0.100998	0.898852
N212	N	1.813512	0.350998	1.148852
H213	H	1.082475	-0.348117	0.412053
H214	H	1.332475	-0.098117	0.662053
H215	H	1.582475	0.151883	0.912053
H216	H	1.832475	0.401883	1.162053
H217	H	0.986133	-0.399345	0.399152
H218	H	1.236133	-0.149345	0.649152
H219	H	1.486133	0.100655	0.899152
H220	H	1.736133	0.350655	1.149152
N221	N	1.649296	-0.404270	1.082092
N222	N	1.899296	-0.154270	1.332092
N223	N	2.149296	0.095730	1.582092
N224	N	2.399296	0.345730	1.832092
H225	H	1.691644	-0.378257	1.049879
H226	H	1.941644	-0.128257	1.299879
H227	H	2.191644	0.121743	1.549879
H228	H	2.441644	0.371743	1.799879
H229	H	1.697647	-0.438548	1.118295
H230	H	1.947647	-0.188548	1.368295
H231	H	2.197647	0.061452	1.618295
H232	H	2.447647	0.311452	1.868295
H233	H	1.389022	-0.564191	1.048605
H234	H	1.639022	-0.314191	1.298605
H235	H	1.889022	-0.064191	1.548605
H236	H	2.139022	0.185809	1.798605
H237	H	1.388969	-1.048290	0.563899
H238	H	1.638969	-0.798290	0.813899
H239	H	1.888969	-0.548290	1.063899
H240	H	2.138969	-0.298290	1.313899
H241	H	1.388884	-0.908840	0.563870
H242	H	1.638884	-0.658840	0.813870
H243	H	1.888884	-0.408840	1.063870
H244	H	2.138884	-0.158840	1.313870
N245	N	1.649299	-1.081743	0.404102
N246	N	1.899299	-0.831743	0.654102
N247	N	2.149299	-0.581743	0.904102
N248	N	2.399299	-0.331743	1.154102
H249	H	1.691639	-1.049525	0.378086
H250	H	1.941639	-0.799525	0.628086
H251	H	2.191639	-0.549525	0.878086
H252	H	2.441639	-0.299525	1.128086
H253	H	1.606808	-1.109877	0.366230
H254	H	1.856808	-0.859877	0.616230
H255	H	2.106808	-0.609877	0.866230
H256	H	2.356808	-0.359877	1.116230
H257	H	0.943457	-0.566956	0.566306
H258	H	1.193457	-0.316956	0.816306
H259	H	1.443457	-0.066956	1.066306
H260	H	1.693457	0.183044	1.316306
N261	N	1.129736	-0.551283	0.550672
N262	N	1.379736	-0.301283	0.800672
N263	N	1.629736	-0.051283	1.050672
N264	N	1.879736	0.198717	1.300672
H265	H	1.207134	-0.551009	0.550397
H266	H	1.457134	-0.301009	0.800397
H267	H	1.707134	-0.051009	1.050397
H268	H	1.957134	0.198991	1.300397
H269	H	1.110681	-0.602134	0.537430
H270	H	1.360681	-0.352134	0.787430
H271	H	1.610681	-0.102134	1.037430
H272	H	1.860681	0.147866	1.287430
H273	H	0.906138	-0.442143	0.441877
H274	H	1.156138	-0.192143	0.691877
H275	H	1.406138	0.057857	0.941877
H276	H	1.656138	0.307857	1.191877
