data_functionalizedCrystal
_audit_creation_method	'MofGen! by Chris Wilmer'
_symmetry_space_group_name_H-M	'P1'
_symmetry_Int_Tables_number	1
_symmetry_cell_setting	triclinic
loop_
_symmetry_equiv_pos_as_xyz
  x,y,z
_cell_length_a	10.686285
_cell_length_b	10.685972
_cell_length_c	10.686551
_cell_angle_alpha	81.590232
_cell_angle_beta	99.084519
_cell_angle_gamma	90.336301
loop_
_atom_site_label
_atom_site_type_symbol
_atom_site_fract_x
_atom_site_fract_y
_atom_site_fract_z
Zn1	Zn	-0.282884	-2.015989	0.846645
Zn2	Zn	0.217116	-1.515989	1.346645
Zn3	Zn	-0.511473	-2.015887	0.618134
Zn4	Zn	-0.011473	-1.515887	1.118134
Zn5	Zn	-0.317996	-1.789922	0.615609
Zn6	Zn	0.182004	-1.289922	1.115609
Zn7	Zn	-0.511344	-1.820001	0.814049
Zn8	Zn	-0.011344	-1.320001	1.314049
O9	O	-0.405924	-1.910450	0.723609
O10	O	0.094076	-1.410450	1.223609
O11	O	-0.298566	-2.192564	0.831031
O12	O	0.201434	-1.692564	1.331031
O13	O	-0.500556	-1.973282	0.439119
O14	O	-0.000556	-1.473282	0.939119
O15	O	-0.136757	-1.807365	0.658841
O16	O	0.363243	-1.307365	1.158841
O17	O	-0.466509	-2.192489	0.663145
O18	O	0.033491	-1.692489	1.163145
O19	O	-0.110960	-1.973455	0.828582
O20	O	0.389040	-1.473455	1.328582
O21	O	-0.358410	-1.807266	0.437263
O22	O	0.141590	-1.307266	0.937263
O23	O	-0.358285	-1.617324	0.627234
O24	O	0.141715	-1.117324	1.127234
O25	O	-0.466290	-1.858630	0.997054
O26	O	0.033710	-1.358630	1.497054
O27	O	-0.500336	-1.639423	0.773027
O28	O	-0.000336	-1.139423	1.273027
O29	O	-0.298441	-2.002621	1.021002
O30	O	0.201559	-1.502621	1.521002
O31	O	-0.688037	-2.002448	0.631538
O32	O	-0.188037	-1.502448	1.131538
O33	O	-0.687942	-1.858531	0.775476
O34	O	-0.187942	-1.358531	1.275476
C35	C	-0.433107	-1.582586	0.696320
C36	C	0.066893	-1.082586	1.196320
C37	C	-0.444764	-1.442329	0.684673
C38	C	0.055236	-0.942329	1.184673
C39	C	-0.733770	-1.933778	0.700275
C40	C	-0.233770	-1.433778	1.200275
C41	C	-0.874011	-1.943877	0.690345
C42	C	-0.374011	-1.443877	1.190345
C43	C	-0.076793	-1.887067	0.747066
C44	C	0.423207	-1.387067	1.247066
C45	C	0.063464	-1.877102	0.757061
C46	C	0.563464	-1.377102	1.257061
C47	C	-0.378434	-1.933992	1.056653
C48	C	0.121566	-1.433992	1.556653
C49	C	-0.366720	-1.944025	1.198577
C50	C	0.133280	-1.444025	1.698577
C51	C	-0.378628	-1.239593	0.751001
C52	C	0.121372	-0.739593	1.251001
C53	C	-0.366975	-1.379852	0.762659
C54	C	0.133025	-0.879852	1.262659
C55	C	-0.433210	-1.887065	0.391874
C56	C	0.066790	-1.387065	0.891874
C57	C	-0.444548	-1.877252	0.249997
C58	C	0.055452	-1.377252	0.749997
H59	H	-0.520286	-1.388510	0.608985
H60	H	-0.020286	-0.888510	1.108985
F61	F	-0.267912	-2.028793	1.282956
F62	F	0.232088	-1.528793	1.782956
H63	H	-0.520146	-1.812413	1.185444
H64	H	-0.020146	-1.312413	1.685444
F65	F	-0.866273	-1.792280	0.841655
F66	F	-0.366273	-1.292280	1.341655
F67	F	-0.944282	-2.028690	0.605733
F68	F	-0.444282	-1.528690	1.105733
H69	H	-0.291451	-1.433663	0.838335
H70	H	0.208549	-0.933663	1.338335
