data_functionalizedCrystal
_audit_creation_method	'MofGen! by Chris Wilmer'
_symmetry_space_group_name_H-M	'P1'
_symmetry_Int_Tables_number	1
_symmetry_cell_setting	triclinic
loop_
_symmetry_equiv_pos_as_xyz
  x,y,z
_cell_length_a	17.699097
_cell_length_b	16.776229
_cell_length_c	10.654550
_cell_angle_alpha	89.996754
_cell_angle_beta	96.113320
_cell_angle_gamma	90.009351
loop_
_atom_site_label
_atom_site_type_symbol
_atom_site_fract_x
_atom_site_fract_y
_atom_site_fract_z
O1	O	1.005081	0.066354	-0.158882
O2	O	0.784835	0.066341	-0.179526
O3	O	0.900022	0.066343	0.013623
O4	O	0.889894	0.066352	-0.352032
O5	O	0.900009	-0.066233	0.013624
O6	O	0.784822	-0.066235	-0.179526
O7	O	1.005068	-0.066222	-0.158882
Zn8	Zn	0.894943	-0.087278	-0.169204
Zn9	Zn	0.894960	0.087397	-0.169204
O10	O	0.889881	-0.066224	-0.352031
C11	C	0.756627	0.000051	-0.178784
C12	C	0.672596	0.000046	-0.176556
C13	C	0.156798	0.072346	-0.162902
C14	C	0.235755	0.072342	-0.164986
C15	C	0.275220	0.000071	-0.166030
C16	C	0.235725	-0.072200	-0.164977
C17	C	0.156770	-0.072196	-0.162883
C18	C	0.554143	-0.072221	-0.173418
C19	C	0.633104	-0.072220	-0.175515
C20	C	0.633128	0.072316	-0.175521
C21	C	0.554173	0.072321	-0.173427
C22	C	0.514685	0.000050	-0.172368
C23	C	0.429071	0.000055	-0.170105
C24	C	0.360833	0.000065	-0.168302
N25	N	0.894937	-0.206489	-0.169203
C26	C	0.941235	-0.248198	-0.245279
C27	C	0.941243	-0.331650	-0.245274
C28	C	0.894949	-0.373392	-0.169199
C29	C	0.848649	-0.331678	-0.093114
C30	C	0.848645	-0.248227	-0.093113
C31	C	0.848664	-0.668225	-0.093115
C32	C	0.848670	-0.751681	-0.093125
C33	C	0.941263	-0.751648	-0.245277
C34	C	0.941259	-0.668197	-0.245276
C35	C	0.894962	-0.626490	-0.169186
C36	C	0.894954	-0.536002	-0.169191
C37	C	0.894952	-0.463879	-0.169200
C38	C	1.033276	0.000069	-0.159625
C39	C	1.117308	0.000080	-0.161852
C40	C	0.899272	0.000055	0.060408
C41	C	0.897047	0.000056	0.199813
N42	N	0.894973	0.206608	-0.169196
C43	C	0.890631	0.000066	-0.398817
C44	C	0.892856	0.000070	-0.538221
C45	C	0.964867	0.000061	0.280480
C46	C	0.962772	0.000070	0.411465
C47	C	0.825031	0.000068	0.381101
C48	C	0.827127	0.000064	0.250119
H49	H	0.267905	0.131188	-0.165833
H50	H	0.978962	-0.785616	-0.307230
C51	C	0.748120	0.000069	0.436437
C52	C	0.691601	0.068911	0.405894
C53	C	0.614688	0.068909	0.461224
C54	C	0.594293	0.000066	0.547098
C55	C	0.650813	-0.068782	0.577646
C56	C	0.727727	-0.068780	0.522315
H57	H	0.706697	0.119878	0.342321
H58	H	0.572848	0.119875	0.438610
H59	H	0.537357	0.000065	0.588056
H60	H	0.635717	-0.119748	0.641218
H61	H	0.769567	-0.119746	0.544930
H62	H	0.978946	-0.365606	-0.307221
H63	H	0.522043	0.131171	-0.172584
H64	H	0.665289	0.131163	-0.176379
C65	C	0.752520	0.000058	0.161373
C66	C	0.735015	-0.068786	0.067154
C67	C	0.660412	-0.068787	-0.021593
C68	C	0.603316	0.000055	-0.016122
C69	C	0.620820	0.068904	0.078101
C70	C	0.695422	0.068906	0.166848
H71	H	0.777282	-0.119751	0.063100
H72	H	0.647455	-0.119754	-0.091343
H73	H	0.548091	0.000053	-0.081818
H74	H	0.578552	0.119869	0.082155
H75	H	0.708379	0.119873	0.236598
C76	C	0.992161	-0.202285	-0.328964
C77	C	1.078956	-0.213740	-0.310276
C78	C	1.129886	-0.167830	-0.393959
C79	C	1.094021	-0.110464	-0.496330
C80	C	1.007222	-0.099007	-0.515023
C81	C	0.956292	-0.144917	-0.431340
H82	H	1.105509	-0.256208	-0.234490
H83	H	1.194140	-0.176312	-0.380121
H84	H	1.131722	-0.076479	-0.558278
H85	H	0.980668	-0.056539	-0.590809
H86	H	0.892037	-0.136435	-0.445178
H87	H	0.267865	-0.131045	-0.165819
H88	H	0.124618	-0.131042	-0.162042
C89	C	0.992183	-0.622282	-0.328960
C90	C	1.043115	-0.668160	-0.412641
C91	C	1.094042	-0.622246	-0.496324
C92	C	1.094038	-0.530454	-0.496326
C93	C	1.043104	-0.484570	-0.412643
C94	C	0.992177	-0.530484	-0.328960
H95	H	1.043120	-0.736115	-0.412642
H96	H	1.131747	-0.656213	-0.558272
H97	H	1.131737	-0.496465	-0.558274
H98	H	1.043099	-0.416615	-0.412642
H99	H	0.954472	-0.496518	-0.267011
C100	C	0.797726	-0.622354	-0.009439
C101	C	0.746795	-0.668271	0.074224
C102	C	0.695851	-0.622396	0.157897
C103	C	0.695838	-0.530604	0.157908
C104	C	0.746770	-0.484681	0.074241
C105	C	0.797715	-0.530556	-0.009432
H106	H	0.746804	-0.736226	0.074219
H107	H	0.658147	-0.656392	0.219832
H108	H	0.658125	-0.496644	0.219848
H109	H	0.746762	-0.416726	0.074246
H110	H	0.835418	-0.496561	-0.071367
C111	C	1.037376	0.000071	0.500198
C112	C	1.054866	-0.068767	0.594434
C113	C	1.129474	-0.068766	0.683167
C114	C	1.186592	0.000074	0.677664
C115	C	1.169103	0.068917	0.583424
C116	C	1.094496	0.068916	0.494691
H117	H	1.012583	-0.119731	0.598512
H118	H	1.142420	-0.119728	0.752930
H119	H	1.241821	0.000075	0.743349
H120	H	1.211387	0.119881	0.579346
H121	H	1.081550	0.119878	0.424928
C122	C	0.676518	-0.151724	-0.176652
C123	C	0.722770	-0.171607	-0.287096
C124	C	0.766184	-0.251105	-0.288233
C125	C	0.763346	-0.310721	-0.178927
C126	C	0.717092	-0.290839	-0.068475
C127	C	0.673678	-0.211341	-0.067338
H128	H	0.724872	-0.127475	-0.368018
H129	H	0.800424	-0.265823	-0.369997
H130	H	0.795483	-0.369570	-0.179769
H131	H	0.714989	-0.334972	0.012447
H132	H	0.639438	-0.196624	0.014427
H133	H	0.810944	-0.214269	-0.031163
C134	C	1.041777	0.000060	0.225140
C135	C	1.098300	-0.068777	0.255689
C136	C	1.175212	-0.068775	0.200353
C137	C	1.195601	0.000066	0.114469
C138	C	1.139076	0.068909	0.083916
C139	C	1.062165	0.068906	0.139252
H140	H	1.083208	-0.119742	0.319269
H141	H	1.217055	-0.119738	0.222970
H142	H	1.252535	0.000068	0.073506
H143	H	1.154168	0.119873	0.020335
H144	H	1.020322	0.119869	0.116634
H145	H	0.522003	-0.131069	-0.172537
H146	H	0.810969	-0.785665	-0.031171
H147	H	0.124670	0.131197	-0.162061
H148	H	0.810959	-0.365671	-0.031165
