data_functionalizedCrystal
_audit_creation_method	'MofGen! by Chris Wilmer'
_symmetry_space_group_name_H-M	'P1'
_symmetry_Int_Tables_number	1
_symmetry_cell_setting	triclinic
loop_
_symmetry_equiv_pos_as_xyz
  x,y,z
_cell_length_a	27.731994
_cell_length_b	27.732048
_cell_length_c	26.809956
_cell_angle_alpha	89.988846
_cell_angle_beta	90.017800
_cell_angle_gamma	97.368405
loop_
_atom_site_label
_atom_site_type_symbol
_atom_site_fract_x
_atom_site_fract_y
_atom_site_fract_z
O1	O	0.640958	-0.057391	0.041414
O2	O	0.974291	0.275942	0.374747
O3	O	1.307625	0.609275	0.708080
O4	O	0.500161	-0.066164	0.041431
O5	O	0.833494	0.267169	0.374764
O6	O	1.166827	0.600502	0.708098
O7	O	0.574932	0.008620	0.041412
O8	O	0.908266	0.341953	0.374746
O9	O	1.241599	0.675286	0.708079
O10	O	0.566187	-0.132176	0.041432
O11	O	0.899520	0.201158	0.374766
O12	O	1.232853	0.534491	0.708099
O13	O	0.574899	0.008620	-0.041547
O14	O	0.908232	0.341954	0.291787
O15	O	1.241565	0.675287	0.625120
O16	O	0.500127	-0.066164	-0.041528
O17	O	0.833460	0.267170	0.291805
O18	O	1.166794	0.600503	0.625139
O19	O	0.640924	-0.057391	-0.041545
O20	O	0.974258	0.275943	0.291788
O21	O	1.307591	0.609276	0.625121
Zn22	Zn	0.570520	-0.061777	-0.054708
Zn23	Zn	0.903854	0.271556	0.278625
Zn24	Zn	1.237187	0.604890	0.611958
Zn25	Zn	0.570565	-0.061778	0.054594
Zn26	Zn	0.903898	0.271555	0.387927
Zn27	Zn	1.237231	0.604889	0.721261
O28	O	0.566153	-0.132175	-0.041527
O29	O	0.899486	0.201159	0.291807
O30	O	1.232819	0.534492	0.625140
C31	C	0.482137	-0.065984	-0.000046
C32	C	0.815470	0.267349	0.333287
C33	C	1.148803	0.600683	0.666620
C34	C	0.428480	-0.065442	-0.000040
C35	C	0.761814	0.267892	0.333293
C36	C	1.095147	0.601225	0.666626
C37	C	0.095743	-0.062025	-0.045281
C38	C	0.429077	0.271308	0.288052
C39	C	0.762410	0.604641	0.621386
C40	C	-0.105915	-0.059964	-0.045287
C41	C	0.227419	0.273370	0.288046
C42	C	0.560752	0.606703	0.621380
O43	O	-0.132003	-0.059676	-0.083746
O44	O	0.201330	0.273657	0.249588
O45	O	0.534664	0.606991	0.582921
N46	N	-0.131111	-0.059708	-0.000066
N47	N	0.202222	0.273625	0.333267
N48	N	0.535555	0.606958	0.666601
C49	C	-0.105890	-0.059965	0.045160
C50	C	0.227444	0.273369	0.378493
C51	C	0.560777	0.606702	0.711826
O52	O	-0.131947	-0.059695	0.083623
O53	O	0.201386	0.273638	0.416956
O54	O	0.534719	0.606972	0.750290
C55	C	0.095768	-0.062023	0.045165
C56	C	0.429101	0.271310	0.378499
C57	C	0.762435	0.604644	0.711832
C58	C	0.120961	-0.062283	-0.000059
C59	C	0.454295	0.271050	0.333275
C60	C	0.787628	0.604383	0.666608
C61	C	0.120937	-0.062285	-0.090501
C62	C	0.454270	0.271048	0.242832
C63	C	0.787603	0.604381	0.576165
C64	C	0.171348	-0.062803	-0.090499
C65	C	0.504681	0.270530	0.242834
C66	C	0.838014	0.603863	0.576167
C67	C	0.196566	-0.063061	-0.045277
C68	C	0.529899	0.270272	0.288056
C69	C	0.863232	0.603605	0.621390
C70	C	0.171372	-0.062801	-0.000057
C71	C	0.504706	0.270532	0.333276
C72	C	0.838039	0.603865	0.666610
C73	C	0.120989	-0.062276	0.090390
C74	C	0.454323	0.271057	0.423724
C75	C	0.787656	0.604391	0.757057
C76	C	0.171407	-0.062789	0.090388
C77	C	0.504740	0.270544	0.423721
C78	C	0.838074	0.603877	0.757054
C79	C	0.196600	-0.063050	0.045164
C80	C	0.529934	0.270283	0.378497
C81	C	0.863267	0.603617	0.711830
C82	C	0.247001	-0.063578	0.045167
C83	C	0.580335	0.269756	0.378501
C84	C	0.913668	0.603089	0.711834
N85	N	0.272198	-0.063833	-0.000054
N86	N	0.605531	0.269500	0.333280
N87	N	0.938865	0.602833	0.666613
C88	C	0.246980	-0.063575	-0.045276
C89	C	0.580313	0.269758	0.288057
C90	C	0.913647	0.603092	0.621391
C91	C	-0.211763	-0.058885	0.045154
C92	C	0.121570	0.274448	0.378487
C93	C	0.454904	0.607781	0.711820
C94	C	-0.262177	-0.058372	0.045152
C95	C	0.071156	0.274962	0.378486
C96	C	0.404489	0.608295	0.711819
C97	C	-0.262199	-0.058370	-0.045294
C98	C	0.071135	0.274964	0.288039
C99	C	0.404468	0.608297	0.621372
C100	C	-0.211784	-0.058887	-0.045293
C101	C	0.121549	0.274447	0.288041
C102	C	0.454883	0.607780	0.621374
C103	C	-0.186567	-0.059141	-0.000067
C104	C	0.146767	0.274193	0.333266
C105	C	0.480100	0.607526	0.666599
C106	C	0.352847	-0.064663	-0.045268
C107	C	0.686180	0.268670	0.288065
C108	C	1.019514	0.602003	0.621398
C109	C	0.403262	-0.065184	-0.045262
C110	C	0.736596	0.268150	0.288071
C111	C	1.069929	0.601483	0.621404
C112	C	0.403280	-0.065183	0.045184
C113	C	0.736613	0.268151	0.378517
C114	C	1.069946	0.601484	0.711851
C115	C	0.352869	-0.064665	0.045179
C116	C	0.686202	0.268668	0.378512
C117	C	1.019535	0.602001	0.711845
C118	C	0.327654	-0.064404	-0.000052
C119	C	0.660987	0.268929	0.333282
C120	C	0.994320	0.602263	0.666615
O121	O	0.273121	-0.063860	0.083606
O122	O	0.606455	0.269473	0.416939
O123	O	0.939788	0.602807	0.750273
O124	O	0.273048	-0.063834	-0.083733
O125	O	0.606381	0.269499	0.249600
O126	O	0.939714	0.602833	0.582933
C127	C	0.045332	-0.061507	-0.045283
C128	C	0.378666	0.271826	0.288050
C129	C	0.711999	0.605159	0.621384
C130	C	0.020139	-0.061247	-0.000063
C131	C	0.353472	0.272086	0.333271
C132	C	0.686806	0.605419	0.666604
C133	C	0.045357	-0.061505	0.045160
C134	C	0.378690	0.271828	0.378493
C135	C	0.712023	0.605161	0.711826
C136	C	-0.030275	-0.060734	-0.000064
C137	C	0.303058	0.272600	0.333269
C138	C	0.636391	0.605933	0.666603
C139	C	-0.055493	-0.060476	-0.045286
C140	C	0.277840	0.272858	0.288047
C141	C	0.611173	0.606191	0.621381
C142	C	-0.030297	-0.060731	-0.090507
C143	C	0.303037	0.272602	0.242826
C144	C	0.636370	0.605935	0.576160
C145	C	0.020114	-0.061249	-0.090505
C146	C	0.353448	0.272084	0.242828
C147	C	0.686781	0.605417	0.576161
C148	C	0.020160	-0.061250	0.090381
C149	C	0.353494	0.272083	0.423714
C150	C	0.686827	0.605417	0.757047
C151	C	-0.030251	-0.060732	0.090375
C152	C	0.303082	0.272601	0.423708
C153	C	0.636416	0.605934	0.757042
C154	C	-0.055469	-0.060474	0.045153
C155	C	0.277865	0.272859	0.378486
C156	C	0.611198	0.606192	0.711819
C157	C	0.574732	0.026627	-0.000069
C158	C	0.908065	0.359960	0.333265
C159	C	1.241398	0.693294	0.666598
C160	C	0.574179	0.080282	-0.000073
C161	C	0.907512	0.413615	0.333261
C162	C	1.240846	0.746948	0.666594
C163	C	0.658949	-0.057571	-0.000067
C164	C	0.992282	0.275762	0.333266
C165	C	1.325615	0.609096	0.666600
C166	C	0.712605	-0.058114	-0.000070
C167	C	1.045938	0.275220	0.333264
C168	C	1.379272	0.608553	0.666597
N169	N	0.570494	-0.061776	-0.129304
N170	N	0.903827	0.271557	0.204029
N171	N	1.237160	0.604891	0.537362
C172	C	0.566353	-0.150182	-0.000045
C173	C	0.899687	0.183151	0.333289
C174	C	1.233020	0.516485	0.666622
C175	C	0.566906	-0.203837	-0.000037
C176	C	0.900239	0.129497	0.333296
C177	C	1.233573	0.462830	0.666629
C178	C	0.614884	0.419105	-0.000052
C179	C	0.948217	0.752438	0.333281
C180	C	1.281551	1.085771	0.666615
C181	C	0.612833	0.620764	-0.000045
C182	C	0.946166	0.954097	0.333289
C183	C	1.279499	1.287431	0.666622
O184	O	0.650055	0.652027	-0.000028
O185	O	0.983388	0.985360	0.333306
O186	O	1.316721	1.318693	0.666639
N187	N	0.568496	0.639879	-0.000040
N188	N	0.901830	0.973212	0.333294
N189	N	1.235163	1.306546	0.666627
C190	C	0.524670	0.608576	-0.000033
C191	C	0.858003	0.941909	0.333300
C192	C	1.191336	1.275242	0.666633
O193	O	0.486912	0.629462	-0.000024
O194	O	0.820245	0.962795	0.333310
O195	O	1.153578	1.296128	0.666643
C196	C	0.526721	0.406918	-0.000037
C197	C	0.860055	0.740251	0.333296
C198	C	1.193388	1.073584	0.666630
C199	C	0.571060	0.387805	-0.000047
C200	C	0.904394	0.721139	0.333286
C201	C	1.237727	1.054472	0.666620
C202	C	0.659220	0.399992	-0.000061
C203	C	0.992553	0.733325	0.333272
C204	C	1.325886	1.066659	0.666605
C205	C	0.659732	0.349580	-0.000066
C206	C	0.993065	0.682914	0.333267
C207	C	1.326398	1.016247	0.666601
C208	C	0.615908	0.318281	-0.000061
C209	C	0.949242	0.651614	0.333272
C210	C	1.282575	0.984948	0.666606
C211	C	0.571573	0.337394	-0.000052
C212	C	0.904906	0.670727	0.333282
C213	C	1.238239	1.004060	0.666615
C214	C	0.482895	0.375615	-0.000027
C215	C	0.816228	0.708949	0.333306
C216	C	1.149562	1.042282	0.666640
C217	C	0.483412	0.325198	-0.000027
C218	C	0.816745	0.658532	0.333307
C219	C	1.150078	0.991865	0.666640
C220	C	0.527751	0.306086	-0.000037
C221	C	0.861084	0.639419	0.333297
C222	C	1.194418	0.972753	0.666630
C223	C	0.528262	0.255683	-0.000051
C224	C	0.861595	0.589016	0.333282
C225	C	1.194928	0.922349	0.666616
N226	N	0.572598	0.236567	-0.000056
N227	N	0.905931	0.569901	0.333277
N228	N	1.239265	0.903234	0.666611
C229	C	0.616421	0.267867	-0.000061
C230	C	0.949755	0.601200	0.333272
C231	C	1.283088	0.934533	0.666606
C232	C	0.523596	0.714450	-0.000032
C233	C	0.856929	1.047783	0.333301
C234	C	1.190262	1.381116	0.666634
C235	C	0.523083	0.764864	-0.000032
C236	C	0.856416	1.098197	0.333301
C237	C	1.189749	1.431531	0.666634
C238	C	0.611246	0.777049	-0.000043
C239	C	0.944579	1.110382	0.333290
C240	C	1.277913	1.443715	0.666624
C241	C	0.611759	0.726633	-0.000047
C242	C	0.945092	1.059967	0.333287
C243	C	1.278425	1.393300	0.666620
C244	C	0.567932	0.695335	-0.000037
C245	C	0.901265	1.028668	0.333296
C246	C	1.234599	1.362001	0.666629
C247	C	0.617494	0.161998	-0.000071
C248	C	0.950827	0.495331	0.333262
C249	C	1.284161	0.828664	0.666596
C250	C	0.618002	0.111581	-0.000078
C251	C	0.951336	0.444914	0.333256
C252	C	1.284669	0.778248	0.666589
C253	C	0.529839	0.099401	-0.000064
C254	C	0.863173	0.432734	0.333269
C255	C	1.196506	0.766067	0.666602
C256	C	0.529331	0.149813	-0.000060
C257	C	0.862664	0.483146	0.333273
C258	C	1.195997	0.816480	0.666606
C259	C	0.573162	0.181111	-0.000062
C260	C	0.906495	0.514444	0.333271
C261	C	1.239829	0.847778	0.666605
O262	O	0.491060	0.224391	-0.000063
O263	O	0.824393	0.557725	0.333271
O264	O	1.157727	0.891058	0.666604
O265	O	0.654174	0.246971	-0.000060
O266	O	0.987507	0.580305	0.333274
O267	O	1.320841	0.913638	0.666607
C268	C	0.614372	0.469517	-0.000047
C269	C	0.947705	0.802850	0.333286
C270	C	1.281038	1.136183	0.666619
C271	C	0.570036	0.488629	-0.000038
C272	C	0.903369	0.821963	0.333295
C273	C	1.236703	1.155296	0.666629
C274	C	0.526213	0.457330	-0.000033
C275	C	0.859546	0.790663	0.333300
C276	C	1.192879	1.123997	0.666634
C277	C	0.569523	0.539043	-0.000038
C278	C	0.902856	0.872377	0.333295
C279	C	1.236190	1.205710	0.666629
C280	C	0.613346	0.570343	-0.000043
C281	C	0.946680	0.903676	0.333290
C282	C	1.280013	1.237009	0.666624
C283	C	0.657683	0.551228	-0.000048
C284	C	0.991016	0.884561	0.333285
C285	C	1.324349	1.217894	0.666619
C286	C	0.658195	0.500816	-0.000052
C287	C	0.991528	0.834149	0.333281
C288	C	1.324862	1.167482	0.666614
C289	C	0.481876	0.476445	-0.000028
C290	C	0.815209	0.809778	0.333305
C291	C	1.148543	1.143112	0.666639
C292	C	0.481367	0.526857	-0.000024
C293	C	0.814701	0.860191	0.333309
C294	C	1.148034	1.193524	0.666643
C295	C	0.525191	0.558157	-0.000029
C296	C	0.858524	0.891490	0.333304
C297	C	1.191857	1.224823	0.666638
C298	C	0.537423	-0.094877	-0.526179
C299	C	0.870756	0.238457	-0.192846
C300	C	1.204089	0.571790	0.140487
C301	C	0.537398	-0.094877	-0.317302
C302	C	0.870731	0.238456	0.016032
C303	C	1.204064	0.571790	0.349365
O304	O	0.509219	-0.123016	-0.290294
O305	O	0.842552	0.210317	0.043039
O306	O	1.175885	0.543651	0.376373
N307	N	0.570510	-0.061774	-0.291183
N308	N	0.903844	0.271559	0.042150
N309	N	1.237177	0.604892	0.375484
C310	C	0.603630	-0.028667	-0.317287
C311	C	0.936963	0.304666	0.016047
C312	C	1.270297	0.637999	0.349380
O313	O	0.631790	-0.000508	-0.290278
O314	O	0.965124	0.332825	0.043055
O315	O	1.298457	0.666159	0.376388
C316	C	0.603652	-0.028665	-0.526163
C317	C	0.936986	0.304668	-0.192830
C318	C	1.270319	0.638002	0.140503
C319	C	0.570541	-0.061773	-0.552280
C320	C	0.903874	0.271560	-0.218946
C321	C	1.237207	0.604894	0.114387
C322	C	0.504313	-0.127982	-0.552296
C323	C	0.837647	0.205351	-0.218962
C324	C	1.170980	0.538685	0.114371
C325	C	0.504322	-0.127983	-0.604512
C326	C	0.837655	0.205350	-0.271179
C327	C	1.170988	0.538683	0.062155
C328	C	0.537440	-0.094880	-0.630612
C329	C	0.870773	0.238454	-0.297279
C330	C	1.204106	0.571787	0.036055
C331	C	0.570549	-0.061775	-0.604496
C332	C	0.903882	0.271559	-0.271163
C333	C	1.237216	0.604892	0.062171
C334	C	0.636769	0.004444	-0.552266
C335	C	0.970102	0.337777	-0.218933
C336	C	1.303436	0.671111	0.114400
C337	C	0.636771	0.004442	-0.604489
C338	C	0.970104	0.337776	-0.271156
C339	C	1.303438	0.671109	0.062178
C340	C	0.603659	-0.028666	-0.630605
C341	C	0.936993	0.304668	-0.297272
C342	C	1.270326	0.638001	0.036062
C343	C	0.603675	-0.028672	-0.682812
C344	C	0.937009	0.304661	-0.349479
C345	C	1.270342	0.637994	-0.016146
N346	N	0.570562	-0.061775	-0.708931
N347	N	0.903896	0.271558	-0.375598
N348	N	1.237229	0.604892	-0.042264
C349	C	0.537445	-0.094879	-0.682831
C350	C	0.870778	0.238455	-0.349498
C351	C	1.204111	0.571788	-0.016164
C352	C	0.603616	-0.028671	-0.207623
C353	C	0.936950	0.304662	0.125710
C354	C	1.270283	0.637995	0.459043
C355	C	0.603611	-0.028672	-0.155405
C356	C	0.936945	0.304661	0.177929
C357	C	1.270278	0.637994	0.511262
C358	C	0.537378	-0.094882	-0.155423
C359	C	0.870712	0.238452	0.177910
C360	C	1.204045	0.571785	0.511244
C361	C	0.537386	-0.094883	-0.207643
C362	C	0.870719	0.238451	0.125690
C363	C	1.204053	0.571784	0.459024
C364	C	0.570503	-0.061774	-0.233742
C365	C	0.903837	0.271559	0.099591
C366	C	1.237170	0.604893	0.432924
C367	C	0.537465	-0.094879	-0.792489
C368	C	0.870798	0.238454	-0.459156
C369	C	1.204132	0.571788	-0.125822
C370	C	0.537478	-0.094879	-0.844710
C371	C	0.870811	0.238454	-0.511377
C372	C	1.204144	0.571788	-0.178043
C373	C	0.603709	-0.028668	-0.844687
C374	C	0.937042	0.304665	-0.511353
C375	C	1.270375	0.637999	-0.178020
C376	C	0.603698	-0.028670	-0.792470
C377	C	0.937031	0.304664	-0.459137
C378	C	1.270365	0.637997	-0.125804
C379	C	0.570572	-0.061777	-0.766373
C380	C	0.903905	0.271556	-0.433039
C381	C	1.237239	0.604889	-0.099706
O382	O	0.631836	-0.000545	-0.709852
O383	O	0.965169	0.332789	-0.376519
O384	O	1.298502	0.666122	-0.043186
O385	O	0.509281	-0.123026	-0.709848
O386	O	0.842614	0.210307	-0.376515
O387	O	1.175948	0.543640	-0.043182
C388	C	0.537414	-0.094875	-0.473963
C389	C	0.870748	0.238458	-0.140630
C390	C	1.204081	0.571791	0.192704
C391	C	0.570524	-0.061770	-0.447847
C392	C	0.903857	0.271563	-0.114514
C393	C	1.237190	0.604896	0.218820
C394	C	0.603642	-0.028667	-0.473947
C395	C	0.936975	0.304667	-0.140614
C396	C	1.270308	0.638000	0.192720
C397	C	0.570519	-0.061771	-0.395628
C398	C	0.903852	0.271562	-0.062295
C399	C	1.237186	0.604895	0.271039
C400	C	0.537401	-0.094875	-0.369528
C401	C	0.870734	0.238458	-0.036195
C402	C	1.204068	0.571792	0.297139
C403	C	0.504288	-0.127978	-0.395647
C404	C	0.837622	0.205356	-0.062313
C405	C	1.170955	0.538689	0.271020
C406	C	0.504297	-0.127979	-0.447863
C407	C	0.837630	0.205354	-0.114530
C408	C	1.170963	0.538688	0.218804
C409	C	0.636755	0.004436	-0.447828
C410	C	0.970088	0.337769	-0.114495
C411	C	1.303421	0.671103	0.218838
C412	C	0.636744	0.004434	-0.395612
C413	C	0.970077	0.337768	-0.062279
C414	C	1.303410	0.671101	0.271055
C415	C	0.603626	-0.028669	-0.369512
C416	C	0.936959	0.304664	-0.036179
C417	C	1.270293	0.637997	0.297155
N418	N	0.570595	-0.061775	0.129190
N419	N	0.903929	0.271558	0.462523
N420	N	1.237262	0.604891	0.795857
H421	H	0.332322	-0.064455	-0.082099
H422	H	0.665656	0.268878	0.251234
H423	H	0.998989	0.602212	0.584567
H424	H	0.693365	0.576720	-0.000054
H425	H	1.026699	0.910054	0.333279
H426	H	1.360032	1.243387	0.666612
H427	H	0.477358	-0.154941	-0.625773
H428	H	0.810691	0.178392	-0.292439
H429	H	1.144025	0.511725	0.040894
H430	H	0.654110	0.096023	-0.000087
H431	H	0.987444	0.429356	0.333246
H432	H	1.320777	0.762690	0.666580
H433	H	0.694301	0.485260	-0.000060
H434	H	1.027634	0.818593	0.333273
H435	H	1.360967	1.151926	0.666606
H436	H	-0.191235	-0.059092	0.081984
H437	H	0.142098	0.274242	0.415317
H438	H	0.475431	0.607575	0.748650
H439	H	0.630579	-0.001718	-0.134144
H440	H	0.963912	0.331616	0.199189
H441	H	1.297246	0.664949	0.532522
H442	H	0.100486	-0.062063	0.127217
H443	H	0.433819	0.271270	0.460550
H444	H	0.767152	0.604603	0.793883
H445	H	0.494160	0.073908	-0.000062
H446	H	0.827493	0.407241	0.333271
H447	H	1.160826	0.740575	0.666605
H448	H	0.446789	0.391167	-0.000016
H449	H	0.780123	0.724501	0.333318
H450	H	1.113456	1.057834	0.666651
H451	H	0.191937	-0.062997	0.127217
H452	H	0.525270	0.270337	0.460550
H453	H	0.858603	0.603670	0.793883
H454	H	0.663723	0.031394	-0.469075
H455	H	0.997056	0.364727	-0.135742
H456	H	1.330389	0.698060	0.197592
H457	H	-0.050838	-0.060524	-0.127329
H458	H	0.282495	0.272810	0.206005
H459	H	0.615828	0.606143	0.539338
H460	H	0.477343	-0.154939	-0.531049
H461	H	0.810676	0.178395	-0.197716
H462	H	1.144009	0.511728	0.135617
H463	H	0.630665	-0.001715	-0.771206
H464	H	0.963998	0.331618	-0.437873
H465	H	1.297332	0.664952	-0.104540
H466	H	0.630586	-0.001710	-0.228870
H467	H	0.963919	0.331624	0.104463
H468	H	1.297252	0.664957	0.437797
H469	H	0.663731	0.031404	-0.531010
H470	H	0.997065	0.364737	-0.197677
H471	H	1.330398	0.698070	0.135657
H472	H	0.510423	-0.121842	-0.228904
H473	H	0.843757	0.211492	0.104430
H474	H	1.177090	0.544825	0.437763
H475	H	0.510413	-0.121837	-0.134164
H476	H	0.843746	0.211497	0.199170
H477	H	1.177080	0.544830	0.532503
H478	H	0.630674	-0.001717	-0.865946
H479	H	0.964008	0.331617	-0.532612
H480	H	1.297341	0.664950	-0.199279
H481	H	0.510490	-0.121838	-0.771246
H482	H	0.843824	0.211496	-0.437913
H483	H	1.177157	0.544829	-0.104579
H484	H	0.663739	0.031405	-0.625736
H485	H	0.997072	0.364738	-0.292403
H486	H	1.330405	0.698072	0.040930
H487	H	0.647863	0.711076	-0.000054
H488	H	0.981197	1.044409	0.333279
H489	H	1.314530	1.377743	0.666612
H490	H	0.332354	-0.064461	0.082004
H491	H	0.665687	0.268872	0.415337
H492	H	0.999021	0.602206	0.748670
H493	H	0.040688	-0.061459	0.127207
H494	H	0.374021	0.271875	0.460540
H495	H	0.707355	0.605208	0.793873
H496	H	0.445258	0.542413	-0.000020
H497	H	0.778592	0.875747	0.333313
H498	H	1.111925	1.209080	0.666646
H499	H	0.493226	0.165375	-0.000066
H500	H	0.826559	0.498708	0.333267
H501	H	1.159893	0.832041	0.666601
H502	H	0.447722	0.299716	-0.000018
H503	H	0.781055	0.633050	0.333315
H504	H	1.114389	0.966383	0.666648
H505	H	0.446189	0.450966	-0.000023
H506	H	0.779522	0.784299	0.333310
H507	H	1.112856	1.117632	0.666644
H508	H	0.510514	-0.121841	-0.865972
H509	H	0.843847	0.211492	-0.532639
H510	H	1.177181	0.544825	-0.199305
H511	H	0.477334	-0.154939	-0.469123
H512	H	0.810667	0.178395	-0.135790
H513	H	1.144000	0.511728	0.197544
H514	H	0.477324	-0.154934	-0.374387
H515	H	0.810657	0.178399	-0.041054
H516	H	1.143990	0.511733	0.292279
H517	H	0.663712	0.031394	-0.374352
H518	H	0.997045	0.364727	-0.041019
H519	H	1.330378	0.698061	0.292315
H520	H	0.423772	-0.065397	-0.082091
H521	H	0.757105	0.267936	0.251242
H522	H	1.090439	0.601269	0.584576
H523	H	0.191856	-0.063013	-0.127325
H524	H	0.525189	0.270321	0.206008
H525	H	0.858523	0.603654	0.539341
H526	H	0.646929	0.802541	-0.000047
H527	H	0.980262	1.135875	0.333286
H528	H	1.313595	1.469208	0.666619
H529	H	-0.191275	-0.059099	-0.082118
H530	H	0.142058	0.274234	0.251215
H531	H	0.475391	0.607567	0.584549
H532	H	0.100410	-0.062074	-0.127329
H533	H	0.433743	0.271259	0.206005
H534	H	0.767076	0.604593	0.539338
H535	H	-0.282740	-0.058161	-0.082116
H536	H	0.050593	0.275173	0.251217
H537	H	0.383927	0.608506	0.584550
H538	H	-0.282686	-0.058167	0.081978
H539	H	0.050647	0.275166	0.415312
H540	H	0.383980	0.608499	0.748645
H541	H	0.486977	0.780420	-0.000033
H542	H	0.820311	1.113754	0.333300
H543	H	1.153644	1.447087	0.666634
H544	H	0.423821	-0.065395	0.082003
H545	H	0.757154	0.267938	0.415336
H546	H	1.090488	0.601272	0.748670
H547	H	0.653186	0.187475	-0.000070
H548	H	0.986519	0.520808	0.333263
H549	H	1.319852	0.854142	0.666596
H550	H	0.040622	-0.061461	-0.127331
H551	H	0.373955	0.271872	0.206002
H552	H	0.707289	0.605205	0.539335
H553	H	-0.050759	-0.060524	0.127205
H554	H	0.282574	0.272809	0.460538
H555	H	0.615907	0.606142	0.793871
H556	H	0.694908	0.425472	-0.000064
H557	H	1.028241	0.758805	0.333270
H558	H	1.361575	1.092138	0.666603
H559	H	0.487905	0.688970	-0.000025
H560	H	0.821238	1.022303	0.333308
H561	H	1.154571	1.355637	0.666642
H562	H	0.695837	0.334024	-0.000072
H563	H	1.029171	0.667358	0.333261
H564	H	1.362504	1.000691	0.666595
