data_functionalizedCrystal
_audit_creation_method	'MofGen! by Chris Wilmer'
_symmetry_space_group_name_H-M	'P1'
_symmetry_Int_Tables_number	1
_symmetry_cell_setting	triclinic
loop_
_symmetry_equiv_pos_as_xyz
  x,y,z
_cell_length_a	29.839134
_cell_length_b	29.839131
_cell_length_c	29.839125
_cell_angle_alpha	89.982291
_cell_angle_beta	90.021980
_cell_angle_gamma	89.963719
loop_
_atom_site_label
_atom_site_type_symbol
_atom_site_fract_x
_atom_site_fract_y
_atom_site_fract_z
Zn1	Zn	0.686720	0.178978	0.254125
Zn2	Zn	0.686652	0.254090	0.178995
Zn3	Zn	0.611602	0.178968	0.178995
Zn4	Zn	0.611550	0.254075	0.254083
O5	O	0.649131	0.216528	0.216549
O6	O	0.749578	0.188952	0.244176
O7	O	0.676690	0.244127	0.116128
O8	O	0.621617	0.116102	0.188978
O9	O	0.749528	0.244137	0.188979
O10	O	0.676805	0.116109	0.244176
O11	O	0.621551	0.188935	0.116127
O12	O	0.548728	0.188921	0.188938
O13	O	0.621528	0.244111	0.316956
O14	O	0.548690	0.244101	0.244105
O15	O	0.676755	0.188937	0.316987
O16	O	0.676639	0.316955	0.188938
O17	O	0.621462	0.316944	0.244105
C18	C	0.532408	0.216509	0.216517
C19	C	0.482474	0.216511	0.216514
C20	C	0.649050	0.333250	0.216527
C21	C	0.649056	0.383185	0.216533
C22	C	0.172820	0.245303	0.245240
C23	C	-0.014853	0.245315	0.245260
O24	O	-0.039127	0.269774	0.269665
N25	N	-0.038311	0.216544	0.216583
C26	C	-0.014848	0.187766	0.187902
O27	O	-0.039107	0.163291	0.163514
C28	C	0.172824	0.187751	0.187884
C29	C	0.196280	0.216527	0.216560
C30	C	0.196276	0.274076	0.273913
C31	C	0.243191	0.274075	0.273906
C32	C	0.266651	0.245299	0.245226
C33	C	0.243195	0.216526	0.216553
C34	C	0.196286	0.158971	0.159205
C35	C	0.243207	0.158969	0.159204
C36	C	0.266663	0.187745	0.187880
C37	C	0.313570	0.187749	0.187865
N38	N	0.337029	0.216520	0.216542
C39	C	0.313569	0.245295	0.245222
C40	C	-0.113379	0.187776	0.187912
C41	C	-0.160297	0.187780	0.187916
C42	C	-0.160298	0.245329	0.245275
C43	C	-0.113380	0.245327	0.245269
C44	C	-0.089921	0.216547	0.216589
C45	C	0.412095	0.245290	0.245205
C46	C	0.459014	0.245287	0.245194
C47	C	0.459012	0.187736	0.187837
C48	C	0.412096	0.187740	0.187846
C49	C	0.388639	0.216519	0.216534
O50	O	0.337873	0.163299	0.163477
O51	O	0.337836	0.269759	0.269613
C52	C	0.125905	0.245304	0.245247
C53	C	0.102449	0.216531	0.216574
C54	C	0.125909	0.187755	0.187893
C55	C	0.055531	0.216535	0.216577
C56	C	0.032071	0.245310	0.245258
C57	C	0.055529	0.274082	0.273934
C58	C	0.102445	0.274080	0.273927
C59	C	0.102451	0.158984	0.159217
C60	C	0.055535	0.158989	0.159226
C61	C	0.032075	0.187764	0.187906
C62	C	0.649143	0.216524	0.333728
C63	C	0.649148	0.216522	0.383662
C64	C	0.766309	0.216547	0.216582
C65	C	0.816244	0.216555	0.216596
C66	C	0.649225	0.099349	0.216582
C67	C	0.649265	0.049415	0.216595
C68	C	0.677914	0.692821	0.187866
C69	C	0.677969	0.880494	0.187883
O70	O	0.702441	0.904753	0.163493
N71	N	0.649224	0.903970	0.216583
C72	C	0.620465	0.880524	0.245283
O73	O	0.596020	0.904798	0.269698
C74	C	0.620412	0.692852	0.245268
C75	C	0.649156	0.669379	0.216563
C76	C	0.706656	0.669348	0.159164
C77	C	0.706640	0.622433	0.159158
C78	C	0.677882	0.598990	0.187854
C79	C	0.649140	0.622463	0.216557
C80	C	0.591656	0.669407	0.273969
C81	C	0.591646	0.622486	0.273964
C82	C	0.620390	0.599013	0.245259
C83	C	0.620367	0.552106	0.245248
N84	N	0.649112	0.528630	0.216548
C85	C	0.677869	0.552072	0.187851
C86	C	0.620494	0.979055	0.245289
C87	C	0.620507	1.025973	0.245292
C88	C	0.678012	1.025939	0.187893
C89	C	0.677996	0.979021	0.187887
C90	C	0.649239	0.955579	0.216589
C91	C	0.677834	0.453547	0.187841
C92	C	0.677814	0.406627	0.187836
C93	C	0.620311	0.406664	0.245237
C94	C	0.620329	0.453580	0.245240
C95	C	0.649094	0.477020	0.216540
O96	O	0.595912	0.527818	0.269629
O97	O	0.702318	0.527791	0.163447
C98	C	0.677930	0.739737	0.187872
C99	C	0.649188	0.763210	0.216574
C100	C	0.620430	0.739767	0.245271
C101	C	0.649200	0.810128	0.216578
C102	C	0.677958	0.833570	0.187881
C103	C	0.706703	0.810094	0.159181
C104	C	0.706687	0.763179	0.159175
C105	C	0.591685	0.763243	0.273971
C106	C	0.591703	0.810158	0.273974
C107	C	0.620461	0.833601	0.245277
C108	C	0.649145	0.216499	0.099827
C109	C	0.649227	0.216374	0.049893
C110	C	0.677935	0.187718	0.693325
C111	C	0.677957	0.187680	0.880998
O112	O	0.702399	0.163232	0.905279
N113	N	0.649208	0.216402	0.904448
C114	C	0.620449	0.245133	0.880976
O115	O	0.595993	0.269559	0.905228
C116	C	0.620424	0.245169	0.693304
C117	C	0.649179	0.216448	0.669857
C118	C	0.706687	0.158999	0.669877
C119	C	0.706683	0.159011	0.622962
C120	C	0.677927	0.187741	0.599494
C121	C	0.649175	0.216460	0.622941
C122	C	0.591663	0.273898	0.669833
C123	C	0.591659	0.273903	0.622912
C124	C	0.620414	0.245183	0.599465
C125	C	0.620415	0.245202	0.552558
N126	N	0.649164	0.216480	0.529108
C127	C	0.677920	0.187749	0.552576
C128	C	0.620464	0.245113	0.979507
C129	C	0.620471	0.245105	1.026425
C130	C	0.677979	0.187650	1.026443
C131	C	0.677974	0.187661	0.979524
C132	C	0.649214	0.216391	0.956057
C133	C	0.677910	0.187776	0.454050
C134	C	0.677904	0.187792	0.407130
C135	C	0.620395	0.245244	0.407116
C136	C	0.620401	0.245230	0.454032
C137	C	0.649161	0.216493	0.477497
O138	O	0.595982	0.269633	0.528248
O139	O	0.702366	0.163320	0.528316
C140	C	0.677939	0.187706	0.740240
C141	C	0.649187	0.216425	0.763688
C142	C	0.620431	0.245155	0.740219
C143	C	0.649194	0.216417	0.810605
C144	C	0.677950	0.187686	0.834074
C145	C	0.706699	0.158964	0.810624
C146	C	0.706695	0.158976	0.763708
C147	C	0.591682	0.273877	0.763669
C148	C	0.591689	0.273864	0.810585
C149	C	0.620445	0.245133	0.834053
H150	H	0.478110	0.268721	0.268545
H151	H	0.701393	0.164257	1.045559
H152	H	0.597061	0.268497	1.045512
H153	H	0.393001	0.268723	0.268566
H154	H	0.701321	0.164403	0.388042
O155	O	0.030223	0.305117	0.304872
H156	H	-0.006342	0.300277	0.300058
H157	H	0.730047	0.603324	0.135785
O158	O	-0.185595	0.156753	0.156979
H159	H	-0.206954	0.133929	0.177126
O160	O	0.708864	0.478817	0.156887
H161	H	0.731720	0.500156	0.177021
H162	H	0.597097	1.045080	0.268662
H163	H	0.177197	0.135539	0.135854
O164	O	0.589376	0.276228	0.381800
H165	H	0.594202	0.271403	0.345237
H166	H	0.701327	0.164374	0.473150
O167	O	0.708988	0.156685	0.954237
H168	H	0.688899	0.133828	0.932857
O169	O	0.709007	0.953709	0.156932
H170	H	0.731843	0.932307	0.177066
H171	H	0.730076	0.688430	0.135795
O172	O	0.589465	0.953773	0.276236
H173	H	0.569476	0.977984	0.296184
O174	O	0.560696	0.835470	0.304937
H175	H	0.537855	0.856874	0.284812
O176	O	0.560642	0.304871	0.695113
H177	H	0.568309	0.340133	0.686101
O178	O	-0.185608	0.276412	0.276162
H179	H	-0.161419	0.296438	0.296087
H180	H	0.730097	0.135623	0.603875
H181	H	0.478121	0.164309	0.164485
H182	H	0.597044	0.268511	0.960404
O183	O	0.268510	0.127932	0.128265
H184	H	0.244315	0.107930	0.108325
O185	O	-0.088078	0.156744	0.156967
H186	H	-0.112277	0.136747	0.137023
O187	O	0.386786	0.156714	0.156916
H188	H	0.395809	0.121464	0.164682
O189	O	0.030238	0.127948	0.128297
H190	H	0.054438	0.107937	0.108358
O191	O	0.708822	0.381312	0.156877
H192	H	0.731655	0.359905	0.177009
O193	O	0.709032	1.051226	0.156941
H194	H	0.744282	1.042182	0.164687
O195	O	0.589388	0.276209	0.479322
H196	H	0.566550	0.256088	0.500690
O197	O	0.560656	0.694718	0.304933
H198	H	0.540665	0.670528	0.324888
O199	O	0.268488	0.305105	0.304841
H200	H	0.244286	0.325108	0.324787
O201	O	0.560632	0.304885	0.597600
H202	H	0.540641	0.324852	0.621790
O203	O	0.737727	0.835388	0.128239
H204	H	0.717647	0.856801	0.105366
O205	O	0.737707	0.127997	0.738421
H206	H	0.757699	0.108018	0.762628
H207	H	0.730115	0.135573	0.829740
H208	H	0.568274	0.297256	0.829671
O209	O	0.560650	0.304852	0.738359
H210	H	0.540658	0.324815	0.762552
H211	H	0.730104	0.135601	0.688980
H212	H	0.177180	0.297509	0.297271
O213	O	0.560655	0.737967	0.304917
H214	H	0.568329	0.746953	0.340187
O215	O	-0.088081	0.276359	0.276201
H216	H	-0.112281	0.296365	0.296145
H217	H	0.596925	0.472692	0.268615
O218	O	0.127741	0.305113	0.304860
H219	H	0.103540	0.325116	0.324805
O220	O	0.127751	0.127956	0.128272
H221	H	0.103553	0.107958	0.108330
H222	H	0.568229	0.603402	0.297337
O223	O	0.589296	0.381376	0.276190
H224	H	0.594122	0.344809	0.271365
O225	O	0.737694	0.737864	0.128219
H226	H	0.757694	0.762053	0.108272
