data_functionalizedCrystal
_audit_creation_method	'MofGen! by Chris Wilmer'
_symmetry_space_group_name_H-M	'P1'
_symmetry_Int_Tables_number	1
_symmetry_cell_setting	triclinic
loop_
_symmetry_equiv_pos_as_xyz
  x,y,z
_cell_length_a	15.944564
_cell_length_b	15.944564
_cell_length_c	16.776229
_cell_angle_alpha	89.995405
_cell_angle_beta	89.998730
_cell_angle_gamma	83.503935
loop_
_atom_site_label
_atom_site_type_symbol
_atom_site_fract_x
_atom_site_fract_y
_atom_site_fract_z
O1	O	-1.114524	-0.108380	0.066207
O2	O	-0.614524	0.391620	0.566207
O3	O	-0.869977	-0.121725	0.066227
O4	O	-0.369977	0.378275	0.566227
O5	O	-0.998923	0.007221	0.066209
O6	O	-0.498923	0.507221	0.566209
O7	O	-0.985578	-0.237327	0.066225
O8	O	-0.485578	0.262673	0.566225
O9	O	-0.998908	0.007221	-0.066367
O10	O	-0.498908	0.507221	0.433633
O11	O	-0.869962	-0.121725	-0.066349
O12	O	-0.369962	0.378275	0.433651
O13	O	-1.114510	-0.108380	-0.066369
O14	O	-0.614510	0.391620	0.433631
Zn15	Zn	-0.992233	-0.115053	-0.087409
Zn16	Zn	-0.492233	0.384947	0.412591
Zn17	Zn	-0.992253	-0.115053	0.087267
Zn18	Zn	-0.492253	0.384947	0.587267
O19	O	-0.985563	-0.237326	-0.066351
O20	O	-0.485563	0.262674	0.433649
C21	C	-0.838676	-0.121169	-0.000058
C22	C	-0.338676	0.378831	0.499942
C23	C	-0.745430	-0.119503	-0.000051
C24	C	-0.245430	0.380497	0.499949
C25	C	-0.998360	0.038515	-0.000079
C26	C	-0.498360	0.538515	0.499921
C27	C	-0.996693	0.131760	-0.000080
C28	C	-0.496693	0.631760	0.499920
C29	C	-0.530571	-0.035589	-0.000072
C30	C	-0.030571	0.464411	0.499928
C31	C	-0.469560	-0.074549	0.065298
C32	C	0.030440	0.425451	0.565298
C33	C	-0.574705	-0.116488	-0.000061
C34	C	-0.074705	0.383512	0.499939
C35	C	-0.469568	-0.074567	-0.065412
C36	C	0.030432	0.425433	0.434588
C37	C	-0.409793	-0.113569	-0.000073
C38	C	0.090207	0.386431	0.499927
C39	C	-0.514922	-0.155470	0.065363
C40	C	-0.014922	0.344530	0.565363
C41	C	-0.514937	-0.155477	-0.065406
C42	C	-0.014937	0.344523	0.434594
C43	C	-0.453943	-0.194495	-0.000020
C44	C	0.046057	0.305505	0.499980
C45	C	-0.669707	-0.118167	-0.000053
C46	C	-0.169707	0.381833	0.499947
C47	C	-0.314792	-0.111897	-0.000076
C48	C	0.185208	0.388103	0.499924
C49	C	-0.145812	-0.108925	-0.000082
C50	C	0.354188	0.391075	0.499918
C51	C	-0.239062	-0.110557	-0.000084
C52	C	0.260938	0.389443	0.499916
C53	C	-0.912779	0.346620	-0.000063
C54	C	-0.412779	0.846620	0.499937
C55	C	-0.951732	0.407635	-0.065435
C56	C	-0.451732	0.907635	0.434565
C57	C	-0.993678	0.302485	-0.000074
C58	C	-0.493678	0.802485	0.499926
C59	C	-0.951765	0.407618	0.065275
C60	C	-0.451765	0.907618	0.565275
C61	C	-0.990760	0.467397	-0.000065
C62	C	-0.490760	0.967397	0.499935
C63	C	-1.032653	0.362272	-0.065500
C64	C	-0.532653	0.862272	0.434500
C65	C	-1.032675	0.362249	0.065269
C66	C	-0.532675	0.862249	0.565269
C67	C	-1.071686	0.423247	-0.000119
C68	C	-0.571686	0.923247	0.499881
C69	C	-0.995357	0.207484	-0.000080
C70	C	-0.495357	0.707484	0.499920
C71	C	-0.989087	0.562398	-0.000065
C72	C	-0.489087	1.062398	0.499935
N73	N	-0.992226	-0.115052	-0.206620
N74	N	-0.492226	0.384948	0.293380
C75	C	-0.986115	0.731378	-0.000062
C76	C	-0.486115	1.231378	0.499938
C77	C	-0.987747	0.638128	-0.000059
C78	C	-0.487747	1.138128	0.499941
C79	C	-1.043170	-0.166033	-0.248334
C80	C	-0.543170	0.333967	0.251666
C81	C	-1.043180	-0.166030	-0.331786
C82	C	-0.543180	0.333970	0.168214
C83	C	-0.992240	-0.115049	-0.373523
C84	C	-0.492240	0.384951	0.126477
C85	C	-0.941294	-0.064062	-0.331802
C86	C	-0.441294	0.435938	0.168198
C87	C	-0.941290	-0.064061	-0.248352
C88	C	-0.441290	0.435939	0.251648
C89	C	-0.941311	-0.064063	-0.668350
C90	C	-0.441311	0.435937	-0.168350
C91	C	-0.941317	-0.064070	-0.751806
C92	C	-0.441317	0.435930	-0.251806
C93	C	-1.043201	-0.166032	-0.751784
C94	C	-0.543201	0.333968	-0.251784
C95	C	-1.043197	-0.166031	-0.668334
C96	C	-0.543197	0.333969	-0.168334
C97	C	-0.992254	-0.115041	-0.626621
C98	C	-0.492254	0.384959	-0.126621
C99	C	-0.992246	-0.115044	-0.536132
C100	C	-0.492246	0.384956	-0.036132
C101	C	-0.992243	-0.115050	-0.464010
C102	C	-0.492243	0.384950	0.035990
N103	N	-0.992266	-0.115047	0.206478
N104	N	-0.492266	0.384953	0.706478
H105	H	-0.563900	0.031547	0.000004
H106	H	-0.063900	0.531547	0.500004
C107	C	-0.598850	-0.146872	-0.184574
C108	C	-0.098850	0.353128	0.315426
C109	C	-0.542122	-0.201629	-0.140006
C110	C	-0.042122	0.298371	0.359994
H111	H	-0.615639	-0.175363	-0.230630
H112	H	-0.115639	0.324637	0.269370
H113	H	-0.572309	-0.099075	-0.200268
H114	H	-0.072309	0.400925	0.299732
H115	H	-0.647083	-0.129054	-0.153050
H116	H	-0.147083	0.370946	0.346950
H117	H	-0.493886	-0.219443	-0.171527
H118	H	0.006114	0.280557	0.328473
H119	H	-0.568663	-0.249442	-0.124312
H120	H	-0.068663	0.250558	0.375688
H121	H	-0.449454	-0.040332	0.120559
H122	H	0.050546	0.459668	0.620559
C123	C	-1.105672	0.406616	-0.186140
C124	C	-0.605672	0.906616	0.313860
C125	C	-1.078798	0.335294	-0.140192
C126	C	-0.578798	0.835294	0.359808
H127	H	-1.134162	0.389958	-0.232249
H128	H	-0.634162	0.889958	0.267751
H129	H	-1.058135	0.433611	-0.201755
H130	H	-0.558135	0.933611	0.298245
H131	H	-1.142957	0.444645	-0.155580
H132	H	-0.642957	0.944645	0.344420
H133	H	-1.041508	0.297268	-0.170750
H134	H	-0.541508	0.797268	0.329250
H135	H	-1.126341	0.308286	-0.124578
H136	H	-0.626341	0.808286	0.375422
C137	C	-1.088441	-0.211294	-0.459701
C138	C	-0.588441	0.288706	0.040299
C139	C	-1.099183	-0.222065	-0.377640
C140	C	-0.599183	0.277935	0.122360
H141	H	-1.123023	-0.245885	-0.488007
H142	H	-0.623023	0.254115	0.011993
H143	H	-1.030983	-0.226865	-0.473381
H144	H	-0.530983	0.273135	0.026619
H145	H	-1.104045	-0.153829	-0.473369
H146	H	-0.604045	0.346171	0.026631
H147	H	-1.083572	-0.279530	-0.363971
H148	H	-0.583572	0.220470	0.136029
H149	H	-1.156654	-0.206500	-0.363955
H150	H	-0.656654	0.293500	0.136045
C151	C	-1.219694	0.407605	-0.000874
C152	C	-0.719694	0.907605	0.499126
C153	C	-1.162412	0.468000	-0.000184
C154	C	-0.662412	0.968000	0.499816
H155	H	-1.275704	0.435233	-0.000924
H156	H	-0.775704	0.935233	0.499076
H157	H	-1.211306	0.372964	0.045144
H158	H	-0.711306	0.872964	0.545144
H159	H	-1.210928	0.373667	-0.047318
H160	H	-0.710928	0.873667	0.452682
H161	H	-1.171174	0.501935	0.046264
H162	H	-0.671174	1.001935	0.546264
H163	H	-1.170805	0.502655	-0.046206
H164	H	-0.670805	1.002655	0.453794
C165	C	-1.156148	-0.171357	-0.574468
C166	C	-0.656148	0.328643	-0.074468
C167	C	-1.099187	-0.222071	-0.622453
C168	C	-0.599187	0.277929	-0.122453
H169	H	-1.190710	-0.205955	-0.546141
H170	H	-0.690710	0.294045	-0.046141
H171	H	-1.190566	-0.132736	-0.607024
H172	H	-0.690566	0.367264	-0.107024
H173	H	-1.125795	-0.140996	-0.537686
H174	H	-0.625795	0.359004	-0.037686
H175	H	-1.129540	-0.252427	-0.659239
H176	H	-0.629540	0.247573	-0.159239
H177	H	-1.064764	-0.260706	-0.589895
H178	H	-0.564764	0.239294	-0.089895
C179	C	-0.840572	0.036719	-0.256750
C180	C	-0.340572	0.536719	0.243250
C181	C	-0.885287	-0.008025	-0.202496
C182	C	-0.385287	0.491975	0.297504
H183	H	-0.805996	0.071312	-0.228439
H184	H	-0.305996	0.571312	0.271561
H185	H	-0.879225	0.071110	-0.289298
H186	H	-0.379225	0.571110	0.210702
H187	H	-0.806159	-0.001923	-0.289299
H188	H	-0.306159	0.498077	0.210701
H189	H	-0.919705	0.030617	-0.169951
H190	H	-0.419705	0.530617	0.330049
H191	H	-0.846629	-0.042418	-0.169935
H192	H	-0.346629	0.457582	0.330065
H193	H	-0.449474	-0.040335	-0.120676
H194	H	0.050526	0.459665	0.379324
C195	C	-1.076189	-0.306770	-0.777465
C196	C	-0.576189	0.193230	-0.277465
C197	C	-1.099207	-0.222075	-0.797638
C198	C	-0.599207	0.277925	-0.297638
H199	H	-1.110760	-0.341367	-0.805776
H200	H	-0.610760	0.158633	-0.305776
H201	H	-1.083476	-0.314060	-0.721798
H202	H	-0.583476	0.185940	-0.221798
H203	H	-1.018722	-0.322324	-0.791152
H204	H	-0.518722	0.177676	-0.291152
H205	H	-1.156672	-0.206519	-0.783946
H206	H	-0.656672	0.293481	-0.283946
H207	H	-1.091927	-0.214781	-0.853317
H208	H	-0.591927	0.285219	-0.353317
H209	H	-0.917509	0.427745	-0.120696
H210	H	-0.417509	0.927745	0.379304
C211	C	-0.358099	-0.297569	0.067864
C212	C	0.141901	0.202431	0.567864
C213	C	-0.409174	-0.285215	0.000032
C214	C	0.090826	0.214785	0.500032
H215	H	-0.330456	-0.353573	0.067895
H216	H	0.169544	0.146427	0.567895
H217	H	-0.392044	-0.288835	0.114300
H218	H	0.107956	0.211165	0.614300
H219	H	-0.317149	-0.258684	0.067391
H220	H	0.182851	0.241316	0.567391
H221	H	-0.450128	-0.324097	0.000508
H222	H	0.049872	0.175903	0.500508
H223	H	-0.375227	-0.293958	-0.046416
H224	H	0.124773	0.206042	0.453584
C225	C	-0.809342	0.251650	0.068356
C226	C	-0.309342	0.751650	0.568356
C227	C	-0.822136	0.301659	-0.000134
C228	C	-0.322136	0.801659	0.499866
H229	H	-0.753381	0.223899	0.068311
H230	H	-0.253381	0.723899	0.568311
H231	H	-0.848317	0.210798	0.068856
H232	H	-0.348317	0.710798	0.568856
H233	H	-0.817637	0.286344	0.114350
H234	H	-0.317637	0.786344	0.614350
H235	H	-0.813846	0.266964	-0.046129
H236	H	-0.313846	0.766964	0.453871
H237	H	-0.783148	0.342517	-0.000641
H238	H	-0.283148	0.842517	0.499359
H239	H	-1.066868	0.342117	0.120533
H240	H	-0.566868	0.842117	0.620533
H241	H	-1.084646	-0.207552	-0.214359
H242	H	-0.584646	0.292448	0.285641
H243	H	-0.917544	0.427696	0.120546
H244	H	-0.417544	0.927696	0.620546
H245	H	-0.899831	-0.022544	-0.634397
H246	H	-0.399831	0.477456	-0.134397
C247	C	-0.840616	0.036741	-0.743453
C248	C	-0.340616	0.536741	-0.243453
C249	C	-0.885328	-0.008021	-0.797686
C250	C	-0.385328	0.491979	-0.297686
H251	H	-0.806057	0.071343	-0.771780
H252	H	-0.306057	0.571343	-0.271780
H253	H	-0.806194	-0.001884	-0.710904
H254	H	-0.306194	0.498116	-0.210904
H255	H	-0.879277	0.071131	-0.710904
H256	H	-0.379277	0.571131	-0.210904
H257	H	-0.846666	-0.042416	-0.830232
H258	H	-0.346666	0.457584	-0.330232
H259	H	-0.919753	0.030608	-0.830249
H260	H	-0.419753	0.530608	-0.330249
C261	C	-0.896005	-0.018834	-0.459732
C262	C	-0.396005	0.481166	0.040268
C263	C	-0.885297	-0.008023	-0.377674
C264	C	-0.385297	0.491977	0.122326
H265	H	-0.861427	0.015758	-0.488048
H266	H	-0.361427	0.515758	0.011952
H267	H	-0.953462	-0.003291	-0.473433
H268	H	-0.453462	0.496709	0.026567
H269	H	-0.880374	-0.076302	-0.473367
H270	H	-0.380374	0.423698	0.026633
H271	H	-0.900933	0.049443	-0.364039
H272	H	-0.400933	0.549443	0.135961
H273	H	-0.827827	-0.023562	-0.363968
H274	H	-0.327827	0.476438	0.136032
C275	C	-0.629593	-0.202725	0.139403
C276	C	-0.129593	0.297275	0.639403
C277	C	-0.541908	-0.201620	0.140057
C278	C	-0.041908	0.298380	0.640057
H279	H	-0.646252	-0.231209	0.185519
H280	H	-0.146252	0.268791	0.685519
H281	H	-0.645480	-0.231268	0.093050
H282	H	-0.145480	0.268732	0.593050
H283	H	-0.656512	-0.146443	0.139212
H284	H	-0.156512	0.353557	0.639212
H285	H	-0.514989	-0.257902	0.140242
H286	H	-0.014989	0.242098	0.640242
H287	H	-0.526013	-0.173078	0.186422
H288	H	-0.026013	0.326922	0.686422
