data_functionalizedCrystal
_audit_creation_method	'MofGen! by Chris Wilmer'
_symmetry_space_group_name_H-M	'P1'
_symmetry_Int_Tables_number	1
_symmetry_cell_setting	triclinic
loop_
_symmetry_equiv_pos_as_xyz
  x,y,z
_cell_length_a	15.625950
_cell_length_b	17.038272
_cell_length_c	14.185569
_cell_angle_alpha	75.875097
_cell_angle_beta	120.545593
_cell_angle_gamma	87.507827
loop_
_atom_site_label
_atom_site_type_symbol
_atom_site_fract_x
_atom_site_fract_y
_atom_site_fract_z
O1	O	1.292357	0.020114	0.386531
O2	O	1.007106	0.054277	0.282800
O3	O	1.148038	-0.076493	0.334058
O4	O	1.151425	0.150884	0.335273
O5	O	1.189671	-0.115119	0.516034
O6	O	1.048739	0.015650	0.464777
O7	O	1.333990	-0.018512	0.568507
Cu8	Cu	1.195166	-0.004958	0.533258
Cu9	Cu	1.145930	0.040723	0.318050
O10	O	1.193057	0.112258	0.517250
C11	C	0.991244	0.037242	0.360451
C12	C	0.881953	0.044020	0.320708
C13	C	0.635859	-0.038893	0.685842
C14	C	0.533151	-0.032497	0.648447
C15	C	0.487815	0.009609	0.450082
C16	C	0.590521	0.003221	0.487461
C17	C	0.664536	-0.021031	0.605342
C18	C	0.619198	0.021082	0.406961
C19	C	0.721896	0.014690	0.444337
C20	C	0.795916	-0.009563	0.562213
C21	C	0.767234	-0.027423	0.642719
C22	C	0.545183	0.045329	0.289080
C23	C	0.573860	0.063190	0.208580
C24	C	0.676558	0.056804	0.245955
C25	C	0.750579	0.032551	0.363832
C26	C	0.705241	0.074664	0.165450
C27	C	0.807938	0.068272	0.202826
C28	C	0.853276	0.026159	0.401208
C29	C	1.165770	-0.124700	0.423924
C30	C	1.156570	-0.210794	0.420578
C31	C	1.241043	-0.267323	0.451298
C32	C	1.232390	-0.348214	0.448142
C33	C	1.139264	-0.372577	0.414273
C34	C	1.054783	-0.316042	0.383548
C35	C	1.063435	-0.235150	0.386697
C36	C	1.108695	-0.616011	0.403143
C37	C	1.100050	-0.696911	0.400000
C38	C	1.277657	-0.729077	0.464592
C39	C	1.286303	-0.648184	0.467744
C40	C	1.201821	-0.591654	0.437013
C41	C	1.130417	-0.455262	0.411050
C42	C	1.210666	-0.508970	0.440229
C43	C	1.349851	-0.001476	0.490854
C44	C	1.459140	-0.008253	0.530590
C45	C	1.175324	0.160465	0.427381
C46	C	1.184524	0.246561	0.430720
N47	N	1.229802	-0.037088	0.684627
N48	N	1.111300	0.072846	0.166684
C49	C	1.009534	0.167211	0.972164
C50	C	1.035778	0.142878	1.086731
C51	C	1.160604	0.027118	1.132091
C52	C	1.134367	0.051440	1.017525
C53	C	1.058832	0.121487	0.937570
C54	C	1.183665	0.005716	0.982931
C55	C	1.157433	0.030038	0.868376
C56	C	1.081903	0.100085	0.788415
C57	C	1.032600	0.145810	0.823015
C58	C	1.259204	-0.064328	1.062890
C59	C	1.308502	-0.110052	1.028295
C60	C	1.282266	-0.085733	0.913737
C61	C	1.206736	-0.015687	0.833776
C62	C	1.331569	-0.131458	0.879137
C63	C	1.305337	-0.107136	0.764582
C64	C	1.180504	0.008636	0.719221
H65	H	0.827501	-0.047160	0.738709
H66	H	0.513584	0.082932	0.112600
C67	C	0.623813	0.101333	0.035784
N68	N	0.562482	0.121421	-0.061882
C69	C	0.717282	-0.065567	0.815519
N70	N	0.778609	-0.085658	0.913186
C71	C	1.288057	-0.091082	1.188904
N72	N	1.309787	-0.111233	1.283817
C73	C	1.053047	0.126839	0.662400
N74	N	1.031310	0.146989	0.567484
C75	C	0.839484	0.087927	0.114272
N76	N	0.863245	0.102731	0.047570
C77	C	1.388749	-0.621392	0.505003
N78	N	1.465914	-0.601213	0.533072
H79	H	1.286484	-0.489124	0.467781
C80	C	1.343490	-0.240532	0.488556
N81	N	1.420655	-0.220355	0.516615
C82	C	1.325323	-0.410397	0.481954
N83	N	1.395326	-0.457234	0.507428
H84	H	1.039903	-0.569994	0.378120
H85	H	0.509809	-0.047026	0.714009
H86	H	0.427540	0.029351	0.354102
C87	C	0.432212	0.052359	0.247968
N88	N	0.347123	0.057656	0.217004
H89	H	0.913543	0.006422	0.497198
H90	H	1.346437	-0.775111	0.489609
C91	C	1.359565	-0.157436	0.726525
N92	N	1.400412	-0.195323	0.697861
C93	C	1.027986	-0.482075	0.373818
N94	N	0.950835	-0.502274	0.345780
H95	H	1.024216	-0.716746	0.372437
C96	C	0.952345	-0.342846	0.346302
N97	N	0.875188	-0.363036	0.318255
H98	H	0.971085	0.202845	0.757908
H99	H	0.995628	0.180119	1.114888
H100	H	1.370006	-0.167084	1.093408
H101	H	0.994647	-0.189124	0.361681
C102	C	0.926399	0.244239	0.884191
N103	N	0.863772	0.302246	0.817926
C104	C	1.414659	-0.208506	0.967102
N105	N	1.477243	-0.266540	1.033358
H106	H	0.879538	-0.014768	0.592643
H107	H	1.118989	0.065670	0.654114
H108	H	1.222108	-0.029914	1.197204
