data_functionalizedCrystal
_audit_creation_method	'MofGen! by Chris Wilmer'
_symmetry_space_group_name_H-M	'P1'
_symmetry_Int_Tables_number	1
_symmetry_cell_setting	triclinic
loop_
_symmetry_equiv_pos_as_xyz
  x,y,z
_cell_length_a	14.628931
_cell_length_b	14.628931
_cell_length_c	14.628931
_cell_angle_alpha	59.999864
_cell_angle_beta	89.999882
_cell_angle_gamma	60.000028
loop_
_atom_site_label
_atom_site_type_symbol
_atom_site_fract_x
_atom_site_fract_y
_atom_site_fract_z
Zr1	Zr	-0.119964	1.000580	0.880616
O2	O	-0.265925	1.191286	0.734655
O3	O	-0.075219	0.809874	0.925361
O4	O	-0.265925	1.000580	0.925361
O5	O	0.075212	1.000581	0.734655
O6	O	-0.265925	1.000580	1.075793
O7	O	-0.075219	1.000580	0.734655
O8	O	0.075212	0.659443	1.075793
O9	O	-0.265925	1.341718	0.734655
O10	O	-0.056137	0.888315	1.056710
O11	O	0.056129	0.888315	0.944444
O12	O	-0.168402	1.112846	0.944444
O13	O	-0.056137	1.112846	0.832178
Zr14	Zr	0.119956	1.000581	1.120537
Zr15	Zr	-0.119965	1.000580	1.120537
Zr16	Zr	0.119957	1.000581	0.880615
Zr17	Zr	-0.119965	1.240502	0.880615
Zr18	Zr	0.119957	0.760659	1.120537
O19	O	0.075211	1.191287	1.075792
O20	O	-0.265926	1.191286	1.075792
O21	O	0.075212	1.191287	0.734654
O22	O	0.265917	0.809875	1.266498
O23	O	-0.075220	0.809874	1.266498
O24	O	0.265918	0.809875	0.925360
O25	O	-0.075221	1.000580	1.266498
O26	O	0.265917	1.000581	1.075792
O27	O	0.265917	1.000581	0.925360
O28	O	0.075211	1.000581	1.266498
O29	O	-0.265926	1.341718	0.925360
O30	O	0.265918	0.659443	1.075793
O31	O	0.265917	0.659443	1.266498
O32	O	0.075212	0.659443	1.266499
O33	O	-0.075220	1.341719	0.734654
O34	O	-0.075221	1.341719	0.925360
O35	O	0.168394	0.888315	1.056709
O36	O	0.056129	0.888315	1.168975
O37	O	-0.056137	1.112846	1.056709
O38	O	0.056129	1.112847	0.944443
C39	C	-0.000004	0.700475	1.000577
C40	C	-0.000003	0.598622	1.000577
C41	C	0.078754	0.369189	1.079335
C42	C	0.078756	0.474458	1.079337
C43	C	-0.300109	1.000580	1.000577
C44	C	-0.401962	1.000579	1.000577
C45	C	-0.503062	1.111962	0.944886
C46	C	-0.608334	1.111964	0.944884
C47	C	0.300101	1.000581	1.000576
C48	C	0.401953	1.000582	1.000576
C49	C	-0.000004	1.000581	0.700471
C50	C	-0.000003	1.000581	0.598618
C51	C	-0.000005	1.300686	1.000576
C52	C	-0.000005	1.402540	1.000576
C53	C	-0.078763	1.000580	0.553209
C54	C	-0.078764	1.000580	0.447939
C55	C	-0.000005	1.000581	1.300682
C56	C	-0.000005	1.000581	1.402535
C57	C	-0.000004	0.700475	1.300682
C58	C	-0.000004	0.598622	1.402535
C59	C	0.300101	0.700476	1.000577
C60	C	0.401954	0.598623	1.000577
C61	C	0.300101	0.700476	1.300682
C62	C	0.401953	0.598623	1.402535
C63	C	-0.300109	1.300686	0.700471
C64	C	-0.401962	1.402538	0.598618
C65	C	-0.000004	1.300686	0.700471
C66	C	-0.000004	1.402540	0.598617
C67	C	-0.300110	1.300686	1.000576
C68	C	-0.401963	1.402538	1.000576
C69	C	-0.055695	0.553212	1.392253
C70	C	-0.055697	0.447941	1.497523
C71	C	0.503055	0.553214	1.056268
C72	C	0.608326	0.447943	1.056269
C73	C	0.391671	0.553213	1.503636
C74	C	0.496940	0.447943	1.608907
H75	H	-0.067436	0.509025	0.933151
C76	C	0.230042	0.486180	1.120093
C77	C	0.169788	0.436137	1.170368
H78	H	0.286239	0.462526	1.176295
H79	H	0.264131	0.452233	1.079217
H80	H	0.180620	0.577724	1.070683
H81	H	0.219210	0.344592	1.219772
H82	H	0.135699	0.470078	1.211262
H83	H	0.067428	1.000574	0.559564
H84	H	-0.103372	0.408886	1.488894
H85	H	0.695057	0.408891	1.103950
H86	H	0.047685	0.441574	1.607255
H87	H	0.047670	0.559568	1.489272
H88	H	-0.511683	1.207319	0.897212
H89	H	0.067424	1.000588	0.441575
H90	H	0.511675	0.592277	1.103942
C91	C	-0.163859	0.771896	0.836715
C92	C	-0.091038	0.636956	0.909539
H93	H	-0.220055	0.795554	0.780509
H94	H	-0.197948	0.805824	0.877603
H95	H	-0.122960	0.805823	0.802631
H96	H	-0.131936	0.603030	0.943629
H97	H	-0.056947	0.603015	0.868645
C98	C	0.371667	0.457349	1.715361
C99	C	0.485278	0.395232	1.725986
H100	H	0.364470	0.424798	1.787644
H101	H	0.336744	0.547692	1.675630
H102	H	0.336742	0.441662	1.675617
H103	H	0.520201	0.410927	1.765723
H104	H	0.520215	0.304868	1.765734
C105	C	0.216070	0.582786	1.463668
C106	C	0.274554	0.605945	1.515213
H107	H	0.143761	0.615338	1.470803
H108	H	0.208949	0.624889	1.386624
H109	H	0.255830	0.492421	1.498635
H110	H	0.234798	0.696311	1.480240
H111	H	0.281670	0.563846	1.592272
H112	H	-0.695064	1.207323	0.897198
H113	H	0.393334	0.559569	0.952894
H114	H	-0.511320	0.905218	1.048252
C115	C	0.422402	0.432120	1.010835
C116	C	0.480963	0.455244	0.936208
H117	H	0.350117	0.464670	0.971092
H118	H	0.462141	0.341772	1.066242
H119	H	0.415218	0.474256	1.045769
H120	H	0.488154	0.413099	0.901280
H121	H	0.441214	0.545608	0.880781
H122	H	0.606672	0.441577	1.511893
H123	H	0.488690	0.559569	1.393915
C124	C	-0.152176	1.000590	0.700003
C125	C	-0.169796	1.000586	0.605924
H126	H	-0.208384	1.000602	0.732538
H127	H	-0.080624	0.925612	0.753126
H128	H	-0.155591	1.075572	0.678141
H129	H	-0.166374	0.925598	0.627787
H130	H	-0.241367	1.075571	0.552791
H131	H	0.146178	0.262704	1.146767
H132	H	-0.393341	0.905222	1.048259
H133	H	-0.146197	1.000587	0.408885
H134	H	-0.103378	0.592275	1.305517
