data_functionalizedCrystal
_audit_creation_method	'MofGen! by Chris Wilmer'
_symmetry_space_group_name_H-M	'P1'
_symmetry_Int_Tables_number	1
_symmetry_cell_setting	triclinic
loop_
_symmetry_equiv_pos_as_xyz
  x,y,z
_cell_length_a	18.101389
_cell_length_b	21.395362
_cell_length_c	21.395361
_cell_angle_alpha	90.046585
_cell_angle_beta	90.022625
_cell_angle_gamma	90.038396
loop_
_atom_site_label
_atom_site_type_symbol
_atom_site_fract_x
_atom_site_fract_y
_atom_site_fract_z
Zn1	Zn	-0.419095	-0.957825	0.249239
Zn2	Zn	-0.295245	-0.957738	0.354001
Zn3	Zn	-0.295226	-0.853050	0.249270
Zn4	Zn	-0.419003	-0.853009	0.354011
O5	O	-0.357142	-0.905406	0.301630
O6	O	-0.402713	-1.045492	0.263118
O7	O	-0.191609	-0.943831	0.340116
O8	O	-0.311688	-0.867003	0.161588
O9	O	-0.311720	-1.045427	0.340086
O10	O	-0.402695	-0.943980	0.161565
O11	O	-0.191595	-0.866918	0.263171
O12	O	-0.311599	-0.765367	0.263182
O13	O	-0.522648	-0.866933	0.340105
O14	O	-0.402537	-0.765337	0.340135
O15	O	-0.522716	-0.943941	0.263129
O16	O	-0.311630	-0.943792	0.441680
O17	O	-0.402555	-0.866848	0.441688
C18	C	-0.357101	-0.905323	0.464418
C19	C	-0.357108	-0.905345	0.534059
C20	C	-0.357056	-0.742618	0.301663
C21	C	-0.357037	-0.672977	0.301693
C22	C	-0.550304	-0.905442	0.301614
C23	C	-0.632618	-0.905457	0.301608
C24	C	-0.931709	-0.905494	0.301490
C25	C	-0.900341	-0.856876	0.349767
C26	C	-0.814723	-0.857007	0.349991
C27	C	-0.783327	-0.905475	0.301548
C28	C	-0.814450	-0.971488	0.319453
C29	C	-0.900095	-0.971217	0.319770
C30	C	-0.900135	-0.888673	0.235201
C31	C	-0.814483	-0.887204	0.235584
C32	C	-0.699467	-0.905469	0.301580
C33	C	-1.015569	-0.905505	0.301460
C34	C	-0.164732	-0.905406	0.301601
C35	C	-0.082418	-0.905512	0.301431
C36	C	-0.357229	-1.068829	0.301597
C37	C	-0.357266	-1.138470	0.301583
C38	C	-0.404318	-0.640264	0.341815
C39	C	-0.404351	-0.574829	0.341800
C40	C	-0.357090	-0.542108	0.301668
C41	C	-0.309806	-0.574829	0.261538
C42	C	-0.309779	-0.640263	0.261550
C43	C	-0.290421	-0.438389	0.296622
C44	C	-0.290446	-0.372956	0.296614
C45	C	-0.357172	-0.340288	0.301628
C46	C	-0.423874	-0.373060	0.306662
C47	C	-0.423848	-0.438494	0.306674
C48	C	-0.357113	-0.471156	0.301651
C49	C	-0.404492	-0.236623	0.341736
C50	C	-0.404526	-0.171186	0.341716
C51	C	-0.309975	-0.171187	0.261457
C52	C	-0.309947	-0.236623	0.261474
C53	C	-0.357205	-0.269336	0.301616
C54	C	-0.357200	-0.905506	0.138207
C55	C	-0.357224	-0.905548	0.068566
C56	C	-0.309812	-0.945445	0.566747
C57	C	-0.309829	-0.945474	0.632183
C58	C	-0.357133	-0.905392	0.664927
C59	C	-0.404439	-0.865289	0.632231
C60	C	-0.404426	-0.865266	0.566797
C61	C	-0.362914	-0.848977	0.768658
C62	C	-0.362922	-0.848999	0.834091
C63	C	-0.357177	-0.905465	0.866748
C64	C	-0.351409	-0.961910	0.833964
C65	C	-0.351396	-0.961886	0.768530
C66	C	-0.357153	-0.905413	0.735880
C67	C	-0.309896	-0.945600	0.970389
C68	C	-0.309918	-0.945630	1.035825
C69	C	-0.404524	-0.865440	1.035873
C70	C	-0.404506	-0.865415	0.970437
C71	C	-0.357188	-0.905494	0.937699
H72	H	-0.920914	-0.807777	0.338680
N73	N	-0.927353	-0.870669	0.411029
N74	N	-0.969605	-0.916150	0.419287
H75	H	-0.988684	-0.925893	0.462553
N76	N	-0.788974	-0.871007	0.411601
N77	N	-0.749336	-0.832616	0.440220
H78	H	-0.731138	-0.842523	0.483726
H79	H	-0.442956	-0.832655	0.658896
H80	H	-0.271442	-0.263257	0.228805
H81	H	-0.443032	-0.144553	0.374387
H82	H	-0.346731	-1.007890	0.860552
N83	N	-0.222314	-0.339486	0.291457
N84	N	-0.212061	-0.303011	0.246680
H85	H	-0.163941	-0.279375	0.243035
N86	N	-0.452835	-0.824487	1.069312
N87	N	-0.447832	-0.766672	1.062074
H88	H	-0.481955	-0.737748	1.085693
N89	N	-0.788305	-0.795604	0.335933
N90	N	-0.748473	-0.786829	0.289040
H91	H	-0.729818	-0.743460	0.279112
N92	N	-0.925158	-0.989112	0.380559
N93	N	-0.879397	-1.001712	0.422456
H94	H	-0.897093	-1.014351	0.465390
H95	H	-0.271315	-0.978130	0.658802
H96	H	-0.794138	-0.838624	0.222082
H97	H	-0.271327	-0.548183	0.228862
N98	N	-0.452584	-0.673677	0.382825
N99	N	-0.447542	-0.666304	0.440631
H100	H	-0.481630	-0.689901	0.469595
H101	H	-0.442855	-0.548189	0.374472
H102	H	-0.794118	-1.008685	0.285394
H103	H	-0.920849	-1.008669	0.286132
N104	N	-0.261711	-0.137763	0.220460
N105	N	-0.261745	-0.079340	0.220450
H106	H	-0.227661	-0.055730	0.191492
N107	N	-0.222251	-0.471746	0.291489
N108	N	-0.162703	-0.442480	0.286997
H109	H	-0.114560	-0.466037	0.283369
N110	N	-0.787670	-0.928369	0.188054
N111	N	-0.806931	-0.920666	0.132482
H112	H	-0.787988	-0.949738	0.098913
N113	N	-0.452804	-0.824443	0.937041
N114	N	-0.426682	-0.784517	0.900587
H115	H	-0.460796	-0.755581	0.876999
H116	H	-0.793008	-0.985994	0.367395
H117	H	-0.346702	-1.007845	0.741839
N118	N	-0.261479	-0.673671	0.220557
N119	N	-0.219289	-0.644453	0.184723
H120	H	-0.185176	-0.668048	0.155771
N121	N	-0.927204	-0.829336	0.214738
N122	N	-0.970102	-0.798722	0.248767
H123	H	-0.989221	-0.756813	0.234321
H124	H	-0.271285	-0.978081	0.540094
N125	N	-0.491983	-0.471961	0.311816
N126	N	-0.551558	-0.442793	0.316294
H127	H	-0.599681	-0.466428	0.319924
H128	H	-0.271370	-0.978237	0.943732
N129	N	-0.925588	-0.933100	0.190084
N130	N	-0.966803	-0.976977	0.206593
H131	H	-0.984783	-1.008356	0.174734
H132	H	-0.478209	-0.346463	0.310743
H133	H	-0.442976	-0.263260	0.374419
N134	N	-0.261608	-0.986605	1.069208
N135	N	-0.219370	-1.022387	1.039967
H136	H	-0.185251	-1.051328	1.063543
H137	H	-0.367611	-0.803038	0.860779
H138	H	-0.367595	-0.802992	0.742075
N139	N	-0.452747	-0.824300	0.533413
N140	N	-0.494986	-0.788519	0.562653
H141	H	-0.529114	-0.759586	0.539076
