data_functionalizedCrystal
_audit_creation_method	'MofGen! by Chris Wilmer'
_symmetry_space_group_name_H-M	'P1'
_symmetry_Int_Tables_number	1
_symmetry_cell_setting	triclinic
loop_
_symmetry_equiv_pos_as_xyz
  x,y,z
_cell_length_a	19.288864
_cell_length_b	16.992695
_cell_length_c	18.366186
_cell_angle_alpha	89.993794
_cell_angle_beta	89.977106
_cell_angle_gamma	86.902234
loop_
_atom_site_label
_atom_site_type_symbol
_atom_site_fract_x
_atom_site_fract_y
_atom_site_fract_z
O1	O	0.927052	0.097795	-0.060785
O2	O	0.725561	0.110988	-0.060736
O3	O	0.825499	-0.009748	-0.060755
O4	O	0.827114	0.218531	-0.060767
O5	O	0.825480	-0.009754	0.060345
O6	O	0.725542	0.110982	0.060363
O7	O	0.927034	0.097789	0.060314
Zn8	Zn	0.826285	0.104385	0.079566
Zn9	Zn	0.826309	0.104392	-0.079988
O10	O	0.827096	0.218525	0.060333
C11	C	0.699650	0.110560	-0.000180
C12	C	0.622472	0.109286	-0.000161
C13	C	0.823411	-0.038957	-0.000205
C14	C	0.817211	-0.125979	-0.000203
C15	C	0.581905	0.180128	-0.000176
C16	C	0.509388	0.178931	-0.000184
C17	C	0.477442	0.106888	-0.000191
C18	C	0.518018	0.036036	-0.000172
C19	C	0.590534	0.037235	-0.000157
C20	C	0.365885	0.050255	-0.042639
C21	C	0.293371	0.049059	-0.042659
C22	C	0.253780	0.103186	-0.000235
C23	C	0.286712	0.158522	0.042199
C24	C	0.359227	0.159722	0.042214
C25	C	0.398811	0.105579	-0.000207
C26	C	0.134581	0.172735	-0.000258
C27	C	0.062063	0.171535	-0.000261
C28	C	0.070695	0.028638	-0.000257
C29	C	0.143212	0.029840	-0.000246
C30	C	0.175150	0.101891	-0.000250
C31	C	0.877039	-0.176431	-0.000217
C32	C	0.871208	-0.258197	-0.000223
C33	C	0.805549	-0.289509	-0.000209
C34	C	0.745717	-0.239051	-0.000197
C35	C	0.751548	-0.157287	-0.000197
C36	C	0.781382	-0.533022	-0.000213
C37	C	0.775556	-0.614793	-0.000211
C38	C	0.901048	-0.633933	-0.000238
C39	C	0.906873	-0.552166	-0.000233
C40	C	0.847041	-0.501715	-0.000225
N41	N	0.799588	-0.373087	-0.000212
N42	N	0.853002	-0.418138	-0.000227
C43	C	0.952944	0.098217	-0.000244
C44	C	1.030122	0.099491	-0.000268
C45	C	0.829183	0.247733	-0.000219
C46	C	0.835384	0.334756	-0.000225
N47	N	0.826273	0.104379	0.188457
N48	N	0.826326	0.104392	-0.188879
C49	C	0.870543	0.050943	0.226549
C50	C	0.870547	0.050940	0.302777
C51	C	0.826289	0.104385	0.340910
C52	C	0.782011	0.157825	0.302808
C53	C	0.782003	0.157822	0.226582
C54	C	0.821154	0.175814	0.461668
C55	C	0.821167	0.175819	0.537893
C56	C	0.826310	0.104395	0.576017
C57	C	0.831454	0.032964	0.537908
C58	C	0.831446	0.032961	0.461681
C59	C	0.826293	0.104394	0.423564
C60	C	0.870586	0.050951	0.696764
C61	C	0.870585	0.050947	0.772994
C62	C	0.782053	0.157839	0.773024
C63	C	0.782050	0.157837	0.696796
C64	C	0.826320	0.104394	0.658671
H65	H	0.607904	0.238798	-0.000180
C66	C	1.006206	-0.675433	0.061988
C67	C	0.966813	-0.689390	-0.000254
H68	H	1.046806	-0.709675	0.061977
H69	H	1.019072	-0.622263	0.061981
H70	H	0.979458	-0.684911	0.104221
H71	H	0.993560	-0.679906	-0.042487
H72	H	0.953948	-0.742573	-0.000254
C73	C	0.748754	0.293660	0.326270
C74	C	0.733359	0.216574	0.344718
H75	H	0.718711	0.329927	0.352139
H76	H	0.795567	0.302041	0.338740
H77	H	0.742412	0.301294	0.275418
H78	H	0.739706	0.208939	0.395569
H79	H	0.686535	0.208191	0.332252
H80	H	0.254478	0.202597	0.076745
H81	H	0.160587	0.231403	-0.000250
H82	H	0.746004	0.201352	0.665779
H83	H	0.816982	0.233982	0.568916
H84	H	0.930505	-0.150943	-0.000224
C85	C	0.666371	-0.319896	-0.062431
C86	C	0.673543	-0.273471	-0.000182
H87	H	0.621815	-0.341148	-0.062416
H88	H	0.671256	-0.288391	-0.104654
H89	H	0.701173	-0.361643	-0.062430
H90	H	0.638744	-0.231721	-0.000185
H91	H	0.668651	-0.304977	0.042052
C92	C	0.345370	0.267794	0.126102
C93	C	0.395426	0.220536	0.088864
H94	H	0.367720	0.305332	0.154906
H95	H	0.315472	0.294434	0.091984
H96	H	0.318977	0.235663	0.156679
H97	H	0.421816	0.252665	0.058282
H98	H	0.425336	0.193894	0.122986
C99	C	0.879390	-0.056027	0.141132
C100	C	0.919068	-0.008059	0.184774
H101	H	0.909310	-0.092524	0.115378
H102	H	0.848817	-0.083877	0.170983
H103	H	0.853143	-0.024209	0.107429
H104	H	0.945311	-0.039877	0.218481
H105	H	0.949654	0.019793	0.154921
H106	H	0.906633	0.007429	0.804009
H107	H	0.722085	-0.640283	-0.000188
H108	H	0.746014	0.201352	0.804071
C109	C	0.656755	-0.522328	-0.000170
C110	C	0.715614	-0.477573	-0.000190
H111	H	0.616152	-0.488092	-0.000149
H112	H	0.657095	-0.554608	-0.042399
H113	H	0.657096	-0.554627	0.042062
H114	H	0.715276	-0.445278	-0.042425
H115	H	0.715274	-0.445279	0.042043
H116	H	0.623564	-0.020455	-0.000145
H117	H	0.906598	0.007424	0.333797
H118	H	0.029034	0.229226	-0.000270
H119	H	0.745953	0.201336	0.195567
H120	H	0.919927	-0.299272	-0.000232
H121	H	0.702829	-0.116209	-0.000186
H122	H	0.816954	0.233980	0.430633
H123	H	0.044686	-0.030021	-0.000308
C124	C	0.986244	-0.471314	-0.062505
C125	C	0.979049	-0.517752	-0.000253
H126	H	1.030802	-0.450066	-0.062512
H127	H	0.981369	-0.502808	-0.104726
H128	H	0.951445	-0.429564	-0.062487
H129	H	1.013845	-0.559505	-0.000273
H130	H	0.983931	-0.486255	0.041979
C131	C	0.479731	0.300348	-0.062467
C132	C	0.464782	0.256804	-0.000209
H133	H	0.452190	0.348420	-0.062485
H134	H	0.527482	0.311377	-0.062449
H135	H	0.469646	0.270779	-0.104689
H136	H	0.474871	0.286370	0.042013
H137	H	0.417019	0.245777	-0.000220
C138	C	0.144458	-0.111523	-0.000252
C139	C	0.187809	-0.048033	-0.000241
H140	H	0.171992	-0.159600	-0.000251
H141	H	0.115974	-0.109023	0.041971
H142	H	0.116016	-0.109010	-0.042490
H143	H	0.216247	-0.050544	0.042000
H144	H	0.216305	-0.050535	-0.042467
H145	H	0.835633	-0.025201	0.430655
H146	H	0.835642	-0.025196	0.568947
H147	H	0.266564	0.004004	-0.077214
C148	C	0.365183	-0.058050	-0.126542
C149	C	0.409400	-0.009239	-0.089284
H150	H	0.392048	-0.094773	-0.155342
H151	H	0.338523	-0.085628	-0.092437
H152	H	0.335000	-0.026851	-0.157127
H153	H	0.439580	-0.040438	-0.058696
H154	H	0.436072	0.018341	-0.123394
C155	C	0.503088	-0.086127	-0.062427
C156	C	0.482908	-0.043157	-0.000183
H157	H	0.481416	-0.135021	-0.062428
H158	H	0.489453	-0.056966	-0.104653
H159	H	0.552083	-0.095545	-0.062406
H160	H	0.433913	-0.033734	-0.000206
H161	H	0.496539	-0.072324	0.042055
C162	C	0.958090	-0.054713	0.704388
C163	C	0.919238	-0.007800	0.654851
H164	H	0.988122	-0.090986	0.678513
H165	H	0.984882	-0.022153	0.734100
H166	H	0.927613	-0.082825	0.734139
H167	H	0.949715	0.020317	0.625104
H168	H	0.892444	-0.040364	0.625127
