data_functionalizedCrystal
_audit_creation_method	'MofGen! by Chris Wilmer'
_symmetry_space_group_name_H-M	'P1'
_symmetry_Int_Tables_number	1
_symmetry_cell_setting	triclinic
loop_
_symmetry_equiv_pos_as_xyz
  x,y,z
_cell_length_a	19.805407
_cell_length_b	16.120444
_cell_length_c	19.805399
_cell_angle_alpha	87.128215
_cell_angle_beta	90.019573
_cell_angle_gamma	92.926644
loop_
_atom_site_label
_atom_site_type_symbol
_atom_site_fract_x
_atom_site_fract_y
_atom_site_fract_z
Zn1	Zn	1.021070	-0.331929	0.396381
Zn2	Zn	1.015245	-0.471348	0.288930
Zn3	Zn	0.907884	-0.331952	0.283206
Zn4	Zn	0.902111	-0.471304	0.402075
O5	O	0.961578	-0.401633	0.342648
O6	O	1.115014	-0.350432	0.382139
O7	O	1.000982	-0.452885	0.193455
O8	O	0.927752	-0.215282	0.293440
O9	O	1.110734	-0.452863	0.303196
O10	O	1.010910	-0.215265	0.376589
O11	O	0.922104	-0.350471	0.189250
O12	O	0.812402	-0.350428	0.298962
O13	O	0.917912	-0.452787	0.496035
O14	O	0.808160	-0.452809	0.386295
O15	O	1.005312	-0.350389	0.491851
O16	O	0.995384	-0.588008	0.308718
O17	O	0.912264	-0.587976	0.391845
C18	C	0.785722	-0.401617	0.342625
C19	C	0.710490	-0.401630	0.342633
C20	C	0.672951	-0.455020	0.388040
C21	C	0.602263	-0.455022	0.388050
C22	C	0.569114	-0.401637	0.342648
C23	C	0.606657	-0.348241	0.297239
C24	C	0.677345	-0.348236	0.297233
C25	C	0.321583	-0.348259	0.297262
C26	C	0.250891	-0.348270	0.297270
C27	C	0.246501	-0.455045	0.388079
C28	C	0.317189	-0.455040	0.388073
C29	C	0.354726	-0.401642	0.342666
C30	C	0.431375	-0.401640	0.342657
C31	C	0.492466	-0.401642	0.342653
C32	C	0.952584	-0.618243	0.351535
C33	C	0.948798	-0.710909	0.355360
C34	C	0.981382	-0.921848	0.322953
C35	C	0.941899	-0.880566	0.362350
C36	C	0.945739	-0.786160	0.358460
C37	C	0.977543	-1.016263	0.326842
C38	C	1.138120	-0.401650	0.342671
C39	C	1.213351	-0.401657	0.342681
C40	C	0.961618	-0.401580	0.519189
C41	C	0.961635	-0.401558	0.594420
C42	C	0.970625	-0.184178	0.333741
C43	C	0.974480	-0.091511	0.329945
C44	C	0.961579	-0.401625	0.166792
C45	C	0.961703	-0.401413	0.091551
C46	C	1.007145	-0.348237	0.627586
C47	C	1.007153	-0.348213	0.698274
C48	C	0.961653	-0.401515	0.735794
C49	C	0.916139	-0.454838	0.702622
C50	C	0.916128	-0.454858	0.631936
C51	C	0.916180	-0.454760	0.987692
C52	C	0.916196	-0.454739	1.058384
C53	C	1.007205	-0.348116	1.054031
C54	C	1.007194	-0.348135	0.983344
C55	C	0.961677	-0.401455	0.950179
C56	C	0.961668	-0.401480	0.873531
C57	C	0.961665	-0.401495	0.812440
H58	H	0.579662	-0.304770	0.260275
H59	H	0.707908	-0.304756	0.260261
H60	H	0.905213	-0.916125	0.399001
H61	H	1.044213	-0.304795	0.725275
H62	H	0.879090	-0.498235	0.733176
Cl63	Cl	1.038017	-0.866952	0.266368
Cl64	Cl	1.064350	-0.281229	0.580426
Cl65	Cl	0.858911	-0.521890	0.590240
H66	H	0.699936	-0.498496	0.425009
Cl67	Cl	1.064397	-0.281127	0.936180
Cl68	Cl	1.064424	-0.281080	1.095728
H69	H	0.879142	-0.498145	1.088931
Cl70	Cl	0.555074	-0.522144	0.445136
H71	H	0.215930	-0.498522	0.425053
H72	H	0.879127	-0.498189	0.960698
H73	H	0.344175	-0.498515	0.425041
Cl74	Cl	0.368764	-0.281127	0.240181
Cl75	Cl	0.209219	-0.281151	0.240190
