data_functionalizedCrystal
_audit_creation_method	'MofGen! by Chris Wilmer'
_symmetry_space_group_name_H-M	'P1'
_symmetry_Int_Tables_number	1
_symmetry_cell_setting	triclinic
loop_
_symmetry_equiv_pos_as_xyz
  x,y,z
_cell_length_a	14.519709
_cell_length_b	11.026607
_cell_length_c	10.066281
_cell_angle_alpha	97.650714
_cell_angle_beta	99.844101
_cell_angle_gamma	96.133081
loop_
_atom_site_label
_atom_site_type_symbol
_atom_site_fract_x
_atom_site_fract_y
_atom_site_fract_z
O1	O	-1.235372	-0.143286	0.113303
O2	O	-0.735372	0.356714	0.613303
O3	O	-0.969978	-0.162020	0.113344
O4	O	-0.469978	0.337980	0.613344
O5	O	-1.080680	0.024047	0.113322
O6	O	-0.580680	0.524047	0.613322
O7	O	-1.124670	-0.329354	0.113325
O8	O	-0.624670	0.170646	0.613325
O9	O	-1.110143	-0.007689	-0.113655
O10	O	-0.610143	0.492311	0.386345
O11	O	-0.999441	-0.193757	-0.113633
O12	O	-0.499441	0.306243	0.386367
O13	O	-1.264835	-0.175023	-0.113674
O14	O	-0.764835	0.324977	0.386326
Zn15	Zn	-1.136816	-0.189429	-0.149691
Zn16	Zn	-0.636816	0.310571	0.350309
Zn17	Zn	-1.097997	-0.147615	0.149361
Zn18	Zn	-0.597997	0.352385	0.649361
O19	O	-1.154133	-0.361090	-0.113652
O20	O	-0.654133	0.138910	0.386348
C21	C	-1.087296	0.053408	-0.000164
C22	C	-0.587296	0.553408	0.499836
C23	C	-1.063102	0.188176	-0.000155
C24	C	-0.563102	0.688176	0.499845
C25	C	-0.950205	-0.177015	-0.000139
C26	C	-0.450205	0.322985	0.499861
C27	C	-0.847390	-0.174395	-0.000123
C28	C	-0.347390	0.325605	0.499877
C29	C	-1.284608	-0.160028	-0.000188
C30	C	-0.784608	0.339972	0.499812
C31	C	-1.387421	-0.162646	-0.000195
C32	C	-0.887421	0.337354	0.499805
C33	C	-0.470915	-0.164769	-0.000186
C34	C	0.029085	0.335231	0.499814
C35	C	-0.575662	-0.167442	-0.000168
C36	C	-0.075662	0.332558	0.499832
C37	C	-0.659149	-0.169582	-0.000153
C38	C	-0.159149	0.330418	0.499847
C39	C	-0.763903	-0.172256	-0.000138
C40	C	-0.263903	0.327744	0.499862
C41	C	-1.147517	-0.390451	-0.000163
C42	C	-0.647517	0.109549	0.499837
C43	C	-1.171709	-0.525217	-0.000163
C44	C	-0.671709	-0.025217	0.499837
N45	N	-1.163315	-0.217965	-0.353787
N46	N	-0.663315	0.282035	0.146213
C47	C	-1.129903	0.261835	-0.000163
C48	C	-0.629903	0.761835	0.499837
C49	C	-1.104899	0.401125	-0.000155
C50	C	-0.604899	0.901125	0.499845
C51	C	-1.107204	-0.157536	-0.421587
C52	C	-0.607204	0.342464	0.078413
C53	C	-1.127623	-0.179507	-0.578747
C54	C	-0.627623	0.320493	-0.078747
N55	N	-1.071504	-0.119069	0.353457
N56	N	-0.571504	0.380931	0.853457
H57	H	-1.029192	0.441178	-0.000134
H58	H	-0.529192	0.941178	0.499866
H59	H	-1.247402	0.434747	-0.000072
H60	H	-0.747402	0.934747	0.499928
C61	C	-0.995375	0.090358	-0.602273
C62	C	-0.495375	0.590358	-0.102273
C63	C	-0.986237	-0.027269	-0.567849
C64	C	-0.486237	0.472731	-0.067849
H65	H	-0.942731	0.147024	-0.553692
H66	H	-0.442731	0.647024	-0.053692
H67	H	-1.051666	0.116195	-0.578908
H68	H	-0.551666	0.616195	-0.078908
H69	H	-0.997908	0.087629	-0.697565
H70	H	-0.497908	0.587629	-0.197565
H71	H	-0.983710	-0.024542	-0.472559
H72	H	-0.483710	0.475458	0.027441
H73	H	-0.929930	-0.053112	-0.591205
H74	H	-0.429930	0.446888	-0.091205
C75	C	-0.903917	0.147497	-0.000121
C76	C	-0.403917	0.647497	0.499879
C77	C	-0.960903	0.242237	-0.000130
C78	C	-0.460903	0.742237	0.499870
H79	H	-0.840821	0.180874	-0.000096
H80	H	-0.340821	0.680874	0.499904
H81	H	-0.926403	0.087631	-0.079274
H82	H	-0.426403	0.587631	0.420726
H83	H	-0.905868	0.109747	0.079031
H84	H	-0.405868	0.609747	0.579031
H85	H	-0.958958	0.279981	-0.079287
H86	H	-0.458958	0.779981	0.420713
H87	H	-0.938411	0.302125	0.079031
H88	H	-0.438411	0.802125	0.579031
H89	H	-1.226466	-0.285973	-0.412091
H90	H	-0.726466	0.214027	0.087909
H91	H	-1.205605	0.221777	-0.000184
H92	H	-0.705605	0.721777	0.499816
C93	C	-1.031091	0.051887	-0.377339
C94	C	-0.531091	0.551887	0.122661
C95	C	-1.021942	-0.065732	-0.342900
C96	C	-0.521942	0.434268	0.157100
H97	H	-0.978449	0.108561	-0.328769
H98	H	-0.478449	0.608561	0.171231
H99	H	-1.087382	0.077722	-0.353971
H100	H	-0.587382	0.577722	0.146029
H101	H	-1.033631	0.049148	-0.472633
H102	H	-0.533631	0.549148	0.027367
H103	H	-1.019409	-0.062996	-0.247607
H104	H	-0.519409	0.437004	0.252393
H105	H	-0.965636	-0.091573	-0.366259
H106	H	-0.465636	0.408427	0.133741
H107	H	-1.190778	-0.247518	-0.637045
H108	H	-0.690778	0.252482	-0.137045
