data_functionalizedCrystal
_audit_creation_method	'MofGen! by Chris Wilmer'
_symmetry_space_group_name_H-M	'P1'
_symmetry_Int_Tables_number	1
_symmetry_cell_setting	triclinic
loop_
_symmetry_equiv_pos_as_xyz
  x,y,z
_cell_length_a	21.295417
_cell_length_b	10.685972
_cell_length_c	10.686551
_cell_angle_alpha	98.409768
_cell_angle_beta	85.587790
_cell_angle_gamma	85.605282
loop_
_atom_site_label
_atom_site_type_symbol
_atom_site_fract_x
_atom_site_fract_y
_atom_site_fract_z
Zn1	Zn	-0.141130	-1.995712	-0.866708
Zn2	Zn	-0.255172	-1.979224	-0.654409
Zn3	Zn	-0.158647	-1.767128	-0.638161
Zn4	Zn	-0.255108	-1.783347	-0.850315
O5	O	-0.202514	-1.881353	-0.752398
O6	O	-0.148954	-2.171162	-0.852206
O7	O	-0.249726	-1.937401	-0.474619
O8	O	-0.068228	-1.797562	-0.668540
O9	O	-0.232740	-2.159049	-0.696231
O10	O	-0.055358	-1.965502	-0.836452
O11	O	-0.178809	-1.781575	-0.462682
O12	O	-0.178747	-1.591642	-0.652644
O13	O	-0.232630	-1.825206	-1.030124
O14	O	-0.249616	-1.603558	-0.808512
O15	O	-0.148891	-1.981229	-1.042168
O16	O	-0.343260	-1.953128	-0.680335
O17	O	-0.343212	-1.809219	-0.824266
C18	C	-0.216076	-1.551540	-0.727037
C19	C	-0.221892	-1.410447	-0.716217
C20	C	-0.366076	-1.881181	-0.752315
C21	C	-0.436041	-1.881227	-0.752331
C22	C	-0.468905	-1.956239	-0.677475
C23	C	-0.534644	-1.956301	-0.677508
C24	C	-0.567518	-1.881327	-0.752382
C25	C	-0.534646	-1.806310	-0.827254
C26	C	-0.468907	-1.806260	-0.827228
N27	N	-0.674955	-1.771023	-0.753520
N28	N	-0.737403	-1.771073	-0.753537
C29	C	-0.765584	-1.881474	-0.752466
N30	N	-0.728957	-1.991824	-0.751352
N31	N	-0.666503	-1.991771	-0.751328
C32	C	-0.638800	-1.881373	-0.752419
C33	C	-0.869729	-1.956560	-0.677642
C34	C	-0.935469	-1.956625	-0.677684
C35	C	-0.935470	-1.806622	-0.827422
C36	C	-0.869731	-1.806569	-0.827387
C37	C	-0.836865	-1.881536	-0.752490
C38	C	-0.038312	-1.881562	-0.752512
C39	C	0.031662	-1.881651	-0.752560
C40	C	-0.188800	-1.906866	-1.083492
C41	C	-0.182955	-1.917738	-1.224585
C42	C	-0.188896	-1.212453	-0.777854
C43	C	-0.183083	-1.353547	-0.788686
C44	C	-0.216127	-1.856012	-0.422598
C45	C	-0.221784	-1.845386	-0.281525
H46	H	-0.259569	-1.351215	-0.645885
H47	H	-0.561416	-1.745268	-0.888219
H48	H	-0.442147	-2.017285	-0.616493
H49	H	-0.561407	-2.017389	-0.616552
H50	H	-0.259499	-1.775129	-1.222334
H51	H	-0.442149	-1.745175	-0.888186
H52	H	-0.145242	-1.988009	-1.283784
H53	H	-0.145404	-1.412772	-0.859005
H54	H	-0.842968	-2.017607	-0.616660
H55	H	-0.962235	-1.745582	-0.888392
H56	H	-0.842972	-1.745481	-0.888337
H57	H	-0.962225	-2.017717	-0.616730
