data_functionalizedCrystal
_audit_creation_method	'MofGen! by Chris Wilmer'
_symmetry_space_group_name_H-M	'P1'
_symmetry_Int_Tables_number	1
_symmetry_cell_setting	triclinic
loop_
_symmetry_equiv_pos_as_xyz
  x,y,z
_cell_length_a	15.944551
_cell_length_b	10.654550
_cell_length_c	9.130313
_cell_angle_alpha	89.993256
_cell_angle_beta	90.003746
_cell_angle_gamma	96.008180
loop_
_atom_site_label
_atom_site_type_symbol
_atom_site_fract_x
_atom_site_fract_y
_atom_site_fract_z
O1	O	0.117974	-1.666313	0.121923
O2	O	0.129214	-1.300689	0.121900
O3	O	0.001377	-1.493485	0.121899
O4	O	0.245811	-1.473516	0.121924
O5	O	0.001378	-1.493473	-0.121700
O6	O	0.129215	-1.300676	-0.121699
O7	O	0.117975	-1.666300	-0.121676
Cu8	Cu	0.123595	-1.483487	-0.143930
Cu9	Cu	0.123594	-1.483502	0.144154
O10	O	0.245812	-1.473504	-0.121675
C11	C	-0.029921	-1.492650	0.000099
C12	C	-0.123182	-1.490165	0.000098
C13	C	0.128389	-1.253895	0.000098
C14	C	0.125920	-1.114484	0.000088
C15	C	0.118800	-1.713094	0.000130
C16	C	0.121269	-1.852505	0.000149
C17	C	-0.338765	-1.364720	0.000111
C18	C	-0.399444	-1.422966	-0.119995
C19	C	-0.293934	-1.485668	0.000109
C20	C	-0.399428	-1.423007	0.120175
C21	C	-0.458872	-1.481317	0.000126
C22	C	-0.353385	-1.543948	-0.120095
C23	C	-0.353363	-1.543972	0.120182
C24	C	-0.414024	-1.602306	0.000048
C25	C	-0.198917	-1.488172	0.000098
C26	C	-0.553887	-1.478822	0.000127
C27	C	0.277110	-1.474339	0.000128
C28	C	0.370371	-1.476824	0.000139
N29	N	0.123594	-1.483486	-0.346552
C30	C	0.201188	-1.034024	0.000117
C31	C	0.198863	-0.903034	0.000142
C32	C	0.045995	-0.932975	0.000116
C33	C	0.048321	-1.063963	0.000080
C34	C	0.289446	-1.016737	0.000139
C35	C	0.287121	-0.885746	0.000164
C36	C	0.067002	-1.568892	-0.576543
C37	C	0.067007	-1.568882	-0.423206
C38	C	0.180186	-1.398103	-0.423244
C39	C	0.180184	-1.398120	-0.576578
C40	C	0.001657	-1.667487	-0.576520
C41	C	0.001662	-1.667477	-0.423183
N42	N	0.123588	-1.483513	0.346777
H43	H	-0.306038	-1.264327	-0.000016
C44	C	-0.033428	-1.151257	0.000333
C45	C	-0.080107	-1.128487	0.125671
C46	C	-0.155417	-1.208889	0.125961
H47	H	-0.065306	-1.135984	-0.084521
H48	H	-0.020969	-1.236525	0.000389
H49	H	-0.092568	-1.043239	0.125601
H50	H	-0.048254	-1.143769	0.210545
H51	H	-0.142958	-1.294157	0.126016
H52	H	-0.187287	-1.193609	0.041101
H53	H	-0.187094	-1.193459	0.211006
H54	H	-0.333099	-1.595056	-0.221746
C55	C	0.241666	-1.305293	-0.659568
C56	C	0.291214	-1.230489	-0.559621
C57	C	0.347856	-1.144952	-0.636018
H58	H	0.276987	-1.350337	-0.719369
H59	H	0.211152	-1.252949	-0.719373
H60	H	0.321726	-1.282827	-0.499841
H61	H	0.255916	-1.185419	-0.499817
H62	H	0.317341	-1.092607	-0.695823
H63	H	0.383171	-1.190006	-0.695816
H64	H	0.381475	-1.094180	-0.568216
H65	H	-0.062899	-1.646854	-0.381579
C66	C	-0.426593	-1.354518	-0.255268
C67	C	-0.388161	-1.230189	-0.254710
C68	C	-0.413155	-1.167085	-0.379284
H69	H	-0.410072	-1.396516	-0.340663
H70	H	-0.486142	-1.354033	-0.254741
H71	H	-0.328625	-1.230680	-0.255251
H72	H	-0.404677	-1.188156	-0.169344
H73	H	-0.472704	-1.166600	-0.378757
H74	H	-0.396633	-1.209093	-0.464669
H75	H	-0.387089	-1.082718	-0.378915
C76	C	0.028824	-1.788685	-0.359479
C77	C	-0.036377	-1.847705	-0.273167
C78	C	-0.011363	-1.959333	-0.214424
H79	H	0.041124	-1.843545	-0.436774
H80	H	0.077716	-1.769503	-0.300855
H81	H	-0.085255	-1.866892	-0.331787
H82	H	-0.048686	-1.792881	-0.195849
H83	H	0.037530	-1.940151	-0.155800
H84	H	0.000938	-2.014182	-0.291728
H85	H	-0.055594	-1.999386	-0.155844
H86	H	-0.017184	-0.891824	0.000131
H87	H	0.313793	-0.839724	-0.105001
C88	C	0.331317	-0.829380	0.136165
C89	C	0.274386	-0.767543	0.219353
C90	C	0.315069	-0.715593	0.344631
H91	H	0.351366	-0.894725	0.192959
H92	H	0.377479	-0.770718	0.107917
H93	H	0.228238	-0.826200	0.247603
H94	H	0.254333	-0.702181	0.162603
H95	H	0.361232	-0.656931	0.316383
H96	H	0.335117	-0.780946	0.401412
H97	H	0.276451	-0.673621	0.401082
H98	H	0.323963	-1.045616	-0.101809
H99	H	-0.446602	-1.702787	-0.000014
C100	C	0.020720	-1.796049	-0.631777
C101	C	-0.040989	-1.888767	-0.580417
C102	C	-0.023449	-2.007210	-0.631274
H103	H	0.020698	-1.796244	-0.735813
H104	H	0.074499	-1.813314	-0.597051
H105	H	-0.094754	-1.871507	-0.615150
H106	H	-0.040977	-1.888612	-0.476386
H107	H	0.030330	-2.024475	-0.596548
H108	H	-0.023471	-2.007392	-0.735310
H109	H	-0.065311	-2.070134	-0.596423
C110	C	-0.326146	-1.611918	0.255761
C111	C	-0.349205	-1.548170	0.381181
C112	C	-0.324134	-1.610705	0.506114
H113	H	-0.352937	-1.695850	0.256835
H114	H	-0.266696	-1.613628	0.254367
H115	H	-0.408643	-1.546474	0.382575
H116	H	-0.322417	-1.464243	0.380156
H117	H	-0.264685	-1.612415	0.504721
H118	H	-0.350927	-1.694634	0.507173
H119	H	-0.339769	-1.567455	0.591226
C120	C	-0.079682	-1.627665	-0.639758
C121	C	-0.090401	-1.505440	-0.592199
C122	C	-0.165328	-1.468726	-0.650404
H123	H	-0.076975	-1.628933	-0.743669
H124	H	-0.125949	-1.684395	-0.607564
H125	H	-0.044146	-1.448724	-0.624401
H126	H	-0.093123	-1.504140	-0.488295
H127	H	-0.211595	-1.525457	-0.618210
H128	H	-0.162615	-1.470001	-0.754313
H129	H	-0.172615	-1.385799	-0.618133
C130	C	-0.426771	-1.354772	0.255439
C131	C	-0.514548	-1.354314	0.254312
C132	C	-0.539761	-1.291444	0.378875
H133	H	-0.410312	-1.396841	0.340840
H134	H	-0.400799	-1.270348	0.255283
H135	H	-0.540511	-1.438722	0.254482
H136	H	-0.531030	-1.312236	0.168940
H137	H	-0.513789	-1.207020	0.378720
H138	H	-0.523297	-1.333520	0.464267
H139	H	-0.599319	-1.291115	0.378121
H140	H	0.317548	-1.052034	0.105314
H141	H	0.226266	-1.328578	-0.360822
