data_functionalizedCrystal
_audit_creation_method	'MofGen! by Chris Wilmer'
_symmetry_space_group_name_H-M	'P1'
_symmetry_Int_Tables_number	1
_symmetry_cell_setting	triclinic
loop_
_symmetry_equiv_pos_as_xyz
  x,y,z
_cell_length_a	14.908558
_cell_length_b	14.908579
_cell_length_c	17.077396
_cell_angle_alpha	86.730024
_cell_angle_beta	86.690453
_cell_angle_gamma	89.793522
loop_
_atom_site_label
_atom_site_type_symbol
_atom_site_fract_x
_atom_site_fract_y
_atom_site_fract_z
Zn1	Zn	1.353928	0.437421	-0.533660
Zn2	Zn	1.853928	0.937421	-0.033660
Zn3	Zn	1.345148	0.587787	-0.409506
Zn4	Zn	1.845148	1.087787	0.090494
Zn5	Zn	1.203570	0.428763	-0.394438
Zn6	Zn	1.703570	0.928763	0.105562
Zn7	Zn	1.194853	0.579043	-0.532759
Zn8	Zn	1.694853	1.079043	-0.032759
O9	O	1.274375	0.508254	-0.467591
O10	O	1.774375	1.008254	0.032409
O11	O	1.478588	0.464651	-0.523873
O12	O	1.978588	0.964651	-0.023873
O13	O	1.326341	0.566728	-0.297661
O14	O	1.826341	1.066728	0.202339
O15	O	1.230838	0.304090	-0.406977
O16	O	1.730838	0.804090	0.093023
O17	O	1.472137	0.575125	-0.432658
O18	O	1.972137	1.075125	0.067342
O19	O	1.341306	0.310451	-0.509263
O20	O	1.841306	0.810451	-0.009263
O21	O	1.222324	0.449894	-0.286590
O22	O	1.722324	0.949894	0.213410
O23	O	1.076589	0.441414	-0.406104
O24	O	1.576589	0.941414	0.093896
O25	O	1.215981	0.560220	-0.642725
O26	O	1.715981	1.060220	-0.142725
O27	O	1.070185	0.551824	-0.507728
O28	O	1.570185	1.051824	-0.007728
O29	O	1.332853	0.456172	-0.643387
O30	O	1.832853	0.956172	-0.143387
O31	O	1.317888	0.712449	-0.431785
O32	O	1.817888	1.212449	0.068215
O33	O	1.207467	0.706024	-0.522338
O34	O	1.707467	1.206024	-0.022338
C35	C	1.040762	0.494731	-0.455183
C36	C	1.540762	0.994731	0.044817
C37	C	0.940820	0.488968	-0.449895
C38	C	1.440820	0.988968	0.050105
C39	C	1.260803	0.741862	-0.478617
C40	C	1.760803	1.241862	0.021383
C41	C	1.255079	0.841805	-0.483365
C42	C	1.755079	1.341805	0.016635
C43	C	0.803270	0.423276	-0.389610
C44	C	1.303270	0.923276	0.110390
C45	C	0.897175	0.428687	-0.394575
C46	C	1.397175	0.928687	0.105425
C47	C	0.890555	0.543841	-0.500255
C48	C	1.390555	1.043841	-0.000255
C49	C	0.796651	0.538430	-0.495289
C50	C	1.296651	1.038430	0.004711
C51	C	0.753012	0.478147	-0.439964
C52	C	1.253012	0.978147	0.060036
C53	C	0.659105	0.472742	-0.434996
C54	C	1.159105	0.972742	0.065004
C55	C	0.652488	0.587890	-0.540678
C56	C	1.152488	1.087890	-0.040678
C57	C	0.746392	0.593301	-0.545644
C58	C	1.246392	1.093301	-0.045644
C59	C	1.359423	1.036246	-0.398081
C60	C	1.859423	1.536246	0.101919
C61	C	1.354048	1.130152	-0.402539
C62	C	1.854048	1.630152	0.097461
C63	C	1.238959	1.123525	-0.496745
C64	C	1.738959	1.623525	0.003255
C65	C	1.244334	1.029619	-0.492286
C66	C	1.744334	1.529619	0.007714
C67	C	1.304567	0.985983	-0.442952
C68	C	1.804567	1.485983	0.057048
C69	C	1.309937	0.892075	-0.438489
C70	C	1.809937	1.392075	0.061511
C71	C	1.194853	0.885451	-0.532698
C72	C	1.694853	1.385451	-0.032698
C73	C	1.189478	0.979357	-0.537157
C74	C	1.689478	1.479357	-0.037157
C75	C	1.508899	0.521829	-0.480047
C76	C	2.008899	1.021829	0.019953
C77	C	1.608840	0.527614	-0.485355
C78	C	2.108840	1.027614	0.014645
C79	C	1.274424	0.508186	-0.672334
C80	C	1.774424	1.008186	-0.172334
C81	C	1.274445	0.508158	-0.759584
C82	C	1.774445	1.008158	-0.259584
C83	C	1.288018	1.273734	-0.456549
C84	C	1.788018	1.773734	0.043451
C85	C	1.293817	1.173795	-0.451869
C86	C	1.793817	1.673795	0.048131
C87	C	1.220301	0.447316	-0.794809
C88	C	1.720301	0.947316	-0.294809
C89	C	1.220317	0.447297	-0.876790
C90	C	1.720317	0.947297	-0.376790
C91	C	1.274482	0.508115	-0.923543
C92	C	1.774482	1.008115	-0.423543
C93	C	1.328628	0.568963	-0.888312
C94	C	1.828628	1.068963	-0.388312
C95	C	1.328606	0.568987	-0.806333
C96	C	1.828606	1.068987	-0.306333
C97	C	1.328670	0.568910	-1.059181
C98	C	1.828670	1.068910	-0.559181
C99	C	1.328692	0.568886	-1.141166
C100	C	1.828692	1.068886	-0.641166
C101	C	1.220381	0.447219	-1.129638
C102	C	1.720381	0.947219	-0.629638
C103	C	1.220359	0.447243	-1.047659
C104	C	1.720359	0.947243	-0.547659
C105	C	1.274506	0.508090	-1.012434
C106	C	1.774506	1.008090	-0.512434
C107	C	1.274381	0.508258	-0.263643
C108	C	1.774381	1.008258	0.236357
C109	C	1.274549	0.508044	-0.176392
C110	C	1.774549	1.008044	0.323608
H111	H	0.623576	0.423655	-0.389948
H112	H	1.123576	0.923655	0.110052
H113	H	1.358979	0.856547	-0.398317
H114	H	1.858979	1.356547	0.101683
H115	H	1.140441	1.014898	-0.577326
H116	H	1.640441	1.514898	-0.077326
H117	H	0.926103	0.592916	-0.545301
H118	H	1.426103	1.092916	-0.045301
H119	H	0.767739	0.374193	-0.344561
H120	H	1.267739	0.874193	0.155439
Br121	Br	1.428503	1.198364	-0.341645
Br122	Br	1.928503	1.698364	0.158355
H123	H	0.781936	0.642380	-0.590689
H124	H	1.281936	1.142380	-0.090689
H125	H	1.150183	0.844516	-0.569233
H126	H	1.650183	1.344516	-0.069233
H127	H	0.611557	0.632571	-0.581680
H128	H	1.111557	1.132571	-0.081680
H129	H	1.189926	1.159071	-0.536916
H130	H	1.689926	1.659071	-0.036916
H131	H	1.176200	0.397786	-0.756748
H132	H	1.676200	0.897786	-0.256748
H133	H	1.176225	0.397756	-0.905466
H134	H	1.676225	0.897756	-0.405466
Br135	Br	1.441148	0.977019	-0.331114
Br136	Br	1.941148	1.477019	0.168886
Br137	Br	1.146858	0.364694	-0.984209
Br138	Br	1.646858	0.864694	-0.484209
H139	H	1.176293	0.397674	-1.158323
H140	H	1.676293	0.897674	-0.658323
H141	H	1.372725	0.618487	-0.926385
H142	H	1.872725	1.118487	-0.426385
Br143	Br	1.402082	0.651567	-0.758525
Br144	Br	1.902082	1.151567	-0.258525
Br145	Br	1.402211	0.651418	-1.204617
Br146	Br	1.902211	1.151418	-0.704617
H147	H	0.938092	0.384002	-0.353574
H148	H	1.438092	0.884002	0.146426
Br149	Br	1.402150	0.651494	-1.011376
Br150	Br	1.902150	1.151494	-0.511376
