data_functionalizedCrystal
_audit_creation_method	'MofGen! by Chris Wilmer'
_symmetry_space_group_name_H-M	'P1'
_symmetry_Int_Tables_number	1
_symmetry_cell_setting	triclinic
loop_
_symmetry_equiv_pos_as_xyz
  x,y,z
_cell_length_a	15.995300
_cell_length_b	19.188924
_cell_length_c	15.072220
_cell_angle_alpha	89.996779
_cell_angle_beta	89.985917
_cell_angle_gamma	83.306886
loop_
_atom_site_label
_atom_site_type_symbol
_atom_site_fract_x
_atom_site_fract_y
_atom_site_fract_z
O1	O	1.110690	0.089824	-0.073819
O2	O	1.610690	0.589824	0.426181
O3	O	0.866868	0.100975	-0.073814
O4	O	1.366868	0.600975	0.426186
O5	O	0.995819	-0.006240	-0.073806
O6	O	1.495819	0.493760	0.426194
O7	O	0.981740	0.197039	-0.073827
O8	O	1.481740	0.697039	0.426173
O9	O	0.995787	-0.006234	0.073759
O10	O	1.495787	0.493766	0.573759
O11	O	0.866836	0.100981	0.073751
O12	O	1.366836	0.600981	0.573751
O13	O	1.110659	0.089830	0.073746
O14	O	1.610659	0.589830	0.573746
Zn15	Zn	0.988743	0.095406	0.097178
Zn16	Zn	1.488743	0.595406	0.597178
Zn17	Zn	0.988784	0.095399	-0.097246
Zn18	Zn	1.488784	0.595399	0.402754
O19	O	0.981708	0.197045	0.073738
O20	O	1.481708	0.697045	0.573738
C21	C	0.835659	0.100523	-0.000031
C22	C	1.335659	0.600523	0.499969
C23	C	0.742711	0.099159	-0.000029
C24	C	1.242711	0.599159	0.499971
C25	C	0.995348	-0.032249	-0.000023
C26	C	1.495348	0.467751	0.499977
C27	C	0.993982	-0.109757	-0.000021
C28	C	1.493982	0.390243	0.499979
C29	C	0.572537	0.096642	-0.000035
C30	C	1.072537	0.596642	0.499965
C31	C	0.524790	0.172980	-0.000041
C32	C	1.024790	0.672980	0.499959
C33	C	0.428107	0.171588	-0.000378
C34	C	0.928107	0.671588	0.499622
C35	C	0.404990	0.094163	-0.000041
C36	C	0.904990	0.594163	0.499959
C37	C	0.446280	0.056286	-0.084138
C38	C	0.946280	0.556286	0.415862
C39	C	0.542907	0.058217	-0.084206
C40	C	1.042907	0.558217	0.415794
C41	C	0.543154	0.057094	0.083609
C42	C	1.043154	0.557094	0.583609
C43	C	0.446209	0.057101	0.084712
C44	C	0.946209	0.557101	0.584712
C45	C	0.310300	0.092759	-0.000047
C46	C	0.810300	0.592759	0.499953
C47	C	0.667228	0.098044	-0.000035
C48	C	1.167228	0.598044	0.499965
C49	C	0.993362	-0.146161	-0.080459
C50	C	1.493362	0.353839	0.419541
C51	C	0.992067	-0.218986	-0.080465
C52	C	1.492067	0.281014	0.419535
C53	C	0.991409	-0.255408	-0.000029
C54	C	1.491409	0.244592	0.499971
C55	C	0.992024	-0.218995	0.080419
C56	C	1.492024	0.281005	0.580419
C57	C	0.993311	-0.146169	0.080424
C58	C	1.493311	0.353831	0.580424
N59	N	1.037025	-0.374959	0.059836
N60	N	1.537025	0.125041	0.559836
N61	N	1.035804	-0.444140	0.059826
N62	N	1.535804	0.055860	0.559826
C63	C	0.987530	-0.474826	-0.000038
C64	C	1.487530	0.025174	0.499962
N65	N	0.940533	-0.433718	-0.059906
N66	N	1.440533	0.066282	0.440094
N67	N	0.941758	-0.364531	-0.059899
N68	N	1.441758	0.135469	0.440101
C69	C	0.990013	-0.334374	-0.000025
C70	C	1.490013	0.165626	0.499975
C71	C	0.985505	-0.590196	-0.080489
C72	C	1.485505	-0.090196	0.419511
C73	C	0.984204	-0.663022	-0.080492
C74	C	1.484204	-0.163022	0.419508
C75	C	0.984170	-0.663030	0.080395
C76	C	1.484170	-0.163030	0.580395
C77	C	0.985462	-0.590204	0.080396
C78	C	1.485462	-0.090204	0.580396
C79	C	0.986133	-0.553791	-0.000048
C80	C	1.486133	-0.053791	0.499952
C81	C	1.141868	0.090282	-0.000039
C82	C	1.641868	0.590282	0.499961
C83	C	1.234816	0.091646	-0.000047
C84	C	1.734816	0.591646	0.499953
C85	C	0.982179	0.223054	-0.000047
C86	C	1.482179	0.723054	0.499953
C87	C	0.983545	0.300562	-0.000055
C88	C	1.483545	0.800562	0.499945
N89	N	0.988720	0.095411	0.229866
N90	N	1.488720	0.595411	0.729866
N91	N	0.988814	0.095388	-0.229935
N92	N	1.488814	0.595388	0.270065
C93	C	0.988783	0.095396	0.589068
C94	C	1.488783	0.595396	1.089068
C95	C	0.919554	0.152572	0.551457
C96	C	1.419554	0.652572	1.051457
C97	C	0.919711	0.152780	0.448631
C98	C	1.419711	0.652780	0.948631
C99	C	0.988751	0.095404	0.410864
C100	C	1.488751	0.595404	0.910864
C101	C	1.076059	0.111302	0.448151
C102	C	1.576059	0.611302	0.948151
C103	C	1.075671	0.111708	0.551009
C104	C	1.575671	0.611708	1.051009
C105	C	0.971483	0.022152	0.551176
C106	C	1.471483	0.522152	1.051176
C107	C	0.969477	0.022641	0.448313
C108	C	1.469477	0.522641	0.948313
C109	C	0.988738	0.095407	0.310150
C110	C	1.488738	0.595407	0.810150
C111	C	0.988801	0.095394	0.689781
C112	C	1.488801	0.595394	1.189781
H113	H	0.399521	0.201350	0.059892
H114	H	0.899521	0.701350	0.559892
Br115	Br	0.937670	0.242659	0.594492
Br116	Br	1.437670	0.742659	1.094492
Br117	Br	0.938037	0.243383	0.407588
Br118	Br	1.438037	0.743383	0.907588
H119	H	0.575388	0.002161	-0.087794
H120	H	1.075388	0.502161	0.412206
Br121	Br	0.596485	-0.036710	0.084981
Br122	Br	1.096485	0.463290	0.584981
H123	H	0.993812	-0.116529	0.145928
H124	H	1.493812	0.383471	0.645928
H125	H	0.985974	-0.560564	0.145897
H126	H	1.485974	-0.060564	0.645897
H127	H	0.983628	-0.692683	0.145887
H128	H	1.483628	-0.192683	0.645887
H129	H	0.543154	0.203661	0.060255
H130	H	1.043154	0.703661	0.560255
Br131	Br	0.811513	0.137045	0.406610
Br132	Br	1.311513	0.637045	0.906610
H133	H	0.561139	0.085511	-0.147314
H134	H	1.061139	0.585511	0.352686
H135	H	0.993906	-0.116518	-0.145962
H136	H	1.493906	0.383482	0.354038
H137	H	0.991486	-0.248653	0.145910
H138	H	1.491486	0.251347	0.645910
H139	H	0.431078	0.000653	0.090045
H140	H	0.931078	0.500653	0.590045
Br141	Br	1.163959	0.043738	0.407382
Br142	Br	1.663959	0.543738	0.907382
H143	H	0.991557	-0.248631	-0.145970
H144	H	1.491557	0.251369	0.354030
Br145	Br	0.986411	-0.540774	-0.189660
Br146	Br	1.486411	-0.040774	0.310340
Br147	Br	0.423136	-0.038535	-0.088953
Br148	Br	0.923136	0.461465	0.411047
H149	H	0.983695	-0.692660	-0.145997
H150	H	1.483695	-0.192660	0.354003
H151	H	0.854437	0.143257	0.576221
H152	H	1.354437	0.643257	1.076221
Br153	Br	1.101148	0.200737	0.590975
Br154	Br	1.601148	0.700737	1.090975
H155	H	1.128781	0.071705	0.575887
H156	H	1.628781	0.571705	1.075887
H157	H	1.091717	0.164109	0.422376
H158	H	1.591717	0.664109	0.922376
Br159	Br	0.867682	-0.003321	0.594468
Br160	Br	1.367682	0.496679	1.094468
Br161	Br	0.862432	0.002527	0.407700
Br162	Br	1.362432	0.502527	0.907700
H163	H	1.016645	-0.021899	0.422608
H164	H	1.516645	0.478101	0.922608
Br165	Br	0.577145	0.098986	0.189884
Br166	Br	1.077145	0.598986	0.689884
Br167	Br	0.557303	0.223352	-0.100413
Br168	Br	1.057303	0.723352	0.399587
Br169	Br	0.381524	0.220971	-0.101452
Br170	Br	0.881524	0.720971	0.398548
Br171	Br	0.398922	0.099620	-0.188856
Br172	Br	0.898922	0.599620	0.311144
H173	H	1.021972	-0.020396	0.575498
H174	H	1.521972	0.479604	1.075498
H175	H	0.418754	0.084762	0.146928
H176	H	0.918754	0.584762	0.646928
