data_functionalizedCrystal
_audit_creation_method	'MofGen! by Chris Wilmer'
_symmetry_space_group_name_H-M	'P1'
_symmetry_Int_Tables_number	1
_symmetry_cell_setting	triclinic
loop_
_symmetry_equiv_pos_as_xyz
  x,y,z
_cell_length_a	10.685980
_cell_length_b	16.120531
_cell_length_c	10.686551
_cell_angle_alpha	88.704865
_cell_angle_beta	98.408259
_cell_angle_gamma	82.492862
loop_
_atom_site_label
_atom_site_type_symbol
_atom_site_fract_x
_atom_site_fract_y
_atom_site_fract_z
Zn1	Zn	1.982379	0.186870	0.879971
Zn2	Zn	2.315713	0.520203	1.213304
Zn3	Zn	2.649046	0.853537	1.546638
Zn4	Zn	1.955119	0.337907	0.678431
Zn5	Zn	2.288452	0.671240	1.011764
Zn6	Zn	2.621786	1.004574	1.345097
Zn7	Zn	1.752141	0.210075	0.653083
Zn8	Zn	2.085475	0.543408	0.986416
Zn9	Zn	2.418808	0.876741	1.319750
Zn10	Zn	1.759249	0.337826	0.874335
Zn11	Zn	2.092582	0.671159	1.207669
Zn12	Zn	2.425915	1.004493	1.541002
O13	O	1.862222	0.268169	0.771455
O14	O	2.195555	0.601503	1.104788
O15	O	2.528889	0.934836	1.438122
O16	O	2.157091	0.197228	0.866203
O17	O	2.490424	0.530562	1.199536
O18	O	2.823758	0.863895	1.532870
O19	O	1.913811	0.330695	0.498128
O20	O	2.247144	0.664028	0.831461
O21	O	2.580477	0.997362	1.164795
O22	O	1.791117	0.090323	0.674931
O23	O	2.124450	0.423656	1.008264
O24	O	2.457784	0.756989	1.341597
O25	O	2.137063	0.308194	0.718132
O26	O	2.470396	0.641528	1.051465
O27	O	2.803730	0.974861	1.384799
O28	O	1.960272	0.073274	0.841624
O29	O	2.293605	0.406608	1.174958
O30	O	2.626938	0.739941	1.508291
O31	O	1.764684	0.236777	0.479505
O32	O	2.098017	0.570110	0.812838
O33	O	2.431350	0.903444	1.146172
O34	O	1.574756	0.236698	0.669466
O35	O	1.908089	0.570032	1.002799
O36	O	2.241423	0.903365	1.336132
O37	O	1.803230	0.308056	1.052023
O38	O	2.136564	0.641390	1.385356
O39	O	2.469897	0.974723	1.718690
O40	O	1.579978	0.330557	0.832019
O41	O	1.913311	0.663890	1.165352
O42	O	2.246645	0.997223	1.498686
O43	O	1.967163	0.197150	1.056164
O44	O	2.300497	0.530483	1.389497
O45	O	2.633830	0.863816	1.722830
O46	O	1.920702	0.454570	0.712667
O47	O	2.254036	0.787904	1.046001
O48	O	2.587369	1.121237	1.379334
O49	O	1.776797	0.454511	0.856598
O50	O	2.110130	0.787844	1.189931
O51	O	2.443464	1.121177	1.523264
C52	C	1.531129	0.286137	0.747381
C53	C	1.864462	0.619471	1.080714
C54	C	2.197795	0.952804	1.414048
C55	C	1.389486	0.293843	0.737113
C56	C	1.722820	0.627176	1.070447
C57	C	2.056153	0.960509	1.403780
C58	C	1.846600	0.484789	0.786802
C59	C	2.179933	0.818123	1.120135
C60	C	2.513266	1.151456	1.453468
C61	C	1.840036	0.577452	0.793418
C62	C	2.173370	0.910785	1.126751
C63	C	2.506703	1.244118	1.460084
C64	C	1.828063	0.747105	0.805523
C65	C	2.161396	1.080438	1.138857
C66	C	2.494730	1.413771	1.472190
C67	C	1.896423	0.788395	0.737318
C68	C	2.229757	1.121728	1.070652
C69	C	2.563090	1.455062	1.403985
C70	C	1.889761	0.882796	0.744054
C71	C	2.223095	1.216129	1.077387
C72	C	2.556428	1.549463	1.410721
C73	C	1.834723	0.652695	0.798789
C74	C	2.168057	0.986029	1.132123
C75	C	2.501390	1.319362	1.465456
C76	C	2.194608	0.250132	0.795624
C77	C	2.527942	0.583465	1.128957
C78	C	2.861275	0.916799	1.462290
C79	C	2.336252	0.242445	0.805923
C80	C	2.669585	0.575779	1.139256
C81	C	3.002918	0.909112	1.472590
C82	C	1.877895	1.050704	0.756052
C83	C	2.211228	1.384037	1.089385
C84	C	2.544562	1.717371	1.422719
C85	C	1.884453	0.958043	0.749421
C86	C	2.217787	1.291376	1.082754
C87	C	2.551120	1.624710	1.416087
C88	C	1.889030	0.250006	1.101255
C89	C	2.222364	0.583339	1.434588
C90	C	2.555697	0.916672	1.767921
C91	C	1.900455	0.242265	1.241796
C92	C	2.233788	0.575598	1.575129
C93	C	2.567121	0.908932	1.908462
C94	C	1.835596	0.286199	0.442939
C95	C	2.168929	0.619532	0.776273
C96	C	2.502262	0.952865	1.109606
C97	C	1.824435	0.293691	0.302400
C98	C	2.157769	0.627024	0.635734
C99	C	2.491102	0.960357	0.969067
H100	H	1.959951	0.752847	0.673867
H101	H	2.293284	1.086181	1.007200
H102	H	2.626617	1.419514	1.340533
H103	H	1.764538	0.782650	0.868968
H104	H	2.097872	1.115984	1.202301
H105	H	2.431205	1.449317	1.535635
N106	N	1.419410	0.176351	0.894378
N107	N	1.752743	0.509684	1.227711
N108	N	2.086076	0.843017	1.561045
H109	H	1.363765	0.143148	0.938838
H110	H	1.697098	0.476481	1.272171
H111	H	2.030432	0.809815	1.605505
H112	H	1.473221	0.137573	0.844226
H113	H	1.806555	0.470907	1.177560
H114	H	2.139888	0.804240	1.510893
N115	N	1.306317	0.359940	0.648656
N116	N	1.639650	0.693273	0.981989
N117	N	1.972984	1.026606	1.315323
H118	H	1.252493	0.398774	0.698726
H119	H	1.585826	0.732107	1.032059
H120	H	1.919160	1.065441	1.365393
H121	H	1.362045	0.393082	0.604214
H122	H	1.695379	0.726415	0.937547
H123	H	2.028712	1.059749	1.270881
N124	N	1.726649	0.359861	1.228723
N125	N	2.059982	0.693195	1.562056
N126	N	2.393316	1.026528	1.895389
H127	H	1.732075	0.356198	1.135402
H128	H	2.065408	0.689532	1.468735
H129	H	2.398741	1.022865	1.802068
H130	H	1.638424	0.350571	1.244204
H131	H	1.971757	0.683904	1.577537
H132	H	2.305090	1.017238	1.910871
H133	H	1.974288	0.192316	1.297435
H134	H	2.307621	0.525649	1.630768
H135	H	2.640955	0.858982	1.964101
