data_functionalizedCrystal
_audit_creation_method	'MofGen! by Chris Wilmer'
_symmetry_space_group_name_H-M	'P1'
_symmetry_Int_Tables_number	1
_symmetry_cell_setting	triclinic
loop_
_symmetry_equiv_pos_as_xyz
  x,y,z
_cell_length_a	18.215407
_cell_length_b	18.101395
_cell_length_c	18.215399
_cell_angle_alpha	89.973573
_cell_angle_beta	89.980167
_cell_angle_gamma	90.031552
loop_
_atom_site_label
_atom_site_type_symbol
_atom_site_fract_x
_atom_site_fract_y
_atom_site_fract_z
Zn1	Zn	1.125040	-0.294828	-0.416124
Zn2	Zn	1.625040	0.205172	0.083876
Zn3	Zn	1.124935	-0.418675	-0.293061
Zn4	Zn	1.624935	0.081325	0.206939
Zn5	Zn	1.001973	-0.294853	-0.293071
Zn6	Zn	1.501973	0.205147	0.206929
Zn7	Zn	1.001925	-0.418634	-0.416086
Zn8	Zn	1.501925	0.081366	0.083914
O9	O	1.063468	-0.356747	-0.354585
O10	O	1.563468	0.143253	0.145415
O11	O	1.228010	-0.311264	-0.399811
O12	O	1.728010	0.188736	0.100189
O13	O	1.108600	-0.402277	-0.190078
O14	O	1.608600	0.097723	0.309922
O15	O	1.018362	-0.191216	-0.309415
O16	O	1.518362	0.308784	0.190585
O17	O	1.227933	-0.402253	-0.309397
O18	O	1.727933	0.097747	0.190603
O19	O	1.108779	-0.191199	-0.399821
O20	O	1.608779	0.308801	0.100179
O21	O	1.018260	-0.311305	-0.190085
O22	O	1.518260	0.188695	0.309915
O23	O	0.898982	-0.311265	-0.309378
O24	O	1.398982	0.188735	0.190622
O25	O	1.018281	-0.402183	-0.519075
O26	O	1.518281	0.097817	-0.019075
O27	O	0.898947	-0.402207	-0.399756
O28	O	1.398947	0.097793	0.100244
O29	O	1.108733	-0.311224	-0.519103
O30	O	1.608733	0.188776	-0.019103
O31	O	1.108554	-0.522302	-0.309360
O32	O	1.608554	-0.022302	0.190640
O33	O	1.018179	-0.522272	-0.399746
O34	O	1.518179	-0.022272	0.100254
C35	C	0.872262	-0.356735	-0.354564
C36	C	1.372262	0.143265	0.145436
C37	C	0.790463	-0.356747	-0.354572
C38	C	1.290463	0.143253	0.145428
C39	C	0.602270	-0.404175	-0.401573
C40	C	1.102270	0.095825	0.098427
C41	C	0.525412	-0.404177	-0.401583
C42	C	1.025412	0.095823	0.098417
C43	C	0.525418	-0.309333	-0.307613
C44	C	1.025418	0.190667	0.192387
C45	C	0.602276	-0.309328	-0.307608
C46	C	1.102276	0.190672	0.192392
C47	C	0.640700	-0.356753	-0.354587
C48	C	1.140700	0.143247	0.145413
C49	C	0.486984	-0.356761	-0.354601
C50	C	0.986984	0.143239	0.145399
C51	C	0.403650	-0.356763	-0.354611
C52	C	0.903650	0.143237	0.145389
C53	C	0.724039	-0.356750	-0.354579
C54	C	1.224039	0.143250	0.145421
C55	C	1.063370	-0.549158	-0.354564
C56	C	1.563370	-0.049158	0.145436
C57	C	1.063395	-0.631472	-0.354579
C58	C	1.563395	-0.131472	0.145421
C59	C	1.063557	-0.930563	-0.354619
C60	C	1.563557	-0.430563	0.145381
C61	C	1.006827	-0.899249	-0.411628
C62	C	1.506827	-0.399249	0.088372
C63	C	1.006557	-0.813632	-0.411450
C64	C	1.506557	-0.313632	0.088550
C65	C	1.063476	-0.782180	-0.354600
C66	C	1.563476	-0.282180	0.145400
C67	C	1.042479	-0.813331	-0.277038
C68	C	1.542479	-0.313331	0.222962
C69	C	1.042113	-0.898976	-0.277380
C70	C	1.542113	-0.398976	0.222620
C71	C	1.141408	-0.898906	-0.374487
C72	C	1.641408	-0.398906	0.125513
C73	C	1.140950	-0.813255	-0.376188
C74	C	1.640950	-0.313255	0.123812
C75	C	1.063432	-0.698321	-0.354584
C76	C	1.563432	-0.198321	0.145416
C77	C	1.063599	-1.014422	-0.354629
C78	C	1.563599	-0.514422	0.145371
C79	C	1.255421	-0.356761	-0.354607
C80	C	1.755421	0.143239	0.145393
C81	C	1.337220	-0.356766	-0.354616
C82	C	1.837220	0.143234	0.145384
C83	C	1.063513	-0.356696	-0.546538
C84	C	1.563513	0.143304	-0.046538
C85	C	1.063532	-0.356675	-0.628337
C86	C	1.563532	0.143325	-0.128337
C87	C	1.063587	-0.163585	-0.354623
C88	C	1.563587	0.336415	0.145377
C89	C	1.063638	-0.081271	-0.354639
C90	C	1.563638	0.418729	0.145361
C91	C	1.110648	-0.309268	-0.816547
C92	C	1.610648	0.190732	-0.316547
C93	C	1.110656	-0.309246	-0.893406
C94	C	1.610656	0.190754	-0.393406
C95	C	1.016469	-0.403967	-0.893365
C96	C	1.516469	0.096033	-0.393365
C97	C	1.016457	-0.403984	-0.816508
C98	C	1.516457	0.096016	-0.316508
C99	C	1.063551	-0.356636	-0.778101
C100	C	1.563551	0.143364	-0.278101
C101	C	1.063571	-0.356597	-0.931817
C102	C	1.563571	0.143403	-0.431817
C103	C	1.063580	-0.356574	-1.015151
C104	C	1.563580	0.143426	-0.515151
C105	C	1.063541	-0.356657	-0.694762
C106	C	1.563541	0.143343	-0.194762
C107	C	1.063466	-0.356745	-0.163379
C108	C	1.563466	0.143255	0.336621
C109	C	1.063590	-0.356558	-0.081580
C110	C	1.563590	0.143442	0.418420
H111	H	0.494126	-0.442792	-0.439845
H112	H	0.994126	0.057208	0.060155
C113	C	0.720098	-0.267206	-0.265880
C114	C	1.220098	0.232794	0.234120
C115	C	0.644524	-0.257198	-0.255957
C116	C	1.144524	0.242802	0.244043
H117	H	0.746179	-0.235019	-0.233998
H118	H	1.246179	0.264981	0.266002
H119	H	0.732660	-0.316943	-0.255022
H120	H	1.232660	0.183057	0.244978
H121	H	0.732708	-0.256429	-0.315347
H122	H	1.232708	0.243571	0.184653
H123	H	0.631913	-0.267980	-0.206491
H124	H	1.131913	0.232020	0.293509
H125	H	0.631957	-0.207448	-0.266810
H126	H	1.131957	0.292552	0.233190
C127	C	0.974616	-0.446064	-0.698671
C128	C	1.474616	0.053936	-0.198671
C129	C	0.964684	-0.456054	-0.774241
C130	C	1.464684	0.043946	-0.274241
H131	H	0.942649	-0.478204	-0.672578
H132	H	1.442649	0.021796	-0.172578
H133	H	1.024048	-0.456910	-0.686087
H134	H	1.524048	0.043090	-0.186087
H135	H	0.963873	-0.396305	-0.686095
H136	H	1.463873	0.103695	-0.186095
H137	H	0.975432	-0.505812	-0.786817
H138	H	1.475432	-0.005812	-0.286817
H139	H	0.915240	-0.445214	-0.786830
H140	H	1.415240	0.054786	-0.286830
H141	H	0.978129	-0.442518	-0.924646
H142	H	1.478129	0.057482	-0.424646
H143	H	1.149006	-0.270673	-0.924705
H144	H	1.649006	0.229327	-0.424705
C145	C	1.035232	-0.845302	-0.536184
C146	C	1.535232	-0.345302	-0.036184
C147	C	1.024275	-0.785191	-0.489090
C148	C	1.524275	-0.285191	0.010910
H149	H	1.046160	-0.827745	-0.584120
H150	H	1.546160	-0.327745	-0.084120
H151	H	1.074985	-0.874322	-0.518698
H152	H	1.574985	-0.374322	-0.018698
H153	H	0.991975	-0.874598	-0.537683
H154	H	1.491975	-0.374598	-0.037683
H155	H	1.067534	-0.755897	-0.487587
H156	H	1.567534	-0.255897	0.012413
H157	H	0.984519	-0.756159	-0.506580
H158	H	1.484519	-0.256159	-0.006580
H159	H	1.019834	-0.919798	-0.469325
H160	H	1.519834	-0.419798	0.030675
H161	H	0.633553	-0.442789	-0.439829
H162	H	1.133553	0.057211	0.060171
C163	C	0.902614	-0.743099	-0.452061
C164	C	1.402614	-0.243099	0.047939
C165	C	0.928658	-0.786057	-0.393679
C166	C	1.428658	-0.286057	0.106321
H167	H	0.854519	-0.726082	-0.441088
H168	H	1.354519	-0.226082	0.058912
H169	H	0.934236	-0.701977	-0.459200
H170	H	1.434236	-0.201977	0.040800
H171	H	0.901415	-0.772112	-0.495488
H172	H	1.401415	-0.272112	0.004512
H173	H	0.929862	-0.757044	-0.350253
H174	H	1.429862	-0.257044	0.149747
H175	H	0.897028	-0.827186	-0.386531
H176	H	1.397028	-0.327186	0.113469
C177	C	1.253331	-0.744853	-0.364696
C178	C	1.753331	-0.244853	0.135304
C179	C	1.201033	-0.784356	-0.324221
C180	C	1.701033	-0.284356	0.175779
H181	H	1.290420	-0.727011	-0.332607
H182	H	1.790420	-0.227011	0.167393
H183	H	1.274775	-0.776397	-0.400407
H184	H	1.774775	-0.276397	0.099593
H185	H	1.230266	-0.704352	-0.388515
H186	H	1.730266	-0.204352	0.111485
H187	H	1.224098	-0.824861	-0.300407
H188	H	1.724098	-0.324861	0.199593
H189	H	1.179588	-0.752810	-0.288497
H190	H	1.679588	-0.252810	0.211503
C191	C	0.407604	-0.267229	-0.265896
C192	C	0.907604	0.232771	0.234104
C193	C	0.483180	-0.257209	-0.255972
C194	C	0.983180	0.242791	0.244028
H195	H	0.381530	-0.235051	-0.234010
H196	H	0.881530	0.264949	0.265990
H197	H	0.395038	-0.256454	-0.315356
H198	H	0.895038	0.243546	0.184644
H199	H	0.394987	-0.316976	-0.255038
H200	H	0.894987	0.183024	0.244962
H201	H	0.495797	-0.207463	-0.266836
H202	H	0.995797	0.292537	0.233164
H203	H	0.495751	-0.267978	-0.206501
H204	H	0.995751	0.232022	0.293499
H205	H	0.949472	-0.920836	-0.398633
H206	H	1.449472	-0.420836	0.101367
H207	H	1.148992	-0.270712	-0.785278
H208	H	1.648992	0.229288	-0.285278
H209	H	1.081640	-0.919692	-0.233455
H210	H	1.581640	-0.419692	0.266545
C211	C	0.920023	-0.865104	-0.240879
C212	C	1.420023	-0.365104	0.259121
C213	C	0.965287	-0.926039	-0.254666
C214	C	1.465287	-0.426039	0.245334
H215	H	0.872591	-0.881811	-0.226862
H216	H	1.372591	-0.381811	0.273138
H217	H	0.940510	-0.836324	-0.202403
H218	H	1.440510	-0.336324	0.297597
H219	H	0.916260	-0.835857	-0.284027
H220	H	1.416260	-0.335857	0.215973
H221	H	0.969054	-0.955283	-0.211516
H222	H	1.469054	-0.455283	0.288484
H223	H	0.944795	-0.954831	-0.293145
H224	H	1.444795	-0.454831	0.206855
H225	H	1.082498	-0.792959	-0.233404
H226	H	1.582498	-0.292959	0.266596
H227	H	0.986172	-0.791946	-0.259906
H228	H	1.486172	-0.291946	0.240094
H229	H	1.156785	-0.792893	-0.433269
H230	H	1.656785	-0.292893	0.066731
C231	C	1.113535	-0.974761	-0.478926
C232	C	1.613535	-0.474761	0.021074
C233	C	1.167252	-0.927987	-0.449540
C234	C	1.667252	-0.427987	0.050460
H235	H	1.129484	-0.992710	-0.525264
H236	H	1.629484	-0.492710	-0.025264
H237	H	1.105678	-1.015169	-0.446576
H238	H	1.605678	-0.515169	0.053424
H239	H	1.069016	-0.948119	-0.484879
H240	H	1.569016	-0.448119	0.015121
H241	H	1.211771	-0.954631	-0.443582
H242	H	1.711771	-0.454631	0.056418
H243	H	1.175119	-0.887573	-0.481898
H244	H	1.675119	-0.387573	0.018102
C245	C	1.201028	-1.003546	-0.319686
C246	C	1.701028	-0.503546	0.180314
C247	C	1.198474	-0.926245	-0.318446
C248	C	1.698474	-0.426245	0.181554
H249	H	1.236257	-1.020425	-0.285091
H250	H	1.736257	-0.520425	0.214909
H251	H	1.154106	-1.022845	-0.307393
H252	H	1.654106	-0.522845	0.192607
H253	H	1.214464	-1.019790	-0.367415
H254	H	1.714464	-0.519790	0.132585
H255	H	1.185031	-0.910001	-0.270718
H256	H	1.685031	-0.410001	0.229282
H257	H	1.245406	-0.906939	-0.330734
H258	H	1.745406	-0.406939	0.169266
