data_functionalizedCrystal
_audit_creation_method	'MofGen! by Chris Wilmer'
_symmetry_space_group_name_H-M	'P1'
_symmetry_Int_Tables_number	1
_symmetry_cell_setting	triclinic
loop_
_symmetry_equiv_pos_as_xyz
  x,y,z
_cell_length_a	13.897447
_cell_length_b	18.101398
_cell_length_c	13.897441
_cell_angle_alpha	90.017233
_cell_angle_beta	90.029327
_cell_angle_gamma	90.017682
loop_
_atom_site_label
_atom_site_type_symbol
_atom_site_fract_x
_atom_site_fract_y
_atom_site_fract_z
Zn1	Zn	-0.384032	1.132202	0.545300
Zn2	Zn	-0.545353	1.132116	0.384005
Zn3	Zn	-0.384069	1.008354	0.384028
Zn4	Zn	-0.545281	1.008336	0.545267
O5	O	-0.464684	1.070252	0.464650
O6	O	-0.405446	1.235823	0.523907
O7	O	-0.524004	1.115671	0.249026
O8	O	-0.249082	1.024826	0.405444
O9	O	-0.523968	1.235760	0.405405
O10	O	-0.249055	1.115816	0.523930
O11	O	-0.405509	1.024743	0.249043
O12	O	-0.405439	0.904719	0.405413
O13	O	-0.523845	1.024796	0.680253
O14	O	-0.523881	0.904706	0.523874
O15	O	-0.405376	1.115799	0.680277
O16	O	-0.680326	1.115653	0.405373
O17	O	-0.680272	1.024713	0.523852
C18	C	-0.464657	0.877842	0.464643
C19	C	-0.464669	0.795528	0.464663
C20	C	-0.464687	0.644819	0.464662
C21	C	-0.539322	0.613482	0.539079
C22	C	-0.539625	0.527863	0.538859
C23	C	-0.464705	0.496437	0.464662
C24	C	-0.491839	0.527490	0.362883
C25	C	-0.492370	0.613135	0.363314
C26	C	-0.362733	0.613283	0.491134
C27	C	-0.363292	0.527633	0.493375
C28	C	-0.464713	0.412577	0.464655
C29	C	-0.464681	0.728679	0.464661
C30	C	-0.715298	1.070192	0.464627
C31	C	-0.822512	1.070234	0.464650
C32	C	-0.909582	1.070270	0.464672
C33	C	-1.018814	1.070322	0.464697
C34	C	-0.213091	1.070333	0.464693
C35	C	-0.105877	1.070367	0.464712
C36	C	-0.464599	1.070305	0.716243
C37	C	-0.464562	1.070327	0.823457
C38	C	-0.464711	1.263414	0.464657
C39	C	-0.464723	1.345728	0.464660
C40	C	-0.464699	1.070242	0.214035
C41	C	-0.464464	1.070364	0.106822
C42	C	-0.464497	1.070347	1.019752
C43	C	-0.464536	1.070334	0.910520
H44	H	-0.307131	0.633549	0.436937
H45	H	-0.342823	0.507340	0.568278
C46	C	-0.329242	0.642487	0.589705
H47	H	-0.267583	0.622796	0.604308
H48	H	-0.373842	0.627814	0.637824
H49	H	-0.325629	0.694876	0.587789
H50	H	-0.615177	0.507353	0.521296
C51	C	-0.593031	0.640093	0.333099
H52	H	-0.633216	0.598703	0.320682
H53	H	-0.587886	0.669312	0.276567
H54	H	-0.620103	0.668886	0.383424
H55	H	-0.522697	0.506869	0.614313
C56	C	-0.516726	0.641336	0.641331
H57	H	-0.461577	0.672330	0.639558
H58	H	-0.504582	0.600370	0.682275
H59	H	-0.570080	0.668509	0.665239
C60	C	-0.640804	0.642516	0.515641
H61	H	-0.637887	0.673650	0.460698
H62	H	-0.664732	0.669773	0.568918
H63	H	-0.682400	0.602030	0.502825
C64	C	-0.284203	0.498748	0.425542
H65	H	-0.312121	0.467148	0.378609
H66	H	-0.237817	0.472019	0.461714
H67	H	-0.253888	0.539266	0.394433
C68	C	-0.422089	0.641142	0.285832
H69	H	-0.393347	0.600176	0.254226
H70	H	-0.373448	0.670318	0.315251
H71	H	-0.456123	0.670202	0.240207
H72	H	-0.439145	0.507133	0.305914
C73	C	-0.591404	0.498494	0.332140
H74	H	-0.616569	0.467473	0.381186
H75	H	-0.585387	0.471126	0.274123
H76	H	-0.633691	0.539003	0.322167
