data_functionalizedCrystal
_audit_creation_method	'MofGen! by Chris Wilmer'
_symmetry_space_group_name_H-M	'P1'
_symmetry_Int_Tables_number	1
_symmetry_cell_setting	triclinic
loop_
_symmetry_equiv_pos_as_xyz
  x,y,z
_cell_length_a	6.817900
_cell_length_b	17.110477
_cell_length_c	17.110486
_cell_angle_alpha	96.939211
_cell_angle_beta	99.060439
_cell_angle_gamma	99.060298
loop_
_atom_site_label
_atom_site_type_symbol
_atom_site_fract_x
_atom_site_fract_y
_atom_site_fract_z
V1	V	-3.954938	-0.109247	-0.246618
O2	O	-3.966477	0.005492	-0.242029
O3	O	-3.885154	-0.216852	-0.244831
O4	O	-3.885155	-0.107460	-0.354223
O5	O	-3.966476	-0.104657	-0.131879
V6	V	-4.444108	-0.095536	-0.232907
O7	O	-4.203810	-0.139325	-0.276696
O8	O	-4.645433	-0.065458	-0.202830
O9	O	-4.290685	0.012069	-0.234695
O10	O	-4.549965	-0.210275	-0.237496
O11	O	-4.549966	-0.100126	-0.347646
O12	O	-4.290684	-0.097322	-0.125302
C13	C	-3.725645	-0.243087	-0.240914
C14	C	-3.749732	-0.331054	-0.240170
C15	C	-3.725645	-0.103546	-0.380454
C16	C	-3.749732	-0.102797	-0.468421
C17	C	-3.941549	-0.376408	-0.243763
C18	C	-3.964171	-0.459064	-0.243069
C19	C	-3.794973	-0.496363	-0.238775
C20	C	-3.603142	-0.451003	-0.235183
C21	C	-3.580524	-0.368350	-0.235884
C22	C	-3.854236	-0.745721	-0.236467
C23	C	-3.876869	-0.828379	-0.235765
C24	C	-4.237899	-0.836434	-0.243652
C25	C	-4.215261	-0.753779	-0.244347
C26	C	-4.023435	-0.708427	-0.240760
C27	C	-3.818092	-0.580849	-0.238062
C28	C	-4.000321	-0.623943	-0.241478
C29	C	-3.941550	-0.106395	-0.513775
C30	C	-3.964170	-0.105690	-0.596429
C31	C	-3.794972	-0.101394	-0.633728
C32	C	-3.603137	-0.097794	-0.588367
C33	C	-3.580518	-0.098493	-0.505714
C34	C	-3.854235	-0.099083	-0.883085
C35	C	-3.876871	-0.098387	-0.965745
C36	C	-4.237903	-0.106281	-0.973801
C37	C	-4.215268	-0.106984	-0.891147
C38	C	-4.023435	-0.103380	-0.845792
C39	C	-3.818089	-0.100677	-0.718214
C40	C	-4.000318	-0.104092	-0.761307
C41	C	-4.113536	0.038300	-0.238609
C42	C	-4.068686	0.126267	-0.239358
C43	C	-4.113536	-0.101239	-0.099067
C44	C	-4.068689	-0.101984	-0.011099
H45	H	-4.079330	-0.346045	-0.247252
O46	O	-3.647343	-0.095203	-0.834174
H47	H	-3.582600	-0.147359	-0.856500
O48	O	-4.444790	-0.110156	-1.022721
H49	H	-4.558642	-0.113264	-0.982899
O50	O	-3.420782	-0.093281	-0.628674
H51	H	-3.347529	-0.145745	-0.619263
O52	O	-4.182821	-0.583723	-0.246121
H53	H	-4.256280	-0.593122	-0.193706
O54	O	-3.694374	-0.868615	-0.231141
H55	H	-3.557186	-0.823196	-0.228773
H56	H	-3.680332	-0.097182	-0.748592
H57	H	-4.353047	-0.723417	-0.247849
H58	H	-3.424315	-0.095544	-0.468784
O59	O	-3.373630	-0.319434	-0.232013
H60	H	-3.386329	-0.255696	-0.233232
O61	O	-3.694415	-0.093735	-1.006005
H62	H	-3.678747	-0.039053	-1.035077
O63	O	-4.171054	-0.507983	-0.246933
H64	H	-4.284902	-0.468158	-0.250022
O65	O	-4.444792	-0.885347	-0.247522
H66	H	-4.432106	-0.949088	-0.246318
O67	O	-3.647349	-0.696809	-0.232595
H68	H	-3.533500	-0.736633	-0.229484
O69	O	-3.420652	-0.491234	-0.230561
H70	H	-3.312277	-0.465037	-0.174633
O71	O	-3.635610	-0.621086	-0.233432
H72	H	-3.527240	-0.594897	-0.177501
O73	O	-4.124042	-0.111020	-0.473545
H74	H	-4.261221	-0.113393	-0.518971
O75	O	-4.171056	-0.109570	-0.645352
H76	H	-4.172534	-0.055257	-0.674794
O77	O	-4.397753	-0.111598	-0.850913
H78	H	-4.534937	-0.113969	-0.896336
O79	O	-4.182815	-0.108722	-0.721085
H80	H	-4.198596	-0.163407	-0.692022
