data_functionalizedCrystal
_audit_creation_method	'MofGen! by Chris Wilmer'
_symmetry_space_group_name_H-M	'P1'
_symmetry_Int_Tables_number	1
_symmetry_cell_setting	triclinic
loop_
_symmetry_equiv_pos_as_xyz
  x,y,z
_cell_length_a	19.188905
_cell_length_b	19.188930
_cell_length_c	14.586319
_cell_angle_alpha	89.991095
_cell_angle_beta	89.989373
_cell_angle_gamma	83.139668
loop_
_atom_site_label
_atom_site_type_symbol
_atom_site_fract_x
_atom_site_fract_y
_atom_site_fract_z
O1	O	0.926155	0.087084	-0.076402
O2	O	0.722841	0.098836	-0.076372
O3	O	0.830365	-0.008696	-0.076370
O4	O	0.818631	0.194616	-0.076404
O5	O	0.830358	-0.008698	0.076111
O6	O	0.722834	0.098834	0.076109
O7	O	0.926148	0.087082	0.076079
Cu8	Cu	0.824490	0.092958	0.090017
Cu9	Cu	0.824499	0.092960	-0.090309
O10	O	0.818624	0.194614	0.076077
C11	C	0.696826	0.098458	-0.000127
C12	C	0.619321	0.097324	-0.000115
C13	C	0.582933	0.096780	-0.083235
C14	C	0.510109	0.095707	-0.083246
C15	C	0.473678	0.095164	-0.000133
C16	C	0.510074	0.095712	0.082998
C17	C	0.582895	0.096792	0.083007
N18	N	0.364655	0.053735	0.061727
N19	N	0.295478	0.052707	0.061713
C20	C	0.254272	0.091911	-0.000154
N21	N	0.284857	0.132173	-0.062021
N22	N	0.354040	0.133197	-0.062010
C23	C	0.394716	0.093993	-0.000133
C24	C	0.138920	0.090205	-0.083292
C25	C	0.066094	0.089136	-0.083300
C26	C	0.066062	0.089134	0.082947
C27	C	0.138885	0.090209	0.082952
C28	C	0.175310	0.090742	-0.000170
C29	C	0.829982	-0.034708	-0.000127
C30	C	0.828841	-0.112213	-0.000118
C31	C	0.891933	-0.157142	-0.000123
C32	C	0.890861	-0.229966	-0.000138
C33	C	0.826694	-0.257857	-0.000129
C34	C	0.763594	-0.212917	-0.000129
C35	C	0.764668	-0.140095	-0.000124
N36	N	0.777644	-0.365858	0.051770
N37	N	0.776628	-0.435036	0.051767
C38	C	0.823456	-0.477265	-0.000147
N39	N	0.871348	-0.447703	-0.052047
N40	N	0.872366	-0.378519	-0.052040
C41	C	0.825523	-0.336819	-0.000135
C42	C	0.885390	-0.601159	-0.000169
C43	C	0.884315	-0.673984	-0.000189
C44	C	0.757047	-0.656933	-0.000172
C45	C	0.758123	-0.584110	-0.000161
C46	C	0.822296	-0.556228	-0.000155
C47	C	0.952163	0.087460	-0.000167
C48	C	1.029668	0.088594	-0.000186
C49	C	0.819007	0.220626	-0.000168
C50	C	0.820148	0.298131	-0.000182
N51	N	0.824489	0.092956	0.216849
N52	N	0.824505	0.092956	-0.217141
C53	C	0.872116	0.045357	0.451856
C54	C	0.872118	0.045355	0.547837
C55	C	0.776873	0.140558	0.547845
C56	C	0.776868	0.140556	0.451865
C57	C	0.824494	0.092956	0.403873
C58	C	0.824501	0.092956	0.595834
C59	C	0.824502	0.092955	0.699901
C60	C	0.824491	0.092956	0.299800
H61	H	0.036399	0.088696	0.150619
Cl62	Cl	0.685346	-0.083609	-0.000117
H63	H	0.612586	0.097214	-0.150919
Cl64	Cl	0.717006	0.200398	0.608182
Cl65	Cl	0.464355	0.095023	-0.187747
H66	H	0.935694	-0.710565	-0.000198
Cl67	Cl	0.020348	0.088459	-0.187803
Cl68	Cl	0.970182	-0.286459	-0.000145
H69	H	0.910895	0.006597	0.412783
Cl70	Cl	0.676379	-0.691989	-0.000166
Cl71	Cl	0.682927	-0.247979	-0.000126
H72	H	0.937644	-0.578456	-0.000169
Cl73	Cl	0.464275	0.095033	0.187483
H74	H	0.168513	0.090648	0.150637
Cl75	Cl	0.184714	0.090881	-0.187785
Cl76	Cl	0.716992	0.200396	0.391538
H77	H	0.612522	0.097235	0.150695
Cl78	Cl	0.931987	-0.014488	0.608156
H79	H	0.944187	-0.134445	-0.000122
Cl80	Cl	0.678803	-0.527624	-0.000150
