data_functionalizedCrystal
_audit_creation_method	'MofGen! by Chris Wilmer'
_symmetry_space_group_name_H-M	'P1'
_symmetry_Int_Tables_number	1
_symmetry_cell_setting	triclinic
loop_
_symmetry_equiv_pos_as_xyz
  x,y,z
_cell_length_a	16.109301
_cell_length_b	27.732048
_cell_length_c	15.186229
_cell_angle_alpha	89.991324
_cell_angle_beta	89.999362
_cell_angle_gamma	83.052068
loop_
_atom_site_label
_atom_site_type_symbol
_atom_site_fract_x
_atom_site_fract_y
_atom_site_fract_z
O1	O	1.102361	0.062130	-0.073183
O2	O	1.602361	0.562130	0.426817
O3	O	0.860204	0.069862	-0.073198
O4	O	1.360204	0.569862	0.426802
O5	O	0.988803	-0.004369	-0.073173
O6	O	1.488803	0.495631	0.426827
O7	O	0.973762	0.136361	-0.073208
O8	O	1.473762	0.636361	0.426792
O9	O	0.988795	-0.004370	0.073284
O10	O	1.488795	0.495630	0.573284
O11	O	0.860195	0.069861	0.073259
O12	O	1.360195	0.569861	0.573259
O13	O	1.102353	0.062129	0.073275
O14	O	1.602353	0.562129	0.573275
Zn15	Zn	0.981273	0.065995	0.096520
Zn16	Zn	1.481273	0.565995	0.596520
Zn17	Zn	0.981284	0.065996	-0.096444
Zn18	Zn	1.481284	0.565996	0.403556
O19	O	0.973753	0.136360	0.073250
O20	O	1.473753	0.636360	0.573250
C21	C	0.829228	0.069548	0.000029
C22	C	1.329228	0.569548	0.500029
C23	C	0.736945	0.068609	0.000024
C24	C	1.236945	0.568609	0.500024
C25	C	0.988483	-0.022378	0.000058
C26	C	1.488483	0.477622	0.500058
C27	C	0.987533	-0.076037	0.000065
C28	C	1.487533	0.423963	0.500065
C29	C	0.514154	0.110473	0.000024
C30	C	1.014154	0.610473	0.500024
C31	C	0.427445	0.109587	0.000030
C32	C	0.927445	0.609587	0.500030
C33	C	0.448409	0.021514	0.000048
C34	C	0.948409	0.521514	0.500048
C35	C	0.535117	0.022401	0.000048
C36	C	1.035117	0.522401	0.500048
C37	C	0.567987	0.066882	0.000032
C38	C	1.067987	0.566882	0.500032
C39	C	0.394570	0.065109	0.000037
C40	C	0.894570	0.565109	0.500037
C41	C	0.300556	0.064148	0.000044
C42	C	0.800556	0.564148	0.500044
C43	C	0.662007	0.067843	0.000027
C44	C	1.162007	0.567843	0.500027
C45	C	1.057541	-0.414559	0.000024
C46	C	1.557541	0.085441	0.500024
C47	C	1.054013	-0.616233	0.000012
C48	C	1.554013	-0.116233	0.500012
O49	O	1.118031	-0.647221	-0.000023
O50	O	1.618031	-0.147221	0.499977
N51	N	0.977759	-0.635676	0.000008
N52	N	1.477759	-0.135676	0.500008
C53	C	0.902381	-0.604697	0.000001
C54	C	1.402381	-0.104697	0.500001
O55	O	0.837441	-0.625862	-0.000011
O56	O	1.337441	-0.125862	0.499989
C57	C	0.905910	-0.403024	0.000008
C58	C	1.405910	0.096976	0.500008
C59	C	0.982169	-0.383584	0.000020
C60	C	1.482169	0.116416	0.500020
C61	C	1.133794	-0.395119	0.000036
C62	C	1.633794	0.104881	0.500036
C63	C	1.134675	-0.344703	0.000044
C64	C	1.634675	0.155297	0.500044
C65	C	1.059303	-0.313728	0.000040
C66	C	1.559303	0.186272	0.500040
C67	C	0.983050	-0.333168	0.000028
C68	C	1.483050	0.166832	0.500028
C69	C	0.830533	-0.372045	-0.000005
C70	C	1.330533	0.127955	0.499995
C71	C	0.831422	-0.321624	-0.000006
C72	C	1.331422	0.178376	0.499994
C73	C	0.907681	-0.302184	0.000007
C74	C	1.407681	0.197816	0.500007
C75	C	0.908559	-0.251777	0.000032
C76	C	1.408559	0.248223	0.500032
N77	N	0.984814	-0.232334	0.000036
N78	N	1.484814	0.267666	0.500036
C79	C	1.060186	-0.263310	0.000040
C80	C	1.560186	0.236690	0.500040
C81	C	0.900534	-0.710579	-0.000000
C82	C	1.400534	-0.210579	0.500000
C83	C	0.899652	-0.760997	-0.000000
C84	C	1.399652	-0.260997	0.500000
C85	C	1.051284	-0.772530	0.000009
C86	C	1.551284	-0.272530	0.500009
C87	C	1.052166	-0.722111	0.000015
C88	C	1.552166	-0.222111	0.500015
C89	C	0.976789	-0.691136	0.000004
C90	C	1.476789	-0.191136	0.500004
C91	C	1.062030	-0.157433	0.000058
C92	C	1.562030	0.342567	0.500058
C93	C	1.062905	-0.107012	0.000069
C94	C	1.562905	0.392988	0.500069
C95	C	0.911273	-0.095484	0.000056
C96	C	1.411273	0.404516	0.500056
C97	C	0.910398	-0.145900	0.000049
C98	C	1.410398	0.354100	0.500049
C99	C	0.985783	-0.176874	0.000047
C100	C	1.485783	0.323126	0.500047
O101	O	0.844576	-0.220761	0.000057
O102	O	1.344576	0.279239	0.500057
O103	O	1.125116	-0.242135	0.000033
O104	O	1.625116	0.257865	0.500033
C105	C	1.056660	-0.464975	0.000016
C106	C	1.556660	0.035025	0.500016
C107	C	0.980407	-0.484415	0.000005
C108	C	1.480407	0.015585	0.500005
C109	C	0.905035	-0.453440	0.000001
C110	C	1.405035	0.046560	0.500001
C111	C	0.979525	-0.534833	0.000005
C112	C	1.479525	-0.034833	0.500005
C113	C	1.054897	-0.565808	0.000009
C114	C	1.554897	-0.065808	0.500009
C115	C	1.131151	-0.546365	0.000013
C116	C	1.631151	-0.046365	0.500013
C117	C	1.132032	-0.495950	0.000020
C118	C	1.632032	0.004050	0.500020
C119	C	0.828781	-0.472883	-0.000003
C120	C	1.328781	0.027117	0.499997
C121	C	0.827906	-0.523299	-0.000010
C122	C	1.327906	-0.023299	0.499990
C123	C	0.903278	-0.554274	-0.000006
C124	C	1.403278	-0.054274	0.499994
C125	C	1.133328	0.062443	0.000046
C126	C	1.633328	0.562443	0.500046
C127	C	1.225612	0.063382	0.000045
C128	C	1.725612	0.563382	0.500045
C129	C	0.974073	0.154369	0.000017
C130	C	1.474073	0.654369	0.500017
C131	C	0.975024	0.208028	0.000004
C132	C	1.475024	0.708028	0.500004
N133	N	0.981271	0.065994	0.228213
N134	N	1.481271	0.565994	0.728213
N135	N	0.981292	0.065994	-0.228136
N136	N	1.481292	0.565994	0.271864
C137	C	1.038234	0.033135	0.453947
C138	C	1.538234	0.533135	0.953947
C139	C	1.038237	0.033134	0.546136
C140	C	1.538237	0.533134	1.046136
C141	C	0.924323	0.098854	0.546124
C142	C	1.424323	0.598854	1.046124
C143	C	0.924317	0.098852	0.453936
C144	C	1.424317	0.598852	0.953936
C145	C	0.981277	0.065993	0.407850
C146	C	1.481277	0.565993	0.907850
C147	C	0.981286	0.065994	0.592227
C148	C	1.481286	0.565994	1.092227
C149	C	0.981288	0.065993	0.692183
C150	C	1.481288	0.565993	1.192183
C151	C	0.981274	0.065994	0.307887
C152	C	1.481274	0.565994	0.807887
H153	H	0.540913	0.146692	0.000017
H154	H	1.040913	0.646692	0.500017
F155	F	0.863707	0.133824	0.595177
F156	F	1.363707	0.633824	1.095177
H157	H	0.765802	-0.539121	-0.000013
H158	H	1.265802	-0.039121	0.499987
H159	H	0.383617	0.145084	0.000025
H160	H	0.883617	0.645084	0.500025
H161	H	1.084613	0.006379	0.416426
H162	H	1.584613	0.506379	0.916426
H163	H	0.849907	-0.070255	0.000055
H164	H	1.349907	0.429745	0.500055
F165	F	0.592414	-0.023998	0.000062
F166	F	1.092414	0.476002	0.500062
H167	H	1.084615	0.006377	0.583666
H168	H	1.584615	0.506377	1.083666
F169	F	0.413419	-0.025823	0.000061
F170	F	0.913419	0.474177	0.500061
H171	H	0.877932	0.125610	0.416401
H172	H	1.377932	0.625610	0.916401
F173	F	1.211367	-0.579340	0.000021
F174	F	1.711367	-0.079340	0.500021
F175	F	1.144074	-0.086326	0.000082
F176	F	1.644074	0.413674	0.500082
H177	H	1.194130	-0.480127	0.000031
H178	H	1.694130	0.019873	0.500031
H179	H	1.123416	-0.182646	0.000053
H180	H	1.623416	0.317354	0.500053
F181	F	0.820302	-0.677619	-0.000012
F182	F	1.320302	-0.177619	0.499988
H183	H	1.196773	-0.328880	0.000051
H184	H	1.696773	0.171120	0.500051
F185	F	0.749366	-0.392724	-0.000023
F186	F	1.249366	0.107276	0.499977
F187	F	0.751192	-0.288661	-0.000020
F188	F	1.251192	0.211339	0.499980
H189	H	1.195175	-0.420334	0.000036
H190	H	1.695175	0.079666	0.500036
F191	F	1.133330	-0.701426	0.000029
F192	F	1.633330	-0.201426	0.500029
H193	H	0.837554	-0.776820	0.000005
H194	H	1.337554	-0.276820	0.500005
F195	F	0.829235	-0.166590	0.000051
F196	F	1.329235	0.333410	0.500051
F197	F	1.131501	-0.805504	0.000011
F198	F	1.631501	-0.305504	0.500011
F199	F	0.748555	-0.439922	-0.000010
F200	F	1.248555	0.060078	0.499990
