data_functionalizedCrystal
_audit_creation_method	'MofGen! by Chris Wilmer'
_symmetry_space_group_name_H-M	'P1'
_symmetry_Int_Tables_number	1
_symmetry_cell_setting	triclinic
loop_
_symmetry_equiv_pos_as_xyz
  x,y,z
_cell_length_a	13.033304
_cell_length_b	13.033732
_cell_length_c	13.033352
_cell_angle_alpha	90.896296
_cell_angle_beta	89.090160
_cell_angle_gamma	89.100950
loop_
_atom_site_label
_atom_site_type_symbol
_atom_site_fract_x
_atom_site_fract_y
_atom_site_fract_z
Zn1	Zn	-1.542727	0.315467	0.747150
Zn2	Zn	-1.042727	0.815467	1.247150
Zn3	Zn	-1.585028	0.460946	0.559344
Zn4	Zn	-1.085028	0.960946	1.059344
Zn5	Zn	-1.391874	0.310035	0.553920
Zn6	Zn	-0.891874	0.810035	1.053920
Zn7	Zn	-1.397200	0.503226	0.704770
Zn8	Zn	-0.897200	1.003226	1.204770
O9	O	-1.479207	0.397418	0.641296
O10	O	-0.979207	0.897418	1.141296
O11	O	-1.690077	0.319345	0.742243
O12	O	-1.190077	0.819345	1.242243
O13	O	-1.574880	0.420960	0.416896
O14	O	-1.074880	0.920960	0.916896
O15	O	-1.391953	0.169021	0.595018
O16	O	-0.891953	0.669021	1.095018
O17	O	-1.721156	0.426228	0.604263
O18	O	-1.221156	0.926228	1.104263
O19	O	-1.502784	0.173012	0.736983
O20	O	-1.002784	0.673012	1.236983
O21	O	-1.432970	0.310086	0.412910
O22	O	-0.932970	0.810086	0.912910
O23	O	-1.250841	0.351082	0.553924
O24	O	-0.750841	0.851082	1.053924
O25	O	-1.401031	0.498287	0.852121
O26	O	-0.901031	0.998287	1.352121
O27	O	-1.254755	0.493019	0.664754
O28	O	-0.754755	0.993019	1.164754
O29	O	-1.507949	0.360341	0.883257
O30	O	-1.007949	0.860341	1.383257
O31	O	-1.580044	0.608289	0.563170
O32	O	-1.080044	1.108289	1.063170
O33	O	-1.442048	0.639352	0.670014
O34	O	-0.942048	1.139352	1.170014
C35	C	-1.216047	0.426050	0.604152
C36	C	-0.716047	0.926050	1.104152
C37	C	-1.103466	0.438326	0.588283
C38	C	-0.603466	0.938326	1.088283
C39	C	-1.037900	0.391025	0.649563
C40	C	-0.537900	0.891025	1.149563
C41	C	-0.921542	0.403712	0.633163
C42	C	-0.421542	0.903712	1.133163
C43	C	-1.516240	0.660571	0.612608
C44	C	-1.016240	1.160571	1.112608
C45	C	-1.532171	0.773143	0.600381
C46	C	-1.032171	1.273143	1.100381
C47	C	-0.743396	0.368670	0.678579
C48	C	-0.243396	0.868670	1.178579
C49	C	-0.855977	0.356404	0.694451
C50	C	-0.355977	0.856404	1.194451
C51	C	-1.470956	0.838733	0.647734
C52	C	-0.970956	1.338733	1.147734
C53	C	-1.487421	0.955082	0.635099
C54	C	-0.987421	1.455082	1.135099
C55	C	-1.450365	0.434636	0.905465
C56	C	-0.950365	0.934636	1.405465
C57	C	-1.438075	0.450496	1.018039
C58	C	-0.938075	0.950496	1.518039
C59	C	-1.442049	1.133241	0.670135
C60	C	-0.942049	1.633241	1.170135
C61	C	-1.426197	1.020671	0.682458
C62	C	-0.926197	1.520671	1.182458
C63	C	-1.485496	0.389314	1.083633
C64	C	-0.985496	0.889314	1.583633
C65	C	-1.472794	0.405705	1.199983
C66	C	-0.972794	0.905705	1.699983
C67	C	-1.507932	0.360370	1.378150
C68	C	-1.007932	0.860370	1.878150
C69	C	-1.520222	0.344515	1.265577
C70	C	-1.020222	0.844515	1.765577
H71	H	-1.073456	0.488213	0.523676
H72	H	-0.573456	0.988213	1.023676
H73	H	-1.552020	0.985061	0.585198
H74	H	-1.052020	1.485061	1.085198
Cl75	Cl	-1.597445	0.244913	1.219308
Cl76	Cl	-1.097445	0.744913	1.719308
Cl77	Cl	-1.631904	0.819426	0.523339
Cl78	Cl	-1.131904	1.319426	1.023339
Cl79	Cl	-1.326445	0.974395	0.759486
Cl80	Cl	-0.826445	1.474395	1.259486
H81	H	-1.535494	0.324797	1.053652
H82	H	-1.035494	0.824797	1.553652
Cl83	Cl	-1.371219	0.792450	0.724770
Cl84	Cl	-0.871219	1.292450	1.224770
Cl85	Cl	-0.902292	0.279362	0.794198
Cl86	Cl	-0.402292	0.779362	1.294198
Cl87	Cl	-1.360865	0.550100	1.064316
Cl88	Cl	-0.860865	1.050100	1.564316
Cl89	Cl	-1.084223	0.313994	0.749309
Cl90	Cl	-0.584223	0.813994	1.249309
Cl91	Cl	-0.875224	0.480736	0.533404
Cl92	Cl	-0.375224	0.980736	1.033404
H93	H	-1.422780	0.470218	1.229958
H94	H	-0.922780	0.970218	1.729958
