data_functionalizedCrystal
_audit_creation_method	'MofGen! by Chris Wilmer'
_symmetry_space_group_name_H-M	'P1'
_symmetry_Int_Tables_number	1
_symmetry_cell_setting	triclinic
loop_
_symmetry_equiv_pos_as_xyz
  x,y,z
_cell_length_a	15.625950
_cell_length_b	23.532357
_cell_length_c	14.184680
_cell_angle_alpha	76.942019
_cell_angle_beta	85.722277
_cell_angle_gamma	83.573467
loop_
_atom_site_label
_atom_site_type_symbol
_atom_site_fract_x
_atom_site_fract_y
_atom_site_fract_z
O1	O	1.115858	0.124251	-0.322368
O2	O	0.874945	0.119550	-0.234751
O3	O	1.002683	0.039414	-0.281228
O4	O	0.988120	0.204387	-0.275891
O5	O	0.964902	0.063088	-0.434341
O6	O	0.837164	0.143223	-0.387864
O7	O	1.078077	0.147925	-0.475481
Cu8	Cu	0.954171	0.147736	-0.445653
Cu9	Cu	0.998851	0.119739	-0.264579
O10	O	0.950339	0.228060	-0.429003
C11	C	0.825239	0.129251	-0.300101
C12	C	0.733419	0.122881	-0.266708
C13	C	0.328395	0.166466	-0.574079
C14	C	0.242124	0.160484	-0.542658
C15	C	0.283355	0.134679	-0.375756
C16	C	0.369630	0.140661	-0.407162
C17	C	0.392143	0.156554	-0.506325
C18	C	0.433378	0.130749	-0.339409
C19	C	0.519647	0.136728	-0.370814
C20	C	0.542167	0.152618	-0.469972
C21	C	0.478412	0.162532	-0.537730
C22	C	0.410865	0.114853	-0.240247
C23	C	0.474612	0.104941	-0.172494
C24	C	0.560882	0.110924	-0.203898
C25	C	0.583403	0.126814	-0.303056
C26	C	0.624638	0.101009	-0.136140
C27	C	0.710906	0.106988	-0.167545
C28	C	0.669671	0.132792	-0.334461
C29	C	0.983427	0.030013	-0.357655
C30	C	0.982329	-0.033271	-0.357265
C31	C	0.996056	-0.438615	-0.271251
C32	C	0.995016	-0.498078	-0.270867
O33	O	1.011964	-0.539804	-0.199680
N34	N	0.973905	-0.514917	-0.354140
C35	C	0.953825	-0.472287	-0.437799
O36	O	0.935772	-0.492070	-0.508594
C37	C	0.954860	-0.412824	-0.438180
C38	C	0.975980	-0.395990	-0.354905
C39	C	1.017174	-0.421779	-0.187983
C40	C	1.018216	-0.362320	-0.188368
C41	C	0.998140	-0.319695	-0.272021
C42	C	0.977022	-0.336530	-0.355290
C43	C	0.934774	-0.370196	-0.521837
C44	C	0.935810	-0.310730	-0.522210
C45	C	0.956930	-0.293896	-0.438935
C46	C	0.957988	-0.234446	-0.439329
N47	N	0.979099	-0.217608	-0.356056
C48	C	0.999175	-0.260232	-0.272402
C49	C	0.951652	-0.597164	-0.436992
C50	C	0.950623	-0.656626	-0.436614
C51	C	0.991812	-0.682413	-0.269681
C52	C	0.992847	-0.622950	-0.270062
C53	C	0.972763	-0.580326	-0.353720
C54	C	1.001362	-0.135362	-0.273218
C55	C	1.002406	-0.075896	-0.273611
C56	C	0.961212	-0.050114	-0.440542
C57	C	0.960172	-0.109575	-0.440151
C58	C	0.980247	-0.152198	-0.356480
O59	O	0.941046	-0.192688	-0.510479
O60	O	1.017214	-0.240440	-0.201616
C61	C	1.127783	0.138223	-0.410129
C62	C	1.219605	0.144593	-0.443516
C63	C	0.969595	0.237461	-0.352575
C64	C	0.970695	0.300745	-0.352958
N65	N	0.922751	0.167427	-0.573012
C66	C	0.830530	0.225249	-0.697026
C67	C	0.854302	0.210342	-0.600638
C68	C	0.967456	0.139404	-0.641773
C69	C	0.943696	0.154307	-0.738167
C70	C	0.875231	0.197229	-0.765785
C71	C	0.988397	0.126287	-0.806926
C72	C	0.964636	0.141186	-0.903311
C73	C	0.896172	0.184106	-0.930936
C74	C	0.851470	0.212129	-0.862169
C75	C	1.056857	0.083361	-0.779305
C76	C	1.101559	0.055342	-0.848065
C77	C	1.077801	0.070244	-0.944453
C78	C	1.009338	0.113164	-0.972078
C79	C	1.122504	0.042221	-1.013219
C80	C	1.098742	0.057121	-1.109604
C81	C	0.985576	0.128063	-1.068462
N82	N	1.030278	0.100043	-0.137222
H83	H	1.019607	-0.062194	-0.205796
Cl84	Cl	0.899513	0.182031	-1.103188
H85	H	0.817894	0.233163	-0.544655
Cl86	Cl	0.697978	0.152779	-0.459125
H87	H	0.876824	0.196235	-1.009419
Cl88	Cl	0.356702	0.186453	-0.698742
H89	H	0.917576	-0.383891	-0.589649
H90	H	0.496740	0.175482	-0.618477
Cl91	Cl	1.086722	0.064630	-0.658132
Cl92	Cl	0.910560	-0.257148	-0.627386
H93	H	0.612414	0.157485	-0.495541
H94	H	0.942982	-0.123281	-0.507963
H95	H	1.157301	0.020392	-0.825566
H96	H	1.033521	-0.456480	-0.119857
H97	H	0.774785	0.260205	-0.719514
H98	H	1.178243	0.007269	-0.990718
H99	H	0.190218	0.168570	-0.597837
H100	H	1.135143	0.034303	-1.165590
Cl101	Cl	1.053521	0.085444	-0.607045
H102	H	0.265013	0.121737	-0.295017
Cl103	Cl	0.302414	0.107319	-0.200768
Cl104	Cl	0.446305	0.084944	-0.047838
H105	H	0.606295	0.088064	-0.055402
H106	H	0.795725	0.247085	-0.884657
Cl107	Cl	0.791052	0.094526	-0.082369
Cl108	Cl	1.026600	-0.188937	-0.168031
Cl109	Cl	1.019397	-0.601794	-0.165369
Cl110	Cl	1.044761	-0.341166	-0.083670
H111	H	1.008157	-0.717129	-0.201565
H112	H	0.933437	-0.670326	-0.504430
H113	H	0.935298	-0.562461	-0.505121
Cl114	Cl	0.935974	0.003482	-0.545701
