data_functionalizedCrystal
_audit_creation_method	'MofGen! by Chris Wilmer'
_symmetry_space_group_name_H-M	'P1'
_symmetry_Int_Tables_number	1
_symmetry_cell_setting	triclinic
loop_
_symmetry_equiv_pos_as_xyz
  x,y,z
_cell_length_a	27.780953
_cell_length_b	27.780884
_cell_length_c	27.780936
_cell_angle_alpha	89.997376
_cell_angle_beta	120.001646
_cell_angle_gamma	120.000041
loop_
_atom_site_label
_atom_site_type_symbol
_atom_site_fract_x
_atom_site_fract_y
_atom_site_fract_z
O1	O	-0.424592	0.330211	-0.014320
O2	O	-0.326022	0.260213	0.014251
O3	O	-0.424588	0.260212	-0.084316
O4	O	-0.326026	0.330211	0.084247
O5	O	-0.344529	0.340272	-0.084318
O6	O	-0.245964	0.340272	0.014250
O7	O	-0.344533	0.410270	-0.014322
Zn8	Zn	-0.282537	0.387982	-0.000036
Zn9	Zn	-0.388018	0.282500	-0.000034
O10	O	-0.245967	0.410271	0.084246
C11	C	-0.492841	0.550044	-0.029965
C12	C	-0.459051	0.613538	-0.025879
C13	C	-0.464143	0.520809	-0.030369
C14	C	-0.580006	0.462878	-0.029963
C15	C	-0.639414	0.433174	-0.025876
C16	C	-0.551176	0.433776	-0.030367
C17	C	-0.492838	0.462879	-0.029959
C18	C	-0.459044	0.433176	-0.025868
C19	C	-0.551180	0.520808	-0.030373
C20	C	-0.431742	0.409180	-0.022562
C21	C	-0.431751	0.664835	-0.022577
C22	C	-0.687409	0.409177	-0.022573
C23	C	-0.397491	0.379075	-0.018415
C24	C	-0.397503	0.729190	-0.018436
C25	C	-0.747621	0.379071	-0.018431
O26	O	-0.765292	0.410265	-0.014340
O27	O	-0.905295	0.340263	0.014221
O28	O	-0.905294	0.340264	-0.084343
O29	O	-0.765294	0.410264	0.084223
O30	O	-0.905291	0.260206	-0.084338
O31	O	-0.905292	0.260205	0.014225
O32	O	-0.765289	0.330207	-0.014336
Zn33	Zn	-0.835290	0.282495	-0.000054
Zn34	Zn	-0.835294	0.387975	-0.000061
O35	O	-0.765290	0.330205	0.084228
C36	C	-0.492826	0.207601	-0.372391
C37	C	-0.459036	0.237305	-0.402096
C38	C	-0.551163	0.149671	-0.401492
C39	C	-0.492826	0.207601	-0.285225
C40	C	-0.459035	0.237305	-0.221731
C41	C	-0.551163	0.149671	-0.314458
C42	C	-0.579991	0.120436	-0.372388
C43	C	-0.639397	0.056942	-0.402090
C44	C	-0.464131	0.236704	-0.314461
C45	C	-0.687390	0.005644	-0.426085
C46	C	-0.431735	0.261301	-0.426093
C47	C	-0.431735	0.261302	-0.170434
C48	C	-0.747600	-0.058711	-0.456189
C49	C	-0.397486	0.291407	-0.456200
C50	C	-0.397486	0.291407	-0.106079
C51	C	-0.177734	0.120429	0.029863
C52	C	-0.211526	0.056934	0.025774
C53	C	-0.119397	0.149663	0.030267
C54	C	-0.177731	0.207596	0.029867
C55	C	-0.211520	0.237302	0.025783
C56	C	-0.119395	0.236699	0.030271
C57	C	-0.090569	0.207594	0.029861
C58	C	-0.031164	0.237297	0.025770
C59	C	-0.206427	0.149665	0.030273
C60	C	0.016828	0.261294	0.022464
C61	C	-0.238827	0.005636	0.022470
C62	C	-0.238819	0.261300	0.022482
C63	C	0.077038	0.291399	0.018317
C64	C	-0.273077	-0.058720	0.018325
C65	C	-0.273066	0.291407	0.018342
O66	O	-0.245974	0.919518	0.014234
O67	O	-0.344545	0.750952	-0.014342
O68	O	-0.245984	0.849507	0.084228
O69	O	-0.344535	0.820964	-0.084335
O70	O	-0.326046	0.849506	0.084223
O71	O	-0.424607	0.750951	-0.014346
O72	O	-0.326036	0.919517	0.014230
Zn73	Zn	-0.388033	0.835234	-0.000059
Zn74	Zn	-0.282548	0.835236	-0.000053
O75	O	-0.424598	0.820962	-0.084339
O76	O	-0.905265	-0.249034	-0.494984
O77	O	-0.765268	-0.080471	-0.424992
O78	O	-0.765263	-0.179034	-0.424984
O79	O	-0.905269	-0.150472	-0.494992
O80	O	-0.765266	-0.179036	-0.505045
O81	O	-0.765270	-0.080474	-0.505053
O82	O	-0.905267	-0.249037	-0.575044
Zn83	Zn	-0.835269	-0.164756	-0.552760
Zn84	Zn	-0.835266	-0.164753	-0.447277
O85	O	-0.905271	-0.150475	-0.575052
O86	O	-0.326021	0.330216	-0.575063
O87	O	-0.424587	0.260213	-0.505064
O88	O	-0.326020	0.260215	-0.505059
O89	O	-0.424589	0.330213	-0.575068
O90	O	-0.245963	0.340273	-0.425001
O91	O	-0.344530	0.340271	-0.425006
O92	O	-0.245964	0.410274	-0.495004
Zn93	Zn	-0.282536	0.387983	-0.447294
Zn94	Zn	-0.388015	0.282503	-0.552774
O95	O	-0.344532	0.410272	-0.495009
C96	C	-0.090563	0.550049	0.372318
C97	C	-0.031157	0.613543	0.402019
C98	C	-0.119389	0.520814	0.401422
C99	C	-0.177727	0.462883	0.285155
C100	C	-0.211519	0.433179	0.221661
C101	C	-0.206422	0.433781	0.314391
C102	C	-0.177726	0.462884	0.372321
C103	C	-0.211517	0.433181	0.402026
C104	C	-0.119390	0.520813	0.314388
C105	C	-0.238817	0.409185	0.426024
C106	C	0.016836	0.664841	0.426014
C107	C	-0.238820	0.409182	0.170363
C108	C	-0.273065	0.379080	0.456132
C109	C	0.077046	0.729195	0.456117
C110	C	-0.273069	0.379076	0.106009
C111	C	-1.177736	0.120428	-0.372415
C112	C	-1.211525	0.056934	-0.402116
C113	C	-1.206434	0.149662	-0.401522
C114	C	-1.090573	0.207593	-0.285252
C115	C	-1.031166	0.237297	-0.221756
C116	C	-1.119403	0.236695	-0.314491
C117	C	-1.177741	0.207592	-0.372422
C118	C	-1.211535	0.237294	-0.402129
C119	C	-1.119399	0.149663	-0.314484
C120	C	-1.238838	0.261290	-0.426129
C121	C	-1.238824	0.005637	-0.426110
C122	C	-0.983173	0.261294	-0.170458
C123	C	-1.273090	0.291394	-0.456239
C124	C	-1.273070	-0.058717	-0.456213
C125	C	-0.922961	0.291400	-0.106103
C126	C	-0.492843	0.462880	0.372307
C127	C	-0.459048	0.433179	0.402015
C128	C	-0.464150	0.520810	0.401407
C129	C	-0.580011	0.462878	0.285137
C130	C	-0.639418	0.433174	0.221641
C131	C	-0.551186	0.520808	0.314368
C132	C	-0.492848	0.550044	0.372300
C133	C	-0.459060	0.613538	0.402000
C134	C	-0.551181	0.433777	0.314376
C135	C	-0.431762	0.664835	0.425994
C136	C	-0.431745	0.409183	0.426016
C137	C	-0.687412	0.409176	0.170343
C138	C	-0.397516	0.729189	0.456096
C139	C	-0.397493	0.379079	0.456126
C140	C	-0.747623	0.379069	0.105988
C141	C	-0.177790	0.865070	0.372286
C142	C	-0.211587	0.860976	0.401985
C143	C	-0.119456	0.865469	0.401389
C144	C	-0.177776	0.865089	0.285127
C145	C	-0.211557	0.861016	0.221635
C146	C	-0.119442	0.865488	0.314362
C147	C	-0.090623	0.865068	0.372289
C148	C	-0.031221	0.860972	0.401992
C149	C	-0.206476	0.865491	0.314358
C150	C	0.016769	0.857661	0.425989
C151	C	-0.238893	0.857668	0.425978
C152	C	-0.238850	0.857724	0.170339
C153	C	0.076975	0.853509	0.456094
C154	C	-0.273148	0.853518	0.456079
C155	C	-0.273090	0.853595	0.105987
O156	O	-1.424603	-0.249050	-0.575053
O157	O	-1.326039	-0.080484	-0.505071
O158	O	-1.424574	-0.179041	-0.505034
O159	O	-1.326068	-0.150493	-0.575090
O160	O	-1.344490	-0.179031	-0.424984
O161	O	-1.245955	-0.080474	-0.425021
O162	O	-1.344519	-0.249040	-0.495003
Zn163	Zn	-1.282522	-0.164755	-0.447303
Zn164	Zn	-1.388036	-0.164769	-0.552772
O165	O	-1.245984	-0.150483	-0.495040
C166	C	-0.579961	0.805398	-0.372402
C167	C	-0.639367	0.809490	-0.402106
C168	C	-0.551126	0.805001	-0.401500
C169	C	-0.492806	0.805381	-0.285238
C170	C	-0.459024	0.809454	-0.221747
C171	C	-0.464103	0.804983	-0.314469
C172	C	-0.492789	0.805404	-0.372396
C173	C	-0.458990	0.809502	-0.402094
C174	C	-0.551142	0.804977	-0.314475
C175	C	-0.431683	0.812814	-0.426087
C176	C	-0.687359	0.812797	-0.426104
C177	C	-0.431731	0.812746	-0.170451
C178	C	-0.397425	0.816969	-0.456187
C179	C	-0.747569	0.816945	-0.456210
C180	C	-0.397491	0.816875	-0.106099
H181	H	-0.575282	0.126199	-0.290981
O182	O	-0.090562	0.121673	0.031179
C183	C	-0.071038	0.105394	0.082259
H184	H	-0.102472	0.102221	0.098673
H185	H	-0.014728	0.139986	0.117975
C186	C	-0.044705	0.049068	0.047476
C187	C	-0.083318	0.045166	0.067633
H188	H	-0.052277	0.011918	0.038456
H189	H	-0.057857	0.060037	0.013063
H190	H	0.002216	0.077898	0.077243
H191	H	-0.130239	0.016343	0.037864
H192	H	-0.070175	0.034191	0.102041
O193	O	-0.579959	0.377019	-0.031064
C194	C	-0.580228	0.373797	0.019459
H195	H	-0.577462	0.412913	0.036850
H196	H	-0.534402	0.374850	0.054872
C197	C	-0.649561	0.267973	-0.018039
C198	C	-0.646169	0.316013	0.003317
H199	H	-0.690235	0.232328	-0.027995
H200	H	-0.649378	0.270143	-0.052077
H201	H	-0.611369	0.268859	0.011475
H202	H	-0.684356	0.315131	-0.026199
H203	H	-0.646360	0.313842	0.037349
H204	H	-0.417177	0.284296	-0.290987
H205	H	-0.253426	0.866138	0.290884
O206	O	-0.408124	0.548902	-0.031126
C207	C	-0.388868	0.606407	-0.031407
H208	H	-0.409482	0.620815	-0.012379
H209	H	-0.410576	0.606907	-0.078587
C210	C	-0.285346	0.631389	-0.017058
C211	C	-0.310659	0.649087	0.006318
H212	H	-0.237103	0.657717	0.006210
H213	H	-0.298320	0.592647	-0.016870
H214	H	-0.303442	0.631806	-0.056374
H215	H	-0.292569	0.648663	0.045630
H216	H	-0.297680	0.687831	0.006137
H217	H	-0.575303	0.544283	-0.031026
H218	H	-0.253367	0.126193	0.030934
O219	O	-0.090574	0.548732	0.458243
C220	C	-0.071104	0.517153	0.494045
H221	H	-0.063957	0.489283	0.471742
H222	H	-0.112381	0.487206	0.500710
C223	C	-0.012511	0.594989	0.581669
C224	C	-0.003726	0.560763	0.554279
H225	H	0.029049	0.621889	0.618826
H226	H	-0.025630	0.616264	0.557549
H227	H	-0.046911	0.570027	0.587218
H228	H	0.030667	0.585724	0.548725
H229	H	0.009400	0.539493	0.578400
O230	O	-0.580034	0.804159	-0.286571
C231	C	-0.637794	0.803919	-0.324808
H232	H	-0.657689	0.785836	-0.372435
H233	H	-0.623325	0.850814	-0.315061
C234	C	-0.669123	0.786942	-0.256910
C235	C	-0.693561	0.764729	-0.315407
H236	H	-0.703522	0.762770	-0.251110
H237	H	-0.630208	0.787106	-0.231148
H238	H	-0.657066	0.826021	-0.248795
H239	H	-0.705610	0.725653	-0.323519
H240	H	-0.732480	0.764557	-0.341170
O241	O	-0.579845	0.121745	-0.458267
C242	C	-0.541877	0.159992	-0.477805
H243	H	-0.487827	0.195013	-0.438163
H244	H	-0.566851	0.182198	-0.503280
C245	C	-0.606064	0.081453	-0.566974
C246	C	-0.539678	0.124464	-0.518285
H247	H	-0.604710	0.059537	-0.591946
H248	H	-0.631646	0.055685	-0.553813
H249	H	-0.626868	0.099964	-0.588196
H250	H	-0.518878	0.105951	-0.497059
H251	H	-0.514092	0.150227	-0.531444
O252	O	-0.090680	0.293490	0.031077
C253	C	-0.128669	0.313017	0.031324
H254	H	-0.158198	0.285294	0.049423
H255	H	-0.165830	0.308287	-0.015572
C256	C	-0.043811	0.412236	0.048268
C257	C	-0.080074	0.378189	0.070501
H258	H	-0.013837	0.452438	0.072431
H259	H	-0.018218	0.399081	0.048098
H260	H	-0.074786	0.408288	0.009188
H261	H	-0.049101	0.382132	0.109577
H262	H	-0.105661	0.391347	0.070678
O263	O	-1.090723	0.121580	-0.286509
C264	C	-1.138291	0.070787	-0.283554
H265	H	-1.192034	0.056161	-0.319903
H266	H	-1.128929	0.081199	-0.238782
C267	C	-1.064294	0.038957	-0.247064
C268	C	-1.130302	0.020991	-0.291710
H269	H	-1.059365	0.008241	-0.252092
H270	H	-1.032246	0.073178	-0.249052
H271	H	-1.056500	0.047634	-0.209757
H272	H	-1.138092	0.012321	-0.329015
H273	H	-1.162352	-0.013233	-0.289729
H274	H	-0.253365	0.386183	0.290919
H275	H	-0.575318	0.544276	0.290891
H276	H	-0.095261	0.544286	0.290918
H277	H	-1.095270	0.284296	-0.291022
O278	O	-0.090540	0.866355	0.286453
C279	C	-0.023168	0.917409	0.317998
H280	H	-0.003582	0.933869	0.365838
H281	H	-0.022011	0.953112	0.297369
C282	C	-0.001649	0.882501	0.256940
C283	C	0.022408	0.902713	0.315699
H284	H	0.026465	0.873437	0.255520
H285	H	-0.047039	0.848106	0.235686
H286	H	-0.000684	0.912256	0.239756
H287	H	0.021435	0.872956	0.332879
H288	H	0.067800	0.937104	0.336955
O289	O	-1.262459	0.121565	-0.458295
C290	C	-1.281718	0.064059	-0.477827
H291	H	-1.261093	0.049657	-0.438181
H292	H	-1.260022	0.063554	-0.503307
C293	C	-1.385253	0.039069	-0.566992
C294	C	-1.359927	0.021379	-0.518298
H295	H	-1.433496	0.012742	-0.591958
H296	H	-1.372278	0.077813	-0.553834
H297	H	-1.367167	0.038648	-0.588218
H298	H	-1.378007	0.021808	-0.497068
H299	H	-1.372908	-0.017366	-0.531453
H300	H	-0.417208	0.544280	0.449006
H301	H	-0.575272	0.386194	0.290894
H302	H	-0.095336	0.866118	0.448986
H303	H	-0.417157	0.804330	-0.290993
O304	O	-0.579970	0.804252	-0.458274
C305	C	-0.637756	0.803972	-0.477814
H306	H	-0.633139	0.822996	-0.438172
H307	H	-0.685434	0.756795	-0.503289
C308	C	-0.648381	0.818333	-0.566982
C309	C	-0.642708	0.841703	-0.518294
H310	H	-0.651438	0.841605	-0.591955
H311	H	-0.609451	0.818520	-0.553820
H312	H	-0.688113	0.779019	-0.588205
H313	H	-0.602972	0.881014	-0.497069
H314	H	-0.681631	0.841524	-0.531454
