data_functionalizedCrystal
_audit_creation_method	'MofGen! by Chris Wilmer'
_symmetry_space_group_name_H-M	'P1'
_symmetry_Int_Tables_number	1
_symmetry_cell_setting	triclinic
loop_
_symmetry_equiv_pos_as_xyz
  x,y,z
_cell_length_a	19.288864
_cell_length_b	15.538191
_cell_length_c	18.366186
_cell_angle_alpha	89.995484
_cell_angle_beta	89.977106
_cell_angle_gamma	65.204172
loop_
_atom_site_label
_atom_site_type_symbol
_atom_site_fract_x
_atom_site_fract_y
_atom_site_fract_z
O1	O	0.891965	0.117639	-0.060769
O2	O	0.685740	0.133508	-0.060717
O3	O	0.828996	-0.011726	-0.060756
O4	O	0.748709	0.262873	-0.060729
O5	O	0.828980	-0.011734	0.060343
O6	O	0.685724	0.133501	0.060382
O7	O	0.891949	0.117632	0.060331
Zn8	Zn	0.788834	0.125565	0.079584
Zn9	Zn	0.788855	0.125574	-0.079970
O10	O	0.748693	0.262866	0.060370
C11	C	0.659983	0.132994	-0.000161
C12	C	0.583263	0.131461	-0.000142
C13	C	0.517278	0.216678	-0.000145
C14	C	0.445191	0.215238	-0.000153
C15	C	0.439092	0.128576	-0.000173
C16	C	0.505089	0.043348	-0.000166
C17	C	0.577175	0.044790	-0.000150
C18	C	0.347855	0.060453	-0.042631
C19	C	0.275770	0.059014	-0.042651
C20	C	0.216759	0.124123	-0.000218
C21	C	0.229837	0.190688	0.042226
C22	C	0.301922	0.192131	0.042242
C23	C	0.360931	0.127002	-0.000189
C24	C	0.072607	0.207785	-0.000228
C25	C	0.000520	0.206341	-0.000232
C26	C	0.060421	0.034449	-0.000252
C27	C	0.132506	0.035895	-0.000241
C28	C	0.138594	0.122565	-0.000233
C29	C	0.837388	-0.046861	-0.000211
C30	C	0.862409	-0.151541	-0.000225
C31	C	0.613831	-0.438277	-0.000147
C32	C	0.637359	-0.536642	-0.000151
C33	C	0.769703	-0.559647	-0.000185
C34	C	0.746185	-0.461281	-0.000184
C35	C	0.668248	-0.400603	-0.000164
C36	C	0.800603	-0.423608	-0.000201
C37	C	0.777087	-0.325251	-0.000197
C38	C	0.699153	-0.264567	-0.000175
C39	C	0.644732	-0.302246	-0.000160
C40	C	0.878540	-0.484287	-0.000216
C41	C	0.932957	-0.446614	-0.000233
C42	C	0.909441	-0.348255	-0.000234
C43	C	0.831508	-0.287571	-0.000212
C44	C	0.963863	-0.310576	-0.000249
C45	C	0.940346	-0.212219	-0.000244
C46	C	0.807992	-0.189214	-0.000207
C47	C	0.917706	0.118146	-0.000227
C48	C	0.994427	0.119679	-0.000251
C49	C	0.740301	0.298001	-0.000177
C50	C	0.715280	0.402681	-0.000168
N51	N	0.788824	0.125558	0.188475
N52	N	0.788872	0.125574	-0.188861
C53	C	0.852266	0.061280	0.226558
C54	C	0.852271	0.061276	0.302786
C55	C	0.788838	0.125566	0.340928
C56	C	0.725386	0.189849	0.302835
C57	C	0.725380	0.189845	0.226609
C58	C	0.758075	0.211489	0.461698
C59	C	0.758086	0.211494	0.537923
C60	C	0.788855	0.125578	0.576035
C61	C	0.819627	0.039653	0.537913
C62	C	0.819621	0.039649	0.461687
C63	C	0.788838	0.125577	0.423582
C64	C	0.852306	0.061290	0.696773
C65	C	0.852307	0.061284	0.773002
C66	C	0.725423	0.189866	0.773051
C67	C	0.725421	0.189863	0.696823
C68	C	0.788866	0.125576	0.658689
H69	H	0.391456	0.284634	-0.000154
C70	C	0.412759	-0.011165	-0.089317
H71	H	0.394643	-0.051002	-0.114606
H72	H	0.454136	-0.048685	-0.058735
H73	H	0.429527	0.022017	-0.123423
C74	C	0.655613	0.260569	0.344788
H75	H	0.664706	0.251373	0.395641
H76	H	0.611799	0.250488	0.332323
H77	H	0.647295	0.323483	0.332289
H78	H	0.181790	0.243706	0.076780
C79	C	0.523973	0.312011	-0.000123
H80	H	0.474346	0.362558	-0.000118
H81	H	0.550873	0.316156	-0.042343
H82	H	0.550821	0.316141	0.042122
H83	H	0.312567	0.246327	0.076803
C84	C	0.922097	-0.009424	0.814894
H85	H	0.959881	-0.047702	0.781262
H86	H	0.906998	-0.048598	0.844643
H87	H	0.942477	0.024413	0.844614
C88	C	0.655640	0.260580	0.654929
H89	H	0.617863	0.298875	0.688561
H90	H	0.635253	0.226759	0.625207
H91	H	0.670751	0.299751	0.625183
H92	H	0.077564	0.278357	-0.000211
H93	H	0.265127	0.004817	-0.077214
C94	C	-0.072065	0.300085	-0.000236
H95	H	-0.058111	0.351905	-0.000235
H96	H	-0.101455	0.303100	0.041989
H97	H	-0.101405	0.303090	-0.042476
C98	C	0.205094	-0.057842	-0.000248
H99	H	0.248898	-0.044572	-0.000232
H100	H	0.205608	-0.093388	-0.042485
H101	H	0.205563	-0.093393	0.041981
H102	H	0.500120	-0.027213	-0.000192
C103	C	0.855428	-0.626396	-0.000210
H104	H	0.861641	-0.690370	-0.000215
H105	H	0.878764	-0.615003	0.042010
H106	H	0.878764	-0.615002	-0.042455
C107	C	0.053721	-0.060878	-0.000278
H108	H	0.001339	-0.049533	-0.000293
H109	H	0.077818	-0.095962	0.041948
H110	H	0.077861	-0.095944	-0.042517
C111	C	0.724233	0.306003	0.419781
H112	H	0.705920	0.357175	0.453400
H113	H	0.683271	0.308056	0.390064
H114	H	0.762641	0.311090	0.390028
H115	H	0.733034	0.281459	0.568956
C116	C	0.655595	0.260561	0.184716
H117	H	0.617816	0.298854	0.218347
H118	H	0.635210	0.226739	0.154991
H119	H	0.670706	0.299733	0.154972
H120	H	1.027319	-0.359994	-0.000258
C121	C	0.649760	-0.048952	-0.000156
H122	H	0.635808	-0.100774	-0.000172
H123	H	0.679108	-0.051967	0.042077
H124	H	0.679143	-0.051955	-0.042389
H125	H	0.744528	-0.139806	-0.000197
C126	C	0.559002	-0.235495	-0.000145
H127	H	0.529957	-0.272016	-0.000134
H128	H	0.547089	-0.196648	-0.042372
H129	H	0.547071	-0.196649	0.042093
H130	H	0.903934	0.008930	0.333798
H131	H	0.897684	-0.564375	-0.000226
C132	C	1.000203	-0.170774	-0.000264
H133	H	1.049987	-0.220998	-0.000284
H134	H	0.993774	-0.132883	0.041967
H135	H	0.993784	-0.132883	-0.042499
C136	C	0.528101	-0.371525	-0.000132
H137	H	0.499056	-0.408047	-0.000121
H138	H	0.516187	-0.332678	-0.042359
H139	H	0.516170	-0.332679	0.042106
H140	H	0.593040	-0.567310	-0.000126
H141	H	0.903925	0.008931	0.195511
C142	C	0.655646	0.260586	0.814994
H143	H	0.617859	0.298867	0.781392
H144	H	0.670755	0.299756	0.844718
H145	H	0.635263	0.226757	0.844743
C146	C	1.018682	-0.513363	-0.000258
H147	H	1.024895	-0.577338	-0.000263
H148	H	1.042018	-0.501970	0.041962
H149	H	1.042019	-0.501969	-0.042504
H150	H	0.844675	-0.030314	0.430651
H151	H	0.680008	-0.184479	-0.000167
H152	H	0.844681	-0.030309	0.568943
H153	H	0.903965	0.008940	0.665723
