data_functionalizedCrystal
_audit_creation_method	'MofGen! by Chris Wilmer'
_symmetry_space_group_name_H-M	'P1'
_symmetry_Int_Tables_number	1
_symmetry_cell_setting	triclinic
loop_
_symmetry_equiv_pos_as_xyz
  x,y,z
_cell_length_a	18.050589
_cell_length_b	18.050590
_cell_length_c	12.759393
_cell_angle_alpha	89.992932
_cell_angle_beta	89.970454
_cell_angle_gamma	90.017386
loop_
_atom_site_label
_atom_site_type_symbol
_atom_site_fract_x
_atom_site_fract_y
_atom_site_fract_z
Zn1	Zn	-0.295838	1.135350	-0.593638
Zn2	Zn	-0.420046	1.135244	-0.417961
Zn3	Zn	-0.295851	1.011152	-0.418016
Zn4	Zn	-0.419968	1.011117	-0.593641
O5	O	-0.357926	1.073216	-0.505814
O6	O	-0.312342	1.239260	-0.570310
O7	O	-0.403610	1.118753	-0.270947
O8	O	-0.191925	1.027686	-0.441334
O9	O	-0.403597	1.239182	-0.441241
O10	O	-0.191915	1.118934	-0.570363
O11	O	-0.312364	1.027583	-0.270987
O12	O	-0.312288	0.907223	-0.441337
O13	O	-0.403463	1.027627	-0.740662
O14	O	-0.403476	0.907197	-0.570368
O15	O	-0.312266	1.118900	-0.740660
O16	O	-0.523960	1.118719	-0.441244
O17	O	-0.523903	1.027524	-0.570315
C18	C	-0.357875	0.880264	-0.505859
C19	C	-0.357871	0.797718	-0.505903
C20	C	-0.407601	0.598275	-0.575904
C21	C	-0.339883	0.548884	-0.601750
C22	C	-0.357913	0.646587	-0.505852
C23	C	-0.425670	0.548896	-0.480005
C24	C	-0.357959	0.500602	-0.505805
C25	C	-0.290158	0.598284	-0.531749
C26	C	-0.375991	0.598301	-0.409958
C27	C	-0.308226	0.548932	-0.435769
C28	C	-0.357887	0.730686	-0.505882
C29	C	-0.357977	0.416506	-0.505774
C30	C	-0.550878	1.073126	-0.505797
C31	C	-0.633424	1.073156	-0.505824
C32	C	-0.832870	1.023612	-0.575989
C33	C	-0.882314	1.005505	-0.480126
C34	C	-0.784554	1.073229	-0.505838
C35	C	-0.882192	1.091372	-0.601712
C36	C	-0.930539	1.073298	-0.505860
C37	C	-0.832911	1.055086	-0.409924
C38	C	-0.832784	1.140984	-0.531575
C39	C	-0.882206	1.122903	-0.435646
C40	C	-0.700456	1.073187	-0.505827
C41	C	-1.014636	1.073339	-0.505860
C42	C	-0.164220	1.073326	-0.505854
C43	C	-0.081674	1.073373	-0.505872
C44	C	-0.357855	1.073271	-0.779847
C45	C	-0.357824	1.073295	-0.896624
C46	C	-0.357977	1.266921	-0.505769
C47	C	-0.357999	1.349467	-0.505750
C48	C	-0.310330	1.120824	-0.951487
C49	C	-0.310298	1.120837	-1.061211
C50	C	-0.405260	1.025788	-1.061200
C51	C	-0.405288	1.025773	-0.951478
C52	C	-0.222683	1.147444	-1.211178
C53	C	-0.175195	1.194986	-1.266044
C54	C	-0.163823	1.267451	-1.230428
C55	C	-0.199949	1.292391	-1.139947
C56	C	-0.247442	1.244854	-1.085086
C57	C	-0.258800	1.172378	-1.120701
C58	C	-0.492904	0.999173	-0.801509
C59	C	-0.540402	0.951639	-0.746646
C60	C	-0.551782	0.879172	-0.782261
C61	C	-0.515669	0.854235	-0.872745
C62	C	-0.468172	0.901769	-0.927608
C63	C	-0.456791	0.974235	-0.891986
C64	C	-0.357943	1.073203	-0.232847
C65	C	-0.357764	1.073323	-0.116070
H66	H	-0.449547	0.619942	-0.635211
H67	H	-0.811014	1.198238	-0.553369
F68	F	-0.910749	0.930650	-0.451674
F69	F	-0.910343	1.177787	-0.358031
F70	F	-0.910490	1.111394	-0.707675
F71	F	-0.319914	0.520511	-0.707720
F72	F	-0.804553	0.968691	-0.653421
F73	F	-0.804736	1.034979	-0.303928
H74	H	-0.266177	0.527404	-0.376508
H75	H	-0.232859	0.619887	-0.553682
H76	H	-0.391288	0.620023	-0.328907
H77	H	-0.190691	1.351402	-1.110960
F78	F	-0.500541	0.520539	-0.451454
F79	F	-0.259813	1.171400	-0.893111
H80	H	-0.276858	1.265160	-1.011421
H81	H	-0.125157	1.306160	-1.275107
F82	F	-0.136750	1.168441	-1.362338
F83	F	-0.234774	1.070314	-1.249082
F84	F	-0.455775	0.975218	-1.119589
F85	F	-0.429736	0.875227	-1.023910
H86	H	-0.524938	0.795227	-0.901746
F87	F	-0.602347	0.828588	-0.723879
F88	F	-0.578843	0.978184	-0.650350
F89	F	-0.480776	1.076295	-0.763579
