data_functionalizedCrystal
_audit_creation_method	'MofGen! by Chris Wilmer'
_symmetry_space_group_name_H-M	'P1'
_symmetry_Int_Tables_number	1
_symmetry_cell_setting	triclinic
loop_
_symmetry_equiv_pos_as_xyz
  x,y,z
_cell_length_a	17.077404
_cell_length_b	17.077402
_cell_length_c	17.077396
_cell_angle_alpha	90.027432
_cell_angle_beta	89.980499
_cell_angle_gamma	89.975442
loop_
_atom_site_label
_atom_site_type_symbol
_atom_site_fract_x
_atom_site_fract_y
_atom_site_fract_z
Zn1	Zn	1.200047	0.312503	-0.443848
Zn2	Zn	1.533380	0.645837	-0.110515
Zn3	Zn	1.866713	0.979170	0.222818
Zn4	Zn	1.199951	0.443778	-0.312585
Zn5	Zn	1.533284	0.777112	0.020749
Zn6	Zn	1.866617	1.110445	0.354082
Zn7	Zn	1.068779	0.312531	-0.312596
Zn8	Zn	1.402112	0.645864	0.020737
Zn9	Zn	1.735445	0.979198	0.354070
Zn10	Zn	1.068743	0.443732	-0.443808
Zn11	Zn	1.402077	0.777065	-0.110475
Zn12	Zn	1.735410	1.110398	0.222858
O13	O	1.134380	0.378136	-0.378210
O14	O	1.467713	0.711469	-0.044876
O15	O	1.801046	1.044803	0.288457
O16	O	1.309881	0.329925	-0.426448
O17	O	1.643214	0.663259	-0.093115
O18	O	1.976548	0.996592	0.240219
O19	O	1.182525	0.426399	-0.202739
O20	O	1.515858	0.759732	0.130594
O21	O	1.849191	1.093066	0.463927
O22	O	1.086247	0.202680	-0.330029
O23	O	1.419580	0.536014	0.003305
O24	O	1.752913	0.869347	0.336638
O25	O	1.309810	0.426372	-0.330009
O26	O	1.643144	0.759706	0.003324
O27	O	1.976477	1.093039	0.336658
O28	O	1.182689	0.202660	-0.426459
O29	O	1.516022	0.535993	-0.093126
O30	O	1.849355	0.869327	0.240208
O31	O	1.086153	0.329972	-0.202748
O32	O	1.419487	0.663306	0.130585
O33	O	1.752820	0.996639	0.463919
O34	O	0.958927	0.329927	-0.329990
O35	O	1.292260	0.663260	0.003343
O36	O	1.625594	0.996594	0.336677
O37	O	1.086186	0.426293	-0.553661
O38	O	1.419520	0.759626	-0.220327
O39	O	1.752853	1.092960	0.113006
O40	O	0.958901	0.426320	-0.426391
O41	O	1.292234	0.759653	-0.093058
O42	O	1.625568	1.092986	0.240276
O43	O	1.182655	0.329880	-0.553690
O44	O	1.515988	0.663213	-0.220357
O45	O	1.849321	0.996547	0.112977
O46	O	1.182491	0.553619	-0.329970
O47	O	1.515824	0.886952	0.003363
O48	O	1.849157	1.220286	0.336696
O49	O	1.086093	0.553585	-0.426380
O50	O	1.419426	0.886918	-0.093046
O51	O	1.752760	1.220251	0.240287
C52	C	0.930432	0.378122	-0.378188
C53	C	1.263765	0.711455	-0.044855
C54	C	1.597099	1.044789	0.288479
C55	C	0.843182	0.378135	-0.378197
C56	C	1.176515	0.711468	-0.044864
C57	C	1.509849	1.044801	0.288469
C58	C	1.134299	0.582084	-0.378187
C59	C	1.467632	0.915417	-0.044853
C60	C	1.800965	1.248751	0.288480
C61	C	1.134336	0.669334	-0.378203
C62	C	1.467669	1.002667	-0.044870
C63	C	1.801003	1.336000	0.288464
C64	C	0.802199	0.428402	-0.428313
C65	C	1.135532	0.761735	-0.094979
C66	C	1.468866	1.095069	0.238354
C67	C	0.720219	0.428404	-0.428325
C68	C	1.053552	0.761737	-0.094992
C69	C	1.386885	1.095070	0.238341
C70	C	0.679223	0.378141	-0.378218
C71	C	1.012556	0.711475	-0.044884
C72	C	1.345889	1.044808	0.288449
C73	C	0.720212	0.327869	-0.328100
C74	C	1.053545	0.661202	0.005233
C75	C	1.386878	0.994535	0.338567
C76	C	0.802191	0.327863	-0.328092
C77	C	1.135524	0.661197	0.005241
C78	C	1.468857	0.994530	0.338575
C79	C	0.549342	0.327884	-0.328119
C80	C	0.882675	0.661217	0.005214
C81	C	1.216008	0.994551	0.338548
C82	C	0.467357	0.327890	-0.328126
C83	C	0.800690	0.661223	0.005208
C84	C	1.134024	0.994557	0.338541
C85	C	0.467370	0.428424	-0.428352
C86	C	0.800703	0.761758	-0.095019
C87	C	1.134036	1.095091	0.238315
C88	C	0.549348	0.428419	-0.428344
C89	C	0.882682	0.761753	-0.095011
C90	C	1.216015	1.095086	0.238323
C91	C	0.590332	0.378147	-0.378225
C92	C	0.923665	0.711480	-0.044892
C93	C	1.256998	1.044814	0.288441
C94	C	1.184580	0.710316	-0.328058
C95	C	1.517914	1.043649	0.005275
C96	C	1.851247	1.376982	0.338608
C97	C	1.184617	0.792296	-0.328082
C98	C	1.517950	1.125629	0.005252
C99	C	1.851283	1.458963	0.338585
C100	C	1.134404	0.833293	-0.378246
C101	C	1.467737	1.166626	-0.044913
C102	C	1.801071	1.499960	0.288420
C103	C	1.084158	0.792305	-0.428397
C104	C	1.417491	1.125639	-0.095063
C105	C	1.750824	1.458972	0.238270
C106	C	1.084126	0.710327	-0.428377
C107	C	1.417459	1.043660	-0.095043
C108	C	1.750792	1.376993	0.238290
C109	C	1.084226	0.963175	-0.428434
C110	C	1.417559	1.296509	-0.095100
C111	C	1.750893	1.629842	0.238233
C112	C	1.084256	1.045160	-0.428453
C113	C	1.417590	1.378493	-0.095119
C114	C	1.750923	1.711827	0.238214
C115	C	1.184717	1.045145	-0.328138
C116	C	1.518050	1.378478	0.005195
C117	C	1.851384	1.711812	0.338528
C118	C	1.184685	0.963166	-0.328118
C119	C	1.518018	1.296499	0.005215
C120	C	1.851352	1.629833	0.338548
C121	C	1.134437	0.922184	-0.378268
C122	C	1.467771	1.255517	-0.044935
C123	C	1.801104	1.588851	0.288399
C124	C	1.339124	0.378151	-0.378232
C125	C	1.672457	0.711484	-0.044898
C126	C	2.005791	1.044818	0.288435
C127	C	1.426374	0.378157	-0.378241
C128	C	1.759707	0.711491	-0.044908
C129	C	2.093040	1.044824	0.288425
C130	C	1.134427	0.378078	-0.582954
C131	C	1.467761	0.711412	-0.249621
C132	C	1.801094	1.044745	0.083713
C133	C	1.134447	0.378054	-0.670204
C134	C	1.467781	0.711387	-0.336870
C135	C	1.801114	1.044720	-0.003537
C136	C	1.134476	1.173392	-0.378260
C137	C	1.467809	1.506725	-0.044927
C138	C	1.801143	1.840058	0.288407
C139	C	1.134501	1.086142	-0.378308
C140	C	1.467834	1.419475	-0.044975
C141	C	1.801167	1.752809	0.288359
C142	C	1.184680	0.327847	-0.711210
C143	C	1.518014	0.661181	-0.377877
C144	C	1.851347	0.994514	-0.044544
C145	C	1.184690	0.327821	-0.793191
C146	C	1.518023	0.661154	-0.459858
C147	C	1.851356	0.994488	-0.126524
C148	C	1.134470	0.378006	-0.834163
C149	C	1.467803	0.711339	-0.500830
C150	C	1.801136	1.044673	-0.167497
C151	C	1.084231	0.428214	-0.793151
C152	C	1.417565	0.761548	-0.459817
C153	C	1.750898	1.094881	-0.126484
C154	C	1.084219	0.428236	-0.711172
C155	C	1.417552	0.761569	-0.377838
C156	C	1.750885	1.094903	-0.044505
C157	C	1.084263	0.428167	-0.964021
C158	C	1.417596	0.761501	-0.630688
C159	C	1.750930	1.094834	-0.297354
C160	C	1.084277	0.428147	-1.046006
C161	C	1.417610	0.761480	-0.712672
C162	C	1.750943	1.094814	-0.379339
C163	C	1.184734	0.327752	-1.046040
C164	C	1.518067	0.661086	-0.712707
C165	C	1.851401	0.994419	-0.379373
C166	C	1.184721	0.327774	-0.964061
C167	C	1.518055	0.661107	-0.630728
C168	C	1.851388	0.994441	-0.297394
C169	C	1.134484	0.377984	-0.923054
C170	C	1.467817	0.711317	-0.589721
C171	C	1.801151	1.044650	-0.256388
C172	C	1.134378	0.378137	-0.174262
C173	C	1.467711	0.711470	0.159072
C174	C	1.801044	1.044804	0.492405
C175	C	1.134509	0.377941	-0.087012
C176	C	1.467843	0.711274	0.246321
C177	C	1.801176	1.044607	0.579654
H178	H	0.835572	0.469334	-0.469113
H179	H	1.168905	0.802667	-0.135780
H180	H	1.502239	1.136001	0.197553
H181	H	0.686854	0.469337	-0.469133
H182	H	1.020187	0.802671	-0.135800
H183	H	1.353520	1.136004	0.197533
O184	O	1.030059	0.482337	-0.837342
O185	O	1.363393	0.815670	-0.504009
O186	O	1.696726	1.149003	-0.170675
H187	H	1.043480	0.543951	-0.821593
H188	H	1.376813	0.877284	-0.488260
H189	H	1.710146	1.210617	-0.154927
H190	H	0.582725	0.469352	-0.469142
H191	H	0.916058	0.802685	-0.135808
H192	H	1.249392	1.136018	0.197525
H193	H	1.043384	1.078538	-0.469316
H194	H	1.376717	1.411871	-0.135983
H195	H	1.710050	1.745204	0.197351
O196	O	0.423174	0.482643	-0.482417
O197	O	0.756507	0.815976	-0.149084
O198	O	1.089840	1.149310	0.184249
H199	H	0.359281	0.474197	-0.474015
H200	H	0.692615	0.807530	-0.140682
H201	H	1.025948	1.140863	0.192652
O202	O	1.238853	0.273724	-0.667022
O203	O	1.572187	0.607057	-0.333689
O204	O	1.905520	0.940391	-0.000355
H205	H	1.203738	0.233798	-0.629667
H206	H	1.537071	0.567131	-0.296334
H207	H	1.870404	0.900464	0.036999
O208	O	1.030024	0.918969	-0.482515
O209	O	1.363358	1.252302	-0.149181
O210	O	1.696691	1.585635	0.184152
H211	H	0.995105	0.961247	-0.517393
H212	H	1.328438	1.294581	-0.184060
H213	H	1.661771	1.627914	0.149274
O214	O	1.238841	0.918946	-0.274011
O215	O	1.572174	1.252280	0.059322
O216	O	1.905508	1.585613	0.392655
H217	H	1.278736	0.881535	-0.309177
H218	H	1.612070	1.214868	0.024157
H219	H	1.945403	1.548201	0.357490
O220	O	1.030026	0.482379	-0.666943
O221	O	1.363360	0.815712	-0.333610
O222	O	1.696693	1.149045	-0.000276
H223	H	1.043453	0.543987	-0.682657
H224	H	1.376786	0.877321	-0.349323
H225	H	1.710120	1.210654	-0.015990
H226	H	0.686826	0.286941	-0.287305
H227	H	1.020160	0.620274	0.046028
H228	H	1.353493	0.953607	0.379362
H229	H	1.225466	0.676941	-0.287205
H230	H	1.558799	1.010275	0.046128
H231	H	1.892132	1.343608	0.379462
H232	H	1.043277	0.825692	-0.469245
H233	H	1.376610	1.159025	-0.135912
H234	H	1.709944	1.492358	0.197421
H235	H	1.225619	0.286913	-0.930704
H236	H	1.558953	0.620247	-0.597370
H237	H	1.892286	0.953580	-0.264037
H238	H	1.225633	1.078516	-0.287307
H239	H	1.558966	1.411850	0.046026
H240	H	1.892300	1.745183	0.379359
O241	O	0.423135	0.273672	-0.274092
O242	O	0.756468	0.607006	0.059242
O243	O	1.089801	0.940339	0.392575
H244	H	0.465404	0.238704	-0.239249
H245	H	0.798737	0.572037	0.094084
H246	H	1.132070	0.905371	0.427417
H247	H	0.582708	0.286940	-0.287314
H248	H	0.916041	0.620273	0.046020
H249	H	1.249374	0.953607	0.379353
H250	H	1.043342	0.469041	-0.930636
H251	H	1.376675	0.802374	-0.597302
H252	H	1.710009	1.135708	-0.263969
H253	H	0.835558	0.286927	-0.287287
H254	H	1.168891	0.620260	0.046046
H255	H	1.502225	0.953593	0.379380
O256	O	1.029923	0.666125	-0.482454
O257	O	1.363256	0.999458	-0.149121
O258	O	1.696589	1.332791	0.184212
H259	H	1.043348	0.681809	-0.544079
H260	H	1.376681	1.015142	-0.210745
H261	H	1.710015	1.348476	0.122588
O262	O	1.238804	0.836501	-0.273993
O263	O	1.572137	1.169835	0.059341
O264	O	1.905470	1.503168	0.392674
H265	H	1.273706	0.794221	-0.239099
H266	H	1.607039	1.127554	0.094235
H267	H	1.940372	1.460888	0.427568
O268	O	1.238873	0.273675	-0.837423
O269	O	1.572207	0.607009	-0.504090
O270	O	1.905540	0.940342	-0.170756
H271	H	1.273800	0.238791	-0.795160
H272	H	1.607134	0.572124	-0.461826
H273	H	1.940467	0.905458	-0.128493
H274	H	1.225638	0.286868	-1.079432
H275	H	1.558971	0.620202	-0.746098
H276	H	1.892305	0.953535	-0.412765
H277	H	1.043381	0.469010	-1.079363
H278	H	1.376715	0.802343	-0.746030
H279	H	1.710048	1.135677	-0.412696
