data_functionalizedCrystal
_audit_creation_method	'MofGen! by Chris Wilmer'
_symmetry_space_group_name_H-M	'P1'
_symmetry_Int_Tables_number	1
_symmetry_cell_setting	triclinic
loop_
_symmetry_equiv_pos_as_xyz
  x,y,z
_cell_length_a	19.077236
_cell_length_b	12.759400
_cell_length_c	19.076919
_cell_angle_alpha	87.724458
_cell_angle_beta	90.112677
_cell_angle_gamma	92.307581
loop_
_atom_site_label
_atom_site_type_symbol
_atom_site_fract_x
_atom_site_fract_y
_atom_site_fract_z
Zn1	Zn	1.058334	-0.381376	0.440559
Zn2	Zn	1.062993	-0.549744	0.323061
Zn3	Zn	0.945550	-0.380825	0.318339
Zn4	Zn	0.940814	-0.563761	0.435799
O5	O	1.001923	-0.468927	0.379440
O6	O	1.157286	-0.398075	0.428941
O7	O	1.051346	-0.521240	0.224103
O8	O	0.960543	-0.233876	0.334569
O9	O	1.160708	-0.521775	0.342615
O10	O	1.043405	-0.234281	0.424363
O11	O	0.965061	-0.397136	0.220635
O12	O	0.846589	-0.410727	0.329953
O13	O	0.952472	-0.545663	0.534762
O14	O	0.843109	-0.545129	0.416250
O15	O	1.038813	-0.411666	0.538259
O16	O	1.046754	-0.698626	0.337999
O17	O	0.956990	-0.708923	0.420828
C18	C	0.819352	-0.479390	0.372073
C19	C	0.741247	-0.483893	0.368938
C20	C	0.702769	-0.421716	0.412479
C21	C	0.629381	-0.425941	0.409528
C22	C	0.594473	-0.492350	0.363038
C23	C	0.632956	-0.554530	0.319492
C24	C	0.706343	-0.550298	0.322441
C25	C	0.375181	-0.511895	0.349390
C26	C	0.301789	-0.516124	0.346446
C27	C	0.298219	-0.387533	0.436481
C28	C	0.371607	-0.383312	0.439428
C29	C	0.410085	-0.445488	0.395880
N30	N	0.519458	-0.496673	0.360022
N31	N	0.485098	-0.441159	0.398893
C32	C	1.001882	-0.741896	0.379426
C33	C	1.001928	-0.858671	0.379446
C34	C	1.045053	-0.913657	0.426239
C35	C	1.045092	-1.023380	0.426260
C36	C	0.958878	-1.023120	0.332687
C37	C	0.958836	-0.913400	0.332671
C38	C	1.066875	-1.176954	0.510184
C39	C	1.110012	-1.231943	0.556972
C40	C	1.178121	-1.192977	0.570576
C41	C	1.203109	-1.099022	0.537382
C42	C	1.159976	-1.044038	0.490589
C43	C	1.091856	-1.083004	0.476998
C44	C	0.937060	-0.759823	0.248746
C45	C	0.893931	-0.704837	0.201949
C46	C	0.825820	-0.743801	0.188338
C47	C	0.800836	-0.837758	0.221519
C48	C	0.843965	-0.892744	0.268316
C49	C	0.912075	-0.853773	0.281928
C50	C	1.185207	-0.458423	0.386836
C51	C	1.263311	-0.453947	0.389987
C52	C	0.994595	-0.480290	0.562720
C53	C	0.991472	-0.485132	0.640822
C54	C	1.001983	-0.194892	0.379470
C55	C	1.002008	-0.078114	0.379483
C56	C	1.009263	-0.457529	0.196875
C57	C	1.012522	-0.452383	0.118778
C58	C	1.034956	-0.417645	0.679337
C59	C	1.032013	-0.422191	0.752723
C60	C	0.985589	-0.494231	0.787593
C61	C	0.942100	-0.561721	0.749072
C62	C	0.945040	-0.557168	0.675688
C63	C	0.971973	-0.515321	1.006873
C64	C	0.969038	-0.519871	1.080263
C65	C	1.058950	-0.380339	1.083908
C66	C	1.061889	-0.375798	1.010522
C67	C	1.018398	-0.443284	0.972008
N68	N	0.982582	-0.498882	0.862605
N69	N	1.021402	-0.438627	0.896998
H70	H	0.604528	-0.608596	0.281636
C71	C	0.725912	-0.880625	0.206550
C72	C	0.672486	-0.896613	0.266814
C73	C	0.597562	-0.939478	0.251840
C74	C	0.576064	-0.966355	0.176601
C75	C	0.629492	-0.950367	0.116332
C76	C	0.704415	-0.907502	0.131306
H77	H	0.688398	-0.876717	0.322515
H78	H	0.558011	-0.951313	0.296456
H79	H	0.520601	-0.998086	0.165516
H80	H	0.613579	-0.970264	0.060631
H81	H	0.743966	-0.895667	0.086690
C82	C	0.897211	-0.631415	0.633322
C83	C	0.929665	-0.709025	0.584094
C84	C	0.881833	-0.783274	0.541730
C85	C	0.801547	-0.779912	0.548593
C86	C	0.769090	-0.702299	0.597824
C87	C	0.816922	-0.628050	0.640188
H88	H	0.989101	-0.711517	0.579011
H89	H	0.905861	-0.840729	0.505286
H90	H	0.766139	-0.834875	0.517233
H91	H	0.709654	-0.699807	0.602907
H92	H	0.792894	-0.570596	0.676631
H93	H	0.737671	-0.600929	0.286985
H94	H	1.080140	-0.869099	0.464327
H95	H	0.931232	-0.578536	1.108651
H96	H	0.904299	-0.620373	0.777469
C97	C	0.587062	-0.357549	0.457433
C98	C	0.593981	-0.370697	0.537709
C99	C	0.551665	-0.302301	0.585619
C100	C	0.502432	-0.220755	0.553253
C101	C	0.495511	-0.207603	0.472973
C102	C	0.537826	-0.276000	0.425063
H103	H	0.630428	-0.431065	0.561672
H104	H	0.556789	-0.312037	0.645048
H105	H	0.471107	-0.170124	0.588719
H106	H	0.459063	-0.147235	0.449011
H107	H	0.532703	-0.266263	0.365634
H108	H	1.072761	-0.358986	0.650952
H109	H	0.273369	-0.570207	0.308588
H110	H	0.731186	-0.367641	0.450338
H111	H	1.011412	-1.208683	0.499118
H112	H	0.823617	-0.969250	0.295334
C113	C	1.187452	-0.940691	0.454080
C114	C	1.262375	-0.897825	0.469038
C115	C	1.289852	-0.794472	0.432533
C116	C	1.242405	-0.733985	0.381070
C117	C	1.167477	-0.776851	0.366109
C118	C	1.140001	-0.880204	0.402614
H119	H	1.297502	-0.942602	0.507136
H120	H	1.345318	-0.762741	0.443608
H121	H	1.262744	-0.657477	0.354047
H122	H	1.132350	-0.732074	0.328011
H123	H	1.084534	-0.911935	0.391539
C124	C	1.278036	-1.056166	0.552343
C125	C	1.341436	-1.122106	0.536061
C126	C	1.416363	-1.079246	0.551024
C127	C	1.427891	-0.970446	0.582268
C128	C	1.364490	-0.904500	0.598551
C129	C	1.289562	-0.947360	0.583588
H130	H	1.332904	-1.202652	0.512931
H131	H	1.463297	-1.128065	0.538970
H132	H	1.483357	-0.938719	0.593344
H133	H	1.373021	-0.823954	0.621681
H134	H	1.242628	-0.898541	0.595642
H135	H	1.213243	-1.237757	0.608672
C136	C	0.417496	-0.580301	0.301494
C137	C	0.410578	-0.567185	0.221217
C138	C	0.452895	-0.635599	0.173320
C139	C	0.502131	-0.717130	0.205701
C140	C	0.509051	-0.730250	0.285982
C141	C	0.466734	-0.661836	0.333879
H142	H	0.374129	-0.506828	0.197243
H143	H	0.447772	-0.625887	0.113890
H144	H	0.533456	-0.767775	0.170245
H145	H	0.545500	-0.790607	0.309956
H146	H	0.471857	-0.671549	0.393309
H147	H	0.400025	-0.329239	0.477288
C148	C	0.778392	-0.683308	0.136848
C149	C	0.708117	-0.643186	0.162231
C150	C	0.660695	-0.582693	0.110741
C151	C	0.683548	-0.562323	0.033867
C152	C	0.753826	-0.602446	0.008480
C153	C	0.801248	-0.662939	0.059971
H154	H	0.691198	-0.658264	0.219141
H155	H	0.608671	-0.552991	0.129534
H156	H	0.648443	-0.517543	-0.004249
H157	H	0.770746	-0.587368	-0.048429
H158	H	0.853272	-0.692641	0.041178
C159	C	0.911488	-1.083327	0.281230
C160	C	0.920477	-1.062986	0.201586
C161	C	0.873089	-1.123191	0.150125
C162	C	0.816712	-1.203736	0.178309
C163	C	0.807720	-1.224080	0.257958
C164	C	0.855109	-1.163876	0.309418
H165	H	0.962213	-1.003359	0.180719
H166	H	0.879745	-1.108130	0.091164
H167	H	0.781633	-1.248303	0.140215
H168	H	0.765985	-1.283708	0.278825
H169	H	0.848452	-1.178936	0.368380
C170	C	1.079848	-0.347951	0.795086
C171	C	1.160133	-0.351327	0.788225
C172	C	1.207969	-0.277080	0.830586
C173	C	1.175519	-0.199457	0.879808
C174	C	1.095230	-0.196078	0.886671
C175	C	1.047394	-0.270326	0.844310
H176	H	1.184157	-0.408791	0.751786
H177	H	1.267404	-0.279581	0.825505
H178	H	1.210930	-0.144495	0.911166
H179	H	1.071205	-0.138615	0.923110
H180	H	0.987958	-0.267824	0.849391
C181	C	1.106782	-0.306100	1.126274
C182	C	1.103551	-0.311096	1.206994
C183	C	1.151384	-0.236849	1.249359
C184	C	1.202447	-0.157605	1.211004
C185	C	1.205680	-0.152606	1.130279
C186	C	1.157847	-0.226853	1.087914
H187	H	1.065750	-0.369760	1.235391
H188	H	1.148990	-0.240550	1.309117
H189	H	1.237855	-0.102643	1.242365
H190	H	1.243481	-0.093942	1.101883
H191	H	1.160241	-0.223152	1.028156
C192	C	0.924126	-0.589563	0.964529
C193	C	0.843844	-0.586180	0.971419
C194	C	0.795989	-0.660428	0.929079
C195	C	0.828416	-0.738059	0.879848
C196	C	0.908702	-0.741446	0.872955
C197	C	0.956557	-0.667198	0.915296
H198	H	0.819836	-0.528710	1.007865
H199	H	0.736555	-0.657921	0.934181
H200	H	0.792990	-0.793022	0.848505
H201	H	0.932710	-0.798916	0.836510
H202	H	1.015991	-0.669705	0.910193
H203	H	0.266883	-0.336912	0.471935
H204	H	1.089660	-1.308442	0.583998
H205	H	0.914281	-0.628335	0.174928
H206	H	0.992518	-0.728080	0.259835
H207	H	1.099694	-0.317138	0.982137
