data_functionalizedCrystal
_audit_creation_method	'MofGen! by Chris Wilmer'
_symmetry_space_group_name_H-M	'P1'
_symmetry_Int_Tables_number	1
_symmetry_cell_setting	triclinic
loop_
_symmetry_equiv_pos_as_xyz
  x,y,z
_cell_length_a	11.792241
_cell_length_b	10.268362
_cell_length_c	9.065218
_cell_angle_alpha	89.999487
_cell_angle_beta	84.604650
_cell_angle_gamma	90.000426
loop_
_atom_site_label
_atom_site_type_symbol
_atom_site_fract_x
_atom_site_fract_y
_atom_site_fract_z
O1	O	1.508031	0.108168	0.202216
O2	O	2.008031	0.608168	0.702216
O3	O	1.177806	0.108198	0.223058
O4	O	1.677806	0.608198	0.723058
O5	O	1.349744	0.108180	-0.002069
O6	O	1.849744	0.608180	0.497931
O7	O	1.336093	0.108186	0.427343
O8	O	1.836093	0.608186	0.927343
O9	O	1.349727	-0.108421	-0.002062
O10	O	1.849727	0.391579	0.497938
O11	O	1.177789	-0.108403	0.223065
O12	O	1.677789	0.391597	0.723065
O13	O	1.508014	-0.108433	0.202224
O14	O	2.008014	0.391567	0.702224
Cu15	Cu	1.342900	-0.128195	0.212645
Cu16	Cu	1.842900	0.371805	0.712645
Cu17	Cu	1.342920	0.127960	0.212636
Cu18	Cu	1.842920	0.627960	0.712636
O19	O	1.336076	-0.108414	0.427351
O20	O	1.836076	0.391586	0.927351
C21	C	1.135499	-0.000099	0.221752
C22	C	1.635499	0.499901	0.721752
C23	C	1.009464	-0.000087	0.217834
C24	C	1.509464	0.499913	0.717834
C25	C	0.778711	-0.000125	0.210629
C26	C	1.278711	0.499875	0.710629
C27	C	0.907119	-0.000104	0.214632
C28	C	1.407119	0.499896	0.714632
N29	N	1.342895	-0.308361	0.212651
N30	N	1.842895	0.191639	0.712651
C31	C	1.342903	-0.426203	0.212652
C32	C	1.842903	0.073797	0.712652
C33	C	1.342917	-0.574041	0.212638
C34	C	1.842917	-0.074041	0.712638
C35	C	1.550321	-0.000133	0.203529
C36	C	2.050321	0.499867	0.703529
C37	C	1.676356	-0.000136	0.207448
C38	C	2.176356	0.499864	0.707448
C39	C	1.348424	-0.000118	-0.057040
C40	C	1.848424	0.499882	0.442960
C41	C	1.344501	-0.000112	-0.220846
C42	C	1.844501	0.499888	0.279154
N43	N	1.342934	0.308126	0.212619
N44	N	1.842934	0.808126	0.712619
C45	C	1.337396	-0.000113	0.482322
C46	C	1.837396	0.499887	0.982322
C47	C	1.341319	-0.000111	0.646128
C48	C	1.841319	0.499889	1.146128
