data_functionalizedCrystal
_audit_creation_method	'MofGen! by Chris Wilmer'
_symmetry_space_group_name_H-M	'P1'
_symmetry_Int_Tables_number	1
_symmetry_cell_setting	triclinic
loop_
_symmetry_equiv_pos_as_xyz
  x,y,z
_cell_length_a	16.109302
_cell_length_b	14.971506
_cell_length_c	14.048226
_cell_angle_alpha	89.993237
_cell_angle_beta	90.006316
_cell_angle_gamma	96.457774
loop_
_atom_site_label
_atom_site_type_symbol
_atom_site_fract_x
_atom_site_fract_y
_atom_site_fract_z
O1	O	-0.108428	1.186780	-0.079167
O2	O	-0.121385	0.926364	-0.079167
O3	O	0.006115	1.063725	-0.079161
O4	O	-0.235928	1.049419	-0.079173
O5	O	0.006123	1.063709	0.079160
O6	O	-0.121377	0.926347	0.079154
O7	O	-0.108420	1.186764	0.079154
Zn8	Zn	-0.114898	1.056553	0.104291
Zn9	Zn	-0.114908	1.056575	-0.104304
O10	O	-0.235920	1.049402	0.079148
C11	C	-0.120799	0.893032	-0.000007
C12	C	-0.119053	0.793738	-0.000007
C13	C	-0.187296	0.355358	-0.000020
C14	C	-0.188929	0.448656	-0.000024
C15	C	-0.114018	0.505983	-0.000016
C16	C	-0.037468	0.470009	-0.000014
C17	C	-0.035836	0.376712	-0.000016
C18	C	-0.040877	0.664467	-0.000006
C19	C	-0.042509	0.757770	-0.000002
C20	C	-0.193971	0.736410	-0.000014
C21	C	-0.192338	0.643114	-0.000016
C22	C	-0.115788	0.607146	-0.000012
C23	C	-0.266900	1.049990	-0.000014
C24	C	-0.359197	1.051728	-0.000019
C25	C	-0.571548	1.055755	-0.086314
C26	C	-0.658270	1.057397	-0.086312
C27	C	-0.658251	1.057375	0.086299
C28	C	-0.571530	1.055739	0.086296
C29	C	-0.528181	1.054925	-0.000013
C30	C	-0.701624	1.058203	-0.000008
C31	C	-0.795653	1.059983	-0.000005
C32	C	-0.434146	1.053146	-0.000016
C33	C	0.037095	1.063137	-0.000001
C34	C	0.129392	1.061399	-0.000003
C35	C	-0.109006	1.220095	-0.000008
C36	C	-0.110752	1.319389	-0.000015
N37	N	-0.114890	1.056544	0.246652
N38	N	-0.114908	1.056590	-0.246665
C39	C	-0.058457	1.117387	0.296472
C40	C	-0.058456	1.117393	0.396130
C41	C	-0.114894	1.056560	0.445965
C42	C	-0.171330	0.995711	0.396137
C43	C	-0.171326	0.995701	0.296482
C44	C	-0.171337	0.995737	0.603852
C45	C	-0.171342	0.995747	0.703514
C46	C	-0.058466	1.117429	0.703500
C47	C	-0.058462	1.117419	0.603844
C48	C	-0.114900	1.056571	0.554023
H49	H	-0.251259	0.477936	-0.000037
H50	H	0.018490	0.804444	-0.000003
C51	C	-0.273642	0.580825	0.000169
C52	C	-0.277136	0.526642	0.081630
C53	C	-0.352025	0.469258	0.081835
H54	H	-0.276227	0.543911	-0.054979
H55	H	-0.319491	0.615573	0.000215
H56	H	-0.231298	0.491897	0.081575
H57	H	-0.274564	0.563532	0.136791
H58	H	-0.397874	0.504006	0.081881
H59	H	-0.354603	0.432350	0.026683
H60	H	-0.354409	0.432494	0.137109
H61	H	-0.693557	1.058036	0.156569
C62	C	-0.524367	1.055013	-0.179953
C63	C	-0.465290	1.130966	-0.184995
C64	C	-0.421810	1.130307	-0.271240
H65	H	-0.562523	1.055788	-0.231423
H66	H	-0.496775	1.002271	-0.183557
H67	H	-0.492881	1.183694	-0.181400
H68	H	-0.427116	1.130207	-0.133545
H69	H	-0.394218	1.077565	-0.274844
H70	H	-0.459973	1.131079	-0.322703
H71	H	-0.381717	1.181835	-0.274669
H72	H	-0.256300	0.765699	-0.000016
C73	C	-0.705458	1.058100	-0.179958
C74	C	-0.764508	0.982122	-0.184959
C75	C	-0.807991	0.982722	-0.271217
H76	H	-0.667300	1.057319	-0.231416
H77	H	-0.733072	1.110826	-0.183611
H78	H	-0.736896	0.929410	-0.181315
H79	H	-0.802684	0.982888	-0.133521
H80	H	-0.835605	1.035447	-0.274871
H81	H	-0.769827	0.981943	-0.322668
H82	H	-0.848067	0.931176	-0.274618
C83	C	0.042319	0.625587	0.000046
C84	C	0.107575	0.695758	0.000081
C85	C	0.184223	0.659976	0.000146
H86	H	0.046223	0.589657	-0.055150
H87	H	0.046148	0.589654	0.055278
H88	H	0.103747	0.731676	-0.055145
H89	H	0.103698	0.731694	0.055273
H90	H	0.188052	0.624043	0.055378
H91	H	0.188119	0.624047	-0.055051
H92	H	0.228508	0.707581	0.000178
H93	H	-0.536219	1.055065	0.156576
C94	C	0.002914	1.183477	0.242542
C95	C	0.052351	1.236744	0.307509
C96	C	0.108906	1.297626	0.257867
H97	H	-0.026954	1.220781	0.203648
H98	H	0.037623	1.151333	0.203702
H99	H	0.017646	1.268885	0.346333
H100	H	0.082237	1.199464	0.346405
H101	H	0.143615	1.265483	0.219026
H102	H	0.079031	1.334924	0.218974
H103	H	0.142461	1.333770	0.301939
H104	H	-0.012503	1.166935	0.436694
C105	C	0.002905	1.183506	0.549907
C106	C	0.052345	1.236780	0.614865
C107	C	0.108895	1.297660	0.565213
H108	H	-0.026967	1.220806	0.511012
H109	H	0.037612	1.151361	0.511067
H110	H	0.017642	1.268924	0.653689
H111	H	0.082235	1.199505	0.653762
H112	H	0.143602	1.265515	0.526373
H113	H	0.079016	1.334954	0.526320
H114	H	0.142452	1.333808	0.609279
C115	C	-0.232709	0.929835	0.757667
C116	C	-0.283707	0.977456	0.814839
C117	C	-0.340255	0.916765	0.864725
H118	H	-0.202835	0.892599	0.796637
H119	H	-0.266361	0.893605	0.713750
H120	H	-0.250058	1.013670	0.858751
H121	H	-0.313599	1.014688	0.775893
H122	H	-0.373907	0.880535	0.820808
H123	H	-0.310374	0.879533	0.903689
H124	H	-0.374869	0.949067	0.903515
C125	C	0.047211	0.337535	0.000139
C126	C	0.052568	0.284565	0.081576
C127	C	0.129055	0.248453	0.081740
H128	H	0.091664	0.384945	0.000194
H129	H	0.051002	0.301542	-0.055045
H130	H	0.048785	0.320556	0.136746
H131	H	0.008132	0.237141	0.081538
H132	H	0.132846	0.212460	0.026556
H133	H	0.173502	0.295868	0.081793
H134	H	0.132696	0.212502	0.136989
C135	C	0.002910	1.183349	0.757633
C136	C	0.053903	1.135735	0.814845
C137	C	0.110454	1.196432	0.864718
H138	H	-0.026961	1.220596	0.796575
H139	H	0.036566	1.219566	0.713708
H140	H	0.020251	1.099533	0.858765
H141	H	0.083792	1.098491	0.775927
H142	H	0.144110	1.232649	0.820793
H143	H	0.080576	1.233676	0.903654
H144	H	0.145064	1.164135	0.903535
H145	H	-0.217291	0.946185	0.563291
C146	C	-0.232473	0.929619	0.450366
C147	C	-0.188097	0.874908	0.507621
C148	C	-0.244396	0.814023	0.557598
H149	H	-0.266106	0.893292	0.406531
H150	H	-0.267124	0.961762	0.489281
H151	H	-0.153460	0.842767	0.468709
H152	H	-0.154467	0.911210	0.551474
H153	H	-0.279047	0.846166	0.596513
H154	H	-0.278026	0.777702	0.513756
H155	H	-0.214295	0.776900	0.596458
C156	C	-0.232693	0.929605	0.242559
C157	C	-0.282137	0.876348	0.307529
C158	C	-0.338683	0.815454	0.257892
H159	H	-0.202820	0.892295	0.203695
H160	H	-0.267400	0.961740	0.203688
H161	H	-0.247435	0.844215	0.346383
H162	H	-0.312029	0.913633	0.346395
H163	H	-0.373389	0.847590	0.219021
H164	H	-0.308803	0.778151	0.219029
H165	H	-0.372242	0.779318	0.301966
H166	H	0.023525	0.516692	-0.000013
H167	H	-0.248298	0.308687	-0.000019
