data_functionalizedCrystal
_audit_creation_method	'MofGen! by Chris Wilmer'
_symmetry_space_group_name_H-M	'P1'
_symmetry_Int_Tables_number	1
_symmetry_cell_setting	triclinic
loop_
_symmetry_equiv_pos_as_xyz
  x,y,z
_cell_length_a	17.699083
_cell_length_b	11.792241
_cell_length_c	16.776229
_cell_angle_alpha	89.993219
_cell_angle_beta	89.998886
_cell_angle_gamma	83.738215
loop_
_atom_site_label
_atom_site_type_symbol
_atom_site_fract_x
_atom_site_fract_y
_atom_site_fract_z
O1	O	1.004843	0.143527	-0.066177
O2	O	0.784565	0.162200	-0.066203
O3	O	0.900050	-0.012371	-0.066184
O4	O	0.889358	0.318098	-0.066196
O5	O	0.900034	-0.012382	0.066393
O6	O	0.784549	0.162189	0.066374
O7	O	1.004828	0.143516	0.066400
Zn8	Zn	0.894686	0.152851	0.087436
Zn9	Zn	0.894706	0.152865	-0.087239
O10	O	0.889343	0.318087	0.066381
C11	C	0.756356	0.161525	0.000082
C12	C	0.672328	0.159518	0.000072
C13	C	0.899370	-0.054660	0.000104
C14	C	0.897360	-0.180649	0.000103
C15	C	0.624253	0.261988	0.000069
C16	C	0.545299	0.260095	0.000079
C17	C	0.514422	0.155731	0.000087
C18	C	0.562503	0.053254	0.000093
C19	C	0.641455	0.055148	0.000089
C20	C	0.244099	0.045613	0.000113
C21	C	0.165141	0.043727	0.000116
C22	C	0.147944	0.250560	0.000104
C23	C	0.226896	0.252454	0.000099
C24	C	0.274970	0.149977	0.000109
C25	C	0.360580	0.152031	0.000099
C26	C	0.428814	0.153676	0.000091
C27	C	0.893664	-0.411317	0.000090
C28	C	0.895718	-0.282956	0.000097
C29	C	1.033036	0.144190	0.000113
C30	C	1.117065	0.146198	0.000118
C31	C	0.890022	0.360375	0.000091
C32	C	0.892032	0.486365	0.000087
N33	N	0.894678	0.152841	0.206647
N34	N	0.894721	0.152866	-0.206450
C35	C	0.945830	0.075572	0.248373
C36	C	0.945834	0.075571	0.331825
C37	C	0.894689	0.152845	0.373550
C38	C	0.843531	0.230117	0.331819
C39	C	0.843524	0.230112	0.248368
C40	C	0.843559	0.230139	0.668366
C41	C	0.843571	0.230141	0.751822
C42	C	0.945869	0.075599	0.751823
C43	C	0.945862	0.075593	0.668372
C44	C	0.894702	0.152861	0.626648
C45	C	0.894697	0.152860	0.536160
C46	C	0.894697	0.152853	0.464037
H47	H	0.506159	0.343536	0.000075
H48	H	0.108792	0.334002	0.000100
H49	H	0.537357	-0.031721	0.000112
N50	N	0.133588	-0.062874	0.000142
N51	N	0.063094	-0.064543	0.000147
H52	H	0.040807	-0.139825	0.000166
N53	N	0.293188	-0.059071	0.000120
N54	N	0.265606	-0.152242	0.000123
H55	H	0.300277	-0.226181	0.000126
N56	N	0.791275	0.309059	0.205756
N57	N	0.792739	0.413964	0.215065
H58	H	0.755835	0.469722	0.184971
N59	N	0.690554	-0.049533	0.000101
N60	N	0.662978	-0.142709	0.000112
H61	H	0.697653	-0.216644	0.000126
H62	H	0.987486	0.012653	0.365798
N63	N	0.998040	-0.003431	0.205768
N64	N	1.043676	-0.072461	0.243037
H65	H	1.080533	-0.128288	0.212950
N66	N	0.791283	0.309061	0.374425
N67	N	0.745613	0.378043	0.337157
H68	H	0.708710	0.433800	0.367245
H69	H	0.987525	0.012680	0.785804
N70	N	0.655777	0.368605	0.000053
N71	N	0.612840	0.460087	0.000051
H72	H	0.635101	0.535390	0.000042
N73	N	0.998121	-0.003332	0.625765
N74	N	1.043793	-0.072314	0.663030
H75	H	1.080704	-0.128057	0.632940
N76	N	0.791320	0.309087	0.794433
N77	N	0.745645	0.378069	0.757171
H78	H	0.708744	0.433823	0.787264
N79	N	0.791304	0.309087	0.625769
N80	N	0.792771	0.413991	0.635085
H81	H	0.755864	0.469755	0.605001
N82	N	0.258422	0.359069	0.000083
N83	N	0.215489	0.450554	0.000080
H84	H	0.237752	0.525855	0.000070
