data_functionalizedCrystal
_audit_creation_method	'MofGen! by Chris Wilmer'
_symmetry_space_group_name_H-M	'P1'
_symmetry_Int_Tables_number	1
_symmetry_cell_setting	triclinic
loop_
_symmetry_equiv_pos_as_xyz
  x,y,z
_cell_length_a	12.759400
_cell_length_b	12.759401
_cell_length_c	12.759393
_cell_angle_alpha	89.980441
_cell_angle_beta	90.031564
_cell_angle_gamma	89.987166
loop_
_atom_site_label
_atom_site_type_symbol
_atom_site_fract_x
_atom_site_fract_y
_atom_site_fract_z
Zn1	Zn	-0.418256	-1.606255	0.594011
Zn2	Zn	-0.593975	-1.606150	0.418331
Zn3	Zn	-0.418305	-1.430557	0.418347
Zn4	Zn	-0.593888	-1.430546	0.593969
O5	O	-0.506106	-1.518377	0.506165
O6	O	-0.441582	-1.753262	0.570718
O7	O	-0.570729	-1.582818	0.271312
O8	O	-0.271278	-1.453913	0.441674
O9	O	-0.570682	-1.753185	0.441646
O10	O	-0.271242	-1.582998	0.570733
O11	O	-0.441665	-1.453811	0.271324
O12	O	-0.441581	-1.283535	0.441633
O13	O	-0.570533	-1.453894	0.740996
O14	O	-0.570581	-1.283527	0.570662
O15	O	-0.441497	-1.582987	0.741027
O16	O	-0.740985	-1.582807	0.441606
O17	O	-0.740921	-1.453791	0.570647
C18	C	-0.506077	-1.245410	0.506145
C19	C	-0.506090	-1.128633	0.506162
C20	C	-0.573366	-1.073794	0.573235
C21	C	-0.573375	-0.964070	0.573245
C22	C	-0.438830	-0.964034	0.439099
C23	C	-0.438816	-1.073756	0.439095
C24	C	-0.651048	-1.073815	0.650680
C25	C	-0.651058	-0.964091	0.650690
C26	C	-0.779073	-1.518315	0.506143
C27	C	-0.895850	-1.518384	0.506169
C28	C	-0.950710	-1.585637	0.439051
C29	C	-1.060435	-1.585702	0.439084
C30	C	-1.060428	-1.451252	0.573354
C31	C	-0.950706	-1.451193	0.573326
C32	C	-0.950715	-1.663258	0.361529
C33	C	-1.060439	-1.663322	0.361561
C34	C	-0.232073	-1.518468	0.506210
C35	C	-0.115296	-1.518507	0.506229
C36	C	-0.506000	-1.518451	0.780198
C37	C	-0.505955	-1.518482	0.896975
C38	C	-0.506127	-0.792410	0.506180
C39	C	-0.506113	-0.909187	0.506175
C40	C	-0.506136	-1.518364	0.233197
C41	C	-0.505885	-1.518537	0.116421
C42	C	-0.438759	-1.585710	0.951855
C43	C	-0.438722	-1.585735	1.061579
C44	C	-0.573083	-1.451301	1.061534
C45	C	-0.573115	-1.451272	0.951812
C46	C	-0.361190	-1.663328	0.951881
C47	C	-0.361152	-1.663353	1.061606
H48	H	-0.622012	-0.930093	0.728041
H49	H	-0.384027	-1.118401	0.384485
C50	C	-0.823841	-1.037997	0.585203
C51	C	-0.755336	-1.119744	0.611157
H52	H	-0.888225	-1.066355	0.560807
H53	H	-0.793374	-0.996087	0.531762
H54	H	-0.836397	-0.996119	0.645446
H55	H	-0.742774	-1.161617	0.550912
H56	H	-0.785809	-1.161671	0.664602
C57	C	-0.632813	-1.391525	0.783598
C58	C	-0.646969	-1.377364	0.891485
H59	H	-0.678405	-1.345889	0.746357
H60	H	-0.648215	-1.462094	0.765622
H61	H	-0.562221	-1.376176	0.765645
H62	H	-0.717560	-1.392721	0.909439
H63	H	-0.631574	-1.306779	0.909468
C64	C	-0.275184	-1.535234	1.169312
C65	C	-0.256788	-1.624051	1.107570
H66	H	-0.210756	-1.510963	1.197681
H67	H	-0.321652	-1.552767	1.224740
H68	H	-0.305607	-1.481729	1.127380
H69	H	-0.226372	-1.677558	1.149505
H70	H	-0.210303	-1.606521	1.052135
C71	C	-0.379118	-0.795820	0.379532
C72	C	-0.364898	-0.903708	0.365368
H73	H	-0.333480	-0.758582	0.334004
H74	H	-0.363818	-0.777871	0.450139
H75	H	-0.449697	-0.777838	0.364038
H76	H	-0.294320	-0.921692	0.380869
H77	H	-0.380190	-0.921664	0.294745
H78	H	-0.629350	-1.103623	0.732088
H79	H	-0.627761	-1.396579	1.106195
C80	C	-0.408484	-1.839783	1.016461
C81	C	-0.390587	-1.773191	1.101818
H82	H	-0.426662	-1.907586	1.041289
H83	H	-0.346759	-1.844226	0.975123
H84	H	-0.464182	-1.812704	0.975094
H85	H	-0.334883	-1.800266	1.143182
H86	H	-0.452319	-1.768751	1.143174
H87	H	-0.906040	-1.396440	0.627987
C88	C	-0.224564	-1.534007	0.948277
C89	C	-0.251359	-1.633930	0.911698
H90	H	-0.156764	-1.515857	0.923462
H91	H	-0.224541	-1.534034	1.022718
H92	H	-0.274209	-1.484361	0.923441
H93	H	-0.201718	-1.683578	0.936541
H94	H	-0.251374	-1.633912	0.837242
H95	H	-0.732406	-0.934295	0.628757
H96	H	-0.390361	-1.740599	0.917847
H97	H	-0.920860	-1.744601	0.383382
C98	C	-1.228622	-1.391644	0.633018
C99	C	-1.120730	-1.377391	0.647164
H100	H	-1.265846	-1.346038	0.678582
H101	H	-1.246529	-1.462228	0.648462
H102	H	-1.246664	-1.376313	0.562416
H103	H	-1.102686	-1.392730	0.717764
H104	H	-1.102815	-1.306791	0.631727
H105	H	-0.916767	-1.634133	0.284202
H106	H	-1.094386	-1.740626	0.390774
H107	H	-1.090301	-1.641585	0.280180
