data_functionalizedCrystal
_audit_creation_method	'MofGen! by Chris Wilmer'
_symmetry_space_group_name_H-M	'P1'
_symmetry_Int_Tables_number	1
_symmetry_cell_setting	triclinic
loop_
_symmetry_equiv_pos_as_xyz
  x,y,z
_cell_length_a	17.639617
_cell_length_b	12.759399
_cell_length_c	12.759393
_cell_angle_alpha	89.969069
_cell_angle_beta	78.758969
_cell_angle_gamma	101.200819
loop_
_atom_site_label
_atom_site_type_symbol
_atom_site_fract_x
_atom_site_fract_y
_atom_site_fract_z
Zn1	Zn	1.208544	-0.093915	-0.919366
Zn2	Zn	1.208466	-0.269652	-0.743664
Zn3	Zn	1.076350	-0.129439	-0.708114
Zn4	Zn	1.076338	-0.305029	-0.883731
O5	O	1.142425	-0.199509	-0.813719
O6	O	1.319153	-0.087555	-0.925850
O7	O	1.190913	-0.251114	-0.591919
O8	O	1.093924	0.022304	-0.736172
O9	O	1.319096	-0.216668	-0.796762
O10	O	1.191046	0.048403	-0.891378
O11	O	1.093848	-0.148101	-0.565801
O12	O	0.965729	-0.182404	-0.701618
O13	O	1.093903	-0.276963	-1.035487
O14	O	0.965720	-0.311409	-0.830644
O15	O	1.191034	-0.121859	-1.061667
O16	O	1.190901	-0.421376	-0.762209
O17	O	1.093828	-0.447367	-0.865116
C18	C	0.937043	-0.254601	-0.758407
C19	C	0.849179	-0.278195	-0.734770
C20	C	1.142376	-0.472489	-0.813682
C21	C	1.142428	-0.589252	-0.813720
C22	C	1.193032	-0.630530	-0.760229
C23	C	1.193083	-0.740240	-0.760278
C24	C	1.091919	-0.767387	-0.867311
C25	C	1.091872	-0.657678	-0.867268
C26	C	1.286388	-0.865082	-0.748009
C27	C	1.336985	-0.906365	-0.694499
C28	C	1.349149	-0.867561	-0.595263
C29	C	1.310705	-0.787478	-0.549513
C30	C	1.260102	-0.746202	-0.603016
C31	C	1.247953	-0.785000	-0.702271
C32	C	0.998565	-0.532835	-0.879526
C33	C	0.947958	-0.491558	-0.933023
C34	C	0.935786	-0.530362	-1.032258
C35	C	0.974217	-0.610452	-1.078000
C36	C	1.024824	-0.651729	-1.024503
C37	C	1.036997	-0.612917	-0.925269
C38	C	0.560328	-0.020246	-0.993550
C39	C	0.477767	-0.042443	-0.971318
C40	C	0.477729	-0.176665	-0.836705
C41	C	0.560292	-0.154483	-0.858930
C42	C	0.601585	-0.076272	-0.937352
C43	C	0.601549	-0.210509	-0.802732
C44	C	0.684104	-0.188325	-0.824951
C45	C	0.725403	-0.110116	-0.903368
C46	C	0.684140	-0.054088	-0.959572
C47	C	0.560254	-0.288715	-0.724305
C48	C	0.601511	-0.344741	-0.668107
C49	C	0.684068	-0.322563	-0.690331
C50	C	0.725367	-0.244353	-0.768748
C51	C	0.725331	-0.378590	-0.634128
C52	C	0.807886	-0.356406	-0.656347
C53	C	0.807922	-0.222169	-0.790967
C54	C	1.348609	-0.144203	-0.869246
C55	C	1.436472	-0.120634	-0.892909
C56	C	1.142476	-0.199394	-1.087766
C57	C	1.142498	-0.199345	-1.204548
C58	C	1.142495	0.074543	-0.813784
C59	C	1.142525	0.191328	-0.813812
C60	C	1.091939	-0.280072	-1.245784
C61	C	1.091967	-0.280026	-1.355516
C62	C	1.193115	-0.118516	-1.382767
C63	C	1.193090	-0.118568	-1.273038
C64	C	1.063723	-0.411445	-1.497846
C65	C	1.013152	-0.492165	-1.539082
C66	C	0.936007	-0.529002	-1.482699
C67	C	0.909418	-0.485106	-1.385076
C68	C	0.959985	-0.404378	-1.343845
C69	C	1.037141	-0.367559	-1.400230
C70	C	1.221326	0.012851	-1.130704
C71	C	1.271890	0.093583	-1.089469
C72	C	1.349036	0.130431	-1.145851
C73	C	1.375622	0.086553	-1.243476
C74	C	1.325058	0.005820	-1.284711
C75	C	1.247913	-0.031029	-1.228322
C76	C	1.142419	-0.199535	-0.540750
C77	C	1.142551	-0.199247	-0.424009
H78	H	1.234198	-0.574819	-0.716629
H79	H	0.964306	-0.642047	-1.158806
F80	F	1.273456	-0.906374	-0.853637
H81	H	0.841479	-0.402028	-0.610586
F82	F	1.038115	-0.840219	-0.924294
H83	H	1.390348	-0.901181	-0.551696
H84	H	0.841545	-0.158485	-0.854831
F85	F	1.377899	-0.991593	-0.743191
F86	F	0.882186	-0.614910	-1.526591
F87	F	0.728091	0.029146	-1.043046
F88	F	0.557556	-0.427973	-0.584644
F89	F	0.433861	0.017199	-1.031133
H90	H	0.593951	0.043437	-1.057413
F91	F	0.813267	-0.086498	-0.927009
H92	H	0.691698	-0.442262	-0.570269
H93	H	1.050738	-0.345842	-1.190021
F94	F	1.246955	-0.032549	-1.455666
H95	H	0.444097	-0.240341	-0.772850
H96	H	1.126543	-0.381467	-1.543757
F97	F	1.065726	-0.736969	-1.073189
H98	H	0.938336	-0.368636	-1.264364
H99	H	0.493032	-0.306751	-0.706193
H100	H	1.346710	-0.029902	-1.364207
H101	H	0.894574	-0.496747	-1.075812
H102	H	1.228802	-0.680998	-0.565769
F103	F	0.827305	-0.524304	-1.325082
H104	H	0.916670	-0.426338	-0.895774
H105	H	1.034808	-0.527903	-1.618569
H106	H	1.008478	-0.501225	-0.798723
H107	H	1.438439	0.116562	-1.289389
H108	H	1.158508	-0.017151	-1.084784
H109	H	1.250234	0.129317	-1.009981
F110	F	1.323646	-0.746195	-0.443886
F111	F	1.402847	0.216361	-1.101964
