data_functionalizedCrystal
_audit_creation_method	'MofGen! by Chris Wilmer'
_symmetry_space_group_name_H-M	'P1'
_symmetry_Int_Tables_number	1
_symmetry_cell_setting	triclinic
loop_
_symmetry_equiv_pos_as_xyz
  x,y,z
_cell_length_a	12.759401
_cell_length_b	15.299816
_cell_length_c	15.298025
_cell_angle_alpha	91.618140
_cell_angle_beta	99.681260
_cell_angle_gamma	80.350473
loop_
_atom_site_label
_atom_site_type_symbol
_atom_site_fract_x
_atom_site_fract_y
_atom_site_fract_z
Zn1	Zn	1.771079	-0.263084	0.555625
Zn2	Zn	1.781178	-0.434834	0.434517
Zn3	Zn	1.571000	-0.288413	0.409171
Zn4	Zn	1.629947	-0.409486	0.580950
O5	O	1.688301	-0.348954	0.495066
O6	O	1.919443	-0.285875	0.539568
O7	O	1.732854	-0.436618	0.308580
O8	O	1.568644	-0.162506	0.407392
O9	O	1.926862	-0.412059	0.450590
O10	O	1.715642	-0.143897	0.514991
O11	O	1.578437	-0.329044	0.289959
O12	O	1.431795	-0.304466	0.431950
O13	O	1.669112	-0.368858	0.700165
O14	O	1.475104	-0.393418	0.558155
O15	O	1.772801	-0.261297	0.681559
O16	O	1.790013	-0.554019	0.475147
O17	O	1.678905	-0.535396	0.582732
C18	C	1.415328	-0.348940	0.495051
C19	C	1.298557	-0.348952	0.495069
C20	C	1.266279	-0.395375	0.560707
C21	C	1.156559	-0.395384	0.560719
C22	C	1.111403	-0.302546	0.429446
C23	C	1.221121	-0.302532	0.429439
C24	C	1.343715	-0.441794	0.626337
C25	C	1.311439	-0.488222	0.691980
C26	C	1.201719	-0.488231	0.691992
C27	C	1.124275	-0.441813	0.626360
C28	C	1.741983	-0.576479	0.534457
C29	C	1.765049	-0.673810	0.551338
C30	C	1.524180	-0.987245	0.374711
C31	C	1.502503	-0.895797	0.358853
C32	C	1.568138	-0.840296	0.406973
C33	C	1.655453	-0.876252	0.470954
C34	C	1.677127	-0.967708	0.486819
C35	C	1.721085	-0.820759	0.519080
C36	C	1.808400	-0.856714	0.583062
C37	C	1.830071	-0.948161	0.598923
C38	C	1.764436	-1.003662	0.550804
C39	C	1.699411	-0.729303	0.503215
C40	C	1.852358	-0.709765	0.615323
C41	C	1.874035	-0.801213	0.631181
C42	C	1.962340	-0.348969	0.495081
C43	C	2.079119	-0.348975	0.495088
C44	C	1.726406	-0.309425	0.723533
C45	C	1.742643	-0.292580	0.820892
C46	C	1.634441	-0.120538	0.455540
C47	C	1.611489	-0.023200	0.438696
C48	C	1.572478	-0.469104	1.134081
C49	C	1.557210	-0.484926	1.042607
C50	C	1.603567	-0.436841	0.987174
C51	C	1.665194	-0.372931	1.023224
C52	C	1.680457	-0.357102	1.114706
C53	C	1.711546	-0.324839	0.967799
C54	C	1.773173	-0.260929	1.003849
C55	C	1.788433	-0.245104	1.095323
C56	C	1.742076	-0.293189	1.150756
C57	C	1.696284	-0.340668	0.876316
C58	C	1.804263	-0.228666	0.856941
C59	C	1.819531	-0.212844	0.948416
C60	C	1.650340	-0.388348	1.267490
C61	C	1.634097	-0.405190	1.170131
H62	H	1.175443	-0.526028	0.745446
N63	N	1.462057	-0.441787	0.626335
H64	H	1.477019	-0.378935	0.632141
H65	H	1.482148	-0.468225	0.568980
H66	H	1.754508	-0.280313	1.225243
H67	H	1.550484	-0.765836	0.394056
H68	H	1.507043	-0.536969	1.013263
N69	N	1.885993	-0.143909	0.987295
H70	H	1.949403	-0.172936	1.031409
H71	H	1.839980	-0.096776	1.018177
N72	N	1.854879	-0.176154	1.134192
H73	H	1.930499	-0.192508	1.120629
H74	H	1.857429	-0.173442	1.200542
H75	H	1.034935	-0.441816	0.626381
H76	H	1.534736	-0.508245	1.179222
N77	N	1.453401	-1.047105	0.322813
H78	H	1.376821	-1.028897	0.333611
H79	H	1.480475	-1.110472	0.342601
H80	H	1.431411	-0.866526	0.306761
N81	N	1.629810	-0.409592	0.837449
H82	H	1.663530	-0.469410	0.864198
H83	H	1.627181	-0.412252	0.771090
H84	H	1.374500	-0.526007	0.745419
N85	N	1.787807	-1.102300	0.567899
H86	H	1.723624	-1.121595	0.587772
H87	H	1.853103	-1.116597	0.615715
H88	H	1.591134	-0.449729	0.912692
H89	H	1.628318	-0.700036	0.451121
N90	N	1.854272	-0.176800	0.797165
H91	H	1.835258	-0.196528	0.733745
H92	H	1.935188	-0.187673	0.815519
H93	H	1.945128	-0.830501	0.683276
N94	N	1.027883	-0.252503	0.358649
H95	H	0.953480	-0.259564	0.368608
H96	H	1.039826	-0.276874	0.298418
H97	H	1.905802	-0.664576	0.654508
H98	H	1.247400	-0.264723	0.375996
H99	H	1.901165	-0.977432	0.651025
