data_functionalizedCrystal
_audit_creation_method	'MofGen! by Chris Wilmer'
_symmetry_space_group_name_H-M	'P1'
_symmetry_Int_Tables_number	1
_symmetry_cell_setting	triclinic
loop_
_symmetry_equiv_pos_as_xyz
  x,y,z
_cell_length_a	19.188930
_cell_length_b	16.109302
_cell_length_c	15.186229
_cell_angle_alpha	90.005299
_cell_angle_beta	90.008857
_cell_angle_gamma	83.303281
loop_
_atom_site_label
_atom_site_type_symbol
_atom_site_fract_x
_atom_site_fract_y
_atom_site_fract_z
O1	O	0.089746	1.102833	0.073278
O2	O	0.100914	0.860734	0.073273
O3	O	-0.006309	0.988770	0.073258
O4	O	0.196970	0.974797	0.073292
O5	O	-0.006310	0.988761	-0.073199
O6	O	0.100913	0.860725	-0.073185
O7	O	0.089745	1.102824	-0.073179
Zn8	Zn	0.095329	0.981774	-0.096435
Zn9	Zn	0.095331	0.981785	0.096529
O10	O	0.196968	0.974788	-0.073165
C11	C	0.100461	0.829756	0.000043
C12	C	0.099105	0.737466	0.000040
C13	C	0.095967	0.525130	-0.079786
C14	C	0.094685	0.438415	-0.079783
C15	C	0.094690	0.438434	0.079893
C16	C	0.095967	0.525149	0.079889
C17	C	0.096609	0.568495	0.000047
C18	C	0.094050	0.395064	0.000054
C19	C	0.092660	0.301043	0.000058
C20	C	0.097998	0.662522	0.000043
C21	C	-0.032322	0.988313	0.000027
C22	C	-0.109829	0.986955	0.000020
C23	C	-0.154578	1.062082	0.000017
C24	C	-0.227404	1.060806	0.000031
C25	C	-0.255480	0.984398	0.000030
C26	C	-0.210722	0.909261	0.000037
C27	C	-0.137897	0.910539	0.000032
N28	N	-0.363622	0.925991	-0.049814
N29	N	-0.432803	0.924782	-0.049810
C30	C	-0.474897	0.980542	0.000048
N31	N	-0.445198	1.037571	0.049892
N32	N	-0.376011	1.038782	0.049885
C33	C	-0.334446	0.983004	0.000036
C34	C	-0.598613	1.054291	0.000062
C35	C	-0.671441	1.053012	0.000081
C36	C	-0.654757	0.901465	0.000079
C37	C	-0.581931	0.902746	0.000068
C38	C	-0.553864	0.979162	0.000055
C39	C	0.222981	0.975245	0.000068
C40	C	0.300489	0.976604	0.000082
C41	C	0.090198	1.133802	0.000052
C42	C	0.091555	1.226093	0.000061
N43	N	0.095327	0.981772	-0.228128
C44	C	0.047864	1.038485	-0.453857
C45	C	0.047863	1.038488	-0.546047
C46	C	0.142792	0.925073	-0.546043
C47	C	0.142789	0.925068	-0.453855
C48	C	0.095327	0.981778	-0.407764
C49	C	0.095327	0.981787	-0.592142
C50	C	0.095326	0.981789	-0.692098
C51	C	0.095327	0.981775	-0.307802
N52	N	0.095327	0.981793	0.228221
H53	H	0.096488	0.560458	0.144903
C54	C	0.093987	0.390717	-0.167605
N55	N	0.093463	0.354791	-0.233757
C56	C	0.096665	0.572808	-0.167614
N57	N	0.097187	0.608718	-0.233769
H58	H	0.094168	0.403132	0.144897
C59	C	-0.004352	1.100862	-0.403160
N60	N	-0.043685	1.147844	-0.364978
H61	H	0.181439	0.878886	-0.416324
H62	H	0.009214	1.084663	-0.583573
H63	H	-0.677615	0.839252	0.000082
H64	H	-0.131731	1.124305	0.000010
C65	C	-0.276637	1.143455	0.000023
N66	N	-0.313716	1.205707	0.000014
H67	H	-0.545495	0.841569	0.000065
C68	C	0.194997	0.862694	-0.596751
N69	N	0.234318	0.815707	-0.634944
C70	C	-0.720665	1.135663	0.000074
N71	N	-0.757741	1.197917	0.000064
H72	H	-0.233585	0.847049	0.000038
C73	C	-0.088671	0.827890	0.000032
N74	N	-0.051594	0.765637	0.000031
C75	C	-0.567737	1.138349	0.000061
N76	N	-0.544483	1.201662	0.000064
