data_functionalizedCrystal
_audit_creation_method	'MofGen! by Chris Wilmer'
_symmetry_space_group_name_H-M	'P1'
_symmetry_Int_Tables_number	1
_symmetry_cell_setting	triclinic
loop_
_symmetry_equiv_pos_as_xyz
  x,y,z
_cell_length_a	16.109301
_cell_length_b	9.482944
_cell_length_c	16.109301
_cell_angle_alpha	79.569783
_cell_angle_beta	96.538519
_cell_angle_gamma	100.473153
loop_
_atom_site_label
_atom_site_type_symbol
_atom_site_fract_x
_atom_site_fract_y
_atom_site_fract_z
O1	O	1.114742	0.120809	-0.118412
O2	O	0.872682	0.120833	-0.131714
O3	O	1.000360	0.120805	-0.004031
O4	O	0.987064	0.120836	-0.246096
O5	O	0.977112	-0.120987	0.019080
O6	O	0.849434	-0.120960	-0.108603
O7	O	1.091494	-0.120984	-0.095301
Cu8	Cu	0.968341	-0.143050	-0.099842
Cu9	Cu	0.995835	0.142898	-0.127173
O10	O	0.963816	-0.120956	-0.222985
C11	C	0.830084	-0.000061	-0.119620
C12	C	0.737789	-0.000052	-0.118006
C13	C	0.515516	-0.000060	-0.190013
C14	C	0.428795	-0.000069	-0.188488
C15	C	0.448668	-0.000083	-0.036998
C16	C	0.535386	-0.000084	-0.038522
C17	C	0.568809	-0.000065	-0.115033
C18	C	0.395369	-0.000073	-0.111983
C19	C	0.301342	-0.000084	-0.110329
C20	C	0.662841	-0.000057	-0.116687
N21	N	0.949010	-0.344170	-0.080618
C22	C	0.990127	-0.416369	-0.121503
C23	C	0.974050	-0.583786	-0.105500
C24	C	1.134093	-0.000087	-0.107396
C25	C	1.226388	-0.000086	-0.109011
C26	C	0.988198	-0.000092	0.038500
C27	C	0.986582	-0.000094	0.130795
N28	N	1.015173	0.344019	-0.146391
C29	C	0.975979	-0.000056	-0.265515
C30	C	0.977595	-0.000045	-0.357812
C31	C	1.058591	-0.000078	0.353066
C32	C	1.057069	-0.000065	0.439785
C33	C	0.905581	-0.000056	0.419910
C34	C	0.907105	-0.000058	0.333192
C35	C	0.983613	-0.000076	0.299773
C36	C	0.980565	-0.000062	0.473211
C37	C	0.978913	-0.000049	0.567235
C38	C	0.985265	-0.000086	0.205742
H39	H	0.421444	-0.000107	0.025296
H40	H	0.926944	-0.645913	-0.058645
H41	H	0.901907	-0.406302	-0.033766
H42	H	1.120889	-0.000089	0.325860
Cl43	Cl	0.602387	-0.000102	0.055747
H44	H	1.062283	-0.593857	-0.193242
H45	H	0.843291	-0.000045	0.447131
H46	H	1.118124	-0.000064	0.483174
H47	H	1.037235	-0.354237	-0.168349
H48	H	0.846045	-0.000052	0.289797
H49	H	0.385406	-0.000068	-0.249543
Cl50	Cl	0.557529	-0.000045	-0.286196
