data_functionalizedCrystal
_audit_creation_method	'MofGen! by Chris Wilmer'
_symmetry_space_group_name_H-M	'P1'
_symmetry_Int_Tables_number	1
_symmetry_cell_setting	triclinic
loop_
_symmetry_equiv_pos_as_xyz
  x,y,z
_cell_length_a	14.908571
_cell_length_b	25.639239
_cell_length_c	14.908308
_cell_angle_alpha	86.737723
_cell_angle_beta	89.824947
_cell_angle_gamma	86.734636
loop_
_atom_site_label
_atom_site_type_symbol
_atom_site_fract_x
_atom_site_fract_y
_atom_site_fract_z
Zn1	Zn	1.345148	-0.272845	0.587542
Zn2	Zn	1.353683	-0.355542	0.437170
Zn3	Zn	1.203468	-0.262803	0.428541
Zn4	Zn	1.194711	-0.354921	0.578822
O5	O	1.274253	-0.311528	0.508019
O6	O	1.472104	-0.288277	0.574855
O7	O	1.340994	-0.339297	0.310201
O8	O	1.222355	-0.190974	0.449671
O9	O	1.478375	-0.349035	0.464378
O10	O	1.326446	-0.198352	0.566488
O11	O	1.230632	-0.271162	0.303862
O12	O	1.076483	-0.270560	0.441216
O13	O	1.207430	-0.347976	0.705803
O14	O	1.070049	-0.338239	0.551626
O15	O	1.317955	-0.287675	0.712209
O16	O	1.332503	-0.428620	0.455922
O17	O	1.215707	-0.428164	0.559993
C18	C	1.040642	-0.303242	0.494539
C19	C	0.940701	-0.299711	0.488793
C20	C	0.746258	-0.363649	0.592813
C21	C	0.652355	-0.360332	0.587418
C22	C	0.658987	-0.289761	0.472613
C23	C	0.752891	-0.293077	0.478008
C24	C	0.796523	-0.330022	0.538109
C25	C	0.890429	-0.333341	0.543499
C26	C	0.897060	-0.262767	0.428700
C27	C	0.803156	-0.259451	0.423304
C28	C	1.274104	-0.447364	0.507969
C29	C	1.274121	-0.505479	0.507982
C30	C	1.335213	-0.866081	0.453936
C31	C	1.335247	-0.920687	0.453950
O32	O	1.387035	-0.949120	0.407943
N33	N	1.274407	-0.947774	0.508087
C34	C	1.213536	-0.920253	0.562222
O35	O	1.161791	-0.948307	0.608272
C36	C	1.213506	-0.865649	0.562212
C37	C	1.274344	-0.838564	0.508064
C38	C	1.396046	-0.838996	0.399793
C39	C	1.396010	-0.784393	0.399778
C40	C	1.335142	-0.756876	0.453906
C41	C	1.274309	-0.783961	0.508048
C42	C	1.152640	-0.838129	0.616350
C43	C	1.152616	-0.783521	0.616336
C44	C	1.213454	-0.756436	0.562188
C45	C	1.213404	-0.701842	0.562161
N46	N	1.274244	-0.674754	0.508024
C47	C	1.335113	-0.702272	0.453896
C48	C	1.213603	-1.034927	0.562239
C49	C	1.213627	-1.089530	0.562245
C50	C	1.335339	-1.089960	0.453974
C51	C	1.335310	-1.035355	0.453964
C52	C	1.274442	-1.007839	0.508102
C53	C	1.335033	-0.587603	0.453867
C54	C	1.334989	-0.532996	0.453854
C55	C	1.213280	-0.532571	0.562128
C56	C	1.213320	-0.587173	0.562138
C57	C	1.274204	-0.614688	0.508005
O58	O	1.161645	-0.673375	0.608147
O59	O	1.386857	-0.674211	0.407862
C60	C	1.508776	-0.319846	0.521552
C61	C	1.608716	-0.323390	0.527319
C62	C	1.260764	-0.318877	0.742543
C63	C	1.255015	-0.322008	0.842483
C64	C	1.274426	-0.175163	0.508090
C65	C	1.274499	-0.117052	0.508120
C66	C	1.287741	-0.304171	0.274410
C67	C	1.293664	-0.300899	0.174480
C68	C	1.359301	-0.265089	1.036954
C69	C	1.353903	-0.268030	1.130857
C70	C	1.238817	-0.330827	1.124193
C71	C	1.244215	-0.327887	1.030291
C72	C	1.304460	-0.295017	0.986674
C73	C	1.309862	-0.292079	0.892770
C74	C	1.194772	-0.354874	0.886108
C75	C	1.189374	-0.357814	0.980011
H76	H	0.925953	-0.363425	0.592435
C77	C	0.819145	-0.190028	0.310366
C78	C	0.755191	-0.218842	0.357243
H79	H	0.789533	-0.164956	0.269584
H80	H	0.857720	-0.212992	0.278009
H81	H	0.853544	-0.172587	0.351715
H82	H	0.720796	-0.236286	0.315894
H83	H	0.716600	-0.195874	0.389601
H84	H	1.384531	-0.510945	0.409757
H85	H	0.781785	-0.393734	0.641745
C86	C	1.035429	-0.378795	1.000131
C87	C	1.123156	-0.393944	1.027959
H88	H	0.994550	-0.401100	1.029736
H89	H	1.030803	-0.381330	0.937018
H90	H	1.021433	-0.343683	1.014782
H91	H	1.137154	-0.429055	1.013301
H92	H	1.127785	-0.391414	1.091086
C93	C	1.490169	-1.110675	0.419135
C94	C	1.402290	-1.120192	0.394484
H95	H	1.531506	-1.129332	0.382406
H96	H	1.499787	-1.121966	0.480309
H97	H	1.498815	-1.074273	0.411391
H98	H	1.393641	-1.156594	0.402234
H99	H	1.392668	-1.108903	0.333294
C100	C	1.151943	-0.378252	0.739204
C101	C	1.134485	-0.387773	0.830837
H102	H	1.114723	-0.398562	0.705085
H103	H	1.213225	-0.387563	0.727303
H104	H	1.139707	-0.342176	0.723078
H105	H	1.146728	-0.423849	0.846965
H106	H	1.073189	-0.378465	0.842744
H107	H	1.358918	-0.265316	0.857259
C108	C	0.655235	-0.430422	0.701437
C109	C	0.597103	-0.397296	0.647549
H110	H	0.621123	-0.453244	0.738558
H111	H	0.689905	-0.410046	0.738001
H112	H	0.694092	-0.450450	0.664295
H113	H	0.558249	-0.377265	0.684690
H114	H	0.562417	-0.417675	0.610981
H115	H	1.164079	-1.111578	0.606329
C116	C	0.517976	-0.253316	0.413429
C117	C	0.611014	-0.249133	0.406590
H118	H	0.488361	-0.228231	0.372674
H119	H	0.499162	-0.247087	0.472990
H120	H	0.503309	-0.287468	0.399244
H121	H	0.625682	-0.214983	0.420781
H122	H	0.629835	-0.255358	0.347016
H123	H	1.408359	-0.238328	1.001442
H124	H	1.189768	-0.357588	1.159722
C125	C	1.468206	-0.205666	1.128008
C126	C	1.414189	-0.235135	1.186126
H127	H	1.505428	-0.185360	1.162131
H128	H	1.431159	-0.183134	1.089136
H129	H	1.504675	-0.228522	1.093353
H130	H	1.377715	-0.212279	1.220777
H131	H	1.451240	-0.257670	1.225014
H132	H	0.937996	-0.235387	0.384154
H133	H	1.384612	-0.609999	0.409789
C134	C	1.516330	-0.790321	0.292776
C135	C	1.462898	-0.754627	0.340270
H136	H	1.557632	-0.771946	0.256045
H137	H	1.479175	-0.809179	0.256094
H138	H	1.548433	-0.814039	0.333984
H139	H	1.430790	-0.730911	0.299062
H140	H	1.500059	-0.735760	0.376955
C141	C	1.517825	-0.904183	0.394453
C142	C	1.463021	-0.869218	0.340324
H143	H	1.559194	-0.922830	0.357744
H144	H	1.481609	-0.928149	0.426652
H145	H	1.549851	-0.885280	0.435665
H146	H	1.430990	-0.888122	0.299117
H147	H	1.499242	-0.845249	0.308111
H148	H	1.384850	-1.013306	0.409873
H149	H	1.164029	-1.012526	0.606321
H150	H	1.103051	-0.761120	0.660424
C151	C	1.099996	-0.858130	0.766047
C152	C	1.085770	-0.867891	0.675880
H153	H	1.058715	-0.876506	0.802802
H154	H	1.091273	-0.821673	0.773768
H155	H	1.159647	-0.869599	0.782724
H156	H	1.026121	-0.856418	0.659201
H157	H	1.094486	-0.904355	0.668155
C158	C	1.093015	-0.581261	0.669163
C159	C	1.146448	-0.616948	0.621658
H160	H	1.051740	-0.599642	0.705918
H161	H	1.060890	-0.557553	0.627970
H162	H	1.130179	-0.562392	0.705832
H163	H	1.109284	-0.635816	0.584984
H164	H	1.178575	-0.640666	0.662856
H165	H	1.163719	-0.510158	0.606196
