data_functionalizedCrystal
_audit_creation_method	'MofGen! by Chris Wilmer'
_symmetry_space_group_name_H-M	'P1'
_symmetry_Int_Tables_number	1
_symmetry_cell_setting	triclinic
loop_
_symmetry_equiv_pos_as_xyz
  x,y,z
_cell_length_a	16.992694
_cell_length_b	10.654550
_cell_length_c	16.053802
_cell_angle_alpha	92.591674
_cell_angle_beta	87.249047
_cell_angle_gamma	87.576563
loop_
_atom_site_label
_atom_site_type_symbol
_atom_site_fract_x
_atom_site_fract_y
_atom_site_fract_z
O1	O	1.045116	0.261481	-0.069321
O2	O	1.545116	0.761481	0.430679
O3	O	0.816816	0.258556	-0.069346
O4	O	1.316816	0.758556	0.430654
O5	O	0.936215	0.077733	-0.069330
O6	O	1.436215	0.577733	0.430670
O7	O	0.925717	0.442304	-0.069337
O8	O	1.425717	0.942304	0.430663
O9	O	0.929643	0.087643	0.069528
O10	O	1.429643	0.587643	0.569528
O11	O	0.810244	0.268466	0.069512
O12	O	1.310244	0.768466	0.569512
O13	O	1.038544	0.271390	0.069537
O14	O	1.538544	0.771390	0.569537
Zn15	Zn	0.923350	0.271501	0.091571
Zn16	Zn	1.423350	0.771501	0.591571
Zn17	Zn	0.932009	0.258446	-0.091380
Zn18	Zn	1.432009	0.758446	0.408620
O19	O	0.919145	0.452213	0.069521
O20	O	1.419145	0.952213	0.569521
C21	C	0.784297	0.259751	0.000080
C22	C	1.284297	0.759751	0.500080
C23	C	0.697192	0.248531	0.000071
C24	C	1.197192	0.748531	0.500071
C25	C	0.647540	0.356781	0.000069
C26	C	1.147540	0.856781	0.500069
C27	C	0.565696	0.346233	0.000081
C28	C	1.065696	0.846233	0.500081
C29	C	0.533505	0.227432	0.000088
C30	C	1.033505	0.727432	0.500088
C31	C	0.583163	0.119174	0.000092
C32	C	1.083163	0.619174	0.500092
C33	C	0.665006	0.129724	0.000087
C34	C	1.165006	0.629724	0.500087
C35	C	0.289668	0.183707	0.000112
C36	C	0.789668	0.683707	0.500112
C37	C	0.207819	0.173165	0.000115
C38	C	0.707819	0.673165	0.500115
C39	C	0.190358	0.400225	0.000105
C40	C	0.690358	0.900225	0.500105
C41	C	0.272203	0.410765	0.000094
C42	C	0.772203	0.910765	0.500094
C43	C	0.321854	0.302506	0.000103
C44	C	0.821854	0.802506	0.500103
N45	N	0.449847	0.216647	0.000098
N46	N	0.949847	0.716647	0.500098
N47	N	0.405510	0.313293	0.000099
N48	N	0.905510	0.813293	0.500099
C49	C	0.932158	0.035823	0.000098
C50	C	1.432158	0.535823	0.500098
C51	C	0.929852	-0.103819	0.000095
C52	C	1.429852	0.396181	0.500095
C53	C	1.000152	-0.177229	0.000105
C54	C	1.500152	0.322771	0.500105
C55	C	0.997981	-0.308438	0.000099
C56	C	1.497981	0.191562	0.500099
C57	C	0.855203	-0.292815	0.000076
C58	C	1.355203	0.207185	0.500076
C59	C	0.857375	-0.161609	0.000077
C60	C	1.357375	0.338391	0.500077
C61	C	1.072629	-0.119440	0.000124
C62	C	1.572629	0.380560	0.500124
C63	C	1.142935	-0.192850	0.000135
C64	C	1.642935	0.307150	0.500135
C65	C	1.140763	-0.324059	0.000129
C66	C	1.640763	0.175941	0.500129
C67	C	1.068286	-0.381858	0.000112
C68	C	1.568286	0.118142	0.500112
C69	C	1.071063	0.270196	0.000109
C70	C	1.571063	0.770196	0.500109
C71	C	1.158168	0.281416	0.000113
C72	C	1.658168	0.781416	0.500113
C73	C	0.923202	0.494123	0.000091
C74	C	1.423202	0.994123	0.500091
C75	C	0.925508	0.633766	0.000089
C76	C	1.425508	1.133766	0.500089
N77	N	0.917446	0.280411	0.216431
N78	N	1.417446	0.780411	0.716431
N79	N	0.937920	0.249526	-0.216239
N80	N	1.437920	0.749526	0.283761
C81	C	0.968269	0.203502	0.260132
C82	C	1.468269	0.703502	0.760132
C83	C	0.964147	0.209747	0.347538
C84	C	1.464147	0.709747	0.847538
C85	C	0.909204	0.292909	0.391242
C86	C	1.409204	0.792909	0.891242
C87	C	0.858376	0.369822	0.347535
C88	C	1.358376	0.869822	0.847535
C89	C	0.862495	0.363569	0.260130
C90	C	1.362495	0.863569	0.760130
C91	C	0.891210	0.320186	0.652649
C92	C	1.391210	0.820186	1.152649
C93	C	0.887096	0.326435	0.740060
C94	C	1.387096	0.826435	1.240060
C95	C	0.992867	0.166359	0.740057
C96	C	1.492867	0.666359	1.240057
C97	C	0.996985	0.160119	0.652650
C98	C	1.496985	0.660119	1.152650
C99	C	0.946153	0.237026	0.608951
C100	C	1.446153	0.737026	1.108951
N101	N	0.904991	0.299298	0.480585
N102	N	1.404991	0.799298	0.980585
N103	N	0.950364	0.230631	0.519610
N104	N	1.450364	0.730631	1.019610
H105	H	0.673743	0.453521	0.000063
H106	H	1.173743	0.953521	0.500063
H107	H	1.198010	-0.383827	0.000129
H108	H	1.698010	0.116173	0.500129
H109	H	0.821108	0.426195	0.224550
H110	H	1.321108	0.926195	0.724550
O111	O	0.548449	-0.008966	0.000103
O112	O	1.048449	0.491034	0.500103
H113	H	0.483197	0.001881	0.000099
H114	H	0.983197	0.501881	0.500099
H115	H	1.005531	0.147121	0.383119
H116	H	1.505531	0.647121	0.883119
H117	H	1.013013	0.135788	0.224554
H118	H	1.513013	0.635788	0.724554
H119	H	1.201944	-0.145783	0.000128
H120	H	1.701944	0.354217	0.500128
H121	H	1.074405	-0.012604	0.000131
H122	H	1.574405	0.487396	0.500131
H123	H	0.525272	0.434383	0.000079
H124	H	1.025272	0.934383	0.500079
H125	H	1.041723	0.092402	0.617068
H126	H	1.541723	0.592402	1.117068
H127	H	0.298407	0.507504	0.000079
H128	H	0.798407	1.007504	0.500079
H129	H	0.149924	0.488363	0.000100
H130	H	0.649924	0.988363	0.500100
O131	O	1.047685	0.083399	0.787187
O132	O	1.547685	0.583399	1.287187
H133	H	1.035588	0.101706	0.855307
H134	H	1.535588	0.601706	1.355307
O135	O	0.777034	-0.355149	0.000065
O136	O	1.277034	0.144851	0.500065
H137	H	0.740540	-0.322172	0.056654
H138	H	1.240540	0.177828	0.556654
O139	O	0.173094	0.045025	0.000131
O140	O	0.673094	0.545025	0.500131
H141	H	0.221368	-0.028482	0.000144
H142	H	0.721368	0.471518	0.500144
O143	O	0.781550	-0.082426	0.000072
O144	O	1.281550	0.417574	0.500072
H145	H	0.795239	0.018517	0.000067
H146	H	1.295239	0.518517	0.500067
H147	H	0.842353	0.394161	0.775640
H148	H	1.342353	0.894161	1.275640
H149	H	0.849823	0.382810	0.617076
H150	H	1.349823	0.882810	1.117076
H151	H	0.813636	0.437530	0.383124
H152	H	1.313636	0.937530	0.883124
H153	H	0.705432	0.041574	0.000087
H154	H	1.205432	0.541574	0.500087
O155	O	1.065945	-0.523377	0.000109
O156	O	1.565945	-0.023377	0.500109
H157	H	1.037240	-0.558640	-0.056494
H158	H	1.537240	-0.058640	0.443506
O159	O	0.343216	0.066949	0.000120
O160	O	0.843216	0.566949	0.500120
H161	H	0.307079	-0.017429	0.000119
H162	H	0.807079	0.482571	0.500119
