data_functionalizedCrystal
_audit_creation_method	'MofGen! by Chris Wilmer'
_symmetry_space_group_name_H-M	'P1'
_symmetry_Int_Tables_number	1
_symmetry_cell_setting	triclinic
loop_
_symmetry_equiv_pos_as_xyz
  x,y,z
_cell_length_a	19.288864
_cell_length_b	16.992695
_cell_length_c	17.766277
_cell_angle_alpha	89.993690
_cell_angle_beta	89.976791
_cell_angle_gamma	86.902234
loop_
_atom_site_label
_atom_site_type_symbol
_atom_site_fract_x
_atom_site_fract_y
_atom_site_fract_z
O1	O	0.927053	0.097795	-0.062838
O2	O	1.427053	0.597795	0.437162
O3	O	0.725561	0.110988	-0.062787
O4	O	1.225561	0.610988	0.437213
O5	O	0.825499	-0.009748	-0.062806
O6	O	1.325499	0.490252	0.437194
O7	O	0.827114	0.218531	-0.062819
O8	O	1.327114	0.718531	0.437181
O9	O	0.825480	-0.009754	0.062382
O10	O	1.325480	0.490246	0.562382
O11	O	0.725542	0.110982	0.062402
O12	O	1.225542	0.610982	0.562402
O13	O	0.927034	0.097789	0.062351
O14	O	1.427034	0.597789	0.562351
Cu15	Cu	0.826286	0.104385	0.073807
Cu16	Cu	1.326286	0.604385	0.573807
Cu17	Cu	0.826308	0.104392	-0.074243
Cu18	Cu	1.326308	0.604392	0.425757
O19	O	0.827095	0.218525	0.062370
O20	O	1.327095	0.718525	0.562370
C21	C	0.699650	0.110560	-0.000186
C22	C	1.199650	0.610560	0.499814
C23	C	0.622472	0.109286	-0.000166
C24	C	1.122472	0.609286	0.499834
C25	C	0.581905	0.180128	-0.000182
C26	C	1.081905	0.680128	0.499818
C27	C	0.509388	0.178931	-0.000190
C28	C	1.009388	0.678931	0.499810
C29	C	0.477442	0.106888	-0.000198
C30	C	0.977442	0.606888	0.499802
C31	C	0.518018	0.036036	-0.000178
C32	C	1.018018	0.536036	0.499822
C33	C	0.590534	0.037235	-0.000162
C34	C	1.090534	0.537235	0.499838
C35	C	0.365886	0.050256	-0.044079
C36	C	0.865886	0.550256	0.455921
C37	C	0.293371	0.049059	-0.044099
C38	C	0.793371	0.549059	0.455901
C39	C	0.253780	0.103186	-0.000243
C40	C	0.753780	0.603186	0.499757
C41	C	0.286711	0.158522	0.043624
C42	C	0.786711	0.658522	0.543624
C43	C	0.359227	0.159722	0.043640
C44	C	0.859227	0.659722	0.543640
C45	C	0.398811	0.105579	-0.000214
C46	C	0.898811	0.605579	0.499786
C47	C	0.134581	0.172735	-0.000267
C48	C	0.634581	0.672735	0.499733
C49	C	0.062063	0.171535	-0.000270
C50	C	0.562063	0.671535	0.499730
C51	C	0.070695	0.028638	-0.000266
C52	C	0.570695	0.528638	0.499734
C53	C	0.143212	0.029840	-0.000254
C54	C	0.643212	0.529840	0.499746
C55	C	0.175150	0.101891	-0.000259
C56	C	0.675150	0.601891	0.499741
C57	C	0.823411	-0.038957	-0.000211
C58	C	1.323411	0.461043	0.499789
C59	C	0.817211	-0.125979	-0.000210
C60	C	1.317211	0.374021	0.499790
C61	C	0.877039	-0.176431	-0.000224
C62	C	1.377039	0.323569	0.499776
C63	C	0.871208	-0.258197	-0.000230
C64	C	1.371208	0.241803	0.499770
C65	C	0.805549	-0.289509	-0.000216
C66	C	1.305549	0.210491	0.499784
C67	C	0.745717	-0.239051	-0.000204
C68	C	1.245717	0.260949	0.499796
C69	C	0.751548	-0.157287	-0.000204
C70	C	1.251548	0.342713	0.499796
C71	C	0.781382	-0.533022	-0.000220
C72	C	1.281382	-0.033022	0.499780
C73	C	0.775556	-0.614793	-0.000218
C74	C	1.275556	-0.114793	0.499782
C75	C	0.901048	-0.633933	-0.000246
C76	C	1.401048	-0.133933	0.499754
C77	C	0.906873	-0.552166	-0.000241
C78	C	1.406873	-0.052166	0.499759
C79	C	0.847041	-0.501715	-0.000233
C80	C	1.347041	-0.001715	0.499767
N81	N	0.799588	-0.373087	-0.000219
N82	N	1.299588	0.126913	0.499781
N83	N	0.853002	-0.418138	-0.000235
N84	N	1.353002	0.081862	0.499765
C85	C	0.952944	0.098217	-0.000252
C86	C	1.452944	0.598217	0.499748
C87	C	1.030122	0.099491	-0.000277
C88	C	1.530122	0.599491	0.499723
C89	C	0.829183	0.247733	-0.000226
C90	C	1.329183	0.747733	0.499774
C91	C	0.835384	0.334756	-0.000233
C92	C	1.335384	0.834756	0.499767
N93	N	0.826275	0.104379	0.177937
N94	N	1.326275	0.604379	0.677937
N95	N	0.826324	0.104391	-0.178373
N96	N	1.326324	0.604391	0.321627
C97	C	0.870544	0.050944	0.217316
C98	C	1.370544	0.550944	0.717316
C99	C	0.870548	0.050940	0.296117
C100	C	1.370548	0.550940	0.796117
C101	C	0.826290	0.104385	0.335538
C102	C	1.326290	0.604385	0.835538
C103	C	0.782012	0.157825	0.296150
C104	C	1.282012	0.657825	0.796150
C105	C	0.782005	0.157822	0.217350
C106	C	1.282005	0.657822	0.717350
C107	C	0.821154	0.175815	0.460373
C108	C	1.321154	0.675815	0.960373
C109	C	0.821167	0.175819	0.539172
C110	C	1.321167	0.675819	1.039172
C111	C	0.826309	0.104395	0.578584
C112	C	1.326309	0.604395	1.078584
C113	C	0.831454	0.032964	0.539188
C114	C	1.331454	0.532964	1.039188
C115	C	0.831446	0.032961	0.460387
C116	C	1.331446	0.532961	0.960387
C117	C	0.826293	0.104394	0.420983
C118	C	1.326293	0.604394	0.920983
C119	C	0.870585	0.050951	0.703408
C120	C	1.370585	0.550951	1.203408
C121	C	0.870584	0.050946	0.782212
C122	C	1.370584	0.550946	1.282212
C123	C	0.782051	0.157838	0.782243
C124	C	1.282051	0.657838	1.282243
C125	C	0.782049	0.157836	0.703441
C126	C	1.282049	0.657836	1.203441
C127	C	0.826319	0.104393	0.664029
C128	C	1.326319	0.604393	1.164029
H129	H	0.160587	0.231403	-0.000259
H130	H	0.660587	0.731403	0.499741
O131	O	0.408590	-0.008126	-0.091382
O132	O	0.908590	0.491874	0.408618
H133	H	0.394224	-0.000255	-0.151508
H134	H	0.894224	0.499745	0.348492
H135	H	0.176243	-0.027848	-0.000246
H136	H	0.676243	0.472152	0.499754
O137	O	0.977690	-0.518389	-0.000257
O138	O	1.477690	-0.018389	0.499743
H139	H	0.983350	-0.481581	-0.051279
H140	H	1.483350	0.018419	0.448721
H141	H	0.835641	-0.025196	0.571275
H142	H	1.335641	0.474804	1.071275
H143	H	0.029034	0.229226	-0.000279
H144	H	0.529034	0.729226	0.499721
O145	O	0.483569	-0.041671	-0.000182
O146	O	0.983569	0.458329	0.499818
H147	H	0.450771	-0.045641	-0.051217
H148	H	0.950771	0.454359	0.448783
H149	H	0.906599	0.007424	0.328185
H150	H	1.406599	0.507424	0.828185
H151	H	0.623564	-0.020455	-0.000150
H152	H	1.123564	0.479545	0.499850
H153	H	0.745954	0.201337	0.185287
H154	H	1.245954	0.701337	0.685287
H155	H	0.906590	0.007425	0.185228
H156	H	1.406590	0.507425	0.685228
O157	O	0.734307	0.215474	0.660958
O158	O	1.234307	0.715474	1.160958
H159	H	0.746549	0.276565	0.676059
H160	H	1.246549	0.776565	1.176059
O161	O	0.965580	-0.688345	-0.000260
O162	O	1.465580	-0.188345	0.499740
H163	H	0.950498	-0.750462	-0.000263
H164	H	1.450498	-0.250462	0.499737
H165	H	0.930505	-0.150943	-0.000231
H166	H	1.430505	0.349057	0.499769
H167	H	0.919927	-0.299272	-0.000240
H168	H	1.419927	0.200728	0.499760
H169	H	0.044686	-0.030021	-0.000318
H170	H	0.544686	0.469979	0.499682
H171	H	0.745975	0.201340	0.328250
H172	H	1.245975	0.701340	0.828250
O173	O	0.257859	-0.010620	-0.091416
O174	O	0.757859	0.489380	0.408584
H175	H	0.200783	-0.002354	-0.084069
H176	H	0.700783	0.497646	0.415931
O177	O	0.836808	-0.044084	0.417898
O178	O	1.336808	0.455916	0.917898
H179	H	0.835877	-0.032084	0.356484
H180	H	1.335877	0.467916	0.856484
H181	H	0.722085	-0.640283	-0.000195
H182	H	1.222085	-0.140283	0.499805
H183	H	0.906631	0.007432	0.671317
H184	H	1.406631	0.507432	1.171317
H185	H	0.732662	-0.491954	-0.000213
H186	H	1.232662	0.008046	0.499787
H187	H	0.906631	0.007428	0.814274
H188	H	1.406631	0.507428	1.314274
O189	O	0.674896	-0.272817	-0.000181
O190	O	1.174896	0.227183	0.499819
H191	H	0.680891	-0.338150	-0.000172
H192	H	1.180891	0.161850	0.499828
H193	H	0.702829	-0.116209	-0.000192
H194	H	1.202829	0.383791	0.499808
H195	H	0.746013	0.201352	0.814338
H196	H	1.246013	0.701352	1.314338
H197	H	0.816982	0.233982	0.571243
H198	H	1.316982	0.733982	1.071243
H199	H	0.816955	0.233980	0.428291
H200	H	1.316955	0.733980	0.928291
H201	H	0.476351	0.236621	-0.000201
H202	H	0.976351	0.736621	0.499799
O203	O	0.616355	0.257836	-0.000164
O204	O	1.116355	0.757836	0.499836
H205	H	0.575958	0.306897	-0.000166
H206	H	1.075958	0.806897	0.499834
H207	H	0.254478	0.202597	0.079337
H208	H	0.754478	0.702597	0.579337
O209	O	0.394751	0.219371	0.090981
O210	O	0.894751	0.719371	0.590981
H211	H	0.355044	0.256799	0.121490
H212	H	0.855044	0.756799	0.621490
