data_functionalizedCrystal
_audit_creation_method	'MofGen! by Chris Wilmer'
_symmetry_space_group_name_H-M	'P1'
_symmetry_Int_Tables_number	1
_symmetry_cell_setting	triclinic
loop_
_symmetry_equiv_pos_as_xyz
  x,y,z
_cell_length_a	12.645331
_cell_length_b	12.645330
_cell_length_c	12.759393
_cell_angle_alpha	89.969952
_cell_angle_beta	89.985060
_cell_angle_gamma	90.016927
loop_
_atom_site_label
_atom_site_type_symbol
_atom_site_fract_x
_atom_site_fract_y
_atom_site_fract_z
Zn1	Zn	1.620723	-0.421999	-0.593893
Zn2	Zn	1.620607	-0.599303	-0.418218
Zn3	Zn	1.443440	-0.422051	-0.418243
Zn4	Zn	1.443419	-0.599218	-0.593870
O5	O	1.532047	-0.510643	-0.506056
O6	O	1.769055	-0.445532	-0.570588
O7	O	1.597066	-0.575847	-0.271200
O8	O	1.467014	-0.273697	-0.441564
O9	O	1.768970	-0.575796	-0.441520
O10	O	1.597263	-0.273658	-0.570613
O11	O	1.466902	-0.445621	-0.271219
O12	O	1.295090	-0.445539	-0.441541
O13	O	1.466979	-0.575652	-0.740894
O14	O	1.295075	-0.575703	-0.570574
O15	O	1.597243	-0.445450	-0.740911
O16	O	1.597045	-0.747639	-0.441498
O17	O	1.466866	-0.747577	-0.570549
C18	C	1.256618	-0.510619	-0.506058
C19	C	1.138787	-0.510634	-0.506085
C20	C	0.971249	-0.592969	-0.586835
C21	C	1.093809	-0.592703	-0.587173
C22	C	1.094309	-0.398976	-0.536333
C23	C	0.971711	-0.399479	-0.536902
C24	C	0.971543	-0.539057	-0.394829
C25	C	1.094149	-0.541499	-0.395429
C26	C	1.531970	-0.786072	-0.506041
C27	C	1.532034	-0.903902	-0.506070
C28	C	1.450476	-1.071471	-0.587506
C29	C	1.450059	-0.948912	-0.587244
C30	C	1.501790	-0.948506	-0.395350
C31	C	1.501292	-1.071104	-0.395845
C32	C	1.644334	-1.070991	-0.534455
C33	C	1.643646	-0.948383	-0.536876
C34	C	1.808552	-0.510667	-0.506054
C35	C	1.926382	-0.510678	-0.506053
C36	C	1.532121	-0.510536	-0.780089
C37	C	1.532153	-0.510490	-0.896866
C38	C	1.532154	-0.234137	-0.506094
C39	C	1.532199	-0.116307	-0.506110
C40	C	1.599991	-0.442687	-0.951738
C41	C	1.600016	-0.442649	-1.061463
C42	C	1.464363	-0.578225	-1.061432
C43	C	1.464333	-0.578258	-0.951710
C44	C	1.678313	-0.364416	-0.951757
C45	C	1.678338	-0.364378	-1.061481
C46	C	1.532034	-0.510673	-0.233088
C47	C	1.532208	-0.510420	-0.116312
H48	H	1.123882	-0.675503	-0.568216
N49	N	1.673864	-0.909738	-0.644800
H50	H	1.741448	-0.867394	-0.640348
H51	H	1.684825	-0.972357	-0.692684
H52	H	1.409144	-0.633397	-1.106099
N53	N	1.134698	-0.467871	-0.311416
H54	H	1.182790	-0.413217	-0.344042
H55	H	1.073011	-0.431368	-0.276523
H56	H	0.942031	-0.335968	-0.480761
N57	N	1.649236	-0.255671	-0.912328
H58	H	1.636273	-0.207121	-0.973874
H59	H	1.583009	-0.260466	-0.868319
N60	N	1.781521	-0.403432	-0.906540
H61	H	1.768008	-0.468069	-0.861967
H62	H	1.831470	-0.422233	-0.965426
N63	N	1.680903	-1.111835	-0.639573
H64	H	1.629037	-1.089536	-0.695558
H65	H	1.753005	-1.081758	-0.656102
H66	H	0.942527	-0.479117	-0.334638
H67	H	1.648966	-0.286371	-1.095529
H68	H	1.760442	-0.386368	-1.091255
H69	H	1.367863	-1.102373	-0.568968
N70	N	1.475115	-0.908949	-0.695990
H71	H	1.486531	-0.970973	-0.744529
H72	H	1.414220	-0.864737	-0.722488
H73	H	1.366927	-0.919678	-0.568466
N74	N	1.392717	-1.109122	-0.364032
H75	H	1.345628	-1.046240	-0.349822
H76	H	1.361406	-1.152957	-0.422447
H77	H	1.123442	-0.335997	-0.479333
N78	N	1.728556	-0.907791	-0.464075
H79	H	1.695729	-0.859781	-0.409846
H80	H	1.763886	-0.969464	-0.427965
H81	H	1.409089	-0.633465	-0.907037
H82	H	0.940457	-0.574430	-0.668769
H83	H	1.558233	-1.100768	-0.333130
H84	H	0.941758	-0.676043	-0.568087
H85	H	1.123157	-0.573921	-0.669586
H86	H	0.940622	-0.619090	-0.367335
N87	N	0.933847	-0.367494	-0.644571
H88	H	0.996796	-0.353214	-0.691222
H89	H	0.889975	-0.426442	-0.675567
H90	H	1.125033	-0.374468	-0.616762
H91	H	1.469224	-1.100876	-0.669874
N92	N	1.132754	-0.650289	-0.365153
H93	H	1.178955	-0.679473	-0.422872
H94	H	1.174970	-0.645471	-0.298142
N95	N	1.578129	-0.909899	-0.312814
H96	H	1.633183	-0.863010	-0.346481
H97	H	1.538274	-0.868415	-0.257926
N98	N	1.394333	-0.907982	-0.362969
H99	H	1.375576	-0.937124	-0.291629
H100	H	1.395857	-0.828189	-0.359915
N101	N	1.724990	-1.109389	-0.455931
H102	H	1.689128	-1.155910	-0.402252
H103	H	1.781555	-1.151210	-0.493387
