data_functionalizedCrystal
_audit_creation_method	'MofGen! by Chris Wilmer'
_symmetry_space_group_name_H-M	'P1'
_symmetry_Int_Tables_number	1
_symmetry_cell_setting	triclinic
loop_
_symmetry_equiv_pos_as_xyz
  x,y,z
_cell_length_a	14.971486
_cell_length_b	13.339070
_cell_length_c	13.448316
_cell_angle_alpha	89.996829
_cell_angle_beta	89.998199
_cell_angle_gamma	99.621712
loop_
_atom_site_label
_atom_site_type_symbol
_atom_site_fract_x
_atom_site_fract_y
_atom_site_fract_z
O1	O	1.219550	0.131873	-0.082571
O2	O	0.963055	0.147665	-0.082597
O3	O	1.061865	-0.007530	-0.082584
O4	O	1.120740	0.287068	-0.082584
O5	O	1.061845	-0.007540	0.082800
O6	O	0.963035	0.147656	0.082787
O7	O	1.219531	0.131864	0.082813
Cu8	Cu	1.091281	0.139759	0.097901
Cu9	Cu	1.091304	0.139770	-0.097685
O10	O	1.120720	0.287059	0.082800
C11	C	0.929545	0.146954	0.000091
C12	C	0.829725	0.144838	0.000081
C13	C	0.795041	0.236011	0.000082
C14	C	0.701248	0.234016	0.000097
C15	C	0.642141	0.140847	0.000103
C16	C	0.676832	0.049667	0.000105
C17	C	0.770623	0.051663	0.000097
C18	C	0.481342	0.045514	0.000119
C19	C	0.387545	0.043518	0.000125
C20	C	0.411968	0.227867	0.000119
C21	C	0.505759	0.229863	0.000111
C22	C	0.540442	0.138682	0.000111
C23	C	1.051910	-0.045236	0.000105
C24	C	1.022266	-0.157574	0.000098
C25	C	1.252762	-0.522088	0.000122
C26	C	1.280617	-0.416541	0.000135
C27	C	1.216032	-0.351794	0.000125
C28	C	1.123587	-0.392604	0.000104
C29	C	1.095729	-0.498161	0.000100
C30	C	1.058999	-0.327867	0.000103
C31	C	0.966554	-0.368677	0.000082
C32	C	0.938701	-0.474224	0.000077
C33	C	1.003286	-0.538970	0.000086
C34	C	1.086856	-0.222311	0.000107
C35	C	0.929823	-0.198384	0.000084
C36	C	0.901968	-0.303930	0.000072
C37	C	1.253040	0.132575	0.000122
C38	C	1.352860	0.134691	0.000126
C39	C	1.130675	0.324765	0.000108
C40	C	1.160319	0.437102	0.000109
N41	N	1.091271	0.139750	0.235465
N42	N	1.091319	0.139771	-0.235249
C43	C	1.135050	0.071058	0.287511
C44	C	1.135056	0.071057	0.391614
C45	C	1.091287	0.139754	0.443669
C46	C	1.047502	0.208449	0.391616
C47	C	1.047492	0.208445	0.287515
C48	C	1.047529	0.208456	0.608596
C49	C	1.047540	0.208463	0.712705
C50	C	1.135093	0.071069	0.712696
C51	C	1.135082	0.071064	0.608594
C52	C	1.091299	0.139761	0.556548
H53	H	0.339422	-0.032348	0.000131
H54	H	1.170742	0.015133	0.755078
H55	H	0.843160	0.311879	0.000077
H56	H	1.162125	-0.189094	0.000124
O57	O	0.812206	-0.343746	0.000102
C58	C	0.699707	-0.495755	0.000021
C59	C	0.801390	-0.450799	0.000011
H60	H	0.690930	-0.582312	-0.000074
H61	H	0.666420	-0.469186	0.069246
H62	H	0.666491	-0.469036	-0.069180
H63	H	0.834684	-0.477497	0.069165
H64	H	0.834610	-0.477362	-0.069260
H65	H	1.305338	-0.574813	0.000138
H66	H	0.673013	0.308258	0.000097
O67	O	0.378327	0.316471	-0.000051
C68	C	0.370547	0.473451	-0.085708
C69	C	0.408691	0.373140	-0.085644
H70	H	0.395096	0.519307	-0.154891
H71	H	0.293357	0.456089	-0.085759
H72	H	0.395001	0.519253	-0.016469
H73	H	0.384306	0.327289	-0.154871
H74	H	0.485878	0.390574	-0.085541
H75	H	0.628700	-0.026192	0.000124
H76	H	1.238717	-0.265854	0.000135
H77	H	0.553882	0.305729	0.000096
H78	H	0.877232	-0.145666	0.000082
O79	O	1.177578	0.004227	0.237103
C80	C	1.264459	-0.132012	0.248094
C81	C	1.216316	-0.056392	0.305300
H82	H	1.295808	-0.181028	0.303206
H83	H	1.213307	-0.182710	0.199395
H84	H	1.319963	-0.088222	0.199318
H85	H	1.160816	-0.100099	0.354131
H86	H	1.267524	-0.005695	0.353936
O87	O	0.514885	-0.043152	0.000069
C88	C	0.480768	-0.226211	0.000114
C89	C	0.442660	-0.125878	0.000156
H90	H	0.422393	-0.293121	0.000205
H91	H	0.524030	-0.229945	-0.069122
H92	H	0.524105	-0.229839	0.069304
H93	H	0.399284	-0.122182	-0.068987
H94	H	0.399449	-0.122185	0.069438
O95	O	1.177442	0.004231	0.442211
C96	C	1.162240	-0.133900	0.559789
C97	C	1.114118	-0.058289	0.502538
H98	H	1.111069	-0.184453	0.608592
H99	H	1.193494	-0.183064	0.504741
H100	H	1.217807	-0.090102	0.608471
H101	H	1.058513	-0.102005	0.453854
H102	H	1.082927	-0.009125	0.557639
O103	O	0.804167	-0.036996	0.000046
C104	C	0.770051	-0.220055	0.000108
C105	C	0.731943	-0.119722	0.000138
H106	H	0.711676	-0.286965	0.000203
H107	H	0.813316	-0.223796	-0.069125
H108	H	0.813385	-0.223677	0.069301
H109	H	0.688569	-0.116034	-0.069009
H110	H	0.688729	-0.116023	0.069416
H111	H	1.355886	-0.383322	0.000153
O112	O	1.005051	0.275319	0.442067
C113	C	0.996304	0.451178	0.473945
C114	C	1.044444	0.375558	0.416735
H115	H	1.028147	0.532238	0.453500
H116	H	0.921362	0.437935	0.453467
H117	H	1.003805	0.439336	0.557285
H118	H	1.037015	0.387355	0.333381
H119	H	1.119367	0.388821	0.437295
H120	H	1.170727	0.015131	0.566211
O121	O	1.004931	0.275217	0.763119
C122	C	0.918098	0.411500	0.752148
C123	C	0.966307	0.335946	0.694931
H124	H	0.886874	0.460634	0.697043
H125	H	0.862519	0.367758	0.800866
H126	H	0.969273	0.462091	0.800907
H127	H	0.915200	0.285336	0.646118
H128	H	1.021900	0.379751	0.646276
O129	O	1.004875	0.275050	0.557994
C130	C	0.888041	0.296366	0.440430
C131	C	0.936246	0.220836	0.497692
H132	H	0.832556	0.252565	0.391648
H133	H	0.856694	0.345456	0.495472
H134	H	0.939237	0.347006	0.391726
H135	H	0.885105	0.170130	0.546398
H136	H	0.967609	0.171818	0.442598
H137	H	0.863426	-0.507447	0.000067
H138	H	0.980611	-0.624916	0.000072
H139	H	1.011841	0.264379	0.245140
