data_functionalizedCrystal
_audit_creation_method	'MofGen! by Chris Wilmer'
_symmetry_space_group_name_H-M	'P1'
_symmetry_Int_Tables_number	1
_symmetry_cell_setting	triclinic
loop_
_symmetry_equiv_pos_as_xyz
  x,y,z
_cell_length_a	14.519709
_cell_length_b	15.944551
_cell_length_c	12.996460
_cell_angle_alpha	89.992903
_cell_angle_beta	90.000034
_cell_angle_gamma	83.589442
loop_
_atom_site_label
_atom_site_type_symbol
_atom_site_fract_x
_atom_site_fract_y
_atom_site_fract_z
O1	O	1.223676	0.110109	-0.085435
O2	O	0.955177	0.123076	-0.085467
O3	O	1.096759	-0.005672	-0.085441
O4	O	1.082094	0.238857	-0.085461
O5	O	1.096744	-0.005679	0.085693
O6	O	0.955162	0.123069	0.085667
O7	O	1.223661	0.110102	0.085699
Cu8	Cu	1.089410	0.116585	0.101309
Cu9	Cu	1.089428	0.116593	-0.101077
O10	O	1.082080	0.238849	0.085673
C11	C	0.920810	0.122468	0.000096
C12	C	0.818432	0.120657	0.000084
C13	C	1.096142	-0.036970	0.000126
C14	C	1.094317	-0.130219	0.000126
C15	C	0.443548	0.113990	0.000132
C16	C	0.547853	0.115842	0.000118
C17	C	0.630987	0.117323	0.000107
C18	C	0.735298	0.119175	0.000095
C19	C	1.002196	-0.345209	0.000101
C20	C	1.044967	-0.406168	0.084486
C21	C	1.091015	-0.300950	0.000118
C22	C	1.045002	-0.406144	-0.084239
C23	C	1.087820	-0.465867	0.000106
C24	C	1.133811	-0.360680	0.084572
C25	C	1.133834	-0.360650	-0.084228
C26	C	1.176669	-0.421591	0.000177
C27	C	1.092854	-0.205945	0.000126
C28	C	1.085988	-0.560871	0.000105
C29	C	1.258028	0.110710	0.000133
C30	C	1.360406	0.112521	0.000139
C31	C	1.082696	0.270148	0.000103
C32	C	1.084521	0.363397	0.000096
N33	N	1.089405	0.116578	0.243656
N34	N	1.089441	0.116593	-0.243424
C35	C	1.089426	0.116594	0.663470
C36	C	1.089418	0.116592	0.546665
C37	C	1.089416	0.116587	0.453567
C38	C	1.089406	0.116584	0.336754
H39	H	1.007393	-0.426334	0.155817
C40	C	1.183954	-0.333860	0.179681
C41	C	1.260810	-0.293962	0.149691
C42	C	1.307012	-0.269233	0.237276
H43	H	1.204067	-0.382149	0.219993
H44	H	1.143046	-0.295843	0.219118
H45	H	1.301710	-0.331977	0.110271
H46	H	1.240723	-0.245664	0.109391
H47	H	1.266105	-0.231215	0.276713
H48	H	1.327119	-0.317526	0.277582
H49	H	1.359159	-0.242153	0.216941
C50	C	0.994915	-0.432834	-0.179453
C51	C	0.964714	-0.361422	-0.238219
C52	C	0.918576	-0.385972	-0.325938
H53	H	0.943028	-0.460345	-0.159312
H54	H	1.036003	-0.470409	-0.219248
H55	H	0.923629	-0.323861	-0.198431
H56	H	1.016582	-0.333902	-0.258386
H57	H	0.959663	-0.423548	-0.365733
H58	H	0.866693	-0.413484	-0.305788
H59	H	0.898086	-0.337525	-0.365826
H60	H	1.250458	-0.454643	0.000233
H61	H	1.171375	-0.340462	-0.155563
H62	H	0.928471	-0.312009	0.000177
