data_functionalizedCrystal
_audit_creation_method	'MofGen! by Chris Wilmer'
_symmetry_space_group_name_H-M	'P1'
_symmetry_Int_Tables_number	1
_symmetry_cell_setting	triclinic
loop_
_symmetry_equiv_pos_as_xyz
  x,y,z
_cell_length_a	13.339070
_cell_length_b	10.489741
_cell_length_c	11.804365
_cell_angle_alpha	101.953620
_cell_angle_beta	74.875130
_cell_angle_gamma	100.084234
loop_
_atom_site_label
_atom_site_type_symbol
_atom_site_fract_x
_atom_site_fract_y
_atom_site_fract_z
O1	O	1.367264	0.622515	-0.099068
O2	O	1.072122	0.538369	-0.099061
O3	O	1.226407	0.397145	-0.099058
O4	O	1.212978	0.763739	-0.099072
O5	O	1.185789	0.434272	0.098997
O6	O	1.031504	0.575496	0.098994
O7	O	1.326646	0.659642	0.098987
Cu8	Cu	1.175366	0.620959	0.117074
Cu9	Cu	1.223401	0.577052	-0.117149
O10	O	1.172361	0.800866	0.098983
C11	C	1.014020	0.542719	-0.000033
C12	C	0.901409	0.500350	-0.000030
C13	C	0.539023	0.829782	-0.000062
C14	C	0.644827	0.869592	-0.000068
C15	C	0.708977	0.777285	-0.000058
C16	C	0.667314	0.645161	-0.000043
C17	C	0.561501	0.605345	-0.000046
C18	C	0.731456	0.552848	-0.000042
C19	C	0.689793	0.420724	-0.000027
C20	C	0.583990	0.380914	-0.000029
C21	C	0.519840	0.473222	-0.000039
C22	C	0.837269	0.592664	-0.000039
C23	C	0.859747	0.368227	-0.000024
C24	C	0.753943	0.328417	-0.000017
C25	C	1.205084	0.367829	-0.000031
C26	C	1.202049	0.225160	-0.000033
C27	C	1.103883	0.123412	-0.000040
C28	C	1.130230	0.065470	0.097611
C29	C	1.170299	0.028899	-0.097656
C30	C	1.228420	0.169113	0.097698
C31	C	1.268494	0.132530	-0.097657
C32	C	1.294907	0.074645	0.000017
C33	C	1.384748	0.655292	-0.000044
C34	C	1.497361	0.697659	-0.000055
C35	C	1.193684	0.830182	-0.000046
C36	C	1.196721	0.972849	-0.000052
N37	N	1.141588	0.651843	0.281814
N38	N	1.257187	0.546161	-0.281889
C39	C	1.338301	0.471974	0.655767
C40	C	1.363852	0.448605	0.531106
C41	C	1.308288	0.499412	0.468777
C42	C	1.227169	0.573593	0.531121
C43	C	1.201620	0.596973	0.655794
C44	C	1.171607	0.624411	0.468804
C45	C	1.090488	0.698592	0.531148
C46	C	1.064942	0.721968	0.655809
C47	C	1.120506	0.671160	0.718139
C48	C	1.197156	0.601031	0.344131
C49	C	1.060475	0.726030	0.344158
C50	C	1.034923	0.749399	0.468819
H51	H	0.795128	0.809707	-0.000066
H52	H	1.375682	0.052888	0.000070
C53	C	1.347435	0.172761	-0.209196
N54	N	1.406888	0.203062	-0.293217
C55	C	0.994820	0.153197	0.000097
N56	N	0.912675	0.175638	0.000208
H57	H	0.998898	0.782382	0.706570
H58	H	1.099700	0.690183	0.819648
C59	C	0.538163	0.235574	-0.000011
N60	N	0.503648	0.126104	0.000008
C61	C	1.051242	0.025264	0.209140
N62	N	0.991743	-0.005018	0.293139
H63	H	1.263204	0.540633	0.293381
H64	H	0.433684	0.440814	-0.000033
H65	H	0.678743	0.977166	-0.000090
H66	H	1.329096	0.480381	0.367272
H67	H	1.252971	0.229646	0.180346
H68	H	1.429900	0.388209	0.480350
C69	C	1.137036	-0.053075	-0.209185
N70	N	1.111976	-0.114813	-0.293185
C71	C	0.708101	0.183080	-0.000008
N72	N	0.673571	0.073613	-0.000003
C73	C	0.945691	0.830995	0.537414
N74	N	0.878480	0.892450	0.589081
C75	C	0.999348	0.781919	0.275601
N76	N	0.953312	0.824012	0.223957
H77	H	0.871179	0.700241	-0.000047
H78	H	0.486785	0.904922	-0.000080
C79	C	1.399413	0.416098	0.724337
N80	N	1.445446	0.374008	0.775986
H81	H	0.911980	0.293061	-0.000021
