data_functionalizedCrystal
_audit_creation_method	'MofGen! by Chris Wilmer'
_symmetry_space_group_name_H-M	'P1'
_symmetry_Int_Tables_number	1
_symmetry_cell_setting	triclinic
loop_
_symmetry_equiv_pos_as_xyz
  x,y,z
_cell_length_a	18.215407
_cell_length_b	18.101395
_cell_length_c	18.101389
_cell_angle_alpha	89.983159
_cell_angle_beta	89.980853
_cell_angle_gamma	90.031552
loop_
_atom_site_label
_atom_site_type_symbol
_atom_site_fract_x
_atom_site_fract_y
_atom_site_fract_z
Zn1	Zn	1.125035	-0.294898	-0.418745
Zn2	Zn	1.124932	-0.418724	-0.294906
Zn3	Zn	1.001969	-0.294902	-0.294917
Zn4	Zn	1.001920	-0.418704	-0.418706
O5	O	1.063464	-0.356807	-0.356818
O6	O	1.228006	-0.311331	-0.402329
O7	O	1.108598	-0.402309	-0.191275
O8	O	1.018358	-0.191269	-0.311363
O9	O	1.227930	-0.402305	-0.311345
O10	O	1.108774	-0.191266	-0.402339
O11	O	1.018258	-0.311337	-0.191283
O12	O	0.898978	-0.311317	-0.311326
O13	O	1.018275	-0.402271	-0.522344
O14	O	0.898942	-0.402274	-0.402274
O15	O	1.108726	-0.311311	-0.522372
O16	O	1.108550	-0.522354	-0.311308
O17	O	1.018174	-0.522339	-0.402263
C18	C	0.872258	-0.356794	-0.356797
C19	C	0.790459	-0.356807	-0.356806
C20	C	1.063366	-0.549218	-0.356797
C21	C	1.063391	-0.631532	-0.356812
C22	C	0.602265	-0.404242	-0.404103
C23	C	0.525407	-0.404245	-0.404112
C24	C	0.525415	-0.309385	-0.309551
C25	C	0.602272	-0.309380	-0.309546
C26	C	0.640695	-0.356812	-0.356821
C27	C	0.486979	-0.356820	-0.356835
C28	C	0.403646	-0.356822	-0.356844
C29	C	0.724034	-0.356809	-0.356812
C30	C	1.063552	-0.930623	-0.356852
C31	C	1.006822	-0.899319	-0.414221
C32	C	1.006552	-0.813701	-0.414041
C33	C	1.063472	-0.782240	-0.356833
C34	C	1.042475	-0.813377	-0.278783
C35	C	1.042110	-0.899023	-0.279127
C36	C	1.141404	-0.898969	-0.376846
C37	C	1.140946	-0.813319	-0.378558
C38	C	1.063428	-0.698381	-0.356817
C39	C	1.063594	-1.014482	-0.356862
C40	C	1.255417	-0.356820	-0.356840
C41	C	1.337216	-0.356826	-0.356850
C42	C	1.063507	-0.356788	-0.549980
C43	C	1.063525	-0.356780	-0.632295
C44	C	1.063583	-0.163645	-0.356857
C45	C	1.063634	-0.081331	-0.356873
C46	C	1.063568	-0.356642	-0.931386
C47	C	1.006462	-0.413689	-0.900043
C48	C	1.006616	-0.413953	-0.814424
C49	C	1.063546	-0.356710	-0.783003
C50	C	1.141083	-0.377894	-0.814102
C51	C	1.140765	-0.378268	-0.899747
C52	C	1.043811	-0.278284	-0.899810
C53	C	1.042085	-0.278737	-0.814159
C54	C	1.063538	-0.356748	-0.699144
C55	C	1.063580	-0.356606	-1.015245
C56	C	1.063464	-0.356772	-0.164408
C57	C	1.063589	-0.356572	-0.082094
H58	H	0.633548	-0.442863	-0.442599
Cl59	Cl	1.209660	-0.780244	-0.318753
Cl60	Cl	0.953984	-0.254074	-0.782785
H61	H	1.019376	-0.471415	-0.921569
Cl62	Cl	1.026797	-0.503617	-0.782796
H63	H	0.494121	-0.442866	-0.442615
Cl64	Cl	1.101624	-0.209630	-0.781149
H65	H	1.085404	-0.235781	-0.920081
H66	H	0.494121	-0.270768	-0.271060
H67	H	1.019689	-0.792647	-0.471914
H68	H	0.633562	-0.270752	-0.271043
H69	H	0.949468	-0.920903	-0.401143
Cl70	Cl	0.917459	-0.782160	-0.393597
Cl71	Cl	1.026897	-0.931062	-0.503864
Cl72	Cl	0.917846	-0.393484	-0.781956
H73	H	0.985201	-0.919063	-0.262190
H74	H	1.184774	-0.337649	-0.793751
Cl75	Cl	0.958032	-0.248488	-0.933139
Cl76	Cl	1.103127	-0.930999	-0.210878
Cl77	Cl	1.166621	-0.466704	-0.930604
H78	H	1.082495	-0.792999	-0.234874
Cl79	Cl	0.955541	-0.780363	-0.252164
Cl80	Cl	1.170959	-0.932251	-0.463220
Cl81	Cl	1.165396	-0.781897	-0.467241
H82	H	1.183670	-0.919211	-0.335062
H83	H	1.184755	-0.338521	-0.920483
Cl84	Cl	0.917419	-0.393430	-0.931826
Cl85	Cl	1.167392	-0.465391	-0.781001
