data_functionalizedCrystal
_audit_creation_method	'MofGen! by Chris Wilmer'
_symmetry_space_group_name_H-M	'P1'
_symmetry_Int_Tables_number	1
_symmetry_cell_setting	triclinic
loop_
_symmetry_equiv_pos_as_xyz
  x,y,z
_cell_length_a	10.654556
_cell_length_b	10.654551
_cell_length_c	9.130313
_cell_angle_alpha	89.998309
_cell_angle_beta	89.998135
_cell_angle_gamma	84.486449
loop_
_atom_site_label
_atom_site_type_symbol
_atom_site_fract_x
_atom_site_fract_y
_atom_site_fract_z
O1	O	1.667835	0.176437	-0.121734
O2	O	1.302358	0.193235	-0.121748
O3	O	1.493499	0.002097	-0.121741
O4	O	1.476694	0.367575	-0.121741
O5	O	1.493486	0.002091	0.121857
O6	O	1.302345	0.193229	0.121851
O7	O	1.667822	0.176431	0.121865
Cu8	Cu	1.485082	0.184830	0.144100
Cu9	Cu	1.485098	0.184836	-0.143984
O10	O	1.476681	0.367569	0.121858
C11	C	1.255554	0.191997	0.000049
C12	C	1.116111	0.188302	0.000044
C13	C	0.919572	0.183102	-0.132731
C14	C	1.050595	0.186566	-0.132740
C15	C	1.050599	0.186560	0.132845
C16	C	0.919580	0.183087	0.132853
C17	C	1.492258	-0.044704	0.000055
C18	C	1.488566	-0.184147	0.000045
C19	C	1.486841	-0.249656	-0.132739
C20	C	1.483361	-0.380677	-0.132732
C21	C	1.483336	-0.380668	0.132853
C22	C	1.486807	-0.249649	0.132845
C23	C	1.486861	-0.249663	-0.286072
C24	C	1.483380	-0.380683	-0.286066
C25	C	1.714627	0.177669	0.000064
C26	C	1.854070	0.181364	0.000060
C27	C	1.477922	0.414370	0.000059
C28	C	1.481614	0.553813	0.000059
N29	N	1.485081	0.184824	0.346723
N30	N	1.485110	0.184832	-0.346606
C31	C	1.569747	0.100224	0.423378
C32	C	1.569759	0.100224	0.576715
C33	C	1.400434	0.269436	0.576728
C34	C	1.400417	0.269428	0.423394
H35	H	0.866246	0.181670	0.240994
H36	H	1.638700	0.031334	0.639123
C37	C	1.488685	-0.177592	0.278916
N38	N	1.490099	-0.123318	0.388943
H39	H	1.481902	-0.434016	0.240974
C40	C	1.307308	0.362493	0.661081
N41	N	1.237162	0.432585	0.724614
H42	H	1.638683	0.031333	0.360956
C43	C	1.307331	0.362557	0.339069
N44	N	1.237240	0.432718	0.275555
H45	H	1.400075	-0.203383	-0.344955
H46	H	1.103922	0.187979	-0.240872
C47	C	1.122665	0.188521	0.278909
N48	N	1.176941	0.190024	0.388927
C49	C	0.847517	0.181191	-0.278806
N50	N	0.793250	0.179746	-0.388834
C51	C	1.610607	-0.209709	-0.350342
N52	N	1.703815	-0.179616	-0.398748
H53	H	1.391787	-0.410252	-0.333661
H54	H	1.570174	-0.426971	-0.344935
