data_functionalizedCrystal
_audit_creation_method	'MofGen! by Chris Wilmer'
_symmetry_space_group_name_H-M	'P1'
_symmetry_Int_Tables_number	1
_symmetry_cell_setting	triclinic
loop_
_symmetry_equiv_pos_as_xyz
  x,y,z
_cell_length_a	13.897449
_cell_length_b	13.897447
_cell_length_c	13.032268
_cell_angle_alpha	82.850929
_cell_angle_beta	82.839289
_cell_angle_gamma	90.020357
loop_
_atom_site_label
_atom_site_type_symbol
_atom_site_fract_x
_atom_site_fract_y
_atom_site_fract_z
Zn1	Zn	1.405370	-0.453228	0.590912
Zn2	Zn	1.905370	0.046772	1.090912
Zn3	Zn	1.425757	-0.594068	0.416176
Zn4	Zn	1.925757	-0.094068	0.916176
Zn5	Zn	1.264557	-0.432791	0.416182
Zn6	Zn	1.764557	0.067209	0.916182
Zn7	Zn	1.244042	-0.614479	0.590858
Zn8	Zn	1.744042	-0.114479	1.090858
O9	O	1.334931	-0.523642	0.503532
O10	O	1.834931	-0.023642	1.003532
O11	O	1.543053	-0.471922	0.567753
O12	O	2.043053	0.028078	1.067753
O13	O	1.421491	-0.555579	0.269947
O14	O	1.921491	-0.055579	0.769947
O15	O	1.283289	-0.300524	0.439386
O16	O	1.783289	0.199476	0.939386
O17	O	1.558032	-0.575396	0.439375
O18	O	2.058032	-0.075396	0.939375
O19	O	1.386744	-0.315539	0.567759
O20	O	1.886744	0.184461	1.067759
O21	O	1.303058	-0.437090	0.269952
O22	O	1.803058	0.062910	0.769952
O23	O	1.126856	-0.456882	0.439333
O24	O	1.626856	0.043118	0.939333
O25	O	1.248325	-0.610184	0.737095
O26	O	1.748325	-0.110184	1.237095
O27	O	1.111784	-0.590367	0.567667
O28	O	1.611784	-0.090367	1.067667
O29	O	1.366852	-0.491713	0.737135
O30	O	1.866852	0.008287	1.237135
O31	O	1.401599	-0.731754	0.439323
O32	O	1.901599	-0.231754	0.939323
O33	O	1.268093	-0.746750	0.567661
O34	O	1.768093	-0.246750	1.067661
C35	C	1.084321	-0.523622	0.503496
C36	C	1.584321	-0.023622	1.003496
C37	C	0.977106	-0.523640	0.503505
C38	C	1.477106	-0.023640	1.003505
C39	C	1.334856	-0.774253	0.503508
C40	C	1.834856	-0.274253	1.003508
C41	C	1.334908	-0.881470	0.503532
C42	C	1.834908	-0.381470	1.003532
C43	C	0.890034	-0.523646	0.503522
C44	C	1.390034	-0.023646	1.003522
C45	C	0.780798	-0.523656	0.503554
C46	C	1.280798	-0.023656	1.003554
C47	C	1.334951	-0.968542	0.503556
C48	C	1.834951	-0.468542	1.003556
C49	C	1.335016	-1.077778	0.503583
C50	C	1.835016	-0.577778	1.003583
C51	C	1.586520	-0.523662	0.503569
C52	C	2.086520	-0.023662	1.003569
C53	C	1.693732	-0.523670	0.503585
C54	C	2.193732	-0.023670	1.003585
C55	C	1.303026	-0.555505	0.776091
C56	C	1.803026	-0.055505	1.276091
C57	C	1.289429	-0.569083	0.892239
C58	C	1.789429	-0.069083	1.392239
C59	C	1.335031	-0.272054	0.503579
C60	C	1.835031	0.227946	1.003579
C61	C	1.335073	-0.164843	0.503599
C62	C	1.835073	0.335157	1.003599
C63	C	1.366768	-0.491832	0.232034
C64	C	1.866768	0.008168	0.732034
C65	C	1.380552	-0.477983	0.115886
C66	C	1.880552	0.022017	0.615886
C67	C	1.342012	-0.516520	0.944041
C68	C	1.842012	-0.016520	1.444041
C69	C	1.327961	-0.530553	1.064087
C70	C	1.827961	-0.030553	1.564087
H71	H	1.397430	-0.461127	0.899518
H72	H	1.897430	0.038873	1.399518
C73	C	1.214556	-0.643915	0.952375
C74	C	1.714556	-0.143915	1.452375
C75	C	1.106637	-0.634306	0.937457
C76	C	1.606637	-0.134306	1.437457
C77	C	1.031762	-0.709139	0.997591
C78	C	1.531762	-0.209139	1.497591
C79	C	1.064805	-0.793582	1.072642
C80	C	1.564805	-0.293582	1.572642
C81	C	1.172729	-0.803194	1.087563
C82	C	1.672729	-0.303194	1.587563
C83	C	1.247605	-0.728361	1.027430
C84	C	1.747605	-0.228361	1.527430
H85	H	1.082172	-0.571793	0.881897
H86	H	1.582172	-0.071793	1.381897
H87	H	0.951869	-0.702023	0.986545
H88	H	1.451869	-0.202023	1.486545
H89	H	1.009378	-0.848978	1.117156
H90	H	1.509378	-0.348978	1.617156
H91	H	1.197195	-0.865707	1.143124
H92	H	1.697195	-0.365707	1.643124
H93	H	1.327497	-0.735477	1.038476
H94	H	1.827497	-0.235477	1.538476
C95	C	1.455429	-0.403147	1.055754
C96	C	1.955429	0.096853	1.555754
C97	C	1.563348	-0.412757	1.070672
C98	C	2.063348	0.087243	1.570672
C99	C	1.638223	-0.337923	1.010539
C100	C	2.138223	0.162077	1.510539
C101	C	1.605180	-0.253481	0.935488
C102	C	2.105180	0.246519	1.435488
C103	C	1.497256	-0.243868	0.920566
C104	C	1.997256	0.256132	1.420566
C105	C	1.422381	-0.318701	0.980699
C106	C	1.922381	0.181299	1.480699
H107	H	1.587813	-0.475269	1.126232
H108	H	2.087813	0.024731	1.626232
H109	H	1.718116	-0.345040	1.021585
H110	H	2.218116	0.154960	1.521585
H111	H	1.660608	-0.198085	0.890973
H112	H	2.160608	0.301915	1.390973
H113	H	1.472791	-0.181355	0.865005
H114	H	1.972791	0.318645	1.365005
H115	H	1.342488	-0.311584	0.969653
H116	H	1.842488	0.188416	1.469653
C117	C	1.253084	-0.605388	1.124219
C118	C	1.753084	-0.105388	1.624219
C119	C	1.286127	-0.689831	1.199270
C120	C	1.786127	-0.189831	1.699270
C121	C	1.211252	-0.764664	1.259403
C122	C	1.711252	-0.264664	1.759403
C123	C	1.103333	-0.755055	1.244485
C124	C	1.603333	-0.255055	1.744485
C125	C	1.070285	-0.670609	1.169431
C126	C	1.570285	-0.170609	1.669431
C127	C	1.145160	-0.595776	1.109298
C128	C	1.645160	-0.095776	1.609298
H129	H	1.366020	-0.696947	1.210316
H130	H	1.866020	-0.196947	1.710316
H131	H	1.235718	-0.827177	1.314964
H132	H	1.735718	-0.327177	1.814964
H133	H	1.047906	-0.810451	1.289000
H134	H	1.547906	-0.310451	1.789000
H135	H	0.990392	-0.663493	1.158385
H136	H	1.490392	-0.163493	1.658385
H137	H	1.120695	-0.533263	1.053737
H138	H	1.620695	-0.033263	1.553737
