data_functionalizedCrystal
_audit_creation_method	'MofGen! by Chris Wilmer'
_symmetry_space_group_name_H-M	'P1'
_symmetry_Int_Tables_number	1
_symmetry_cell_setting	triclinic
loop_
_symmetry_equiv_pos_as_xyz
  x,y,z
_cell_length_a	8.559649
_cell_length_b	10.489741
_cell_length_c	7.681481
_cell_angle_alpha	84.199479
_cell_angle_beta	94.913240
_cell_angle_gamma	77.158919
loop_
_atom_site_label
_atom_site_type_symbol
_atom_site_fract_x
_atom_site_fract_y
_atom_site_fract_z
O1	O	2.104681	-0.029684	-0.146400
O2	O	1.640234	0.036114	-0.146410
O3	O	1.883027	-0.183496	-0.146394
O4	O	1.861888	0.189927	-0.146416
O5	O	1.912910	-0.210581	0.146465
O6	O	1.670117	0.009029	0.146450
O7	O	2.134565	-0.056769	0.146459
Zn8	Zn	1.907085	-0.028170	0.192952
Zn9	Zn	1.867713	0.007516	-0.192903
O10	O	1.891771	0.162842	0.146444
C11	C	1.595703	0.027558	0.000019
C12	C	1.418493	0.042401	0.000015
C13	C	1.896372	-0.244402	0.000034
C14	C	1.891596	-0.385529	0.000031
C15	C	1.737113	-0.437401	0.000015
C16	C	1.824822	-0.550562	0.144412
C17	C	1.795396	-0.523837	-0.144325
C18	C	1.979381	-0.496842	0.144547
C19	C	1.949920	-0.470093	-0.144320
C20	C	2.037746	-0.583242	0.000112
C21	C	2.179095	-0.048212	0.000027
C22	C	2.356304	-0.063054	0.000019
C23	C	1.878426	0.223748	0.000011
C24	C	1.883201	0.364876	0.000003
N25	N	1.933968	-0.052526	0.456288
N26	N	1.840843	0.031861	-0.456239
H27	H	1.610114	-0.374389	0.000158
O28	O	2.072304	-0.481621	0.290169
C29	C	2.201764	-0.429263	0.238650
H30	H	2.168793	-0.375426	0.099301
H31	H	2.227709	-0.357338	0.332864
H32	H	2.313472	-0.512682	0.242127
H33	H	1.745782	0.117995	0.468558
H34	H	1.771914	-0.585981	0.266486
O35	O	2.047300	-0.155441	0.545810
C36	C	2.015105	-0.274843	0.500937
H37	H	1.940010	-0.256335	0.367046
H38	H	2.133634	-0.348840	0.494800
H39	H	1.945641	-0.315906	0.604676
O40	O	1.320500	0.163772	-0.000073
C41	C	1.413904	0.258833	-0.000028
H42	H	1.532160	0.219562	-0.055463
H43	H	1.344634	0.353167	-0.085060
H44	H	1.440447	0.280639	0.140471
H45	H	2.002772	-0.434635	-0.266400
O46	O	1.454746	-0.184226	0.000104
C47	C	1.615696	-0.172568	0.000059
H48	H	1.628732	-0.078213	0.055499
H49	H	1.699058	-0.260992	0.085087
H50	H	1.649448	-0.169072	-0.140441
H51	H	1.717555	-0.536625	-0.266413
O52	O	2.189364	-0.658182	-0.000141
C53	C	2.197307	-0.722827	-0.152510
H54	H	2.097764	-0.666325	-0.258526
H55	H	2.319670	-0.727292	-0.202803
H56	H	2.180912	-0.827137	-0.119414
