data_functionalizedCrystal
_audit_creation_method	'MofGen! by Chris Wilmer'
_symmetry_space_group_name_H-M	'P1'
_symmetry_Int_Tables_number	1
_symmetry_cell_setting	triclinic
loop_
_symmetry_equiv_pos_as_xyz
  x,y,z
_cell_length_a	25.639239
_cell_length_b	17.639504
_cell_length_c	25.639234
_cell_angle_alpha	101.235352
_cell_angle_beta	89.978894
_cell_angle_gamma	78.779592
loop_
_atom_site_label
_atom_site_type_symbol
_atom_site_fract_x
_atom_site_fract_y
_atom_site_fract_z
Zn1	Zn	-0.046912	-1.208400	-0.457509
Zn2	Zn	0.286421	-0.875066	-0.124176
Zn3	Zn	0.619755	-0.541733	0.209158
Zn4	Zn	-0.134349	-1.208290	-0.370058
Zn5	Zn	0.198984	-0.874956	-0.036725
Zn6	Zn	0.532317	-0.541623	0.296608
Zn7	Zn	-0.064557	-1.076222	-0.352378
Zn8	Zn	0.268776	-0.742888	-0.019045
Zn9	Zn	0.602109	-0.409555	0.314288
Zn10	Zn	-0.151973	-1.076133	-0.439757
Zn11	Zn	0.181361	-0.742800	-0.106423
Zn12	Zn	0.514694	-0.409466	0.226910
O13	O	-0.099448	-1.142261	-0.404926
O14	O	0.233886	-0.808928	-0.071592
O15	O	0.567219	-0.475594	0.261741
O16	O	-0.043751	-1.319010	-0.460737
O17	O	0.289582	-0.985677	-0.127403
O18	O	0.622916	-0.652343	0.205930
O19	O	-0.125100	-1.190761	-0.294547
O20	O	0.208233	-0.857428	0.038787
O21	O	0.541566	-0.524095	0.372120
O22	O	0.010960	-1.093839	-0.366354
O23	O	0.344293	-0.760505	-0.033021
O24	O	0.677626	-0.427172	0.300312
O25	O	-0.107991	-1.318929	-0.396487
O26	O	0.225343	-0.985596	-0.063154
O27	O	0.558676	-0.652262	0.270179
O28	O	0.023924	-1.190949	-0.443593
O29	O	0.357257	-0.857616	-0.110260
O30	O	0.690590	-0.524282	0.223073
O31	O	-0.073824	-1.093732	-0.281557
O32	O	0.259509	-0.760398	0.051776
O33	O	0.592842	-0.427065	0.385109
O34	O	-0.090913	-0.965585	-0.349141
O35	O	0.242420	-0.632252	-0.015808
O36	O	0.575754	-0.298918	0.317526
O37	O	-0.138027	-1.093688	-0.515278
O38	O	0.195306	-0.760354	-0.181945
O39	O	0.528640	-0.427021	0.151389
O40	O	-0.155137	-0.965520	-0.413337
O41	O	0.178197	-0.632187	-0.080004
O42	O	0.511530	-0.298853	0.253329
O43	O	-0.060839	-1.190863	-0.528320
O44	O	0.272494	-0.857530	-0.194987
O45	O	0.605827	-0.524197	0.138346
O46	O	-0.209863	-1.190676	-0.379274
O47	O	0.123470	-0.857342	-0.045941
O48	O	0.456803	-0.524009	0.287393
O49	O	-0.222811	-1.093581	-0.430481
O50	O	0.110522	-0.760247	-0.097148
O51	O	0.443856	-0.426914	0.236186
C52	C	-0.126852	-0.936869	-0.377395
C53	C	0.206481	-0.603535	-0.044061
C54	C	0.539814	-0.270202	0.289272
C55	C	-0.138589	-0.849001	-0.365629
C56	C	0.194745	-0.515668	-0.032296
C57	C	0.528078	-0.182334	0.301037
C58	C	-0.010239	-0.560197	-0.494427
C59	C	0.323095	-0.226864	-0.161094
C60	C	0.656428	0.106470	0.172240
C61	C	-0.021280	-0.477632	-0.483361
C62	C	0.312053	-0.144299	-0.150027
C63	C	0.645387	0.189035	0.183306
C64	C	-0.088062	-0.477570	-0.416362
C65	C	0.245272	-0.144236	-0.083028
C66	C	0.578605	0.189097	0.250305
C67	C	-0.077028	-0.560136	-0.427424
C68	C	0.256305	-0.226803	-0.094090
C69	C	0.589639	0.106530	0.239243
C70	C	-0.038115	-0.601444	-0.466457
C71	C	0.295218	-0.268110	-0.133123
C72	C	0.628551	0.065223	0.200210
C73	C	-0.104905	-0.601383	-0.399454
C74	C	0.228429	-0.268050	-0.066120
C75	C	0.561762	0.065284	0.267213
C76	C	-0.093870	-0.683943	-0.410513
C77	C	0.239464	-0.350609	-0.077180
C78	C	0.572797	-0.017276	0.256154
C79	C	-0.054958	-0.725256	-0.449543
C80	C	0.278376	-0.391922	-0.116210
C81	C	0.611709	-0.058589	0.217124
C82	C	-0.027080	-0.684003	-0.477516
C83	C	0.306253	-0.350670	-0.144183
C84	C	0.639586	-0.017337	0.189151
C85	C	-0.143814	-0.560074	-0.360418
C86	C	0.189519	-0.226741	-0.027085
C87	C	0.522852	0.106592	0.306248
C88	C	-0.171691	-0.601321	-0.332448
C89	C	0.161642	-0.267988	0.000885
C90	C	0.494976	0.065346	0.334219
C91	C	-0.160659	-0.683882	-0.343510
C92	C	0.172675	-0.350549	-0.010177
C93	C	0.506008	-0.017215	0.323157
C94	C	-0.121747	-0.725195	-0.382540
C95	C	0.211586	-0.391862	-0.049207
C96	C	0.544920	-0.058528	0.284127
C97	C	-0.188536	-0.725134	-0.315537
C98	C	0.144797	-0.391801	0.017797
C99	C	0.478130	-0.058468	0.351130
C100	C	-0.177501	-0.807694	-0.326596
C101	C	0.155832	-0.474361	0.006737
C102	C	0.489166	-0.141027	0.340070
C103	C	-0.110712	-0.807754	-0.393599
C104	C	0.222621	-0.474421	-0.060266
C105	C	0.555955	-0.141088	0.273067
C106	C	-0.235308	-1.142128	-0.404884
C107	C	0.098025	-0.808795	-0.071551
C108	C	0.431359	-0.475461	0.261783
C109	C	-0.293420	-1.142144	-0.404893
C110	C	0.039913	-0.808810	-0.071560
C111	C	0.373247	-0.475477	0.261773
C112	C	-0.646995	-1.192950	-0.378337
C113	C	-0.313662	-0.859617	-0.045003
C114	C	0.019671	-0.526283	0.288330
C115	C	-0.701596	-1.192981	-0.378348
C116	C	-0.368262	-0.859647	-0.045015
C117	C	-0.034929	-0.526314	0.288319
O118	O	-0.724079	-1.236040	-0.355724
O119	O	-0.390746	-0.902707	-0.022391
O120	O	-0.057413	-0.569374	0.310943
N121	N	-0.735668	-1.142400	-0.404979
N122	N	-0.402335	-0.809067	-0.071646
N123	N	-0.069002	-0.475733	0.261688
C124	C	-0.715138	-1.091791	-0.431605
C125	C	-0.381804	-0.758458	-0.098272
C126	C	-0.048471	-0.425124	0.235062
O127	O	-0.749133	-1.048771	-0.454258
O128	O	-0.415799	-0.715438	-0.120925
O129	O	-0.082466	-0.382105	0.212408
C130	C	-0.660538	-1.091765	-0.431597
C131	C	-0.327204	-0.758431	-0.098264
C132	C	0.006129	-0.425098	0.235070
C133	C	-0.626468	-1.142343	-0.404960
C134	C	-0.293135	-0.809010	-0.071626
C135	C	0.040198	-0.475677	0.261707
C136	C	-0.612926	-1.243525	-0.351702
C137	C	-0.279593	-0.910192	-0.018369
C138	C	0.053740	-0.576858	0.314965
C139	C	-0.558330	-1.243493	-0.351690
C140	C	-0.224997	-0.910160	-0.018357
C141	C	0.108337	-0.576827	0.314976
C142	C	-0.537803	-1.192886	-0.378313
C143	C	-0.204469	-0.859553	-0.044980
C144	C	0.128864	-0.526220	0.288354
C145	C	-0.571872	-1.142311	-0.404948
C146	C	-0.238539	-0.808978	-0.071614
C147	C	0.094795	-0.475645	0.261719
C148	C	-0.640008	-1.041160	-0.458226
C149	C	-0.306674	-0.707827	-0.124893
C150	C	0.026659	-0.374494	0.208441
C151	C	-0.585403	-1.041139	-0.458216
C152	C	-0.252070	-0.707806	-0.124882
C153	C	0.081263	-0.374472	0.208451
C154	C	-0.551334	-1.091717	-0.431578
C155	C	-0.218000	-0.758384	-0.098245
C156	C	0.115333	-0.425051	0.235088
C157	C	-0.496749	-1.091673	-0.431559
C158	C	-0.163415	-0.758339	-0.098225
C159	C	0.169918	-0.425006	0.235108
N160	N	-0.462676	-1.142253	-0.404928
N161	N	-0.129342	-0.808920	-0.071594
N162	N	0.203991	-0.475587	0.261739
C163	C	-0.483203	-1.192860	-0.378305
C164	C	-0.149870	-0.859527	-0.044972
C165	C	0.183464	-0.526194	0.288362
C166	C	-0.829800	-1.091850	-0.431621
C167	C	-0.496467	-0.758517	-0.098288
C168	C	-0.163134	-0.425184	0.235046
C169	C	-0.884400	-1.091872	-0.431626
C170	C	-0.551066	-0.758539	-0.098293
C171	C	-0.217733	-0.425205	0.235040
C172	C	-0.870854	-1.193063	-0.378370
C173	C	-0.537520	-0.859730	-0.045037
C174	C	-0.204187	-0.526396	0.288297
C175	C	-0.816254	-1.193037	-0.378362
C176	C	-0.482921	-0.859704	-0.045028
C177	C	-0.149587	-0.526370	0.288305
C178	C	-0.795728	-1.142431	-0.404990
C179	C	-0.462394	-0.809098	-0.071657
C180	C	-0.129061	-0.475765	0.261677
C181	C	-0.368547	-1.192789	-0.378282
C182	C	-0.035214	-0.859456	-0.044948
C183	C	0.298119	-0.526122	0.288385
C184	C	-0.313947	-1.192750	-0.378270
C185	C	0.019386	-0.859417	-0.044937
C186	C	0.352719	-0.526084	0.288396
C187	C	-0.327498	-1.091563	-0.431529
C188	C	0.005836	-0.758229	-0.098196
C189	C	0.339169	-0.424896	0.235138
C190	C	-0.382093	-1.091598	-0.431538
C191	C	-0.048760	-0.758265	-0.098205
C192	C	0.284573	-0.424931	0.235128
C193	C	-0.402616	-1.142218	-0.404914
C194	C	-0.069283	-0.808884	-0.071580
C195	C	0.264051	-0.475551	0.261753
O196	O	-0.474227	-1.048637	-0.454173
O197	O	-0.140893	-0.715304	-0.120840
O198	O	0.192440	-0.381971	0.212494
O199	O	-0.449201	-1.235880	-0.355661
O200	O	-0.115868	-0.902547	-0.022328
O201	O	0.217465	-0.569213	0.311005
C202	C	0.036946	-1.142416	-0.404982
C203	C	0.370279	-0.809083	-0.071649
C204	C	0.703613	-0.475749	0.261685
C205	C	0.095069	-1.142482	-0.405006
C206	C	0.428402	-0.809149	-0.071673
C207	C	0.761736	-0.475815	0.261661
C208	C	-0.099431	-1.142278	-0.541301
C209	C	0.233903	-0.808945	-0.207968
C210	C	0.567236	-0.475611	0.125366
C211	C	-0.099423	-1.142285	-0.599416
C212	C	0.233910	-0.808952	-0.266083
C213	C	0.567243	-0.475618	0.067251
C214	C	-0.071929	-0.348455	-0.432563
C215	C	0.261404	-0.015122	-0.099229
C216	C	0.594738	0.318211	0.234104
C217	C	-0.060183	-0.436323	-0.444335
C218	C	0.273151	-0.102990	-0.111002
C219	C	0.606484	0.230344	0.222332
C220	C	-0.139542	-1.091738	-0.843820
C221	C	0.193791	-0.758405	-0.510486
C222	C	0.527124	-0.425072	-0.177153
C223	C	-0.139556	-1.091725	-0.789214
C224	C	0.193778	-0.758391	-0.455880
C225	C	0.527111	-0.425058	-0.122547
O226	O	-0.173728	-1.048672	-0.755194
O227	O	0.159605	-0.715339	-0.421860
O228	O	0.492938	-0.382006	-0.088527
N229	N	-0.099377	-1.142315	-0.768694
N230	N	0.233956	-0.808982	-0.435361
N231	N	0.567289	-0.475649	-0.102027
C232	C	-0.059179	-1.192917	-0.802783
C233	C	0.274154	-0.859584	-0.469450
C234	C	0.607487	-0.526251	-0.136116
O235	O	-0.025005	-1.235947	-0.780315
O236	O	0.308328	-0.902613	-0.446982
O237	O	0.641661	-0.569280	-0.113649
C238	C	-0.059164	-1.192927	-0.857388
C239	C	0.274169	-0.859593	-0.524054
C240	C	0.607503	-0.526260	-0.190721
C241	C	-0.099348	-1.142338	-0.877905
C242	C	0.233985	-0.809005	-0.544571
C243	C	0.567318	-0.475672	-0.211238
C244	C	-0.179723	-1.041154	-0.864337
C245	C	0.153611	-0.707820	-0.531004
C246	C	0.486944	-0.374487	-0.197671
C247	C	-0.179710	-1.041169	-0.918940
C248	C	0.153624	-0.707835	-0.585607
C249	C	0.486957	-0.374502	-0.252273
C250	C	-0.139516	-1.091769	-0.953025
C251	C	0.193818	-0.758435	-0.619692
C252	C	0.527151	-0.425102	-0.286358
C253	C	-0.099335	-1.142353	-0.932507
C254	C	0.233998	-0.809020	-0.599174
C255	C	0.567332	-0.475687	-0.265841
C256	C	-0.018965	-1.243524	-0.891475
C257	C	0.314369	-0.910191	-0.558142
C258	C	0.647702	-0.576857	-0.224809
C259	C	-0.018953	-1.243529	-0.946083
C260	C	0.314381	-0.910195	-0.612750
C261	C	0.647714	-0.576862	-0.279416
C262	C	-0.059137	-1.192940	-0.966600
C263	C	0.274196	-0.859607	-0.633267
C264	C	0.607530	-0.526274	-0.299933
C265	C	-0.059128	-1.192968	-1.021195
C266	C	0.274205	-0.859635	-0.687862
C267	C	0.607539	-0.526302	-0.354528
N268	N	-0.099307	-1.142378	-1.041715
N269	N	0.234027	-0.809044	-0.708381
N270	N	0.567360	-0.475711	-0.375048
C271	C	-0.139500	-1.091778	-1.007629
C272	C	0.193833	-0.758445	-0.674296
C273	C	0.527166	-0.425111	-0.340963
C274	C	-0.059214	-1.192893	-0.688109
C275	C	0.274119	-0.859560	-0.354776
C276	C	0.607453	-0.526226	-0.021443
C277	C	-0.059231	-1.192888	-0.633506
C278	C	0.274102	-0.859555	-0.300173
C279	C	0.607436	-0.526222	0.033160
C280	C	-0.139607	-1.091694	-0.619940
C281	C	0.193726	-0.758361	-0.286607
C282	C	0.527060	-0.425028	0.046726
C283	C	-0.139592	-1.091704	-0.674545
C284	C	0.193742	-0.758370	-0.341211
C285	C	0.527075	-0.425037	-0.007878
C286	C	-0.099393	-1.142302	-0.708629
C287	C	0.233941	-0.808969	-0.375295
C288	C	0.567274	-0.475636	-0.041962
C289	C	-0.139470	-1.091814	-1.122299
C290	C	0.193863	-0.758481	-0.788966
C291	C	0.527197	-0.425147	-0.455633
C292	C	-0.139454	-1.091836	-1.176908
C293	C	0.193879	-0.758503	-0.843574
C294	C	0.527212	-0.425169	-0.510241
C295	C	-0.059077	-1.193027	-1.190469
C296	C	0.274256	-0.859693	-0.857135
C297	C	0.607590	-0.526360	-0.523802
C298	C	-0.059094	-1.193008	-1.135865
C299	C	0.274239	-0.859675	-0.802532
C300	C	0.607573	-0.526341	-0.469199
C301	C	-0.099293	-1.142395	-1.101781
C302	C	0.234040	-0.809062	-0.768448
C303	C	0.567374	-0.475729	-0.435115
O304	O	-0.024972	-1.235996	-1.055246
O305	O	0.308362	-0.902663	-0.721913
O306	O	0.641695	-0.569330	-0.388579
O307	O	-0.173665	-1.048748	-1.030104
O308	O	0.159668	-0.715415	-0.696770
O309	O	0.493002	-0.382082	-0.363437
C310	C	-0.099421	-1.142290	-0.269087
C311	C	0.233912	-0.808956	0.064246
C312	C	0.567246	-0.475623	0.397580
C313	C	-0.099260	-1.142436	-0.210993
C314	C	0.234073	-0.809102	0.122341
C315	C	0.567406	-0.475769	0.455674
H316	H	-0.045972	-0.792481	-0.458545
H317	H	0.287361	-0.459148	-0.125212
H318	H	0.620695	-0.125814	0.208122
H319	H	-0.079027	-0.841389	-0.425386
H320	H	0.254306	-0.508056	-0.092052
H321	H	0.587639	-0.174723	0.241281
Br322	Br	-0.396391	-1.261488	-0.342148
Br323	Br	-0.063058	-0.928154	-0.008815
Br324	Br	0.270276	-0.594821	0.324519
Br325	Br	-0.194129	-1.023045	-0.702383
Br326	Br	0.139205	-0.689712	-0.369050
Br327	Br	0.472538	-0.356379	-0.035717
Br328	Br	-0.194158	-1.023024	-0.573672
Br329	Br	0.139176	-0.689691	-0.240338
Br330	Br	0.472509	-0.356358	0.092995
H331	H	-0.026479	-1.234103	-0.715859
H332	H	0.306854	-0.900769	-0.382525
H333	H	0.640188	-0.567436	-0.049192
Br334	Br	0.025724	-0.740071	-0.530496
Br335	Br	0.359058	-0.406738	-0.197162
Br336	Br	0.692391	-0.073404	0.136171
Br337	Br	0.042566	-0.616265	-0.547407
Br338	Br	0.375899	-0.282931	-0.214073
Br339	Br	0.709233	0.050402	0.119260
Br340	Br	-0.299628	-1.022888	-0.467661
Br341	Br	0.033705	-0.689555	-0.134327
Br342	Br	0.367039	-0.356221	0.199006
H343	H	-0.788517	-1.234223	-0.356672
H344	H	-0.455184	-0.900889	-0.023338
H345	H	-0.121850	-0.567556	0.309995
Br346	Br	-0.241336	-0.669065	-0.262558
Br347	Br	0.091997	-0.335732	0.070775
Br348	Br	0.425331	-0.002398	0.404108
Br349	Br	-0.224496	-0.545254	-0.279474
Br350	Br	0.108837	-0.211921	0.053859
Br351	Br	0.442171	0.121412	0.387193
Br352	Br	-0.193996	-1.023180	-1.204749
Br353	Br	0.139337	-0.689847	-0.871416
Br354	Br	0.472671	-0.356513	-0.538082
H355	H	-0.026354	-1.234226	-1.218231
H356	H	0.306980	-0.900893	-0.884897
H357	H	0.640313	-0.567560	-0.551564
H358	H	-0.409834	-1.050415	-0.453230
H359	H	-0.076501	-0.717082	-0.119897
H360	H	0.256832	-0.383749	0.213436
H361	H	0.001426	-0.444052	-0.506138
H362	H	0.334760	-0.110719	-0.172805
H363	H	0.668093	0.222615	0.160529
H364	H	-0.119743	-0.443926	-0.384579
H365	H	0.213591	-0.110593	-0.051246
H366	H	0.546924	0.222741	0.282087
H367	H	-0.212454	-0.999944	-0.836590
H368	H	0.120879	-0.666611	-0.503256
H369	H	0.454213	-0.333278	-0.169923
Br370	Br	0.035575	-1.312183	-0.863645
Br371	Br	0.368908	-0.978850	-0.530312
Br372	Br	0.702242	-0.645517	-0.196978
H373	H	-0.172200	-1.050593	-1.094553
H374	H	0.161133	-0.717260	-0.761220
H375	H	0.494467	-0.383927	-0.427886
H376	H	-0.530593	-1.284681	-0.330002
H377	H	-0.197259	-0.951347	0.003331
H378	H	0.136074	-0.618014	0.336665
Br379	Br	-0.267713	-1.261396	-0.342116
Br380	Br	0.065621	-0.928062	-0.008783
Br381	Br	0.398954	-0.594729	0.324551
H382	H	-0.152786	-0.492849	-0.351403
H383	H	0.180547	-0.159516	-0.018070
H384	H	0.513881	0.173818	0.315263
Br385	Br	-0.930632	-1.023215	-0.467769
Br386	Br	-0.597299	-0.689882	-0.134436
Br387	Br	-0.263965	-0.356549	0.198897
Br388	Br	0.035612	-1.312192	-0.992336
Br389	Br	0.368945	-0.978859	-0.659002
Br390	Br	0.702279	-0.645525	-0.325669
Br391	Br	-0.215338	-0.863677	-0.288641
Br392	Br	0.117995	-0.530343	0.044693
Br393	Br	0.451329	-0.197010	0.378026
H394	H	-0.887576	-1.234273	-0.356694
H395	H	-0.554243	-0.900939	-0.023361
H396	H	-0.220909	-0.567606	0.309972
Br397	Br	-0.234249	-0.972510	-0.946775
Br398	Br	0.099085	-0.639177	-0.613442
Br399	Br	0.432418	-0.305843	-0.280109
Br400	Br	-0.004700	-1.261560	-0.605671
Br401	Br	0.328633	-0.928227	-0.272337
Br402	Br	0.661966	-0.594893	0.060996
H403	H	-0.568694	-0.999931	-0.479902
H404	H	-0.235361	-0.666597	-0.146568
H405	H	0.097973	-0.333264	0.186765
Br406	Br	-0.801950	-1.023159	-0.467759
Br407	Br	-0.468617	-0.689826	-0.134426
Br408	Br	-0.135283	-0.356493	0.198908
H409	H	-0.026376	-1.234207	-1.119161
H410	H	0.306958	-0.900873	-0.785827
H411	H	0.640291	-0.567540	-0.452494
H412	H	-0.667739	-0.999970	-0.479914
H413	H	-0.334406	-0.666637	-0.146581
H414	H	-0.001072	-0.333303	0.186753
Br415	Br	-0.640773	-1.312217	-0.315568
Br416	Br	-0.307439	-0.978884	0.017766
Br417	Br	0.025894	-0.645550	0.351099
