data_functionalizedCrystal
_audit_creation_method	'MofGen! by Chris Wilmer'
_symmetry_space_group_name_H-M	'P1'
_symmetry_Int_Tables_number	1
_symmetry_cell_setting	triclinic
loop_
_symmetry_equiv_pos_as_xyz
  x,y,z
_cell_length_a	16.625548
_cell_length_b	12.645330
_cell_length_c	12.645323
_cell_angle_alpha	89.975130
_cell_angle_beta	89.977535
_cell_angle_gamma	90.018760
loop_
_atom_site_label
_atom_site_type_symbol
_atom_site_fract_x
_atom_site_fract_y
_atom_site_fract_z
Zn1	Zn	1.232722	-0.422001	-0.599440
Zn2	Zn	1.232632	-0.599289	-0.422180
Zn3	Zn	1.097880	-0.422043	-0.422185
Zn4	Zn	1.097866	-0.599226	-0.599396
O5	O	1.165275	-0.510640	-0.510801
O6	O	1.345543	-0.445527	-0.575943
O7	O	1.214725	-0.575821	-0.273834
O8	O	1.115810	-0.273690	-0.445719
O9	O	1.345477	-0.575780	-0.445711
O10	O	1.214879	-0.273659	-0.575948
O11	O	1.115723	-0.445599	-0.273837
O12	O	0.985045	-0.445538	-0.445677
O13	O	1.115787	-0.575673	-0.747750
O14	O	0.985035	-0.575714	-0.575873
O15	O	1.214865	-0.445466	-0.747782
O16	O	1.214712	-0.747628	-0.445668
O17	O	1.115699	-0.747582	-0.575868
C18	C	0.955784	-0.510624	-0.510771
C19	C	0.866163	-0.510644	-0.510783
C20	C	0.537987	-0.510650	-0.510829
C21	C	0.629296	-0.510646	-0.510813
C22	C	0.702072	-0.510648	-0.510805
C23	C	0.793387	-0.510642	-0.510791
C24	C	1.165216	-0.786069	-0.510786
C25	C	1.165265	-0.903899	-0.510815
C26	C	1.103233	-1.071478	-0.592976
C27	C	1.102916	-0.948919	-0.592712
C28	C	1.142260	-0.948494	-0.399093
C29	C	1.141882	-1.071092	-0.399592
C30	C	1.250681	-1.070987	-0.539469
C31	C	1.250157	-0.948380	-0.541912
C32	C	1.375584	-0.510656	-0.510831
C33	C	1.465205	-0.510662	-0.510844
C34	C	1.165334	-0.510558	-0.787306
C35	C	1.165360	-0.510523	-0.905136
C36	C	1.165356	-0.234134	-0.510839
C37	C	1.165391	-0.116304	-0.510855
C38	C	1.102837	-0.592050	-1.072680
C39	C	1.103001	-0.592453	-0.950120
C40	C	1.250318	-0.540839	-0.949656
C41	C	1.249975	-0.541350	-1.072254
C42	C	1.143727	-0.398223	-1.072334
C43	C	1.141832	-0.398896	-0.949728
C44	C	1.165262	-0.510645	-0.235371
C45	C	1.165393	-0.510381	-0.117541
H46	H	1.117309	-0.918765	-0.675553
Cl47	Cl	1.207047	-0.299984	-0.902469
H48	H	1.082854	-0.370589	-1.103239
Cl49	Cl	1.125129	-0.720813	-0.904853
Cl50	Cl	1.278326	-0.667935	-1.116432
H51	H	1.040398	-1.102381	-0.574261
H52	H	1.039686	-0.919686	-0.573755
Cl53	Cl	1.125244	-1.116891	-0.721300
Cl54	Cl	1.005735	-0.563159	-0.903641
Cl55	Cl	1.045622	-1.115397	-0.362169
Cl56	Cl	1.324332	-0.453441	-1.118080
Cl57	Cl	1.279160	-0.666098	-0.902279
Cl58	Cl	1.283080	-1.118603	-0.663112
Cl59	Cl	1.208735	-1.116885	-0.301895
H60	H	1.298907	-0.917728	-0.486455
Cl61	Cl	1.047001	-0.901245	-0.360990
H62	H	1.186098	-0.919335	-0.336234
Cl63	Cl	1.324212	-0.451908	-0.904677
Cl64	Cl	1.276946	-0.903374	-0.668856
Cl65	Cl	1.322182	-1.115762	-0.447142
Cl66	Cl	1.214071	-0.304281	-1.117127
Cl67	Cl	1.005277	-0.563039	-1.118175
H68	H	1.117000	-0.674677	-1.103499
Cl69	Cl	1.045298	-0.363600	-0.904816
