data_functionalizedCrystal
_audit_creation_method	'MofGen! by Chris Wilmer'
_symmetry_space_group_name_H-M	'P1'
_symmetry_Int_Tables_number	1
_symmetry_cell_setting	triclinic
loop_
_symmetry_equiv_pos_as_xyz
  x,y,z
_cell_length_a	15.995300
_cell_length_b	15.995350
_cell_length_c	15.186229
_cell_angle_alpha	89.998487
_cell_angle_beta	89.995056
_cell_angle_gamma	83.482091
loop_
_atom_site_label
_atom_site_type_symbol
_atom_site_fract_x
_atom_site_fract_y
_atom_site_fract_z
O1	O	1.111011	0.107725	-0.073256
O2	O	1.611011	0.607725	0.426744
O3	O	0.867230	0.121096	-0.073251
O4	O	1.367230	0.621096	0.426749
O5	O	0.995784	-0.007478	-0.073253
O6	O	1.495784	0.492522	0.426747
O7	O	0.982456	0.236299	-0.073254
O8	O	1.482456	0.736299	0.426746
O9	O	0.995775	-0.007480	0.073204
O10	O	1.495775	0.492520	0.573204
O11	O	0.867221	0.121095	0.073207
O12	O	1.367221	0.621095	0.573207
O13	O	1.111002	0.107723	0.073201
O14	O	1.611002	0.607723	0.573201
Zn15	Zn	0.989110	0.114408	0.096457
Zn16	Zn	1.489110	0.614408	0.596457
Zn17	Zn	0.989121	0.114411	-0.096507
Zn18	Zn	1.489121	0.614411	0.403493
O19	O	0.982448	0.236298	0.073203
O20	O	1.482448	0.736298	0.573203
C21	C	0.836030	0.120550	-0.000021
C22	C	1.336030	0.620550	0.499979
C23	C	0.743077	0.118915	-0.000019
C24	C	1.243077	0.618915	0.499981
C25	C	0.995229	-0.038674	-0.000026
C26	C	1.495229	0.461326	0.499974
C27	C	0.993577	-0.131624	-0.000031
C28	C	1.493577	0.368376	0.499969
C29	C	0.572894	0.115896	-0.000026
C30	C	1.072894	0.615896	0.499974
C31	C	0.525428	0.207443	-0.000024
C32	C	1.025428	0.707443	0.499976
C33	C	0.428740	0.205773	-0.000359
C34	C	0.928740	0.705773	0.499641
C35	C	0.405337	0.112924	-0.000032
C36	C	0.905337	0.612924	0.499968
C37	C	0.446475	0.067505	-0.083501
C38	C	0.946475	0.567505	0.416499
C39	C	0.543108	0.069821	-0.083568
C40	C	1.043108	0.569821	0.416432
C41	C	0.543378	0.068464	0.082987
C42	C	1.043378	0.568464	0.582987
C43	C	0.446433	0.068472	0.084081
C44	C	0.946433	0.568472	0.584081
C45	C	0.310642	0.111239	-0.000038
C46	C	0.810642	0.611239	0.499962
C47	C	0.667590	0.117577	-0.000026
C48	C	1.167590	0.617577	0.499974
C49	C	0.987644	-0.469370	-0.000028
C50	C	1.487644	0.030630	0.499972
C51	C	0.896090	-0.421920	-0.000354
C52	C	1.396090	0.078080	0.499646
C53	C	0.897743	-0.325230	-0.000024
C54	C	1.397743	0.174770	0.499976
C55	C	0.990587	-0.301810	-0.000030
C56	C	1.490587	0.198190	0.499970
C57	C	1.035740	-0.342897	0.083602
C58	C	1.535740	0.157103	0.583602
C59	C	1.033440	-0.439532	0.083672
C60	C	1.533440	0.060468	0.583672
C61	C	1.035341	-0.439889	-0.082877
C62	C	1.535341	0.060111	0.417123
C63	C	1.035319	-0.342943	-0.083983
C64	C	1.535319	0.157057	0.416017
C65	C	0.992255	-0.207113	-0.000028
C66	C	1.492255	0.292887	0.499972
C67	C	0.985979	-0.564068	-0.000024
C68	C	1.485979	-0.064068	0.499976
C69	C	1.142202	0.108269	-0.000030
C70	C	1.642202	0.608269	0.499970
C71	C	1.235154	0.109904	-0.000038
C72	C	1.735154	0.609904	0.499962
C73	C	0.983003	0.267493	-0.000026
C74	C	1.483003	0.767493	0.499974
C75	C	0.984655	0.360443	-0.000027
C76	C	1.484655	0.860443	0.499973
N77	N	0.989108	0.114406	0.228150
N78	N	1.489108	0.614406	0.728150
N79	N	0.989130	0.114406	-0.228199
N80	N	1.489130	0.614406	0.271801
C81	C	1.046052	0.057493	0.453872
C82	C	1.546052	0.557493	0.953872
C83	C	1.046054	0.057491	0.546061
C84	C	1.546054	0.557491	1.046061
C85	C	0.932180	0.171323	0.546072
C86	C	1.432180	0.671323	1.046072
C87	C	0.932174	0.171320	0.453884
C88	C	1.432174	0.671320	0.953884
C89	C	0.989115	0.114406	0.407786
C90	C	1.489115	0.614406	0.907786
C91	C	0.989123	0.114407	0.592164
C92	C	1.489123	0.614407	1.092164
C93	C	0.989126	0.114405	0.692120
C94	C	1.489126	0.614405	1.192120
C95	C	0.989111	0.114406	0.307824
C96	C	1.489111	0.614406	0.807824
H97	H	0.400274	0.241462	0.059461
H98	H	0.900274	0.741462	0.559461
Cl99	Cl	0.555702	0.263403	-0.092300
Cl100	Cl	1.055702	0.763403	0.407700
Cl101	Cl	0.839681	-0.452519	0.091455
Cl102	Cl	1.339681	0.047481	0.591455
H103	H	1.000507	-0.457829	0.146192
H104	H	1.500507	0.042171	0.646192
H105	H	0.862003	-0.297359	0.060030
H106	H	1.362003	0.202641	0.560030
H107	H	0.575159	0.000967	0.083790
H108	H	1.075159	0.500967	0.583790
H109	H	1.100657	-0.471793	0.087462
H110	H	1.600657	0.028207	0.587462
Cl111	Cl	1.117631	-0.014060	0.395924
Cl112	Cl	1.617631	0.485940	0.895924
Cl113	Cl	1.141052	-0.321109	0.088403
Cl114	Cl	1.641052	0.178891	0.588403
H115	H	0.418093	0.098644	-0.145853
H116	H	0.918093	0.598644	0.354147
Cl117	Cl	0.989123	-0.471577	-0.180745
Cl118	Cl	1.489123	0.028423	0.319255
H119	H	0.859501	-0.440444	-0.060328
H120	H	1.359501	0.059556	0.439672
H121	H	0.432376	-0.000719	-0.086370
H122	H	0.932376	0.499281	0.413630
H123	H	0.862249	-0.296801	-0.059974
H124	H	1.362249	0.203199	0.440026
H125	H	1.092417	0.011146	0.583581
H126	H	1.592417	0.511146	1.083581
Cl127	Cl	0.860587	0.242870	0.395943
Cl128	Cl	1.360587	0.742870	0.895943
H129	H	1.002307	-0.315688	-0.145851
H130	H	1.502307	0.184312	0.354149
Cl131	Cl	0.860604	0.242872	0.604028
Cl132	Cl	1.360604	0.742872	1.104028
H133	H	0.543916	0.244233	0.059822
H134	H	1.043916	0.744233	0.559822
H135	H	0.400896	0.241310	-0.060542
H136	H	0.900896	0.741310	0.439458
H137	H	0.563874	0.098603	0.146272
H138	H	1.063874	0.598603	0.646272
H139	H	1.004372	-0.314511	0.145842
H140	H	1.504372	0.185489	0.645842
H141	H	1.103026	-0.327594	-0.089037
H142	H	1.603026	0.172406	0.410963
H143	H	0.419090	0.101640	0.145833
H144	H	0.919090	0.601640	0.645833
Cl145	Cl	0.422749	-0.036043	0.092252
Cl146	Cl	0.922749	0.463957	0.592252
Cl147	Cl	0.592940	-0.033965	-0.089070
Cl148	Cl	1.092940	0.466035	0.410930
Cl149	Cl	0.571401	0.120361	-0.180266
Cl150	Cl	1.071401	0.620361	0.319734
Cl151	Cl	1.139558	-0.488945	-0.083755
Cl152	Cl	1.639558	0.011055	0.416245
