data_functionalizedCrystal
_audit_creation_method	'MofGen! by Chris Wilmer'
_symmetry_space_group_name_H-M	'P1'
_symmetry_Int_Tables_number	1
_symmetry_cell_setting	triclinic
loop_
_symmetry_equiv_pos_as_xyz
  x,y,z
_cell_length_a	34.408637
_cell_length_b	34.407814
_cell_length_c	34.404193
_cell_angle_alpha	60.004510
_cell_angle_beta	60.009006
_cell_angle_gamma	59.994604
loop_
_atom_site_label
_atom_site_type_symbol
_atom_site_fract_x
_atom_site_fract_y
_atom_site_fract_z
O1	O	0.053973	-0.567860	0.474801
O2	O	0.553973	-0.067860	0.974801
O3	O	0.020377	-0.442124	0.382567
O4	O	0.520377	0.057876	0.882567
O5	O	0.100004	-0.521670	0.382483
O6	O	0.600004	-0.021670	0.882483
O7	O	-0.025653	-0.488314	0.474886
O8	O	0.474347	0.011686	0.974886
O9	O	0.126426	-0.495253	0.408816
O10	O	0.626426	0.004747	0.908816
O11	O	0.046800	-0.415707	0.408900
O12	O	0.546800	0.084293	0.908900
O13	O	0.080396	-0.541443	0.501134
O14	O	0.580396	-0.041443	1.001134
Zn15	Zn	0.067793	-0.474381	0.459198
Zn16	Zn	0.567793	0.025619	0.959198
Zn17	Zn	0.032980	-0.509186	0.424503
Zn18	Zn	0.532980	-0.009186	0.924503
O19	O	0.000769	-0.461897	0.501219
O20	O	0.500769	0.038103	1.001219
N21	N	0.091552	-0.450631	0.482879
N22	N	0.591552	0.049369	0.982879
N23	N	0.009225	-0.532940	0.400823
N24	N	0.509225	-0.032940	0.900823
C25	C	0.142848	-0.268847	0.534081
C26	C	0.642848	0.231153	1.034081
C27	C	0.142979	-0.399386	0.664559
C28	C	0.642979	0.100614	1.164559
C29	C	0.142862	-0.399365	0.534081
C30	C	0.642862	0.100635	1.034081
C31	C	0.273409	-0.399338	0.533986
C32	C	0.773409	0.100662	1.033986
C33	C	0.157225	-0.311914	0.548422
C34	C	0.657225	0.188086	1.048422
C35	C	0.157300	-0.385019	0.621491
C36	C	0.657300	0.114981	1.121491
C37	C	0.230339	-0.384991	0.548370
C38	C	0.730339	0.115009	1.048370
C39	C	0.157235	-0.385007	0.548422
C40	C	0.657235	0.114993	1.048422
C41	C	0.124548	-0.214028	0.515827
C42	C	0.624548	0.285972	1.015827
C43	C	0.124571	-0.417639	0.515827
C44	C	0.624571	0.082361	1.015827
C45	C	0.175526	-0.366733	0.566676
C46	C	0.675526	0.133267	1.066676
C47	C	0.353121	-0.385580	0.491988
C48	C	0.853121	0.114420	0.991988
C49	C	0.402952	-0.402180	0.475348
C50	C	0.902952	0.097820	0.975348
C51	C	0.402981	-0.482812	0.506096
C52	C	0.902981	0.017188	1.006096
C53	C	0.353151	-0.466211	0.522737
C54	C	0.853151	0.033789	1.022737
C55	C	0.136544	-0.189099	0.466839
C56	C	0.636544	0.310901	0.966839
C57	C	0.119905	-0.139265	0.450247
C58	C	0.619905	0.360735	0.950247
C59	C	0.079280	-0.139291	0.531632
C60	C	0.579280	0.360709	1.031632
C61	C	0.095918	-0.189125	0.548224
C62	C	0.595918	0.310875	1.048224
C63	C	0.075577	-0.405615	0.527900
C64	C	0.575577	0.094385	1.027900
C65	C	0.058953	-0.422228	0.511301
C66	C	0.558953	0.077772	1.011301
C67	C	0.140315	-0.462889	0.470566
C68	C	0.640315	0.037111	0.970566
C69	C	0.156941	-0.446276	0.487159
C70	C	0.656941	0.053724	0.987159
C71	C	0.075772	-0.405653	0.744326
C72	C	0.575772	0.094347	1.244326
C73	C	0.059206	-0.422280	0.794159
C74	C	0.559206	0.077720	1.294159
C75	C	0.140607	-0.462951	0.794094
C76	C	0.640607	0.037049	1.294094
C77	C	0.157172	-0.446325	0.744260
C78	C	0.657172	0.053675	1.244260
C79	C	0.124753	-0.417674	0.719377
C80	C	0.624753	0.082326	1.219377
C81	C	0.328223	-0.417595	0.515681
C82	C	0.828223	0.082405	1.015681
C83	C	-0.172390	-0.583988	0.349141
C84	C	0.327610	-0.083988	0.849141
C85	C	-0.041751	-0.584138	0.218783
C86	C	0.458249	-0.084138	0.718783
C87	C	-0.041941	-0.584130	0.349402
C88	C	0.458059	-0.084130	0.849402
C89	C	-0.041957	-0.714607	0.349338
C90	C	0.458043	-0.214607	0.849338
C91	C	-0.129326	-0.598388	0.334853
C92	C	0.370674	-0.098388	0.834853
C93	C	-0.056165	-0.598473	0.261852
C94	C	0.443835	-0.098473	0.761852
C95	C	-0.056282	-0.671535	0.334962
C96	C	0.443718	-0.171535	0.834962
C97	C	-0.056272	-0.598469	0.334999
C98	C	0.443728	-0.098469	0.834999
C99	C	-0.227205	-0.565659	0.367327
C100	C	0.272795	-0.065659	0.867327
C101	C	-0.023703	-0.565882	0.367734
C102	C	0.476297	-0.065882	0.867734
C103	C	-0.074511	-0.616717	0.316667
C104	C	0.425489	-0.116717	0.816667
C105	C	-0.055754	-0.794298	0.391257
C106	C	0.444246	-0.294298	0.891257
C107	C	-0.039181	-0.844132	0.407888
C108	C	0.460819	-0.344132	0.907888
C109	C	0.041447	-0.844215	0.377269
C110	C	0.541447	-0.344215	0.877269
C111	C	0.024873	-0.794381	0.360637
C112	C	0.524873	-0.294381	0.860637
C113	C	-0.252183	-0.577666	0.416302
C114	C	0.247817	-0.077666	0.916302
C115	C	-0.302014	-0.561001	0.432833
C116	C	0.197986	-0.061001	0.932833
C117	C	-0.301886	-0.520329	0.351410
C118	C	0.198114	-0.020329	0.851410
C119	C	-0.252055	-0.536994	0.334880
C120	C	0.247945	-0.036994	0.834880
C121	C	-0.035709	-0.516892	0.355682
C122	C	0.464291	-0.016892	0.855682
C123	C	-0.019129	-0.500308	0.372353
C124	C	0.480871	-0.000308	0.872353
C125	C	0.021465	-0.581700	0.413115
C126	C	0.521465	-0.081700	0.913115
C127	C	0.004884	-0.598286	0.396450
C128	C	0.504884	-0.098286	0.896450
C129	C	-0.035389	-0.516907	0.139026
C130	C	0.464611	-0.016907	0.639026
C131	C	-0.018707	-0.500324	0.089193
C132	C	0.481293	-0.000324	0.589193
C133	C	0.021949	-0.581721	0.089240
C134	C	0.521949	-0.081721	0.589240
C135	C	0.005268	-0.598303	0.139074
C136	C	0.505268	-0.098303	0.639074
C137	C	-0.023402	-0.565894	0.163965
C138	C	0.476598	-0.065894	0.663965
C139	C	-0.023728	-0.769425	0.367633
C140	C	0.476272	-0.269425	0.867633
N141	N	0.427173	-0.450553	0.482630
N142	N	0.927173	0.049447	0.982630
O143	O	0.589997	-0.458460	0.365361
O144	O	1.089997	0.041540	0.865361
O145	O	0.590185	-0.550997	0.490963
O146	O	1.090185	-0.050997	0.990963
O147	O	0.590104	-0.550786	0.411309
O148	O	1.090104	-0.050786	0.911309
O149	O	0.590077	-0.458671	0.445016
O150	O	1.090077	0.041329	0.945016
O151	O	0.510940	-0.524462	0.437777
O152	O	1.010940	-0.024462	0.937777
O153	O	0.511020	-0.524674	0.517432
O154	O	1.011020	-0.024674	1.017432
O155	O	0.510832	-0.432136	0.391830
O156	O	1.010832	0.067864	0.891830
Zn157	Zn	0.498357	-0.474225	0.458833
Zn158	Zn	0.998357	0.025775	0.958833
Zn159	Zn	0.602660	-0.508908	0.423960
Zn160	Zn	1.102660	-0.008908	0.923960
O161	O	0.510913	-0.432348	0.471484
O162	O	1.010913	0.067652	0.971484
N163	N	0.673844	-0.532580	0.400158
N164	N	1.173844	-0.032580	0.900158
N165	N	0.091520	-0.115070	0.482873
N166	N	0.591520	0.384930	0.982873
O167	O	-0.025663	0.047841	0.474857
O168	O	0.474337	0.547841	0.974857
O169	O	0.099940	0.047877	0.382299
O170	O	0.599940	0.547877	0.882299
O171	O	0.020247	0.047844	0.382560
O172	O	0.520247	0.547844	0.882560
O173	O	0.054030	0.047874	0.474596
O174	O	0.554030	0.547874	0.974596
O175	O	0.046674	-0.031326	0.408942
O176	O	0.546674	0.468674	0.908942
O177	O	0.126367	-0.031293	0.408680
O178	O	0.626367	0.468707	0.908680
O179	O	0.000764	-0.031329	0.501238
O180	O	0.500764	0.468671	1.001238
Zn181	Zn	0.067761	-0.043881	0.459148
Zn182	Zn	0.567761	0.456119	0.959148
Zn183	Zn	0.032943	0.060429	0.424389
Zn184	Zn	0.532943	0.560429	0.924389
O185	O	0.080457	-0.031296	0.500977
O186	O	0.580457	0.468704	1.000977
N187	N	0.009178	0.131618	0.400665
N188	N	0.509178	0.631618	0.900665
N189	N	0.091852	-0.450680	0.818332
N190	N	0.591852	0.049320	1.318332
O191	O	0.083862	-0.567845	0.981235
O192	O	0.583862	-0.067845	1.481235
O193	O	-0.008657	-0.442198	0.981276
O194	O	0.491343	0.057802	1.481276
O195	O	-0.008441	-0.521875	0.981252
O196	O	0.491559	-0.021875	1.481252
O197	O	0.083646	-0.488168	0.981258
O198	O	0.583646	0.011832	1.481258
O199	O	0.017919	-0.495468	0.902085
O200	O	0.517919	0.004532	1.402085
O201	O	0.017703	-0.415791	0.902109
O202	O	0.517703	0.084209	1.402109
O203	O	0.110222	-0.541438	0.902067
O204	O	0.610222	-0.041438	1.402067
Zn205	Zn	0.068148	-0.474422	0.889518
Zn206	Zn	0.568148	0.025578	1.389518
Zn207	Zn	0.033417	-0.509214	0.993825
Zn208	Zn	0.533417	-0.009214	1.493825
O209	O	0.110006	-0.461761	0.902091
O210	O	0.610006	0.038239	1.402091
N211	N	0.009712	-0.532961	1.065011
N212	N	0.509712	-0.032961	1.565011
C213	C	0.030439	-0.413071	0.383027
C214	C	0.530439	0.086929	0.883027
C215	C	0.129046	-0.511580	0.382922
C216	C	0.629046	-0.011580	0.882922
C217	C	0.070334	-0.570496	0.500675
C218	C	0.570334	-0.070496	1.000675
C219	C	-0.028274	-0.471987	0.500780
C220	C	0.471726	0.028013	1.000780
C221	C	0.550625	-0.550579	0.520021
C222	C	1.050625	-0.050579	1.020021
C223	C	0.550527	-0.550317	0.421379
C224	C	1.050527	-0.050317	0.921379
C225	C	0.550389	-0.432554	0.362773
C226	C	1.050389	0.067446	0.862773
C227	C	0.550491	-0.432816	0.461414
C228	C	1.050491	0.067184	0.961414
C229	C	0.128944	0.008394	0.382712
C230	C	0.628944	0.508394	0.882712
C231	C	0.030287	0.008256	0.383068
C232	C	0.530287	0.508256	0.883068
C233	C	-0.028273	0.008252	0.500793
C234	C	0.471727	0.508252	1.000793
C235	C	0.070417	0.008292	0.500470
C236	C	0.570417	0.508292	1.000470
C237	C	-0.008218	-0.413165	0.941698
C238	C	0.491782	0.086835	1.441698
C239	C	-0.007945	-0.511830	0.941653
C240	C	0.492055	-0.011830	1.441653
C241	C	0.109783	-0.570471	0.941646
C242	C	0.609783	-0.070471	1.441646
C243	C	0.109516	-0.471800	0.941673
C244	C	0.609516	0.028200	1.441673
H245	H	0.049370	-0.382321	0.724071
H246	H	0.549370	0.117679	1.224071
N247	N	0.176852	-0.520994	0.344488
N248	N	0.676852	-0.020994	0.844488
H249	H	0.192035	-0.497609	0.335249
H250	H	0.692035	0.002391	0.835249
H251	H	0.172408	-0.517202	0.315752
H252	H	0.672408	-0.017202	0.815752
N253	N	0.550699	-0.589067	0.567800
N254	N	1.050699	-0.089067	1.067800
H255	H	0.521370	-0.598303	0.582979
H256	H	1.021370	-0.098303	1.082979
H257	H	0.550730	-0.576833	0.589041
H258	H	1.050730	-0.076833	1.089041
H259	H	0.023050	0.008252	0.354152
H260	H	0.523050	0.508252	0.854152
N261	N	0.020929	-0.365228	0.344654
N262	N	0.520929	0.134772	0.844654
H263	H	0.024698	-0.369595	0.315883
H264	H	0.524698	0.130405	0.815883
H265	H	0.044292	-0.350035	0.335446
H266	H	0.544292	0.149965	0.835446
H267	H	0.550329	-0.403500	0.326702
H268	H	1.050329	0.096500	0.826702
H269	H	0.077514	-0.606615	0.529644
H270	H	0.577514	-0.106615	1.029644
N271	N	-0.076080	-0.462580	0.539215
N272	N	0.423920	0.037420	1.039215
H273	H	-0.097335	-0.429088	0.526966
H274	H	0.402665	0.070912	1.026966
H275	H	-0.071633	-0.466407	0.567965
H276	H	0.428367	0.033593	1.067965
N277	N	0.550547	-0.588653	0.411828
N278	N	1.050547	-0.088653	0.911828
H279	H	0.550506	-0.576301	0.378330
H280	H	1.050506	-0.076301	0.878330
H281	H	0.521226	-0.597899	0.435216
H282	H	1.021226	-0.097899	0.935216
H283	H	0.014660	-0.638178	0.406265
H284	H	0.514660	-0.138178	0.906265
H285	H	0.138447	-0.464586	0.941669
H286	H	0.638447	0.035414	1.441669
H287	H	0.019320	-0.412483	0.814467
H288	H	0.519320	0.087517	1.314467
H289	H	-0.064344	0.008241	0.529850
H290	H	0.435656	0.508241	1.029850
N291	N	0.550482	-0.394485	0.470961
N292	N	1.050482	0.105515	0.970961
H293	H	0.550525	-0.406837	0.504458
H294	H	1.050525	0.093163	1.004458
H295	H	0.521109	-0.365721	0.467197
H296	H	1.021109	0.134279	0.967197
N297	N	0.176624	0.008697	0.344124
N298	N	0.676624	0.508697	0.844124
H299	H	0.197897	0.008773	0.356287
H300	H	0.697897	0.508773	0.856287
H301	H	0.171982	0.038110	0.315463
H302	H	0.671982	0.538110	0.815463
H303	H	0.077653	0.008301	0.529384
H304	H	0.577653	0.508301	1.029384
H305	H	0.138832	-0.606554	0.941627
H306	H	0.638832	-0.106554	1.441627
N307	N	-0.046693	-0.365366	0.941710
N308	N	0.453307	0.134634	1.441710
H309	H	-0.054662	-0.359176	0.971061
H310	H	0.445338	0.140824	1.471061
H311	H	-0.076055	-0.365328	0.941692
H312	H	0.423945	0.134672	1.441692
N313	N	0.175571	-0.493841	0.820933
N314	N	0.675571	0.006159	1.320933
H315	H	0.209115	-0.498932	0.797567
H316	H	0.709115	0.001068	1.297567
H317	H	0.170476	-0.525590	0.841607
H318	H	0.670476	-0.025590	1.341607
N319	N	0.210004	-0.459292	0.717352
N320	N	0.710004	0.040708	1.217352
H321	H	0.228026	-0.479962	0.740678
H322	H	0.728026	0.020038	1.240678
H323	H	0.218647	-0.429315	0.696675
H324	H	0.718647	0.070685	1.196675
H325	H	-0.036863	-0.519031	0.941619
H326	H	0.463137	-0.019031	1.441619
H327	H	0.049217	-0.382297	0.551240
H328	H	0.549217	0.117703	1.051240
H329	H	0.166679	-0.486211	0.447227
H330	H	0.666679	0.013789	0.947227
N331	N	0.006109	-0.409263	0.524321
N332	N	0.506109	0.090737	1.024321
H333	H	-0.008756	-0.421457	0.560069
H334	H	0.491244	0.078543	1.060069
H335	H	0.000532	-0.424132	0.509423
H336	H	0.500532	0.075868	1.009423
N337	N	0.209785	-0.459240	0.474137
N338	N	0.709785	0.040760	0.974137
H339	H	0.227768	-0.479902	0.453458
H340	H	0.727768	0.020098	0.953458
H341	H	0.218480	-0.477202	0.504092
H342	H	0.718480	0.022798	1.004092
H343	H	0.423275	-0.522397	0.511838
H344	H	0.923275	-0.022397	1.011838
N345	N	0.326297	-0.500743	0.548295
N346	N	0.826297	-0.000743	1.048295
H347	H	0.349654	-0.534059	0.550236
H348	H	0.849654	-0.034059	1.050236
H349	H	0.305601	-0.491856	0.530257
H350	H	0.805601	0.008144	1.030257
H351	H	0.332825	-0.345993	0.486242
H352	H	0.832825	0.154007	0.986242
N353	N	0.429811	-0.367651	0.449796
N354	N	0.929811	0.132349	0.949796
H355	H	0.406459	-0.334333	0.447851
H356	H	0.906459	0.165667	0.947851
H357	H	0.450463	-0.369027	0.416611
H358	H	0.950463	0.130973	0.916611
H359	H	0.129672	-0.118967	0.410356
H360	H	0.629672	0.381033	0.910356
N361	N	0.167424	-0.215954	0.431893
N362	N	0.667424	0.284046	0.931893
H363	H	0.149441	-0.207284	0.411234
H364	H	0.649441	0.292716	0.911234
H365	H	0.176141	-0.251298	0.449870
H366	H	0.676141	0.248702	0.949870
N367	N	0.048411	-0.112429	0.566573
N368	N	0.548411	0.387571	1.066573
H369	H	0.043342	-0.135784	0.600125
H370	H	0.543342	0.364216	1.100125
H371	H	0.016653	-0.091759	0.561485
H372	H	0.516653	0.408241	1.061485
H373	H	-0.028474	-0.460433	0.068892
H374	H	0.471526	0.039567	0.568892
N375	N	0.082980	-0.216012	0.601061
N376	N	0.582980	0.283988	1.101061
H377	H	0.062319	-0.192672	0.619065
H378	H	0.562319	0.307328	1.119065
H379	H	0.112966	-0.236681	0.609701
H380	H	0.612966	0.263319	1.109701
H381	H	-0.058738	-0.490513	0.159288
H382	H	0.441262	0.009487	0.659288
H383	H	-0.322352	-0.570775	0.472713
H384	H	0.177648	-0.070775	0.972713
N385	N	0.052863	-0.616671	0.062388
N386	N	0.552863	-0.116671	0.562388
H387	H	0.034895	-0.637322	0.071021
H388	H	0.534895	-0.137322	0.571021
H389	H	0.082792	-0.637346	0.071128
H390	H	0.582792	-0.137346	0.571128
N391	N	0.018201	-0.651143	0.165970
N392	N	0.518201	-0.151143	0.665970
H393	H	0.006039	-0.666022	0.157259
H394	H	0.506039	-0.166022	0.657259
H395	H	0.003286	-0.656694	0.201307
H396	H	0.503286	-0.156694	0.701307
N397	N	-0.066542	-0.481938	0.324713
N398	N	0.433458	0.018062	0.824713
H399	H	-0.096516	-0.461235	0.342639
H400	H	0.403484	0.038765	0.842639
H401	H	-0.075189	-0.499910	0.315985
H402	H	0.424811	0.000090	0.815985
N403	N	-0.032077	-0.447470	0.359368
N404	N	0.467923	0.052530	0.859368
H405	H	-0.067822	-0.432537	0.371489
H406	H	0.432178	0.067463	0.871489
H407	H	-0.019817	-0.432624	0.323623
H408	H	0.480183	0.067376	0.823623
N409	N	0.052297	-0.616652	0.444089
N410	N	0.552297	-0.116652	0.944089
H411	H	0.057385	-0.650204	0.449193
H412	H	0.557385	-0.150204	0.949193
H413	H	0.036068	-0.611513	0.475825
H414	H	0.536068	-0.111513	0.975825
H415	H	-0.231721	-0.527215	0.295000
H416	H	0.268279	-0.027215	0.795000
N417	N	0.059416	-0.767553	0.335156
N418	N	0.559416	-0.267553	0.835156
H419	H	0.083715	-0.776250	0.305728
H420	H	0.583715	-0.276250	0.805728
H421	H	0.076101	-0.776251	0.357024
H422	H	0.576101	-0.276251	0.857024
N423	N	0.093866	-0.871130	0.369727
N424	N	0.593866	-0.371130	0.869727
H425	H	0.112397	-0.862482	0.334510
H426	H	0.612397	-0.362482	0.834510
H427	H	0.099465	-0.906466	0.383876
H428	H	0.599465	-0.406466	0.883876
N429	N	-0.073727	-0.870960	0.433366
N430	N	0.426273	-0.370960	0.933366
H431	H	-0.098024	-0.862265	0.462796
H432	H	0.401976	-0.362265	0.962796
H433	H	-0.055817	-0.906308	0.442808
H434	H	0.444183	-0.406308	0.942808
N435	N	-0.108176	-0.767378	0.398803
N436	N	0.391824	-0.267378	0.898803
H437	H	-0.125948	-0.790700	0.416292
H438	H	0.374052	-0.290700	0.916292
H439	H	-0.113021	-0.746704	0.366939
H440	H	0.386979	-0.246704	0.866939
H441	H	-0.322118	-0.496994	0.324987
H442	H	0.177882	0.003006	0.824987
N443	N	-0.225382	-0.608584	0.451298
N444	N	0.274618	-0.108584	0.951298
H445	H	-0.248768	-0.613657	0.484834
H446	H	0.251232	-0.113657	0.984834
H447	H	-0.204704	-0.592428	0.446222
H448	H	0.295296	-0.092428	0.946222
