data_functionalizedCrystal
_audit_creation_method	'MofGen! by Chris Wilmer'
_symmetry_space_group_name_H-M	'P1'
_symmetry_Int_Tables_number	1
_symmetry_cell_setting	triclinic
loop_
_symmetry_equiv_pos_as_xyz
  x,y,z
_cell_length_a	15.297475
_cell_length_b	16.959453
_cell_length_c	15.296720
_cell_angle_alpha	99.644028
_cell_angle_beta	91.617114
_cell_angle_gamma	80.322456
loop_
_atom_site_label
_atom_site_type_symbol
_atom_site_fract_x
_atom_site_fract_y
_atom_site_fract_z
Zn1	Zn	1.253431	-0.615175	-0.726583
Zn2	Zn	1.278700	-0.728993	-0.580096
Zn3	Zn	1.132307	-0.570770	-0.554825
Zn4	Zn	1.106926	-0.721223	-0.701225
O5	O	1.192841	-0.659040	-0.640683
O6	O	1.379362	-0.652108	-0.728340
O7	O	1.280477	-0.692672	-0.454170
O8	O	1.148422	-0.466062	-0.577646
O9	O	1.397927	-0.735730	-0.620717
O10	O	1.237411	-0.498686	-0.703836
O11	O	1.172923	-0.576427	-0.435603
O12	O	1.006361	-0.568893	-0.553057
O13	O	1.105163	-0.722487	-0.827163
O14	O	0.987713	-0.679430	-0.660616
O15	O	1.212800	-0.644574	-0.845794
O16	O	1.255866	-0.838560	-0.596128
O17	O	1.129664	-0.832852	-0.685120
C18	C	0.965254	-0.618500	-0.601343
C19	C	0.867887	-0.601179	-0.584534
C20	C	0.554750	-0.782846	-0.760820
C21	C	0.646231	-0.799126	-0.776610
C22	C	0.701650	-0.749640	-0.728593
C23	C	0.665578	-0.683872	-0.664782
C24	C	0.574089	-0.667594	-0.648985
C25	C	0.720989	-0.634389	-0.616758
C26	C	0.684917	-0.568621	-0.552947
C27	C	0.593437	-0.552346	-0.537154
C28	C	0.538018	-0.601831	-0.585171
C29	C	0.812478	-0.650667	-0.632555
C30	C	0.831817	-0.535415	-0.520720
C31	C	0.740336	-0.519135	-0.504930
C32	C	1.192773	-0.864389	-0.640638
C33	C	1.192820	-0.952257	-0.640662
C34	C	1.239231	-1.340693	-0.706508
C35	C	1.146673	-1.306843	-0.575030
C36	C	1.146644	-1.224289	-0.575004
C37	C	1.192908	-1.199934	-0.640732
C38	C	1.239201	-1.258132	-0.706486
C39	C	1.100344	-1.166085	-0.509257
C40	C	1.100312	-1.083525	-0.509229
C41	C	1.146582	-1.059168	-0.574954
C42	C	1.192878	-1.117372	-0.640710
C43	C	1.239143	-1.093016	-0.706438
C44	C	1.285445	-1.151220	-0.772191
C45	C	1.285472	-1.233775	-0.772211
C46	C	1.146555	-0.976612	-0.574934
C47	C	1.239113	-1.010455	-0.706416
C48	C	1.421317	-0.699739	-0.680176
C49	C	1.518679	-0.717082	-0.697006
C50	C	1.153332	-0.687617	-0.869149
C51	C	1.136495	-0.699795	-0.966508
C52	C	1.192929	-0.452896	-0.640751
C53	C	1.192967	-0.365049	-0.640780
C54	C	1.313207	-0.571870	-1.279748
C55	C	1.329031	-0.560430	-1.188276
C56	C	1.280898	-0.595270	-1.132829
C57	C	1.216939	-0.641552	-1.168864
C58	C	1.201118	-0.652998	-1.260347
C59	C	1.168809	-0.676399	-1.113428
C60	C	1.104850	-0.722681	-1.149463
C61	C	1.089031	-0.734124	-1.240937
C62	C	1.137164	-0.699284	-1.296383
C63	C	1.184630	-0.664953	-1.021946
C64	C	1.072541	-0.746081	-1.002544
C65	C	1.056717	-0.757521	-1.094017
C66	C	1.232247	-0.630526	-0.413113
C67	C	1.249253	-0.618156	-0.315784
H68	H	0.509622	-0.823134	-0.799903
C69	C	1.019590	-0.784406	-0.941556
N70	N	0.979711	-0.813270	-0.895615
C71	C	1.049371	-1.019508	-0.436906
N72	N	1.010999	-0.971290	-0.382433
H73	H	1.276791	-0.990632	-0.759937
C74	C	1.290160	-1.404716	-0.778833
N75	N	1.328520	-1.452939	-0.833309
C76	C	1.254979	-0.614037	-0.982317
N77	N	1.307967	-0.575682	-0.952469
H78	H	0.564072	-0.498800	-0.485186
H79	H	1.108852	-0.929227	-0.521402
C80	C	0.700645	-0.446795	-0.434736
N81	N	0.670749	-0.392308	-0.381866
C82	C	1.399377	-0.509514	-1.148643
N83	N	1.452362	-0.471157	-1.118790
C84	C	0.892773	-0.480976	-0.467900
N85	N	0.938691	-0.439976	-0.428118
C86	C	0.685903	-0.871470	-0.846798
N87	N	0.715784	-0.925963	-0.899668
H88	H	1.352395	-0.543514	-1.324901
C89	C	1.336333	-1.124417	-0.844489
N90	N	1.374663	-1.104226	-0.898943
C91	C	1.336393	-1.297803	-0.844537
N92	N	1.374744	-1.346031	-0.899014
H93	H	0.776137	-0.762899	-0.741454
C94	C	0.986361	-0.808428	-1.133668
N95	N	0.933369	-0.846770	-1.163533
H96	H	0.841838	-0.704215	-0.684511
H97	H	1.109002	-1.326679	-0.521520
C98	C	1.119773	-0.711878	-1.397012
N99	N	1.106681	-0.721369	-1.472808
H100	H	1.062675	-1.185922	-0.455746
H101	H	1.036958	-0.771818	-1.270274
H102	H	0.463526	-0.588578	-0.572320
H103	H	1.293786	-0.585954	-1.058349
