data_functionalizedCrystal
_audit_creation_method	'MofGen! by Chris Wilmer'
_symmetry_space_group_name_H-M	'P1'
_symmetry_Int_Tables_number	1
_symmetry_cell_setting	triclinic
loop_
_symmetry_equiv_pos_as_xyz
  x,y,z
_cell_length_a	14.044220
_cell_length_b	18.266242
_cell_length_c	14.044220
_cell_angle_alpha	90.006886
_cell_angle_beta	93.188878
_cell_angle_gamma	90.003954
loop_
_atom_site_label
_atom_site_type_symbol
_atom_site_fract_x
_atom_site_fract_y
_atom_site_fract_z
O1	O	1.277174	0.060806	0.230170
O2	O	1.000503	0.060824	0.221864
O3	O	1.134686	0.060808	0.087681
O4	O	1.142991	0.060822	0.364352
O5	O	1.134660	-0.060954	0.087671
O6	O	1.000477	-0.060938	0.221854
O7	O	1.277149	-0.060956	0.230160
Zn8	Zn	1.138809	-0.080279	0.226006
Zn9	Zn	1.138843	0.080148	0.226018
O10	O	1.142966	-0.060940	0.364343
C11	C	0.964868	-0.000054	0.218223
C12	C	0.858725	-0.000047	0.207379
N13	N	1.138793	-0.189766	0.225997
C14	C	0.664388	-0.000063	0.187553
C15	C	0.613258	-0.000062	0.264467
C16	C	0.505122	-0.000071	0.253435
C17	C	0.772534	-0.000054	0.198583
C18	C	1.198233	-0.228082	0.166614
C19	C	1.198239	-0.304727	0.166610
C20	C	1.138815	-0.343053	0.226006
C21	C	1.079363	-0.304728	0.285393
C22	C	1.079352	-0.228084	0.285388
N23	N	1.133806	-0.463381	0.309456
N24	N	1.133822	-0.536189	0.309458
C25	C	1.138843	-0.573975	0.226022
N26	N	1.143866	-0.536203	0.142584
N27	N	1.143855	-0.463389	0.142583
C28	C	1.138820	-0.426160	0.226017
C29	C	1.198292	-0.695399	0.166630
C30	C	1.198291	-0.772045	0.166625
C31	C	1.079420	-0.772044	0.285416
C32	C	1.079416	-0.695399	0.285413
C33	C	1.138857	-0.657081	0.226022
C34	C	1.312783	-0.000076	0.233800
C35	C	1.418926	-0.000078	0.244645
C36	C	1.131037	-0.000073	0.052054
C37	C	1.120193	-0.000073	-0.054088
N38	N	1.138865	0.189634	0.226020
C39	C	1.100366	-0.000061	-0.248426
C40	C	1.177281	-0.000064	-0.299556
C41	C	1.166249	-0.000057	-0.407692
C42	C	1.111397	-0.000068	-0.140280
C43	C	1.146614	-0.000057	0.399969
C44	C	1.157459	-0.000052	0.506112
H45	H	0.626951	-0.000071	0.113425
C46	C	0.663831	-0.000046	0.364618
C47	C	0.646906	0.063189	0.434204
C48	C	0.697486	0.063208	0.534350
C49	C	0.764991	-0.000009	0.564909
C50	C	0.781919	-0.063249	0.495321
C51	C	0.731339	-0.063267	0.395175
H52	H	0.596932	0.109989	0.411584
H53	H	0.684954	0.110022	0.585863
H54	H	0.802433	0.000005	0.639043
H55	H	0.831893	-0.110049	0.517941
H56	H	0.743871	-0.110082	0.343662
H57	H	1.251414	-0.000020	-0.262117
H58	H	1.026239	-0.000054	-0.285863
C59	C	1.263633	-0.346885	0.101290
C60	C	1.329043	-0.304735	0.035996
C61	C	1.394439	-0.346889	-0.029322
C62	C	1.394424	-0.431194	-0.029346
C63	C	1.329011	-0.473349	0.035951
C64	C	1.263615	-0.431194	0.101269
H65	H	1.329057	-0.242323	0.036011
H66	H	1.442862	-0.315683	-0.077659
H67	H	1.442833	-0.462399	-0.077699
H68	H	1.328997	-0.535761	0.035935
H69	H	1.215192	-0.462401	0.149606
C70	C	1.263606	-0.185930	0.101278
C71	C	1.252820	-0.196483	-0.007576
C72	C	1.318190	-0.154328	-0.072913
C73	C	1.394346	-0.101620	-0.029397
C74	C	1.405135	-0.091064	0.079462
C75	C	1.339765	-0.133219	0.144800
H76	H	1.196442	-0.235503	-0.039794
H77	H	1.310203	-0.162142	-0.153498
H78	H	1.442737	-0.070414	-0.077764
H79	H	1.461513	-0.052044	0.111680
H80	H	1.347753	-0.125405	0.225385
H81	H	1.030977	-0.335936	0.333752
H82	H	1.246691	-0.803242	0.118263
H83	H	1.030947	-0.196887	0.333745
H84	H	1.246690	-0.664199	0.118267
C85	C	1.014051	-0.814194	0.350751
C86	C	1.014128	-0.898499	0.350825
C87	C	0.948754	-0.940654	0.416158
C88	C	0.883302	-0.898505	0.481418
C89	C	0.883223	-0.814195	0.481346
C90	C	0.948597	-0.772040	0.416013
H91	H	1.062582	-0.929705	0.302514
H92	H	0.948813	-1.003066	0.416211
H93	H	0.834908	-0.929710	0.529781
H94	H	0.834769	-0.782989	0.529657
H95	H	0.948538	-0.709628	0.415960
H96	H	1.031019	-0.664200	0.333772
