data_functionalizedCrystal
_audit_creation_method	'MofGen! by Chris Wilmer'
_symmetry_space_group_name_H-M	'P1'
_symmetry_Int_Tables_number	1
_symmetry_cell_setting	triclinic
loop_
_symmetry_equiv_pos_as_xyz
  x,y,z
_cell_length_a	19.077105
_cell_length_b	19.076808
_cell_length_c	19.076919
_cell_angle_alpha	90.121640
_cell_angle_beta	89.923776
_cell_angle_gamma	89.927608
loop_
_atom_site_label
_atom_site_type_symbol
_atom_site_fract_x
_atom_site_fract_y
_atom_site_fract_z
Zn1	Zn	1.045199	-0.339419	0.426239
Zn2	Zn	1.295199	-0.089419	0.676239
Zn3	Zn	1.545199	0.160581	0.926239
Zn4	Zn	1.795199	0.410581	1.176239
Zn5	Zn	1.045494	-0.452227	0.304020
Zn6	Zn	1.295494	-0.202227	0.554020
Zn7	Zn	1.545494	0.047773	0.804020
Zn8	Zn	1.795494	0.297773	1.054020
Zn9	Zn	0.932779	-0.330021	0.304425
Zn10	Zn	1.182779	-0.080021	0.554425
Zn11	Zn	1.432779	0.169979	0.804425
Zn12	Zn	1.682779	0.419979	1.054425
Zn13	Zn	0.923332	-0.451803	0.416790
Zn14	Zn	1.173332	-0.201803	0.666790
Zn15	Zn	1.423332	0.048197	0.916790
Zn16	Zn	1.673332	0.298197	1.166790
O17	O	0.986701	-0.393368	0.362869
O18	O	1.236701	-0.143368	0.612869
O19	O	1.486701	0.106632	0.862869
O20	O	1.736701	0.356632	1.112869
O21	O	1.143411	-0.358494	0.413811
O22	O	1.393411	-0.108494	0.663811
O23	O	1.643411	0.141506	0.913811
O24	O	1.893411	0.391506	1.163811
O25	O	1.034619	-0.432259	0.205899
O26	O	1.284619	-0.182259	0.455899
O27	O	1.534619	0.067741	0.705899
O28	O	1.784619	0.317741	0.955899
O29	O	0.951521	-0.233091	0.324708
O30	O	1.201521	0.016909	0.574708
O31	O	1.451521	0.266909	0.824708
O32	O	1.701521	0.516909	1.074708
O33	O	1.143629	-0.441373	0.324017
O34	O	1.393629	-0.191373	0.574017
O35	O	1.643629	0.058627	0.824017
O36	O	1.893629	0.308627	1.074017
O37	O	1.034116	-0.239996	0.414204
O38	O	1.284116	0.010004	0.664204
O39	O	1.534116	0.260004	0.914204
O40	O	1.784116	0.510004	1.164204
O41	O	0.951807	-0.342475	0.206197
O42	O	1.201807	-0.092475	0.456197
O43	O	1.451807	0.157525	0.706197
O44	O	1.701807	0.407525	0.956197
O45	O	0.833352	-0.342065	0.315546
O46	O	1.083352	-0.092065	0.565546
O47	O	1.333352	0.157935	0.815546
O48	O	1.583352	0.407935	1.065546
O49	O	0.935421	-0.440652	0.516218
O50	O	1.185421	-0.190652	0.766218
O51	O	1.435421	0.059348	1.016218
O52	O	1.685421	0.309348	1.266218
O53	O	0.826412	-0.431538	0.398100
O54	O	1.076412	-0.181538	0.648100
O55	O	1.326412	0.068462	0.898100
O56	O	1.576412	0.318462	1.148100
O57	O	1.024956	-0.358084	0.523160
O58	O	1.274956	-0.108084	0.773160
O59	O	1.524956	0.141916	1.023160
O60	O	1.774956	0.391916	1.273160
O61	O	1.025460	-0.550347	0.314855
O62	O	1.275460	-0.300347	0.564855
O63	O	1.525460	-0.050347	0.814855
O64	O	1.775460	0.199653	1.064855
O65	O	0.935708	-0.550036	0.397707
O66	O	1.185708	-0.300036	0.647707
O67	O	1.435708	-0.050036	0.897707
O68	O	1.685708	0.199964	1.147707
C69	C	0.804427	-0.385736	0.355842
C70	C	1.054427	-0.135736	0.605842
C71	C	1.304427	0.114264	0.855842
C72	C	1.554427	0.364264	1.105842
C73	C	0.726447	-0.382489	0.352852
C74	C	0.976447	-0.132489	0.602852
C75	C	1.226447	0.117511	0.852852
C76	C	1.476447	0.367511	1.102852
C77	C	0.686218	-0.427613	0.394355
C78	C	0.936218	-0.177613	0.644355
C79	C	1.186218	0.072387	0.894355
C80	C	1.436218	0.322387	1.144355
C81	C	0.612949	-0.424553	0.391549
C82	C	0.862949	-0.174553	0.641549
C83	C	1.112949	0.075447	0.891549
C84	C	1.362949	0.325447	1.141549
C85	C	0.579910	-0.376372	0.347236
C86	C	0.829910	-0.126372	0.597236
C87	C	1.079910	0.123628	0.847236
C88	C	1.329910	0.373628	1.097236
C89	C	0.620145	-0.331244	0.305731
C90	C	0.870145	-0.081244	0.555731
C91	C	1.120145	0.168756	0.805731
C92	C	1.370145	0.418756	1.055731
C93	C	0.693413	-0.334301	0.308541
C94	C	0.943413	-0.084301	0.558541
C95	C	1.193413	0.165699	0.808541
C96	C	1.443413	0.415699	1.058541
C97	C	0.361168	-0.362223	0.334234
C98	C	0.611168	-0.112223	0.584234
C99	C	0.861168	0.137777	0.834234
C100	C	1.111168	0.387777	1.084234
C101	C	0.287894	-0.359171	0.331426
C102	C	0.537894	-0.109171	0.581426
C103	C	0.787894	0.140829	0.831426
C104	C	1.037894	0.390829	1.081426
C105	C	0.280703	-0.452479	0.417246
C106	C	0.530703	-0.202479	0.667246
C107	C	0.780703	0.047521	0.917246
C108	C	1.030703	0.297521	1.167246
C109	C	0.353973	-0.455535	0.420048
C110	C	0.603973	-0.205535	0.670048
C111	C	0.853973	0.044465	0.920048
C112	C	1.103973	0.294465	1.170048
C113	C	0.394201	-0.410404	0.378546
C114	C	0.644201	-0.160404	0.628546
C115	C	0.894201	0.089596	0.878546
C116	C	1.144201	0.339596	1.128546
N117	N	0.505017	-0.373244	0.344365
N118	N	0.755017	-0.123244	0.594365
N119	N	1.005017	0.126756	0.844365
N120	N	1.255017	0.376756	1.094365
N121	N	0.469093	-0.413529	0.381421
N122	N	0.719093	-0.163529	0.631421
N123	N	0.969093	0.086471	0.881421
N124	N	1.219093	0.336471	1.131421
C125	C	0.979609	-0.575649	0.355228
C126	C	1.229609	-0.325649	0.605228
C127	C	1.479609	-0.075649	0.855228
C128	C	1.729609	0.174351	1.105228
C129	C	0.976638	-0.653633	0.351985
C130	C	1.226638	-0.403633	0.601985
C131	C	1.476638	-0.153633	0.851985
C132	C	1.726638	0.096367	1.101985
C133	C	1.018210	-0.693805	0.397092
C134	C	1.268210	-0.443805	0.647092
C135	C	1.518210	-0.193805	0.897092
C136	C	1.768210	0.056195	1.147092
C137	C	1.015416	-0.767080	0.394047
C138	C	1.265416	-0.517080	0.644047
C139	C	1.515416	-0.267080	0.894047
C140	C	1.765416	-0.017080	1.144047
C141	C	0.971053	-0.800181	0.345889
C142	C	1.221053	-0.550181	0.595889
C143	C	1.471053	-0.300181	0.845889
C144	C	1.721053	-0.050181	1.095889
C145	C	0.929477	-0.760004	0.300780
C146	C	1.179477	-0.510004	0.550780
C147	C	1.429477	-0.260004	0.800780
C148	C	1.679477	-0.010004	1.050780
C149	C	0.932268	-0.686731	0.303830
C150	C	1.182268	-0.436731	0.553830
C151	C	1.432268	-0.186731	0.803830
C152	C	1.682268	0.063269	1.053830
C153	C	0.958095	-1.018945	0.331771
C154	C	1.208095	-0.768945	0.581771
C155	C	1.458095	-0.518945	0.831771
C156	C	1.708095	-0.268945	1.081771
C157	C	0.955309	-1.092224	0.328723
C158	C	1.205309	-0.842224	0.578723
C159	C	1.455309	-0.592224	0.828723
C160	C	1.705309	-0.342224	1.078723
C161	C	1.041248	-1.099295	0.421991
C162	C	1.291248	-0.849295	0.671991
C163	C	1.541248	-0.599295	0.921991
C164	C	1.791248	-0.349295	1.171991
C165	C	1.044038	-1.026020	0.425034
C166	C	1.294038	-0.776020	0.675034
C167	C	1.544038	-0.526020	0.925034
C168	C	1.794038	-0.276020	1.175034
C169	C	1.002459	-0.985849	0.379927
C170	C	1.252459	-0.735849	0.629927
C171	C	1.502459	-0.485849	0.879927
C172	C	1.752459	-0.235849	1.129927
N173	N	0.968198	-0.875079	0.342773
N174	N	1.218198	-0.625079	0.592773
N175	N	1.468198	-0.375079	0.842773
N176	N	1.718198	-0.125079	1.092773
N177	N	1.005311	-0.910952	0.383047
N178	N	1.255311	-0.660952	0.633047
N179	N	1.505311	-0.410952	0.883047
N180	N	1.755311	-0.160952	1.133047
C181	C	1.169687	-0.401029	0.369923
C182	C	1.419687	-0.151029	0.619923
C183	C	1.669687	0.098971	0.869923
C184	C	1.919687	0.348971	1.119923
C185	C	1.247665	-0.404294	0.372929
C186	C	1.497665	-0.154294	0.622929
C187	C	1.747665	0.095706	0.872929
C188	C	1.997665	0.345706	1.122929
C189	C	0.979102	-0.400369	0.545856
C190	C	1.229102	-0.150369	0.795856
C191	C	1.479102	0.099631	1.045856
C192	C	1.729102	0.349631	1.295856
C193	C	0.975864	-0.403353	0.623835
C194	C	1.225864	-0.153353	0.873835
C195	C	1.475864	0.096647	1.123835
C196	C	1.725864	0.346647	1.373835
C197	C	0.993839	-0.210376	0.370555
C198	C	1.243839	0.039624	0.620555
C199	C	1.493839	0.289624	0.870555
C200	C	1.743839	0.539624	1.120555
C201	C	0.996881	-0.132395	0.373831
C202	C	1.246881	0.117605	0.623831
C203	C	1.496881	0.367605	0.873831
C204	C	1.746881	0.617605	1.123831
C205	C	0.994313	-0.386344	0.180596
C206	C	1.244313	-0.136344	0.430596
C207	C	1.494313	0.113656	0.680596
C208	C	1.744313	0.363656	0.930596
C209	C	0.997695	-0.383169	0.102632
C210	C	1.247695	-0.133169	0.352632
C211	C	1.497695	0.116831	0.602632
C212	C	1.747695	0.366831	0.852632
C213	C	1.020956	-0.361767	0.664084
C214	C	1.270956	-0.111767	0.914084
C215	C	1.520956	0.138233	1.164084
C216	C	1.770956	0.388233	1.414084
C217	C	1.017905	-0.364568	0.737353
C218	C	1.267905	-0.114568	0.987353
C219	C	1.517905	0.135432	1.237353
C220	C	1.767905	0.385432	1.487353
C221	C	0.969764	-0.408957	0.770371
C222	C	1.219764	-0.158957	1.020371
C223	C	1.469764	0.091043	1.270371
C224	C	1.719764	0.341043	1.520371
C225	C	0.924667	-0.450544	0.730116
C226	C	1.174667	-0.200544	0.980116
C227	C	1.424667	0.049456	1.230116
C228	C	1.674667	0.299456	1.480116
C229	C	0.927715	-0.447740	0.656848
C230	C	1.177715	-0.197740	0.906848
C231	C	1.427715	0.052260	1.156848
C232	C	1.677715	0.302260	1.406848
C233	C	0.955646	-0.421951	0.989109
C234	C	1.205646	-0.171951	1.239109
C235	C	1.455646	0.078049	1.489109
C236	C	1.705646	0.328049	1.739109
C237	C	0.952602	-0.424754	1.062382
C238	C	1.202602	-0.174754	1.312382
C239	C	1.452602	0.075246	1.562382
C240	C	1.702602	0.325246	1.812382
C241	C	1.045839	-0.338776	1.069614
C242	C	1.295839	-0.088776	1.319614
C243	C	1.545839	0.161224	1.569614
C244	C	1.795839	0.411224	1.819614
C245	C	1.048886	-0.335979	0.996345
C246	C	1.298886	-0.085979	1.246345
C247	C	1.548886	0.164021	1.496345
C248	C	1.798886	0.414021	1.746345
C249	C	1.003787	-0.377563	0.956097
C250	C	1.253787	-0.127563	1.206097
C251	C	1.503787	0.122437	1.456097
C252	C	1.753787	0.372437	1.706097
N253	N	0.966646	-0.411822	0.845263
N254	N	1.216646	-0.161822	1.095263
N255	N	1.466646	0.088178	1.345263
N256	N	1.716646	0.338178	1.595263
N257	N	1.006902	-0.374694	0.881206
N258	N	1.256902	-0.124694	1.131206
N259	N	1.506902	0.125306	1.381206
N260	N	1.756902	0.375306	1.631206
H261	H	0.580197	-0.461297	0.425345
H262	H	0.830197	-0.211297	0.675345
H263	H	1.080197	0.038703	0.925345
H264	H	1.330197	0.288703	1.175345
F265	F	0.901360	-0.471999	1.097520
F266	F	1.151360	-0.221999	1.347520
F267	F	1.401360	0.028001	1.597520
F268	F	1.651360	0.278001	1.847520
F269	F	1.059655	-0.809831	0.442064
F270	F	1.309655	-0.559831	0.692064
F271	F	1.559655	-0.309831	0.942064
F272	F	1.809655	-0.059831	1.192064
F273	F	1.072197	-0.314525	0.628951
F274	F	1.322197	-0.064525	0.878951
F275	F	1.572197	0.185475	1.128951
F276	F	1.822197	0.435475	1.378951
H277	H	0.593239	-0.292011	0.269653
H278	H	0.843239	-0.042011	0.519653
H279	H	1.093239	0.207989	0.769653
H280	H	1.343239	0.457989	1.019653
H281	H	0.898415	-0.654023	0.267099
H282	H	1.148415	-0.404023	0.517099
H283	H	1.398415	-0.154023	0.767099
H284	H	1.648415	0.095977	1.017099
H285	H	0.918932	-0.455822	0.956347
H286	H	1.168932	-0.205822	1.206347
H287	H	1.418932	0.044178	1.456347
H288	H	1.668932	0.294178	1.706347
F289	F	1.065432	-0.658583	0.448345
F290	F	1.315432	-0.408583	0.698345
F291	F	1.565432	-0.158583	0.948345
F292	F	1.815432	0.091417	1.198345
H293	H	0.924241	-0.986244	0.295042
H294	H	1.174241	-0.736244	0.545042
H295	H	1.424241	-0.486244	0.795042
H296	H	1.674241	-0.236244	1.045042
F297	F	1.065921	-0.320332	0.780187
F298	F	1.315921	-0.070332	1.030187
F299	F	1.565921	0.179668	1.280187
F300	F	1.815921	0.429668	1.530187
F301	F	0.908092	-1.127451	0.277463
F302	F	1.158092	-0.877451	0.527463
F303	F	1.408092	-0.627451	0.777463
F304	F	1.658092	-0.377451	1.027463
F305	F	0.389130	-0.506816	0.467211
F306	F	0.639130	-0.256816	0.717211
F307	F	0.889130	-0.006816	0.967211
F308	F	1.139130	0.243184	1.217211
H309	H	1.088089	-0.299834	0.969468
H310	H	1.338089	-0.049834	1.219468
H311	H	1.588089	0.200166	1.469468
H312	H	1.838089	0.450166	1.719468
H313	H	0.726167	-0.297553	0.274748
H314	H	0.976167	-0.047553	0.524748
H315	H	1.226167	0.202447	0.774748
H316	H	1.476167	0.452447	1.024748
H317	H	1.082556	-0.304920	1.102393
H318	H	1.332556	-0.054920	1.352393
H319	H	1.582556	0.195080	1.602393
H320	H	1.832556	0.445080	1.852393
H321	H	0.885468	-0.486684	0.757005
H322	H	1.135468	-0.236684	1.007005
H323	H	1.385468	0.013316	1.257005
H324	H	1.635468	0.263316	1.507005
H325	H	0.890990	-0.481595	0.624078
H326	H	1.140990	-0.231595	0.874078
H327	H	1.390990	0.018405	1.124078
H328	H	1.640990	0.268405	1.374078
F329	F	0.882256	-0.795235	0.249533
F330	F	1.132256	-0.545235	0.499533
F331	F	1.382256	-0.295235	0.749533
F332	F	1.632256	-0.045235	0.999533
F333	F	0.721374	-0.478897	0.441516
F334	F	0.971374	-0.228897	0.691516
F335	F	1.221374	0.021103	0.941516
F336	F	1.471374	0.271103	1.191516
H337	H	1.080162	-0.999070	0.464247
H338	H	1.330162	-0.749070	0.714247
H339	H	1.580162	-0.499070	0.964247
H340	H	1.830162	-0.249070	1.214247
H341	H	0.247941	-0.489221	0.451035
H342	H	0.497941	-0.239221	0.701035
H343	H	0.747941	0.010779	0.951035
H344	H	0.997941	0.260779	1.201035
H345	H	0.260997	-0.319928	0.295345
H346	H	0.510997	-0.069928	0.545345
H347	H	0.760997	0.180072	0.795345
H348	H	1.010997	0.430072	1.045345
F349	F	1.085494	-1.142052	0.469995
F350	F	1.335494	-0.892052	0.719995
F351	F	1.585494	-0.642052	0.969995
F352	F	1.835494	-0.392052	1.219995
F353	F	0.403972	-0.314189	0.290065
F354	F	0.653972	-0.064189	0.540065
F355	F	0.903972	0.185811	0.790065
F356	F	1.153972	0.435811	1.040065
