data_functionalizedCrystal
_audit_creation_method	'MofGen! by Chris Wilmer'
_symmetry_space_group_name_H-M	'P1'
_symmetry_Int_Tables_number	1
_symmetry_cell_setting	triclinic
loop_
_symmetry_equiv_pos_as_xyz
  x,y,z
_cell_length_a	19.288840
_cell_length_b	23.532407
_cell_length_c	18.366186
_cell_angle_alpha	89.986457
_cell_angle_beta	90.006306
_cell_angle_gamma	97.012658
loop_
_atom_site_label
_atom_site_type_symbol
_atom_site_fract_x
_atom_site_fract_y
_atom_site_fract_z
O1	O	0.921135	-0.070979	0.060681
O2	O	1.421135	0.429021	0.560681
O3	O	0.718842	-0.080578	0.060657
O4	O	1.218842	0.419422	0.560657
O5	O	0.826088	0.007141	0.060654
O6	O	1.326088	0.507141	0.560654
O7	O	0.813888	-0.158698	0.060684
O8	O	1.313888	0.341302	0.560684
O9	O	0.826091	0.007149	-0.060446
O10	O	1.326091	0.507149	0.439554
O11	O	0.718844	-0.080570	-0.060443
O12	O	1.218844	0.419430	0.439557
O13	O	0.921137	-0.070971	-0.060419
O14	O	1.421137	0.429029	0.439581
Zn15	Zn	0.819991	-0.075769	-0.079658
Zn16	Zn	1.319991	0.424231	0.420342
Zn17	Zn	0.819988	-0.075780	0.079896
Zn18	Zn	1.319988	0.424220	0.579896
O19	O	0.813891	-0.158690	-0.060416
O20	O	1.313891	0.341310	0.439584
C21	C	0.692967	-0.080267	0.000104
C22	C	1.192967	0.419733	0.500104
C23	C	0.615866	-0.079347	0.000094
C24	C	1.115866	0.420653	0.500094
C25	C	0.579662	-0.078910	0.066107
C26	C	1.079662	0.421090	0.566107
C27	C	0.507218	-0.078039	0.066116
C28	C	1.007218	0.421961	0.566116
C29	C	0.470982	-0.077594	0.000108
C30	C	0.970982	0.422406	0.500108
C31	C	0.507194	-0.078035	-0.065914
C32	C	1.007194	0.421965	0.434086
C33	C	0.579636	-0.078912	-0.065921
C34	C	1.079636	0.421088	0.434079
C35	C	0.361762	-0.042844	-0.050460
C36	C	0.861762	0.457156	0.449540
C37	C	0.289323	-0.041964	-0.050450
C38	C	0.789323	0.458036	0.449550
C39	C	0.247547	-0.074894	0.000126
C40	C	0.747547	0.425106	0.500126
C41	C	0.278221	-0.108695	0.050705
C42	C	0.778221	0.391305	0.550705
C43	C	0.350663	-0.109572	0.050698
C44	C	0.850663	0.390428	0.550698
C45	C	0.392431	-0.076644	0.000108
C46	C	0.892431	0.423356	0.500108
C47	C	0.132791	-0.073513	0.066153
C48	C	0.632791	0.426487	0.566153
C49	C	0.060344	-0.072646	0.066159
C50	C	0.560344	0.427354	0.566159
C51	C	0.060323	-0.072636	-0.065872
C52	C	0.560323	0.427364	0.434128
C53	C	0.132766	-0.073509	-0.065877
C54	C	0.632766	0.426491	0.434123
C55	C	0.168997	-0.073944	0.000138
C56	C	0.668997	0.426056	0.500138
C57	C	0.825779	0.028362	0.000101
C58	C	1.325779	0.528362	0.500101
C59	C	0.824845	0.091581	0.000094
C60	C	1.324845	0.591581	0.500094
C61	C	0.882453	0.490568	0.000129
C62	C	1.382453	0.990568	0.500129
C63	C	0.881585	0.549970	0.000132
C64	C	1.381585	1.049970	0.500132
O65	O	0.934988	0.586608	0.000164
O66	O	1.434988	1.086608	0.500164
N67	N	0.817827	0.572724	0.000123
N68	N	1.317827	1.072724	0.500123
C69	C	0.754932	0.536072	0.000118
C70	C	1.254932	1.036072	0.500118
O71	O	0.700622	0.560880	0.000112
O72	O	1.200622	1.060880	0.500112
C73	C	0.755801	0.476671	0.000120
C74	C	1.255801	0.976671	0.500120
C75	C	0.819563	0.453921	0.000121
C76	C	1.319563	0.953921	0.500121
C77	C	0.946209	0.467818	0.000131
C78	C	1.446209	0.967818	0.500131
C79	C	0.947077	0.408420	0.000126
C80	C	1.447077	0.908420	0.500126
C81	C	0.884187	0.371773	0.000119
C82	C	1.384187	0.871773	0.500119
C83	C	0.820430	0.394523	0.000116
C84	C	1.320430	0.894523	0.500116
C85	C	0.692907	0.440021	0.000120
C86	C	1.192907	0.940021	0.500120
C87	C	0.693781	0.380616	0.000122
C88	C	1.193781	0.880616	0.500122
C89	C	0.757543	0.357866	0.000124
C90	C	1.257543	0.857866	0.500124
C91	C	0.758408	0.298478	0.000104
C92	C	1.258408	0.798478	0.500104
N93	N	0.822166	0.275725	0.000113
N94	N	1.322166	0.775725	0.500113
C95	C	0.885056	0.312372	0.000120
C96	C	1.385056	0.812372	0.500120
C97	C	0.753113	0.660818	0.000116
C98	C	1.253113	1.160818	0.500116
C99	C	0.752244	0.720218	0.000110
C100	C	1.252244	1.220218	0.500110
C101	C	0.878897	0.734112	0.000125
C102	C	1.378897	1.234112	0.500125
C103	C	0.879765	0.674711	0.000126
C104	C	1.379765	1.174711	0.500126
C105	C	0.816871	0.638065	0.000125
C106	C	1.316871	1.138065	0.500125
C107	C	0.886873	0.187631	0.000109
C108	C	1.386873	0.687631	0.500109
C109	C	0.887734	0.128228	0.000101
C110	C	1.387734	0.628228	0.500101
C111	C	0.761082	0.114339	0.000090
C112	C	1.261082	0.614339	0.500090
C113	C	0.760220	0.173737	0.000094
C114	C	1.260220	0.673737	0.500094
C115	C	0.823121	0.210383	0.000106
C116	C	1.323121	0.710383	0.500106
O117	O	0.705034	0.261806	0.000075
O118	O	1.205034	0.761806	0.500075
O119	O	0.939358	0.287555	0.000136
O120	O	1.439358	0.787555	0.500136
C121	C	0.947012	-0.071282	0.000136
C122	C	1.447012	0.428718	0.500136
C123	C	1.024113	-0.072202	0.000151
C124	C	1.524113	0.427798	0.500151
C125	C	0.814200	0.820089	0.000131
C126	C	1.314200	1.320089	0.500131
C127	C	0.815134	0.756870	0.000121
C128	C	1.315134	1.256870	0.500121
N129	N	0.819986	-0.075784	0.188787
N130	N	1.319986	0.424216	0.688787
N131	N	0.819999	-0.075761	-0.188549
N132	N	1.319999	0.424239	0.311451
C133	C	0.867559	-0.037017	0.226886
C134	C	1.367559	0.462983	0.726886
C135	C	0.867565	-0.037016	0.303114
C136	C	1.367565	0.462984	0.803114
C137	C	0.819986	-0.075776	0.341240
C138	C	1.319986	0.424224	0.841240
C139	C	0.772410	-0.114549	0.303131
C140	C	1.272410	0.385451	0.803131
C141	C	0.772410	-0.114553	0.226905
C142	C	1.272410	0.385447	0.726905
C143	C	0.756675	-0.083279	0.462000
C144	C	1.256675	0.416721	0.962000
C145	C	0.756674	-0.083271	0.538225
C146	C	1.256674	0.416729	1.038225
C147	C	0.819987	-0.075767	0.576347
C148	C	1.319987	0.424233	1.076347
C149	C	0.883303	-0.068259	0.538235
C150	C	1.383303	0.431741	1.038235
C151	C	0.883303	-0.068263	0.462009
C152	C	1.383303	0.431737	0.962009
C153	C	0.819981	-0.075776	0.423894
C154	C	1.319981	0.424224	0.923894
C155	C	0.867570	-0.036997	0.697101
C156	C	1.367570	0.463003	1.197101
C157	C	0.867577	-0.037000	0.773331
C158	C	1.367577	0.463000	1.273331
C159	C	0.772416	-0.114531	0.773347
C160	C	1.272416	0.385469	1.273347
C161	C	0.772415	-0.114531	0.697119
C162	C	1.272415	0.385469	1.197119
C163	C	0.819991	-0.075761	0.659001
C164	C	1.319991	0.424239	1.159001
H165	H	0.477735	-0.077684	0.119873
H166	H	0.977735	0.422316	0.619873
O167	O	0.951588	-0.060172	0.420900
O168	O	1.451588	0.439828	0.920900
H169	H	0.955680	-0.098220	0.386184
H170	H	1.455680	0.401780	0.886184
O171	O	0.618691	-0.079382	-0.137123
O172	O	1.118691	0.420618	0.362877
H173	H	0.645223	-0.118592	-0.140272
H174	H	1.145223	0.381408	0.359728
O175	O	0.691446	0.198273	0.000084
O176	O	1.191446	0.698273	0.500084
H177	H	0.688017	0.225013	-0.049274
H178	H	1.188017	0.725013	0.450726
O179	O	1.015848	0.383884	0.000135
O180	O	1.515848	0.883884	0.500135
H181	H	1.019268	0.357142	0.049492
H182	H	1.519268	0.857142	0.549492
O183	O	0.951600	-0.060166	0.579336
O184	O	1.451600	0.439834	1.079336
H185	H	0.955709	-0.098214	0.614070
H186	H	1.455709	0.401786	1.114070
O187	O	0.721094	-0.156368	0.185811
O188	O	1.221094	0.343632	0.685811
H189	H	0.729090	-0.149861	0.126402
H190	H	1.229090	0.350139	0.626402
H191	H	0.997425	0.497651	0.000140
H192	H	1.497425	0.997651	0.500140
O193	O	0.693255	0.074804	0.000084
O194	O	1.193255	0.574804	0.500084
H195	H	0.662721	0.082875	-0.049278
H196	H	1.162721	0.582875	0.450722
H197	H	0.244208	-0.135512	0.091887
H198	H	0.744208	0.364488	0.591887
H199	H	0.906306	-0.005447	0.334140
H200	H	1.406306	0.494553	0.834140
H201	H	0.733679	-0.146092	0.804388
H202	H	1.233679	0.353908	1.304388
O203	O	0.918890	0.004808	0.655979
O204	O	1.418890	0.504808	1.155979
H205	H	0.951982	0.031758	0.695282
H206	H	1.451982	0.531758	1.195282
O207	O	0.918886	0.004818	0.814428
O208	O	1.418886	0.504818	1.314428
H209	H	0.972954	-0.002397	0.799802
H210	H	1.472954	0.497603	1.299802
O211	O	0.618740	-0.079388	0.137305
O212	O	1.118740	0.420612	0.637305
H213	H	0.581388	-0.078943	0.183210
H214	H	1.081388	0.421057	0.683210
O215	O	0.685273	0.621293	0.000104
O216	O	1.185273	1.121293	0.500104
H217	H	0.682643	0.593905	-0.049253
H218	H	1.182643	1.093905	0.450747
O219	O	0.918885	0.004784	0.185771
O220	O	1.418885	0.504784	0.685771
H221	H	0.951974	0.031736	0.225075
H222	H	1.451974	0.531736	0.725075
H223	H	0.162290	-0.073874	0.119907
H224	H	0.662290	0.426126	0.619907
O225	O	0.383750	-0.146034	0.105238
O226	O	0.883750	0.353966	0.605238
H227	H	0.342535	-0.168790	0.140406
H228	H	0.842535	0.331210	0.640406
O229	O	0.721084	-0.156344	0.344256
O230	O	1.221084	0.343656	0.844256
H231	H	0.750052	-0.184007	0.379011
H232	H	1.250052	0.315993	0.879011
H233	H	0.395771	-0.016028	-0.091649
H234	H	0.895771	0.483972	0.408351
O235	O	0.721120	-0.156356	0.656018
O236	O	1.221120	0.343644	1.156018
H237	H	0.688040	-0.183313	0.695333
H238	H	1.188040	0.316687	1.195333
H239	H	0.705115	-0.089392	0.430968
H240	H	1.205115	0.410608	0.930968
H241	H	0.705118	-0.089377	0.569250
H242	H	1.205118	0.410623	1.069250
O243	O	0.171812	-0.073981	-0.137083
O244	O	0.671812	0.426019	0.362917
H245	H	0.211289	-0.035576	-0.140259
H246	H	0.711289	0.464424	0.359741
O247	O	0.021294	-0.072154	0.137362
O248	O	0.521294	0.427846	0.637362
H249	H	0.058663	-0.072591	0.183262
H250	H	0.558663	0.427409	0.683262
H251	H	0.030819	-0.072277	-0.119618
H252	H	0.530819	0.427723	0.380382
H253	H	0.264354	-0.014438	-0.091631
H254	H	0.764354	0.485562	0.408369
H255	H	0.700323	0.738735	0.000096
H256	H	1.200323	1.238735	0.500096
H257	H	0.642564	0.350781	0.000122
H258	H	1.142564	0.850781	0.500122
O259	O	0.946731	0.773645	0.000132
O260	O	1.446731	1.273645	0.500132
H261	H	0.977266	0.765566	0.049490
H262	H	1.477266	1.265566	0.549490
O263	O	0.467957	-0.077763	-0.137034
O264	O	0.967957	0.422237	0.362966
H265	H	0.441293	-0.038627	-0.140311
H266	H	0.941293	0.461373	0.359689
O267	O	0.956509	0.103689	0.000114
O268	O	1.456509	0.603689	0.500114
H269	H	1.000092	0.139155	0.000131
H270	H	1.500092	0.639155	0.500131
O271	O	0.954715	0.227151	0.000109
O272	O	1.454715	0.727151	0.500109
H273	H	0.985254	0.219066	0.049463
H274	H	1.485254	0.719066	0.549463
O275	O	0.948536	0.650174	0.000142
O276	O	1.448536	1.150174	0.500142
H277	H	0.992117	0.685642	0.000152
H278	H	1.492117	1.185642	0.500152
H279	H	0.640985	0.458533	0.000123
H280	H	1.140985	0.958533	0.500123
