data_functionalizedCrystal
_audit_creation_method	'MofGen! by Chris Wilmer'
_symmetry_space_group_name_H-M	'P1'
_symmetry_Int_Tables_number	1
_symmetry_cell_setting	triclinic
loop_
_symmetry_equiv_pos_as_xyz
  x,y,z
_cell_length_a	12.759401
_cell_length_b	12.827892
_cell_length_c	12.759393
_cell_angle_alpha	89.970128
_cell_angle_beta	89.982932
_cell_angle_gamma	90.015553
loop_
_atom_site_label
_atom_site_type_symbol
_atom_site_fract_x
_atom_site_fract_y
_atom_site_fract_z
Zn1	Zn	1.606236	-0.415977	-0.593987
Zn2	Zn	1.606132	-0.590755	-0.418309
Zn3	Zn	1.430542	-0.416029	-0.418326
Zn4	Zn	1.430524	-0.590677	-0.593950
O5	O	1.518358	-0.503359	-0.506143
O6	O	1.753243	-0.439172	-0.570691
O7	O	1.582804	-0.567631	-0.271290
O8	O	1.453899	-0.269786	-0.441650
O9	O	1.753167	-0.567581	-0.441621
O10	O	1.582980	-0.269748	-0.570707
O11	O	1.453798	-0.439261	-0.271303
O12	O	1.283518	-0.439186	-0.441615
O13	O	1.453868	-0.567449	-0.740976
O14	O	1.283505	-0.567499	-0.570645
O15	O	1.582963	-0.439097	-0.741003
O16	O	1.582787	-0.736980	-0.441586
O17	O	1.453768	-0.736924	-0.570629
C18	C	1.245391	-0.503340	-0.506129
C19	C	1.128614	-0.503357	-0.506147
C20	C	1.518293	-0.774869	-0.506124
C21	C	1.518361	-0.891022	-0.506152
C22	C	1.073773	-0.570277	-0.573222
C23	C	0.964049	-0.570290	-0.573234
C24	C	0.964017	-0.436461	-0.439086
C25	C	1.073739	-0.436443	-0.439081
C26	C	1.073790	-0.647546	-0.650668
C27	C	0.964066	-0.647559	-0.650680
C28	C	1.582279	-0.942801	-0.442368
C29	C	1.582351	-1.062851	-0.442395
C30	C	1.792392	-0.503380	-0.506158
C31	C	1.909168	-0.503388	-0.506164
C32	C	1.518425	-0.503259	-0.780176
C33	C	1.518454	-0.503216	-0.896953
C34	C	1.518453	-0.230789	-0.506184
C35	C	1.518493	-0.114636	-0.506202
C36	C	1.585677	-0.569986	-1.061529
C37	C	1.585637	-0.570031	-0.951805
C38	C	1.451297	-0.436360	-0.951831
C39	C	1.451332	-0.436321	-1.061553
C40	C	1.663240	-0.647157	-1.061514
C41	C	1.663201	-0.647202	-0.951790
C42	C	1.518352	-0.503384	-0.233176
C43	C	1.518527	-0.503133	-0.116399
H44	H	1.118387	-0.381944	-0.384469
H45	H	0.919325	-0.381981	-0.384484
H46	H	1.103597	-0.625963	-0.732075
Br47	Br	1.614555	-0.775357	-0.895039
H48	H	0.930067	-0.618671	-0.728031
Br49	Br	1.360112	-0.345686	-0.877390
Br50	Br	1.798814	-0.611100	-0.902148
Br51	Br	0.914394	-0.782406	-0.614091
Br52	Br	1.673414	-0.868563	-0.351323
Br53	Br	1.130494	-0.775653	-0.601969
Br54	Br	1.427244	-0.965260	-0.597215
H55	H	1.637071	-1.107379	-0.387784
H56	H	1.463763	-1.070116	-0.560809
Br57	Br	1.626896	-0.782032	-1.111131
H58	H	1.740554	-0.618159	-1.095550
Br59	Br	1.360144	-0.345641	-1.136017
