data_functionalizedCrystal
_audit_creation_method	'MofGen! by Chris Wilmer'
_symmetry_space_group_name_H-M	'P1'
_symmetry_Int_Tables_number	1
_symmetry_cell_setting	triclinic
loop_
_symmetry_equiv_pos_as_xyz
  x,y,z
_cell_length_a	17.038272
_cell_length_b	16.992695
_cell_length_c	16.053802
_cell_angle_alpha	87.258926
_cell_angle_beta	87.238566
_cell_angle_gamma	89.110110
loop_
_atom_site_label
_atom_site_type_symbol
_atom_site_fract_x
_atom_site_fract_y
_atom_site_fract_z
O1	O	1.051195	-0.167893	-0.069325
O2	O	0.823395	-0.165177	-0.069350
O3	O	0.936382	-0.052332	-0.069331
O4	O	0.938209	-0.280738	-0.069344
O5	O	0.930161	-0.058516	0.069527
O6	O	0.817174	-0.171361	0.069508
O7	O	1.044974	-0.174077	0.069533
Zn8	Zn	0.930087	-0.173701	0.091567
Zn9	Zn	0.938283	-0.165553	-0.091384
O10	O	0.931988	-0.286922	0.069514
C11	C	0.930922	-0.026054	0.000098
C12	C	0.923911	0.061457	0.000097
C13	C	0.791002	-0.165799	0.000076
C14	C	0.703747	-0.158432	0.000067
N15	N	0.924499	-0.179261	0.216426
C16	C	0.657877	-0.226072	0.000064
C17	C	0.575891	-0.219145	0.000076
C18	C	0.539777	-0.144578	0.000085
C19	C	0.585654	-0.076933	0.000090
C20	C	0.667637	-0.083861	0.000084
C21	C	0.292483	-0.120105	0.000108
C22	C	0.210493	-0.113182	0.000112
C23	C	0.200736	-0.255395	0.000099
C24	C	0.282722	-0.262316	0.000088
C25	C	0.328591	-0.194671	0.000098
C26	C	0.455975	-0.137496	0.000094
C27	C	0.412392	-0.201754	0.000094
C28	C	1.077368	-0.173454	0.000105
C29	C	1.164623	-0.180822	0.000109
C30	C	0.937448	-0.313199	0.000083
C31	C	0.944458	-0.400711	0.000079
C32	C	0.991551	0.107186	0.000105
C33	C	0.984960	0.189412	0.000096
C34	C	0.910728	0.225909	0.000085
C35	C	0.843083	0.180175	0.000075
C36	C	0.849676	0.097950	0.000077
C37	C	0.883406	0.471330	0.000071
C38	C	0.876819	0.553561	0.000071
C39	C	1.018696	0.562793	0.000091
C40	C	1.025282	0.480565	0.000098
C41	C	0.957637	0.434839	0.000083
N42	N	0.903989	0.309958	0.000079
N43	N	0.964377	0.350792	0.000083
N44	N	0.943877	-0.159987	-0.216244
C45	C	0.972594	-0.131265	0.260128
C46	C	0.968693	-0.135162	0.347534
C47	C	0.916700	-0.187061	0.391237
C48	C	0.868599	-0.235059	0.347529
C49	C	0.872497	-0.231157	0.260124
C50	C	0.899673	-0.204083	0.652644
C51	C	0.895781	-0.207983	0.740054
C52	C	0.995875	-0.108085	0.740054
C53	C	0.999771	-0.104191	0.652648
C54	C	0.951667	-0.152186	0.608947
N55	N	0.912713	-0.191048	0.480580
N56	N	0.955651	-0.148195	0.519606
H57	H	0.687274	-0.286792	0.000056
Br58	Br	0.757875	0.035889	0.000060
Br59	Br	1.126030	0.431041	0.000086
Br60	Br	1.092299	0.057662	0.000132
Br61	Br	0.798029	-0.305488	0.406836
Br62	Br	1.043167	-0.060834	0.200827
Br63	Br	1.061154	-0.042951	0.799364
Br64	Br	1.033964	-0.070021	0.406847
H65	H	0.782642	0.209897	0.000061
Br66	Br	1.070337	-0.033761	0.593336
Br67	Br	0.406957	-0.036300	0.000106
H68	H	0.828325	0.434109	0.000059
Br69	Br	0.138482	-0.347193	0.000086
H70	H	0.853439	-0.250248	0.775633
H71	H	0.860506	-0.243164	0.617070
H72	H	0.538547	-0.274225	0.000072
Br73	Br	0.331729	-0.363517	0.000066
H74	H	1.040040	0.226641	0.000105
H75	H	0.833331	-0.270239	0.224543
Br76	Br	0.161481	-0.011978	0.000142
H77	H	0.329820	-0.065023	0.000117
Br78	Br	0.776068	0.603091	0.000065
H79	H	0.556243	-0.016219	0.000110
H80	H	0.704984	-0.028781	0.000087
H81	H	1.073768	0.600032	0.000101
Br82	Br	0.461404	-0.302950	0.000087
