data_functionalizedCrystal
_audit_creation_method	'MofGen! by Chris Wilmer'
_symmetry_space_group_name_H-M	'P1'
_symmetry_Int_Tables_number	1
_symmetry_cell_setting	triclinic
loop_
_symmetry_equiv_pos_as_xyz
  x,y,z
_cell_length_a	12.759401
_cell_length_b	13.031981
_cell_length_c	13.033429
_cell_angle_alpha	105.210260
_cell_angle_beta	82.837615
_cell_angle_gamma	97.192303
loop_
_atom_site_label
_atom_site_type_symbol
_atom_site_fract_x
_atom_site_fract_y
_atom_site_fract_z
Zn1	Zn	1.492205	-0.346570	0.546790
Zn2	Zn	1.492097	-0.546823	0.346587
Zn3	Zn	1.336295	-0.369192	0.369185
Zn4	Zn	1.296712	-0.524181	0.524167
O5	O	1.404327	-0.446692	0.446682
O6	O	1.639209	-0.373143	0.520242
O7	O	1.487950	-0.542203	0.200939
O8	O	1.373587	-0.217520	0.411670
O9	O	1.639130	-0.520268	0.373154
O10	O	1.488134	-0.200901	0.542155
O11	O	1.373482	-0.411698	0.217542
O12	O	1.184025	-0.389743	0.389734
O13	O	1.306124	-0.481678	0.675814
O14	O	1.154944	-0.503613	0.503599
O15	O	1.449752	-0.351188	0.692435
O16	O	1.449568	-0.692490	0.351218
O17	O	1.306019	-0.675855	0.481686
C18	C	1.131364	-0.446676	0.446664
C19	C	1.014584	-0.446692	0.446678
C20	C	1.373512	-0.722718	0.411568
C21	C	1.360422	-0.840799	0.396582
C22	C	0.849969	-0.523217	0.370030
C23	C	0.959697	-0.523203	0.370012
C24	C	0.959738	-0.370182	0.523361
C25	C	0.850013	-0.370192	0.523374
C26	C	1.119343	-0.576926	0.239854
C27	C	1.174183	-0.653443	0.163182
C28	C	1.128836	-0.759184	0.133522
C29	C	1.028647	-0.788426	0.180547
C30	C	0.973812	-0.711914	0.257226
C31	C	1.019161	-0.606161	0.286868
C32	C	0.690364	-0.316480	0.653532
C33	C	0.635525	-0.239971	0.730217
C34	C	0.680869	-0.134227	0.759887
C35	C	0.781058	-0.104986	0.712880
C36	C	0.835897	-0.181495	0.636196
C37	C	0.790546	-0.287238	0.606524
C38	C	1.411213	-0.885129	0.454525
C39	C	1.397684	-1.007172	0.439037
C40	C	1.678356	-0.446708	0.446701
C41	C	1.795131	-0.446715	0.446709
C42	C	1.373535	-0.411384	0.723744
C43	C	1.360413	-0.396338	0.841812
C44	C	1.435288	-0.169584	0.481957
C45	C	1.448482	-0.051497	0.496989
C46	C	1.435069	-0.481785	0.170708
C47	C	1.448427	-0.496532	0.052679
C48	C	1.397642	-0.438666	1.008258
C49	C	1.411205	-0.454212	0.886230
H50	H	0.805288	-0.585526	0.307604
H51	H	1.255770	-0.629630	0.124916
H52	H	1.156270	-0.490822	0.263988
F53	F	0.980414	-0.900984	0.149014
H54	H	0.892242	-0.735723	0.295515
H55	H	1.306894	-0.335279	0.894117
F56	F	1.018155	-0.288750	0.604953
F57	F	1.518390	-0.576324	0.984313
H58	H	0.653435	-0.402586	0.629380
H59	H	1.501981	-0.999102	0.558071
F60	F	1.187205	-0.840618	0.051924
H61	H	0.917585	-0.157734	0.598105
H62	H	0.553947	-0.263790	0.768496
F63	F	0.829323	0.007558	0.744462
H64	H	0.636211	-0.071936	0.822338
F65	F	1.481171	-0.534008	0.817866
H66	H	1.464708	-0.832731	0.515603
H67	H	1.344176	-1.059567	0.377965
F68	F	1.327691	-0.358863	1.076626
F69	F	1.290487	-0.909283	0.316758
