data_functionalizedCrystal
_audit_creation_method	'MofGen! by Chris Wilmer'
_symmetry_space_group_name_H-M	'P1'
_symmetry_Int_Tables_number	1
_symmetry_cell_setting	triclinic
loop_
_symmetry_equiv_pos_as_xyz
  x,y,z
_cell_length_a	16.120490
_cell_length_b	11.169416
_cell_length_c	11.169409
_cell_angle_alpha	90.031365
_cell_angle_beta	92.919204
_cell_angle_gamma	87.102791
loop_
_atom_site_label
_atom_site_type_symbol
_atom_site_fract_x
_atom_site_fract_y
_atom_site_fract_z
Zn1	Zn	1.274677	-0.570971	0.771557
Zn2	Zn	1.608010	-0.237637	1.104890
Zn3	Zn	1.941343	0.095696	1.438223
Zn4	Zn	1.274600	-0.771705	0.570872
Zn5	Zn	1.607933	-0.438372	0.904205
Zn6	Zn	1.941267	-0.105039	1.237538
Zn7	Zn	1.135248	-0.560840	0.560718
Zn8	Zn	1.468582	-0.227506	0.894051
Zn9	Zn	1.801915	0.105827	1.227385
Zn10	Zn	1.135254	-0.761410	0.761349
Zn11	Zn	1.468587	-0.428076	1.094682
Zn12	Zn	1.801921	-0.094743	1.428016
O13	O	1.204945	-0.666231	0.666124
O14	O	1.538278	-0.332898	0.999457
O15	O	1.871611	0.000435	1.332790
O16	O	1.391334	-0.606147	0.753457
O17	O	1.724668	-0.272814	1.086790
O18	O	2.058001	0.060519	1.420123
O19	O	1.256080	-0.743803	0.401572
O20	O	1.589414	-0.410469	0.734906
O21	O	1.922747	-0.077136	1.068239
O22	O	1.153773	-0.394236	0.588709
O23	O	1.487107	-0.060903	0.922042
O24	O	1.820440	0.272431	1.255375
O25	O	1.391278	-0.753626	0.606014
O26	O	1.724612	-0.420293	0.939347
O27	O	2.057945	-0.086960	1.272681
O28	O	1.256211	-0.401679	0.743611
O29	O	1.589544	-0.068346	1.076944
O30	O	1.922877	0.264988	1.410278
O31	O	1.153699	-0.588880	0.394112
O32	O	1.487033	-0.255547	0.727446
O33	O	1.820366	0.077786	1.060779
O34	O	1.018581	-0.578897	0.578811
O35	O	1.351915	-0.245563	0.912144
O36	O	1.685248	0.087770	1.245477
O37	O	1.153783	-0.736078	0.930655
O38	O	1.487116	-0.402745	1.263989
O39	O	1.820450	-0.069412	1.597322
O40	O	1.018585	-0.726255	0.726214
O41	O	1.351919	-0.392921	1.059547
O42	O	1.685252	-0.059588	1.392880
O43	O	1.256216	-0.596164	0.938155
O44	O	1.589550	-0.262830	1.271488
O45	O	1.922883	0.070503	1.604822
O46	O	1.256086	-0.938287	0.596116
O47	O	1.589419	-0.604954	0.929449
O48	O	1.922753	-0.271621	1.262783
O49	O	1.153709	-0.930723	0.736059
O50	O	1.487042	-0.597390	1.069393
O51	O	1.820376	-0.264056	1.402726
C52	C	0.988333	-0.650360	0.650303
C53	C	1.321666	-0.317027	0.983637
C54	C	1.654999	0.016307	1.316970
C55	C	0.895665	-0.643599	0.643564
C56	C	1.228998	-0.310266	0.976897
C57	C	1.562332	0.023067	1.310230
C58	C	1.204912	-0.978054	0.666110
C59	C	1.538246	-0.644720	0.999443
C60	C	1.871579	-0.311387	1.332776
C61	C	1.204975	-1.111458	0.666149
C62	C	1.538308	-0.778125	0.999483
C63	C	1.871642	-0.444791	1.332816
C64	C	0.684735	-0.701292	0.701085
C65	C	1.018069	-0.367958	1.034418
C66	C	1.351402	-0.034625	1.367752
C67	C	0.726005	-0.631267	0.631257
C68	C	1.059339	-0.297933	0.964591
C69	C	1.392672	0.035400	1.297924
C70	C	0.820413	-0.638131	0.638107
C71	C	1.153746	-0.304797	0.971440
C72	C	1.487079	0.028536	1.304773
C73	C	0.590320	-0.694429	0.694237
C74	C	0.923653	-0.361096	1.027571
C75	C	1.256986	-0.027763	1.360904
C76	C	1.422403	-0.682165	0.682007
C77	C	1.755736	-0.348832	1.015340
C78	C	2.089070	-0.015499	1.348673
C79	C	1.515071	-0.688956	0.688775
C80	C	1.848404	-0.355622	1.022108
C81	C	2.181737	-0.022289	1.355442
C82	C	1.205009	-0.666103	0.979171
C83	C	1.538342	-0.332769	1.312504
C84	C	1.871675	0.000564	1.645838
C85	C	1.205036	-0.666048	1.112573
C86	C	1.538369	-0.332715	1.445906
C87	C	1.871703	0.000619	1.779240
C88	C	1.205000	-0.353193	0.666166
C89	C	1.538333	-0.019860	0.999499
C90	C	1.871667	0.313474	1.332833
C91	C	1.205023	-0.219795	0.666184
C92	C	1.538357	0.113539	0.999517
C93	C	1.871690	0.446872	1.332851
C94	C	1.204929	-0.666276	0.354298
C95	C	1.538262	-0.332943	0.687631
C96	C	1.871596	0.000390	1.020965
C97	C	1.205063	-0.666005	0.220908
C98	C	1.538397	-0.332671	0.554242
C99	C	1.871730	0.000662	0.887575
H100	H	0.720303	-0.766393	0.766004
H101	H	1.053636	-0.433060	1.099338
H102	H	1.386970	-0.099726	1.432671
H103	H	0.690435	-0.566161	0.566332
H104	H	1.023769	-0.232828	0.899665
H105	H	1.357102	0.100505	1.232999
