data_functionalizedCrystal
_audit_creation_method	'MofGen! by Chris Wilmer'
_symmetry_space_group_name_H-M	'P1'
_symmetry_Int_Tables_number	1
_symmetry_cell_setting	triclinic
loop_
_symmetry_equiv_pos_as_xyz
  x,y,z
_cell_length_a	21.295420
_cell_length_b	29.839131
_cell_length_c	21.295411
_cell_angle_alpha	89.971982
_cell_angle_beta	89.975307
_cell_angle_gamma	90.033479
loop_
_atom_site_label
_atom_site_type_symbol
_atom_site_fract_x
_atom_site_fract_y
_atom_site_fract_z
Zn1	Zn	0.962335	-0.178925	-0.355886
Zn2	Zn	1.462335	0.321075	0.144114
Zn3	Zn	0.962228	-0.254041	-0.250599
Zn4	Zn	1.462228	0.245959	0.249401
Zn5	Zn	0.857058	-0.178924	-0.250631
Zn6	Zn	1.357058	0.321076	0.249369
Zn7	Zn	0.857019	-0.254027	-0.355831
Zn8	Zn	1.357019	0.245973	0.144169
O9	O	0.909660	-0.216479	-0.303237
O10	O	1.409660	0.283521	0.196763
O11	O	1.050410	-0.188896	-0.341929
O12	O	1.550410	0.311104	0.158071
O13	O	0.948249	-0.244082	-0.162514
O14	O	1.448249	0.255918	0.337486
O15	O	0.871084	-0.116057	-0.264629
O16	O	1.371084	0.383943	0.235371
O17	O	1.050332	-0.244083	-0.264576
O18	O	1.550332	0.255917	0.235424
O19	O	0.948430	-0.116058	-0.341959
O20	O	1.448430	0.383942	0.158041
O21	O	0.870981	-0.188893	-0.162537
O22	O	1.370981	0.311107	0.337463
O23	O	0.768963	-0.188879	-0.264576
O24	O	1.268963	0.311121	0.235424
O25	O	0.871017	-0.244059	-0.443928
O26	O	1.371017	0.255941	0.056072
O27	O	0.768934	-0.244058	-0.341866
O28	O	1.268934	0.255942	0.158134
O29	O	0.948392	-0.188883	-0.443968
O30	O	1.448392	0.311117	0.056032
O31	O	0.948211	-0.316906	-0.264523
O32	O	1.448211	0.183094	0.235477
O33	O	0.870914	-0.316896	-0.341836
O34	O	1.370914	0.183104	0.158164
C35	C	0.746108	-0.216467	-0.303219
C36	C	1.246108	0.283533	0.196781
C37	C	0.676140	-0.216473	-0.303226
C38	C	1.176140	0.283527	0.196774
C39	C	0.176684	-0.245263	-0.343443
C40	C	0.676684	0.254737	0.156557
C41	C	0.242426	-0.245264	-0.343436
C42	C	0.742426	0.254736	0.156564
C43	C	0.275301	-0.216489	-0.303256
C44	C	0.775301	0.283511	0.196744
C45	C	0.242427	-0.187721	-0.263069
C46	C	0.742427	0.312279	0.236931
C47	C	0.176686	-0.187725	-0.263072
C48	C	0.676686	0.312275	0.236928
N49	N	0.378546	-0.177154	-0.298530
N50	N	0.878546	0.322846	0.201470
N51	N	0.440997	-0.177151	-0.298530
N52	N	0.940997	0.322849	0.201470
C53	C	0.473375	-0.216477	-0.303243
C54	C	0.973375	0.283523	0.196757
N55	N	0.440943	-0.255806	-0.307967
N56	N	0.940943	0.244194	0.192033
N57	N	0.378486	-0.255808	-0.307970
N58	N	0.878486	0.244192	0.192030
C59	C	0.346586	-0.216482	-0.303248
C60	C	0.846586	0.283518	0.196752
C61	C	0.577526	-0.245246	-0.343418
C62	C	1.077526	0.254754	0.156582
C63	C	0.643270	-0.245247	-0.343406
C64	C	1.143270	0.254753	0.156594
C65	C	0.643270	-0.187700	-0.263043
C66	C	1.143270	0.312300	0.236957
C67	C	0.577528	-0.187703	-0.263051
C68	C	1.077528	0.312297	0.236949
C69	C	0.544660	-0.216475	-0.303241
C70	C	1.044660	0.283525	0.196759
C71	C	0.909564	-0.333202	-0.303184
C72	C	1.409564	0.166798	0.196816
C73	C	0.909580	-0.383136	-0.303182
C74	C	1.409580	0.116864	0.196818
C75	C	0.949925	-0.692745	-0.343560
C76	C	1.449925	-0.192745	0.156440
C77	C	0.949994	-0.880419	-0.343598
C78	C	1.449994	-0.380419	0.156402
O79	O	0.984202	-0.904654	-0.377889
O80	O	1.484202	-0.404654	0.122111
N81	N	0.909767	-0.903921	-0.303306
N82	N	1.409767	-0.403921	0.196694
C83	C	0.869517	-0.880503	-0.263006
C84	C	1.369517	-0.380503	0.236994
O85	O	0.835299	-0.904800	-0.228741
O86	O	1.335299	-0.404800	0.271259
C87	C	0.869446	-0.692831	-0.262972
C88	C	1.369446	-0.192831	0.237028
C89	C	0.909680	-0.669330	-0.303261
C90	C	1.409680	-0.169330	0.196739
C91	C	0.990156	-0.669245	-0.383847
C92	C	1.490156	-0.169245	0.116153
C93	C	0.990141	-0.622330	-0.383834
C94	C	1.490141	-0.122330	0.116166
C95	C	0.949895	-0.598915	-0.343535
C96	C	1.449895	-0.098915	0.156465
C97	C	0.909665	-0.622415	-0.303249
C98	C	1.409665	-0.122415	0.196751
C99	C	0.829193	-0.669413	-0.222674
C100	C	1.329193	-0.169413	0.277326
C101	C	0.829178	-0.622492	-0.222671
C102	C	1.329178	-0.122492	0.277329
C103	C	0.869412	-0.598992	-0.262960
C104	C	1.369412	-0.098992	0.237040
C105	C	0.869405	-0.552084	-0.262937
C106	C	1.369405	-0.052084	0.237063
N107	N	0.909631	-0.528582	-0.303229
N108	N	1.409631	-0.028582	0.196771
C109	C	0.949877	-0.551997	-0.343528
C110	C	1.449877	-0.051997	0.156472
C111	C	0.869558	-0.979034	-0.263026
C112	C	1.369558	-0.479034	0.236974
C113	C	0.869576	-1.025951	-0.263033
C114	C	1.369576	-0.525951	0.236967
C115	C	0.950052	-1.025864	-0.343626
C116	C	1.450052	-0.525864	0.156374
C117	C	0.950037	-0.978945	-0.343615
C118	C	1.450037	-0.478945	0.156385
C119	C	0.909785	-0.955531	-0.303317
C120	C	1.409785	-0.455531	0.196683
C121	C	0.949843	-0.453471	-0.343499
C122	C	1.449843	0.046529	0.156501
C123	C	0.949826	-0.406551	-0.343481
C124	C	1.449826	0.093449	0.156519
C125	C	0.869348	-0.406643	-0.262890
C126	C	1.369348	0.093357	0.237110
C127	C	0.869366	-0.453559	-0.262905
C128	C	1.369366	0.046441	0.237095
C129	C	0.909616	-0.476971	-0.303215
C130	C	1.409616	0.023029	0.196785
O131	O	0.835209	-0.527820	-0.228669
O132	O	1.335209	-0.027820	0.271331
O133	O	0.984080	-0.527692	-0.377797
O134	O	1.484080	-0.027692	0.122203
C135	C	0.949940	-0.739661	-0.343572
C136	C	1.449940	-0.239661	0.156428
C137	C	0.909710	-0.763161	-0.303286
C138	C	1.409710	-0.263161	0.196714
C139	C	0.869465	-0.739746	-0.262987
C140	C	1.369465	-0.239746	0.237013
C141	C	0.909729	-0.810079	-0.303293
C142	C	1.409729	-0.310079	0.196707
C143	C	0.949974	-0.833494	-0.343592
C144	C	1.449974	-0.333494	0.156408
C145	C	0.990201	-0.809991	-0.383884
C146	C	1.490201	-0.309991	0.116116
C147	C	0.990186	-0.763076	-0.383871
C148	C	1.490186	-0.263076	0.116129
C149	C	0.829238	-0.763249	-0.222695
C150	C	1.329238	-0.263249	0.277305
C151	C	0.829257	-0.810164	-0.222710
C152	C	1.329257	-0.310164	0.277290
C153	C	0.869502	-0.833580	-0.263009
C154	C	1.369502	-0.333580	0.236991
C155	C	1.073850	-0.216492	-0.303255
C156	C	1.573850	0.283508	0.196745
C157	C	1.143818	-0.216497	-0.303263
C158	C	1.643818	0.283503	0.196737
C159	C	0.909712	-0.216470	-0.467427
C160	C	1.409712	0.283530	0.032573
C161	C	0.909734	-0.216466	-0.537395
C162	C	1.409734	0.283534	-0.037395
C163	C	0.909773	-0.099301	-0.303304
C164	C	1.409773	0.400699	0.196696
C165	C	0.909822	-0.049366	-0.303332
C166	C	1.409822	0.450634	0.196668
C167	C	0.950022	-0.187734	-0.570284
C168	C	1.450022	0.312266	-0.070284
C169	C	0.950021	-0.187714	-0.636026
C170	C	1.450021	0.312286	-0.136026
C171	C	0.909739	-0.216435	-0.668878
C172	C	1.409739	0.283565	-0.168878
C173	C	0.869444	-0.245169	-0.635981
C174	C	1.369444	0.254831	-0.135981
C175	C	0.869441	-0.245184	-0.570240
C176	C	1.369441	0.254816	-0.070240
N177	N	0.904878	-0.255735	-0.772087
N178	N	1.404878	0.244265	-0.272087
N179	N	0.904884	-0.255719	-0.834538
N180	N	1.404884	0.244281	-0.334538
C181	C	0.909743	-0.216389	-0.866953
C182	C	1.409743	0.283611	-0.366953
N183	N	0.914609	-0.177075	-0.834556
N184	N	1.414609	0.322925	-0.334556
N185	N	0.914606	-0.177091	-0.772099
N186	N	1.414606	0.322909	-0.272099
C187	C	0.909737	-0.216421	-0.740163
C188	C	1.409737	0.283579	-0.240163
C189	C	0.950032	-0.187634	-0.971127
C190	C	1.450032	0.312366	-0.471127
C191	C	0.950027	-0.187614	-1.036871
C192	C	1.450027	0.312386	-0.536871
C193	C	0.869453	-0.245072	-1.036824
C194	C	1.369453	0.254928	-0.536824
C195	C	0.869455	-0.245088	-0.971082
C196	C	1.369455	0.254912	-0.471082
C197	C	0.909748	-0.216370	-0.938237
C198	C	1.409748	0.283630	-0.438237
C199	C	0.909644	-0.216456	-0.139685
C200	C	1.409644	0.283544	0.360315
C201	C	0.909744	-0.216334	-0.069717
C202	C	1.409744	0.283666	0.430283
H203	H	0.149927	-0.268693	-0.376167
H204	H	0.649927	0.231307	0.123833
H205	H	1.022948	-0.743945	-0.416679
H206	H	1.522948	-0.243945	0.083321
H207	H	0.836648	-0.268452	-1.063571
H208	H	1.336648	0.231548	-0.563571
C209	C	0.825121	-0.276794	-0.534061
C210	C	1.325121	0.223206	-0.034061
N211	N	0.791740	-0.300603	-0.506811
N212	N	1.291740	0.199397	-0.006811
C213	C	0.541374	-0.156052	-0.218857
C214	C	1.041374	0.343948	0.281143
N215	N	0.514144	-0.132210	-0.185569
N216	N	1.014144	0.367790	0.314431
H217	H	1.022972	-0.829064	-0.416694
H218	H	1.522972	-0.329064	0.083306
H219	H	0.550764	-0.268674	-0.376142
H220	H	1.050764	0.231326	0.123858
C221	C	0.994349	-0.156039	-0.934995
C222	C	1.494349	0.343961	-0.434995
N223	N	1.027728	-0.132242	-0.907783
N224	N	1.527728	0.367758	-0.407783
H225	H	0.982833	-0.164214	-1.063647
H226	H	1.482833	0.335786	-0.563647
H227	H	0.796398	-0.603431	-0.189856
H228	H	1.296398	-0.103431	0.310144
H229	H	0.836652	-0.268487	-0.944303
H230	H	1.336652	0.231513	-0.444303
H231	H	0.982827	-0.164315	-0.662809
H232	H	1.482827	0.335685	-0.162809
C233	C	0.278585	-0.276907	-0.387643
C234	C	0.778585	0.223093	0.112357
N235	N	0.305819	-0.300739	-0.420941
N236	N	0.805819	0.199261	0.079059
C237	C	1.034404	-0.596485	-0.428154
C238	C	1.534404	-0.096485	0.071846
N239	N	1.067746	-0.577022	-0.461538
N240	N	1.567746	-0.077022	0.038462
H241	H	0.149927	-0.164299	-0.230353
H242	H	0.649927	0.335701	0.269647
C243	C	0.994319	-1.051629	-0.387959
C244	C	1.494319	-0.551629	0.112041
N245	N	1.027655	-1.071038	-0.421353
N246	N	1.527655	-0.571038	0.078647
H247	H	0.269198	-0.164294	-0.230354
H248	H	0.769198	0.335706	0.269646
H249	H	0.670028	-0.268675	-0.376124
H250	H	1.170028	0.231325	0.123876
H251	H	0.670036	-0.164273	-0.230326
H252	H	1.170036	0.335727	0.269674
H253	H	0.982591	-0.387419	-0.376289
H254	H	1.482591	0.112581	0.123711
H255	H	0.796494	-0.829294	-0.189896
H256	H	1.296494	-0.329294	0.310104
H257	H	0.982613	-0.472528	-0.376327
H258	H	1.482613	0.027472	0.123673
H259	H	1.022928	-0.688305	-0.416667
H260	H	1.522928	-0.188305	0.083333
C261	C	0.994337	-0.156137	-0.534158
C262	C	1.494337	0.343863	-0.034158
N263	N	1.027713	-0.132336	-0.506948
N264	N	1.527713	0.367664	-0.006948
H265	H	0.796431	-0.688539	-0.189866
H266	H	1.296431	-0.188539	0.310134
H267	H	0.836821	-1.045081	-0.230219
H268	H	1.336821	-0.545081	0.269781
H269	H	0.796464	-0.744188	-0.189880
H270	H	1.296464	-0.244188	0.310120
C271	C	0.994294	-0.953099	-0.387939
C272	C	1.494294	-0.453099	0.112061
N273	N	1.027630	-0.933634	-0.421326
N274	N	1.527630	-0.433634	0.078674
H275	H	0.836779	-0.959973	-0.230208
H276	H	1.336779	-0.459973	0.269792
H277	H	0.836610	-0.472694	-0.230094
H278	H	1.336610	0.027306	0.269906
C279	C	0.825077	-0.380878	-0.218566
C280	C	1.325077	0.119122	0.281434
N281	N	0.791728	-0.361469	-0.185185
N282	N	1.291728	0.138531	0.314815
C283	C	0.825131	-0.276759	-0.672119
C284	C	1.325131	0.223241	-0.172119
N285	N	0.791751	-0.300552	-0.699338
N286	N	1.291751	0.199448	-0.199338
