data_functionalizedCrystal
_audit_creation_method	'MofGen! by Chris Wilmer'
_symmetry_space_group_name_H-M	'P1'
_symmetry_Int_Tables_number	1
_symmetry_cell_setting	triclinic
loop_
_symmetry_equiv_pos_as_xyz
  x,y,z
_cell_length_a	14.908783
_cell_length_b	12.645329
_cell_length_c	14.908854
_cell_angle_alpha	86.674305
_cell_angle_beta	90.167510
_cell_angle_gamma	93.309020
loop_
_atom_site_label
_atom_site_type_symbol
_atom_site_fract_x
_atom_site_fract_y
_atom_site_fract_z
Zn1	Zn	1.345344	-0.291052	-0.587856
Zn2	Zn	1.845344	0.208948	-0.087856
Zn3	Zn	1.353926	-0.477959	-0.437500
Zn4	Zn	1.853926	0.022041	0.062500
Zn5	Zn	1.203653	-0.311474	-0.428824
Zn6	Zn	1.703653	0.188526	0.071176
Zn7	Zn	1.194957	-0.479050	-0.579125
Zn8	Zn	1.694957	0.020950	-0.079125
O9	O	1.274470	-0.389884	-0.508326
O10	O	1.774470	0.110116	-0.008326
O11	O	1.472310	-0.306843	-0.575196
O12	O	1.972310	0.193157	-0.075196
O13	O	1.341223	-0.463964	-0.310523
O14	O	1.841223	0.036036	0.189477
O15	O	1.222497	-0.160413	-0.449943
O16	O	1.722497	0.339587	0.050057
O17	O	1.478616	-0.444162	-0.464730
O18	O	1.978616	0.055838	0.035270
O19	O	1.326597	-0.145409	-0.566784
O20	O	1.826597	0.354591	-0.066784
O21	O	1.230818	-0.341649	-0.304149
O22	O	1.730818	0.158351	0.195851
O23	O	1.076672	-0.342707	-0.441477
O24	O	1.576672	0.157293	0.058523
O25	O	1.207675	-0.446022	-0.706110
O26	O	1.707675	0.053978	-0.206110
O27	O	1.070282	-0.465824	-0.551903
O28	O	1.570282	0.034176	-0.051903
O29	O	1.318164	-0.307901	-0.712524
O30	O	1.818164	0.192099	-0.212524
O31	O	1.332791	-0.626456	-0.456264
O32	O	1.832791	-0.126456	0.043736
O33	O	1.215996	-0.627257	-0.560315
O34	O	1.715996	-0.127257	-0.060315
C35	C	1.040851	-0.406601	-0.494802
C36	C	1.540851	0.093399	0.005198
C37	C	0.940907	-0.413776	-0.489037
C38	C	1.440907	0.086224	0.010963
C39	C	1.274404	-0.665320	-0.508304
C40	C	1.774404	-0.165320	-0.008304
C41	C	1.274457	-0.783144	-0.508330
C42	C	1.774457	-0.283144	-0.008330
C43	C	0.746523	-0.284444	-0.593409
C44	C	1.246523	0.215556	-0.093409
C45	C	0.652617	-0.291182	-0.587996
C46	C	1.152617	0.208818	-0.087996
C47	C	0.659185	-0.433985	-0.472793
C48	C	1.159185	0.066015	0.027207
C49	C	0.753092	-0.427247	-0.478206
C50	C	1.253092	0.072753	0.021794
C51	C	0.796758	-0.352475	-0.538517
C52	C	1.296758	0.147525	-0.038517
C53	C	0.890666	-0.345742	-0.543935
C54	C	1.390666	0.154258	-0.043935
C55	C	0.897233	-0.488540	-0.428728
C56	C	1.397233	0.011460	0.071272
C57	C	0.803326	-0.495278	-0.423315
C58	C	1.303326	0.004722	0.076685
C59	C	1.200951	-0.828580	-0.573746
C60	C	1.700951	-0.328580	-0.073746
C61	C	1.201222	-0.951100	-0.574064
C62	C	1.701222	-0.451100	-0.074064
C63	C	1.367916	-0.942478	-0.539351
C64	C	1.867916	-0.442478	-0.039351
C65	C	1.367403	-0.819885	-0.539798
C66	C	1.867403	-0.319885	-0.039798
C67	C	1.255513	-0.836263	-0.411836
C68	C	1.755513	-0.336263	0.088164
C69	C	1.253475	-0.958981	-0.412256
C70	C	1.753475	-0.458981	0.087744
C71	C	1.509001	-0.373103	-0.521904
C72	C	2.009001	0.126897	-0.021904
C73	C	1.608944	-0.365951	-0.527691
C74	C	2.108944	0.134049	-0.027691
C75	C	1.260992	-0.374805	-0.742854
C76	C	1.760992	0.125195	-0.242854
C77	C	1.255249	-0.368379	-0.842796
C78	C	1.755249	0.131621	-0.342796
C79	C	1.274559	-0.113370	-0.508370
C80	C	1.774559	0.386630	-0.008370
C81	C	1.274597	0.004464	-0.508388
C82	C	1.774597	0.504464	-0.008388
C83	C	1.359442	-0.483667	-1.037238
C84	C	1.859442	0.016333	-0.537238
C85	C	1.354048	-0.477633	-1.131142
C86	C	1.854048	0.022367	-0.631142
C87	C	1.239073	-0.350271	-1.124512
C88	C	1.739073	0.149729	-0.624512
C89	C	1.244467	-0.356306	-1.030607
C90	C	1.744467	0.143694	-0.530607
C91	C	1.304652	-0.423007	-0.986974
C92	C	1.804652	0.076993	-0.486974
C93	C	1.310040	-0.429047	-0.893067
C94	C	1.810040	0.070953	-0.393067
C95	C	1.195071	-0.301680	-0.886439
C96	C	1.695071	0.198320	-0.386439
C97	C	1.189677	-0.295645	-0.980343
C98	C	1.689677	0.204355	-0.480343
C99	C	1.287947	-0.404824	-0.274714
C100	C	1.787947	0.095176	0.225286
C101	C	1.293865	-0.410938	-0.174783
C102	C	1.793865	0.089062	0.325217
H103	H	0.926217	-0.284860	-0.593044
H104	H	1.426217	0.215140	-0.093044
H105	H	0.938143	-0.543944	-0.384038
H106	H	1.438143	-0.043944	0.115962
Cl107	Cl	0.801420	-0.190457	-0.669234
Cl108	Cl	1.301420	0.309543	-0.169234
H109	H	1.131861	-0.987340	-0.554074
H110	H	1.631861	-0.487340	-0.054074
H111	H	1.423981	-0.970904	-0.493425
H112	H	1.923981	-0.470904	0.006575
H113	H	1.408451	-0.537973	-1.001711
H114	H	1.908451	-0.037973	-0.501711
H115	H	0.767761	-0.556152	-0.374209
H116	H	1.267761	-0.056152	0.125791
Cl117	Cl	1.126159	-0.225453	-0.823242
Cl118	Cl	1.626159	0.274547	-0.323242
H119	H	1.131318	-0.805267	-0.553916
H120	H	1.631318	-0.305267	-0.053916
Cl121	Cl	1.422931	-0.553893	-1.194329
Cl122	Cl	1.922931	-0.053893	-0.694329
Cl123	Cl	1.114022	-0.211795	-1.035205
Cl124	Cl	1.614022	0.288205	-0.535205
H125	H	1.213416	-0.974685	-0.645464
H126	H	1.713416	-0.474685	-0.145464
H127	H	0.611719	-0.235782	-0.632692
H128	H	1.111719	0.264218	-0.132692
H129	H	0.623617	-0.494850	-0.423681
H130	H	1.123617	0.005150	0.076319
H131	H	1.359051	-0.483353	-0.857543
H132	H	1.859051	0.016647	-0.357543
H133	H	1.309112	-0.806898	-0.363031
H134	H	1.809112	-0.306898	0.136969
Cl135	Cl	1.163428	-0.266414	-1.179381
Cl136	Cl	1.663428	0.233586	-0.679381
Cl137	Cl	1.152618	-0.798505	-0.369867
Cl138	Cl	1.652618	-0.298505	0.130133
Cl139	Cl	1.219405	-0.772235	-0.683332
Cl140	Cl	1.719405	-0.272235	-0.183332
Cl141	Cl	1.393138	-0.766462	-0.648942
Cl142	Cl	1.893138	-0.266462	-0.148942
Cl143	Cl	1.454402	-0.772865	-0.469869
Cl144	Cl	1.954402	-0.272865	0.030131
H145	H	1.385027	-0.967198	-0.609318
H146	H	1.885027	-0.467198	-0.109318
H147	H	1.184825	-0.994397	-0.389000
H148	H	1.684825	-0.494397	0.111000
H149	H	1.303560	-0.989713	-0.360498
H150	H	1.803560	-0.489713	0.139502
