data_functionalizedCrystal
_audit_creation_method	'MofGen! by Chris Wilmer'
_symmetry_space_group_name_H-M	'P1'
_symmetry_Int_Tables_number	1
_symmetry_cell_setting	triclinic
loop_
_symmetry_equiv_pos_as_xyz
  x,y,z
_cell_length_a	21.395362
_cell_length_b	21.295417
_cell_length_c	21.395355
_cell_angle_alpha	89.978549
_cell_angle_beta	89.956060
_cell_angle_gamma	90.046383
loop_
_atom_site_label
_atom_site_type_symbol
_atom_site_fract_x
_atom_site_fract_y
_atom_site_fract_z
Zn1	Zn	0.957860	-0.250415	-0.354573
Zn2	Zn	1.457860	0.249585	0.145427
Zn3	Zn	0.957763	-0.355667	-0.249790
Zn4	Zn	1.457763	0.144333	0.250210
Zn5	Zn	0.853075	-0.250445	-0.249774
Zn6	Zn	1.353075	0.249555	0.250226
Zn7	Zn	0.853045	-0.355680	-0.354495
Zn8	Zn	1.353045	0.144320	0.145505
O9	O	0.905436	-0.303052	-0.302158
O10	O	1.405436	0.196948	0.197842
O11	O	1.045525	-0.264359	-0.340713
O12	O	1.545525	0.235641	0.159287
O13	O	0.943848	-0.341716	-0.162110
O14	O	1.443848	0.158284	0.337890
O15	O	0.867029	-0.162351	-0.263702
O16	O	1.367029	0.337649	0.236298
O17	O	1.045454	-0.341687	-0.263729
O18	O	1.545454	0.158313	0.236271
O19	O	0.944014	-0.162330	-0.340697
O20	O	1.444014	0.337670	0.159303
O21	O	0.866934	-0.264409	-0.162098
O22	O	1.366934	0.235591	0.337902
O23	O	0.765393	-0.264422	-0.263626
O24	O	1.265393	0.235578	0.236374
O25	O	0.866977	-0.341709	-0.442183
O26	O	1.366977	0.158291	0.057817
O27	O	0.765371	-0.341738	-0.340564
O28	O	1.265371	0.158262	0.159436
O29	O	0.943984	-0.264372	-0.442240
O30	O	1.443984	0.235628	0.057760
O31	O	0.943819	-0.443758	-0.263653
O32	O	1.443819	0.056242	0.236347
O33	O	0.866883	-0.443767	-0.340579
O34	O	1.366883	0.056233	0.159421
C35	C	0.742648	-0.303085	-0.302085
C36	C	1.242648	0.196915	0.197915
C37	C	0.673007	-0.303114	-0.302069
C38	C	1.173007	0.196886	0.197931
C39	C	0.640299	-0.343426	-0.342070
C40	C	1.140299	0.156574	0.157930
C41	C	0.574863	-0.343411	-0.342098
C42	C	1.074863	0.156589	0.157902
C43	C	0.542139	-0.303090	-0.302114
C44	C	1.042139	0.196910	0.197886
C45	C	0.574855	-0.262771	-0.262109
C46	C	1.074855	0.237229	0.237891
C47	C	0.640289	-0.262783	-0.262087
C48	C	1.140289	0.237217	0.237913
C49	C	0.438414	-0.298019	-0.245709
C50	C	0.938414	0.201981	0.254291
C51	C	0.372981	-0.298011	-0.245730
C52	C	0.872981	0.201989	0.254270
C53	C	0.340318	-0.303049	-0.302183
C54	C	0.840318	0.196951	0.197817
C55	C	0.373096	-0.308108	-0.358616
C56	C	0.873096	0.191892	0.141384
C57	C	0.438530	-0.308120	-0.358594
C58	C	0.938530	0.191880	0.141406
C59	C	0.471186	-0.303072	-0.302134
C60	C	0.971186	0.196928	0.197866
C61	C	0.236657	-0.343346	-0.342218
C62	C	0.736657	0.156654	0.157782
C63	C	0.171221	-0.343326	-0.342247
C64	C	0.671221	0.156674	0.157753
C65	C	0.171214	-0.262690	-0.262252
C66	C	0.671214	0.237310	0.237748
C67	C	0.236649	-0.262706	-0.262229
C68	C	0.736649	0.237294	0.237771
C69	C	0.269367	-0.303038	-0.302211
C70	C	0.769367	0.196962	0.197789
C71	C	0.905354	-0.466603	-0.302123
C72	C	1.405354	0.033397	0.197877
C73	C	0.905376	-0.536571	-0.302129
C74	C	1.405376	-0.036571	0.197871
C75	C	0.945472	-0.569412	-0.262115
C76	C	1.445472	-0.069412	0.237885
C77	C	0.945502	-0.635155	-0.262129
C78	C	1.445502	-0.135155	0.237871
C79	C	0.905424	-0.668054	-0.302151
C80	C	1.405424	-0.168054	0.197849
C81	C	0.865324	-0.635205	-0.342173
C82	C	1.365324	-0.135205	0.157827
C83	C	0.865301	-0.569464	-0.342162
C84	C	1.365301	-0.069464	0.157838
N85	N	0.850614	-0.771336	-0.306903
N86	N	1.350614	-0.271336	0.193097
N87	N	0.850638	-0.833787	-0.306910
N88	N	1.350638	-0.333787	0.193090
C89	C	0.905494	-0.866129	-0.302187
C90	C	1.405494	-0.366129	0.197813
N91	N	0.960325	-0.833659	-0.297445
N92	N	1.460325	-0.333659	0.202555
N93	N	0.960300	-0.771202	-0.297435
N94	N	1.460300	-0.271202	0.202565
C95	C	0.905445	-0.739339	-0.302167
C96	C	1.405445	-0.239339	0.197833
C97	C	0.945625	-0.970255	-0.262186
C98	C	1.445625	-0.470255	0.237814
C99	C	0.945656	-1.035999	-0.262204
C100	C	1.445656	-0.535999	0.237796
C101	C	0.865473	-1.036048	-0.342245
C102	C	1.365473	-0.536048	0.157755
C103	C	0.865448	-0.970305	-0.342230
C104	C	1.365448	-0.470305	0.157770
C105	C	0.905523	-0.937413	-0.302197
C106	C	1.405523	-0.437413	0.197803
C107	C	1.068859	-0.303019	-0.302231
C108	C	1.568859	0.196981	0.197769
C109	C	1.138501	-0.303005	-0.302262
C110	C	1.638501	0.196995	0.197738
C111	C	0.905488	-0.303039	-0.465581
C112	C	1.405488	0.196961	0.034419
C113	C	0.905510	-0.303033	-0.535223
C114	C	1.405510	0.196967	-0.035223
C115	C	0.905535	-0.138861	-0.302206
C116	C	1.405535	0.361139	0.197794
C117	C	0.905578	-0.068893	-0.302227
C118	C	1.405578	0.431107	0.197773
C119	C	0.945606	-0.262762	-0.567967
C120	C	1.445606	0.237238	-0.067967
C121	C	0.945605	-0.262735	-0.633402
C122	C	1.445605	0.237265	-0.133402
C123	C	0.905515	-0.302991	-0.666091
C124	C	1.405515	0.197009	-0.166091
C125	C	0.865411	-0.343265	-0.633339
C126	C	1.365411	0.156735	-0.133339
C127	C	0.865409	-0.343286	-0.567905
C128	C	1.365409	0.156714	-0.067905
C129	C	0.900539	-0.359672	-0.769752
C130	C	1.400539	0.140328	-0.269752
C131	C	0.900546	-0.359652	-0.835185
C132	C	1.400546	0.140348	-0.335185
C133	C	0.905519	-0.302924	-0.867912
C134	C	1.405519	0.197076	-0.367912
C135	C	0.910498	-0.246215	-0.835198
C136	C	1.410498	0.253785	-0.335198
C137	C	0.910496	-0.246237	-0.769763
C138	C	1.410496	0.253763	-0.269763
C139	C	0.905513	-0.302972	-0.737043
C140	C	1.405513	0.197028	-0.237043
C141	C	0.945616	-0.262620	-0.971608
C142	C	1.445616	0.237380	-0.471608
C143	C	0.945611	-0.262592	-1.037045
C144	C	1.445611	0.237408	-0.537045
C145	C	0.865420	-0.343127	-1.036981
C146	C	1.365420	0.156873	-0.536981
C147	C	0.865422	-0.343150	-0.971545
C148	C	1.365422	0.156850	-0.471545
C149	C	0.905523	-0.302897	-0.938863
C150	C	1.405523	0.197103	-0.438863
C151	C	0.905420	-0.303019	-0.139370
C152	C	1.405420	0.196981	0.360630
C153	C	0.905519	-0.302847	-0.069729
C154	C	1.405519	0.197153	0.430271
H155	H	0.666933	-0.376266	-0.374628
H156	H	1.166933	0.123734	0.125372
H157	H	0.832771	-0.375897	-1.063595
H158	H	1.332771	0.124103	-0.563595
H159	H	0.832843	-1.062834	-0.374834
H160	H	1.332843	-0.562834	0.125166
H161	H	0.144570	-0.229857	-0.229699
H162	H	0.644570	0.270143	0.270301
Cl163	Cl	0.815035	-0.929017	-0.392534
Cl164	Cl	1.315035	-0.429017	0.107466
Cl165	Cl	0.814943	-0.676563	-0.392489
Cl166	Cl	1.314943	-0.176563	0.107511
H167	H	0.548227	-0.376237	-0.374675
H168	H	1.048227	0.123763	0.125325
H169	H	0.144590	-0.376152	-0.374825
H170	H	0.644590	0.123848	0.125175
Cl171	Cl	0.894293	-0.430942	-0.876304
Cl172	Cl	1.394293	0.069058	-0.376304
Cl173	Cl	0.996016	-0.212155	-0.526884
Cl174	Cl	1.496016	0.287845	-0.026884
Cl175	Cl	0.814998	-0.393918	-0.526739
Cl176	Cl	1.314998	0.106082	-0.026739
H177	H	0.263280	-0.229883	-0.229652
H178	H	0.763280	0.270117	0.270348
H179	H	0.978155	-0.661899	-0.229545
H180	H	1.478155	-0.161899	0.270455
Cl181	Cl	0.996003	-0.212092	-0.674575
Cl182	Cl	1.496003	0.287908	-0.174575
H183	H	0.346298	-0.293896	-0.199778
H184	H	0.846298	0.206104	0.300222
H185	H	0.896322	-0.405855	-0.743111
H186	H	1.396322	0.094145	-0.243111
Cl187	Cl	0.277791	-0.394044	-0.392484
Cl188	Cl	0.777791	0.105956	0.107516
H189	H	0.832775	-0.375947	-0.944885
H190	H	1.332775	0.124053	-0.444885
Cl191	Cl	0.996025	-0.212015	-0.930519
Cl192	Cl	1.496025	0.287985	-0.430519
Cl193	Cl	0.479735	-0.314475	-0.429535
Cl194	Cl	0.979735	0.185525	0.070465
Cl195	Cl	0.332042	-0.314438	-0.429591
Cl196	Cl	0.832042	0.185562	0.070409
H197	H	0.832767	-0.376039	-0.659959
H198	H	1.332767	0.123961	-0.159959
H199	H	0.978261	-0.229795	-1.063704
H200	H	1.478261	0.270205	-0.563704
H201	H	0.832649	-0.542724	-0.374747
H202	H	1.332649	-0.042724	0.125253
Cl203	Cl	0.996004	-0.928901	-0.211859
Cl204	Cl	1.496004	-0.428901	0.288141
Cl205	Cl	0.996072	-1.077285	-0.211900
Cl206	Cl	1.496072	-0.577285	0.288100
Cl207	Cl	0.916750	-0.174949	-0.728639
Cl208	Cl	1.416750	0.325051	-0.228639
Cl209	Cl	0.916753	-0.174895	-0.876332
Cl210	Cl	1.416753	0.325105	-0.376332
H211	H	0.548206	-0.229940	-0.229555
H212	H	1.048206	0.270060	0.270445
Cl213	Cl	0.681410	-0.212101	-0.211795
Cl214	Cl	1.181410	0.287899	0.288205
Cl215	Cl	0.479469	-0.291688	-0.174732
Cl216	Cl	0.979469	0.208312	0.325268
H217	H	0.978105	-0.542633	-0.229519
H218	H	1.478105	-0.042633	0.270481
