data_functionalizedCrystal
_audit_creation_method	'MofGen! by Chris Wilmer'
_symmetry_space_group_name_H-M	'P1'
_symmetry_Int_Tables_number	1
_symmetry_cell_setting	triclinic
loop_
_symmetry_equiv_pos_as_xyz
  x,y,z
_cell_length_a	29.839134
_cell_length_b	29.839131
_cell_length_c	16.959447
_cell_angle_alpha	89.958350
_cell_angle_beta	89.981990
_cell_angle_gamma	90.015800
loop_
_atom_site_label
_atom_site_type_symbol
_atom_site_fract_x
_atom_site_fract_y
_atom_site_fract_z
Zn1	Zn	0.686765	-0.179077	-0.446869
Zn2	Zn	1.186765	0.320923	0.053131
Zn3	Zn	0.686697	-0.254210	-0.314665
Zn4	Zn	1.186697	0.245790	0.185335
Zn5	Zn	0.611640	-0.179070	-0.314704
Zn6	Zn	1.111640	0.320930	0.185296
Zn7	Zn	0.611603	-0.254155	-0.446801
Zn8	Zn	1.111603	0.245845	0.053199
O9	O	0.649176	-0.216628	-0.380760
O10	O	1.149176	0.283372	0.119240
O11	O	0.749623	-0.189070	-0.429344
O12	O	1.249623	0.310930	0.070656
O13	O	0.676728	-0.244263	-0.204059
O14	O	1.176728	0.255737	0.295941
O15	O	0.621649	-0.116204	-0.332281
O16	O	1.121649	0.383796	0.167719
O17	O	0.749573	-0.244270	-0.332214
O18	O	1.249573	0.255730	0.167786
O19	O	0.676843	-0.116209	-0.429382
O20	O	1.176843	0.383791	0.070618
O21	O	0.621583	-0.189057	-0.204088
O22	O	1.121583	0.310943	0.295912
O23	O	0.548768	-0.189004	-0.332215
O24	O	1.048768	0.310996	0.167785
O25	O	0.621587	-0.244176	-0.557421
O26	O	1.121587	0.255824	-0.057421
O27	O	0.548741	-0.244169	-0.429266
O28	O	1.048741	0.255831	0.070734
O29	O	0.676807	-0.189016	-0.557471
O30	O	1.176807	0.310984	-0.057471
O31	O	0.676692	-0.317070	-0.332148
O32	O	1.176692	0.182930	0.167852
O33	O	0.621521	-0.317030	-0.429227
O34	O	1.121521	0.182970	0.070773
C35	C	0.532454	-0.216580	-0.380738
C36	C	1.032454	0.283420	0.119262
C37	C	0.482519	-0.216570	-0.380747
C38	C	0.982519	0.283430	0.119253
C39	C	0.125954	-0.187945	-0.431435
C40	C	0.625954	0.312055	0.068565
C41	C	0.313627	-0.187909	-0.431417
C42	C	0.813627	0.312091	0.068583
O43	O	0.337910	-0.163514	-0.474509
O44	O	0.837910	0.336486	0.025491
N45	N	0.337074	-0.216600	-0.380766
N46	N	0.837074	0.283400	0.119234
C47	C	0.313600	-0.245303	-0.330119
C48	C	0.813600	0.254697	0.169881
O49	O	0.337850	-0.269709	-0.287043
O50	O	0.837850	0.230291	0.212957
C51	C	0.125928	-0.245341	-0.330142
C52	C	0.625928	0.254659	0.169858
C53	C	0.102483	-0.216646	-0.380791
C54	C	0.602483	0.283354	0.119209
C55	C	0.102509	-0.159252	-0.482080
C56	C	0.602509	0.340748	0.017920
C57	C	0.055593	-0.159260	-0.482081
C58	C	0.555593	0.340740	0.017919
C59	C	0.032123	-0.187960	-0.431437
C60	C	0.532123	0.312040	0.068563
C61	C	0.055568	-0.216653	-0.380792
C62	C	0.555568	0.283347	0.119208
C63	C	0.102455	-0.274047	-0.279501
C64	C	0.602455	0.225953	0.220499
C65	C	0.055534	-0.274055	-0.279512
C66	C	0.555534	0.225945	0.220488
C67	C	0.032089	-0.245359	-0.330161
C68	C	0.532089	0.254641	0.169839
C69	C	-0.014818	-0.245361	-0.330149
C70	C	0.485182	0.254639	0.169851
N71	N	-0.038266	-0.216671	-0.380800
N72	N	0.461734	0.283329	0.119200
C73	C	-0.014795	-0.187970	-0.431444
C74	C	0.485205	0.312030	0.068556
C75	C	0.412131	-0.245281	-0.330110
C76	C	0.912131	0.254719	0.169890
C77	C	0.459049	-0.245271	-0.330103
C78	C	0.959049	0.254729	0.169897
C79	C	0.459072	-0.187877	-0.431401
C80	C	0.959072	0.312123	0.068599
C81	C	0.412153	-0.187885	-0.431404
C82	C	0.912153	0.312115	0.068596
C83	C	0.388684	-0.216590	-0.380761
C84	C	0.888684	0.283410	0.119239
C85	C	-0.113321	-0.187988	-0.431441
C86	C	0.386679	0.312012	0.068559
C87	C	-0.160240	-0.187997	-0.431436
C88	C	0.339760	0.312003	0.068564
C89	C	-0.160260	-0.245392	-0.330141
C90	C	0.339740	0.254608	0.169859
C91	C	-0.113344	-0.245382	-0.330143
C92	C	0.386656	0.254618	0.169857
C93	C	-0.089876	-0.216678	-0.380800
C94	C	0.410124	0.283322	0.119200
O95	O	-0.039130	-0.269747	-0.287085
O96	O	0.460870	0.230253	0.212915
O97	O	-0.039053	-0.163576	-0.474526
O98	O	0.460947	0.336424	0.025474
C99	C	0.172869	-0.187938	-0.431434
C100	C	0.672869	0.312062	0.068566
C101	C	0.196314	-0.216630	-0.380789
C102	C	0.696314	0.283370	0.119211
C103	C	0.172844	-0.245331	-0.330145
C104	C	0.672844	0.254669	0.169855
C105	C	0.243232	-0.216621	-0.380782
C106	C	0.743232	0.283379	0.119218
C107	C	0.266703	-0.187920	-0.431426
C108	C	0.766703	0.312080	0.068574
C109	C	0.243255	-0.159230	-0.482077
C110	C	0.743255	0.340770	0.017923
C111	C	0.196340	-0.159237	-0.482078
C112	C	0.696340	0.340763	0.017922
C113	C	0.196291	-0.274021	-0.279494
C114	C	0.696291	0.225979	0.220506
C115	C	0.243206	-0.274011	-0.279496
C116	C	0.743206	0.225989	0.220504
C117	C	0.266677	-0.245311	-0.330140
C118	C	0.766677	0.254689	0.169860
C119	C	0.649108	-0.333351	-0.380693
C120	C	1.149108	0.166649	0.119307
C121	C	0.649120	-0.383285	-0.380691
C122	C	1.149120	0.116715	0.119309
C123	C	0.677909	-0.692896	-0.431392
C124	C	1.177909	-0.192896	0.068608
C125	C	0.677958	-0.880569	-0.431440
C126	C	1.177958	-0.380569	0.068560
O127	O	0.702369	-0.904807	-0.474498
O128	O	1.202369	-0.404807	0.025502
N129	N	0.649253	-0.904070	-0.380847
N130	N	1.149253	-0.404070	0.119153
C131	C	0.620531	-0.880650	-0.330243
C132	C	1.120531	-0.380650	0.169757
O133	O	0.596113	-0.904945	-0.287218
O134	O	1.096113	-0.404945	0.212782
C135	C	0.620480	-0.692978	-0.330200
C136	C	1.120480	-0.192978	0.169800
C137	C	0.649191	-0.669479	-0.380790
C138	C	1.149191	-0.169479	0.119210
C139	C	0.706618	-0.669398	-0.481979
C140	C	1.206618	-0.169398	0.018021
C141	C	0.706607	-0.622483	-0.481963
C142	C	1.206607	-0.122483	0.018037
C143	C	0.677888	-0.599065	-0.431361
C144	C	1.177888	-0.099065	0.068639
C145	C	0.649180	-0.622564	-0.380775
C146	C	1.149180	-0.122564	0.119225
C147	C	0.591756	-0.669558	-0.279601
C148	C	1.091756	-0.169558	0.220399
C149	C	0.591745	-0.622637	-0.279596
C150	C	1.091745	-0.122637	0.220404
C151	C	0.620456	-0.599139	-0.330186
C152	C	1.120456	-0.099139	0.169814
C153	C	0.620450	-0.552231	-0.330158
C154	C	1.120450	-0.052231	0.169842
N155	N	0.649156	-0.528730	-0.380750
N156	N	1.149156	-0.028730	0.119250
C157	C	0.677875	-0.552148	-0.431352
C158	C	1.177875	-0.052148	0.068648
C159	C	0.620560	-0.979180	-0.330268
C160	C	1.120560	-0.479180	0.169732
C161	C	0.620573	-1.026098	-0.330278
C162	C	1.120573	-0.526098	0.169722
C163	C	0.678000	-1.026015	-0.431476
C164	C	1.178000	-0.526015	0.068524
C165	C	0.677989	-0.979096	-0.431461
C166	C	1.177989	-0.479096	0.068539
C167	C	0.649266	-0.955680	-0.380861
C168	C	1.149266	-0.455680	0.119139
C169	C	0.677850	-0.453622	-0.431315
C170	C	1.177850	0.046378	0.068685
C171	C	0.677838	-0.406702	-0.431293
C172	C	1.177838	0.093298	0.068707
C173	C	0.620410	-0.406790	-0.330098
C174	C	1.120410	0.093210	0.169902
C175	C	0.620423	-0.453705	-0.330117
C176	C	1.120423	0.046295	0.169883
C177	C	0.649145	-0.477120	-0.380732
C178	C	1.149145	0.022880	0.119268
O179	O	0.596048	-0.527965	-0.287128
O180	O	1.096048	-0.027965	0.212872
O181	O	0.702282	-0.527844	-0.474383
O182	O	1.202282	-0.027844	0.025617
C183	C	0.677920	-0.739812	-0.431408
C184	C	1.177920	-0.239812	0.068592
C185	C	0.649212	-0.763310	-0.380821
C186	C	1.149212	-0.263310	0.119179
C187	C	0.620493	-0.739893	-0.330219
C188	C	1.120493	-0.239893	0.169781
C189	C	0.649225	-0.810228	-0.380831
C190	C	1.149225	-0.310228	0.119169
C191	C	0.677944	-0.833645	-0.431433
C192	C	1.177944	-0.333645	0.068567
C193	C	0.706650	-0.810144	-0.482025
C194	C	1.206650	-0.310144	0.017975
C195	C	0.706639	-0.763229	-0.482010
C196	C	1.206639	-0.263229	0.017990
C197	C	0.591788	-0.763394	-0.279627
C198	C	1.091788	-0.263394	0.220373
C199	C	0.591801	-0.810309	-0.279646
C200	C	1.091801	-0.310309	0.220354
C201	C	0.620520	-0.833726	-0.330248
C202	C	1.120520	-0.333726	0.169752
C203	C	0.766355	-0.216677	-0.380782
C204	C	1.266355	0.283323	0.119218
C205	C	0.816289	-0.216698	-0.380792
C206	C	1.316289	0.283302	0.119208
C207	C	0.649200	-0.216591	-0.586928
C208	C	1.149200	0.283409	-0.086928
C209	C	0.649211	-0.216575	-0.674785
C210	C	1.149211	0.283425	-0.174785
C211	C	0.649257	-0.099450	-0.380844
C212	C	1.149257	0.400550	0.119156
C213	C	0.649292	-0.049515	-0.380880
C214	C	1.149292	0.450485	0.119120
C215	C	0.620539	-0.187785	-1.046282
C216	C	1.120539	0.312215	-0.546282
C217	C	0.677961	-0.245271	-1.046239
C218	C	1.177961	0.254729	-0.546239
C219	C	0.677954	-0.245281	-0.963693
C220	C	1.177954	0.254719	-0.463693
C221	C	0.649238	-0.216543	-0.922438
C222	C	1.149238	0.283457	-0.422438
C223	C	0.620529	-0.187795	-0.963728
C224	C	1.120529	0.312205	-0.463728
C225	C	0.706658	-0.274032	-0.922396
C226	C	1.206658	0.225968	-0.422396
C227	C	0.706651	-0.274044	-0.839845
C228	C	1.206651	0.225956	-0.339845
C229	C	0.677937	-0.245304	-0.798589
C230	C	1.177937	0.254696	-0.298589
C231	C	0.649228	-0.216554	-0.839884
C232	C	1.149228	0.283446	-0.339884
C233	C	0.620512	-0.187816	-0.798629
C234	C	1.120512	0.312184	-0.298629
C235	C	0.591805	-0.159064	-0.839923
C236	C	1.091805	0.340936	-0.339923
C237	C	0.591815	-0.159055	-0.922471
C238	C	1.091815	0.340945	-0.422471
C239	C	0.677927	-0.245313	-0.716040
C240	C	1.177927	0.254687	-0.216040
C241	C	0.620502	-0.187827	-0.716075
C242	C	1.120502	0.312173	-0.216075
C243	C	0.649178	-0.216633	-0.175393
C244	C	1.149178	0.283367	0.324607
C245	C	0.649255	-0.216522	-0.087537
C246	C	1.149255	0.283478	0.412463
H247	H	0.177186	-0.297394	-0.238253
H248	H	0.677186	0.202606	0.261747
Br249	Br	0.275117	-0.120277	-0.550804
Br250	Br	0.775117	0.379723	-0.050804
Br251	Br	0.134261	-0.312985	-0.210744
Br252	Br	0.634261	0.187015	0.289256
Br253	Br	0.716807	-0.374814	-0.499952
Br254	Br	1.216807	0.125186	0.000048
Br255	Br	0.552788	-0.701437	-0.210940
Br256	Br	1.052788	-0.201437	0.289060
H257	H	-0.179327	-0.164628	-0.472680
H258	H	0.320673	0.335372	0.027320
H259	H	0.568443	-0.135647	-0.956100
H260	H	1.068443	0.364353	-0.456100
Br261	Br	0.023685	-0.313018	-0.210786
Br262	Br	0.523685	0.186982	0.289214
Br263	Br	0.745621	-0.313037	-0.978388
Br264	Br	1.245621	0.186963	-0.478388
Br265	Br	0.581532	-0.148819	-0.660092
Br266	Br	1.081532	0.351181	-0.160092
H267	H	0.730035	-0.829219	-0.523224
H268	H	1.230035	-0.329219	-0.023224
Br269	Br	0.716955	-0.947210	-0.500121
Br270	Br	1.216955	-0.447210	-0.000121
H271	H	-0.094219	-0.164615	-0.472691
H272	H	0.405781	0.335385	0.027309
H273	H	0.597168	-0.164374	-1.079907
H274	H	1.097168	0.335626	-0.579907
H275	H	0.568423	-0.135667	-0.806322
H276	H	1.068423	0.364333	-0.306322
H277	H	0.036509	-0.135895	-0.523328
H278	H	0.536509	0.364105	-0.023328
Br279	Br	0.490934	-0.148926	-0.500131
Br280	Br	0.990934	0.351074	-0.000131
H281	H	0.701235	-0.472681	-0.472536
H282	H	1.201235	0.027319	0.027464
Br283	Br	0.716878	-0.284335	-0.660001
Br284	Br	1.216878	0.215665	-0.160001
Br285	Br	0.716926	-0.284275	-1.102229
Br286	Br	1.216926	0.215725	-0.602229
H287	H	0.478134	-0.268632	-0.288851
H288	H	0.978134	0.231368	0.211149
Br289	Br	-0.081525	-0.284329	-0.261410
Br290	Br	0.418475	0.215671	0.238590
H291	H	0.729984	-0.603353	-0.523160
H292	H	1.229984	-0.103353	-0.023160
Br293	Br	0.716976	-1.057804	-0.500149
Br294	Br	1.216976	-0.557804	-0.000149
Br295	Br	0.380340	-0.148940	-0.500143
Br296	Br	0.880340	0.351060	-0.000143
Br297	Br	0.745611	-0.313062	-0.783810
Br298	Br	1.245611	0.186938	-0.283810
H299	H	0.121614	-0.135881	-0.523324
H300	H	0.621614	0.364119	-0.023324
H301	H	0.393026	-0.268657	-0.288867
H302	H	0.893026	0.231343	0.211133
H303	H	-0.179378	-0.268758	-0.288904
H304	H	0.320622	0.231242	0.211096
Br305	Br	0.164529	-0.120291	-0.550819
Br306	Br	0.664529	0.379709	-0.050819
H307	H	0.568354	-0.603574	-0.238391
H308	H	1.068354	-0.103574	0.261609
H309	H	0.262291	-0.297378	-0.238245
H310	H	0.762291	0.202622	0.261755
H311	H	0.597199	-1.045227	-0.289074
H312	H	1.097199	-0.545227	0.210926
Br313	Br	0.745596	-0.701169	-0.550666
Br314	Br	1.245596	-0.201169	-0.050666
Br315	Br	0.581465	-0.485597	-0.261447
Br316	Br	1.081465	0.014403	0.238553
Br317	Br	0.552835	-0.842194	-0.210977
Br318	Br	1.052835	-0.342194	0.289023
Br319	Br	0.581572	-0.947408	-0.261593
Br320	Br	1.081572	-0.447408	0.238407
H321	H	0.597028	-0.387716	-0.288896
H322	H	1.097028	0.112284	0.211104
H323	H	0.730018	-0.744100	-0.523205
H324	H	1.230018	-0.244100	-0.023205
H325	H	0.568401	-0.744331	-0.238422
H326	H	1.068401	-0.244331	0.261578
