data_functionalizedCrystal
_audit_creation_method	'MofGen! by Chris Wilmer'
_symmetry_space_group_name_H-M	'P1'
_symmetry_Int_Tables_number	1
_symmetry_cell_setting	triclinic
loop_
_symmetry_equiv_pos_as_xyz
  x,y,z
_cell_length_a	11.792241
_cell_length_b	27.732048
_cell_length_c	10.868271
_cell_angle_alpha	89.989927
_cell_angle_beta	89.999893
_cell_angle_gamma	83.418036
loop_
_atom_site_label
_atom_site_type_symbol
_atom_site_fract_x
_atom_site_fract_y
_atom_site_fract_z
O1	O	1.504789	0.066248	-0.102217
O2	O	1.174230	0.073076	-0.102248
O3	O	1.349776	-0.000675	-0.102208
O4	O	1.329243	0.139999	-0.102257
O5	O	1.349762	-0.000678	0.102437
O6	O	1.174215	0.073073	0.102397
O7	O	1.504775	0.066245	0.102427
Zn8	Zn	1.339493	0.069659	0.134904
Zn9	Zn	1.339512	0.069662	-0.134724
O10	O	1.329229	0.139996	0.102388
C11	C	1.131945	0.072645	0.000071
C12	C	1.005973	0.071362	0.000061
C13	C	0.775336	0.069001	0.000097
C14	C	0.903679	0.070313	0.000077
C15	C	1.349338	-0.018686	0.000118
C16	C	1.348040	-0.072348	0.000128
C17	C	1.443606	-0.410609	0.000073
C18	C	1.438790	-0.612297	0.000055
O19	O	1.526178	-0.643045	0.000010
N20	N	1.334698	-0.632024	0.000047
C21	C	1.231803	-0.601327	0.000035
O22	O	1.143157	-0.622734	0.000015
C23	C	1.236620	-0.399640	0.000044
C24	C	1.340718	-0.379915	0.000065
C25	C	1.547695	-0.390884	0.000093
C26	C	1.548898	-0.340465	0.000104
C27	C	1.446011	-0.309771	0.000095
C28	C	1.341921	-0.329496	0.000076
C29	C	1.133726	-0.368943	0.000023
C30	C	1.134940	-0.318519	0.000022
C31	C	1.239038	-0.298794	0.000043
C32	C	1.240237	-0.248384	0.000079
N33	N	1.344328	-0.228656	0.000087
C34	C	1.447215	-0.259350	0.000095
C35	C	1.229282	-0.707215	0.000033
C36	C	1.228077	-0.757637	0.000033
C37	C	1.435065	-0.768603	0.000051
C38	C	1.436268	-0.718181	0.000060
C39	C	1.333374	-0.687488	0.000041
C40	C	1.449733	-0.153466	0.000120
C41	C	1.450927	-0.103042	0.000136
C42	C	1.243941	-0.092080	0.000111
C43	C	1.242746	-0.142500	0.000102
C44	C	1.345652	-0.173192	0.000102
O45	O	1.152896	-0.217607	0.000111
O46	O	1.535849	-0.237933	0.000088
C47	C	1.442403	-0.461028	0.000062
C48	C	1.338313	-0.480753	0.000043
C49	C	1.235426	-0.450060	0.000034
C50	C	1.337108	-0.531175	0.000043
C51	C	1.439996	-0.561868	0.000051
C52	C	1.544087	-0.542141	0.000059
C53	C	1.545290	-0.491722	0.000070
C54	C	1.131334	-0.469787	0.000026
C55	C	1.130140	-0.520207	0.000016
C56	C	1.233027	-0.550900	0.000024
C57	C	1.547059	0.066676	0.000106
C58	C	1.673032	0.067959	0.000108
C59	C	1.329667	0.158007	0.000059
C60	C	1.330965	0.211669	0.000041
N61	N	1.339488	0.069656	0.318918
N62	N	1.339525	0.069662	-0.318738
C63	C	1.339506	0.069661	0.569924
C64	C	1.339492	0.069660	0.430246
H65	H	1.535700	-0.086985	0.000156
H66	H	1.145488	-0.682229	0.000018
H67	H	1.048958	-0.384994	-0.000001
O68	O	1.031309	-0.440025	-0.000139
C69	C	0.968071	-0.448994	-0.106146
H70	H	0.996641	-0.487157	-0.141493
H71	H	0.983081	-0.421365	-0.180353
C72	C	0.805036	-0.397688	-0.030537
C73	C	0.840119	-0.444562	-0.073945
H74	H	0.726109	-0.394952	-0.010677
H75	H	0.847641	-0.391644	0.040880
H76	H	0.817554	-0.374669	-0.092383
H77	H	0.827615	-0.467579	-0.012093
H78	H	0.797509	-0.450610	-0.145351
O79	O	1.649950	-0.321252	-0.000057
C80	C	1.656864	-0.292419	-0.106061
H81	H	1.567193	-0.280093	-0.141395
H82	H	1.707459	-0.314558	-0.180277
C83	C	1.827339	-0.262808	-0.030472
C84	C	1.717202	-0.247665	-0.073864
H85	H	1.864562	-0.235202	-0.010614
H86	H	1.822684	-0.282234	0.040944
H87	H	1.869487	-0.281257	-0.092326
H88	H	1.675052	-0.229222	-0.012005
H89	H	1.721851	-0.228234	-0.145268
O90	O	1.644003	-0.571981	-0.000154
C91	C	1.649476	-0.601473	-0.106132
H92	H	1.591117	-0.583154	-0.180209
H93	H	1.620745	-0.638212	-0.082180
C94	C	1.844779	-0.631303	-0.063206
C95	C	1.773108	-0.608801	-0.154192
H96	H	1.921041	-0.635826	-0.092849
H97	H	1.841091	-0.611436	0.008197
H98	H	1.820822	-0.661917	-0.043253
H99	H	1.797056	-0.578186	-0.174132
H100	H	1.776803	-0.628664	-0.225599
O101	O	1.534982	-0.798443	-0.000169
C102	C	1.540446	-0.827935	-0.106146
H103	H	1.482078	-0.809617	-0.180217
H104	H	1.511720	-0.864675	-0.082187
C105	C	1.735755	-0.857762	-0.063241
C106	C	1.664073	-0.835262	-0.154220
H107	H	1.812014	-0.862285	-0.092894
H108	H	1.732073	-0.837895	0.008160
H109	H	1.711803	-0.888377	-0.043284
H110	H	1.688017	-0.804646	-0.174165
H111	H	1.667762	-0.855125	-0.225627
O112	O	1.126856	-0.776714	-0.000028
C113	C	1.036312	-0.738805	-0.000007
H114	H	1.067524	-0.704470	-0.038744
H115	H	1.004611	-0.731762	0.098167
C116	C	0.899732	-0.795461	-0.032699
C117	C	0.938065	-0.753291	-0.080286
H118	H	0.839126	-0.804397	-0.082213
H119	H	0.960732	-0.821002	-0.032708
H120	H	0.873323	-0.789587	0.049113
H121	H	0.964487	-0.759168	-0.162089
H122	H	0.877067	-0.727752	-0.080292
H123	H	1.533529	-0.178450	0.000115
H124	H	1.157981	-0.158560	0.000119
H125	H	1.631483	-0.415870	0.000095
H126	H	1.630058	-0.475667	0.000087
O127	O	1.144104	-0.062190	0.000047
C128	C	1.167501	-0.013459	0.000085
H129	H	1.256617	-0.011289	-0.038639
H130	H	1.162926	0.001103	0.098264
C131	C	0.969407	0.014504	-0.032625
C132	C	1.078856	0.017170	-0.080196
H133	H	0.914724	0.033399	-0.082141
H134	H	0.953642	-0.018327	-0.032646
H135	H	0.965610	0.026638	0.049189
H136	H	1.082656	0.005031	-0.162003
H137	H	1.094620	0.050000	-0.080191
H138	H	1.051148	-0.293530	0.000005
H139	H	1.521034	-0.702125	0.000076
H140	H	1.045364	-0.536261	0.000010
