data_functionalizedCrystal
_audit_creation_method	'MofGen! by Chris Wilmer'
_symmetry_space_group_name_H-M	'P1'
_symmetry_Int_Tables_number	1
_symmetry_cell_setting	triclinic
loop_
_symmetry_equiv_pos_as_xyz
  x,y,z
_cell_length_a	19.288864
_cell_length_b	10.723024
_cell_length_c	18.366186
_cell_angle_alpha	89.994974
_cell_angle_beta	89.977106
_cell_angle_gamma	83.802058
loop_
_atom_site_label
_atom_site_type_symbol
_atom_site_fract_x
_atom_site_fract_y
_atom_site_fract_z
O1	O	0.922366	0.155659	-0.060782
O2	O	0.720242	0.176657	-0.060732
O3	O	0.825966	-0.015516	-0.060755
O4	O	0.816641	0.347832	-0.060758
O5	O	0.825948	-0.015526	0.060344
O6	O	0.720223	0.176647	0.060368
O7	O	0.922347	0.155649	0.060318
Zn8	Zn	0.821282	0.166147	0.079570
Zn9	Zn	0.821306	0.166159	-0.079984
O10	O	0.816623	0.347822	0.060341
C11	C	0.694352	0.175976	-0.000176
C12	C	0.617235	0.173948	-0.000156
C13	C	0.825278	-0.062006	-0.000206
C14	C	0.823248	-0.200518	-0.000208
C15	C	0.573272	0.286707	-0.000169
C16	C	0.500813	0.284801	-0.000177
C17	C	0.472319	0.170131	-0.000187
C18	C	0.516291	0.057358	-0.000171
C19	C	0.588749	0.059266	-0.000155
C20	C	0.363477	0.079991	-0.042637
C21	C	0.291020	0.078087	-0.042657
C22	C	0.248835	0.164239	-0.000231
C23	C	0.279115	0.252317	0.042205
C24	C	0.351573	0.254226	0.042221
C25	C	0.393752	0.168049	-0.000203
C26	C	0.126303	0.274939	-0.000251
C27	C	0.053843	0.273029	-0.000255
C28	C	0.069323	0.045582	-0.000256
C29	C	0.141782	0.047496	-0.000245
C30	C	0.170267	0.162178	-0.000246
C31	C	0.882406	-0.276743	-0.000224
C32	C	0.880309	-0.419902	-0.000226
C33	C	0.948237	0.156330	-0.000240
C34	C	1.025354	0.158358	-0.000264
C35	C	0.817311	0.394313	-0.000209
C36	C	0.819341	0.532824	-0.000212
N37	N	0.821271	0.166138	0.188461
N38	N	0.821323	0.166159	-0.188875
C39	C	0.868102	0.081085	0.226551
C40	C	0.868106	0.081079	0.302779
C41	C	0.821287	0.166148	0.340914
C42	C	0.774447	0.251207	0.302815
C43	C	0.774440	0.251202	0.226588
C44	C	0.812728	0.279840	0.461675
C45	C	0.812741	0.279847	0.537899
C46	C	0.821307	0.166164	0.576021
C47	C	0.829874	0.052468	0.537909
C48	C	0.829867	0.052463	0.461682
C49	C	0.821290	0.166162	0.423569
C50	C	0.868144	0.081098	0.696766
C51	C	0.868144	0.081091	0.772995
C52	C	0.774489	0.251229	0.773030
C53	C	0.774486	0.251225	0.696802
C54	C	0.821317	0.166161	0.658675
H55	H	0.596460	0.380090	-0.000171
H56	H	0.736304	0.320463	0.195575
H57	H	0.376223	0.325938	0.076776
H58	H	0.930952	-0.485398	-0.000236
H59	H	0.244769	0.322470	0.076753
C60	C	0.750918	-0.378718	-0.000193
H61	H	0.712396	-0.426949	-0.000180
H62	H	0.749077	-0.327308	-0.042421
H63	H	0.749065	-0.327331	0.042045
H64	H	0.018048	0.364855	-0.000261
H65	H	0.906277	0.011824	0.804009
H66	H	0.736365	0.320489	0.804079
C67	C	0.919607	-0.012495	0.184615
H68	H	0.947494	-0.063158	0.218222
H69	H	0.948728	0.032252	0.154857
H70	H	0.894368	-0.064332	0.154901
H71	H	0.493087	-0.036008	-0.000189
C72	C	0.919623	-0.012480	0.344687
H73	H	0.947514	-0.063136	0.311062
H74	H	0.894398	-0.064307	0.374442
H75	H	0.948749	0.032294	0.374401
C76	C	0.839291	-0.072591	0.579832
H77	H	0.838060	-0.056310	0.630688
H78	H	0.882882	-0.117294	0.567324
H79	H	0.802729	-0.121312	0.567358
H80	H	0.465012	0.376626	-0.000185
C81	C	0.722979	0.344798	0.654901
H82	H	0.695099	0.395470	0.688528
H83	H	0.693852	0.300046	0.625182
H84	H	0.748213	0.396628	0.625150
H85	H	0.805769	0.372425	0.568925
H86	H	0.771048	-0.241244	-0.000200
C87	C	0.157641	0.401081	-0.000245
H88	H	0.121077	0.467966	-0.000243
H89	H	0.185606	0.406559	-0.042471
H90	H	0.185563	0.406548	0.041995
H91	H	0.906275	0.011829	0.665722
H92	H	0.836841	-0.040112	0.430654
C93	C	0.803311	0.404901	0.419748
H94	H	0.798221	0.472611	0.453361
H95	H	0.762880	0.407618	0.390030
H96	H	0.843033	0.411632	0.389993
C97	C	0.037989	-0.080553	-0.000271
H98	H	-0.011462	-0.065542	-0.000287
H99	H	0.053019	-0.126976	0.041958
H100	H	0.053067	-0.126953	-0.042507
H101	H	0.177577	-0.044325	-0.000239
C102	C	0.257719	-0.018797	-0.089331
H103	H	0.293220	-0.069849	-0.114585
H104	H	0.226537	0.023588	-0.123456
H105	H	0.232866	-0.069922	-0.058740
C106	C	0.409873	-0.014774	-0.089315
H107	H	0.381463	-0.067486	-0.114600
H108	H	0.441555	-0.064420	-0.058730
H109	H	0.435217	0.029132	-0.123426
C110	C	0.722950	0.344783	0.344760
H111	H	0.729666	0.332615	0.395613
H112	H	0.676531	0.331444	0.332296
H113	H	0.730890	0.428030	0.332254
H114	H	0.624544	-0.032558	-0.000146
H115	H	0.934605	-0.236017	-0.000232
