data_functionalizedCrystal
_audit_creation_method	'MofGen! by Chris Wilmer'
_symmetry_space_group_name_H-M	'P1'
_symmetry_Int_Tables_number	1
_symmetry_cell_setting	triclinic
loop_
_symmetry_equiv_pos_as_xyz
  x,y,z
_cell_length_a	6.817900
_cell_length_b	10.992421
_cell_length_c	16.255661
_cell_angle_alpha	93.806276
_cell_angle_beta	103.488922
_cell_angle_gamma	108.764763
loop_
_atom_site_label
_atom_site_type_symbol
_atom_site_fract_x
_atom_site_fract_y
_atom_site_fract_z
V1	V	-4.053775	-0.178799	-0.263859
O2	O	-4.013052	0.007524	-0.258849
O3	O	-4.031770	-0.353500	-0.262043
O4	O	-4.004992	-0.176517	-0.378943
O5	O	-4.040015	-0.170685	-0.141140
V6	V	-4.534033	-0.156457	-0.249182
O7	O	-4.322197	-0.227807	-0.296054
O8	O	-4.715808	-0.107448	-0.216988
O9	O	-4.332831	0.018245	-0.250999
O10	O	-4.692153	-0.342779	-0.254193
O11	O	-4.665190	-0.164571	-0.371902
O12	O	-4.359610	-0.158738	-0.134099
C13	C	-3.883205	-0.396074	-0.257877
C14	C	-3.946497	-0.538898	-0.257160
C15	C	-3.815488	-0.734162	-0.251372
C16	C	-3.749312	-0.585520	-0.251783
C17	C	-4.035194	-0.577223	-0.178237
C18	C	-4.099622	-0.725763	-0.177401
C19	C	-4.194048	-0.764981	-0.339188
C20	C	-4.124601	-0.616474	-0.340901
C21	C	-3.849045	-0.170313	-0.406994
C22	C	-3.890617	-0.169603	-0.501075
C23	C	-3.799891	-0.161127	-0.723894
C24	C	-3.972865	-0.270520	-0.793363
C25	C	-3.966800	-0.168273	-0.673324
C26	C	-3.867927	-0.057628	-0.771492
C27	C	-4.040373	-0.166982	-0.839707
C28	C	-4.139271	-0.277763	-0.741562
C29	C	-4.034257	-0.064775	-0.719676
C30	C	-4.207372	-0.174198	-0.789126
C31	C	-3.924412	-0.169017	-0.577474
C32	C	-4.082780	-0.166247	-0.935556
C33	C	-4.144740	0.060812	-0.255162
C34	C	-4.060686	0.203635	-0.255885
C35	C	-4.178899	-0.164947	-0.106044
C36	C	-4.116564	-0.165650	-0.011962
H37	H	-3.713463	-0.754486	-0.191296
H38	H	-4.059685	0.022215	-0.687573
C39	C	-3.713509	0.068059	-0.789846
C40	C	-3.468707	0.099092	-0.759997
C41	C	-3.314275	0.224771	-0.778348
C42	C	-3.404645	0.319418	-0.826549
C43	C	-3.649459	0.288387	-0.856401
C44	C	-3.803891	0.162708	-0.838049
H45	H	-3.401799	0.029026	-0.724313
H46	H	-3.133047	0.247741	-0.756250
H47	H	-3.290325	0.412453	-0.840134
H48	H	-3.716367	0.358453	-0.892085
H49	H	-3.985119	0.139738	-0.860148
H50	H	-3.627322	-0.155743	-0.695414
H51	H	-3.679264	-0.559977	-0.308177
H52	H	-4.174023	-0.814732	-0.398907
H53	H	-3.776821	-0.780803	-0.307416
C54	C	-4.040380	-0.584513	-0.419796
C55	C	-4.156834	-0.523585	-0.489045
C56	C	-4.072621	-0.491615	-0.567943
C57	C	-3.871953	-0.520574	-0.577591
C58	C	-3.755487	-0.581505	-0.508340
C59	C	-3.839700	-0.613475	-0.429443
H60	H	-4.305391	-0.502145	-0.481904
H61	H	-4.158838	-0.446509	-0.619207
H62	H	-3.809614	-0.496908	-0.635996
H63	H	-3.606930	-0.602945	-0.515481
H64	H	-3.753483	-0.658581	-0.378179
H65	H	-4.253584	-0.370896	-0.728089
H66	H	-3.614411	-0.532841	-0.191658
H67	H	-3.947358	-0.357505	-0.825443
H68	H	-4.275861	-0.766645	-0.177276
C69	C	-3.969333	-0.749102	-0.092752
C70	C	-3.989842	-0.694311	-0.006727
C71	C	-3.859541	-0.717641	0.077922
C72	C	-3.708731	-0.795762	0.076547
C73	C	-3.688216	-0.850558	-0.009482
C74	C	-3.818517	-0.827228	-0.094131
H75	H	-4.101486	-0.636476	-0.005706
H76	H	-3.874729	-0.677077	0.141606
H77	H	-3.612275	-0.813033	0.139210
H78	H	-3.576572	-0.908393	-0.010503
H79	H	-3.803330	-0.867792	-0.157815
C80	C	-3.864470	-0.503635	-0.094480
C81	C	-3.779445	-0.353925	-0.077872
C82	C	-3.608711	-0.280340	0.005883
C83	C	-3.523002	-0.356465	0.073029
C84	C	-3.608027	-0.506182	0.056423
C85	C	-3.778761	-0.579767	-0.027331
H86	H	-3.842893	-0.297566	-0.127579
H87	H	-3.545771	-0.169509	0.018175
H88	H	-3.396614	-0.301993	0.135029
H89	H	-3.544579	-0.562541	0.106131
H90	H	-3.841702	-0.690598	-0.039624
H91	H	-4.380085	-0.179754	-0.817472
H92	H	-4.180618	-0.546991	-0.179147
H93	H	-4.272363	-0.586301	-0.349715
H94	H	-4.372949	-0.806114	-0.343325
