data_functionalizedCrystal
_audit_creation_method	'MofGen! by Chris Wilmer'
_symmetry_space_group_name_H-M	'P1'
_symmetry_Int_Tables_number	1
_symmetry_cell_setting	triclinic
loop_
_symmetry_equiv_pos_as_xyz
  x,y,z
_cell_length_a	27.440280
_cell_length_b	16.704494
_cell_length_c	16.704494
_cell_angle_alpha	89.699037
_cell_angle_beta	56.638392
_cell_angle_gamma	56.630405
loop_
_atom_site_label
_atom_site_type_symbol
_atom_site_fract_x
_atom_site_fract_y
_atom_site_fract_z
Zr1	Zr	0.486850	-0.066988	0.811672
O2	O	0.606367	-0.209856	0.668827
O3	O	0.379715	-0.023193	0.855446
O4	O	0.493041	-0.200250	0.845861
O5	O	0.483839	0.106869	0.685989
O6	O	0.483839	-0.192670	0.985527
O7	O	0.493041	-0.032799	0.678411
O8	O	0.281119	0.124051	1.002672
O9	O	0.686558	-0.209853	0.668845
O10	O	0.412327	0.001144	0.978365
O11	O	0.412327	0.099720	0.879789
O12	O	0.545754	-0.108741	0.868505
O13	O	0.545754	-0.010166	0.769930
Zr14	Zr	0.457496	0.167855	1.046509
Zr15	Zr	0.472173	-0.054899	1.034423
Zr16	Zr	0.472173	0.155766	0.823758
Zr17	Zr	0.614745	-0.066984	0.811701
Zr18	Zr	0.329601	0.167851	1.046480
O19	O	0.564631	0.124061	1.002736
O20	O	0.585499	-0.192667	0.985550
O21	O	0.585499	0.106872	0.686012
O22	O	0.337979	0.310723	1.189354
O23	O	0.358847	-0.006005	1.172169
O24	O	0.358847	0.293534	0.872631
O25	O	0.460507	-0.006001	1.172192
O26	O	0.451305	0.301117	1.012320
O27	O	0.460507	0.293537	0.872654
O28	O	0.451305	0.133667	1.179770
O29	O	0.674892	-0.200244	0.845902
O30	O	0.269453	0.301111	1.012279
O31	O	0.257787	0.310720	1.189336
O32	O	0.269453	0.133661	1.179729
O33	O	0.674892	-0.032793	0.678452
O34	O	0.663226	-0.023184	0.855510
O35	O	0.398592	0.209609	0.989676
O36	O	0.398592	0.111033	1.088251
O37	O	0.532019	0.001148	0.978392
O38	O	0.532019	0.099723	0.879816
C39	C	0.312195	0.050428	0.929054
C40	C	0.257900	0.050427	0.929042
C41	C	0.490531	0.035312	0.650463
C42	C	0.496762	0.030180	0.555899
C43	C	0.453815	0.329065	0.944209
C44	C	0.447584	0.423630	0.949340
C45	C	-0.078848	-0.001011	0.980575
C46	C	-0.129873	-0.001008	0.980585
O47	O	-0.156283	-0.044735	1.024379
N48	N	-0.155389	0.050445	0.929128
C49	C	-0.129883	0.101908	0.877668
O50	O	-0.156272	0.145674	0.833902
C51	C	-0.078864	0.101910	0.877666
C52	C	-0.053344	0.050445	0.929116
C53	C	-0.053329	-0.052472	1.032023
C54	C	-0.002307	-0.052477	1.032011
C55	C	0.023197	-0.001021	0.980552
C56	C	-0.002322	0.050440	0.929105
C57	C	-0.053364	0.153379	0.826212
C58	C	-0.002341	0.153377	0.826215
C59	C	0.023178	0.101912	0.877665
C60	C	0.074204	0.101891	0.877634
N61	N	0.099720	0.050438	0.929091
C62	C	0.074216	-0.001018	0.980550
C63	C	-0.237029	0.101900	0.877679
C64	C	-0.288043	0.101892	0.877675
C65	C	-0.288030	-0.001022	0.980593
C66	C	-0.237010	-0.001020	0.980591
C67	C	-0.211513	0.050447	0.929136
C68	C	0.181367	-0.001025	0.980521
C69	C	0.232396	-0.001029	0.980501
C70	C	0.232376	0.101890	0.877588
C71	C	0.181354	0.101889	0.877602
C72	C	0.155849	0.050430	0.929077
O73	O	0.100644	0.145600	0.833866
O74	O	0.100604	-0.044765	1.024320
C75	C	0.632151	0.050439	0.929127
C76	C	0.686446	0.050441	0.929139
C77	C	0.490531	-0.228198	0.913972
C78	C	0.496762	-0.322762	0.908841
C79	C	0.575187	0.486597	0.844262
C80	C	0.569336	0.575446	0.849080
C81	C	0.430033	0.690178	0.963787
C82	C	0.435884	0.601329	0.958969
C83	C	0.508463	0.499539	0.899206
C84	C	0.514313	0.410690	0.894394
C85	C	0.375011	0.525421	1.009095
C86	C	0.369160	0.614271	1.013912
C87	C	0.369159	0.135282	0.492907
C88	C	0.375010	0.130463	0.404059
C89	C	0.514313	0.015729	0.289355
C90	C	0.508462	0.020548	0.378203
C91	C	0.435883	0.080326	0.479978
C92	C	0.430033	0.085138	0.568827
C93	C	0.569335	-0.029589	0.454121
C94	C	0.575186	-0.034408	0.365273
C95	C	0.453815	0.065555	1.207718
C96	C	0.447584	0.070687	1.302282
C97	C	0.293837	0.065550	1.207682
C98	C	0.233311	0.070680	1.302233
C99	C	0.293837	0.329060	0.944173
C100	C	0.233311	0.423623	0.949291
C101	C	0.275478	0.344181	1.222800
C102	C	0.208722	0.443876	1.322483
C103	C	0.668867	-0.243314	0.635381
C104	C	0.735624	-0.343009	0.535698
C105	C	0.650509	0.035317	0.650499
C106	C	0.711035	0.030187	0.555948
C107	C	0.650509	-0.228192	0.914008
C108	C	0.711035	-0.322755	0.908890
C109	C	0.212058	0.015719	1.289276
C110	C	0.155197	0.020518	1.378107
C111	C	0.119586	0.080285	1.479896
C112	C	0.140844	0.135248	1.492852
C113	C	0.197708	0.130442	1.404021
C114	C	0.197717	0.525401	1.009055
C115	C	0.140854	0.614261	1.013861
C116	C	0.119581	0.601341	0.958909
C117	C	0.155181	0.499552	0.899138
C118	C	0.212047	0.410694	0.894326
C119	C	0.177372	0.439239	1.420759
C120	C	0.114655	0.532905	1.514429
C121	C	0.083285	0.631207	1.509821
C122	C	0.114641	0.635842	1.411533
C123	C	0.177361	0.542177	1.317866
C124	C	0.766980	-0.338372	0.437422
C125	C	0.829713	-0.432038	0.343752
C126	C	0.861086	-0.530340	0.348360
C127	C	0.829727	-0.534975	0.446648
C128	C	0.766998	-0.441310	0.540315
C129	C	0.732294	0.085139	0.568905
C130	C	0.789171	0.080315	0.480072
C131	C	0.824784	0.020545	0.378283
C132	C	0.803523	-0.034413	0.365328
C133	C	0.746651	-0.029595	0.454159
C134	C	0.732288	-0.309802	0.963855
C135	C	0.789150	-0.398644	0.959066
C136	C	0.824761	-0.500440	0.899306
C137	C	0.803503	-0.513391	0.844339
C138	C	0.746638	-0.424550	0.849134
H139	H	0.253174	-0.042942	1.022398
H140	H	0.089131	0.529113	1.594450
H141	H	0.137853	0.489048	0.854397
H142	H	0.871092	0.016631	0.305960
H143	H	0.623670	0.564900	0.804336
N144	N	-0.315558	0.157398	0.822175
H145	H	-0.373663	0.214861	0.875044
H146	H	-0.299742	0.104463	0.764719
H147	H	0.573410	0.327811	0.845734
N148	N	0.290880	0.199749	0.602676
H149	H	0.281899	0.256632	0.644937
H150	H	0.288848	0.151901	0.639166
H151	H	0.320676	0.175215	0.414595
H152	H	0.832506	-0.596285	0.795683
H153	H	0.623667	-0.074342	0.443599
H154	H	0.160606	-0.042926	1.022438
N155	N	0.693901	0.149595	0.678682
H156	H	0.654645	0.144318	0.733002
H157	H	0.667222	0.226130	0.691039
N158	N	0.250451	0.300904	0.829875
H159	H	0.307858	0.258651	0.773011
H160	H	0.228301	0.306265	0.795851
H161	H	0.634283	0.403718	0.795607
H162	H	0.111841	0.183908	1.575740
N163	N	0.863568	-0.641007	0.451601
H164	H	0.822614	-0.647214	0.490378
H165	H	0.882707	-0.647153	0.490377
H166	H	0.202904	0.359206	1.424532
N167	N	0.250459	-0.048745	1.179496
H168	H	0.228362	-0.082833	1.184783
H169	H	0.307860	-0.105568	1.137305
N170	N	0.723719	-0.438529	0.789845
H171	H	0.754912	-0.516499	0.751262
H172	H	0.733936	-0.407014	0.737011
H173	H	0.370943	0.773066	1.012436
H174	H	0.089090	0.715892	1.407797
N175	N	-0.080821	-0.107987	1.087524
H176	H	-0.065048	-0.165452	1.034658
H177	H	-0.138922	-0.055061	1.144990
N178	N	0.841925	-0.098857	0.255540
H179	H	0.881170	-0.093553	0.201241
H180	H	0.801615	-0.070714	0.248862
N181	N	0.303039	0.539383	1.068375
H182	H	0.256175	0.617349	1.106972
H183	H	0.299001	0.507856	1.121198
H184	H	0.202878	0.545967	1.237848
N185	N	0.025212	-0.107984	1.087508
H186	H	0.001306	-0.140573	1.120106
H187	H	0.009443	-0.055060	1.144911
N188	N	0.693879	-0.200011	1.028317
H189	H	0.734129	-0.193229	1.000250
H190	H	0.667141	-0.187627	1.104861
N191	N	0.733169	-0.446323	0.646310
H192	H	0.688666	-0.372076	0.704958
H193	H	0.774174	-0.485169	0.652424
H194	H	0.310069	0.697157	1.062567
H195	H	0.634277	-0.083073	0.282399
H196	H	0.806471	0.125074	0.490642
H197	H	0.370935	0.133818	0.651694
N198	N	0.025158	0.208889	0.770709
H199	H	0.083262	0.156021	0.713249
H200	H	0.009338	0.266352	0.823640
H201	H	0.215004	0.175205	1.414587
N202	N	0.723724	-0.088868	0.440176
H203	H	0.754917	-0.127457	0.362212
H204	H	0.666950	-0.037041	0.477358
N205	N	0.102455	0.724042	1.078338
H206	H	0.142712	0.730811	1.050270
H207	H	0.075720	0.736418	1.154880
N208	N	0.592583	-0.048721	0.179576
H209	H	0.601559	-0.105598	0.137314
H210	H	0.633923	-0.082738	0.184944
H211	H	0.806451	-0.388078	1.003826
N212	N	0.220652	0.539351	1.068333
H213	H	0.189471	0.617317	1.106915
H214	H	0.277429	0.502141	1.016514
N215	N	0.132276	-0.038767	1.364120
H216	H	0.163462	-0.077347	1.286157
H217	H	0.075500	0.013054	1.401315
H218	H	0.073276	0.673705	0.962835
N219	N	-0.209487	-0.056529	1.036082
H220	H	-0.233388	-0.089126	1.068676
H221	H	-0.225258	-0.003605	1.093489
N222	N	0.058255	0.085462	1.575702
H223	H	0.050198	0.041573	1.552038
H224	H	0.008283	0.161494	1.622421
H225	H	0.032214	0.707467	1.586099
H226	H	0.741441	-0.258338	0.433649
N227	N	0.863527	-0.427026	0.237752
H228	H	0.834125	-0.350537	0.249054
H229	H	0.859513	-0.463655	0.196635
N230	N	0.928743	-0.631360	0.247328
H231	H	0.943840	-0.613497	0.184375
H232	H	0.913764	-0.674087	0.245048
H233	H	0.871063	-0.572771	0.895409
H234	H	-0.308805	-0.042919	1.022496
H235	H	-0.074134	0.195289	0.784317
N236	N	-0.209526	0.157410	0.822173
H237	H	-0.233435	0.190001	0.789580
H238	H	-0.151420	0.104488	0.764766
N239	N	0.153840	0.157376	0.822090
H240	H	0.177745	0.189966	0.789484
H241	H	0.095733	0.214792	0.875012
N242	N	0.259888	0.157387	0.822088
H243	H	0.296079	0.149576	0.829898
H244	H	0.214027	0.235026	0.854788
