data_functionalizedCrystal
_audit_creation_method	'MofGen! by Chris Wilmer'
_symmetry_space_group_name_H-M	'P1'
_symmetry_Int_Tables_number	1
_symmetry_cell_setting	triclinic
loop_
_symmetry_equiv_pos_as_xyz
  x,y,z
_cell_length_a	16.109301
_cell_length_b	14.853567
_cell_length_c	15.186229
_cell_angle_alpha	90.000050
_cell_angle_beta	89.999362
_cell_angle_gamma	83.548205
loop_
_atom_site_label
_atom_site_type_symbol
_atom_site_fract_x
_atom_site_fract_y
_atom_site_fract_z
O1	O	1.103293	0.115881	-0.073165
O2	O	0.861252	0.130302	-0.073178
O3	O	0.988738	-0.008149	-0.073174
O4	O	0.975807	0.254332	-0.073170
O5	O	0.988729	-0.008151	0.073283
O6	O	0.861243	0.130300	0.073279
O7	O	1.103285	0.115879	0.073292
Zn8	Zn	0.982263	0.123089	0.096539
Zn9	Zn	0.982274	0.123092	-0.096425
O10	O	0.975799	0.254330	0.073288
C11	C	0.830272	0.129717	0.000048
C12	C	0.737974	0.127965	0.000043
C13	C	0.515811	0.206047	0.000055
C14	C	0.429089	0.204395	0.000060
C15	C	0.448732	0.040127	0.000054
C16	C	0.535453	0.041781	0.000054
C17	C	0.568990	0.124743	0.000050
C18	C	0.395546	0.121437	0.000055
C19	C	0.301518	0.119645	0.000061
C20	C	0.663025	0.126536	0.000046
C21	C	0.988148	-0.041738	0.000052
C22	C	0.986392	-0.141819	0.000044
C23	C	0.903241	-0.554215	0.000056
C24	C	1.054697	-0.575746	0.000064
C25	C	1.056348	-0.481715	0.000059
C26	C	0.981444	-0.423930	0.000054
C27	C	0.904889	-0.460175	0.000054
C28	C	1.132901	-0.445463	0.000068
C29	C	1.134555	-0.351426	0.000064
C30	C	1.059650	-0.293639	0.000053
C31	C	0.983093	-0.329890	0.000052
C32	C	0.908189	-0.272104	0.000046
C33	C	0.831630	-0.308353	0.000039
C34	C	0.829984	-0.402388	0.000042
C35	C	1.061296	-0.199604	0.000049
C36	C	0.909837	-0.178064	0.000044
C37	C	1.134265	0.116464	0.000063
C38	C	1.226563	0.118215	0.000063
C39	C	0.976389	0.287918	0.000060
C40	C	0.978145	0.387999	0.000062
N41	N	0.982261	0.123087	0.228231
N42	N	0.982282	0.123087	-0.228118
C43	C	1.038731	0.061801	0.453956
C44	C	1.038734	0.061799	0.546146
C45	C	0.925806	0.184375	0.546151
C46	C	0.925800	0.184372	0.453963
C47	C	0.982267	0.123086	0.407868
C48	C	0.982276	0.123087	0.592246
C49	C	0.982278	0.123085	0.692202
C50	C	0.982264	0.123087	0.307905
H51	H	0.421415	-0.027418	0.000062
C52	C	0.640026	0.281524	0.000047
C53	C	0.552677	0.297237	0.000054
H54	H	0.662782	0.337824	0.000041
H55	H	0.658270	0.248054	0.051115
H56	H	0.658264	0.248049	-0.051031
H57	H	0.534439	0.330707	0.051135
H58	H	0.534426	0.330722	-0.051020
C59	C	0.385646	0.343894	-0.075232
C60	C	0.370633	0.293766	0.000058
H61	H	0.349554	0.399068	-0.075233
H62	H	0.442087	0.356747	-0.075227
H63	H	0.375464	0.309866	-0.126298
H64	H	0.380821	0.327791	0.051125
H65	H	0.314179	0.280915	0.000061
H66	H	0.879833	0.234274	0.583691
C67	C	1.056575	-0.060927	0.350334
C68	C	1.100771	-0.005612	0.403309
H69	H	1.094872	-0.102556	0.319072
H70	H	1.021918	-0.093318	0.386318
H71	H	1.022972	-0.024420	0.309674
H72	H	1.134370	-0.042119	0.443973
H73	H	1.135443	0.026782	0.367321
C74	C	0.644373	-0.051663	0.075339
C75	C	0.593915	-0.047596	0.000049
H76	H	0.680460	-0.106840	0.075339
H77	H	0.676753	-0.002024	0.075336
H78	H	0.610123	-0.048898	0.126405
H79	H	0.628164	-0.050354	-0.051017
H80	H	0.561532	-0.097249	0.000044
C81	C	0.700373	-0.412972	0.075321
C82	C	0.745834	-0.442229	0.000039
H83	H	0.648421	-0.437566	0.075316
H84	H	0.731214	-0.432807	0.126387
H85	H	0.690641	-0.348698	0.075307
H86	H	0.755571	-0.506504	0.000057
H87	H	0.714986	-0.422399	-0.051040
C88	C	1.119415	-0.729454	0.000076
C89	C	1.137028	-0.639262	0.000072
H90	H	1.170246	-0.768666	0.000075
H91	H	1.088033	-0.740430	0.051146
H92	H	1.088030	-0.740434	-0.051000
H93	H	1.168408	-0.628279	0.051152
H94	H	1.168424	-0.628281	-0.051003
C95	C	0.759959	-0.166227	0.000034
C96	C	0.827498	-0.114549	0.000039
H97	H	0.709128	-0.127014	0.000037
H98	H	0.762471	-0.203348	-0.051036
H99	H	0.762468	-0.203356	0.051110
H100	H	0.824992	-0.077425	-0.051040
H101	H	0.824985	-0.077412	0.051115
H102	H	0.770643	-0.261292	0.000041
C103	C	0.833454	-0.688795	0.000055
C104	C	0.819090	-0.594055	0.000053
H105	H	0.781501	-0.713389	0.000058
H106	H	0.864294	-0.708625	-0.051014
H107	H	0.864297	-0.708623	0.051132
H108	H	0.788252	-0.574227	-0.051028
H109	H	0.788236	-0.574217	0.051127
C110	C	1.150364	-0.059352	0.536874
C111	C	1.100804	-0.005564	0.596806
H112	H	1.188687	-0.100937	0.568151
H113	H	1.115720	-0.091792	0.500922
H114	H	1.180304	-0.021802	0.500914
H115	H	1.070859	-0.043113	0.632762
H116	H	1.135452	0.026879	0.632772
C117	C	0.814177	0.305546	0.463221
C118	C	0.863732	0.251745	0.403296
H119	H	0.775864	0.347138	0.431939
H120	H	0.784232	0.268012	0.499180
H121	H	0.848831	0.337986	0.499175
H122	H	0.829079	0.219299	0.367346
H123	H	0.893679	0.289283	0.367322
H124	H	1.193884	-0.492518	0.000081
C125	C	1.264160	-0.340841	-0.075225
C126	C	1.218706	-0.311585	0.000062
H127	H	1.316108	-0.316238	-0.075229
H128	H	1.273894	-0.405106	-0.075211
H129	H	1.233307	-0.321004	-0.126293
H130	H	1.249556	-0.331427	0.051131
H131	H	1.208974	-0.247306	0.000056
C132	C	1.190899	-0.189006	-0.075231
C133	C	1.145438	-0.159754	0.000053
H134	H	1.242845	-0.164399	-0.075232
H135	H	1.200638	-0.253271	-0.075217
H136	H	1.160048	-0.169172	-0.126302
H137	H	1.176287	-0.179594	0.051123
H138	H	1.135702	-0.095475	0.000047
