data_functionalizedCrystal
_audit_creation_method	'MofGen! by Chris Wilmer'
_symmetry_space_group_name_H-M	'P1'
_symmetry_Int_Tables_number	1
_symmetry_cell_setting	triclinic
loop_
_symmetry_equiv_pos_as_xyz
  x,y,z
_cell_length_a	17.038272
_cell_length_b	23.532407
_cell_length_c	15.500227
_cell_angle_alpha	92.805592
_cell_angle_beta	86.956295
_cell_angle_gamma	86.980117
loop_
_atom_site_label
_atom_site_type_symbol
_atom_site_fract_x
_atom_site_fract_y
_atom_site_fract_z
O1	O	1.040103	0.121159	-0.071851
O2	O	0.812488	0.119196	-0.071876
O3	O	0.933158	0.037607	-0.071847
O4	O	0.919432	0.202748	-0.071880
O5	O	0.925836	0.042537	0.072040
O6	O	0.805165	0.124126	0.072011
O7	O	1.032780	0.126090	0.072036
Cu8	Cu	0.918304	0.125558	0.085162
Cu9	Cu	0.926964	0.119727	-0.085001
O10	O	0.912110	0.207678	0.072007
C11	C	0.779712	0.119875	0.000065
C12	C	0.692959	0.114548	0.000056
C13	C	0.642483	0.163453	0.000046
C14	C	0.560969	0.158445	0.000059
C15	C	0.529932	0.104532	0.000075
C16	C	0.580414	0.055624	0.000087
C17	C	0.661927	0.060632	0.000080
C18	C	0.284304	0.086837	0.000102
C19	C	0.202786	0.081832	0.000106
C20	C	0.183345	0.184654	0.000080
C21	C	0.264860	0.189658	0.000068
C22	C	0.315335	0.140750	0.000084
C23	C	0.446612	0.099412	0.000086
C24	C	0.398653	0.145871	0.000080
C25	C	0.929147	0.018838	0.000099
C26	C	0.928096	-0.044434	0.000105
C27	C	0.992917	-0.440131	0.000065
C28	C	0.991941	-0.499583	0.000058
O29	O	1.052030	-0.533169	0.000033
N30	N	0.920202	-0.525981	0.000051
C31	C	0.849435	-0.492924	0.000042
O32	O	0.788325	-0.520836	0.000034
C33	C	0.850412	-0.433473	0.000042
C34	C	0.922155	-0.407078	0.000058
C35	C	1.064654	-0.413736	0.000080
C36	C	1.065630	-0.354288	0.000089
C37	C	0.994868	-0.321235	0.000082
C38	C	0.923131	-0.347631	0.000067
C39	C	0.779646	-0.400418	0.000027
C40	C	0.780629	-0.340963	0.000026
C41	C	0.852372	-0.314569	0.000043
C42	C	0.853344	-0.255130	0.000068
N43	N	0.925083	-0.228732	0.000075
C44	C	0.995845	-0.261785	0.000082
C45	C	0.847388	-0.617774	0.000039
C46	C	0.846410	-0.677223	0.000045
C47	C	0.988916	-0.683878	0.000060
C48	C	0.989894	-0.624428	0.000061
C49	C	0.919127	-0.591376	0.000047
C50	C	0.997889	-0.136940	0.000100
C51	C	0.998858	-0.077487	0.000112
C52	C	0.856352	-0.070837	0.000093
C53	C	0.855382	-0.130285	0.000085
C54	C	0.926157	-0.163336	0.000086
O55	O	0.793287	-0.221508	0.000090
O56	O	1.056945	-0.233865	0.000078
C57	C	1.065556	0.125410	0.000094
C58	C	1.152310	0.130737	0.000097
C59	C	0.916121	0.226447	0.000059
C60	C	0.917172	0.289719	0.000047
N61	N	0.912219	0.129659	0.204845
N62	N	0.933055	0.115622	-0.204685
C63	C	0.963369	0.095101	0.250134
C64	C	0.958774	0.098208	0.340706
C65	C	0.903033	0.135876	0.385987
C66	C	0.851877	0.170435	0.340691
C67	C	0.856469	0.167324	0.250121
C68	C	0.886491	0.147071	0.659450
C69	C	0.881905	0.150180	0.750026
C70	C	0.988801	0.077952	0.750034
C71	C	0.993391	0.074848	0.659462
C72	C	0.942233	0.109404	0.614175
C73	C	0.898336	0.139054	0.478566
C74	C	0.946927	0.106223	0.521598
H75	H	0.325391	0.047013	0.000116
H76	H	0.177520	0.037928	0.000118
H77	H	0.836511	0.180855	0.786890
H78	H	0.703024	0.020809	0.000087
H79	H	0.806487	0.201102	0.377565
H80	H	1.055521	-0.163843	0.000098
F81	F	0.431686	0.203247	0.000067
F82	F	0.129621	0.236701	0.000065
H83	H	0.555138	0.011727	0.000112
F84	F	0.413574	0.042035	0.000100
H85	H	0.290124	0.233559	0.000045
H86	H	0.796962	-0.151776	0.000096
H87	H	0.798739	-0.043915	0.000090
H88	H	0.844838	0.175209	0.622584
H89	H	0.814816	0.195464	0.213248
H90	H	0.852952	0.169725	0.515441
F91	F	1.064228	-0.719066	0.000063
F92	F	1.022701	0.055013	0.201951
H93	H	1.124051	-0.332803	0.000098
H94	H	0.992309	0.075552	0.484727
F95	F	1.013212	0.061428	0.388906
H96	H	0.721225	-0.421898	0.000008
H97	H	1.057282	-0.055999	0.000128
F98	F	0.675506	0.220834	0.000024
F99	F	1.043242	0.041176	0.798238
H100	H	1.122281	-0.440642	0.000083
H101	H	0.519874	0.198268	0.000051
H102	H	0.723001	-0.314056	0.000014
F103	F	1.066251	-0.596342	0.000077
H104	H	0.789757	-0.590866	0.000035
F105	F	0.770050	-0.705307	0.000043
H106	H	1.038780	0.044176	0.622596
