data_functionalizedCrystal
_audit_creation_method	'MofGen! by Chris Wilmer'
_symmetry_space_group_name_H-M	'P1'
_symmetry_Int_Tables_number	1
_symmetry_cell_setting	triclinic
loop_
_symmetry_equiv_pos_as_xyz
  x,y,z
_cell_length_a	18.366186
_cell_length_b	19.288856
_cell_length_c	19.288865
_cell_angle_alpha	96.865496
_cell_angle_beta	90.013443
_cell_angle_gamma	90.006398
loop_
_atom_site_label
_atom_site_type_symbol
_atom_site_fract_x
_atom_site_fract_y
_atom_site_fract_z
O1	O	0.060591	-0.921338	0.086625
O2	O	0.310591	-0.671338	0.336625
O3	O	0.560591	-0.421338	0.586625
O4	O	0.810591	-0.171338	0.836625
O5	O	0.060586	-0.719077	0.098319
O6	O	0.310586	-0.469077	0.348319
O7	O	0.560586	-0.219077	0.598319
O8	O	0.810586	0.030923	0.848319
O9	O	0.060575	-0.826052	-0.008658
O10	O	0.310575	-0.576052	0.241342
O11	O	0.560575	-0.326052	0.491342
O12	O	0.810575	-0.076052	0.741342
O13	O	0.060603	-0.814363	0.193603
O14	O	0.310603	-0.564363	0.443603
O15	O	0.560603	-0.314363	0.693603
O16	O	0.810603	-0.064363	0.943603
O17	O	-0.060525	-0.826070	-0.008672
O18	O	0.189475	-0.576070	0.241328
O19	O	0.439475	-0.326070	0.491328
O20	O	0.689475	-0.076070	0.741328
O21	O	-0.060513	-0.719095	0.098306
O22	O	0.189487	-0.469095	0.348306
O23	O	0.439487	-0.219095	0.598306
O24	O	0.689487	0.030905	0.848306
O25	O	-0.060508	-0.921356	0.086611
O26	O	0.189492	-0.671356	0.336611
O27	O	0.439492	-0.421356	0.586611
O28	O	0.689492	-0.171356	0.836611
Zn29	Zn	-0.079738	-0.820229	0.092456
Zn30	Zn	0.170262	-0.570229	0.342456
Zn31	Zn	0.420262	-0.320229	0.592456
Zn32	Zn	0.670262	-0.070229	0.842456
Zn33	Zn	0.079816	-0.820205	0.092474
Zn34	Zn	0.329816	-0.570205	0.342474
Zn35	Zn	0.579816	-0.320205	0.592474
Zn36	Zn	0.829816	-0.070205	0.842474
O37	O	-0.060496	-0.814381	0.193589
O38	O	0.189504	-0.564381	0.443589
O39	O	0.439504	-0.314381	0.693589
O40	O	0.689504	-0.064381	0.943589
C41	C	0.000036	-0.693209	0.097937
C42	C	0.250036	-0.443209	0.347937
C43	C	0.500036	-0.193209	0.597937
C44	C	0.750036	0.056791	0.847937
C45	C	0.000034	-0.616105	0.096811
C46	C	0.250034	-0.366105	0.346811
C47	C	0.500034	-0.116105	0.596811
C48	C	0.750034	0.133895	0.846811
C49	C	0.000031	-0.052064	0.151959
C50	C	0.250031	0.197936	0.401959
C51	C	0.500031	0.447936	0.651959
C52	C	0.750031	0.697936	0.901959
C53	C	0.000036	-0.124511	0.153024
C54	C	0.250036	0.125489	0.403024
C55	C	0.500036	0.375489	0.653024
C56	C	0.750036	0.625489	0.903024
C57	C	0.000027	-0.169218	0.090254
C58	C	0.250027	0.080782	0.340254
C59	C	0.500027	0.330782	0.590254
C60	C	0.750027	0.580782	0.840254
C61	C	0.000031	-0.141472	0.026415
C62	C	0.250031	0.108528	0.276415
C63	C	0.500031	0.358528	0.526415
C64	C	0.750031	0.608528	0.776415
C65	C	0.000033	-0.069027	0.025352
C66	C	0.250033	0.180973	0.275352
C67	C	0.500033	0.430973	0.525352
C68	C	0.750033	0.680973	0.775352
C69	C	-0.042406	-0.290494	0.043435
C70	C	0.207594	-0.040494	0.293435
C71	C	0.457594	0.209506	0.543435
C72	C	0.707594	0.459506	0.793435
C73	C	-0.042413	-0.362938	0.044501
C74	C	0.207587	-0.112938	0.294501
C75	C	0.457587	0.137062	0.544501
C76	C	0.707587	0.387062	0.794501
C77	C	0.000025	-0.392664	0.093530
C78	C	0.250025	-0.142664	0.343530
C79	C	0.500025	0.107336	0.593530
C80	C	0.750025	0.357336	0.843530
C81	C	0.042459	-0.349935	0.141505
C82	C	0.292459	-0.099935	0.391505
C83	C	0.542459	0.150065	0.641505
C84	C	0.792459	0.400065	0.891505
C85	C	0.042461	-0.277490	0.140442
C86	C	0.292461	-0.027490	0.390442
C87	C	0.542461	0.222510	0.640442
C88	C	0.792461	0.472510	0.890442
C89	C	0.000025	-0.247773	0.091399
C90	C	0.250025	0.002227	0.341399
C91	C	0.500025	0.252227	0.591399
C92	C	0.750025	0.502227	0.841399
C93	C	0.000032	-0.498955	0.158519
C94	C	0.250032	-0.248955	0.408519
C95	C	0.500032	0.001045	0.658519
C96	C	0.750032	0.251045	0.908519
C97	C	0.000042	-0.571404	0.159581
C98	C	0.250042	-0.321404	0.409581
C99	C	0.500042	-0.071404	0.659581
C100	C	0.750042	0.178596	0.909581
C101	C	0.000029	-0.588364	0.032971
C102	C	0.250029	-0.338364	0.282971
C103	C	0.500029	-0.088364	0.532971
C104	C	0.750029	0.161636	0.782971
C105	C	0.000026	-0.515917	0.031910
C106	C	0.250026	-0.265917	0.281910
C107	C	0.500026	-0.015917	0.531910
C108	C	0.750026	0.234083	0.781910
C109	C	0.000024	-0.471217	0.094687
C110	C	0.250024	-0.221217	0.344687
C111	C	0.500024	0.028783	0.594687
C112	C	0.750024	0.278783	0.844687
N113	N	-0.188629	-0.820250	0.092444
N114	N	0.061371	-0.570250	0.342444
N115	N	0.311371	-0.320250	0.592444
N116	N	0.561371	-0.070250	0.842444
N117	N	0.188707	-0.820189	0.092481
N118	N	0.438707	-0.570189	0.342481
N119	N	0.688707	-0.320189	0.592481
N120	N	0.938707	-0.070189	0.842481
C121	C	0.226819	-0.862097	0.134581
C122	C	0.476819	-0.612097	0.384581
C123	C	0.726819	-0.362097	0.634581
C124	C	0.976819	-0.112097	0.884581
C125	C	0.303047	-0.862102	0.134582
C126	C	0.553047	-0.612102	0.384582
C127	C	0.803047	-0.362102	0.634582
C128	C	1.053047	-0.112102	0.884582
C129	C	0.341160	-0.820207	0.092469
C130	C	0.591160	-0.570207	0.342469
C131	C	0.841160	-0.320207	0.592469
C132	C	1.091160	-0.070207	0.842469
C133	C	0.303039	-0.778291	0.050366
C134	C	0.553039	-0.528291	0.300366
C135	C	0.803039	-0.278291	0.550366
C136	C	1.053039	-0.028291	0.800366
C137	C	0.226812	-0.778282	0.050372
C138	C	0.476812	-0.528282	0.300372
C139	C	0.726812	-0.278282	0.550372
C140	C	0.976812	-0.028282	0.800372
C141	C	0.461905	-0.818621	0.029816
C142	C	0.711905	-0.568621	0.279816
C143	C	0.961905	-0.318621	0.529816
C144	C	1.211905	-0.068621	0.779816
C145	C	0.538130	-0.818635	0.029809
C146	C	0.788130	-0.568635	0.279809
C147	C	1.038130	-0.318635	0.529809
C148	C	1.288130	-0.068635	0.779809
C149	C	0.576267	-0.820231	0.092450
C150	C	0.826267	-0.570231	0.342450
C151	C	1.076267	-0.320231	0.592450
C152	C	1.326267	-0.070231	0.842450
C153	C	0.538170	-0.821827	0.155101
C154	C	0.788170	-0.571827	0.405101
C155	C	1.038170	-0.321827	0.655101
C156	C	1.288170	-0.071827	0.905101
C157	C	0.461944	-0.821818	0.155107
C158	C	0.711944	-0.571818	0.405107
C159	C	0.961944	-0.321818	0.655107
C160	C	1.211944	-0.071818	0.905107
C161	C	0.423815	-0.820212	0.092458
C162	C	0.673815	-0.570212	0.342458
C163	C	0.923815	-0.320212	0.592458
C164	C	1.173815	-0.070212	0.842458
C165	C	0.697034	-0.862146	0.134554
C166	C	0.947034	-0.612146	0.384554
C167	C	1.197034	-0.362146	0.634554
C168	C	1.447034	-0.112146	0.884554
C169	C	0.773263	-0.862146	0.134556
C170	C	1.023263	-0.612146	0.384556
C171	C	1.273263	-0.362146	0.634556
C172	C	1.523263	-0.112146	0.884556
C173	C	0.773254	-0.778339	0.050334
C174	C	1.023254	-0.528339	0.300334
C175	C	1.273254	-0.278339	0.550334
C176	C	1.523254	-0.028339	0.800334
C177	C	0.697026	-0.778335	0.050339
C178	C	0.947026	-0.528335	0.300339
C179	C	1.197026	-0.278335	0.550339
C180	C	1.447026	-0.028335	0.800339
C181	C	0.658921	-0.820242	0.092448
C182	C	0.908921	-0.570242	0.342448
C183	C	1.158921	-0.320242	0.592448
C184	C	1.408921	-0.070242	0.842448
C185	C	0.000023	-0.825685	-0.034542
C186	C	0.250023	-0.575685	0.215458
C187	C	0.500023	-0.325685	0.465458
C188	C	0.750023	-0.075685	0.715458
C189	C	0.000016	-0.824556	-0.111645
C190	C	0.250016	-0.574556	0.138355
C191	C	0.500016	-0.324556	0.388355
C192	C	0.750016	-0.074556	0.638355
C193	C	0.000039	0.052776	0.086995
C194	C	0.250039	0.302776	0.336995
C195	C	0.500039	0.552776	0.586995
C196	C	0.750039	0.802776	0.836995
C197	C	0.000031	-0.024327	0.088128
C198	C	0.250031	0.225673	0.338128
C199	C	0.500031	0.475673	0.588128
C200	C	0.750031	0.725673	0.838128
C201	C	0.000014	-0.887324	-0.156343
C202	C	0.250014	-0.637324	0.093657
C203	C	0.500014	-0.387324	0.343657
C204	C	0.750014	-0.137324	0.593657
C205	C	0.000026	-0.886263	-0.228790
C206	C	0.250026	-0.636263	0.021210
C207	C	0.500026	-0.386263	0.271210
C208	C	0.750026	-0.136263	0.521210
C209	C	0.000025	-0.822431	-0.256536
C210	C	0.250025	-0.572431	-0.006536
C211	C	0.500025	-0.322431	0.243464
C212	C	0.750025	-0.072431	0.493464
C213	C	0.000031	-0.759655	-0.211828
C214	C	0.250031	-0.509655	0.038172
C215	C	0.500031	-0.259655	0.288172
C216	C	0.750031	-0.009655	0.538172
C217	C	0.000027	-0.760717	-0.139383
C218	C	0.250027	-0.510717	0.110617
C219	C	0.500027	-0.260717	0.360617
C220	C	0.750027	-0.010717	0.610617
C221	C	-0.042395	-0.772258	-0.364827
C222	C	0.207605	-0.522258	-0.114827
C223	C	0.457605	-0.272258	0.135173
C224	C	0.707605	-0.022258	0.385173
C225	C	-0.042395	-0.771198	-0.437271
C226	C	0.207605	-0.521198	-0.187271
C227	C	0.457605	-0.271198	0.062729
C228	C	0.707605	-0.021198	0.312729
C229	C	0.000041	-0.819151	-0.479982
C230	C	0.250041	-0.569151	-0.229982
C231	C	0.500041	-0.319151	0.020018
C232	C	0.750041	-0.069151	0.270018
C233	C	0.042468	-0.868177	-0.450240
C234	C	0.292468	-0.618177	-0.200240
C235	C	0.542468	-0.368177	0.049760
C236	C	0.792468	-0.118177	0.299760
C237	C	0.042464	-0.869239	-0.377795
C238	C	0.292464	-0.619239	-0.127795
C239	C	0.542464	-0.369239	0.122205
C240	C	0.792464	-0.119239	0.372205
C241	C	0.000030	-0.821272	-0.335090
C242	C	0.250030	-0.571272	-0.085090
C243	C	0.500030	-0.321272	0.164910
C244	C	0.750030	-0.071272	0.414910
C245	C	0.000052	-0.880774	-0.603236
C246	C	0.250052	-0.630774	-0.353236
C247	C	0.500052	-0.380774	-0.103236
C248	C	0.750052	-0.130774	0.146764
C249	C	0.000068	-0.879710	-0.675684
C250	C	0.250068	-0.629710	-0.425684
C251	C	0.500068	-0.379710	-0.175684
C252	C	0.750068	-0.129710	0.074316
C253	C	0.000066	-0.753100	-0.658720
C254	C	0.250066	-0.503100	-0.408720
C255	C	0.500066	-0.253100	-0.158720
C256	C	0.750066	-0.003100	0.091280
C257	C	0.000057	-0.754165	-0.586273
C258	C	0.250057	-0.504165	-0.336273
C259	C	0.500057	-0.254165	-0.086273
C260	C	0.750057	-0.004165	0.163727
C261	C	0.000047	-0.818004	-0.558536
C262	C	0.250047	-0.568004	-0.308536
C263	C	0.500047	-0.318004	-0.058536
C264	C	0.750047	-0.068004	0.191464
C265	C	0.000057	-0.814748	0.219472
C266	C	0.250057	-0.564748	0.469472
C267	C	0.500057	-0.314748	0.719472
C268	C	0.750057	-0.064748	0.969472
C269	C	0.000068	-0.815877	0.296576
C270	C	0.250068	-0.565877	0.546576
C271	C	0.500068	-0.315877	0.796576
C272	C	0.750068	-0.065877	1.046576
H273	H	-0.076965	-0.266299	0.003506
H274	H	0.173035	-0.016299	0.253506
H275	H	0.423035	0.233701	0.503506
H276	H	0.673035	0.483701	0.753506
H277	H	-0.076938	-0.731275	-0.461480
H278	H	0.173062	-0.481275	-0.211480
H279	H	0.423062	-0.231275	0.038520
H280	H	0.673062	0.018725	0.288520
H281	H	0.195798	-0.896220	0.168871
H282	H	0.445798	-0.646220	0.418871
H283	H	0.695798	-0.396220	0.668871
H284	H	0.945798	-0.146220	0.918871
H285	H	0.000033	-0.015673	0.203076
H286	H	0.250033	0.234327	0.453076
H287	H	0.500033	0.484327	0.703076
H288	H	0.750033	0.734327	0.953076
H289	H	0.430928	-0.823116	0.206119
H290	H	0.680928	-0.573116	0.456119
H291	H	0.930928	-0.323116	0.706119
H292	H	1.180928	-0.073116	0.956119
H293	H	0.000025	-0.177877	-0.024693
H294	H	0.250025	0.072123	0.225307
H295	H	0.500025	0.322123	0.475307
H296	H	0.750025	0.572123	0.725307
H297	H	0.000027	-0.937378	-0.265191
H298	H	0.250027	-0.687378	-0.015191
H299	H	0.500027	-0.437378	0.234809
H300	H	0.750027	-0.187378	0.484809
H301	H	0.569144	-0.817340	-0.021205
H302	H	0.819144	-0.567340	0.228795
H303	H	1.069144	-0.317340	0.478795
H304	H	1.319144	-0.067340	0.728795
H305	H	0.000008	-0.939307	-0.133765
H306	H	0.250008	-0.689307	0.116235
H307	H	0.500008	-0.439307	0.366235
H308	H	0.750008	-0.189307	0.616235
H309	H	0.000030	-0.147099	0.205004
H310	H	0.250030	0.102901	0.455004
H311	H	0.500030	0.352901	0.705004
H312	H	0.750030	0.602901	0.955004
H313	H	0.000047	-0.932755	-0.580651
H314	H	0.250047	-0.682755	-0.330651
H315	H	0.500047	-0.432755	-0.080651
H316	H	0.750047	-0.182755	0.169349
H317	H	0.000071	-0.930826	-0.712077
H318	H	0.250071	-0.680826	-0.462077
H319	H	0.500071	-0.430826	-0.212077
H320	H	0.750071	-0.180826	0.037923
H321	H	0.000033	-0.046445	-0.026628
H322	H	0.250033	0.203555	0.223372
H323	H	0.500033	0.453555	0.473372
H324	H	0.750033	0.703555	0.723372
H325	H	0.000032	-0.707682	-0.234423
H326	H	0.250032	-0.457682	0.015577
H327	H	0.500032	-0.207682	0.265577
H328	H	0.750032	0.042318	0.515577
H329	H	0.077013	-0.242703	0.179504
H330	H	0.327013	0.007297	0.429504
H331	H	0.577013	0.257297	0.679504
H332	H	0.827013	0.507297	0.929504
H333	H	0.569219	-0.823127	0.206110
H334	H	0.819219	-0.573127	0.456110
H335	H	1.069219	-0.323127	0.706110
H336	H	1.319219	-0.073127	0.956110
H337	H	0.334083	-0.896228	0.168868
H338	H	0.584083	-0.646228	0.418868
H339	H	0.834083	-0.396228	0.668868
H340	H	1.084083	-0.146228	0.918868
H341	H	0.000028	-0.709602	-0.102988
H342	H	0.250028	-0.459602	0.147012
H343	H	0.500028	-0.209602	0.397012
H344	H	0.750028	0.040398	0.647012
H345	H	0.666007	-0.896266	0.168845
H346	H	0.916007	-0.646266	0.418845
H347	H	1.166007	-0.396266	0.668845
H348	H	1.416007	-0.146266	0.918845
H349	H	0.077011	-0.909156	-0.353582
H350	H	0.327011	-0.659156	-0.103582
H351	H	0.577011	-0.409156	0.146418
H352	H	0.827011	-0.159156	0.396418
H353	H	0.077013	-0.374135	0.181430
H354	H	0.327013	-0.124135	0.431430
H355	H	0.577013	0.125865	0.681430
H356	H	0.827013	0.375865	0.931430
H357	H	0.000031	-0.462558	0.209635
H358	H	0.250031	-0.212558	0.459635
H359	H	0.500031	0.037442	0.709635
H360	H	0.750031	0.287442	0.959635
H361	H	-0.076956	-0.733206	-0.330057
H362	H	0.173044	-0.483206	-0.080057
H363	H	0.423044	-0.233206	0.169943
H364	H	0.673044	0.016794	0.419943
H365	H	0.804293	-0.896271	0.168844
H366	H	1.054293	-0.646271	0.418844
H367	H	1.304293	-0.396271	0.668844
H368	H	1.554293	-0.146271	0.918844
H369	H	0.804285	-0.744223	0.016049
H370	H	1.054285	-0.494223	0.266049
H371	H	1.304285	-0.244223	0.516049
H372	H	1.554285	0.005777	0.766049
H373	H	0.077024	-0.907225	-0.485014
H374	H	0.327024	-0.657225	-0.235014
H375	H	0.577024	-0.407225	0.014986
H376	H	0.827024	-0.157225	0.264986
H377	H	0.665995	-0.744212	0.016053
H378	H	0.915995	-0.494212	0.266053
H379	H	1.165995	-0.244212	0.516053
H380	H	1.415995	0.005788	0.766053
H381	H	0.000069	-0.701126	-0.681309
H382	H	0.250069	-0.451126	-0.431309
H383	H	0.500069	-0.201126	-0.181309
H384	H	0.750069	0.048874	0.068691
H385	H	0.000048	-0.593985	0.211562
H386	H	0.250048	-0.343985	0.461562
H387	H	0.500048	-0.093985	0.711562
H388	H	0.750048	0.156015	0.961562
H389	H	0.430861	-0.817315	-0.021197
H390	H	0.680861	-0.567315	0.228803
H391	H	0.930861	-0.317315	0.478803
H392	H	1.180861	-0.067315	0.728803
H393	H	0.334075	-0.744178	0.016079
H394	H	0.584075	-0.494178	0.266079
H395	H	0.834075	-0.244178	0.516079
H396	H	1.084075	0.005822	0.766079
H397	H	0.000027	-0.624764	-0.018138
H398	H	0.250027	-0.374764	0.231862
H399	H	0.500027	-0.124764	0.481862
H400	H	0.750027	0.125236	0.731862
H401	H	0.195782	-0.744154	0.016088
H402	H	0.445782	-0.494154	0.266088
H403	H	0.695782	-0.244154	0.516088
H404	H	0.945782	0.005846	0.766088
H405	H	0.000022	-0.493334	-0.020068
H406	H	0.250022	-0.243334	0.229932
H407	H	0.500022	0.006666	0.479932
H408	H	0.750022	0.256666	0.729932
H409	H	-0.076969	-0.397722	0.005440
H410	H	0.173031	-0.147722	0.255440
H411	H	0.423031	0.102278	0.505440
H412	H	0.673031	0.352278	0.755440
H413	H	0.000055	-0.703052	-0.549879
H414	H	0.250055	-0.453052	-0.299879
H415	H	0.500055	-0.203052	-0.049879
H416	H	0.750055	0.046948	0.200121
