data_functionalizedCrystal
_audit_creation_method	'MofGen! by Chris Wilmer'
_symmetry_space_group_name_H-M	'P1'
_symmetry_Int_Tables_number	1
_symmetry_cell_setting	triclinic
loop_
_symmetry_equiv_pos_as_xyz
  x,y,z
_cell_length_a	16.959455
_cell_length_b	19.120786
_cell_length_c	16.959447
_cell_angle_alpha	87.526589
_cell_angle_beta	89.979626
_cell_angle_gamma	92.461932
loop_
_atom_site_label
_atom_site_type_symbol
_atom_site_fract_x
_atom_site_fract_y
_atom_site_fract_z
Zn1	Zn	1.194928	-0.279672	-0.433590
Zn2	Zn	1.189199	-0.397140	-0.295764
Zn3	Zn	1.062756	-0.279694	-0.301413
Zn4	Zn	1.057073	-0.397088	-0.427892
O5	O	1.125989	-0.338399	-0.364665
O6	O	1.304779	-0.295267	-0.415329
O7	O	1.172407	-0.381592	-0.185901
O8	O	1.085065	-0.181401	-0.323696
O9	O	1.300570	-0.381570	-0.314068
O10	O	1.182172	-0.181385	-0.420806
O11	O	1.079510	-0.295305	-0.190051
O12	O	0.951392	-0.295254	-0.318170
O13	O	1.075379	-0.381481	-0.539260
O14	O	0.947216	-0.381503	-0.411093
O15	O	1.176661	-0.295216	-0.543447
O16	O	1.166896	-0.495424	-0.308542
O17	O	1.069823	-0.495385	-0.405616
C18	C	0.920624	-0.338376	-0.364626
C19	C	0.832767	-0.338383	-0.364627
C20	C	0.459090	-0.383292	-0.311915
C21	C	0.463488	-0.293563	-0.417508
C22	C	0.546034	-0.293552	-0.417489
C23	C	0.585113	-0.338412	-0.364684
C24	C	0.541644	-0.383284	-0.311896
C25	C	0.589509	-0.248686	-0.470281
C26	C	0.672060	-0.248673	-0.470265
C27	C	0.711140	-0.293530	-0.417455
C28	C	0.667667	-0.338403	-0.364665
C29	C	0.706745	-0.383263	-0.311859
C30	C	0.663273	-0.428133	-0.259065
C31	C	0.580724	-0.428141	-0.259086
C32	C	0.793689	-0.293523	-0.417433
C33	C	0.789299	-0.383255	-0.311840
C34	C	1.117143	-0.520890	-0.355865
C35	C	1.113431	-0.598960	-0.352127
C36	C	1.162207	-0.635569	-0.400972
C37	C	1.158716	-0.708925	-0.397461
C38	C	1.106452	-0.745670	-0.345100
C39	C	1.057670	-0.709056	-0.296253
C40	C	1.061158	-0.635702	-0.299769
C41	C	1.093391	-0.967156	-0.331957
C42	C	1.089908	-1.040515	-0.328444
C43	C	1.190954	-1.040379	-0.429653
C44	C	1.194440	-0.967023	-0.433160
C45	C	1.145655	-0.930416	-0.384316
C46	C	1.102884	-0.820651	-0.341508
C47	C	1.149220	-0.855436	-0.387913
C48	C	1.332156	-0.338422	-0.364704
C49	C	1.420012	-0.338432	-0.364721
C50	C	1.126025	-0.338341	-0.570836
C51	C	1.126040	-0.338316	-0.658694
C52	C	1.134891	-0.155195	-0.373516
C53	C	1.138685	-0.077124	-0.377289
C54	C	1.073405	-0.383156	-1.027996
C55	C	1.178871	-0.293328	-1.032351
C56	C	1.178849	-0.293342	-0.949804
C57	C	1.126105	-0.338265	-0.906349
C58	C	1.073383	-0.383173	-0.945441
C59	C	1.231576	-0.248440	-0.910706
C60	C	1.231557	-0.248454	-0.828154
C61	C	1.178808	-0.293374	-0.784698
C62	C	1.126084	-0.338283	-0.823795
C63	C	1.073340	-0.383206	-0.780340
C64	C	1.020610	-0.428112	-0.819436
C65	C	1.020635	-0.428093	-0.901985
C66	C	1.178784	-0.293393	-0.702149
C67	C	1.073318	-0.383224	-0.697786
C68	C	1.126001	-0.338406	-0.159298
C69	C	1.126149	-0.338233	-0.071450
H70	H	0.829080	-0.256992	-0.460419
H71	H	0.557685	-0.212168	-0.513278
H72	H	0.821110	-0.419783	-0.268836
H73	H	1.274492	-0.211888	-0.796330
O74	O	1.006830	-0.744640	-0.245370
C75	C	0.964540	-0.696595	-0.202999
H76	H	0.964268	-0.644289	-0.237880
H77	H	0.901258	-0.717840	-0.193486
H78	H	0.993894	-0.688807	-0.143369
H79	H	1.236998	-0.937107	-0.475796
H80	H	0.545322	-0.464671	-0.216103
O81	O	1.282920	-0.204880	-0.952873
C82	C	1.360947	-0.220236	-0.931954
H83	H	1.362203	-0.276355	-0.906549
H84	H	1.400305	-0.214177	-0.986539
H85	H	1.383428	-0.182594	-0.885860
H86	H	1.021438	-0.605896	-0.259995
O87	O	0.714166	-0.205018	-0.521570
C88	C	0.661971	-0.165440	-0.568195
H89	H	0.603225	-0.162984	-0.535958
H90	H	0.688496	-0.110104	-0.579387
H91	H	0.651986	-0.191226	-0.626940
O92	O	1.199881	-0.819667	-0.438816
C93	C	1.156860	-0.777251	-0.491868
H94	H	1.097492	-0.766330	-0.464457
H95	H	1.191497	-0.725635	-0.504959
H96	H	1.146803	-0.805489	-0.549086
O97	O	1.039246	-1.076240	-0.277491
C98	C	1.082266	-1.118676	-0.224460
H99	H	1.145575	-1.096524	-0.220703
H100	H	1.053675	-1.119564	-0.163559
H101	H	1.082336	-1.174255	-0.246235
O102	O	1.230214	-0.249767	-1.074518
C103	C	1.308242	-0.265116	-1.053593
H104	H	1.309502	-0.321233	-1.028183
H105	H	1.347603	-0.259059	-1.108177
H106	H	1.330717	-0.227470	-1.007502
H107	H	0.695101	-0.464662	-0.216074
H108	H	0.431665	-0.257044	-0.460504
H109	H	1.221717	-0.256833	-0.670320
O110	O	1.022221	-0.426874	-1.065876
C111	C	1.036103	-0.496886	-1.042335
H112	H	1.066406	-0.498359	-0.982333
H113	H	0.977526	-0.528375	-1.037977
H114	H	1.075600	-0.520538	-1.087657
O115	O	0.416828	-0.426953	-0.260743
C116	C	0.366892	-0.472361	-0.303479
H117	H	0.391589	-0.476766	-0.365509
H118	H	0.363330	-0.526384	-0.272186
H119	H	0.305380	-0.450653	-0.307299
O120	O	1.045924	-0.931573	-0.284619
C121	C	0.996865	-0.889141	-0.331596
H122	H	0.990893	-0.911208	-0.392790
H123	H	0.936091	-0.888378	-0.302980
H124	H	1.023939	-0.833525	-0.337003
O125	O	1.206135	-0.744569	-0.444788
C126	C	1.255204	-0.786978	-0.397794
H127	H	1.226832	-0.798016	-0.337338
H128	H	1.263324	-0.838537	-0.427524
H129	H	1.315134	-0.758674	-0.390519
O130	O	1.212890	-0.599908	-0.451948
C131	C	1.194721	-0.617813	-0.529850
H132	H	1.130612	-0.638022	-0.532804
H133	H	1.203796	-0.569545	-0.571222
H134	H	1.235063	-0.660350	-0.548517
H135	H	1.030360	-0.419800	-0.662411
O136	O	1.052162	-0.856268	-0.290534
C137	C	1.070356	-0.838396	-0.212627
H138	H	1.103273	-0.785114	-0.213571
H139	H	1.013451	-0.835952	-0.177240
H140	H	1.109052	-0.879668	-0.184074
H141	H	0.977670	-0.464692	-0.784044
O142	O	1.238217	-1.075975	-0.477184
C143	C	1.191158	-1.118419	-0.526140
H144	H	1.129951	-1.096351	-0.532012
H145	H	1.219664	-1.119197	-0.586964
H146	H	1.185805	-1.174029	-0.499032
H147	H	0.977708	-0.464656	-0.933824
