data_functionalizedCrystal
_audit_creation_method	'MofGen! by Chris Wilmer'
_symmetry_space_group_name_H-M	'P1'
_symmetry_Int_Tables_number	1
_symmetry_cell_setting	triclinic
loop_
_symmetry_equiv_pos_as_xyz
  x,y,z
_cell_length_a	8.497374
_cell_length_b	11.169416
_cell_length_c	11.169417
_cell_angle_alpha	90.005487
_cell_angle_beta	89.999901
_cell_angle_gamma	90.003741
loop_
_atom_site_label
_atom_site_type_symbol
_atom_site_fract_x
_atom_site_fract_y
_atom_site_fract_z
Zn1	Zn	0.891931	-0.477975	1.834781
Zn2	Zn	1.225264	-0.144642	2.168114
Zn3	Zn	1.558598	0.188691	2.501448
Zn4	Zn	0.628155	-0.678625	1.834760
Zn5	Zn	0.961489	-0.345292	2.168094
Zn6	Zn	1.294822	-0.011959	2.501427
Zn7	Zn	0.628167	-0.477959	1.634135
Zn8	Zn	0.961500	-0.144626	1.967469
Zn9	Zn	1.294833	0.188707	2.300802
Zn10	Zn	0.891895	-0.678619	1.634096
Zn11	Zn	1.225229	-0.345286	1.967429
Zn12	Zn	1.558562	-0.011953	2.300762
O13	O	0.760037	-0.578295	1.734443
O14	O	1.093370	-0.244962	2.067776
O15	O	1.426704	0.088372	2.401110
O16	O	0.856951	-0.504601	2.002728
O17	O	1.190284	-0.171268	2.336061
O18	O	1.523618	0.162066	2.669395
O19	O	0.407395	-0.652003	1.808155
O20	O	0.740728	-0.318669	2.141488
O21	O	1.074061	0.014664	2.474822
O22	O	0.663175	-0.310012	1.660777
O23	O	0.996509	0.023322	1.994110
O24	O	1.329842	0.356655	2.327443
O25	O	0.663156	-0.652018	2.002713
O26	O	0.996489	-0.318685	2.336046
O27	O	1.329823	0.014649	2.669379
O28	O	0.856962	-0.310023	1.808190
O29	O	1.190295	0.023310	2.141523
O30	O	1.523629	0.356643	2.474857
O31	O	0.407403	-0.504574	1.660757
O32	O	0.740736	-0.171241	1.994090
O33	O	1.074070	0.162093	2.327424
O34	O	0.663141	-0.504568	1.466181
O35	O	0.996474	-0.171235	1.799514
O36	O	1.329807	0.162098	2.132847
O37	O	1.112662	-0.652007	1.660709
O38	O	1.445996	-0.318674	1.994042
O39	O	1.779329	0.014659	2.327376
O40	O	0.856901	-0.651992	1.466151
O41	O	1.190234	-0.318659	1.799485
O42	O	1.523568	0.014675	2.132818
O43	O	1.112689	-0.504595	1.808151
O44	O	1.446022	-0.171262	2.141485
O45	O	1.779355	0.162072	2.474818
O46	O	0.663121	-0.846574	1.808116
O47	O	0.996455	-0.513241	2.141450
O48	O	1.329788	-0.179908	2.474783
O49	O	0.856890	-0.846570	1.660689
O50	O	1.190223	-0.513236	1.994022
O51	O	1.523556	-0.179903	2.327356
C52	C	0.760019	-0.578279	1.422618
C53	C	1.093352	-0.244945	1.755952
C54	C	1.426686	0.088388	2.089285
C55	C	0.760049	-0.578301	1.289218
C56	C	1.093382	-0.244967	1.622552
C57	C	1.426715	0.088366	1.955885
C58	C	0.760035	-0.890120	1.734429
C59	C	1.093368	-0.556786	2.067762
C60	C	1.426701	-0.223453	2.401095
C61	C	0.760087	-1.023519	1.734532
C62	C	1.093420	-0.690186	2.067866
C63	C	1.426753	-0.356853	2.401199
C64	C	1.171517	-0.578297	1.734434
C65	C	1.504851	-0.244963	2.067768
C66	C	1.838184	0.088370	2.401101
C67	C	1.350161	-0.578309	1.734437
C68	C	1.683495	-0.244976	2.067770
C69	C	2.016828	0.088357	2.401104
C70	C	0.760056	-0.578312	2.047485
C71	C	1.093389	-0.244979	2.380819
C72	C	1.426723	0.088355	2.714152
C73	C	0.760064	-0.578319	2.180885
C74	C	1.093398	-0.244986	2.514219
C75	C	1.426731	0.088347	2.847552
C76	C	0.760074	-0.265253	1.734490
C77	C	1.093407	0.068081	2.067824
C78	C	1.426741	0.401414	2.401157
C79	C	0.760090	-0.131853	1.734510
C80	C	1.093423	0.201481	2.067844
C81	C	1.426756	0.534814	2.401177
