data_functionalizedCrystal
_audit_creation_method	'MofGen! by Chris Wilmer'
_symmetry_space_group_name_H-M	'P1'
_symmetry_Int_Tables_number	1
_symmetry_cell_setting	triclinic
loop_
_symmetry_equiv_pos_as_xyz
  x,y,z
_cell_length_a	19.288864
_cell_length_b	12.996460
_cell_length_c	19.288865
_cell_angle_alpha	90.005525
_cell_angle_beta	83.136245
_cell_angle_gamma	90.020041
loop_
_atom_site_label
_atom_site_type_symbol
_atom_site_fract_x
_atom_site_fract_y
_atom_site_fract_z
O1	O	0.921351	0.085909	0.086643
O2	O	1.254684	0.419242	0.419976
O3	O	1.588017	0.752575	0.753310
O4	O	0.719090	0.085840	0.098332
O5	O	1.052423	0.419173	0.431665
O6	O	1.385757	0.752506	0.764998
O7	O	0.826065	0.085856	-0.008643
O8	O	1.159398	0.419189	0.324690
O9	O	1.492731	0.752522	0.658024
O10	O	0.814376	0.085893	0.193618
O11	O	1.147709	0.419226	0.526951
O12	O	1.481043	0.752559	0.860284
O13	O	0.826051	-0.085278	-0.008637
O14	O	1.159384	0.248055	0.324697
O15	O	1.492718	0.581389	0.658030
O16	O	0.719076	-0.085294	0.098338
O17	O	1.052410	0.248039	0.431671
O18	O	1.385743	0.581373	0.765005
O19	O	0.921337	-0.085225	0.086649
O20	O	1.254670	0.248108	0.419982
O21	O	1.588003	0.581441	0.753316
Cu22	Cu	0.820205	-0.100886	0.092494
Cu23	Cu	1.153539	0.232448	0.425827
Cu24	Cu	1.486872	0.565781	0.759161
Cu25	Cu	0.820222	0.101500	0.092487
Cu26	Cu	1.153555	0.434833	0.425820
Cu27	Cu	1.486888	0.768167	0.759153
O28	O	0.814362	-0.085241	0.193624
O29	O	1.147695	0.248092	0.526957
O30	O	1.481029	0.581425	0.860290
C31	C	0.693207	0.000264	0.097959
C32	C	1.026540	0.333597	0.431292
C33	C	1.359873	0.666930	0.764625
C34	C	0.616103	0.000237	0.096830
C35	C	0.949436	0.333570	0.430163
C36	C	1.282770	0.666903	0.763496
N37	N	0.820199	-0.243233	0.092499
N38	N	1.153532	0.090101	0.425832
N39	N	1.486866	0.423434	0.759165
C40	C	0.571407	0.000264	0.159598
C41	C	0.904740	0.333598	0.492931
C42	C	1.238073	0.666931	0.826264
C43	C	0.498960	0.000275	0.158537
C44	C	0.832293	0.333609	0.491870
C45	C	1.165626	0.666942	0.825204
C46	C	0.471212	0.000280	0.094705
C47	C	0.804545	0.333613	0.428038
C48	C	1.137879	0.666946	0.761371
C49	C	0.515918	0.000246	0.031929
C50	C	0.849252	0.333580	0.365262
C51	C	1.182585	0.666913	0.698595
C52	C	0.588364	0.000225	0.032991
C53	C	0.921697	0.333558	0.366324
C54	C	1.255030	0.666891	0.699658
C55	C	0.362955	0.060261	0.044523
C56	C	0.696288	0.393594	0.377857
C57	C	1.029622	0.726927	0.711190
C58	C	0.290510	0.060289	0.043464
C59	C	0.623844	0.393622	0.376797
C60	C	0.957177	0.726955	0.710130
C61	C	0.247767	0.000341	0.091425
C62	C	0.581100	0.333675	0.424758
C63	C	0.914433	0.667008	0.758092
C64	C	0.277474	-0.059621	0.140458
C65	C	0.610808	0.273713	0.473792
C66	C	0.944141	0.607046	0.807125
C67	C	0.349920	-0.059642	0.141521
C68	C	0.683253	0.273691	0.474854
C69	C	1.016587	0.607024	0.808187
C70	C	0.392658	0.000302	0.093546
C71	C	0.725991	0.333636	0.426879
C72	C	1.059325	0.666969	0.760212
C73	C	0.124514	0.000380	0.153047
C74	C	0.457848	0.333713	0.486381
C75	C	0.791181	0.667046	0.819714
C76	C	0.052066	0.000384	0.151984
C77	C	0.385400	0.333718	0.485317
C78	C	0.718733	0.667051	0.818651
C79	C	0.069026	0.000366	0.025374
C80	C	0.402360	0.333699	0.358707
C81	C	0.735693	0.667032	0.692040
C82	C	0.141473	0.000350	0.026439
C83	C	0.474806	0.333684	0.359772
C84	C	0.808140	0.667017	0.693106
C85	C	0.169212	0.000362	0.090278
C86	C	0.502546	0.333696	0.423611
C87	C	0.835879	0.667029	0.756944
C88	C	0.820202	-0.336339	0.092501
C89	C	1.153535	-0.003005	0.425834
C90	C	1.486869	0.330328	0.759167
C91	C	0.820208	-0.453144	0.092496
C92	C	1.153542	-0.119810	0.425829
C93	C	1.486875	0.213523	0.759163
C94	C	0.820217	-0.546242	0.092488
C95	C	1.153551	-0.212909	0.425821
C96	C	1.486884	0.120425	0.759155
C97	C	0.820225	-0.663055	0.092484
C98	C	1.153558	-0.329721	0.425818
C99	C	1.486891	0.003612	0.759151
C100	C	0.947220	0.000353	0.087022
C101	C	1.280553	0.333686	0.420355
C102	C	1.613887	0.667020	0.753689
C103	C	1.024324	0.000387	0.088151
C104	C	1.357657	0.333720	0.421484
C105	C	1.690990	0.667054	0.754818
C106	C	0.825682	0.000286	-0.034516
C107	C	1.159015	0.333619	0.298817
C108	C	1.492348	0.666952	0.632150
C109	C	0.824553	0.000276	-0.111620
C110	C	1.157886	0.333610	0.221713
C111	C	1.491219	0.666943	0.555047
N112	N	0.820233	0.243847	0.092476
N113	N	1.153567	0.577180	0.425810
N114	N	1.486900	0.910514	0.759143
C115	C	0.887321	0.000293	-0.156316
C116	C	1.220654	0.333626	0.177017
C117	C	1.553987	0.666959	0.510350
C118	C	0.886260	0.000308	-0.228763
C119	C	1.219593	0.333642	0.104570
C120	C	1.552927	0.666975	0.437903
C121	C	0.822428	0.000287	-0.256511
C122	C	1.155761	0.333621	0.076822
C123	C	1.489094	0.666954	0.410156
C124	C	0.759652	0.000277	-0.211805
C125	C	1.092985	0.333610	0.121529
C126	C	1.426318	0.666944	0.454862
C127	C	0.760714	0.000271	-0.139359
C128	C	1.094047	0.333605	0.193974
C129	C	1.427381	0.666938	0.527307
C130	C	0.772243	-0.059674	-0.364796
C131	C	1.105577	0.273659	-0.031463
C132	C	1.438910	0.606992	0.301871
C133	C	0.771184	-0.059675	-0.437241
C134	C	1.104517	0.273658	-0.103907
C135	C	1.437850	0.606992	0.229426
C136	C	0.819148	0.000309	-0.479956
C137	C	1.152481	0.333643	-0.146623
C138	C	1.485815	0.666976	0.186710
C139	C	0.868184	0.060281	-0.450221
C140	C	1.201518	0.393614	-0.116887
C141	C	1.534851	0.726948	0.216446
C142	C	0.869247	0.060275	-0.377775
C143	C	1.202580	0.393609	-0.044442
C144	C	1.535913	0.726942	0.288892
C145	C	0.821269	0.000294	-0.335065
C146	C	1.154602	0.333627	-0.001732
C147	C	1.487935	0.666961	0.331602
C148	C	0.880770	0.000344	-0.603209
C149	C	1.214104	0.333678	-0.269875
C150	C	1.547437	0.667011	0.063458
C151	C	0.879707	0.000367	-0.675657
C152	C	1.213040	0.333700	-0.342323
C153	C	1.546374	0.667033	-0.008990
C154	C	0.753097	0.000325	-0.658697
C155	C	1.086430	0.333658	-0.325363
C156	C	1.419763	0.666991	0.007970
C157	C	0.754162	0.000313	-0.586250
C158	C	1.087495	0.333646	-0.252917
C159	C	1.420829	0.666979	0.080417
C160	C	0.818001	0.000318	-0.558511
C161	C	1.151334	0.333651	-0.225177
C162	C	1.484667	0.666984	0.108156
C163	C	0.814745	0.000331	0.219497
C164	C	1.148078	0.333664	0.552830
C165	C	1.481412	0.666998	0.886164
C166	C	0.815874	0.000347	0.296601
C167	C	1.149207	0.333681	0.629934
C168	C	1.482541	0.667014	0.963267
H169	H	0.593987	0.000276	0.211580
H170	H	0.927320	0.333609	0.544913
H171	H	1.260654	0.666943	0.878247
H172	H	0.939303	0.000300	-0.133736
H173	H	1.272636	0.333633	0.199597
H174	H	1.605970	0.666967	0.532931
H175	H	0.177866	0.000334	-0.024674
H176	H	0.511199	0.333667	0.308660
H177	H	0.844533	0.667000	0.641993
H178	H	0.909172	0.109108	-0.353567
H179	H	1.242506	0.442442	-0.020234
H180	H	1.575839	0.775775	0.313100
H181	H	0.015674	0.000401	0.203099
H182	H	0.349008	0.333734	0.536433
H183	H	0.682341	0.667068	0.869766
H184	H	0.930822	0.000386	-0.712049
H185	H	1.264156	0.333719	-0.378715
H186	H	1.597489	0.667052	-0.045382
H187	H	0.242673	-0.108436	0.179513
H188	H	0.576007	0.224897	0.512846
H189	H	0.909340	0.558230	0.846180
H190	H	0.046435	0.000433	-0.026600
H191	H	0.379769	0.333766	0.306734
H192	H	0.713102	0.667099	0.640067
H193	H	0.731252	-0.108501	-0.461445
H194	H	1.064586	0.224832	-0.128112
H195	H	1.397919	0.558165	0.205221
H196	H	0.709599	0.000258	-0.102967
H197	H	1.042932	0.333591	0.230367
H198	H	1.376266	0.666924	0.563700
H199	H	0.266328	0.109117	0.003541
H200	H	0.599661	0.442451	0.336874
H201	H	0.932995	0.775784	0.670207
H202	H	0.932751	0.000353	-0.580622
H203	H	1.266085	0.333686	-0.247289
H204	H	1.599418	0.667020	0.086044
H205	H	0.374105	-0.108469	0.181443
H206	H	0.707439	0.224865	0.514776
H207	H	1.040772	0.558198	0.848110
H208	H	0.397752	0.109083	0.005466
H209	H	0.731085	0.442417	0.338799
H210	H	1.064419	0.775750	0.672133
H211	H	0.462561	0.000295	0.209652
H212	H	0.795894	0.333628	0.542985
H213	H	1.129228	0.666962	0.876318
H214	H	0.907241	0.109126	-0.484999
H215	H	1.240575	0.442460	-0.151665
H216	H	1.573908	0.775793	0.181668
H217	H	0.147101	0.000374	0.205028
H218	H	0.480434	0.333707	0.538362
H219	H	0.813767	0.667041	0.871695
H220	H	0.493322	0.000264	-0.020044
H221	H	0.826655	0.333597	0.313289
H222	H	1.159988	0.666930	0.646623
H223	H	0.703049	0.000294	-0.549857
H224	H	1.036383	0.333627	-0.216524
H225	H	1.369716	0.666960	0.116810
H226	H	0.624756	0.000203	-0.018124
H227	H	0.958090	0.333536	0.315210
H228	H	1.291423	0.666869	0.648543
H229	H	0.937375	0.000326	-0.265162
H230	H	1.270708	0.333659	0.068171
H231	H	1.604041	0.666992	0.401505
H232	H	0.733183	-0.108526	-0.330022
H233	H	1.066516	0.224807	0.003312
H234	H	1.399850	0.558141	0.336645
H235	H	0.701123	0.000313	-0.681288
H236	H	1.034457	0.333646	-0.347954
H237	H	1.367790	0.666979	-0.014621
H238	H	0.707679	0.000262	-0.234401
H239	H	1.041012	0.333595	0.098932
H240	H	1.374346	0.666929	0.432265
