data_functionalizedCrystal
_audit_creation_method	'MofGen! by Chris Wilmer'
_symmetry_space_group_name_H-M	'P1'
_symmetry_Int_Tables_number	1
_symmetry_cell_setting	triclinic
loop_
_symmetry_equiv_pos_as_xyz
  x,y,z
_cell_length_a	15.944551
_cell_length_b	17.699077
_cell_length_c	16.776229
_cell_angle_alpha	89.993415
_cell_angle_beta	89.992397
_cell_angle_gamma	83.389657
loop_
_atom_site_label
_atom_site_type_symbol
_atom_site_fract_x
_atom_site_fract_y
_atom_site_fract_z
O1	O	0.106198	1.004263	-0.066279
O2	O	0.606198	1.504263	0.433721
O3	O	0.120023	0.783907	-0.066283
O4	O	0.620023	1.283907	0.433717
O5	O	-0.009177	0.900102	-0.066274
O6	O	0.490823	1.400102	0.433726
O7	O	0.235398	0.888068	-0.066289
O8	O	0.735398	1.388068	0.433711
O9	O	-0.009185	0.900087	0.066302
O10	O	0.490815	1.400087	0.566302
O11	O	0.120015	0.783892	0.066293
O12	O	0.620015	1.283892	0.566293
O13	O	0.106190	1.004247	0.066297
O14	O	0.606190	1.504247	0.566297
Zn15	Zn	0.113101	0.894067	0.087345
Zn16	Zn	0.613101	1.394067	0.587345
Zn17	Zn	0.113112	0.894087	-0.087331
Zn18	Zn	0.613112	1.394087	0.412669
O19	O	0.235390	0.888052	0.066288
O20	O	0.735390	1.388052	0.566288
C21	C	0.119524	0.755702	0.000004
C22	C	0.619524	1.255702	0.500004
C23	C	0.118041	0.671681	0.000003
C24	C	0.618041	1.171681	0.500003
C25	C	0.117337	0.632204	0.072271
C26	C	0.617337	1.132204	0.572271
C27	C	0.115930	0.553259	0.072272
C28	C	0.615930	1.053259	0.572272
C29	C	0.115232	0.513792	0.000004
C30	C	0.615232	1.013792	0.500004
C31	C	0.115933	0.553274	-0.072270
C32	C	0.615933	1.053274	0.427730
C33	C	0.117334	0.632219	-0.072270
C34	C	0.617334	1.132219	0.427730
C35	C	0.110280	0.234902	-0.072271
C36	C	0.610280	0.734902	0.427729
C37	C	0.108882	0.155951	-0.072265
C38	C	0.608882	0.655951	0.427735
C39	C	0.108876	0.155942	0.072271
C40	C	0.608876	0.655942	0.572271
C41	C	0.110277	0.234886	0.072271
C42	C	0.610277	0.734886	0.572271
C43	C	0.110974	0.274362	-0.000002
C44	C	0.610974	0.774362	0.499998
C45	C	0.112498	0.359964	-0.000002
C46	C	0.612498	0.859964	0.499998
C47	C	0.113714	0.428191	0.000003
C48	C	0.613714	0.928191	0.500003
C49	C	-0.040474	0.899595	0.000014
C50	C	0.459526	1.399595	0.500014
C51	C	-0.133717	0.898097	0.000015
C52	C	0.366283	1.398097	0.500015
C53	C	-0.348413	0.822494	0.000002
C54	C	0.151587	1.322494	0.500002
C55	C	-0.409509	0.857594	0.065371
C56	C	0.090491	1.357594	0.565371
C57	C	-0.304437	0.895388	0.000009
C58	C	0.195563	1.395388	0.500009
C59	C	-0.409484	0.857626	-0.065339
C60	C	0.090516	1.357626	0.434661
C61	C	-0.469344	0.892765	-0.000001
C62	C	0.030656	1.392765	0.499999
C63	C	-0.364305	0.930508	0.065431
C64	C	0.135695	1.430508	0.565431
C65	C	-0.364274	0.930530	-0.065337
C66	C	0.135726	1.430530	0.434663
C67	C	-0.425352	0.965683	0.000048
C68	C	0.074648	1.465683	0.500048
C69	C	-0.209438	0.896896	0.000015
C70	C	0.290562	1.396896	0.500015
C71	C	-0.564342	0.891261	-0.000001
C72	C	-0.064342	1.391261	0.499999
C73	C	0.266687	0.888559	-0.000002
C74	C	0.766687	1.388559	0.499998
C75	C	0.359930	0.890057	-0.000008
C76	C	0.859930	1.390057	0.499992
C77	C	0.106689	1.032453	0.000008
C78	C	0.606689	1.532453	0.500008
C79	C	0.108172	1.116474	0.000004
C80	C	0.608172	1.616474	0.500004
N81	N	0.113094	0.894059	0.206556
N82	N	0.613094	1.394059	0.706556
N83	N	0.113113	0.894102	-0.206542
N84	N	0.613113	1.394102	0.293458
C85	C	0.055907	0.945526	0.248277
C86	C	0.555907	1.445526	0.748277
C87	C	0.055907	0.945530	0.331729
C88	C	0.555907	1.445530	0.831729
C89	C	0.113097	0.894070	0.373459
C90	C	0.613097	1.394070	0.873459
C91	C	0.170286	0.842598	0.331732
C92	C	0.670286	1.342598	0.831732
C93	C	0.170282	0.842591	0.248281
C94	C	0.670282	1.342591	0.748281
C95	C	0.170302	0.842625	0.668279
C96	C	0.670302	1.342625	1.168279
C97	C	0.170304	0.842638	0.751735
C98	C	0.670304	1.342638	1.251735
C99	C	0.055927	0.945564	0.751727
C100	C	0.555927	1.445564	1.251727
C101	C	0.055923	0.945557	0.668276
C102	C	0.555923	1.445557	1.168276
C103	C	0.113109	0.894083	0.626557
C104	C	0.613109	1.394083	1.126557
C105	C	0.113108	0.894078	0.536068
C106	C	0.613108	1.394078	1.036068
C107	C	0.113103	0.894078	0.463945
C108	C	0.613103	1.394078	0.963945
H109	H	0.110850	0.267016	0.131119
H110	H	0.610850	0.767016	0.631119
H111	H	0.108312	0.123820	-0.131118
H112	H	0.608312	0.623820	0.368882
H113	H	-0.344383	0.961306	0.120756
H114	H	0.155617	1.461306	0.620756
H115	H	0.108305	0.123791	0.131120
H116	H	0.608305	0.623791	0.631120
O117	O	0.225870	0.792701	0.207662
O118	O	0.725870	1.292701	0.707662
C119	C	0.277645	0.833226	0.159386
C120	C	0.777645	1.333226	0.659386
H121	H	0.244108	0.892448	0.146877
H122	H	0.744108	1.392448	0.646877
H123	H	0.290973	0.801631	0.100708
H124	H	0.790973	1.301631	0.600708
H125	H	0.339721	0.838370	0.191534
H126	H	0.839721	1.338370	0.691534
O127	O	-0.433482	0.820947	-0.131292
O128	O	0.066518	1.320947	0.368708
C129	C	-0.489462	0.871108	-0.176901
C130	C	0.010538	1.371108	0.323099
H131	H	-0.520535	0.918390	-0.136949
H132	H	-0.020535	1.418390	0.363051
H133	H	-0.540103	0.838571	-0.204136
H134	H	-0.040103	1.338571	0.295864
H135	H	-0.453016	0.896926	-0.226497
H136	H	0.046984	1.396926	0.273503
H137	H	-0.429555	0.826756	0.120634
H138	H	0.070445	1.326756	0.620634
H139	H	0.216849	0.800695	0.365712
H140	H	0.716849	1.300695	0.865712
H141	H	0.009360	0.987476	0.785704
H142	H	0.509360	1.487476	1.285704
H143	H	0.009340	0.987433	0.214306
H144	H	0.509340	1.487433	0.714306
O145	O	0.225936	0.792600	0.627883
O146	O	0.725936	1.292600	1.127883
C147	C	0.276400	0.747175	0.682612
C148	C	0.776400	1.247175	1.182612
H149	H	0.277305	0.778214	0.742089
H150	H	0.777305	1.278214	1.242089
H151	H	0.343497	0.735625	0.658494
H152	H	0.843497	1.235625	1.158494
H153	H	0.249205	0.690954	0.691509
H154	H	0.749205	1.190954	1.191509
H155	H	0.117913	0.664332	0.131121
H156	H	0.617913	1.164332	0.631121
O157	O	0.000247	0.995502	0.372165
O158	O	0.500247	1.495502	0.872165
C159	C	-0.082892	0.983199	0.351803
C160	C	0.417108	1.483199	0.851803
H161	H	-0.082752	0.954015	0.291222
H162	H	0.417248	1.454015	0.791222
H163	H	-0.124326	1.040093	0.348934
H164	H	0.375674	1.540093	0.848934
H165	H	-0.108824	0.945542	0.398786
H166	H	0.391176	1.445542	0.898786
H167	H	0.110845	0.267034	-0.131121
H168	H	0.610845	0.767034	0.368879
O169	O	-0.465086	1.037920	-0.000066
O170	O	0.034914	1.537920	0.499934
C171	C	-0.515442	1.049481	-0.069043
C172	C	-0.015442	1.549481	0.430957
H173	H	-0.490323	1.007207	-0.117036
H174	H	0.009677	1.507207	0.382964
H175	H	-0.513345	1.109925	-0.091810
H176	H	-0.013345	1.609925	0.408190
H177	H	-0.583377	1.040663	-0.054059
H178	H	-0.083377	1.540663	0.445941
H179	H	0.216877	0.800730	0.785710
H180	H	0.716877	1.300730	1.285710
O181	O	-0.340347	0.967177	-0.131348
O182	O	0.159653	1.467177	0.368652
C183	C	-0.363116	0.928566	-0.200135
C184	C	0.136884	1.428566	0.299865
H185	H	-0.369751	0.866859	-0.184475
H186	H	0.130249	1.366859	0.315525
H187	H	-0.312191	0.930421	-0.247570
H188	H	0.187809	1.430421	0.252430
H189	H	-0.425816	0.957196	-0.223984
H190	H	0.074184	1.457196	0.276016
O191	O	0.000191	0.995469	0.627843
O192	O	0.500191	1.495469	1.127843
C193	C	-0.082893	0.983105	0.648362
C194	C	0.417107	1.483105	1.148362
H195	H	-0.083132	0.922491	0.671276
H196	H	0.416868	1.422491	1.171276
H197	H	-0.125148	0.991818	0.593545
H198	H	0.374852	1.491818	1.093545
H199	H	-0.107585	1.025009	0.696855
H200	H	0.392415	1.525009	1.196855
O201	O	0.115138	0.515013	0.142528
O202	O	0.615138	1.015013	0.642528
C203	C	0.042752	0.542868	0.186489
C204	C	0.542752	1.042868	0.686489
H205	H	0.019529	0.603045	0.165934
H206	H	0.519529	1.103045	0.665934
H207	H	0.059154	0.543642	0.252601
H208	H	0.559154	1.043642	0.752601
H209	H	-0.008960	0.504443	0.176483
H210	H	0.491040	1.004443	0.676483
O211	O	0.115405	0.514885	-0.142450
O212	O	0.615405	1.014885	0.357550
C213	C	0.187304	0.460637	-0.146769
C214	C	0.687304	0.960637	0.353231
H215	H	0.238548	0.478435	-0.105761
H216	H	0.738548	0.978435	0.394239
H217	H	0.211701	0.456869	-0.210689
H218	H	0.711701	0.956869	0.289311
H219	H	0.169803	0.402743	-0.127349
H220	H	0.669803	0.902743	0.372651
O221	O	0.118059	0.670447	-0.142543
O222	O	0.618059	1.170447	0.357457
C223	C	0.117124	0.618688	-0.206330
C224	C	0.617124	1.118688	0.293670
H225	H	0.142705	0.559278	-0.185144
H226	H	0.642705	1.059278	0.314856
H227	H	0.158297	0.636697	-0.256876
H228	H	0.658297	1.136697	0.243124
H229	H	0.049616	0.618237	-0.228548
H230	H	0.549616	1.118237	0.271452
H231	H	-0.314976	0.761989	0.000066
H232	H	0.185024	1.261989	0.500066
