data_functionalizedCrystal
_audit_creation_method	'MofGen! by Chris Wilmer'
_symmetry_space_group_name_H-M	'P1'
_symmetry_Int_Tables_number	1
_symmetry_cell_setting	triclinic
loop_
_symmetry_equiv_pos_as_xyz
  x,y,z
_cell_length_a	8.597340
_cell_length_b	17.038272
_cell_length_c	7.681481
_cell_angle_alpha	96.157826
_cell_angle_beta	76.525094
_cell_angle_gamma	88.193829
loop_
_atom_site_label
_atom_site_type_symbol
_atom_site_fract_x
_atom_site_fract_y
_atom_site_fract_z
O1	O	2.114508	0.108124	-0.174378
O2	O	2.614508	0.608124	0.325622
O3	O	1.652136	0.120582	-0.104224
O4	O	2.152136	0.620582	0.395776
O5	O	1.880575	0.000537	-0.138898
O6	O	2.380575	0.500537	0.361102
O7	O	1.886069	0.228170	-0.139703
O8	O	2.386069	0.728170	0.360297
O9	O	1.908688	-0.014272	-0.436023
O10	O	2.408688	0.485728	0.063977
O11	O	1.680249	0.105773	-0.401348
O12	O	2.180249	0.605773	0.098652
O13	O	2.142620	0.093315	-0.471502
O14	O	2.642620	0.593315	0.028498
Zn15	Zn	1.915898	0.097193	-0.483600
Zn16	Zn	2.415898	0.597193	0.016400
Zn17	Zn	1.878858	0.116704	-0.092126
Zn18	Zn	2.378858	0.616704	0.407874
O19	O	1.914181	0.213361	-0.436828
O20	O	2.414181	0.713361	0.063172
C21	C	1.606739	0.112665	-0.243766
C22	C	2.106739	0.612665	0.256234
C23	C	1.429586	0.111127	-0.216887
C24	C	1.929586	0.611127	0.283113
C25	C	1.889633	-0.035996	-0.286702
C26	C	2.389633	0.464004	0.213298
C27	C	1.874719	-0.122791	-0.284438
C28	C	2.374719	0.377209	0.215562
C29	C	2.011645	-0.172891	-0.305215
C30	C	2.511645	0.327109	0.194785
C31	C	1.997621	-0.254442	-0.303071
C32	C	2.497621	0.245558	0.196929
C33	C	1.846670	-0.285892	-0.280162
C34	C	2.346670	0.214108	0.219838
C35	C	1.709734	-0.235785	-0.259378
C36	C	2.209734	0.264215	0.240622
C37	C	1.723758	-0.154235	-0.261510
C38	C	2.223758	0.345765	0.238490
C39	C	1.797124	-0.531654	-0.272620
C40	C	2.297124	-0.031654	0.227380
C41	C	1.783110	-0.613211	-0.270495
C42	C	2.283110	-0.113211	0.229505
C43	C	2.070998	-0.631862	-0.314185
C44	C	2.570998	-0.131862	0.185815
C45	C	2.085011	-0.550310	-0.316326
C46	C	2.585011	-0.050310	0.183674
C47	C	1.948073	-0.500210	-0.295532
C48	C	2.448073	-0.000210	0.204468
C49	C	1.832332	-0.369250	-0.277975
C50	C	2.332332	0.130750	0.222025
C51	C	1.962411	-0.416852	-0.297707
C52	C	2.462411	0.083148	0.202293
C53	C	2.188017	0.101233	-0.331957
C54	C	2.688017	0.601233	0.168043
C55	C	2.365168	0.102771	-0.358823
C56	C	2.865168	0.602771	0.141177
C57	C	1.905123	0.249894	-0.289021
C58	C	2.405123	0.749894	0.210979
C59	C	1.920036	0.336689	-0.291272
C60	C	2.420036	0.836689	0.208728
N61	N	1.941188	0.083876	-0.750773
N62	N	2.441188	0.583876	-0.250773
N63	N	1.853580	0.130015	0.175046
N64	N	2.353580	0.630015	0.675046
H65	H	1.445546	0.096788	-0.500910
H66	H	1.945546	0.596788	-0.000910
Br67	Br	1.704521	0.208511	-0.677000
Br68	Br	2.204521	0.708511	-0.177000
H69	H	2.030637	0.036786	-0.839556
H70	H	2.530637	0.536786	-0.339556
H71	H	1.349201	0.117105	-0.074791
H72	H	1.849201	0.617105	0.425209
H73	H	2.134566	-0.147292	-0.323881
H74	H	2.634566	0.352708	0.176119
H75	H	1.685619	-0.490871	-0.255689
H76	H	2.185619	0.009129	0.244311
H77	H	2.109121	-0.295232	-0.319994
H78	H	2.609121	0.204768	0.180006
H79	H	2.182484	-0.672662	-0.331110
H80	H	2.682484	-0.172662	0.168890
Br81	Br	2.289874	-0.507631	-0.347360
Br82	Br	2.789874	-0.007631	0.152640
H83	H	1.660185	-0.638815	-0.251868
H84	H	2.160185	-0.138815	0.248132
Br85	Br	1.504867	-0.278464	-0.228256
Br86	Br	2.004867	0.221536	0.271744
H87	H	1.612258	-0.113443	-0.244590
H88	H	2.112258	0.386557	0.255410
H89	H	2.085310	-0.391240	-0.316320
H90	H	2.585310	0.108760	0.183680
Br91	Br	1.627474	-0.411938	-0.246867
Br92	Br	2.127474	0.088062	0.253133
