data_functionalizedCrystal
_audit_creation_method	'MofGen! by Chris Wilmer'
_symmetry_space_group_name_H-M	'P1'
_symmetry_Int_Tables_number	1
_symmetry_cell_setting	triclinic
loop_
_symmetry_equiv_pos_as_xyz
  x,y,z
_cell_length_a	18.215407
_cell_length_b	21.295417
_cell_length_c	18.215399
_cell_angle_alpha	90.032152
_cell_angle_beta	90.019833
_cell_angle_gamma	90.030955
loop_
_atom_site_label
_atom_site_type_symbol
_atom_site_fract_x
_atom_site_fract_y
_atom_site_fract_z
Zn1	Zn	1.125043	-0.250608	0.416094
Zn2	Zn	1.124940	-0.355879	0.293019
Zn3	Zn	1.001976	-0.250629	0.293042
Zn4	Zn	1.001930	-0.355844	0.416044
O5	O	1.063472	-0.303240	0.354550
O6	O	1.228014	-0.264579	0.399780
O7	O	1.108604	-0.341941	0.190038
O8	O	1.018364	-0.162537	0.309396
O9	O	1.227938	-0.341921	0.309357
O10	O	1.108781	-0.162521	0.399802
O11	O	1.018263	-0.264614	0.190054
O12	O	0.898985	-0.264580	0.309347
O13	O	1.018285	-0.341861	0.519035
O14	O	0.898951	-0.341881	0.399716
O15	O	1.108736	-0.264545	0.519072
O16	O	1.108559	-0.443964	0.309308
O17	O	1.018184	-0.443938	0.399694
C18	C	0.872266	-0.303229	0.354529
C19	C	0.790467	-0.303240	0.354537
C20	C	0.602275	-0.343554	0.401533
C21	C	0.525416	-0.343556	0.401542
C22	C	0.525422	-0.262938	0.307582
C23	C	0.602279	-0.262933	0.307577
C24	C	0.640703	-0.303245	0.354552
C25	C	0.486987	-0.303251	0.354566
C26	C	0.403654	-0.303253	0.354575
C27	C	0.724042	-0.303242	0.354543
C28	C	1.063376	-0.466792	0.354509
C29	C	1.063402	-0.536760	0.354516
C30	C	1.110502	-0.569619	0.307500
C31	C	1.110536	-0.635361	0.307517
C32	C	1.063457	-0.668242	0.354542
C33	C	1.016354	-0.635375	0.401566
C34	C	1.016326	-0.569634	0.401554
N35	N	0.999079	-0.771508	0.360145
N36	N	0.999107	-0.833960	0.360153
C37	C	1.063540	-0.866317	0.354584
N38	N	1.127944	-0.833863	0.348993
N39	N	1.127915	-0.771406	0.348981
C40	C	1.063483	-0.739528	0.354561
C41	C	1.110681	-0.970462	0.307584
C42	C	1.110717	-1.036205	0.307605
C43	C	1.016528	-1.036218	0.401651
C44	C	1.016499	-0.970475	0.401633
C45	C	1.063575	-0.937601	0.354595
C46	C	1.255425	-0.303251	0.354571
C47	C	1.337224	-0.303256	0.354581
C48	C	1.063517	-0.303197	0.546503
C49	C	1.063536	-0.303178	0.628302
C50	C	1.063589	-0.139050	0.354607
C51	C	1.063639	-0.069082	0.354631
C52	C	1.063470	-0.303238	0.163344
C53	C	1.063593	-0.303079	0.081545
C54	C	1.110651	-0.262882	0.816516
C55	C	1.110660	-0.262863	0.893375
C56	C	1.016473	-0.343377	0.893325
C57	C	1.016461	-0.343392	0.816468
C58	C	1.063554	-0.303145	0.778065
C59	C	1.063575	-0.303112	0.931781
C60	C	1.063584	-0.303093	1.015115
C61	C	1.063544	-0.303164	0.694726
H62	H	0.494130	-0.376379	0.439801
O63	O	1.156375	-0.938591	0.261797
C64	C	1.192130	-0.918497	0.136639
C65	C	1.140349	-0.954639	0.188410
H66	H	1.179181	-0.931449	0.077295
H67	H	1.251483	-0.931376	0.149559
H68	H	1.184025	-0.865869	0.144741
H69	H	1.148388	-1.007276	0.180337
H70	H	1.081015	-0.941708	0.175477
O71	O	1.156363	-0.223840	0.779098
C72	C	1.198049	-0.188143	0.660719
C73	C	1.146258	-0.232404	0.703000
H74	H	1.189886	-0.195042	0.599186
H75	H	1.257403	-0.199192	0.675781
H76	H	1.185163	-0.137390	0.675895
H77	H	1.159078	-0.283172	0.687846
H78	H	1.086919	-0.221302	0.687934
O79	O	1.156604	-1.068029	0.261970
C80	C	1.281847	-1.088004	0.226425
C81	C	1.229944	-1.051932	0.278140
H82	H	1.341154	-1.075013	0.239489
H83	H	1.269019	-1.075103	0.167058
H84	H	1.273789	-1.140644	0.234474
H85	H	1.237973	-0.999284	0.270156
H86	H	1.242785	-1.064885	0.337487
H87	H	0.633557	-0.376377	0.439785
O88	O	1.156480	-0.223733	0.930612
C89	C	1.249870	-0.143852	0.922545
C90	C	1.198027	-0.188148	0.880284
H91	H	1.283463	-0.115060	0.881874
H92	H	1.288385	-0.172716	0.958506
H93	H	1.216099	-0.110953	0.958552
H94	H	1.231739	-0.221055	0.844237
H95	H	1.159510	-0.159245	0.844370
H96	H	0.978199	-1.062989	0.439942
H97	H	0.633569	-0.230104	0.269319
H98	H	0.494127	-0.230118	0.269336
O99	O	0.970812	-0.382538	0.779030
C100	C	0.960846	-0.467564	0.692248
C101	C	1.012624	-0.423266	0.734587
H102	H	0.994631	-0.500513	0.656318
H103	H	0.922392	-0.438701	0.656221
H104	H	0.927177	-0.496302	0.732910
H105	H	1.046341	-0.394519	0.693979
H106	H	1.051030	-0.452165	0.770626
H107	H	0.978143	-0.943720	0.439914
O108	O	0.970839	-0.382541	0.930665
C109	C	0.960896	-0.467488	1.017437
C110	C	1.012659	-0.423182	0.975185
H111	H	0.994686	-0.500349	1.053454
H112	H	0.927243	-0.496313	0.976785
H113	H	0.922426	-0.438566	1.053392
H114	H	1.051173	-0.452056	0.939229
H115	H	1.046260	-0.394354	1.015877
O116	O	1.156306	-0.537784	0.261794
C117	C	1.249701	-0.544712	0.168489
C118	C	1.197875	-0.580845	0.220223
H119	H	1.283312	-0.579512	0.134854
H120	H	1.288200	-0.513903	0.202273
H121	H	1.215915	-0.513964	0.130002
H122	H	1.231602	-0.611628	0.258720
H123	H	1.159374	-0.611615	0.186392
H124	H	0.978024	-0.662151	0.439855
O125	O	1.156177	-0.667352	0.261790
C126	C	1.166116	-0.741580	0.162398
C127	C	1.114352	-0.705409	0.214159
H128	H	1.132320	-0.772347	0.123865
H129	H	1.204591	-0.772360	0.196160
H130	H	1.199763	-0.706771	0.128813
H131	H	1.080658	-0.740172	0.247755
H132	H	1.075926	-0.674620	0.180354
O133	O	0.970499	-0.537809	0.447248
C134	C	0.877117	-0.544759	0.540563
C135	C	0.928967	-0.580880	0.488841
H136	H	0.843536	-0.579566	0.574216
H137	H	0.838592	-0.514050	0.506769
H138	H	0.910882	-0.513911	0.579035
H139	H	0.895261	-0.611762	0.450360
H140	H	0.967495	-0.611549	0.522681
