data_functionalizedCrystal
_audit_creation_method	'MofGen! by Chris Wilmer'
_symmetry_space_group_name_H-M	'P1'
_symmetry_Int_Tables_number	1
_symmetry_cell_setting	triclinic
loop_
_symmetry_equiv_pos_as_xyz
  x,y,z
_cell_length_a	27.732048
_cell_length_b	26.210047
_cell_length_c	27.732048
_cell_angle_alpha	89.999521
_cell_angle_beta	97.357345
_cell_angle_gamma	90.003465
loop_
_atom_site_label
_atom_site_type_symbol
_atom_site_fract_x
_atom_site_fract_y
_atom_site_fract_z
O1	O	0.640931	0.042369	-0.057510
O2	O	0.974264	0.375702	0.275823
O3	O	1.307598	0.709035	0.609157
O4	O	0.500138	0.042385	-0.066256
O5	O	0.833471	0.375718	0.267078
O6	O	1.166804	0.709052	0.600411
O7	O	0.574907	0.042367	0.008514
O8	O	0.908240	0.375700	0.341847
O9	O	1.241574	0.709033	0.675181
O10	O	0.566162	0.042387	-0.132279
O11	O	0.899495	0.375720	0.201054
O12	O	1.232828	0.709054	0.534387
O13	O	0.574893	-0.042491	0.008502
O14	O	0.908226	0.290842	0.341836
O15	O	1.241559	0.624175	0.675169
O16	O	0.500123	-0.042473	-0.066267
O17	O	0.833457	0.290860	0.267066
O18	O	1.166790	0.624194	0.600399
O19	O	0.640917	-0.042489	-0.057522
O20	O	0.974250	0.290844	0.275812
O21	O	1.307583	0.624177	0.609145
Cu22	Cu	0.570519	-0.050229	-0.061896
Cu23	Cu	0.903852	0.283104	0.271438
Cu24	Cu	1.237185	0.616437	0.604771
Cu25	Cu	0.570536	0.050125	-0.061882
Cu26	Cu	0.903869	0.383458	0.271452
Cu27	Cu	1.237202	0.716792	0.604785
O28	O	0.566147	-0.042471	-0.132291
O29	O	0.899481	0.290862	0.201042
O30	O	1.232814	0.624196	0.534375
C31	C	0.482124	-0.000042	-0.066078
C32	C	0.815457	0.333291	0.267256
C33	C	1.148790	0.666624	0.600589
C34	C	0.428469	-0.000036	-0.065525
C35	C	0.761802	0.333297	0.267808
C36	C	1.095135	0.666630	0.601142
N37	N	0.570510	-0.120813	-0.061905
N38	N	0.903844	0.212520	0.271428
N39	N	1.237177	0.545853	0.604762
C40	C	0.089654	-0.000053	-0.106229
C41	C	0.422987	0.333281	0.227105
C42	C	0.756320	0.666614	0.560438
C43	C	-0.112006	-0.000057	-0.104178
C44	C	0.221327	0.333276	0.229156
C45	C	0.554661	0.666609	0.562489
O46	O	-0.143262	-0.000074	-0.141398
O47	O	0.190072	0.333259	0.191935
O48	O	0.523405	0.666592	0.525268
N49	N	-0.131130	-0.000063	-0.059843
N50	N	0.202204	0.333270	0.273491
N51	N	0.535537	0.666604	0.606824
C52	C	-0.099835	-0.000071	-0.016017
C53	C	0.233498	0.333263	0.317316
C54	C	0.566832	0.666596	0.650650
O55	O	-0.120728	-0.000081	0.021740
O56	O	0.212605	0.333253	0.355073
O57	O	0.545938	0.666586	0.688407
C58	C	0.101824	-0.000069	-0.018068
C59	C	0.435157	0.333264	0.315265
C60	C	0.768490	0.666597	0.648598
C61	C	0.120944	-0.000059	-0.062407
C62	C	0.454278	0.333275	0.270927
C63	C	0.787611	0.666608	0.604260
C64	C	0.108775	-0.000043	-0.150563
C65	C	0.442108	0.333291	0.182770
C66	C	0.775442	0.666624	0.516103
C67	C	0.159187	-0.000039	-0.151076
C68	C	0.492520	0.333295	0.182258
C69	C	0.825853	0.666628	0.515591
C70	C	0.190477	-0.000045	-0.107253
C71	C	0.523811	0.333289	0.226080
C72	C	0.857144	0.666622	0.559413
C73	C	0.171356	-0.000055	-0.062919
C74	C	0.504690	0.333279	0.270415
C75	C	0.838023	0.666612	0.603748
C76	C	0.133117	-0.000081	0.025757
C77	C	0.466451	0.333253	0.359090
C78	C	0.799784	0.666586	0.692423
C79	C	0.183535	-0.000082	0.025240
C80	C	0.516868	0.333252	0.358573
C81	C	0.850201	0.666585	0.691906
C82	C	0.202655	-0.000071	-0.019098
C83	C	0.535989	0.333262	0.314235
C84	C	0.869322	0.666596	0.647568
C85	C	0.253059	-0.000057	-0.019609
C86	C	0.586392	0.333276	0.313724
C87	C	0.919725	0.666610	0.647058
N88	N	0.272183	-0.000051	-0.063944
N89	N	0.605516	0.333282	0.269389
N90	N	0.938849	0.666615	0.602723
C91	C	0.240892	-0.000045	-0.107766
C92	C	0.574225	0.333288	0.225567
C93	C	0.907559	0.666621	0.558900
C94	C	-0.205709	-0.000070	-0.014943
C95	C	0.127624	0.333263	0.318390
C96	C	0.460957	0.666596	0.651724
C97	C	-0.256124	-0.000070	-0.014430
C98	C	0.077210	0.333264	0.318903
C99	C	0.410543	0.666597	0.652237
C100	C	-0.268291	-0.000057	-0.102591
C101	C	0.065042	0.333276	0.230742
C102	C	0.398376	0.666609	0.564076
C103	C	-0.217876	-0.000054	-0.103104
C104	C	0.115458	0.333279	0.230230
C105	C	0.448791	0.666612	0.563563
C106	C	-0.186585	-0.000065	-0.059278
C107	C	0.146748	0.333269	0.274055
C108	C	0.480081	0.666602	0.607388
C109	C	0.346761	-0.000036	-0.108839
C110	C	0.680094	0.333297	0.224495
C111	C	1.013428	0.666630	0.557828
C112	C	0.397178	-0.000030	-0.109347
C113	C	0.730511	0.333303	0.223986
C114	C	1.063845	0.666636	0.557319
C115	C	0.409341	-0.000045	-0.021186
C116	C	0.742674	0.333288	0.312147
C117	C	1.076008	0.666621	0.645480
C118	C	0.358929	-0.000049	-0.020678
C119	C	0.692262	0.333285	0.312656
C120	C	1.025595	0.666618	0.645989
C121	C	0.327639	-0.000046	-0.064508
C122	C	0.660973	0.333287	0.268825
C123	C	0.994306	0.666621	0.602159
O124	O	0.284343	-0.000046	0.017592
O125	O	0.617676	0.333287	0.350925
O126	O	0.951009	0.666621	0.684259
O127	O	0.261794	-0.000047	-0.145518
O128	O	0.595128	0.333287	0.187816
O129	O	0.928461	0.666620	0.521149
C130	C	0.039242	-0.000057	-0.105716
C131	C	0.372575	0.333277	0.227617
C132	C	0.705908	0.666610	0.560950
C133	C	0.020120	-0.000067	-0.061382
C134	C	0.353454	0.333267	0.271951
C135	C	0.686787	0.666600	0.605285
C136	C	0.051411	-0.000073	-0.017560
C137	C	0.384744	0.333260	0.315774
C138	C	0.718078	0.666594	0.649107
C139	C	-0.030294	-0.000066	-0.060869
C140	C	0.303039	0.333267	0.272464
C141	C	0.636373	0.666601	0.605798
C142	C	-0.061585	-0.000060	-0.104691
C143	C	0.271749	0.333273	0.228642
C144	C	0.605082	0.666607	0.561975
C145	C	-0.042461	-0.000054	-0.149026
C146	C	0.290872	0.333279	0.184307
C147	C	0.624206	0.666612	0.517640
C148	C	0.007951	-0.000050	-0.149539
C149	C	0.341284	0.333283	0.183795
C150	C	0.674618	0.666616	0.517128
C151	C	0.032287	-0.000078	0.026775
C152	C	0.365621	0.333255	0.360109
C153	C	0.698954	0.666588	0.693442
C154	C	-0.018125	-0.000082	0.027284
C155	C	0.315208	0.333251	0.360617
C156	C	0.648541	0.666585	0.693951
C157	C	-0.049416	-0.000076	-0.016538
C158	C	0.283917	0.333258	0.316795
C159	C	0.617251	0.666591	0.650129
C160	C	0.603640	-0.473336	-0.028781
C161	C	0.936974	-0.140002	0.304552
C162	C	1.270307	0.193331	0.637885
C163	C	0.603651	-0.686994	-0.028774
C164	C	0.936984	-0.353661	0.304559
C165	C	1.270318	-0.020327	0.637892
O166	O	0.631801	-0.714623	-0.000614
O167	O	0.965134	-0.381290	0.332720
O168	O	1.298467	-0.047956	0.666053
N169	N	0.570538	-0.713707	-0.061871
N170	N	0.903872	-0.380374	0.271462
N171	N	1.237205	-0.047041	0.604796
C172	C	0.537419	-0.687003	-0.094970
C173	C	0.870752	-0.353669	0.238364
C174	C	1.204085	-0.020336	0.571697
O175	O	0.509251	-0.714626	-0.123117
O176	O	0.842585	-0.381293	0.210216
O177	O	1.175918	-0.047960	0.543550
C178	C	0.537406	-0.473345	-0.094974
C179	C	0.870739	-0.140012	0.238360
C180	C	1.204073	0.193322	0.571693
C181	C	0.570524	-0.446635	-0.061878
C182	C	0.903857	-0.113301	0.271455
C183	C	1.237191	0.220032	0.604788
C184	C	0.636755	-0.446625	0.004312
C185	C	0.970088	-0.113292	0.337645
C186	C	1.303422	0.220042	0.670979
C187	C	0.636754	-0.393214	0.004308
C188	C	0.970087	-0.059880	0.337642
C189	C	1.303421	0.273453	0.670975
C190	C	0.603638	-0.366513	-0.028789
C191	C	0.936971	-0.033179	0.304545
C192	C	1.270304	0.300154	0.637878
C193	C	0.570523	-0.393223	-0.061882
C194	C	0.903856	-0.059890	0.271451
C195	C	1.237189	0.273444	0.604785
C196	C	0.504284	-0.446641	-0.128070
C197	C	0.837618	-0.113308	0.205264
C198	C	1.170951	0.220025	0.538597
C199	C	0.504283	-0.393223	-0.128067
C200	C	0.837617	-0.059890	0.205266
C201	C	1.170950	0.273443	0.538600
C202	C	0.537401	-0.366513	-0.094971
C203	C	0.870735	-0.033180	0.238362
C204	C	1.204068	0.300154	0.571695
C205	C	0.537405	-0.313111	-0.094983
C206	C	0.870739	0.020223	0.238351
C207	C	1.204072	0.353556	0.571684
N208	N	0.570518	-0.286397	-0.061886
N209	N	0.903851	0.046936	0.271447
N210	N	1.237185	0.380269	0.604781
C211	C	0.603634	-0.313098	-0.028789
C212	C	0.936967	0.020235	0.304544
C213	C	1.270301	0.353568	0.637878
C214	C	0.537428	-0.799176	-0.094966
C215	C	0.870762	-0.465843	0.238368
C216	C	1.204095	-0.132509	0.571701
C217	C	0.537432	-0.852590	-0.094965
C218	C	0.870765	-0.519257	0.238368
C219	C	1.204099	-0.185923	0.571701
C220	C	0.603664	-0.852578	-0.028769
C221	C	0.936997	-0.519245	0.304564
C222	C	1.270330	-0.185911	0.637897
C223	C	0.603662	-0.799163	-0.028773
C224	C	0.936995	-0.465829	0.304561
C225	C	1.270329	-0.132496	0.637894
C226	C	0.570541	-0.772463	-0.061869
C227	C	0.903874	-0.439129	0.271464
C228	C	1.237207	-0.105796	0.604798
C229	C	0.603629	-0.200931	-0.028800
C230	C	0.936963	0.132403	0.304533
C231	C	1.270296	0.465736	0.637867
C232	C	0.603626	-0.147514	-0.028808
C233	C	0.936960	0.185819	0.304525
C234	C	1.270293	0.519152	0.637859
C235	C	0.537393	-0.147531	-0.095002
C236	C	0.870726	0.185802	0.238331
C237	C	1.204060	0.519135	0.571665
C238	C	0.537397	-0.200943	-0.094996
C239	C	0.870731	0.132391	0.238338
C240	C	1.204064	0.465724	0.571671
C241	C	0.570517	-0.227641	-0.061891
C242	C	0.903851	0.105692	0.271443
C243	C	1.237184	0.439026	0.604776
O244	O	0.509267	-0.285449	-0.123125
O245	O	0.842600	0.047884	0.210208
O246	O	1.175933	0.381218	0.543542
O247	O	0.631790	-0.285466	-0.000639
O248	O	0.965123	0.047868	0.332694
O249	O	1.298457	0.381201	0.666028
C250	C	0.603641	-0.526747	-0.028777
C251	C	0.936975	-0.193414	0.304556
C252	C	1.270308	0.139920	0.637889
C253	C	0.570527	-0.553457	-0.061871
C254	C	0.903860	-0.220124	0.271463
C255	C	1.237193	0.113209	0.604796
C256	C	0.537410	-0.526756	-0.094968
C257	C	0.870744	-0.193423	0.238366
C258	C	1.204077	0.139910	0.571699
C259	C	0.570530	-0.606872	-0.061870
C260	C	0.903864	-0.273538	0.271463
C261	C	1.237197	0.059795	0.604796
C262	C	0.603646	-0.633573	-0.028773
C263	C	0.936980	-0.300239	0.304560
C264	C	1.270313	0.033094	0.637893
C265	C	0.636759	-0.606859	0.004323
C266	C	0.970092	-0.273526	0.337657
C267	C	1.303426	0.059807	0.670990
C268	C	0.636758	-0.553448	0.004320
C269	C	0.970091	-0.220115	0.337653
C270	C	1.303424	0.113219	0.670986
C271	C	0.504298	-0.553470	-0.128064
C272	C	0.837631	-0.220136	0.205269
C273	C	1.170965	0.113197	0.538602
C274	C	0.504302	-0.606881	-0.128058
C275	C	0.837635	-0.273548	0.205275
C276	C	1.170969	0.059786	0.538609
C277	C	0.537418	-0.633582	-0.094961
C278	C	0.870752	-0.300249	0.238372
C279	C	1.204085	0.033085	0.571706
C280	C	0.658931	-0.000061	-0.057699
C281	C	0.992264	0.333272	0.275634
C282	C	1.325598	0.666606	0.608967
C283	C	0.712586	-0.000064	-0.058252
C284	C	1.045919	0.333270	0.275081
C285	C	1.379252	0.666603	0.608414
C286	C	0.574716	-0.000064	0.026515
C287	C	0.908050	0.333269	0.359848
C288	C	1.241383	0.666603	0.693182
C289	C	0.574164	-0.000068	0.080170
C290	C	0.907497	0.333265	0.413503
C291	C	1.240830	0.666599	0.746837
N292	N	0.570548	0.120709	-0.061868
N293	N	0.903881	0.454042	0.271465
N294	N	1.237215	0.787376	0.604798
C295	C	0.566338	-0.000040	-0.150292
C296	C	0.899671	0.333294	0.183041
C297	C	1.233005	0.666627	0.516374
C298	C	0.566891	-0.000032	-0.203947
C299	C	0.900224	0.333301	0.129386
C300	C	1.233557	0.666635	0.462720
C301	C	0.614867	-0.000046	0.418985
C302	C	0.948201	0.333287	0.752318
C303	C	1.281534	0.666620	1.085652
C304	C	0.612816	-0.000039	0.620645
C305	C	0.946150	0.333294	0.953978
C306	C	1.279483	0.666628	1.287311
O307	O	0.650037	-0.000021	0.651900
O308	O	0.983370	0.333312	0.985234
O309	O	1.316704	0.666646	1.318567
N310	N	0.568481	-0.000034	0.639768
N311	N	0.901814	0.333299	0.973102
N312	N	1.235148	0.666632	1.306435
C313	C	0.524656	-0.000028	0.608474
C314	C	0.857989	0.333305	0.941807
C315	C	1.191322	0.666638	1.275140
O316	O	0.486899	-0.000019	0.629367
O317	O	0.820232	0.333314	0.962700
O318	O	1.153565	0.666648	1.296033
C319	C	0.526707	-0.000032	0.406815
C320	C	0.860040	0.333301	0.740148
C321	C	1.193374	0.666635	1.073482
C322	C	0.571045	-0.000042	0.387694
C323	C	0.904378	0.333291	0.721028
C324	C	1.237712	0.666625	1.054361
C325	C	0.659202	-0.000056	0.399864
C326	C	0.992535	0.333278	0.733197
C327	C	1.325868	0.666611	1.066530
C328	C	0.659714	-0.000060	0.349452
C329	C	0.993047	0.333273	0.682785
C330	C	1.326381	0.666606	1.016118
C331	C	0.615892	-0.000056	0.318161
C332	C	0.949225	0.333278	0.651494
C333	C	1.282559	0.666611	0.984828
C334	C	0.571557	-0.000046	0.337282
C335	C	0.904891	0.333287	0.670616
C336	C	1.238224	0.666620	1.003949
C337	C	0.482882	-0.000022	0.375521
C338	C	0.816215	0.333311	0.708855
C339	C	1.149549	0.666644	1.042188
C340	C	0.483399	-0.000022	0.325104
C341	C	0.816732	0.333311	0.658437
C342	C	1.150066	0.666645	0.991771
C343	C	0.527737	-0.000032	0.305983
C344	C	0.861070	0.333302	0.639317
C345	C	1.194404	0.666635	0.972650
C346	C	0.528247	-0.000046	0.255580
C347	C	0.861581	0.333287	0.588913
C348	C	1.194914	0.666620	0.922246
N349	N	0.572583	-0.000051	0.236456
N350	N	0.905916	0.333282	0.569789
N351	N	1.239249	0.666616	0.903123
C352	C	0.616405	-0.000056	0.267747
C353	C	0.949738	0.333278	0.601080
C354	C	1.283072	0.666611	0.934413
C355	C	0.523582	-0.000027	0.714348
C356	C	0.856915	0.333306	1.047681
C357	C	1.190248	0.666639	1.381014
C358	C	0.523069	-0.000027	0.764762
C359	C	0.856402	0.333306	1.098096
C360	C	1.189735	0.666639	1.431429
C361	C	0.611230	-0.000037	0.776930
C362	C	0.944563	0.333296	1.110263
C363	C	1.277896	0.666629	1.443596
C364	C	0.611742	-0.000041	0.726514
C365	C	0.945075	0.333292	1.059848
C366	C	1.278409	0.666626	1.393181
C367	C	0.567917	-0.000032	0.695224
C368	C	0.901250	0.333301	1.028557
C369	C	1.234583	0.666635	1.361891
C370	C	0.617477	-0.000066	0.161878
C371	C	0.950811	0.333267	0.495211
C372	C	1.284144	0.666601	0.828544
C373	C	0.617986	-0.000073	0.111461
C374	C	0.951319	0.333261	0.444794
C375	C	1.284652	0.666594	0.778127
C376	C	0.529825	-0.000060	0.099298
C377	C	0.863158	0.333273	0.432631
C378	C	1.196492	0.666607	0.765964
C379	C	0.529316	-0.000056	0.149710
C380	C	0.862650	0.333277	0.483043
C381	C	1.195983	0.666611	0.816377
C382	C	0.573147	-0.000057	0.180999
C383	C	0.906480	0.333276	0.514333
C384	C	1.239813	0.666609	0.847666
O385	O	0.491047	-0.000059	0.224296
O386	O	0.824380	0.333275	0.557629
O387	O	1.157713	0.666608	0.890962
O388	O	0.654156	-0.000054	0.246844
O389	O	0.987490	0.333280	0.580177
O390	O	1.320823	0.666613	0.913511
C391	C	0.614355	-0.000042	0.469397
C392	C	0.947688	0.333291	0.802730
C393	C	1.281022	0.666625	1.136064
C394	C	0.570021	-0.000033	0.488518
C395	C	0.903354	0.333301	0.821852
C396	C	1.236687	0.666634	1.155185
C397	C	0.526198	-0.000028	0.457228
C398	C	0.859532	0.333305	0.790561
C399	C	1.192865	0.666639	1.123894
C400	C	0.569508	-0.000033	0.538933
C401	C	0.902841	0.333301	0.872266
C402	C	1.236174	0.666634	1.205599
C403	C	0.613330	-0.000037	0.570223
C404	C	0.946663	0.333296	0.903557
C405	C	1.279996	0.666629	1.236890
C406	C	0.657665	-0.000042	0.551100
C407	C	0.990998	0.333291	0.884433
C408	C	1.324332	0.666625	1.217766
C409	C	0.658177	-0.000046	0.500688
C410	C	0.991511	0.333287	0.834021
C411	C	1.324844	0.666620	1.167354
C412	C	0.481863	-0.000023	0.476351
C413	C	0.815197	0.333310	0.809685
C414	C	1.148530	0.666643	1.143018
C415	C	0.481355	-0.000019	0.526764
C416	C	0.814688	0.333314	0.860097
C417	C	1.148021	0.666647	1.193430
C418	C	0.525177	-0.000024	0.558054
C419	C	0.858510	0.333309	0.891388
C420	C	1.191843	0.666643	1.224721
H421	H	0.412743	-0.000021	-0.145454
H422	H	0.746076	0.333312	0.187879
H423	H	1.079410	0.666645	0.521213
F424	F	0.442651	-0.000053	0.025450
F425	F	0.775985	0.333281	0.358783
F426	F	1.109318	0.666614	0.692116
F427	F	0.672006	-0.525027	0.039545
F428	F	1.005339	-0.191694	0.372878
F429	F	1.338673	0.141640	0.706211
F430	F	0.435219	-0.000017	0.443055
F431	F	0.768552	0.333316	0.776389
F432	F	1.101886	0.666650	1.109722
H433	H	0.694889	-0.000058	0.425336
H434	H	1.028223	0.333276	0.758670
H435	H	1.361556	0.666609	1.092003
F436	F	0.313468	-0.000034	-0.155488
F437	F	0.646801	0.333299	0.177846
F438	F	0.980134	0.666633	0.511179
F439	F	0.469029	-0.364811	-0.163293
F440	F	0.802362	-0.031477	0.170040
F441	F	1.135696	0.301856	0.503374
F442	F	0.179530	-0.000030	-0.198267
F443	F	0.512863	0.333304	0.135067
F444	F	0.846197	0.666637	0.468400
H445	H	0.654093	-0.000082	0.095896
H446	H	0.987426	0.333251	0.429229
H447	H	1.320759	0.666585	0.762562
H448	H	0.630629	-0.777418	-0.001823
H449	H	0.963962	-0.444085	0.331510
H450	H	1.297296	-0.110752	0.664844
H451	H	0.493213	-0.000062	0.165279
H452	H	0.826546	0.333271	0.498612
H453	H	1.159879	0.666604	0.831945
F454	F	0.434160	-0.000012	0.547107
F455	F	0.767494	0.333321	0.880441
F456	F	1.100827	0.666654	1.213774
H457	H	0.663725	-0.628608	0.031271
H458	H	0.997059	-0.295275	0.364604
H459	H	1.330392	0.038059	0.697937
F460	F	0.476933	-0.000018	0.681052
F461	F	0.810267	0.333315	1.014385
F462	F	1.143600	0.666649	1.347718
F463	F	0.469035	-0.475059	-0.163294
F464	F	0.802369	-0.141725	0.170040
F465	F	1.135702	0.191608	0.503373
H466	H	0.695819	-0.000066	0.333889
H467	H	1.029152	0.333267	0.667222
H468	H	1.362485	0.666600	1.000555
F469	F	-0.172413	-0.000081	0.031705
F470	F	0.160920	0.333253	0.365038
F471	F	0.494254	0.666586	0.698372
F472	F	0.436752	-0.000011	0.291805
F473	F	0.770086	0.333322	0.625138
F474	F	1.103419	0.666655	0.958472
F475	F	0.075480	-0.000036	-0.197209
F476	F	0.408813	0.333297	0.136124
F477	F	0.742146	0.666631	0.469458
F478	F	0.216833	-0.000094	0.071886
F479	F	0.550167	0.333239	0.405219
F480	F	0.883500	0.666573	0.738553
F481	F	-0.197531	-0.000044	-0.150294
F482	F	0.135803	0.333289	0.183040
F483	F	0.469136	0.666623	0.516373
F484	F	0.705368	-0.000054	0.480345
F485	F	1.038702	0.333279	0.813678
F486	F	1.372035	0.666613	1.147011
H487	H	-0.293777	-0.000053	-0.138273
H488	H	0.039557	0.333281	0.195061
H489	H	0.372890	0.666614	0.528394
H490	H	0.510432	-0.125783	-0.121951
H491	H	0.843765	0.207550	0.211383
H492	H	1.177098	0.540884	0.544716
H493	H	0.653168	-0.000065	0.187348
H494	H	0.986501	0.333269	0.520681
H495	H	1.319835	0.666602	0.854015
H496	H	0.646911	-0.000041	0.802415
H497	H	0.980245	0.333292	1.135749
H498	H	1.313578	0.666625	1.469082
F499	F	-0.276468	-0.000070	0.032761
F500	F	0.056866	0.333264	0.366094
F501	F	0.390199	0.666597	0.699427
F502	F	0.469053	-0.635303	-0.163288
F503	F	0.802387	-0.301970	0.170046
F504	F	1.135720	0.031364	0.503379
H505	H	0.117558	-0.000090	0.061861
H506	H	0.450892	0.333243	0.395195
H507	H	0.784225	0.666577	0.728528
F508	F	0.469049	-0.525058	-0.163292
F509	F	0.802383	-0.191725	0.170041
F510	F	1.135716	0.141608	0.503375
F511	F	0.338578	-0.000060	0.026511
F512	F	0.671911	0.333273	0.359845
F513	F	1.005245	0.666606	0.693178
H514	H	0.630629	-0.874327	-0.001821
H515	H	0.963962	-0.540994	0.331512
H516	H	1.297296	-0.207660	0.664845
F517	F	0.658932	-0.000051	0.706169
F518	F	0.992265	0.333282	1.039503
F519	F	1.325599	0.666615	1.372836
F520	F	0.502189	-0.881012	-0.130196
F521	F	0.835523	-0.547679	0.203137
F522	F	1.168856	-0.214345	0.536471
F523	F	0.502175	-0.770765	-0.130195
F524	F	0.835508	-0.437432	0.203139
F525	F	1.168842	-0.104098	0.536472
F526	F	0.483189	-0.000055	0.065987
F527	F	0.816522	0.333278	0.399321
F528	F	1.149855	0.666611	0.732654
F529	F	0.475878	-0.000026	0.785106
F530	F	0.809211	0.333307	1.118439
F531	F	1.142545	0.666641	1.451773
F532	F	0.028294	-0.000039	-0.196730
F533	F	0.361627	0.333294	0.136604
F534	F	0.694961	0.666627	0.469937
F535	F	0.502154	-0.229369	-0.130225
F536	F	0.835487	0.103964	0.203108
F537	F	1.168821	0.437298	0.536441
H538	H	0.057760	-0.000085	0.062462
H539	H	0.391093	0.333249	0.395795
H540	H	0.724427	0.666582	0.729128
F541	F	-0.075772	-0.000045	-0.195665
F542	F	0.257562	0.333288	0.137668
F543	F	0.590895	0.666621	0.471001
H544	H	0.446777	-0.000011	0.391080
H545	H	0.780111	0.333322	0.724414
H546	H	1.113444	0.666655	1.057747
H547	H	-0.033688	-0.000086	0.063392
H548	H	0.299645	0.333247	0.396725
H549	H	0.632979	0.666580	0.730059
F550	F	0.638877	-0.119090	0.006417
F551	F	0.972211	0.214244	0.339751
F552	F	1.305544	0.547577	0.673084
F553	F	0.704304	-0.000049	0.584410
F554	F	1.037637	0.333284	0.917744
F555	F	1.370970	0.666617	1.251077
H556	H	0.663720	-0.371469	0.031259
H557	H	0.997053	-0.038136	0.364592
H558	H	1.330387	0.295198	0.697925
F559	F	0.638879	-0.229337	0.006434
F560	F	0.972213	0.103996	0.339768
F561	F	1.305546	0.437329	0.673101
H562	H	0.663722	-0.468360	0.031266
H563	H	0.997056	-0.135027	0.364599
H564	H	1.330389	0.198306	0.697932
