data_functionalizedCrystal
_audit_creation_method	'MofGen! by Chris Wilmer'
_symmetry_space_group_name_H-M	'P1'
_symmetry_Int_Tables_number	1
_symmetry_cell_setting	triclinic
loop_
_symmetry_equiv_pos_as_xyz
  x,y,z
_cell_length_a	16.974829
_cell_length_b	16.992695
_cell_length_c	18.366186
_cell_angle_alpha	89.993794
_cell_angle_beta	86.335638
_cell_angle_gamma	87.025716
loop_
_atom_site_label
_atom_site_type_symbol
_atom_site_fract_x
_atom_site_fract_y
_atom_site_fract_z
O1	O	1.055472	0.099961	-0.122743
O2	O	1.555472	0.599961	0.377257
O3	O	0.826069	0.112683	-0.109227
O4	O	1.326069	0.612683	0.390773
O5	O	0.939851	-0.007820	-0.115925
O6	O	1.439851	0.492180	0.384075
O7	O	0.941690	0.220464	-0.116045
O8	O	1.441690	0.720464	0.383955
O9	O	0.939830	-0.007826	0.005175
O10	O	1.439830	0.492174	0.505175
O11	O	0.826048	0.112677	0.011873
O12	O	1.326048	0.612677	0.511873
O13	O	1.055451	0.099955	-0.001643
O14	O	1.555451	0.599955	0.498357
Zn15	Zn	0.940746	0.106315	0.024343
Zn16	Zn	1.440746	0.606315	0.524343
Zn17	Zn	0.940774	0.106323	-0.135213
Zn18	Zn	1.440774	0.606323	0.364787
O19	O	0.941669	0.220458	0.005055
O20	O	1.441669	0.720458	0.505055
C21	C	0.796569	0.112195	-0.046940
C22	C	1.296569	0.612195	0.453060
C23	C	0.708700	0.110740	-0.041762
C24	C	1.208700	0.610740	0.458238
C25	C	0.214088	0.102578	-0.005534
C26	C	0.714088	0.602578	0.494466
C27	C	0.296650	0.103945	-0.010400
C28	C	0.796650	0.603945	0.489600
C29	C	0.337943	0.104626	-0.078846
C30	C	0.837943	0.604626	0.421154
C31	C	0.296669	0.103948	-0.142431
C32	C	0.796669	0.603948	0.357569
C33	C	0.214108	0.102587	-0.137564
C34	C	0.714108	0.602587	0.362436
C35	C	0.584865	0.108701	-0.100480
C36	C	1.084865	0.608701	0.399520
C37	C	0.667432	0.110060	-0.105342
C38	C	1.167432	0.610060	0.394658
C39	C	0.667407	0.110059	0.026689
C40	C	1.167407	0.610059	0.526689
C41	C	0.584845	0.108693	0.031550
C42	C	1.084845	0.608693	0.531550
C43	C	0.543578	0.108019	-0.032035
C44	C	1.043578	0.608019	0.467965
N45	N	0.422335	0.106020	-0.083822
N46	N	0.922335	0.606020	0.416178
N47	N	0.459187	0.106630	-0.027058
N48	N	0.959187	0.606630	0.472942
C49	C	0.937474	-0.037033	-0.055236
C50	C	1.437474	0.462967	0.444764
C51	C	0.930415	-0.124069	-0.054820
C52	C	1.430415	0.375931	0.445180
C53	C	0.998531	-0.174381	-0.058832
C54	C	1.498531	0.325619	0.441168
C55	C	0.991893	-0.256161	-0.058448
C56	C	1.491893	0.243839	0.441552
C57	C	0.917138	-0.287627	-0.054046
C58	C	1.417138	0.212373	0.445954
C59	C	0.849017	-0.237309	-0.050036
C60	C	1.349017	0.262691	0.449964
C61	C	0.855656	-0.155531	-0.050425
C62	C	1.355656	0.344469	0.449575
C63	C	0.889623	-0.531196	-0.052435
C64	C	1.389623	-0.031196	0.447565
C65	C	0.882990	-0.612980	-0.052044
C66	C	1.382990	-0.112980	0.447956
C67	C	1.025866	-0.631827	-0.060458
C68	C	1.525866	-0.131827	0.439542
C69	C	1.032498	-0.550047	-0.060842
C70	C	1.532498	-0.050047	0.439158
C71	C	0.964377	-0.499735	-0.056836
C72	C	1.464377	0.000265	0.443164
N73	N	0.910351	-0.371219	-0.053651
N74	N	1.410351	0.128781	0.446349
N75	N	0.971165	-0.416145	-0.057236
N76	N	1.471165	0.083855	0.442764
C77	C	1.084951	0.100443	-0.063932
C78	C	1.584951	0.600443	0.436068
C79	C	1.172820	0.101898	-0.069114
C80	C	1.672820	0.601898	0.430886
N81	N	0.940733	0.106309	0.133235
N82	N	1.440733	0.606309	0.633235
C83	C	0.944046	0.249671	-0.055636
C84	C	1.444046	0.749671	0.444364
C85	C	0.951105	0.336708	-0.056056
C86	C	1.451105	0.836708	0.443944
N87	N	0.940793	0.106323	-0.244105
N88	N	1.440793	0.606323	0.255895
C89	C	0.991135	0.052977	0.168368
C90	C	1.491135	0.552977	0.668368
C91	C	0.991140	0.052974	0.244596
C92	C	1.491140	0.552974	0.744596
C93	C	0.940751	0.106316	0.285686
C94	C	1.440751	0.606316	0.785686
C95	C	0.890339	0.159652	0.250544
C96	C	1.390339	0.659652	0.750544
C97	C	0.890330	0.159649	0.174318
C98	C	1.390330	0.659649	0.674318
C99	C	0.934904	0.177733	0.406787
C100	C	1.434904	0.677733	0.906787
C101	C	0.934919	0.177737	0.483012
C102	C	1.434919	0.677737	0.983012
C103	C	0.940774	0.106326	0.520792
C104	C	1.440774	0.606326	1.020792
C105	C	0.946631	0.034907	0.482339
C106	C	1.446631	0.534907	0.982339
C107	C	0.946622	0.034903	0.406113
C108	C	1.446622	0.534903	0.906113
C109	C	0.940755	0.106325	0.368341
C110	C	1.440755	0.606325	0.868341
C111	C	0.991184	0.052985	0.638580
C112	C	1.491184	0.552985	1.138580
C113	C	0.991183	0.052981	0.714810
C114	C	1.491183	0.552981	1.214810
C115	C	0.890387	0.159666	0.720757
C116	C	1.390387	0.659666	1.220757
C117	C	0.890383	0.159664	0.644529
C118	C	1.390383	0.659664	1.144529
C119	C	0.940786	0.106324	0.603445
C120	C	1.440786	0.606324	1.103445
H121	H	0.701016	0.110609	0.078456
H122	H	1.201016	0.610609	0.578456
O123	O	0.544744	0.108178	-0.162224
O124	O	1.044744	0.608178	0.337776
C125	C	0.492315	0.175252	-0.163092
C126	C	0.992315	0.675252	0.336908
H127	H	0.513927	0.223102	-0.126908
H128	H	1.013927	0.723102	0.373092
H129	H	0.489833	0.198015	-0.221334
H130	H	0.989833	0.698015	0.278666
H131	H	0.430791	0.158878	-0.141737
H132	H	0.930791	0.658878	0.358263
H133	H	0.330296	0.104507	-0.198161
H134	H	0.830296	0.604507	0.301839
O135	O	0.789431	-0.106734	-0.046620
O136	O	1.289431	0.393266	0.453380
C137	C	0.744374	-0.120963	-0.106695
C138	C	1.244374	0.379037	0.393305
H139	H	0.759870	-0.183018	-0.128516
H140	H	1.259870	0.316982	0.371484
H141	H	0.678792	-0.115137	-0.088729
H142	H	1.178792	0.384863	0.411271
H143	H	0.758025	-0.076240	-0.151417
H144	H	1.258025	0.423760	0.348583
H145	H	1.059404	-0.148769	-0.062412
H146	H	1.559404	0.351231	0.437588
O147	O	1.039836	0.001024	0.128364
O148	O	1.539836	0.501024	0.628364
C149	C	1.028884	0.012325	0.053558
C150	C	1.528884	0.512325	0.553558
H151	H	1.003576	0.074770	0.044560
H152	H	1.503576	0.574770	0.544560
H153	H	1.088102	0.003186	0.020975
H154	H	1.588102	0.503186	0.520975
H155	H	0.986119	-0.031843	0.034648
H156	H	1.486119	0.468157	0.534648
O157	O	0.929191	0.247179	0.520251
O158	O	1.429191	0.747179	1.020251
C159	C	0.924029	0.310209	0.470562
C160	C	1.424029	0.810209	0.970562
H161	H	0.900931	0.288529	0.417596
H162	H	1.400931	0.788529	0.917596
H163	H	0.881892	0.359020	0.495074
H164	H	1.381892	0.859020	0.995074
H165	H	0.985088	0.334044	0.458836
H166	H	1.485088	0.834044	0.958836
O167	O	0.823474	-0.482301	-0.048669
O168	O	1.323474	0.017699	0.451331
C169	C	0.823053	-0.434415	-0.111354
C170	C	1.323053	0.065585	0.388646
H171	H	0.861603	-0.464399	-0.157461
H172	H	1.361603	0.035601	0.342539
H173	H	0.759950	-0.425158	-0.128689
H174	H	1.259950	0.074842	0.371311
H175	H	0.847265	-0.374966	-0.098602
H176	H	1.347265	0.125034	0.401398
O177	O	0.173972	0.102063	-0.199303
O178	O	0.673972	0.602063	0.300697
C179	C	0.121543	0.169137	-0.200159
C180	C	0.621543	0.669137	0.299841
H181	H	0.143163	0.216984	-0.163977
H182	H	0.643163	0.716984	0.336023
H183	H	0.119048	0.191905	-0.258399
H184	H	0.619048	0.691905	0.241601
H185	H	0.060022	0.152763	-0.178794
H186	H	0.560022	0.652763	0.321206
O187	O	1.040161	0.001092	0.598778
O188	O	1.540161	0.501092	1.098778
C189	C	1.084658	-0.045975	0.646137
C190	C	1.584658	0.454025	1.146137
H191	H	1.052191	-0.046845	0.702394
H192	H	1.552191	0.453155	1.202394
H193	H	1.092763	-0.108597	0.623640
H194	H	1.592763	0.391403	1.123640
H195	H	1.145000	-0.020546	0.650673
H196	H	1.645000	0.479454	1.150673
O197	O	1.058141	-0.304922	-0.062313
O198	O	1.558141	0.195078	0.437687
C199	C	1.125544	-0.259613	-0.066294
C200	C	1.625544	0.240387	0.433706
H201	H	1.109325	-0.198559	-0.042412
H202	H	1.609325	0.301441	0.457588
H203	H	1.173578	-0.289837	-0.033961
H204	H	1.673578	0.210163	0.466039
H205	H	1.148233	-0.253806	-0.125725
H206	H	1.648233	0.246194	0.374275
O207	O	1.092091	-0.680620	-0.064458
O208	O	1.592091	-0.180620	0.435542
C209	C	1.137170	-0.666374	-0.129842
C210	C	1.637170	-0.166374	0.370158
H211	H	1.121678	-0.604314	-0.149836
H212	H	1.621678	-0.104314	0.350164
H213	H	1.202747	-0.672199	-0.119603
H214	H	1.702747	-0.172199	0.380397
H215	H	1.123537	-0.711086	-0.172958
H216	H	1.623537	-0.211086	0.327042
O217	O	0.544635	0.108128	0.097995
O218	O	1.044635	0.608128	0.597995
C219	C	0.492222	0.175214	0.105040
C220	C	0.992222	0.675214	0.605040
H221	H	0.478316	0.197648	0.048545
H222	H	0.978316	0.697648	0.548545
H223	H	0.435207	0.158980	0.136329
H224	H	0.935207	0.658980	0.636329
H225	H	0.520760	0.223261	0.135944
H226	H	1.020760	0.723261	0.635944
O227	O	1.105074	-0.519394	-0.065218
O228	O	1.605074	-0.019394	0.434782
C229	C	1.113210	-0.472663	-0.128424
C230	C	1.613210	0.027337	0.371576
H231	H	1.052185	-0.452222	-0.145738
H232	H	1.552185	0.047778	0.354262
H233	H	1.148113	-0.419150	-0.116374
H234	H	1.648113	0.080850	0.383626
H235	H	1.145910	-0.508828	-0.174269
H236	H	1.645910	-0.008828	0.325731
O237	O	0.707420	0.110766	-0.171892
O238	O	1.207420	0.610766	0.328108
C239	C	0.653295	0.109866	-0.226971
C240	C	1.153295	0.609866	0.273029
H241	H	0.592734	0.133700	-0.204051
H242	H	1.092734	0.633700	0.295949
H243	H	0.674546	0.148316	-0.274387
H244	H	1.174546	0.648316	0.225613
H245	H	0.648839	0.046855	-0.247012
H246	H	1.148839	0.546855	0.252988
O247	O	0.841316	0.211498	0.290348
O248	O	1.341316	0.711498	0.790348
C249	C	0.796840	0.258585	0.242987
C250	C	1.296840	0.758585	0.742987
H251	H	0.793913	0.226437	0.188828
H252	H	1.293913	0.726437	0.688828
H253	H	0.734457	0.270573	0.268702
H254	H	1.234457	0.770573	0.768702
H255	H	0.826184	0.316820	0.233135
H256	H	1.326184	0.816820	0.733135
O257	O	0.810308	-0.643417	-0.047804
O258	O	1.310308	-0.143417	0.452196
C259	C	0.751605	-0.581476	-0.044336
C260	C	1.251605	-0.081476	0.455664
H261	H	0.777283	-0.525940	-0.068772
H262	H	1.277283	-0.025940	0.431228
H263	H	0.699739	-0.598513	-0.076447
H264	H	1.199739	-0.098513	0.423553
H265	H	0.730325	-0.569888	0.015012
H266	H	1.230325	-0.069888	0.515012
H267	H	0.788150	-0.262935	-0.046456
H268	H	1.288150	0.237065	0.453544
H269	H	0.849286	0.203079	0.145713
H270	H	1.349286	0.703079	0.645713
H271	H	1.032185	0.009542	0.273206
H272	H	1.532185	0.509542	0.773206
H273	H	0.951389	-0.023248	0.374807
H274	H	1.451389	0.476752	0.874807
H275	H	0.951399	-0.023244	0.513098
H276	H	1.451399	0.476756	1.013098
O277	O	1.040033	0.001092	0.748978
O278	O	1.540033	0.501092	1.248978
C279	C	0.994649	-0.047253	0.795773
C280	C	1.494649	0.452747	1.295773
H281	H	0.932211	-0.048554	0.776495
H282	H	1.432211	0.451446	1.276495
H283	H	1.022979	-0.109585	0.794968
H284	H	1.522979	0.390415	1.294968
H285	H	0.992057	-0.022713	0.853695
H286	H	1.492057	0.477287	1.353695
O287	O	0.841511	0.211452	0.760771
O288	O	1.341511	0.711452	1.260771
C289	C	0.852308	0.200004	0.835586
C290	C	1.352308	0.700004	1.335586
H291	H	0.913318	0.170673	0.842393
H292	H	1.413318	0.670673	1.342393
H293	H	0.847259	0.259385	0.864848
H294	H	1.347259	0.759385	1.364848
H295	H	0.805077	0.160698	0.860015
H296	H	1.305077	0.660698	1.360015
H297	H	0.930123	0.235889	0.376033
H298	H	1.430123	0.735889	0.876033
O299	O	0.174099	0.101953	0.061013
O300	O	0.674099	0.601953	0.561013
C301	C	0.228233	0.102828	0.116086
C302	C	0.728233	0.602828	0.616086
H303	H	0.285384	0.128608	0.093360
H304	H	0.785384	0.628608	0.593360
H305	H	0.201760	0.140482	0.163812
H306	H	0.701760	0.640482	0.663812
H307	H	0.241330	0.040103	0.135618
H308	H	0.741330	0.540103	0.635618
O309	O	0.336829	0.104495	0.051311
O310	O	0.836829	0.604495	0.551311
C311	C	0.389232	0.037402	0.052184
C312	C	0.889232	0.537402	0.552184
H313	H	0.403169	0.014986	-0.005952
H314	H	0.903169	0.514986	0.494048
H315	H	0.446234	0.053620	0.076768
H316	H	0.946234	0.553620	0.576768
H317	H	0.360670	-0.010652	0.086441
H318	H	0.860670	0.489348	0.586441
O319	O	0.841404	0.211554	0.610510
O320	O	1.341404	0.711554	1.110510
C321	C	0.796915	0.258622	0.663121
C322	C	1.296915	0.758622	1.163121
H323	H	0.829391	0.259495	0.715537
H324	H	1.329391	0.759495	1.215537
H325	H	0.788804	0.321243	0.641568
H326	H	1.288804	0.821243	1.141568
H327	H	0.736575	0.233192	0.674801
H328	H	1.236575	0.733192	1.174801
