data_functionalizedCrystal
_audit_creation_method	'MofGen! by Chris Wilmer'
_symmetry_space_group_name_H-M	'P1'
_symmetry_Int_Tables_number	1
_symmetry_cell_setting	triclinic
loop_
_symmetry_equiv_pos_as_xyz
  x,y,z
_cell_length_a	12.645331
_cell_length_b	12.645330
_cell_length_c	16.625539
_cell_angle_alpha	89.975749
_cell_angle_beta	89.983887
_cell_angle_gamma	90.018103
loop_
_atom_site_label
_atom_site_type_symbol
_atom_site_fract_x
_atom_site_fract_y
_atom_site_fract_z
Zn1	Zn	1.620711	-0.422026	-0.455836
Zn2	Zn	2.120711	0.077974	0.044164
Zn3	Zn	1.620599	-0.599312	-0.321013
Zn4	Zn	2.120599	-0.099312	0.178987
Zn5	Zn	1.443432	-0.422064	-0.321027
Zn6	Zn	1.943432	0.077936	0.178973
Zn7	Zn	1.443408	-0.599249	-0.455813
Zn8	Zn	1.943408	-0.099249	0.044187
O9	O	1.532037	-0.510663	-0.388422
O10	O	2.032037	-0.010663	0.111578
O11	O	1.769044	-0.445554	-0.437955
O12	O	2.269044	0.054446	0.062045
O13	O	1.597060	-0.575842	-0.208182
O14	O	2.097060	-0.075842	0.291818
O15	O	1.467005	-0.273712	-0.338925
O16	O	1.967005	0.226288	0.161075
O17	O	1.768961	-0.575805	-0.338901
O18	O	2.268961	-0.075805	0.161099
O19	O	1.597252	-0.273684	-0.437969
O20	O	2.097252	0.226316	0.062031
O21	O	1.466896	-0.445619	-0.208193
O22	O	1.966896	0.054381	0.291807
O23	O	1.295081	-0.445558	-0.338903
O24	O	1.795081	0.054442	0.161097
O25	O	1.466964	-0.575698	-0.568649
O26	O	1.966964	-0.075698	-0.068649
O27	O	1.295064	-0.575735	-0.437930
O28	O	1.795064	-0.075735	0.062070
O29	O	1.597229	-0.445493	-0.568666
O30	O	2.097229	0.054507	-0.068666
O31	O	1.597037	-0.747651	-0.338879
O32	O	2.097037	-0.247651	0.161121
O33	O	1.466855	-0.747605	-0.437916
O34	O	1.966855	-0.247605	0.062084
C35	C	1.256608	-0.510644	-0.388416
C36	C	1.756608	-0.010644	0.111584
C37	C	1.138778	-0.510662	-0.388433
C38	C	1.638778	-0.010662	0.111567
C39	C	1.093920	-0.592696	-0.450639
C40	C	1.593920	-0.092696	0.049361
C41	C	0.971360	-0.593033	-0.450454
C42	C	1.471360	-0.093033	0.049546
C43	C	0.970828	-0.540499	-0.303355
C44	C	1.470828	-0.040499	0.196645
C45	C	1.093426	-0.541079	-0.303715
C46	C	1.593426	-0.041079	0.196285
C47	C	1.093631	-0.398617	-0.410560
C48	C	1.593631	0.101383	0.089440
C49	C	0.971025	-0.399236	-0.412434
C50	C	1.471025	0.100764	0.087566
C51	C	1.531960	-0.786093	-0.388411
C52	C	2.031960	-0.286093	0.111589
C53	C	1.532024	-0.903923	-0.388433
C54	C	2.032024	-0.403923	0.111567
C55	C	1.450464	-1.071502	-0.450930
C56	C	1.950464	-0.571502	0.049070
C57	C	1.450047	-0.948942	-0.450729
C58	C	1.950047	-0.448942	0.049271
C59	C	1.501782	-0.948516	-0.303460
C60	C	2.001782	-0.448516	0.196540
C61	C	1.501284	-1.071114	-0.303839
C62	C	2.001284	-0.571114	0.196161
C63	C	1.644324	-1.071011	-0.410221
C64	C	2.144324	-0.571011	0.089779
C65	C	1.643636	-0.948405	-0.412079
C66	C	2.143636	-0.448405	0.087921
C67	C	1.808543	-0.510682	-0.388429
C68	C	2.308543	-0.010682	0.111571
C69	C	1.926373	-0.510690	-0.388432
C70	C	2.426373	-0.010690	0.111568
C71	C	1.532106	-0.510584	-0.598731
C72	C	2.032106	-0.010584	-0.098731
C73	C	1.532136	-0.510550	-0.688353
C74	C	2.032136	-0.010550	-0.188353
C75	C	1.532144	-0.234157	-0.388451
C76	C	2.032144	0.265843	0.111549
C77	C	1.532189	-0.116327	-0.388464
C78	C	2.032189	0.383673	0.111536
C79	C	1.532185	-0.510431	-1.016528
C80	C	2.032185	-0.010431	-0.516528
C81	C	1.532168	-0.510468	-0.925220
C82	C	2.032168	-0.010468	-0.425220
C83	C	1.532161	-0.510492	-0.852443
C84	C	2.032161	-0.010492	-0.352443
C85	C	1.532143	-0.510526	-0.761129
C86	C	2.032143	-0.010526	-0.261129
C87	C	1.532030	-0.510665	-0.178932
C88	C	2.032030	-0.010665	0.321068
C89	C	1.532206	-0.510400	-0.089311
C90	C	2.032206	-0.010400	0.410689
H91	H	1.122641	-0.337503	-0.365257
H92	H	1.622641	0.162497	0.134743
Br93	Br	1.681653	-0.899824	-0.516312
Br94	Br	2.181653	-0.399824	-0.016312
H95	H	1.705211	-1.099998	-0.364725
H96	H	2.205211	-0.599998	0.135275
Br97	Br	1.364662	-1.118942	-0.273117
Br98	Br	1.864662	-0.618942	0.226883
Br99	Br	1.481580	-0.898678	-0.555746
Br100	Br	1.981580	-0.398678	-0.055746
H101	H	0.941305	-0.574438	-0.513527
H102	H	1.441305	-0.074438	-0.013527
Br103	Br	1.312775	-1.123032	-0.427235
Br104	Br	1.812775	-0.623032	0.072765
Br105	Br	0.919974	-0.291982	-0.342491
Br106	Br	1.419974	0.208018	0.157509
H107	H	1.558226	-1.100770	-0.255710
H108	H	2.058226	-0.600770	0.244290
Br109	Br	1.141043	-0.677572	-0.272562
Br110	Br	1.641043	-0.177572	0.227438
Br111	Br	1.145218	-0.353217	-0.512219
Br112	Br	1.645218	0.146783	-0.012219
Br113	Br	1.142889	-0.445788	-0.223791
Br114	Br	1.642889	0.054212	0.276209
H115	H	1.559420	-0.919356	-0.255646
H116	H	2.059420	-0.419356	0.244354
Br117	Br	1.143148	-0.562092	-0.556092
Br118	Br	1.643148	-0.062092	-0.056092
H119	H	0.940099	-0.621498	-0.284334
H120	H	1.440099	-0.121498	0.215666
H121	H	1.420666	-0.917905	-0.284694
H122	H	1.920666	-0.417905	0.215306
Br123	Br	0.922419	-0.731437	-0.426013
Br124	Br	1.422419	-0.231437	0.073987
Br125	Br	1.145222	-0.730294	-0.426476
Br126	Br	1.645222	-0.230294	0.073524
H127	H	1.469211	-1.100914	-0.514144
H128	H	1.969211	-0.600914	-0.014144
H129	H	0.941687	-0.482584	-0.255733
H130	H	1.441687	0.017416	0.244267
Br131	Br	1.690307	-1.122420	-0.511740
Br132	Br	2.190307	-0.622420	-0.011740
H133	H	0.941974	-0.376748	-0.475046
H134	H	1.441974	0.123252	0.024954
Br135	Br	1.750475	-0.897308	-0.341777
Br136	Br	2.250475	-0.397308	0.158223
H137	H	1.366916	-0.919708	-0.436315
H138	H	1.866916	-0.419708	0.063685
