data_functionalizedCrystal
_audit_creation_method	'MofGen! by Chris Wilmer'
_symmetry_space_group_name_H-M	'P1'
_symmetry_Int_Tables_number	1
_symmetry_cell_setting	triclinic
loop_
_symmetry_equiv_pos_as_xyz
  x,y,z
_cell_length_a	16.974829
_cell_length_b	16.974813
_cell_length_c	16.053802
_cell_angle_alpha	88.912550
_cell_angle_beta	83.771117
_cell_angle_gamma	83.162295
loop_
_atom_site_label
_atom_site_type_symbol
_atom_site_fract_x
_atom_site_fract_y
_atom_site_fract_z
O1	O	1.056112	0.093746	-0.147118
O2	O	1.556112	0.593746	0.352882
O3	O	0.825186	0.107280	-0.132432
O4	O	1.325186	0.607280	0.367568
O5	O	0.946713	-0.014245	-0.132427
O6	O	1.446713	0.485755	0.367573
O7	O	0.934584	0.215271	-0.147123
O8	O	1.434584	0.715271	0.352877
O9	O	0.940024	-0.007583	0.006433
O10	O	1.440024	0.492417	0.506433
O11	O	0.818496	0.113942	0.006429
O12	O	1.318496	0.613942	0.506429
O13	O	1.049423	0.100407	-0.008258
O14	O	1.549423	0.600407	0.491742
Zn15	Zn	0.932898	0.108232	0.021133
Zn16	Zn	1.432898	0.608232	0.521133
Zn17	Zn	0.941711	0.099455	-0.161822
Zn18	Zn	1.441711	0.599455	0.338178
O19	O	0.927895	0.221932	-0.008262
O20	O	1.427895	0.721932	0.491738
C21	C	0.792286	0.110219	-0.060978
C22	C	1.292286	0.610219	0.439022
C23	C	0.704221	0.109042	-0.054949
C24	C	1.204221	0.609042	0.445051
C25	C	0.942783	-0.040275	-0.060974
C26	C	1.442783	0.459725	0.439026
C27	C	0.941029	-0.127761	-0.054947
C28	C	1.441029	0.372239	0.445053
C29	C	0.208113	0.102830	-0.012888
C30	C	0.708113	0.602830	0.487112
C31	C	0.290860	0.103936	-0.018554
C32	C	0.790860	0.603936	0.481446
C33	C	0.335880	0.100852	-0.097082
C34	C	0.835880	0.600852	0.402918
C35	C	0.298149	0.096669	-0.169947
C36	C	0.798149	0.596669	0.330053
C37	C	0.215403	0.095569	-0.164280
C38	C	0.715403	0.595569	0.335720
C39	C	0.583744	0.103759	-0.122148
C40	C	1.083744	0.603759	0.377852
C41	C	0.666496	0.104857	-0.127809
C42	C	1.166496	0.604857	0.372191
C43	C	0.659200	0.112125	0.023584
C44	C	1.159200	0.612125	0.523584
C45	C	0.576454	0.111020	0.029245
C46	C	1.076454	0.611020	0.529245
C47	C	0.538729	0.106841	-0.043621
C48	C	1.038729	0.606841	0.456379
N49	N	0.420461	0.101980	-0.102876
N50	N	0.920461	0.601980	0.397124
N51	N	0.454150	0.105719	-0.037827
N52	N	0.954150	0.605719	0.462173
C53	C	0.943853	-0.172489	-0.127808
C54	C	1.443853	0.327511	0.372192
C55	C	0.942199	-0.254690	-0.122142
C56	C	1.442199	0.245310	0.377858
C57	C	0.937727	-0.292163	-0.043614
C58	C	1.437727	0.207837	0.456386
C59	C	0.934900	-0.247429	0.029252
C60	C	1.434900	0.252571	0.529252
C61	C	0.936548	-0.165228	0.023585
C62	C	1.436548	0.334772	0.523585
C63	C	0.932402	-0.537617	-0.018550
C64	C	1.432402	-0.037617	0.481450
C65	C	0.930756	-0.619824	-0.012889
C66	C	1.430756	-0.119824	0.487111
C67	C	0.938053	-0.627080	-0.164283
C68	C	1.438053	-0.127080	0.335717
C69	C	0.939706	-0.544878	-0.169943
C70	C	1.439706	-0.044878	0.330057
C71	C	0.936875	-0.500150	-0.097077
C72	C	1.436875	-0.000150	0.402923
N73	N	0.936039	-0.376187	-0.037821
N74	N	1.436039	0.123813	0.462179
N75	N	0.938557	-0.416127	-0.102871
N76	N	1.438557	0.083873	0.397129
C77	C	1.082323	0.097468	-0.079713
C78	C	1.582323	0.597468	0.420287
C79	C	1.170388	0.098645	-0.085748
C80	C	1.670388	0.598645	0.414252
C81	C	0.931825	0.247962	-0.079717
C82	C	1.431825	0.747962	0.420283
C83	C	0.933580	0.335448	-0.085750
C84	C	1.433580	0.835448	0.414250
N85	N	0.926888	0.114222	0.145994
N86	N	1.426888	0.614222	0.645994
N87	N	0.947726	0.093459	-0.286684
N88	N	1.447726	0.593459	0.213316
C89	C	0.978618	0.062531	0.189687
C90	C	1.478618	0.562531	0.689687
C91	C	0.974421	0.066728	0.277094
C92	C	1.474421	0.566728	0.777094
C93	C	0.918499	0.122621	0.320805
C94	C	1.418499	0.622621	0.820805
C95	C	0.866765	0.174314	0.277106
C96	C	1.366765	0.674314	0.777106
C97	C	0.870958	0.170112	0.189701
C98	C	1.370958	0.670112	0.689701
C99	C	0.900184	0.140951	0.582213
C100	C	1.400184	0.640951	1.082213
C101	C	0.895997	0.145150	0.669623
C102	C	1.395997	0.645150	1.169623
C103	C	1.003653	0.037563	0.669605
C104	C	1.503653	0.537563	1.169605
C105	C	1.007844	0.033370	0.582199
C106	C	1.507844	0.533370	1.082199
C107	C	0.956107	0.085060	0.538508
C108	C	1.456107	0.585060	1.038508
N109	N	0.914211	0.126914	0.410148
N110	N	1.414211	0.626914	0.910148
N111	N	0.960392	0.080763	0.449166
N112	N	1.460392	0.580763	0.949166
H113	H	0.171462	0.105345	0.051058
H114	H	0.671462	0.605345	0.551058
H115	H	1.016543	0.024637	0.312669
H116	H	1.516543	0.524637	0.812669
H117	H	0.689924	0.115529	0.082907
H118	H	1.189924	0.615529	0.582907
C119	C	0.542261	0.099137	-0.202296
C120	C	1.042261	0.599137	0.297704
H121	H	0.580928	0.097444	-0.249872
H122	H	1.080928	0.597444	0.250128
H123	H	0.504183	0.144508	-0.205955
H124	H	1.004183	0.644508	0.294045
H125	H	0.516087	0.052590	-0.200512
H126	H	1.016087	0.552590	0.299488
H127	H	0.334811	0.094163	-0.233886
H128	H	0.834811	0.594163	0.266114
H129	H	0.858059	0.183041	0.546646
H130	H	1.358059	0.683041	1.046646
C131	C	0.805253	0.235795	0.325185
C132	C	1.305253	0.735795	0.825185
H133	H	0.810170	0.230901	0.383498
H134	H	1.310170	0.730901	0.883498
H135	H	0.752981	0.226746	0.315020
H136	H	1.252981	0.726746	0.815020
H137	H	0.814673	0.287677	0.306705
H138	H	1.314673	0.787677	0.806705
C139	C	0.941156	-0.676280	-0.244428
C140	C	1.441156	-0.176280	0.255572
H141	H	0.939527	-0.730601	-0.229810
H142	H	1.439527	-0.230601	0.270190
H143	H	0.989139	-0.670507	-0.279165
H144	H	1.489139	-0.170507	0.220835
H145	H	0.896699	-0.658088	-0.273750
H146	H	1.396699	-0.158088	0.226250
H147	H	0.703149	0.102352	-0.191759
H148	H	1.203149	0.602352	0.308241
H149	H	0.927110	-0.650331	0.051061
H150	H	1.427110	-0.150331	0.551061
C151	C	0.945309	-0.303892	-0.202287
C152	C	1.445309	0.196108	0.297713
H153	H	0.943678	-0.358213	-0.187667
H154	H	1.443678	0.141787	0.312333
H155	H	0.993296	-0.298121	-0.237017
H156	H	1.493296	0.201879	0.262983
H157	H	0.900857	-0.285701	-0.231616
H158	H	1.400857	0.214299	0.268384
H159	H	0.828833	0.212203	0.154127
H160	H	1.328833	0.712203	0.654127
H161	H	1.045775	-0.004521	0.705187
H162	H	1.545775	0.495479	1.205187
C163	C	0.929288	-0.488424	0.061598
C164	C	1.429288	0.011576	0.561598
H165	H	0.930898	-0.434099	0.046983
H166	H	1.430898	0.065901	0.546983
H167	H	0.973733	-0.506608	0.090930
H168	H	1.473733	-0.006608	0.590930
H169	H	0.881295	-0.494202	0.096324
H170	H	1.381295	0.005798	0.596324
C171	C	0.332352	0.108551	0.061591
C172	C	0.832352	0.608551	0.561591
H173	H	0.293690	0.110225	0.109170
H174	H	0.793690	0.610225	0.609170
H175	H	0.358527	0.155094	0.059814
H176	H	0.858527	0.655094	0.559814
H177	H	0.370432	0.063175	0.065242
H178	H	0.870432	0.563175	0.565242
C179	C	0.948774	-0.131272	-0.214187
C180	C	1.448774	0.368728	0.285813
H181	H	0.949359	-0.075911	-0.207130
H182	H	1.449359	0.424089	0.292870
H183	H	0.903787	-0.140027	-0.241660
H184	H	1.403787	0.359973	0.258340
H185	H	0.996226	-0.152445	-0.247060
H186	H	1.496226	0.347555	0.252940
C187	C	0.944615	-0.503662	-0.256323
C188	C	1.444615	-0.003662	0.243677
H189	H	0.946052	-0.542073	-0.298906
H190	H	1.446052	-0.042073	0.201094
H191	H	0.991624	-0.477950	-0.264387
H192	H	1.491624	0.022050	0.235613
H193	H	0.899184	-0.465540	-0.258971
H194	H	1.399184	0.034460	0.241029
H195	H	1.053380	-0.012142	0.546611
H196	H	1.553380	0.487858	1.046611
H197	H	0.539805	0.113514	0.093191
H198	H	1.039805	0.613514	0.593191
C199	C	0.834438	0.206593	0.717710
C200	C	1.334438	0.706593	1.217710
H201	H	0.804208	0.236760	0.679174
H202	H	1.304208	0.736760	1.179174
H203	H	0.861365	0.240953	0.747675
H204	H	1.361365	0.740953	1.247675
H205	H	0.799743	0.179952	0.755941
H206	H	1.299743	0.679952	1.255941
C207	C	0.929984	-0.288647	0.115630
C208	C	1.429984	0.211353	0.615630
H209	H	0.929416	-0.344011	0.108571
H210	H	1.429416	0.155989	0.608571
H211	H	0.882540	-0.267479	0.148509
H212	H	1.382540	0.232521	0.648509
H213	H	0.974980	-0.279890	0.143096
H214	H	1.474980	0.220110	0.643096
H215	H	0.184689	0.092164	-0.223611
H216	H	0.684689	0.592164	0.276389
C217	C	0.933444	-0.116028	0.103732
C218	C	1.433444	0.383972	0.603732
H219	H	0.930552	-0.150118	0.151312
H220	H	1.430552	0.349882	0.651312
H221	H	0.887718	-0.077603	0.107370
H222	H	1.387718	0.422397	0.607370
H223	H	0.980158	-0.090019	0.101966
H224	H	1.480158	0.409981	0.601966
H225	H	1.024158	0.017021	0.154103
H226	H	1.524158	0.517021	0.654103
