data_functionalizedCrystal
_audit_creation_method	'MofGen! by Chris Wilmer'
_symmetry_space_group_name_H-M	'P1'
_symmetry_Int_Tables_number	1
_symmetry_cell_setting	triclinic
loop_
_symmetry_equiv_pos_as_xyz
  x,y,z
_cell_length_a	15.995343
_cell_length_b	27.732046
_cell_length_c	14.472310
_cell_angle_alpha	90.007427
_cell_angle_beta	89.991294
_cell_angle_gamma	96.934419
loop_
_atom_site_label
_atom_site_type_symbol
_atom_site_fract_x
_atom_site_fract_y
_atom_site_fract_z
O1	O	1.110194	-0.062283	-0.076761
O2	O	1.610194	0.437717	0.423239
O3	O	0.866318	-0.069981	-0.076785
O4	O	1.366318	0.430019	0.423215
O5	O	0.995831	0.004232	-0.076752
O6	O	1.495831	0.504232	0.423248
O7	O	0.980681	-0.136496	-0.076795
O8	O	1.480681	0.363504	0.423205
O9	O	0.995798	0.004228	0.076930
O10	O	1.495798	0.504228	0.576930
O11	O	0.866285	-0.069985	0.076897
O12	O	1.366285	0.430015	0.576897
O13	O	1.110161	-0.062288	0.076921
O14	O	1.610161	0.437712	0.576921
Cu15	Cu	0.988220	-0.066137	0.090941
Cu16	Cu	1.488220	0.433863	0.590941
Cu17	Cu	0.988259	-0.066132	-0.090806
Cu18	Cu	1.488259	0.433868	0.409194
O19	O	0.980648	-0.136501	0.076887
O20	O	1.480648	0.363499	0.576887
C21	C	0.835111	-0.069666	0.000053
C22	C	1.335111	0.430334	0.500053
C23	C	0.742172	-0.068714	0.000045
C24	C	1.242172	0.431286	0.500045
C25	C	0.572008	-0.066985	0.000058
C26	C	1.072008	0.433015	0.500058
C27	C	0.549357	-0.013415	0.000074
C28	C	1.049357	0.486585	0.500074
C29	C	0.452692	-0.012407	0.000428
C30	C	0.952692	0.487593	0.500428
C31	C	0.404471	-0.065283	0.000070
C32	C	0.904471	0.434717	0.500070
C33	C	0.433194	-0.092222	0.087647
C34	C	0.933194	0.407778	0.587647
C35	C	0.529979	-0.092857	0.087715
C36	C	1.029979	0.407143	0.587715
C37	C	0.529917	-0.093637	-0.087057
C38	C	1.029917	0.406363	0.412943
C39	C	0.433448	-0.091659	-0.088202
C40	C	0.933448	0.408341	0.411798
C41	C	0.309785	-0.064324	0.000079
C42	C	0.809785	0.435676	0.500079
C43	C	0.666694	-0.067946	0.000054
C44	C	1.166694	0.432054	0.500054
C45	C	0.995497	0.022238	0.000093
C46	C	1.495497	0.522238	0.500093
C47	C	0.994540	0.075897	0.000103
C48	C	1.494540	0.575897	0.500103
C49	C	1.065048	0.414410	0.000077
C50	C	1.565048	0.914410	0.500077
C51	C	1.061498	0.616085	0.000073
C52	C	1.561498	1.116085	0.500073
O53	O	1.125970	0.647063	0.000040
O54	O	1.625970	1.147063	0.500040
N55	N	0.984703	0.635538	0.000067
N56	N	1.484703	1.135538	0.500067
C57	C	0.908790	0.604570	0.000057
C58	C	1.408790	1.104570	0.500057
O59	O	0.843389	0.625744	0.000042
O60	O	1.343389	1.125744	0.500042
C61	C	0.912341	0.402896	0.000054
C62	C	1.412341	0.902896	0.500054
C63	C	0.989141	0.383445	0.000069
C64	C	1.489141	0.883445	0.500069
C65	C	1.141842	0.394958	0.000091
C66	C	1.641842	0.894958	0.500091
C67	C	1.142729	0.344543	0.000097
C68	C	1.642729	0.844543	0.500097
C69	C	1.066822	0.313578	0.000089
C70	C	1.566822	0.813578	0.500089
C71	C	0.990028	0.333029	0.000075
C72	C	1.490028	0.833029	0.500075
C73	C	0.836429	0.371928	0.000037
C74	C	1.336429	0.871928	0.500037
C75	C	0.837324	0.321507	0.000034
C76	C	1.337324	0.821507	0.500034
C77	C	0.914124	0.302056	0.000049
C78	C	1.414124	0.802056	0.500049
C79	C	0.915008	0.251649	0.000073
C80	C	1.415008	0.751649	0.500073
N81	N	0.991803	0.232195	0.000079
N82	N	1.491803	0.732195	0.500079
C83	C	1.067710	0.263160	0.000087
C84	C	1.567710	0.763160	0.500087
C85	C	0.906931	0.710452	0.000060
C86	C	1.406931	1.210452	0.500060
C87	C	0.906043	0.760870	0.000062
C88	C	1.406043	1.260870	0.500062
C89	C	1.058751	0.772382	0.000077
C90	C	1.558751	1.272382	0.500077
C91	C	1.059638	0.721962	0.000081
C92	C	1.559638	1.221962	0.500081
C93	C	0.983726	0.690998	0.000066
C94	C	1.483726	1.190998	0.500066
C95	C	1.069567	0.157283	0.000101
C96	C	1.569567	0.657283	0.500101
C97	C	1.070447	0.106862	0.000110
C98	C	1.570447	0.606862	0.500110
C99	C	0.917739	0.095355	0.000091
C100	C	1.417739	0.595355	0.500091
C101	C	0.916858	0.145771	0.000086
C102	C	1.416858	0.645771	0.500086
C103	C	0.992779	0.176734	0.000088
C104	C	1.492779	0.676734	0.500088
O105	O	0.850570	0.220642	0.000096
O106	O	1.350570	0.720642	0.500096
O107	O	1.133101	0.241976	0.000081
O108	O	1.633101	0.741976	0.500081
C109	C	1.064162	0.464825	0.000071
C110	C	1.564162	0.964825	0.500071
C111	C	0.987368	0.484277	0.000057
C112	C	1.487368	0.984277	0.500057
C113	C	0.911461	0.453312	0.000049
C114	C	1.411461	0.953312	0.500049
C115	C	0.986480	0.534695	0.000059
C116	C	1.486480	1.034695	0.500059
C117	C	1.062387	0.565660	0.000067
C118	C	1.562387	1.065660	0.500067
C119	C	1.139182	0.546206	0.000073
C120	C	1.639182	1.046206	0.500073
C121	C	1.140069	0.495790	0.000079
C122	C	1.640069	0.995790	0.500079
C123	C	0.834666	0.472766	0.000044
C124	C	1.334666	0.972766	0.500044
C125	C	0.833785	0.523182	0.000039
C126	C	1.333785	1.023182	0.500039
C127	C	0.909692	0.554147	0.000046
C128	C	1.409692	1.054147	0.500046
C129	C	1.141368	-0.062603	0.000080
C130	C	1.641368	0.437397	0.500080
C131	C	1.234307	-0.063555	0.000082
C132	C	1.734307	0.436445	0.500082
N133	N	0.988198	-0.066140	0.218772
N134	N	1.488198	0.433860	0.718772
C135	C	0.980985	0.845493	0.000052
C136	C	1.480985	1.345493	0.500052
C137	C	0.981950	0.791835	0.000070
C138	C	1.481950	1.291835	0.500070
N139	N	0.988287	-0.066125	-0.218637
N140	N	1.488287	0.433875	0.281363
C141	C	0.988258	-0.066130	0.592863
C142	C	1.488258	0.433870	1.092863
C143	C	0.918729	-0.105707	0.553680
C144	C	1.418729	0.394293	1.053680
C145	C	0.918887	-0.105851	0.446591
C146	C	1.418887	0.394149	0.946591
C147	C	0.988228	-0.066135	0.407272
C148	C	1.488228	0.433865	0.907272
C149	C	1.075450	-0.077149	0.446114
C150	C	1.575450	0.422851	0.946114
C151	C	1.075059	-0.077431	0.553235
C152	C	1.575059	0.422569	1.053235
C153	C	0.971345	-0.015422	0.553406
C154	C	1.471345	0.484578	1.053406
C155	C	0.969337	-0.015760	0.446278
C156	C	1.469337	0.484240	0.946278
C157	C	0.988216	-0.066137	0.302384
C158	C	1.488216	0.433863	0.802384
C159	C	0.988275	-0.066129	0.697751
C160	C	1.488275	0.433871	1.197751
H161	H	0.578592	0.007009	0.062795
H162	H	1.078592	0.507009	0.562795
F163	F	0.547536	-0.145181	-0.088157
F164	F	1.047536	0.354819	0.411843
F165	F	0.565286	-0.068762	0.173623
F166	F	1.065286	0.431238	0.673623
H167	H	1.090062	-0.114412	0.578201
H168	H	1.590062	0.385588	1.078201
H169	H	0.772851	0.447559	0.000035
H170	H	1.272851	0.947559	0.500035
H171	H	0.558420	-0.076733	-0.153460
H172	H	1.058420	0.423267	0.346540
F173	F	1.139537	0.805345	0.000083
F174	F	1.639537	1.305345	0.500083
H175	H	0.845110	0.685245	0.000047
H176	H	1.345110	1.185245	0.500047
F177	F	0.548364	-0.144204	0.092585
F178	F	1.048364	0.355796	0.592585
H179	H	0.905179	-0.007401	0.420893
H180	H	1.405179	0.492599	0.920893
H181	H	1.128378	-0.049741	0.579154
H182	H	1.628378	0.450259	1.079154
H183	H	0.433959	0.008680	-0.062337
H184	H	0.933959	0.508680	0.437663
F185	F	1.224471	0.323848	0.000093
F186	F	1.724471	0.823848	0.500093
F187	F	1.222640	0.427907	0.000099
F188	F	1.722640	0.927907	0.500099
F189	F	0.390912	-0.143087	0.091570
F190	F	0.890912	0.356913	0.591570
F191	F	0.407230	-0.068068	0.173176
F192	F	0.907230	0.431932	0.673176
H193	H	1.022057	0.014030	0.578746
H194	H	1.522057	0.514030	1.078746
F195	F	0.409566	-0.066009	-0.172890
F196	F	0.909566	0.433991	0.327110
F197	F	1.144659	-0.040474	0.412827
F198	F	1.644659	0.459526	0.912827
H199	H	1.090829	-0.113709	0.419267
H200	H	1.590829	0.386291	0.919267
F201	F	0.586332	0.013730	-0.082001
F202	F	1.086332	0.513730	0.417999
H203	H	0.929309	-0.143125	0.580579
H204	H	1.429309	0.356875	1.080579
F205	F	0.824302	0.781565	0.000063
F206	F	1.324302	1.281565	0.500063
H207	H	1.131389	0.182487	0.000098
H208	H	1.631389	0.682487	0.500098
H209	H	1.202607	0.479958	0.000091
H210	H	1.702607	0.979958	0.500091
F211	F	0.890049	-0.001585	0.588756
F212	F	1.390049	0.498415	1.088756
F213	F	1.031301	0.024539	0.411310
F214	F	1.531301	0.524539	0.911310
H215	H	1.132989	0.091028	0.000125
H216	H	1.632989	0.591028	0.500125
F217	F	0.756525	0.288555	0.000015
F218	F	1.256525	0.788555	0.500015
F219	F	0.428925	0.015014	0.082991
F220	F	0.928925	0.515014	0.582991
H221	H	0.399992	-0.130240	-0.093774
H222	H	0.899992	0.369760	0.406226
H223	H	1.122176	0.706129	0.000093
H224	H	1.622176	1.206129	0.500093
F225	F	0.754687	0.392618	0.000017
F226	F	1.254687	0.892618	0.500017
H227	H	0.855937	0.070135	0.000088
H228	H	1.355937	0.570135	0.500088
F229	F	0.835120	0.166473	0.000087
F230	F	1.335120	0.666473	0.500087
H231	H	1.200988	0.571426	0.000083
H232	H	1.700988	1.071426	0.500083
F233	F	0.834104	-0.097298	0.412265
F234	F	1.334104	0.402702	0.912265
F235	F	0.752038	0.543877	0.000028
F236	F	1.252038	1.043877	0.500028
F237	F	0.833677	-0.097265	0.587363
F238	F	1.333677	0.402735	1.087363
F239	F	0.932887	-0.155040	0.413068
F240	F	1.432887	0.344960	0.913068
