data_functionalizedCrystal
_audit_creation_method	'MofGen! by Chris Wilmer'
_symmetry_space_group_name_H-M	'P1'
_symmetry_Int_Tables_number	1
_symmetry_cell_setting	triclinic
loop_
_symmetry_equiv_pos_as_xyz
  x,y,z
_cell_length_a	10.686220
_cell_length_b	13.897448
_cell_length_c	10.688615
_cell_angle_alpha	94.355781
_cell_angle_beta	98.316027
_cell_angle_gamma	94.399460
loop_
_atom_site_label
_atom_site_type_symbol
_atom_site_fract_x
_atom_site_fract_y
_atom_site_fract_z
Zn1	Zn	1.885875	-0.306717	-0.568781
Zn2	Zn	1.901860	-0.454617	-0.356627
Zn3	Zn	1.689747	-0.306750	-0.372892
Zn4	Zn	1.673605	-0.481389	-0.584976
O5	O	1.787772	-0.387368	-0.470819
O6	O	2.065602	-0.315119	-0.527054
O7	O	1.887169	-0.423812	-0.181240
O8	O	1.715830	-0.171762	-0.398906
O9	O	2.077346	-0.423781	-0.371185
O10	O	1.859924	-0.171738	-0.542825
O11	O	1.731330	-0.315174	-0.193189
O12	O	1.510000	-0.341134	-0.414610
O13	O	1.688317	-0.469409	-0.760372
O14	O	1.498140	-0.469440	-0.570427
O15	O	1.844271	-0.341078	-0.748474
O16	O	1.871516	-0.593153	-0.386888
O17	O	1.703818	-0.612821	-0.554655
C18	C	1.458019	-0.408196	-0.496041
C19	C	1.316947	-0.417132	-0.506862
C20	C	1.787682	-0.637986	-0.470789
C21	C	1.787757	-0.745197	-0.470810
C22	C	1.787884	-0.941489	-0.470879
C23	C	1.787809	-0.832259	-0.470845
C24	C	2.118813	-0.366460	-0.445499
C25	C	2.259882	-0.357550	-0.434709
C26	C	1.762711	-0.408226	-0.801746
C27	C	1.752031	-0.417115	-0.942767
C28	C	1.787895	-0.135771	-0.470874
C29	C	1.787947	-0.028556	-0.470897
C30	C	1.812809	-0.366517	-0.141174
C31	C	1.823734	-0.357342	-0.000134
H32	H	1.257871	-0.474987	-0.576911
N33	N	1.916141	-0.280257	0.077722
H34	H	1.911121	-0.284410	0.170820
H35	H	2.005135	-0.290541	0.061449
N36	N	1.659617	-0.494195	-0.020645
H37	H	1.707383	-0.538861	-0.071594
H38	H	1.613337	-0.532709	0.037746
N39	N	1.338114	-0.280925	-0.341910
H40	H	1.431182	-0.285187	-0.347075
H41	H	1.313521	-0.214758	-0.363565
