data_functionalizedCrystal
_audit_creation_method	'MofGen! by Chris Wilmer'
_symmetry_space_group_name_H-M	'P1'
_symmetry_Int_Tables_number	1
_symmetry_cell_setting	triclinic
loop_
_symmetry_equiv_pos_as_xyz
  x,y,z
_cell_length_a	12.827893
_cell_length_b	21.295417
_cell_length_c	12.827885
_cell_angle_alpha	89.961900
_cell_angle_beta	89.980728
_cell_angle_gamma	90.030477
loop_
_atom_site_label
_atom_site_type_symbol
_atom_site_fract_x
_atom_site_fract_y
_atom_site_fract_z
Zn1	Zn	1.597560	-0.250579	-0.590788
Zn2	Zn	2.097560	0.249421	-0.090788
Zn3	Zn	1.597408	-0.355861	-0.416023
Zn4	Zn	2.097408	0.144139	0.083977
Zn5	Zn	1.422801	-0.250610	-0.416062
Zn6	Zn	1.922801	0.249390	0.083938
Zn7	Zn	1.422740	-0.355814	-0.590723
Zn8	Zn	1.922740	0.144186	-0.090723
O9	O	1.510127	-0.303216	-0.503399
O10	O	2.010127	0.196784	-0.003399
O11	O	1.743776	-0.264552	-0.567616
O12	O	2.243776	0.235448	-0.067616
O13	O	1.574208	-0.341932	-0.269792
O14	O	2.074208	0.158068	0.230208
O15	O	1.446072	-0.162516	-0.439283
O16	O	1.946072	0.337484	0.060717
O17	O	1.743664	-0.341902	-0.439217
O18	O	2.243664	0.158098	0.060783
O19	O	1.574467	-0.162494	-0.567654
O20	O	2.074467	0.337506	-0.067654
O21	O	1.445925	-0.264604	-0.269821
O22	O	1.945925	0.235396	0.230179
O23	O	1.276557	-0.264559	-0.439220
O24	O	1.776557	0.235441	0.060780
O25	O	1.445969	-0.341822	-0.736968
O26	O	1.945969	0.158178	-0.236968
O27	O	1.276512	-0.341852	-0.567543
O28	O	1.776512	0.158148	-0.067543
O29	O	1.574408	-0.264506	-0.737016
O30	O	2.074408	0.235494	-0.237016
O31	O	1.574149	-0.443944	-0.439154
O32	O	2.074149	0.056056	0.060846
O33	O	1.445821	-0.443910	-0.567505
O34	O	1.945821	0.056090	-0.067505
C35	C	1.238617	-0.303204	-0.503379
C36	C	1.738617	0.196796	-0.003379
C37	C	1.122464	-0.303214	-0.503396
C38	C	1.622464	0.196786	-0.003396
C39	C	1.070685	-0.341521	-0.566796
C40	C	1.570685	0.158479	-0.066796
C41	C	0.950635	-0.341532	-0.566814
C42	C	1.450635	0.158468	-0.066814
C43	C	1.509990	-0.466768	-0.503341
C44	C	2.009990	0.033232	-0.003341
C45	C	1.510027	-0.536736	-0.503351
C46	C	2.010027	-0.036736	-0.003351
C47	C	1.576907	-0.569600	-0.436587
C48	C	2.076907	-0.069600	0.063413
C49	C	1.576956	-0.635342	-0.436611
C50	C	2.076956	-0.135342	0.063389
C51	C	1.510107	-0.668218	-0.503387
C52	C	2.010107	-0.168218	-0.003387
C53	C	1.443222	-0.635347	-0.570165
C54	C	1.943222	-0.135347	-0.070165
C55	C	1.443183	-0.569606	-0.570147
C56	C	1.943183	-0.069606	-0.070147
N57	N	1.418690	-0.771484	-0.511347
N58	N	1.918690	-0.271484	-0.011347
N59	N	1.418731	-0.833935	-0.511358
N60	N	1.918731	-0.333935	-0.011358
C61	C	1.510224	-0.866293	-0.503447
C62	C	2.010224	-0.366293	-0.003447
N63	N	1.601676	-0.833840	-0.495504
N64	N	2.101676	-0.333840	0.004496
N65	N	1.601635	-0.771383	-0.495488
N66	N	2.101635	-0.271383	0.004512
C67	C	1.510143	-0.739504	-0.503415
C68	C	2.010143	-0.239504	-0.003415
C69	C	1.577162	-0.970442	-0.436705
C70	C	2.077162	-0.470442	0.063295
C71	C	1.577213	-1.036186	-0.436736
C72	C	2.077213	-0.536186	0.063264
C73	C	1.443470	-1.036189	-0.570284
C74	C	1.943470	-0.536189	-0.070284
C75	C	1.443429	-0.970447	-0.570259
C76	C	1.943429	-0.470447	-0.070259
C77	C	1.510273	-0.937577	-0.503464
C78	C	2.010273	-0.437577	-0.003464
C79	C	1.782697	-0.303229	-0.503420
C80	C	2.282697	0.196771	-0.003420
C81	C	1.898851	-0.303234	-0.503428
C82	C	2.398851	0.196766	-0.003428
C83	C	1.510198	-0.303156	-0.775969
C84	C	2.010198	0.196844	-0.275969
C85	C	1.510229	-0.303130	-0.892123
C86	C	2.010229	0.196870	-0.392123
C87	C	1.510293	-0.139026	-0.503480
C88	C	2.010293	0.360974	-0.003480
C89	C	1.510364	-0.069058	-0.503515
C90	C	2.010364	0.430942	-0.003515
C91	C	1.573791	-0.264864	-0.943931
C92	C	2.073791	0.235136	-0.443931
C93	C	1.573824	-0.264837	-1.063982
C94	C	2.073824	0.235163	-0.563982
C95	C	1.510117	-0.303231	-0.231889
C96	C	2.010117	0.196769	0.268111
C97	C	1.510289	-0.303079	-0.115737
C98	C	2.010289	0.196921	0.384263
H99	H	1.631338	-0.542839	-0.382202
H100	H	2.131338	-0.042839	0.117798
H101	H	1.455828	-0.335866	-0.936644
H102	H	1.955828	0.164134	-0.436644
H103	H	1.631594	-0.943679	-0.382320
H104	H	2.131594	-0.443679	0.117680
H105	H	1.389045	-1.062957	-0.624660
H106	H	1.889045	-0.562957	-0.124660
C107	C	1.647346	-0.220578	-1.124157
C108	C	2.147346	0.279422	-0.624157
H109	H	1.687208	-0.196592	-1.076113
H110	H	2.187208	0.303408	-0.576113
H111	H	1.607375	-0.193162	-1.166750
H112	H	2.107375	0.306838	-0.666750
H113	H	1.692832	-0.244679	-1.166723
H114	H	2.192832	0.255321	-0.666723
H115	H	1.455871	-0.335844	-1.071189
H116	H	1.955871	0.164156	-0.571189
H117	H	0.906106	-0.374330	-0.621090
H118	H	1.406106	0.125670	-0.121090
H119	H	1.631421	-0.662105	-0.382244
H120	H	2.131421	-0.162105	0.117756
H121	H	0.943373	-0.270439	-0.449143
H122	H	1.443373	0.229561	0.050857
H123	H	1.631680	-1.062942	-0.382371
H124	H	2.131680	-0.562942	0.117629
C125	C	1.130849	-0.385817	-0.640110
C126	C	1.630849	0.114183	-0.140110
H127	H	1.082795	-0.409848	-0.679895
H128	H	1.582795	0.090152	-0.179895
H129	H	1.173394	-0.413188	-0.600009
H130	H	1.673394	0.086812	-0.100009
H131	H	1.173461	-0.361737	-0.685676
H132	H	1.673461	0.138263	-0.185676
H133	H	1.388721	-0.542847	-0.624515
H134	H	1.888721	-0.042847	-0.124515
C135	C	1.062301	-0.258917	-0.430084
C136	C	1.562301	0.241083	0.069916
H137	H	1.110354	-0.234878	-0.390310
H138	H	1.610354	0.265122	0.109690
H139	H	1.019681	-0.282989	-0.384524
H140	H	1.519681	0.217011	0.115476
H141	H	1.019763	-0.231542	-0.470197
H142	H	1.519763	0.268458	0.029803
C143	C	1.369690	-0.671505	-0.643620
C144	C	1.869690	-0.171505	-0.143620
H145	H	1.329857	-0.642514	-0.683388
H146	H	1.829857	-0.142514	-0.183388
H147	H	1.324193	-0.697195	-0.603615
H148	H	1.824193	-0.197195	-0.103615
H149	H	1.409665	-0.697105	-0.689196
H150	H	1.909665	-0.197105	-0.189196
H151	H	1.388965	-0.943688	-0.624620
H152	H	1.888965	-0.443688	-0.124620
H153	H	1.628182	-0.232122	-0.899409
H154	H	2.128182	0.267878	-0.399409
