data_functionalizedCrystal
_audit_creation_method	'MofGen! by Chris Wilmer'
_symmetry_space_group_name_H-M	'P1'
_symmetry_Int_Tables_number	1
_symmetry_cell_setting	triclinic
loop_
_symmetry_equiv_pos_as_xyz
  x,y,z
_cell_length_a	16.120484
_cell_length_b	17.077404
_cell_length_c	17.077396
_cell_angle_alpha	90.019699
_cell_angle_beta	92.868746
_cell_angle_gamma	87.077362
loop_
_atom_site_label
_atom_site_type_symbol
_atom_site_fract_x
_atom_site_fract_y
_atom_site_fract_z
Zn1	Zn	-0.331972	-1.184191	-0.459680
Zn2	Zn	-0.471395	-1.177436	-0.335064
Zn3	Zn	-0.331993	-1.052922	-0.328429
Zn4	Zn	-0.471338	-1.046231	-0.466285
O5	O	-0.401675	-1.115195	-0.397365
O6	O	-0.350482	-1.293141	-0.443163
O7	O	-0.452936	-1.160891	-0.224339
O8	O	-0.215325	-1.075962	-0.340299
O9	O	-0.452915	-1.288178	-0.351608
O10	O	-0.215309	-1.172405	-0.436729
O11	O	-0.350518	-1.069412	-0.219464
O12	O	-0.350463	-0.942188	-0.346703
O13	O	-0.452818	-1.064559	-0.575254
O14	O	-0.452839	-0.937272	-0.447985
O15	O	-0.350426	-1.165917	-0.570402
O16	O	-0.588053	-1.154404	-0.358012
O17	O	-0.588011	-1.058008	-0.454419
C18	C	-0.401648	-0.911248	-0.397341
C19	C	-0.401656	-0.823998	-0.397350
C20	C	-0.348413	-0.785588	-0.445103
C21	C	-0.348417	-0.703608	-0.445105
C22	C	-0.401669	-0.660038	-0.397358
C23	C	-0.454914	-0.698453	-0.349599
C24	C	-0.454906	-0.780433	-0.349594
C25	C	-0.454931	-0.527582	-0.349616
C26	C	-0.454941	-0.445597	-0.349622
C27	C	-0.348442	-0.450758	-0.445127
C28	C	-0.348433	-0.532737	-0.445121
C29	C	-0.401680	-0.571146	-0.397364
C30	C	-0.618282	-1.104768	-0.407669
C31	C	-0.710948	-1.100379	-0.412104
C32	C	-0.880609	-1.092371	-0.420216
C33	C	-0.921900	-1.138159	-0.374526
C34	C	-1.016305	-1.133703	-0.379040
C35	C	-0.786195	-1.096826	-0.415703
C36	C	-0.184221	-1.125684	-0.387037
C37	C	-0.091555	-1.130153	-0.382636
C38	C	-0.401613	-1.115245	-0.602106
C39	C	-0.401587	-1.115267	-0.689355
C40	C	-0.401698	-0.319938	-0.397383
C41	C	-0.401698	-0.407188	-0.397375
C42	C	-0.348267	-1.168046	-0.727819
C43	C	-0.348239	-1.168057	-0.809798
C44	C	-0.401536	-1.115291	-0.853312
C45	C	-0.454859	-1.062506	-0.814841
C46	C	-0.454882	-1.062492	-0.732863
C47	C	-0.454808	-1.062540	-0.985709
C48	C	-0.454787	-1.062555	-1.067693
C49	C	-0.348166	-1.168105	-1.062644
C50	C	-0.348189	-1.168091	-0.980666
C51	C	-0.401513	-1.115307	-0.942202
C52	C	-0.401676	-1.115193	-0.193417
C53	C	-0.401467	-1.115334	-0.106157
H54	H	-0.305075	-0.568209	-0.484006
H55	H	-0.916158	-1.049828	-0.462719
N56	N	-0.293761	-1.221987	-0.936203
N57	N	-0.323118	-1.270579	-0.891857
H58	H	-0.284676	-1.308642	-0.860453
N59	N	-0.293775	-1.221963	-0.849099
N60	N	-0.240628	-1.196917	-0.892312
H61	H	-0.202158	-1.234990	-0.920068
H62	H	-0.498184	-1.019587	-1.103119
H63	H	-0.498217	-1.019546	-0.954393
N64	N	-0.294037	-0.411547	-0.493912
N65	N	-0.299657	-0.420464	-0.566604
H66	H	-0.261233	-0.392772	-0.601059
N67	N	-0.509361	-1.008591	-0.693571
N68	N	-0.562504	-1.033638	-0.650355
H69	H	-0.600981	-0.995568	-0.622606
H70	H	-0.304869	-1.211016	-0.692397
N71	N	-0.877314	-1.191533	-0.321195
N72	N	-0.886877	-1.263523	-0.326901
H73	H	-0.855383	-1.301214	-0.289235
N74	N	-0.509333	-0.401081	-0.300856
N75	N	-0.562503	-0.352795	-0.330923
H76	H	-0.600919	-0.321354	-0.296482
N77	N	-0.293703	-1.222020	-1.101943
N78	N	-0.293686	-1.222026	-1.175137
H79	H	-0.255226	-1.260104	-1.202896
N80	N	-0.509281	-1.008595	-0.859293
N81	N	-0.479914	-0.960005	-0.903634
H82	H	-0.518349	-0.921928	-0.935030
N83	N	-0.509307	-0.566821	-0.300821
N84	N	-0.503678	-0.557908	-0.228130
H85	H	-0.542081	-0.585621	-0.193671
N86	N	-0.294004	-0.830079	-0.493874
N87	N	-0.217069	-0.824611	-0.485122
H88	H	-0.178638	-0.856031	-0.519566
N89	N	-0.294015	-0.664397	-0.493887
N90	N	-0.299627	-0.673316	-0.566578
H91	H	-0.261196	-0.645628	-0.601030
N92	N	-0.509322	-0.653950	-0.300837
N93	N	-0.586257	-0.659416	-0.309586
H94	H	-0.624687	-0.627987	-0.275149
N95	N	-0.509291	-0.819658	-0.300804
N96	N	-0.556832	-0.780749	-0.258173
H97	H	-0.595240	-0.808451	-0.223710
