data_functionalizedCrystal
_audit_creation_method	'MofGen! by Chris Wilmer'
_symmetry_space_group_name_H-M	'P1'
_symmetry_Int_Tables_number	1
_symmetry_cell_setting	triclinic
loop_
_symmetry_equiv_pos_as_xyz
  x,y,z
_cell_length_a	10.686220
_cell_length_b	19.121063
_cell_length_c	10.685880
_cell_angle_alpha	96.950877
_cell_angle_beta	89.641569
_cell_angle_gamma	96.652836
loop_
_atom_site_label
_atom_site_type_symbol
_atom_site_fract_x
_atom_site_fract_y
_atom_site_fract_z
Zn1	Zn	1.956641	-0.220680	-0.580432
Zn2	Zn	1.932645	-0.330611	-0.379675
Zn3	Zn	1.730668	-0.222121	-0.386872
Zn4	Zn	1.737791	-0.348580	-0.606918
O5	O	1.839436	-0.280498	-0.488474
O6	O	2.129575	-0.227140	-0.539705
O7	O	1.892829	-0.309303	-0.204523
O8	O	1.767706	-0.122999	-0.404476
O9	O	2.111945	-0.307906	-0.392210
O10	O	1.933727	-0.121941	-0.546683
O11	O	1.744438	-0.229595	-0.209810
O12	O	1.555496	-0.247019	-0.430158
O13	O	1.779845	-0.338531	-0.779511
O14	O	1.560729	-0.339928	-0.591825
O15	O	1.940633	-0.244563	-0.760052
O16	O	1.899736	-0.431925	-0.417892
O17	O	1.756577	-0.445127	-0.584846
C18	C	1.512447	-0.295580	-0.514647
C19	C	1.372560	-0.302051	-0.525875
C20	C	1.826362	-0.464177	-0.503487
C21	C	1.820886	-0.542752	-0.509942
C22	C	1.892917	-0.572770	-0.426113
C23	C	1.887775	-0.646600	-0.432191
C24	C	1.810596	-0.690411	-0.522093
C25	C	1.738563	-0.660389	-0.605932
C26	C	1.743712	-0.586560	-0.599859
C27	C	1.791323	-0.913671	-0.544781
C28	C	1.786177	-0.987505	-0.550846
C29	C	1.935391	-0.973711	-0.377105
C30	C	1.940528	-0.899881	-0.371035
C31	C	1.868500	-0.869865	-0.454878
C32	C	1.805336	-0.765877	-0.528306
C33	C	1.873768	-0.794400	-0.448670
C34	C	2.167702	-0.265357	-0.462200
C35	C	2.307590	-0.258905	-0.451004
C36	C	1.863710	-0.293391	-0.816721
C37	C	1.874054	-0.298885	-0.956601
C38	C	1.852598	-0.096101	-0.473428
C39	C	1.858207	-0.017522	-0.467016
C40	C	1.815333	-0.267601	-0.161494
C41	C	1.805247	-0.261896	-0.021580
H42	H	1.955758	-0.537103	-0.352899
H43	H	1.358983	-0.217017	-0.378312
O44	O	1.311212	-0.351937	-0.612731
C45	C	1.244030	-0.318433	-0.696854
H46	H	1.288258	-0.261256	-0.697091
H47	H	1.141744	-0.318991	-0.665645
C48	C	1.194751	-0.428542	-0.830294
C49	C	1.249079	-0.358319	-0.830593
H50	H	1.197859	-0.453146	-0.912790
H51	H	1.240008	-0.451116	-0.773617
H52	H	1.109517	-0.428998	-0.804281
H53	H	1.334315	-0.357864	-0.856590
H54	H	1.203836	-0.335746	-0.887278
O55	O	1.721408	-0.884605	-0.626387
C56	C	1.756841	-0.906255	-0.751126
H57	H	1.801692	-0.957703	-0.754306
H58	H	1.827534	-0.863343	-0.784985
C59	C	1.584374	-0.855186	-0.833443
C60	C	1.639452	-0.918378	-0.837351
H61	H	1.511966	-0.862661	-0.886633
H62	H	1.560504	-0.840598	-0.749404
H63	H	1.643297	-0.819432	-0.861656
H64	H	1.580534	-0.954128	-0.809123
H65	H	1.663309	-0.932973	-0.921387
H66	H	1.738414	-0.226027	-0.970201
H67	H	1.946429	-0.671036	-0.363927
O68	O	2.015620	-0.857427	-0.283673
C69	C	2.078076	-0.899754	-0.210966
H70	H	2.082528	-0.954195	-0.266494
H71	H	2.024452	-0.906015	-0.119676
C72	C	2.207253	-0.797127	-0.111654
C73	C	2.212731	-0.863990	-0.179859
H74	H	2.290313	-0.775066	-0.092459
H75	H	2.165173	-0.768610	-0.160633
H76	H	2.162561	-0.802354	-0.035587
H77	H	2.257408	-0.858762	-0.255930
H78	H	2.254822	-0.892506	-0.130891
H79	H	1.994034	-0.998158	-0.308847
H80	H	1.723345	-1.023175	-0.624076
H81	H	1.675728	-0.696066	-0.679138
O82	O	1.673623	-0.557515	-0.681353
C83	C	1.604424	-0.612013	-0.762029
H84	H	1.592612	-0.662829	-0.715151
H85	H	1.656971	-0.621455	-0.854598
C86	C	1.488316	-0.527732	-0.846011
C87	C	1.473799	-0.590143	-0.788430
H88	H	1.407742	-0.514242	-0.862302
H89	H	1.534939	-0.491015	-0.791661
H90	H	1.532109	-0.535609	-0.923145
H91	H	1.430020	-0.582263	-0.711291
H92	H	1.427165	-0.626859	-0.842767
H93	H	1.742494	-0.801557	-0.601502
H94	H	1.936612	-0.758727	-0.375476
H95	H	1.940886	-0.334760	-1.007987
