data_functionalizedCrystal
_audit_creation_method	'MofGen! by Chris Wilmer'
_symmetry_space_group_name_H-M	'P1'
_symmetry_Int_Tables_number	1
_symmetry_cell_setting	triclinic
loop_
_symmetry_equiv_pos_as_xyz
  x,y,z
_cell_length_a	23.532407
_cell_length_b	23.532407
_cell_length_c	9.730223
_cell_angle_alpha	89.997949
_cell_angle_beta	89.987127
_cell_angle_gamma	97.151287
loop_
_atom_site_label
_atom_site_type_symbol
_atom_site_fract_x
_atom_site_fract_y
_atom_site_fract_z
O1	O	0.069135	-0.755259	-0.114143
O2	O	0.079138	-0.589395	-0.114187
O3	O	-0.008795	-0.677328	-0.114125
O4	O	0.157068	-0.667325	-0.114205
O5	O	-0.008798	-0.677323	0.114454
O6	O	0.079136	-0.589390	0.114393
O7	O	0.069132	-0.755253	0.114437
Zn8	Zn	0.074134	-0.672320	0.150707
Zn9	Zn	0.074137	-0.672328	-0.150457
O10	O	0.157066	-0.667320	0.114375
C11	C	0.078882	-0.568176	0.000098
C12	C	0.078116	-0.504959	0.000083
C13	C	-0.030013	-0.677071	0.000171
C14	C	-0.093230	-0.676305	0.000192
C15	C	0.069388	-0.776472	0.000149
C16	C	0.070154	-0.839689	0.000154
C17	C	-0.359397	-0.621110	0.000092
C18	C	-0.299997	-0.621821	0.000102
O19	O	-0.263252	-0.578035	0.000047
N20	N	-0.277371	-0.674097	0.000132
C21	C	-0.314148	-0.725666	0.000137
O22	O	-0.289449	-0.770196	0.000162
C23	C	-0.373547	-0.724954	0.000116
C24	C	-0.396170	-0.672674	0.000101
C25	C	-0.382020	-0.568834	0.000074
C26	C	-0.441417	-0.568123	0.000066
C27	C	-0.478189	-0.619687	0.000075
C28	C	-0.455566	-0.671963	0.000093
C29	C	-0.410324	-0.776521	0.000111
C30	C	-0.469726	-0.775805	0.000090
C31	C	-0.492349	-0.723525	0.000074
C32	C	-0.551735	-0.722816	0.000093
N33	N	-0.574361	-0.670539	0.000064
C34	C	-0.537589	-0.618975	0.000055
C35	C	-0.189406	-0.727157	0.000178
C36	C	-0.130008	-0.727870	0.000208
C37	C	-0.115861	-0.624025	0.000171
C38	C	-0.175260	-0.623313	0.000151
C39	C	-0.212032	-0.674881	0.000148
C40	C	-0.662325	-0.617486	0.000039
C41	C	-0.721727	-0.616779	0.000036
C42	C	-0.735869	-0.720623	0.000066
C43	C	-0.676473	-0.721330	0.000076
C44	C	-0.639701	-0.669757	0.000057
O45	O	-0.588514	-0.766579	0.000143
O46	O	-0.562296	-0.574452	0.000012
C47	C	0.178283	-0.667577	0.000075
C48	C	0.241500	-0.668343	0.000045
C49	C	0.125350	-0.105856	0.000122
C50	C	0.124638	-0.046456	0.000131
O51	O	0.168424	-0.009711	0.000160
N52	N	0.072362	-0.023830	0.000154
C53	C	0.020794	-0.060607	0.000182
O54	O	-0.023737	-0.035908	0.000203
C55	C	0.021506	-0.120006	0.000183
C56	C	0.073785	-0.142629	0.000146
C57	C	0.177625	-0.128480	0.000087
C58	C	0.178336	-0.187876	0.000076
C59	C	0.126772	-0.224649	0.000100
C60	C	0.074496	-0.202025	0.000135
C61	C	-0.030062	-0.156783	0.000221
C62	C	-0.029345	-0.216185	0.000223
C63	C	0.022934	-0.238808	0.000186
C64	C	0.023643	-0.298194	0.000148
N65	N	0.075920	-0.320821	0.000125
C66	C	0.127484	-0.284048	0.000101
C67	C	0.019302	0.064135	0.000182
C68	C	0.018589	0.123533	0.000171
C69	C	0.122434	0.137680	0.000123
C70	C	0.123146	0.078281	0.000124
C71	C	0.071578	0.041509	0.000159
C72	C	0.128974	-0.408784	0.000076
C73	C	0.129680	-0.468186	0.000059
C74	C	0.025836	-0.482329	0.000114
C75	C	0.025129	-0.422932	0.000124
C76	C	0.076702	-0.386160	0.000110
O77	O	-0.020119	-0.334974	0.000124
O78	O	0.172007	-0.308756	0.000097
N79	N	0.074131	-0.672320	0.356243
N80	N	0.074135	-0.672333	-0.355994
C81	C	0.035210	-0.711269	0.428196
C82	C	0.035210	-0.711275	0.572079
C83	C	0.113057	-0.633379	0.572043
C84	C	0.113054	-0.633371	0.428163
H85	H	-0.632392	-0.575489	0.000023
H86	H	0.144748	-0.601669	0.630614
H87	H	0.003517	-0.742991	0.630660
H88	H	0.219617	-0.098544	0.000072
C89	C	-0.007106	-0.753446	0.349971
C90	C	-0.041805	-0.723284	0.267419
C91	C	-0.080802	-0.762112	0.195347
H92	H	-0.030340	-0.776645	0.413308
H93	H	0.013216	-0.777041	0.293718
H94	H	-0.062126	-0.699699	0.323667
H95	H	-0.018587	-0.700087	0.204057
H96	H	-0.060480	-0.785706	0.139094
H97	H	-0.104032	-0.785309	0.258694
H98	H	-0.104347	-0.741652	0.139317
H99	H	-0.017441	-0.404512	0.000134
H100	H	-0.499664	-0.817799	0.000081
C101	C	-0.652018	-0.778149	0.000021
C102	C	-0.696939	-0.823154	-0.000005
C103	C	-0.674438	-0.875503	-0.000095
H104	H	-0.629154	-0.780669	0.079705
H105	H	-0.629153	-0.780614	-0.079728
H106	H	-0.719794	-0.820689	0.079735
H107	H	-0.719807	-0.820652	-0.079683
H108	H	-0.651573	-0.877969	-0.079843
H109	H	-0.651574	-0.878018	0.079590
H110	H	-0.704913	-0.906045	-0.000125
H111	H	0.165717	0.059866	0.000102
H112	H	0.144748	-0.601651	0.369574
C113	C	-0.746177	-0.559956	-0.000057
C114	C	-0.701255	-0.514953	-0.000105
C115	C	-0.723754	-0.462602	-0.000212
H116	H	-0.769055	-0.557434	0.079627
H117	H	-0.769028	-0.557491	-0.079805
H118	H	-0.678413	-0.517417	0.079635
H119	H	-0.678374	-0.517457	-0.079783
H120	H	-0.746605	-0.460137	-0.079960
H121	H	-0.746631	-0.460086	0.079473
H122	H	-0.693278	-0.432061	-0.000257
C123	C	-0.465862	-0.511302	-0.000036
C124	C	-0.420936	-0.466303	-0.000081
C125	C	-0.443428	-0.413949	-0.000199
H126	H	-0.488742	-0.508776	0.079644
H127	H	-0.488711	-0.508836	-0.079788
H128	H	-0.398097	-0.468769	0.079663
H129	H	-0.398053	-0.468811	-0.079755
H130	H	-0.466277	-0.411483	-0.079951
H131	H	-0.466307	-0.411429	0.079482
H132	H	-0.412949	-0.383412	-0.000242
C133	C	-0.038231	0.147980	0.000264
C134	C	-0.083232	0.103055	0.000315
C135	C	-0.135584	0.125551	0.000427
H136	H	-0.040750	0.170852	-0.079420
H137	H	-0.040701	0.170837	0.080012
H138	H	-0.080762	0.080208	-0.079425
H139	H	-0.080731	0.080180	0.079993
H140	H	-0.138055	0.148408	0.080176
H141	H	-0.138098	0.148423	-0.079258
H142	H	-0.166124	0.095074	0.000475
H143	H	-0.765820	-0.762606	0.000080
C144	C	0.185028	-0.368962	-0.000022
C145	C	0.230955	-0.401498	-0.000095
C146	C	0.282601	-0.364834	-0.000216
H147	H	0.186998	-0.345484	0.079666
H148	H	0.186942	-0.345503	-0.079766
H149	H	0.229043	-0.424947	0.079641
H150	H	0.229005	-0.424975	-0.079778
H151	H	0.284514	-0.341375	-0.079959
H152	H	0.284564	-0.341358	0.079474
H153	H	0.313768	-0.386904	-0.000278
H154	H	-0.072634	-0.138374	0.000252
H155	H	0.220908	-0.206289	0.000045
H156	H	-0.085909	-0.582038	0.000165
C157	C	-0.036647	0.024146	-0.000020
C158	C	-0.039266	-0.010375	-0.117603
C159	C	-0.090794	-0.047221	-0.117826
H160	H	-0.067927	0.046061	-0.000080
H161	H	-0.038540	0.000644	0.079649
H162	H	-0.037379	0.013125	-0.197251
H163	H	-0.007998	-0.032302	-0.117568
H164	H	-0.092686	-0.070723	-0.038157
H165	H	-0.122069	-0.025301	-0.117882
H166	H	-0.092575	-0.070651	-0.197597
C167	C	-0.085397	-0.256015	0.000182
C168	C	-0.131328	-0.223483	0.000178
C169	C	-0.182970	-0.260153	0.000115
H170	H	-0.087362	-0.279498	0.079867
H171	H	-0.087310	-0.279468	-0.079565
H172	H	-0.129416	-0.200040	0.079917
H173	H	-0.129382	-0.200001	-0.079501
H174	H	-0.184883	-0.283606	-0.079632
H175	H	-0.184929	-0.283634	0.079801
H176	H	-0.214140	-0.238086	0.000100
H177	H	-0.016146	-0.512280	0.000129
H178	H	-0.193674	-0.580742	0.000143
C179	C	-0.342074	-0.512861	-0.000214
C180	C	-0.307550	-0.510221	-0.117816
C181	C	-0.270755	-0.458660	-0.118126
H182	H	-0.318567	-0.510920	0.079414
H183	H	-0.364044	-0.481615	-0.000302
H184	H	-0.285582	-0.541458	-0.117715
H185	H	-0.331041	-0.512152	-0.197462
H186	H	-0.292724	-0.427414	-0.118214
H187	H	-0.247252	-0.456723	-0.038494
H188	H	-0.247329	-0.456859	-0.197923
C189	C	-0.229234	-0.783211	0.000267
C190	C	-0.196699	-0.829139	0.000335
C191	C	-0.233365	-0.880783	0.000434
H192	H	-0.252703	-0.785181	-0.079427
H193	H	-0.252702	-0.785122	0.080006
H194	H	-0.173241	-0.827229	-0.079395
H195	H	-0.173231	-0.827188	0.080023
H196	H	-0.256833	-0.882694	0.080173
H197	H	-0.256832	-0.882747	-0.079261
H198	H	-0.211295	-0.911951	0.000493
H199	H	0.164421	0.167632	0.000110
C200	C	-0.385883	-0.833342	0.000053
C201	C	-0.430811	-0.878340	0.000012
C202	C	-0.408321	-0.930695	-0.000062
H203	H	-0.363026	-0.835866	0.079746
H204	H	-0.363013	-0.835813	-0.079686
H205	H	-0.453672	-0.875870	0.079743
H206	H	-0.453673	-0.875835	-0.079675
H207	H	-0.385451	-0.933165	-0.079800
H208	H	-0.385463	-0.933213	0.079633
H209	H	-0.438801	-0.961232	-0.000102
H210	H	0.172255	-0.486602	0.000028
H211	H	-0.111594	-0.770441	0.000243
