data_functionalizedCrystal
_audit_creation_method	'MofGen! by Chris Wilmer'
_symmetry_space_group_name_H-M	'P1'
_symmetry_Int_Tables_number	1
_symmetry_cell_setting	triclinic
loop_
_symmetry_equiv_pos_as_xyz
  x,y,z
_cell_length_a	23.532407
_cell_length_b	12.837942
_cell_length_c	11.892095
_cell_angle_alpha	85.697431
_cell_angle_beta	86.123081
_cell_angle_gamma	91.161191
loop_
_atom_site_label
_atom_site_type_symbol
_atom_site_fract_x
_atom_site_fract_y
_atom_site_fract_z
O1	O	0.765758	-0.119101	-0.094067
O2	O	0.600938	-0.137299	-0.094056
O3	O	0.679693	0.022664	-0.094054
O4	O	0.687003	-0.279065	-0.094069
O5	O	0.673125	0.009347	0.093953
O6	O	0.594371	-0.150616	0.093952
O7	O	0.759190	-0.132418	0.093940
Zn8	Zn	0.675738	-0.143632	0.123796
Zn9	Zn	0.684391	-0.126086	-0.123912
O10	O	0.680435	-0.292382	0.093939
C11	C	0.576412	-0.143495	-0.000050
C12	C	0.513115	-0.142102	-0.000046
C13	C	0.783717	-0.126223	-0.000068
C14	C	0.847014	-0.127615	-0.000080
C15	C	1.241186	-0.041693	-0.000036
C16	C	1.300660	-0.042988	-0.000032
O17	O	1.332833	0.036662	0.000013
N18	N	1.328743	-0.138086	-0.000039
C19	C	1.297348	-0.231896	-0.000041
O20	O	1.326696	-0.312903	-0.000046
C21	C	1.237874	-0.230601	-0.000038
C22	C	1.209795	-0.135496	-0.000041
C23	C	1.213106	0.053404	-0.000039
C24	C	1.153636	0.054698	-0.000046
C25	C	1.122245	-0.039105	-0.000051
C26	C	1.150325	-0.134202	-0.000048
C27	C	1.206480	-0.324411	-0.000031
C28	C	1.147003	-0.323107	-0.000027
C29	C	1.118923	-0.228003	-0.000030
C30	C	1.059464	-0.226710	-0.000060
N31	N	1.031381	-0.131612	-0.000052
C32	C	1.062772	-0.037810	-0.000047
C33	C	1.422246	-0.234609	-0.000045
C34	C	1.481719	-0.235905	-0.000056
C35	C	1.485027	-0.046996	-0.000045
C36	C	1.425553	-0.045701	-0.000042
C37	C	1.394163	-0.139511	-0.000037
C38	C	0.937880	-0.035099	-0.000063
C39	C	0.878405	-0.033812	-0.000075
C40	C	0.875102	-0.222721	-0.000080
C41	C	0.934572	-0.224007	-0.000075
C42	C	0.965960	-0.130188	-0.000062
O43	O	1.027254	-0.306319	-0.000100
O44	O	1.033416	0.043183	-0.000027
C45	C	0.673940	0.054601	-0.000051
C46	C	0.666576	0.169602	-0.000052
C47	C	0.686188	-0.324318	-0.000067
C48	C	0.693553	-0.439319	-0.000073
N49	N	0.669836	-0.155605	0.292850
C50	C	0.755110	0.411475	-0.000082
C51	C	0.748193	0.519529	-0.000084
C52	C	0.645826	0.493769	-0.000065
C53	C	0.652743	0.385715	-0.000063
C54	C	0.707387	0.344571	-0.000070
C55	C	0.714303	0.236514	-0.000061
C56	C	0.611936	0.210757	-0.000050
C57	C	0.605019	0.318811	-0.000051
N58	N	0.690296	-0.114104	-0.292966
C59	C	0.731357	-0.030725	0.529499
C60	C	0.727237	-0.039102	0.647841
C61	C	0.657472	-0.180731	0.647878
C62	C	0.661593	-0.172354	0.529536
C63	C	0.698537	-0.097349	0.470351
C64	C	0.702660	-0.088978	0.352007
C65	C	0.632893	-0.230602	0.352046
C66	C	0.628773	-0.238979	0.470388
H67	H	0.855546	0.043637	-0.000081
Cl68	Cl	1.252558	0.171344	-0.000032
Cl69	Cl	1.118345	0.174266	-0.000060
Cl70	Cl	0.823802	0.359746	-0.000063
Cl71	Cl	0.577138	0.545514	-0.000089
Cl72	Cl	0.611025	-0.275007	0.722293
H73	H	0.787055	0.573999	-0.000097
Cl74	Cl	0.536329	0.370546	-0.000052
Cl75	Cl	0.551937	0.126642	-0.000021
Cl76	Cl	0.768497	0.044661	0.722196
H77	H	0.761443	0.030340	0.481310
H78	H	0.957436	-0.301449	-0.000073
Cl79	Cl	0.977330	0.082847	-0.000051
H80	H	0.598692	-0.300044	0.518590
H81	H	1.402695	0.031742	-0.000044
H82	H	1.510596	0.029383	-0.000041
Cl83	Cl	1.517012	-0.355468	-0.000075
Cl84	Cl	1.382791	-0.352553	-0.000054
Cl85	Cl	0.591636	-0.314368	0.277677
H86	H	1.229332	-0.401855	-0.000033
H87	H	1.121448	-0.399501	-0.000018
Cl88	Cl	0.835629	-0.340637	-0.000091
H89	H	0.758796	0.203017	-0.000062
H90	H	0.732743	-0.027908	0.303819
