data_functionalizedCrystal
_audit_creation_method	'MofGen! by Chris Wilmer'
_symmetry_space_group_name_H-M	'P1'
_symmetry_Int_Tables_number	1
_symmetry_cell_setting	triclinic
loop_
_symmetry_equiv_pos_as_xyz
  x,y,z
_cell_length_a	10.654550
_cell_length_b	10.489741
_cell_length_c	9.730223
_cell_angle_alpha	89.995878
_cell_angle_beta	89.999957
_cell_angle_gamma	84.512052
loop_
_atom_site_label
_atom_site_type_symbol
_atom_site_fract_x
_atom_site_fract_y
_atom_site_fract_z
O1	O	1.667923	0.179162	-0.114186
O2	O	1.302452	0.196231	-0.114212
O3	O	1.493504	0.002095	-0.114190
O4	O	1.476872	0.373298	-0.114208
O5	O	1.493491	0.002089	0.114390
O6	O	1.302440	0.196226	0.114368
O7	O	1.667911	0.179157	0.114393
Zn8	Zn	1.485173	0.187690	0.150673
Zn9	Zn	1.485190	0.187697	-0.150491
O10	O	1.476859	0.373293	0.114372
C11	C	1.255648	0.194975	0.000075
C12	C	1.116203	0.191225	0.000066
C13	C	1.036771	0.305530	0.000064
C14	C	0.905748	0.301999	0.000088
C15	C	0.933603	0.069849	0.000110
C16	C	1.064623	0.073381	0.000095
C17	C	1.492241	-0.045439	0.000099
C18	C	1.488483	-0.187067	0.000096
C19	C	1.366923	-0.255148	0.000078
C20	C	1.424341	-0.347301	0.112783
C21	C	1.424382	-0.347270	-0.112579
C22	C	1.545951	-0.277354	0.112895
C23	C	1.545975	-0.277314	-0.112568
C24	C	1.603481	-0.369439	0.000165
C25	C	1.714715	0.180413	0.000104
C26	C	1.854160	0.184162	0.000104
C27	C	1.478122	0.420827	0.000080
C28	C	1.481880	0.562454	0.000074
N29	N	1.485171	0.187685	0.356209
N30	N	1.485201	0.187693	-0.356027
C31	C	1.569798	0.101758	0.428145
C32	C	1.569811	0.101758	0.572028
C33	C	1.400566	0.273624	0.572027
C34	C	1.400548	0.273616	0.428147
H35	H	1.266977	-0.205449	0.000184
H36	H	1.129300	-0.019705	0.000100
H37	H	0.891590	-0.026096	0.000142
O38	O	1.362778	-0.384195	0.226347
C39	C	1.168532	-0.367277	0.354792
C40	C	1.238100	-0.325423	0.226116
H41	H	1.067726	-0.319757	0.354662
H42	H	1.166964	-0.475793	0.354216
H43	H	1.219446	-0.337197	0.450819
H44	H	1.187242	-0.355415	0.130021
H45	H	1.239679	-0.216909	0.226813
H46	H	1.597336	-0.246549	0.208286
O47	O	1.722840	-0.428415	0.000485
C48	C	1.921713	-0.459590	0.119561
C49	C	1.786568	-0.392740	0.119379
H50	H	1.973284	-0.430751	0.215662
H51	H	1.918054	-0.567850	0.118737
H52	H	1.973881	-0.429587	0.024351
H53	H	1.734322	-0.422639	0.214573
H54	H	1.790317	-0.284493	0.120132
O55	O	1.607108	-0.240329	-0.226376
C56	C	1.612200	-0.233688	-0.473843
C57	C	1.542841	-0.275621	-0.345058
H58	H	1.560283	-0.262229	-0.569830
H59	H	1.615236	-0.125355	-0.472291
H60	H	1.712494	-0.282520	-0.474741
H61	H	1.442516	-0.226881	-0.344077
H62	H	1.539906	-0.383966	-0.346660
O63	O	1.318199	0.356969	0.641852
C64	C	1.100505	0.429693	0.685843
C65	C	1.193645	0.335211	0.606708
H66	H	0.999784	0.412154	0.657437
H67	H	1.114948	0.414939	0.801051
H68	H	1.117843	0.532008	0.657554
H69	H	1.176364	0.232860	0.634883
H70	H	1.179181	0.350077	0.491520
H71	H	1.372936	-0.378207	-0.207872
H72	H	1.078762	0.401486	0.000050
H73	H	1.331629	0.343589	0.369573
H74	H	1.638702	0.031785	0.369576
O75	O	0.828642	0.413070	-0.000163
C76	C	0.764795	0.610438	-0.118562
C77	C	0.852168	0.484679	-0.118467
H78	H	0.783803	0.668381	-0.214186
H79	H	0.662265	0.587754	-0.118630
H80	H	0.783694	0.668321	-0.022870
H81	H	0.833381	0.426734	-0.214143
H82	H	0.954669	0.507452	-0.118327
H83	H	1.638720	0.031787	0.630593
