data_functionalizedCrystal
_audit_creation_method	'MofGen! by Chris Wilmer'
_symmetry_space_group_name_H-M	'P1'
_symmetry_Int_Tables_number	1
_symmetry_cell_setting	triclinic
loop_
_symmetry_equiv_pos_as_xyz
  x,y,z
_cell_length_a	16.098538
_cell_length_b	19.288864
_cell_length_c	19.288865
_cell_angle_alpha	83.136245
_cell_angle_beta	92.708117
_cell_angle_gamma	87.256992
loop_
_atom_site_label
_atom_site_type_symbol
_atom_site_fract_x
_atom_site_fract_y
_atom_site_fract_z
O1	O	0.069533	-0.924481	-0.083521
O2	O	0.069478	-0.722217	-0.095213
O3	O	0.069491	-0.829193	0.011763
O4	O	0.069520	-0.817505	-0.190497
O5	O	-0.069023	-0.822944	0.005538
O6	O	-0.069036	-0.715969	-0.101437
O7	O	-0.068980	-0.918232	-0.089746
Zn8	Zn	-0.091000	-0.816108	-0.096580
Zn9	Zn	0.091498	-0.824341	-0.088379
O10	O	-0.068993	-0.811256	-0.196721
C11	C	0.000213	-0.693216	-0.097949
C12	C	0.000192	-0.616112	-0.096821
N13	N	-0.215550	-0.810494	-0.102176
C14	C	0.000231	-0.825692	0.034527
C15	C	0.000224	-0.824563	0.111630
C16	C	-0.259130	-0.855915	-0.056788
C17	C	-0.346319	-0.851994	-0.060709
C18	C	-0.389927	-0.802655	-0.110023
C19	C	-0.346342	-0.757230	-0.155414
C20	C	-0.259154	-0.761147	-0.151489
C21	C	-0.653179	-0.788453	-0.124242
C22	C	-0.740373	-0.784539	-0.128165
C23	C	-0.740344	-0.879304	-0.033459
C24	C	-0.653155	-0.883220	-0.029541
C25	C	-0.609577	-0.837792	-0.074929
C26	C	-0.479049	-0.798648	-0.114035
C27	C	-0.520457	-0.841796	-0.070914
N28	N	0.216047	-0.829961	-0.082777
C29	C	0.000286	-0.947233	-0.087009
C30	C	0.000313	-1.024338	-0.088137
C31	C	0.000214	-0.571416	-0.159588
C32	C	0.000223	-0.498970	-0.158527
C33	C	0.000226	-0.471222	-0.094695
C34	C	0.000199	-0.515927	-0.031920
C35	C	0.000182	-0.588372	-0.032983
C36	C	0.048774	-0.365151	-0.042334
C37	C	0.048797	-0.292707	-0.041273
C38	C	0.000276	-0.247779	-0.091413
C39	C	-0.048256	-0.275302	-0.142625
C40	C	-0.048274	-0.347747	-0.143688
C41	C	0.000245	-0.392669	-0.093535
C42	C	0.000307	-0.124528	-0.153033
C43	C	0.000311	-0.052080	-0.151970
C44	C	0.000296	-0.069040	-0.025360
C45	C	0.000284	-0.141486	-0.026426
C46	C	0.000293	-0.169225	-0.090264
C47	C	0.000268	-0.814757	-0.219485
C48	C	0.000281	-0.815887	-0.296588
C49	C	0.000237	-0.887331	0.156327
C50	C	0.000250	-0.886271	0.228775
C51	C	0.000233	-0.822438	0.256521
C52	C	0.000224	-0.759662	0.211815
C53	C	0.000220	-0.760724	0.139369
C54	C	-0.048300	-0.770069	0.362628
C55	C	-0.048300	-0.769009	0.435072
C56	C	0.000250	-0.819159	0.479968
C57	C	0.048791	-0.870381	0.452411
C58	C	0.048786	-0.871443	0.379965
C59	C	0.000238	-0.821279	0.335076
C60	C	0.000279	-0.880783	0.603221
C61	C	0.000297	-0.879720	0.675670
C62	C	0.000263	-0.753109	0.658708
C63	C	0.000253	-0.754173	0.586262
C64	C	0.000257	-0.818012	0.558522
H65	H	-0.381801	-0.888979	-0.023750
H66	H	-0.775834	-0.916289	0.003494
H67	H	-0.223672	-0.724160	-0.188448
H68	H	0.000324	-0.015689	-0.203085
O69	O	-0.526090	-0.745439	-0.167226
H70	H	-0.481142	-0.714508	-0.198131
O71	O	-0.100675	-0.715980	0.314207
H72	H	-0.080724	-0.662997	0.321817
H73	H	0.000238	-0.703060	0.549868
H74	H	0.000253	-0.701135	0.681299
H75	H	-0.087820	-0.727299	0.457503
O76	O	0.000218	-0.601331	-0.228442
H77	H	0.000208	-0.659217	-0.218639
O78	O	0.000256	-0.450749	-0.226227
H79	H	0.000266	-0.482210	-0.270795
H80	H	-0.484948	-0.881966	-0.030760
H81	H	-0.775875	-0.744360	-0.168325
H82	H	0.000264	-0.937386	0.265174
O83	O	-0.393377	-0.704019	-0.208608
H84	H	-0.348423	-0.673091	-0.239508
O85	O	-0.212096	-0.909128	-0.003596
H86	H	-0.257051	-0.940048	0.027311
O87	O	0.000196	-0.690810	0.241734
H88	H	0.000190	-0.700616	0.299620
H89	H	-0.617705	-0.751464	-0.161200
H90	H	-0.617651	-0.923396	0.010615
H91	H	0.000213	-0.493331	0.020054
H92	H	-0.087793	-0.370153	-0.185384
O93	O	0.000201	-0.693020	0.091154
H94	H	-0.056257	-0.687934	0.055214
H95	H	-0.087767	-0.238723	-0.183453
O96	O	0.101133	-0.263030	0.013969
H97	H	0.167652	-0.279007	0.009600
H98	H	0.000303	-0.147114	-0.205015
H99	H	0.000164	-0.624764	0.018131
O100	O	0.000300	-0.039125	0.043491
H101	H	0.000320	0.018760	0.033687
H102	H	0.000270	-0.177878	0.024686
O103	O	0.101115	-0.413608	0.011745
H104	H	0.134876	-0.382300	0.047525
O105	O	0.000264	-0.956183	0.126407
H106	H	0.000288	-0.999653	0.169664
H107	H	0.088311	-0.913148	0.357532
H108	H	0.088326	-0.911217	0.488964
H109	H	0.000286	-0.932764	0.580635
H110	H	0.000312	-0.930836	0.712063
