data_functionalizedCrystal
_audit_creation_method	'MofGen! by Chris Wilmer'
_symmetry_space_group_name_H-M	'P1'
_symmetry_Int_Tables_number	1
_symmetry_cell_setting	triclinic
loop_
_symmetry_equiv_pos_as_xyz
  x,y,z
_cell_length_a	14.044191
_cell_length_b	13.101039
_cell_length_c	15.624967
_cell_angle_alpha	104.676249
_cell_angle_beta	88.493810
_cell_angle_gamma	93.662449
loop_
_atom_site_label
_atom_site_type_symbol
_atom_site_fract_x
_atom_site_fract_y
_atom_site_fract_z
O1	O	1.267952	0.162729	0.208711
O2	O	0.991797	0.159881	0.201012
O3	O	1.134329	0.113689	0.076756
O4	O	1.125420	0.208920	0.332967
O5	O	1.124103	-0.053420	0.085687
O6	O	0.981571	-0.007229	0.209944
O7	O	1.257726	-0.004381	0.217642
Zn8	Zn	1.118025	-0.032337	0.215211
Zn9	Zn	1.131498	0.187837	0.203444
O10	O	1.115193	0.041810	0.341899
C11	C	0.951289	0.075076	0.202110
C12	C	0.845821	0.071347	0.192065
C13	C	0.596809	0.090991	0.244943
C14	C	0.652720	0.064518	0.173715
C15	C	0.760171	0.068319	0.183927
C16	C	0.489348	0.087191	0.234732
N17	N	1.108836	-0.182600	0.223242
C18	C	1.096336	-0.387578	0.234177
C19	C	1.153192	-0.456930	0.184474
C20	C	1.146236	-0.570987	0.190559
C21	C	1.103290	-0.273510	0.228094
C22	C	1.298234	0.080426	0.216544
C23	C	1.403703	0.084161	0.226589
C24	C	1.127797	0.017876	0.048234
C25	C	1.123558	-0.018652	-0.050060
N26	N	1.140694	0.338098	0.195406
C27	C	1.112009	-0.161224	-0.183738
C28	C	1.115993	-0.126889	-0.091377
C29	C	1.127146	0.055293	-0.101096
C30	C	1.123168	0.020974	-0.193460
C31	C	1.115598	-0.087285	-0.234774
C32	C	1.126757	0.094913	-0.244496
C33	C	1.122774	0.060596	-0.336852
C34	C	1.115201	-0.047659	-0.378172
C35	C	1.111615	-0.121602	-0.327130
C36	C	1.134319	0.203172	-0.203180
C37	C	1.137908	0.277110	-0.254216
C38	C	1.133932	0.242794	-0.346574
C39	C	1.126360	0.134539	-0.387894
C40	C	1.137518	0.316737	-0.397616
C41	C	1.133535	0.282420	-0.489972
C42	C	1.122377	0.100223	-0.480250
C43	C	1.121726	0.137626	0.370421
C44	C	1.125966	0.174161	0.468714
H45	H	0.629638	0.116509	0.313588
H46	H	1.143673	0.404882	-0.363964
C47	C	1.226015	-0.421425	0.120823
C48	C	1.232913	-0.305699	0.114703
C49	C	1.305736	-0.270186	0.051058
C50	C	1.371661	-0.350399	-0.006468
C51	C	1.364765	-0.466132	-0.000350
C52	C	1.291942	-0.501645	0.063295
H53	H	1.184110	-0.246314	0.157289
H54	H	1.310841	-0.184512	0.046529
H55	H	1.425569	-0.324110	-0.053582
H56	H	1.413569	-0.525517	-0.042936
H57	H	1.286838	-0.587319	0.067823
C58	C	1.137485	0.363746	-0.546122
C59	C	1.224807	0.442289	-0.540994
C60	C	1.228751	0.523614	-0.597145
C61	C	1.145373	0.526398	-0.658424
C62	C	1.058044	0.447852	-0.663555
C63	C	1.054100	0.366527	-0.607403
H64	H	1.286534	0.440231	-0.495629
H65	H	1.293398	0.581759	-0.593347
H66	H	1.148292	0.586600	-0.699991
H67	H	0.996317	0.449910	-0.708920
H68	H	0.989453	0.308382	-0.611202
H69	H	0.619894	0.039073	0.105061
H70	H	1.042440	-0.413859	0.281295
H71	H	1.116218	0.012067	-0.513890
C72	C	1.103286	-0.240686	-0.372598
C73	C	1.016839	-0.287981	-0.431209
C74	C	1.008505	-0.407057	-0.476684
C75	C	1.086617	-0.478837	-0.463549
C76	C	1.173071	-0.431543	-0.404936
C77	C	1.181405	-0.312467	-0.359461
H78	H	0.959009	-0.234844	-0.440935
H79	H	0.944506	-0.442067	-0.520074
H80	H	1.080448	-0.566984	-0.497213
H81	H	1.230900	-0.484680	-0.395210
H82	H	1.245403	-0.277458	-0.316071
C83	C	1.112048	-0.208226	-0.035233
C84	C	1.031080	-0.208357	0.033145
C85	C	1.027131	-0.289689	0.089291
C86	C	1.104152	-0.370889	0.077059
C87	C	1.185126	-0.370761	0.008678
C88	C	1.189075	-0.289429	-0.047468
H89	H	0.974059	-0.148245	0.042203
H90	H	0.967188	-0.289784	0.139911
H91	H	1.101229	-0.431096	0.118622
H92	H	1.242147	-0.430873	-0.000379
H93	H	1.249018	-0.289335	-0.098088
C94	C	1.135478	0.174375	-0.055645
C95	C	1.221710	0.243477	-0.075902
C96	C	1.230047	0.362559	-0.030452
C97	C	1.152153	0.412540	0.035254
C98	C	1.065915	0.343438	0.055514
C99	C	1.057578	0.224355	0.010065
H100	H	1.279378	0.206478	-0.124544
H101	H	1.293887	0.413713	-0.045450
H102	H	1.158324	0.500693	0.068899
H103	H	1.008247	0.380436	0.104157
H104	H	0.993738	0.173201	0.025063
H105	H	1.111950	-0.075597	-0.453375
H106	H	1.105851	-0.249379	-0.217379
H107	H	1.137548	0.231109	-0.127977
H108	H	1.144069	0.365256	-0.220565
