data_functionalizedCrystal
_audit_creation_method	'MofGen! by Chris Wilmer'
_symmetry_space_group_name_H-M	'P1'
_symmetry_Int_Tables_number	1
_symmetry_cell_setting	triclinic
loop_
_symmetry_equiv_pos_as_xyz
  x,y,z
_cell_length_a	19.188933
_cell_length_b	19.188924
_cell_length_c	10.268362
_cell_angle_alpha	89.992651
_cell_angle_beta	89.996830
_cell_angle_gamma	83.143767
loop_
_atom_site_label
_atom_site_type_symbol
_atom_site_fract_x
_atom_site_fract_y
_atom_site_fract_z
O1	O	0.926142	0.087175	-0.108263
O2	O	0.722830	0.098908	-0.108276
O3	O	0.830356	-0.008615	-0.108253
O4	O	0.818616	0.194697	-0.108285
O5	O	0.830346	-0.008619	0.108347
O6	O	0.722821	0.098903	0.108325
O7	O	0.926132	0.087170	0.108338
Cu8	Cu	0.824476	0.093037	0.128109
Cu9	Cu	0.824487	0.093042	-0.128047
O10	O	0.818607	0.194693	0.108316
C11	C	0.696815	0.098525	0.000023
C12	C	0.619310	0.097384	0.000019
C13	C	0.829972	-0.034628	0.000048
C14	C	0.828833	-0.112133	0.000051
C15	C	0.066060	0.089241	-0.118035
C16	C	0.138884	0.090309	-0.118040
C17	C	0.175296	0.090844	0.000028
C18	C	0.138880	0.090293	0.118111
C19	C	0.066058	0.089218	0.118113
N20	N	0.284312	0.132261	0.087906
N21	N	0.353489	0.133284	0.087896
C22	C	0.394705	0.094082	0.000030
N23	N	0.364129	0.053828	-0.087846
N24	N	0.294944	0.052808	-0.087840
C25	C	0.254260	0.092010	0.000040
C26	C	0.510077	0.095787	-0.118051
C27	C	0.582903	0.096850	-0.118051
C28	C	0.582897	0.096841	0.118104
C29	C	0.510073	0.095770	0.118100
C30	C	0.473667	0.095246	0.000020
C31	C	0.828307	-0.148529	-0.118018
C32	C	0.827227	-0.221352	-0.118028
C33	C	0.826687	-0.257777	0.000038
C34	C	0.827210	-0.221371	0.118123
C35	C	0.828283	-0.148549	0.118130
N36	N	0.864731	-0.377442	0.087914
N37	N	0.863713	-0.446620	0.087900
C38	C	0.823453	-0.477186	0.000025
N39	N	0.784258	-0.435962	-0.087854
N40	N	0.785279	-0.366778	-0.087844
C41	C	0.825523	-0.336741	0.000044
C42	C	0.821755	-0.592545	-0.118063
C43	C	0.820670	-0.665369	-0.118068
C44	C	0.820661	-0.665388	0.118087
C45	C	0.821738	-0.592565	0.118088
C46	C	0.822288	-0.556149	0.000010
C47	C	0.952148	0.087553	0.000036
C48	C	1.029653	0.088694	0.000032
C49	C	0.818991	0.220706	0.000011
C50	C	0.820130	0.298211	-0.000001
N51	N	0.824473	0.093032	0.308275
N52	N	0.824495	0.093040	-0.308212
C53	C	0.824483	0.093040	0.573945
C54	C	0.824476	0.093038	0.426107
H55	H	0.168533	0.090759	-0.214187
H56	H	0.820238	-0.695001	-0.214218
O57	O	0.026797	0.088637	-0.245387
H58	H	0.064356	0.089180	-0.327488
O59	O	0.622171	0.097439	-0.245407
H60	H	0.661712	0.050346	-0.251066
O61	O	0.178146	0.090876	0.245461
H62	H	0.234900	0.091724	0.225626
O63	O	0.828889	-0.109257	-0.245377
H64	H	0.876956	-0.082451	-0.251033
H65	H	0.822199	-0.562893	-0.214209
O66	O	0.820075	-0.704664	0.245434
H67	H	0.867853	-0.697057	0.302061
O68	O	0.026782	0.088637	0.245461
H69	H	0.064332	0.089192	0.327564
H70	H	0.822172	-0.562931	0.214233
H71	H	0.480434	0.095358	-0.214199
O72	O	0.622152	0.097427	0.245460
H73	H	0.661705	0.050344	0.251128
O74	O	0.470750	0.095225	0.245399
H75	H	0.491054	0.047866	0.302100
O76	O	0.826661	-0.260622	-0.245378
H77	H	0.827226	-0.223066	-0.327482
H78	H	0.826768	-0.251033	0.214253
H79	H	0.828708	-0.118915	0.214279
