data_functionalizedCrystal
_audit_creation_method	'MofGen! by Chris Wilmer'
_symmetry_space_group_name_H-M	'P1'
_symmetry_Int_Tables_number	1
_symmetry_cell_setting	triclinic
loop_
_symmetry_equiv_pos_as_xyz
  x,y,z
_cell_length_a	6.817900
_cell_length_b	15.300912
_cell_length_c	10.992410
_cell_angle_alpha	93.552804
_cell_angle_beta	108.764651
_cell_angle_gamma	104.173621
loop_
_atom_site_label
_atom_site_type_symbol
_atom_site_fract_x
_atom_site_fract_y
_atom_site_fract_z
V1	V	-4.090822	-0.124758	-0.400983
O2	O	-4.073502	0.005995	-0.392949
O3	O	-4.045377	-0.247375	-0.398626
O4	O	-4.068775	-0.122839	-0.575689
O5	O	-4.049942	-0.119402	-0.214660
V6	V	-4.570653	-0.109119	-0.378650
O7	O	-4.360181	-0.159065	-0.449971
O8	O	-4.751491	-0.074812	-0.329662
O9	O	-4.392891	0.013498	-0.381007
O10	O	-4.705370	-0.239872	-0.386684
O11	O	-4.728929	-0.114474	-0.564973
O12	O	-4.369494	-0.111038	-0.203944
C13	C	-3.890244	-0.277266	-0.392400
C14	C	-3.934550	-0.377506	-0.391637
C15	C	-4.308686	-0.813871	-0.394781
C16	C	-4.267036	-0.719683	-0.395489
C17	C	-4.063003	-0.668003	-0.389425
C18	C	-3.900603	-0.710514	-0.382640
C19	C	-3.942250	-0.804699	-0.381923
C20	C	-3.813813	-0.514203	-0.384137
C21	C	-3.772164	-0.420011	-0.384857
C22	C	-4.138599	-0.429187	-0.397703
C23	C	-4.180245	-0.523372	-0.396986
C24	C	-4.017843	-0.565877	-0.390204
C25	C	-3.920089	-0.118407	-0.618260
C26	C	-3.983365	-0.117650	-0.761086
C27	C	-3.851785	-0.110746	-0.956188
C28	C	-3.786016	-0.111908	-0.807708
C29	C	-4.164687	-0.206558	-0.838468
C30	C	-4.229148	-0.205772	-0.987032
C31	C	-4.139241	-0.033613	-0.948462
C32	C	-4.068611	-0.033192	-0.799448
C33	C	-4.211366	0.043384	-0.387230
C34	C	-4.146299	0.143624	-0.388000
C35	C	-4.181521	-0.115472	-0.161366
C36	C	-4.097482	-0.116226	-0.018539
H37	H	-3.734469	-0.668427	-0.377694
H38	H	-4.399274	-0.685081	-0.401016
Cl39	Cl	-4.186988	-0.302347	-1.058777
H40	H	-3.681570	-0.548808	-0.378626
Cl41	Cl	-4.436752	-0.588342	-0.404619
H42	H	-4.270830	-0.394575	-0.403223
Cl43	Cl	-3.515662	-0.355043	-0.377233
H44	H	-3.810021	-0.839306	-0.376412
Cl45	Cl	-4.075867	-0.303375	-0.799242
H46	H	-3.649565	-0.047979	-0.754168
H47	H	-3.746668	-0.046378	-0.974816
H48	H	-3.815702	-0.170104	-1.004366
H49	H	-3.937707	0.032579	-0.746885
Cl50	Cl	-3.999927	0.070626	-0.979570
H51	H	-3.717536	-0.172090	-0.783081
H52	H	-4.409698	-0.213503	-1.029687
H53	H	-4.313671	-0.213970	-0.809688
H54	H	-4.210920	-0.032148	-0.766933
Cl55	Cl	-4.414635	-0.038597	-1.011537
H56	H	-4.474832	-0.855944	-0.399727
