data_functionalizedCrystal
_audit_creation_method	'MofGen! by Chris Wilmer'
_symmetry_space_group_name_H-M	'P1'
_symmetry_Int_Tables_number	1
_symmetry_cell_setting	triclinic
loop_
_symmetry_equiv_pos_as_xyz
  x,y,z
_cell_length_a	6.817900
_cell_length_b	16.417825
_cell_length_c	17.982968
_cell_angle_alpha	95.670939
_cell_angle_beta	102.451960
_cell_angle_gamma	103.385495
loop_
_atom_site_label
_atom_site_type_symbol
_atom_site_fract_x
_atom_site_fract_y
_atom_site_fract_z
V1	V	-4.014590	-0.116671	-0.237817
O2	O	-4.002842	0.004799	-0.233015
O3	O	-3.965703	-0.230562	-0.236455
O4	O	-3.961104	-0.115230	-0.341417
O5	O	-4.007473	-0.111331	-0.127327
V6	V	-4.498940	-0.102100	-0.224570
O7	O	-4.274034	-0.148634	-0.266877
O8	O	-4.689694	-0.070137	-0.195510
O9	O	-4.324621	0.011792	-0.225932
O10	O	-4.628085	-0.223570	-0.229371
O11	O	-4.623454	-0.107440	-0.335060
O12	O	-4.329220	-0.103540	-0.120970
C13	C	-3.810750	-0.258315	-0.232771
C14	C	-3.852031	-0.351425	-0.232348
C15	C	-3.910290	-0.553456	-0.161591
C16	C	-3.949101	-0.640944	-0.161199
C17	C	-4.022620	-0.665315	-0.300805
C18	C	-3.983824	-0.577829	-0.301196
C19	C	-3.927649	-0.521901	-0.231586
C20	C	-4.005255	-0.696875	-0.230803
C21	C	-4.047336	-0.791734	-0.230379
C22	C	-3.885569	-0.427036	-0.232010
C23	C	-3.804882	-0.111197	-0.366660
C24	C	-3.842431	-0.110773	-0.451355
C25	C	-4.041974	-0.114771	-0.495036
C26	C	-4.077243	-0.114372	-0.574616
C27	C	-3.912970	-0.109981	-0.610514
C28	C	-3.713410	-0.105980	-0.566827
C29	C	-3.678140	-0.106373	-0.487248
C30	C	-3.855644	-0.104394	-0.887760
C31	C	-3.890931	-0.104004	-0.967345
C32	C	-4.254747	-0.112393	-0.975128
C33	C	-4.219478	-0.112786	-0.895549
C34	C	-4.019919	-0.108781	-0.851868
C35	C	-3.981677	-0.109212	-0.765579
C36	C	-3.951212	-0.109556	-0.696803
C37	C	-4.142917	0.039540	-0.229613
C38	C	-4.080873	0.132649	-0.230041
C39	C	-4.148784	-0.107576	-0.095723
C40	C	-4.090474	-0.107996	-0.011027
H41	H	-4.068358	-0.710862	-0.357478
Br42	Br	-4.525584	-0.117827	-1.034413
H43	H	-3.997972	-0.552138	-0.358198
H44	H	-3.864550	-0.507921	-0.104910
Br45	Br	-4.264938	-0.120739	-0.446326
H46	H	-3.693171	-0.101163	-0.852209
Br47	Br	-3.407315	-0.100935	-0.427963
Br48	Br	-3.925559	-0.683765	-0.066201
Br49	Br	-4.348066	-0.119808	-0.633896
Br50	Br	-3.490462	-0.100019	-0.615545
Br51	Br	-4.442433	-0.118752	-0.846835
H52	H	-3.757147	-0.100426	-0.996571
