data_functionalizedCrystal
_audit_creation_method	'MofGen! by Chris Wilmer'
_symmetry_space_group_name_H-M	'P1'
_symmetry_Int_Tables_number	1
_symmetry_cell_setting	triclinic
loop_
_symmetry_equiv_pos_as_xyz
  x,y,z
_cell_length_a	14.044220
_cell_length_b	14.044220
_cell_length_c	12.503572
_cell_angle_alpha	93.835250
_cell_angle_beta	93.843168
_cell_angle_gamma	86.811122
loop_
_atom_site_label
_atom_site_type_symbol
_atom_site_fract_x
_atom_site_fract_y
_atom_site_fract_z
O1	O	0.225116	-1.282200	-0.089210
O2	O	0.725116	-0.782200	0.410790
O3	O	0.216809	-1.005530	-0.089237
O4	O	0.716809	-0.505530	0.410763
O5	O	0.082627	-1.139712	-0.089213
O6	O	0.582627	-0.639712	0.410787
O7	O	0.359298	-1.148019	-0.089234
O8	O	0.859298	-0.648019	0.410766
O9	O	0.092737	-1.129622	0.089427
O10	O	0.592737	-0.629622	0.589427
O11	O	0.226918	-0.995440	0.089403
O12	O	0.726918	-0.495440	0.589403
O13	O	0.235226	-1.272110	0.089430
O14	O	0.735226	-0.772110	0.589430
Cu15	Cu	0.231995	-1.132854	0.105728
Cu16	Cu	0.731995	-0.632854	0.605728
Cu17	Cu	0.220040	-1.144786	-0.105535
Cu18	Cu	0.720040	-0.644786	0.394465
O19	O	0.369407	-1.137929	0.089406
O20	O	0.869407	-0.637929	0.589406
C21	C	0.052060	-1.131031	0.000107
C22	C	0.552060	-0.631031	0.500107
C23	C	-0.054082	-1.120187	0.000107
C24	C	0.445918	-0.620187	0.500107
C25	C	0.218228	-0.964864	0.000080
C26	C	0.718228	-0.464864	0.500080
C27	C	0.207383	-0.858721	0.000070
C28	C	0.707383	-0.358721	0.500070
C29	C	0.233807	-1.312777	0.000111
C30	C	0.733807	-0.812777	0.500111
C31	C	0.244651	-1.418920	0.000114
C32	C	0.744651	-0.918920	0.500114
C33	C	-0.248421	-1.100361	0.000090
C34	C	0.251579	-0.600361	0.500090
C35	C	-0.299551	-1.177275	0.000094
C36	C	0.200449	-0.677275	0.500094
C37	C	-0.407687	-1.166244	0.000084
C38	C	0.092313	-0.666244	0.500084
C39	C	-0.140274	-1.111391	0.000099
C40	C	0.359726	-0.611391	0.500099
C41	C	0.399974	-1.146609	0.000084
C42	C	0.899974	-0.646609	0.500084
C43	C	0.506117	-1.157454	0.000077
C44	C	1.006117	-0.657454	0.500077
N45	N	0.240404	-1.124469	0.254319
N46	N	0.740404	-0.624469	0.754319
C47	C	0.187558	-0.664382	0.000092
C48	C	0.687558	-0.164382	0.500092
C49	C	0.264472	-0.613253	0.000091
C50	C	0.764472	-0.113253	0.500091
C51	C	0.253441	-0.505116	0.000104
C52	C	0.753441	-0.005116	0.500104
C53	C	0.198587	-0.772529	0.000080
C54	C	0.698587	-0.272529	0.500080
N55	N	0.211624	-1.153179	-0.254126
N56	N	0.711624	-0.653179	0.245874
C57	C	0.252782	-1.112134	0.473432
C58	C	0.752782	-0.612134	0.973432
C59	C	0.199249	-1.165511	0.526768
C60	C	0.699249	-0.665511	1.026768
C61	C	0.206136	-1.158648	0.648690
C62	C	0.706136	-0.658648	1.148690
C63	C	0.245896	-1.118996	0.351499
C64	C	0.745896	-0.618996	0.851499
H65	H	-0.285859	-1.026234	0.000080
H66	H	0.214141	-0.526234	0.500080
H67	H	0.113431	-0.626945	0.000104
H68	H	0.613431	-0.126945	0.500104
N69	N	-0.249968	-1.275476	0.000109
N70	N	0.250032	-0.775476	0.500109
H71	H	-0.178627	-1.269542	0.000116
H72	H	0.321373	-0.769542	0.500116
H73	H	-0.265362	-1.307540	0.066339
H74	H	0.234638	-0.807540	0.566339
N75	N	0.362672	-0.662836	0.000076
N76	N	0.862672	-0.162836	0.500076
H77	H	0.356738	-0.734177	0.000067
H78	H	0.856738	-0.234177	0.500067
H79	H	0.394729	-0.647431	-0.066152
H80	H	0.894729	-0.147431	0.433848
N81	N	0.131687	-1.232874	0.465975
N82	N	0.631687	-0.732874	0.965975
H83	H	0.136280	-1.228295	0.386233
H84	H	0.636280	-0.728295	0.886233
H85	H	0.149461	-1.300467	0.485564
H86	H	0.649461	-0.800467	0.985564
N87	N	0.320340	-1.044776	0.534224
N88	N	0.820340	-0.544776	1.034224
H89	H	0.315745	-1.049363	0.613965
H90	H	0.815745	-0.549363	1.113965
H91	H	0.387895	-1.062735	0.514633
H92	H	0.887895	-0.562735	1.014633
