data_functionalizedCrystal
_audit_creation_method	'MofGen! by Chris Wilmer'
_symmetry_space_group_name_H-M	'P1'
_symmetry_Int_Tables_number	1
_symmetry_cell_setting	triclinic
loop_
_symmetry_equiv_pos_as_xyz
  x,y,z
_cell_length_a	14.044220
_cell_length_b	9.130313
_cell_length_c	14.044190
_cell_angle_alpha	89.990619
_cell_angle_beta	93.190328
_cell_angle_gamma	90.001436
loop_
_atom_site_label
_atom_site_type_symbol
_atom_site_fract_x
_atom_site_fract_y
_atom_site_fract_z
O1	O	1.277172	-0.121673	0.230168
O2	O	1.777172	0.378327	0.730168
O3	O	1.000501	-0.121709	0.221862
O4	O	1.500501	0.378291	0.721862
O5	O	1.134680	-0.121663	0.087679
O6	O	1.634680	0.378337	0.587679
O7	O	1.142993	-0.121720	0.364351
O8	O	1.642993	0.378280	0.864351
O9	O	1.134670	0.121936	0.087674
O10	O	1.634670	0.621936	0.587674
O11	O	1.000490	0.121890	0.221857
O12	O	1.500490	0.621890	0.721857
O13	O	1.277162	0.121926	0.230163
O14	O	1.777162	0.621926	0.730163
Cu15	Cu	1.138825	0.144150	0.226010
Cu16	Cu	1.638825	0.644150	0.726010
Cu17	Cu	1.138838	-0.143934	0.226016
Cu18	Cu	1.638838	0.356066	0.726016
O19	O	1.142983	0.121879	0.364346
O20	O	1.642983	0.621879	0.864346
C21	C	0.964874	0.000086	0.218224
C22	C	1.464874	0.500086	0.718224
C23	C	0.858731	0.000073	0.207380
C24	C	1.358731	0.500073	0.707380
N25	N	1.138824	0.346773	0.226005
N26	N	1.638824	0.846773	0.726005
N27	N	1.138846	-0.346556	0.226013
N28	N	1.638846	0.153444	0.726013
C29	C	0.664392	0.000106	0.187553
C30	C	1.164392	0.500106	0.687553
C31	C	0.613264	0.000097	0.264468
C32	C	1.113264	0.500097	0.764468
C33	C	0.505128	0.000115	0.253436
C34	C	1.005128	0.500115	0.753436
C35	C	0.772539	0.000088	0.198583
C36	C	1.272539	0.500088	0.698583
C37	C	1.312789	0.000127	0.233801
C38	C	1.812789	0.500127	0.733801
C39	C	1.418932	0.000130	0.244646
C40	C	1.918932	0.500130	0.744646
C41	C	1.131039	0.000140	0.052054
C42	C	1.631039	0.500140	0.552054
C43	C	1.120191	0.000152	-0.054089
C44	C	1.620191	0.500152	0.445911
C45	C	1.198262	0.423445	0.166618
C46	C	1.698262	0.923445	0.666618
C47	C	1.198271	0.576782	0.166619
C48	C	1.698271	1.076782	0.666619
C49	C	1.079401	0.576761	0.285403
C50	C	1.579401	1.076761	0.785403
C51	C	1.079387	0.423427	0.285396
C52	C	1.579387	0.923427	0.785396
C53	C	1.177292	0.000102	-0.299547
C54	C	1.677292	0.500102	0.200453
C55	C	1.100375	0.000102	-0.248422
C56	C	1.600375	0.500102	0.251578
C57	C	1.111404	0.000130	-0.140285
C58	C	1.611404	0.500130	0.359715
C59	C	1.166265	0.000074	-0.407694
C60	C	1.666265	0.500074	0.092306
C61	C	1.146624	0.000073	0.399971
C62	C	1.646624	0.500073	0.899971
C63	C	1.157472	0.000052	0.506114
C64	C	1.657472	0.500052	1.006114
H65	H	0.650706	0.000075	0.338602
H66	H	1.150706	0.500075	0.838602
O67	O	1.256101	0.651034	0.108904
O68	O	1.756101	1.151034	0.608904
C69	C	1.308535	0.550490	0.056468
C70	C	1.808535	1.050490	0.556468
H71	H	1.312912	0.441178	0.095702
H72	H	1.812912	0.941178	0.595702
H73	H	1.271544	0.534207	-0.017097
H74	H	1.771544	1.034207	0.482903
C75	C	1.404494	0.744582	-0.002624
C76	C	1.904494	1.244582	0.497376
C77	C	1.409876	0.610325	0.045568
C78	C	1.909876	1.110325	0.545568
H79	H	1.467004	0.781491	-0.009351
H80	H	1.967004	1.281491	0.490649
H81	H	1.369166	0.812321	0.032700
H82	H	1.869166	1.312321	0.532700
H83	H	1.373664	0.730994	-0.063922
H84	H	1.873664	1.230994	0.436078
H85	H	1.440694	0.623918	0.106869
H86	H	1.940694	1.123918	0.606869
H87	H	1.445211	0.542589	0.010254
H88	H	1.945211	1.042589	0.510254
H89	H	1.026243	0.000084	-0.285865
H90	H	1.526243	0.500084	0.214135
H91	H	0.626954	0.000130	0.113425
H92	H	1.126954	0.500130	0.613425
H93	H	1.031011	0.639187	0.333759
H94	H	1.531011	1.139187	0.833759
H95	H	1.246657	0.361037	0.118257
H96	H	1.746657	0.861037	0.618257
H97	H	1.251418	0.000126	-0.262106
H98	H	1.751418	0.500126	0.237894
H99	H	1.030981	0.360996	0.333757
H100	H	1.530981	0.860996	0.833757
