data_functionalizedCrystal
_audit_creation_method	'MofGen! by Chris Wilmer'
_symmetry_space_group_name_H-M	'P1'
_symmetry_Int_Tables_number	1
_symmetry_cell_setting	triclinic
loop_
_symmetry_equiv_pos_as_xyz
  x,y,z
_cell_length_a	25.639242
_cell_length_b	29.839131
_cell_length_c	25.639233
_cell_angle_alpha	90.027239
_cell_angle_beta	90.022166
_cell_angle_gamma	90.030754
loop_
_atom_site_label
_atom_site_type_symbol
_atom_site_fract_x
_atom_site_fract_y
_atom_site_fract_z
Zn1	Zn	0.799238	-0.178962	0.295711
Zn2	Zn	1.132571	0.154372	0.629045
Zn3	Zn	1.465904	0.487705	0.962378
Zn4	Zn	0.799166	-0.254076	0.208263
Zn5	Zn	1.132500	0.079257	0.541596
Zn6	Zn	1.465833	0.412591	0.874929
Zn7	Zn	0.711814	-0.178955	0.208275
Zn8	Zn	1.045147	0.154378	0.541609
Zn9	Zn	1.378481	0.487712	0.874942
Zn10	Zn	0.711764	-0.254059	0.295653
Zn11	Zn	1.045098	0.079274	0.628986
Zn12	Zn	1.378431	0.412607	0.962319
O13	O	0.755496	-0.216513	0.251976
O14	O	1.088829	0.116820	0.585309
O15	O	1.422162	0.450154	0.918642
O16	O	0.872393	-0.188935	0.284130
O17	O	1.205727	0.144398	0.617464
O18	O	1.539060	0.477731	0.950797
O19	O	0.787570	-0.244115	0.135099
O20	O	1.120903	0.089218	0.468433
O21	O	1.454236	0.422551	0.801766
O22	O	0.723461	-0.116089	0.219904
O23	O	1.056795	0.217245	0.553237
O24	O	1.390128	0.550578	0.886571
O25	O	0.872341	-0.244122	0.219882
O26	O	1.205674	0.089212	0.553216
O27	O	1.539008	0.422545	0.886549
O28	O	0.787691	-0.116094	0.284143
O29	O	1.121025	0.217240	0.617476
O30	O	1.454358	0.550573	0.950809
O31	O	0.723392	-0.188924	0.135109
O32	O	1.056726	0.144409	0.468442
O33	O	1.390059	0.477742	0.801775
O34	O	0.638642	-0.188908	0.219847
O35	O	0.971975	0.144425	0.553180
O36	O	1.305309	0.477759	0.886514
O37	O	0.723377	-0.244093	0.368826
O38	O	1.056710	0.089240	0.702159
O39	O	1.390044	0.422573	1.035492
O40	O	0.638606	-0.244087	0.284043
O41	O	0.971939	0.089246	0.617376
O42	O	1.305272	0.422580	0.950709
O43	O	0.787643	-0.188919	0.368869
O44	O	1.120976	0.144414	0.702202
O45	O	1.454310	0.477747	1.035535
O46	O	0.787522	-0.316941	0.219825
O47	O	1.120855	0.016392	0.553159
O48	O	1.454188	0.349726	0.886492
O49	O	0.723308	-0.316929	0.284030
O50	O	1.056641	0.016405	0.617364
O51	O	1.389974	0.349738	0.950697
C52	C	0.619653	-0.216495	0.251940
C53	C	0.952986	0.116838	0.585273
C54	C	1.286320	0.450171	0.918607
C55	C	0.561539	-0.216499	0.251937
C56	C	0.894872	0.116835	0.585271
C57	C	1.228206	0.450168	0.918604
C58	C	0.201166	-0.245293	0.285371
C59	C	0.534499	0.088041	0.618704
C60	C	0.867832	0.421374	0.952037
C61	C	0.146561	-0.245295	0.285379
C62	C	0.479895	0.088038	0.618712
C63	C	0.813228	0.421371	0.952045
O64	O	0.118316	-0.269755	0.313775
O65	O	0.451649	0.063578	0.647108
O66	O	0.784983	0.396911	0.980442
N67	N	0.119256	-0.216525	0.252010
N68	N	0.452590	0.116808	0.585343
N69	N	0.785923	0.450141	0.918676
C70	C	0.146559	-0.187748	0.218634
C71	C	0.479892	0.145586	0.551967
C72	C	0.813225	0.478919	0.885301
O73	O	0.118320	-0.163276	0.190252
O74	O	0.451653	0.170057	0.523585
O75	O	0.784986	0.503390	0.856919
C76	C	0.201162	-0.187743	0.218629
C77	C	0.534495	0.145590	0.551962
C78	C	0.867829	0.478924	0.885295
C79	C	0.228464	-0.216518	0.251996
C80	C	0.561797	0.116815	0.585330
C81	C	0.895131	0.450149	0.918663
C82	C	0.228468	-0.274065	0.318736
C83	C	0.561801	0.059268	0.652069
C84	C	0.895135	0.392602	0.985402
C85	C	0.283069	-0.274063	0.318727
C86	C	0.616402	0.059270	0.652060
C87	C	0.949735	0.392604	0.985393
C88	C	0.310367	-0.245288	0.285352
C89	C	0.643700	0.088045	0.618686
C90	C	0.977034	0.421379	0.952019
C91	C	0.283065	-0.216516	0.251987
C92	C	0.616398	0.116818	0.585320
C93	C	0.949731	0.450151	0.918654
C94	C	0.228463	-0.158963	0.185256
C95	C	0.561796	0.174370	0.518589
C96	C	0.895130	0.507704	0.851923
C97	C	0.283070	-0.158961	0.185254
C98	C	0.616403	0.174373	0.518587
C99	C	0.949737	0.507706	0.851920
C100	C	0.310372	-0.187736	0.218621
C101	C	0.643706	0.145598	0.551955
C102	C	0.977039	0.478931	0.885288
C103	C	0.364964	-0.187739	0.218604
C104	C	0.698297	0.145595	0.551937
C105	C	1.031630	0.478928	0.885270
N106	N	0.392269	-0.216509	0.251973
N107	N	0.725602	0.116825	0.585306
N108	N	1.058935	0.450158	0.918640
C109	C	0.364970	-0.245283	0.285347
C110	C	0.698304	0.088050	0.618681
C111	C	1.031637	0.421383	0.952014
C112	C	0.031888	-0.187759	0.218648
C113	C	0.365221	0.145574	0.551981
C114	C	0.698555	0.478908	0.885315
C115	C	-0.022714	-0.187766	0.218650
C116	C	0.310619	0.145568	0.551984
C117	C	0.643952	0.478901	0.885317
C118	C	-0.022708	-0.245313	0.285396
C119	C	0.310626	0.088020	0.618729
C120	C	0.643959	0.421354	0.952063
C121	C	0.031896	-0.245308	0.285391
C122	C	0.365229	0.088025	0.618724
C123	C	0.698562	0.421358	0.952057
C124	C	0.059193	-0.216529	0.252017
C125	C	0.392526	0.116804	0.585350
C126	C	0.725860	0.450138	0.918684
C127	C	0.479635	-0.245277	0.285325
C128	C	0.812969	0.088057	0.618659
C129	C	1.146302	0.421390	0.951992
C130	C	0.534241	-0.245273	0.285312
C131	C	0.867574	0.088060	0.618645
C132	C	1.200907	0.421393	0.951978
C133	C	0.534229	-0.187724	0.218568
C134	C	0.867563	0.145609	0.551901
C135	C	1.200896	0.478942	0.885235
C136	C	0.479629	-0.187729	0.218580
C137	C	0.812962	0.145604	0.551913
C138	C	1.146295	0.478937	0.885246
C139	C	0.452333	-0.216507	0.251962
C140	C	0.785666	0.116826	0.585296
C141	C	1.119000	0.450160	0.918629
O142	O	0.393244	-0.163290	0.190224
O143	O	0.726577	0.170043	0.523557
O144	O	1.059910	0.503377	0.856890
O145	O	0.393216	-0.269746	0.313729
O146	O	0.726549	0.063587	0.647063
O147	O	1.059883	0.396920	0.980396
C148	C	0.755416	-0.333236	0.251931
C149	C	1.088749	0.000098	0.585265
C150	C	1.422082	0.333431	0.918598
C151	C	0.755430	-0.383170	0.251930
C152	C	1.088763	-0.049837	0.585263
C153	C	1.422096	0.283497	0.918597
C154	C	0.788933	-0.692781	0.285472
C155	C	1.122266	-0.359448	0.618806
C156	C	1.455599	-0.026114	0.952139
C157	C	0.788989	-0.880454	0.285504
C158	C	1.122323	-0.547121	0.618837
C159	C	1.455656	-0.213787	0.952170
O160	O	0.817397	-0.904691	0.313990
O161	O	1.150730	-0.571358	0.647323
O162	O	1.484064	-0.238025	0.980657
N163	N	0.755584	-0.903955	0.252034
N164	N	1.088918	-0.570622	0.585367
N165	N	1.422251	-0.237288	0.918700
C166	C	0.722160	-0.880535	0.218556
C167	C	1.055494	-0.547202	0.551889
C168	C	1.388827	-0.213868	0.885222
O169	O	0.693745	-0.904830	0.190092
O170	O	1.027078	-0.571497	0.523425
O171	O	1.360411	-0.238164	0.856758
C172	C	0.722101	-0.692863	0.218527
C173	C	1.055435	-0.359529	0.551861
C174	C	1.388768	-0.026196	0.885194
C175	C	0.755512	-0.669364	0.251996
C176	C	1.088846	-0.336031	0.585329
C177	C	1.422179	-0.002698	0.918662
C178	C	0.822341	-0.669282	0.318939
C179	C	1.155674	-0.335949	0.652272
C180	C	1.489007	-0.002616	0.985605
C181	C	0.822328	-0.622367	0.318928
C182	C	1.155661	-0.289034	0.652262
C183	C	1.488995	0.044300	0.985595
C184	C	0.788908	-0.598950	0.285452
C185	C	1.122241	-0.265617	0.618785
C186	C	1.455574	0.067717	0.952119
C187	C	0.755500	-0.622449	0.251986
C188	C	1.088833	-0.289115	0.585319
C189	C	1.422166	0.044218	0.918652
C190	C	0.688675	-0.669444	0.185052
C191	C	1.022008	-0.336110	0.518386
C192	C	1.355342	-0.002777	0.851719
C193	C	0.688662	-0.622522	0.185049
C194	C	1.021995	-0.289189	0.518382
C195	C	1.355329	0.044144	0.851716
C196	C	0.722073	-0.599024	0.218518
C197	C	1.055407	-0.265691	0.551851
C198	C	1.388740	0.067643	0.885184
C199	C	0.722067	-0.552116	0.218499
C200	C	1.055400	-0.218783	0.551832
C201	C	1.388734	0.114550	0.885166
N202	N	0.755472	-0.528615	0.251969
N203	N	1.088805	-0.195282	0.585302
N204	N	1.422139	0.138051	0.918636
C205	C	0.788892	-0.552032	0.285446
C206	C	1.122226	-0.218699	0.618779
C207	C	1.455559	0.114634	0.952112
C208	C	0.722194	-0.979066	0.218572
C209	C	1.055528	-0.645732	0.551905
C210	C	1.388861	-0.312399	0.885239
C211	C	0.722210	-1.025983	0.218578
C212	C	1.055543	-0.692650	0.551912
C213	C	1.388876	-0.359317	0.885245
C214	C	0.789038	-1.025899	0.285527
C215	C	1.122372	-0.692566	0.618861
C216	C	1.455705	-0.359233	0.952194
C217	C	0.789025	-0.978981	0.285518
C218	C	1.122359	-0.645647	0.618851
C219	C	1.455692	-0.312314	0.952185
C220	C	0.755599	-0.955565	0.252042
C221	C	1.088933	-0.622231	0.585376
C222	C	1.422266	-0.288898	0.918709
C223	C	0.788864	-0.453506	0.285421
C224	C	1.122197	-0.120173	0.618755
C225	C	1.455531	0.213160	0.952088
C226	C	0.788850	-0.406587	0.285407
C227	C	1.122183	-0.073254	0.618740
C228	C	1.455517	0.260080	0.952073
C229	C	0.722020	-0.406675	0.218460
C230	C	1.055353	-0.073342	0.551793
C231	C	1.388686	0.259992	0.885126
C232	C	0.722035	-0.453591	0.218472
C233	C	1.055369	-0.120257	0.551806
C234	C	1.388702	0.213076	0.885139
C235	C	0.755459	-0.477005	0.251957
C236	C	1.088792	-0.143672	0.585291
C237	C	1.422126	0.189662	0.918624
O238	O	0.693670	-0.527850	0.190032
O239	O	1.027003	-0.194517	0.523365
O240	O	1.360337	0.138816	0.856699
O241	O	0.817296	-0.527729	0.313913
O242	O	1.150629	-0.194396	0.647247
O243	O	1.483962	0.138938	0.980580
C244	C	0.788945	-0.739696	0.285483
C245	C	1.122279	-0.406363	0.618816
C246	C	1.455612	-0.073030	0.952149
C247	C	0.755537	-0.763195	0.252016
C248	C	1.088871	-0.429862	0.585350
C249	C	1.422204	-0.096528	0.918683
C250	C	0.722117	-0.739778	0.218540
C251	C	1.055450	-0.406445	0.551873
C252	C	1.388784	-0.073112	0.885206
C253	C	0.755553	-0.810113	0.252023
C254	C	1.088886	-0.476780	0.585356
C255	C	1.422219	-0.143446	0.918689
C256	C	0.788973	-0.833530	0.285499
C257	C	1.122306	-0.500196	0.618832
C258	C	1.455640	-0.166863	0.952166
C259	C	0.822378	-0.810029	0.318969
C260	C	1.155711	-0.476695	0.652303
C261	C	1.489045	-0.143362	0.985636
C262	C	0.822366	-0.763113	0.318959
C263	C	1.155699	-0.429780	0.652292
C264	C	1.489032	-0.096447	0.985626
C265	C	0.688712	-0.763279	0.185070
C266	C	1.022045	-0.429946	0.518403
C267	C	1.355378	-0.096613	0.851736
C268	C	0.688727	-0.810195	0.185082
C269	C	1.022061	-0.476861	0.518415
C270	C	1.355394	-0.143528	0.851749
C271	C	0.722148	-0.833612	0.218559
C272	C	1.055481	-0.500278	0.551892
C273	C	1.388815	-0.166945	0.885225
C274	C	0.891869	-0.216531	0.252011
C275	C	1.225202	0.116802	0.585345
C276	C	1.558535	0.450136	0.918678
C277	C	0.949983	-0.216539	0.252027
C278	C	1.283316	0.116794	0.585360
C279	C	1.616649	0.450128	0.918693
C280	C	0.755512	-0.216505	0.388349
C281	C	1.088846	0.116828	0.721682
C282	C	1.422179	0.450162	1.055015
C283	C	0.755520	-0.216502	0.446463
C284	C	1.088853	0.116832	0.779796
C285	C	1.422186	0.450165	1.113129
C286	C	0.755590	-0.099335	0.252031
C287	C	1.088923	0.233999	0.585365
C288	C	1.422257	0.567332	0.918698
C289	C	0.755630	-0.049400	0.252055
C290	C	1.088963	0.283933	0.585388
C291	C	1.422297	0.617266	0.918722
C292	C	0.755509	-0.216488	0.116133
C293	C	1.088842	0.116845	0.449466
C294	C	1.422176	0.450178	0.782800
C295	C	0.755603	-0.216365	0.058019
C296	C	1.088936	0.116968	0.391353
C297	C	1.422270	0.450301	0.724686
C298	C	0.789025	-0.187687	0.806854
C299	C	1.122359	0.145646	1.140187
C300	C	1.455692	0.478979	1.473521
C301	C	0.789032	-0.187675	0.861458
C302	C	1.122365	0.145658	1.194792
C303	C	1.455699	0.478992	1.528125
O304	O	0.817478	-0.163229	0.889719
O305	O	1.150811	0.170105	1.223052
O306	O	1.484144	0.503438	1.556386
N307	N	0.755577	-0.216396	0.888745
N308	N	1.088911	0.116937	1.222079
N309	N	1.422244	0.450270	1.555412
C310	C	0.722110	-0.245129	0.861425
C311	C	1.055443	0.088204	1.194759
C312	C	1.388777	0.421538	1.528092
O313	O	0.693655	-0.269558	0.889649
O314	O	1.026988	0.063776	1.222982
O315	O	1.360321	0.397109	1.556316
C316	C	0.722101	-0.245139	0.806822
C317	C	1.055435	0.088194	1.140155
C318	C	1.388768	0.421528	1.473489
C319	C	0.755562	-0.216419	0.779538
C320	C	1.088895	0.116915	1.112871
C321	C	1.422229	0.450248	1.446204
C322	C	0.822483	-0.158969	0.779570
C323	C	1.155816	0.174364	1.112903
C324	C	1.489150	0.507698	1.446236
C325	C	0.822477	-0.158982	0.724969
C326	C	1.155810	0.174351	1.058303
C327	C	1.489144	0.507685	1.391636
C328	C	0.789014	-0.187714	0.697653
C329	C	1.122347	0.145620	1.030986
C330	C	1.455680	0.478953	1.364320
C331	C	0.755556	-0.216432	0.724937
C332	C	1.088890	0.116902	1.058270
C333	C	1.422223	0.450235	1.391604
C334	C	0.688632	-0.273869	0.779503
C335	C	1.021965	0.059464	1.112836
C336	C	1.355299	0.392798	1.446169
C337	C	0.688626	-0.273876	0.724896
C338	C	1.021959	0.059457	1.058229
C339	C	1.355293	0.392791	1.391562
C340	C	0.722087	-0.245156	0.697611
C341	C	1.055420	0.088177	1.030945
C342	C	1.388753	0.421511	1.364278
C343	C	0.722087	-0.245176	0.643020
C344	C	1.055420	0.088157	0.976354
C345	C	1.388754	0.421490	1.309687
N346	N	0.755542	-0.216455	0.615733
N347	N	1.088875	0.116879	0.949067
N348	N	1.422208	0.450212	1.282400
C349	C	0.789005	-0.187723	0.643050
C350	C	1.122338	0.145610	0.976383
C351	C	1.455672	0.478943	1.309716
C352	C	0.722130	-0.245106	0.976096
C353	C	1.055464	0.088228	1.309429
C354	C	1.388797	0.421561	1.642763
C355	C	0.722141	-0.245099	1.030698
C356	C	1.055475	0.088235	1.364032
C357	C	1.388808	0.421568	1.697365
C358	C	0.789063	-0.187644	1.030728
C359	C	1.122396	0.145690	1.364061
C360	C	1.455729	0.479023	1.697394
C361	C	0.789054	-0.187653	0.976124
C362	C	1.122387	0.145680	1.309458
C363	C	1.455720	0.479013	1.642791
C364	C	0.755585	-0.216384	0.948809
C365	C	1.088918	0.116949	1.282142
C366	C	1.422252	0.450282	1.615476
C367	C	0.788990	-0.187753	0.528384
C368	C	1.122324	0.145580	0.861718
C369	C	1.455657	0.478913	1.195051
C370	C	0.788983	-0.187770	0.473779
C371	C	1.122316	0.145563	0.807112
C372	C	1.455650	0.478896	1.140446
C373	C	0.722060	-0.245223	0.473754
C374	C	1.055393	0.088110	0.807088
C375	C	1.388727	0.421443	1.140421
C376	C	0.722069	-0.245208	0.528355
C377	C	1.055402	0.088125	0.861688
C378	C	1.388736	0.421458	1.195022
C379	C	0.755536	-0.216470	0.555669
C380	C	1.088869	0.116864	0.889002
C381	C	1.422203	0.450197	1.222335
O382	O	0.693654	-0.269609	0.614725
O383	O	1.026988	0.063725	0.948058
O384	O	1.360321	0.397058	1.281392
O385	O	0.817451	-0.163295	0.614819
O386	O	1.150784	0.170039	0.948152
O387	O	1.484118	0.503372	1.281486
H388	H	0.054110	-0.164324	0.191467
H389	H	0.387443	0.169010	0.524801
H390	H	0.720777	0.502343	0.858134
H391	H	0.661468	-0.688568	0.157798
H392	H	0.994801	-0.355235	0.491132
H393	H	1.328135	-0.021901	0.824465
C394	C	0.825777	-0.953137	0.322338
C395	C	1.159111	-0.619803	0.655671
C396	C	1.492444	-0.286470	0.989005
N397	N	0.853460	-0.933673	0.350073
N398	N	1.186793	-0.600340	0.683407
N399	N	1.520127	-0.267006	1.016740
C400	C	0.825608	-0.380741	0.322225
C401	C	1.158941	-0.047408	0.655558
C402	C	1.492274	0.285925	0.988891
N403	N	0.853293	-0.361276	0.349956
N404	N	1.186626	-0.027943	0.683289
N405	N	1.519960	0.305391	1.016622
C406	C	0.313094	-0.305716	0.355437
C407	C	0.646427	0.027617	0.688770
C408	C	0.979760	0.360951	1.022103
N409	N	0.335705	-0.329558	0.383090
N410	N	0.669039	0.003776	0.716423
N411	N	1.002372	0.337109	1.049756
H412	H	0.816233	-0.164382	0.451567
H413	H	1.149566	0.168951	0.784900
H414	H	1.482899	0.502284	1.118233
C415	C	0.651891	-0.596768	0.148221
C416	C	0.985224	-0.263434	0.481555
C417	C	1.318557	0.069899	0.814888
N418	N	0.624196	-0.577370	0.120481
N419	N	0.957529	-0.244037	0.453815
N420	N	1.290862	0.089296	0.787148
H421	H	0.695009	-1.045112	0.191319
H422	H	1.028342	-0.711779	0.524653
H423	H	1.361675	-0.378445	0.857986
C424	C	0.651970	-0.836038	0.148261
C425	C	0.985303	-0.502705	0.481595
C426	C	1.318636	-0.169371	0.814928
N427	N	0.624281	-0.855501	0.120532
N428	N	0.957614	-0.522168	0.453866
N429	N	1.290947	-0.188835	0.787199
C430	C	0.198443	-0.127303	0.148554
C431	C	0.531776	0.206031	0.481887
C432	C	0.865109	0.539364	0.815221
N433	N	0.175833	-0.103452	0.120910
N434	N	0.509166	0.229882	0.454244
N435	N	0.842499	0.563215	0.787577
H436	H	0.694828	-0.268599	0.550571
H437	H	1.028161	0.064734	0.883904
H438	H	1.361494	0.398068	1.217238
C439	C	0.449618	-0.276937	0.322044
C440	C	0.782951	0.056396	0.655378
C441	C	1.116285	0.389730	0.988711
N442	N	0.427009	-0.300786	0.349698
N443	N	0.760343	0.032547	0.683031
N444	N	1.093676	0.365880	1.016364
C445	C	0.825809	-0.156142	0.558421
C446	C	1.159142	0.177191	0.891755
C447	C	1.492475	0.510525	1.225088
N448	N	0.853543	-0.132334	0.581045
N449	N	1.186876	0.200999	0.914378
N450	N	1.520210	0.534332	1.247712
C451	C	0.313094	-0.127302	0.148538
C452	C	0.646427	0.206032	0.481871
C453	C	0.979760	0.539365	0.815204
N454	N	0.335707	-0.103457	0.120881
N455	N	0.669040	0.229876	0.454215
N456	N	1.002373	0.563209	0.787548
H457	H	0.694900	-0.268490	1.052908
H458	H	1.028233	0.064843	1.386242
H459	H	1.361567	0.398176	1.719575
C460	C	0.651938	-0.737527	0.148247
C461	C	0.985272	-0.404194	0.481580
C462	C	1.318605	-0.070861	0.814913
N463	N	0.624238	-0.718133	0.120510
N464	N	0.957571	-0.384799	0.453843
N465	N	1.290905	-0.051466	0.787176
H466	H	0.849723	-0.135594	0.702759
H467	H	1.183057	0.197739	1.036093
H468	H	1.516390	0.531072	1.369426
C469	C	0.685315	-0.276718	0.946054
C470	C	1.018648	0.056615	1.279387
C471	C	1.351981	0.389948	1.612721
N472	N	0.657585	-0.300529	0.923429
N473	N	0.990918	0.032805	1.256762
N474	N	1.324251	0.366138	1.590096
H475	H	0.694833	-0.472724	0.191215
H476	H	1.028167	-0.139391	0.524549
H477	H	1.361500	0.193943	0.857882
C478	C	0.685257	-0.380908	0.181640
C479	C	1.018590	-0.047574	0.514973
C480	C	1.351923	0.285759	0.848306
N481	N	0.657563	-0.361498	0.153910
N482	N	0.990897	-0.028165	0.487243
N483	N	1.324230	0.305169	0.820576
C484	C	0.859301	-0.127361	0.809609
C485	C	1.192634	0.205972	1.142942
C486	C	1.525967	0.539306	1.476276
N487	N	0.887037	-0.103554	0.832231
N488	N	1.220370	0.229779	1.165564
N489	N	1.553704	0.563112	1.498898
C490	C	0.685415	-0.953314	0.181749
C491	C	1.018749	-0.619981	0.515082
C492	C	1.352082	-0.286647	0.848416
N493	N	0.657712	-0.933920	0.154014
N494	N	0.991046	-0.600586	0.487348
N495	N	1.324379	-0.267253	0.820681
C496	C	0.825859	-0.156056	0.946117
C497	C	1.159192	0.177278	1.279450
C498	C	1.492525	0.510611	1.612783
N499	N	0.853580	-0.132254	0.923518
N500	N	1.186914	0.201080	1.256851
N501	N	1.520247	0.534413	1.590184
C502	C	-0.052746	-0.276963	0.322113
C503	C	0.280587	0.056371	0.655446
C504	C	0.613920	0.389704	0.988779
N505	N	-0.075373	-0.300799	0.349766
N506	N	0.257960	0.032534	0.683100
N507	N	0.591294	0.365867	1.016433
H508	H	0.206247	-0.297497	0.345916
H509	H	0.539581	0.035836	0.679249
H510	H	0.872914	0.369170	1.012583
H511	H	0.816309	-0.164248	1.052978
H512	H	1.149642	0.169086	1.386312
H513	H	1.482976	0.502419	1.719645
C514	C	0.651818	-0.305461	0.809503
C515	C	0.985151	0.027873	1.142837
C516	C	1.318484	0.361206	1.476170
N517	N	0.624085	-0.329256	0.832099
N518	N	0.957418	0.004078	1.165432
N519	N	1.290752	0.337411	1.498765
C520	C	0.651808	-0.305484	0.694852
C521	C	0.985141	0.027849	1.028186
C522	C	1.318475	0.361182	1.361519
N523	N	0.624078	-0.329293	0.672225
N524	N	0.957411	0.004041	1.005558
N525	N	1.290745	0.337374	1.338891
H526	H	0.556468	-0.268707	0.312484
H527	H	0.889801	0.064626	0.645817
H528	H	1.223134	0.397960	0.979151
C529	C	0.859113	-0.695034	0.355764
C530	C	1.192447	-0.361700	0.689098
C531	C	1.525780	-0.028367	1.022431
N532	N	0.886817	-0.714426	0.383500
N533	N	1.220151	-0.381093	0.716833
N534	N	1.553484	-0.047759	1.050167
C535	C	0.061923	-0.276960	0.322100
C536	C	0.395256	0.056373	0.655434
C537	C	0.728590	0.389706	0.988767
N538	N	0.084537	-0.300801	0.349753
N539	N	0.417870	0.032532	0.683086
N540	N	0.751203	0.365866	1.016419
H541	H	-0.044939	-0.164338	0.191474
H542	H	0.288394	0.168995	0.524807
H543	H	0.621727	0.502328	0.858140
C544	C	0.685249	-0.276824	0.443696
C545	C	1.018583	0.056509	0.777029
C546	C	1.351916	0.389842	1.110363
N547	N	0.657520	-0.300623	0.421054
N548	N	0.990853	0.032710	0.754388
N549	N	1.324187	0.366044	1.087721
H550	H	0.556465	-0.164298	0.191394
H551	H	0.889799	0.169035	0.524727
H552	H	1.223132	0.502368	0.858061
C553	C	0.859140	-0.835796	0.355794
C554	C	1.192473	-0.502463	0.689128
C555	C	1.525807	-0.169130	1.022461
N556	N	0.886825	-0.855207	0.383532
N557	N	1.220158	-0.521873	0.716865
N558	N	1.553492	-0.188540	1.050198
C559	C	0.449595	-0.156079	0.181870
C560	C	0.782929	0.177254	0.515203
C561	C	1.116262	0.510588	0.848536
N562	N	0.426978	-0.132236	0.154223
N563	N	0.760311	0.201097	0.487556
N564	N	1.093645	0.534430	0.820889
C565	C	0.825635	-0.479256	0.322253
C566	C	1.158969	-0.145922	0.655586
C567	C	1.492302	0.187411	0.988920
N568	N	0.853335	-0.498650	0.349992
N569	N	1.186668	-0.165316	0.683325
N570	N	1.520002	0.168017	1.016658
H571	H	0.849533	-0.603237	0.346183
H572	H	1.182866	-0.269904	0.679516
H573	H	1.516199	0.063430	1.012850
H574	H	0.849572	-0.743984	0.346212
H575	H	1.182905	-0.410651	0.679546
H576	H	1.516239	-0.077317	1.012879
C577	C	0.825798	-1.051666	0.322355
C578	C	1.159131	-0.718333	0.655688
C579	C	1.492465	-0.385000	0.989022
N580	N	0.853481	-1.071076	0.350095
N581	N	1.186814	-0.737743	0.683428
N582	N	1.520148	-0.404410	1.016762
