data_functionalizedCrystal
_audit_creation_method	'MofGen! by Chris Wilmer'
_symmetry_space_group_name_H-M	'P1'
_symmetry_Int_Tables_number	1
_symmetry_cell_setting	triclinic
loop_
_symmetry_equiv_pos_as_xyz
  x,y,z
_cell_length_a	11.026607
_cell_length_b	12.376457
_cell_length_c	10.967829
_cell_angle_alpha	90.447946
_cell_angle_beta	96.380563
_cell_angle_gamma	103.813714
loop_
_atom_site_label
_atom_site_type_symbol
_atom_site_fract_x
_atom_site_fract_y
_atom_site_fract_z
O1	O	1.660922	0.188665	0.485934
O2	O	1.304370	0.177488	0.428548
O3	O	1.482512	0.149352	0.284141
O4	O	1.482781	0.216802	0.630341
O5	O	1.437990	-0.031638	0.320184
O6	O	1.259848	-0.003502	0.464591
O7	O	1.616400	0.007676	0.521977
Zn8	Zn	1.431055	-0.026649	0.499006
Zn9	Zn	1.489715	0.211813	0.451519
O10	O	1.438259	0.035812	0.666384
C11	C	1.236300	0.084931	0.435983
C12	C	1.099801	0.078784	0.404423
C13	C	1.030925	0.095762	0.491563
C14	C	0.889846	0.089409	0.458947
N15	N	1.391031	-0.189392	0.531416
C16	C	1.622658	-0.580924	0.343843
C17	C	1.650665	-0.467004	0.321158
C18	C	1.585758	-0.397596	0.373720
C19	C	1.492841	-0.442118	0.448973
C20	C	1.464839	-0.556048	0.471668
C21	C	1.427939	-0.372719	0.501545
C22	C	1.335022	-0.417242	0.576797
C23	C	1.307023	-0.531160	0.599489
C24	C	1.371930	-0.600569	0.546926
C25	C	1.455941	-0.258790	0.478849
C26	C	1.298122	-0.233914	0.606674
C27	C	1.270115	-0.347833	0.629360
C28	C	1.684471	0.100235	0.514542
C29	C	1.820972	0.106389	0.546100
N30	N	1.529749	0.374555	0.419101
C31	C	1.456906	0.050090	0.257152
C32	C	1.446927	0.023967	0.123032
C33	C	1.465542	0.106080	0.044571
C34	C	1.455228	0.079082	-0.094049
C35	C	1.463865	0.135076	0.693373
C36	C	1.473846	0.161206	0.827492
H37	H	0.844380	0.070196	0.360185
N38	N	1.206807	-0.579183	0.680652
H39	H	1.138211	-0.637694	0.632399
H40	H	1.245241	-0.614036	0.753412
N41	N	1.750873	-0.418984	0.239999
H42	H	1.833963	-0.432456	0.276520
H43	H	1.726919	-0.456067	0.155517
N44	N	1.424014	-0.040522	-0.140990
H45	H	1.413010	-0.091611	-0.069585
H46	H	1.343530	-0.056219	-0.198970
N47	N	1.415707	-0.095633	0.076092
H48	H	1.335203	-0.111432	0.018131
H49	H	1.486372	-0.108799	0.031259
H50	H	1.076401	0.114995	0.590314
N51	N	1.505066	0.280810	-0.125565
H52	H	1.585571	0.296604	-0.067605
H53	H	1.516004	0.331821	-0.197037
H54	H	0.866441	0.125623	0.644858
N55	N	1.692669	-0.655779	0.287171
H56	H	1.660832	-0.734702	0.312972
H57	H	1.678555	-0.653106	0.194782
N58	N	1.341726	-0.723441	0.571405
H59	H	1.250531	-0.757796	0.541455
H60	H	1.397018	-0.760558	0.526683
N61	N	1.039574	0.053285	0.273616
H62	H	0.947327	0.052356	0.268859
H63	H	1.082117	0.112318	0.218882
H64	H	1.531595	-0.222550	0.417579
H65	H	1.608565	-0.304838	0.355246
H66	H	1.194460	-0.384098	0.690633
N67	N	1.228111	-0.159065	0.663380
H68	H	1.259946	-0.080141	0.637581
H69	H	1.135287	-0.185343	0.634748
H70	H	1.489109	0.196366	0.080023
