data_functionalizedCrystal
_audit_creation_method	'MofGen! by Chris Wilmer'
_symmetry_space_group_name_H-M	'P1'
_symmetry_Int_Tables_number	1
_symmetry_cell_setting	triclinic
loop_
_symmetry_equiv_pos_as_xyz
  x,y,z
_cell_length_a	12.759401
_cell_length_b	16.625546
_cell_length_c	12.759393
_cell_angle_alpha	89.963756
_cell_angle_beta	89.980163
_cell_angle_gamma	90.023993
loop_
_atom_site_label
_atom_site_type_symbol
_atom_site_fract_x
_atom_site_fract_y
_atom_site_fract_z
Zn1	Zn	1.606198	-0.320921	-0.593986
Zn2	Zn	1.939532	0.012412	-0.260653
Zn3	Zn	2.272865	0.345746	0.072680
Zn4	Zn	1.606069	-0.455778	-0.418292
Zn5	Zn	1.939402	-0.122444	-0.084959
Zn6	Zn	2.272736	0.210889	0.248374
Zn7	Zn	1.430500	-0.320966	-0.418322
Zn8	Zn	1.763834	0.012367	-0.084988
Zn9	Zn	2.097167	0.345700	0.248345
Zn10	Zn	1.430465	-0.455719	-0.593930
Zn11	Zn	1.763798	-0.122385	-0.260596
Zn12	Zn	2.097132	0.210948	0.072737
O13	O	1.518308	-0.388346	-0.506132
O14	O	1.851641	-0.055013	-0.172799
O15	O	2.184975	0.278321	0.160534
O16	O	1.753202	-0.338816	-0.570692
O17	O	2.086535	-0.005482	-0.237358
O18	O	2.419869	0.327851	0.095975
O19	O	1.582740	-0.437938	-0.271275
O20	O	1.916073	-0.104605	0.062058
O21	O	2.249407	0.228728	0.395392
O22	O	1.453876	-0.208128	-0.441660
O23	O	1.787209	0.125205	-0.108327
O24	O	2.120543	0.458539	0.225007
O25	O	1.753107	-0.437894	-0.441610
O26	O	2.086440	-0.104561	-0.108277
O27	O	2.419774	0.228772	0.225057
O28	O	1.582960	-0.208094	-0.570720
O29	O	1.916294	0.125239	-0.237387
O30	O	2.249627	0.458572	0.095947
O31	O	1.453751	-0.338893	-0.271297
O32	O	1.787084	-0.005560	0.062037
O33	O	2.120417	0.327773	0.395370
O34	O	1.283475	-0.338836	-0.441605
O35	O	1.616808	-0.005503	-0.108271
O36	O	1.950141	0.327831	0.225062
O37	O	1.453816	-0.437794	-0.740958
O38	O	1.787149	-0.104460	-0.407625
O39	O	2.120482	0.228873	-0.074292
O40	O	1.283449	-0.437838	-0.570623
O41	O	1.616782	-0.104505	-0.237290
O42	O	1.950115	0.228829	0.096043
O43	O	1.582926	-0.338758	-0.741000
O44	O	1.916260	-0.005425	-0.407667
O45	O	2.249593	0.327908	-0.074333
O46	O	1.582706	-0.568602	-0.441555
O47	O	1.916039	-0.235269	-0.108222
O48	O	2.249372	0.098064	0.225112
O49	O	1.453690	-0.568559	-0.570595
O50	O	1.787024	-0.235226	-0.237261
O51	O	2.120357	0.098108	0.096072
C52	C	1.245341	-0.388336	-0.506112
C53	C	1.578674	-0.055003	-0.172778
C54	C	1.912007	0.278331	0.160555
C55	C	1.128564	-0.388351	-0.506128
C56	C	1.461897	-0.055018	-0.172794
C57	C	1.795231	0.278315	0.160539
C58	C	1.073716	-0.439980	-0.573202
C59	C	1.407050	-0.106647	-0.239868
C60	C	1.740383	0.226687	0.093465
C61	C	0.963992	-0.439983	-0.573223
C62	C	1.297325	-0.106650	-0.239889
C63	C	1.630659	0.226684	0.093444
C64	C	0.963974	-0.336726	-0.439086
C65	C	1.297307	-0.003393	-0.105753
C66	C	1.630640	0.329940	0.227581
C67	C	1.073696	-0.336720	-0.439071
C68	C	1.407029	-0.003387	-0.105738
C69	C	1.740362	0.329947	0.227595
C70	C	1.518209	-0.597837	-0.506088
C71	C	1.851542	-0.264504	-0.172755
C72	C	2.184875	0.068830	0.160578
C73	C	1.518262	-0.687458	-0.506105
C74	C	1.851596	-0.354125	-0.172771
C75	C	2.184929	-0.020791	0.160562
C76	C	1.518446	-1.015633	-0.506214
C77	C	1.851779	-0.682300	-0.172881
C78	C	2.185112	-0.348967	0.160452
C79	C	1.518391	-0.924325	-0.506187
C80	C	1.851725	-0.590992	-0.172853
C81	C	2.185058	-0.257658	0.160480
C82	C	1.518353	-0.851549	-0.506159
C83	C	1.851686	-0.518215	-0.172826
C84	C	2.185020	-0.184882	0.160508
C85	C	1.518300	-0.760234	-0.506132
C86	C	1.851634	-0.426901	-0.172799
C87	C	2.184967	-0.093568	0.160534
C88	C	1.792341	-0.388356	-0.506154
C89	C	2.125675	-0.055023	-0.172821
C90	C	2.459008	0.278310	0.160513
C91	C	1.909118	-0.388361	-0.506163
C92	C	2.242451	-0.055028	-0.172830
C93	C	2.575785	0.278306	0.160504
C94	C	1.518382	-0.388264	-0.780166
C95	C	1.851715	-0.054931	-0.446833
C96	C	2.185048	0.278402	-0.113499
C97	C	1.518413	-0.388230	-0.896943
C98	C	1.851746	-0.054896	-0.563609
C99	C	2.185079	0.278437	-0.230276
C100	C	1.518437	-0.178037	-0.506200
C101	C	1.851770	0.155296	-0.172866
C102	C	2.185103	0.488630	0.160467
C103	C	1.518491	-0.088416	-0.506228
C104	C	1.851825	0.244917	-0.172895
C105	C	2.185158	0.578251	0.160438
C106	C	1.451272	-0.336647	-0.951815
C107	C	1.784605	-0.003314	-0.618482
C108	C	2.117939	0.330019	-0.285149
C109	C	1.451297	-0.336623	-1.061539
C110	C	1.784630	-0.003289	-0.728206
C111	C	2.117963	0.330044	-0.394873
C112	C	1.585611	-0.439765	-1.061509
C113	C	1.918945	-0.106431	-0.728175
C114	C	2.252278	0.226902	-0.394842
C115	C	1.585581	-0.439793	-0.951786
C116	C	1.918914	-0.106460	-0.618453
C117	C	2.252248	0.226874	-0.285120
C118	C	1.518296	-0.388369	-0.233165
C119	C	1.851629	-0.055036	0.100168
C120	C	2.184962	0.278298	0.433502
C121	C	1.518468	-0.388177	-0.116389
C122	C	1.851801	-0.054843	0.216944
C123	C	2.185134	0.278490	0.550278
H124	H	0.919340	-0.482023	-0.627843
H125	H	1.252673	-0.148690	-0.294509
H126	H	1.586006	0.184643	0.038824
Cl127	Cl	1.366828	-0.271829	-0.882873
Cl128	Cl	1.700161	0.061505	-0.549539
Cl129	Cl	2.033495	0.394838	-0.216206
Cl130	Cl	1.670049	-0.504581	-1.130462
Cl131	Cl	2.003383	-0.171248	-0.797129
Cl132	Cl	2.336716	0.162086	-0.463796
H133	H	1.396623	-0.294620	-1.106212
H134	H	1.729956	0.038714	-0.772879
H135	H	2.063290	0.372047	-0.439545
Cl136	Cl	1.669989	-0.504648	-0.882798
Cl137	Cl	2.003322	-0.171315	-0.549465
Cl138	Cl	2.336656	0.162019	-0.216132
Cl139	Cl	1.142653	-0.271804	-0.354749
Cl140	Cl	1.475986	0.061529	-0.021416
Cl141	Cl	1.809319	0.394862	0.311918
Cl142	Cl	1.142690	-0.504885	-0.657505
Cl143	Cl	1.476023	-0.171551	-0.324172
Cl144	Cl	1.809357	0.161782	0.009162
Cl145	Cl	0.894989	-0.271824	-0.354789
Cl146	Cl	1.228322	0.061509	-0.021456
Cl147	Cl	1.561655	0.394843	0.311878
