data_functionalizedCrystal
_audit_creation_method	'MofGen! by Chris Wilmer'
_symmetry_space_group_name_H-M	'P1'
_symmetry_Int_Tables_number	1
_symmetry_cell_setting	triclinic
loop_
_symmetry_equiv_pos_as_xyz
  x,y,z
_cell_length_a	25.639243
_cell_length_b	25.639239
_cell_length_c	16.120297
_cell_angle_alpha	92.868703
_cell_angle_beta	92.875565
_cell_angle_gamma	90.041410
loop_
_atom_site_label
_atom_site_type_symbol
_atom_site_fract_x
_atom_site_fract_y
_atom_site_fract_z
Zn1	Zn	0.784262	-0.223118	-0.471425
Zn2	Zn	0.788611	-0.306118	-0.332008
Zn3	Zn	0.701263	-0.218703	-0.332023
Zn4	Zn	0.696786	-0.310527	-0.471367
O5	O	0.742730	-0.264616	-0.401705
O6	O	0.858004	-0.234131	-0.452949
O7	O	0.780718	-0.290830	-0.215348
O8	O	0.712327	-0.146125	-0.350545
O9	O	0.861199	-0.295111	-0.350520
O10	O	0.773306	-0.149368	-0.452963
O11	O	0.716544	-0.226606	-0.215358
O12	O	0.627505	-0.230881	-0.350489
O13	O	0.704696	-0.302624	-0.588037
O14	O	0.624215	-0.298343	-0.452864
O15	O	0.768965	-0.238406	-0.588079
O16	O	0.776376	-0.379867	-0.350464
O17	O	0.708912	-0.383106	-0.452850
C18	C	0.606889	-0.264612	-0.401672
C19	C	0.548775	-0.264623	-0.401678
C20	C	0.186739	-0.232920	-0.455129
C21	C	0.132134	-0.232919	-0.455134
O22	O	0.102477	-0.205953	-0.500539
N23	N	0.106491	-0.264616	-0.401728
C24	C	0.135455	-0.296310	-0.348308
O25	O	0.108629	-0.323270	-0.302882
C26	C	0.190058	-0.296307	-0.348299
C27	C	0.215699	-0.264613	-0.401714
C28	C	0.212380	-0.201227	-0.508539
C29	C	0.266980	-0.201229	-0.508535
C30	C	0.295940	-0.232922	-0.455120
C31	C	0.270299	-0.264614	-0.401710
C32	C	0.219021	-0.327999	-0.294875
C33	C	0.273628	-0.327993	-0.294871
C34	C	0.299269	-0.296299	-0.348286
C35	C	0.353860	-0.296309	-0.348291
N36	N	0.379504	-0.264612	-0.401697
C37	C	0.350544	-0.232919	-0.455112
C38	C	0.020783	-0.296313	-0.348329
C39	C	-0.033819	-0.296319	-0.348342
C40	C	-0.037136	-0.232927	-0.455167
C41	C	0.017468	-0.232925	-0.455158
C42	C	0.046427	-0.264617	-0.401735
C43	C	0.465209	-0.232924	-0.455099
C44	C	0.519815	-0.232930	-0.455093
C45	C	0.523127	-0.296319	-0.348264
C46	C	0.468526	-0.296316	-0.348274
C47	C	0.439568	-0.264614	-0.401694
O48	O	0.383552	-0.323260	-0.302907
O49	O	0.377377	-0.205959	-0.500522
C50	C	0.742644	-0.400458	-0.401667
C51	C	0.742654	-0.458572	-0.401679
C52	C	0.777943	-0.817240	-0.348484
C53	C	0.777963	-0.871845	-0.348495
O54	O	0.807878	-0.898639	-0.303225
N55	N	0.742821	-0.900857	-0.401761
C56	C	0.707660	-0.875263	-0.455025
O57	O	0.677770	-0.904954	-0.500333
C58	C	0.707643	-0.820659	-0.455017
C59	C	0.742784	-0.791649	-0.401742
C60	C	0.813082	-0.788230	-0.295214
C61	C	0.813061	-0.733629	-0.295202
C62	C	0.777902	-0.708038	-0.348460
C63	C	0.742763	-0.737048	-0.401730
C64	C	0.672484	-0.795066	-0.508285
C65	C	0.672471	-0.740458	-0.508273
C66	C	0.707612	-0.711448	-0.454998
C67	C	0.707583	-0.656856	-0.454976
N68	N	0.742725	-0.627844	-0.401710
C69	C	0.777885	-0.653435	-0.348452
C70	C	0.707699	-0.989934	-0.455038
C71	C	0.707713	-1.044536	-0.455042
C72	C	0.778017	-1.041114	-0.348513
C73	C	0.778000	-0.986511	-0.348505
C74	C	0.742841	-0.960921	-0.401772
C75	C	0.777838	-0.538769	-0.348430
C76	C	0.777813	-0.484163	-0.348421
C77	C	0.707511	-0.487590	-0.454952
C78	C	0.707534	-0.542191	-0.454959
C79	C	0.742702	-0.567779	-0.401696
O80	O	0.677685	-0.630027	-0.500226
O81	O	0.807774	-0.623737	-0.303159
C82	C	0.879102	-0.264621	-0.401739
C83	C	0.937216	-0.264624	-0.401753
C84	C	0.735846	-0.271499	-0.619153
C85	C	0.732912	-0.274432	-0.711816
C86	C	0.742831	-0.128245	-0.401762
C87	C	0.742874	-0.070132	-0.401786
C88	C	0.727536	-0.279776	-0.881473
C89	C	0.758028	-0.249301	-0.922790
C90	C	0.755037	-0.252274	-1.017193
C91	C	0.730526	-0.276803	-0.787061
C92	C	0.749619	-0.257723	-0.185104
C93	C	0.752654	-0.254642	-0.092441
H94	H	0.287852	-0.175419	-0.552030
C95	C	0.689241	-0.318041	-0.929459
C96	C	0.686271	-0.320998	-1.025227
C97	C	0.647978	-0.359264	-1.073225
C98	C	0.612655	-0.394573	-1.025454
C99	C	0.615623	-0.391617	-0.929680
C100	C	0.653916	-0.353351	-0.881683
H101	H	0.712420	-0.294859	-1.060595
H102	H	0.645781	-0.361452	-1.144123
H103	H	0.584308	-0.422900	-1.060985
H104	H	0.589474	-0.417757	-0.894313
H105	H	0.656113	-0.351163	-0.810785
H106	H	0.841716	-0.809060	-0.251844
C107	C	0.548018	-0.198062	-0.513851
C108	C	0.537514	-0.205419	-0.608612
C109	C	0.565714	-0.170552	-0.667368
C110	C	0.604419	-0.128328	-0.631363
C111	C	0.614924	-0.120969	-0.536597
C112	C	0.586724	-0.155836	-0.477841
H113	H	0.508861	-0.236677	-0.635269
H114	H	0.557937	-0.176000	-0.737520
H115	H	0.625294	-0.102517	-0.674857
H116	H	0.643577	-0.089711	-0.509940
H117	H	0.594501	-0.150389	-0.407689
C118	C	0.433361	-0.198056	-0.513864
C119	C	0.437884	-0.205420	-0.608623
C120	C	0.406035	-0.170555	-0.667392
C121	C	0.369663	-0.128326	-0.631402
C122	C	0.365138	-0.120960	-0.536639
C123	C	0.396987	-0.155825	-0.477870
H124	H	0.464810	-0.236682	-0.635269
H125	H	0.409385	-0.176008	-0.737542
H126	H	0.346087	-0.102516	-0.674907
H127	H	0.338212	-0.089697	-0.509993
H128	H	0.393638	-0.150372	-0.407720
H129	H	0.297204	-0.353801	-0.251365
H130	H	-0.060725	-0.207120	-0.498658
H131	H	0.841677	-0.710012	-0.251823
H132	H	0.447648	-0.322130	-0.304788
H133	H	0.188806	-0.175416	-0.552036
C134	C	0.816659	-0.954602	-0.289908
C135	C	0.815444	-0.959138	-0.195129
C136	C	0.854106	-0.927232	-0.136531
C137	C	0.893981	-0.890791	-0.172711
C138	C	0.895197	-0.886254	-0.267494
C139	C	0.856536	-0.918159	-0.326093
H140	H	0.785924	-0.986115	-0.168342
H141	H	0.853205	-0.930591	-0.066366
H142	H	0.922601	-0.867173	-0.129333
H143	H	0.924717	-0.859277	-0.294281
H144	H	0.857436	-0.914800	-0.396258
H145	H	0.546715	-0.322124	-0.304777
H146	H	0.786379	-0.220977	-0.887264
C147	C	0.045670	-0.198057	-0.513909
C148	C	0.035172	-0.205415	-0.608671
C149	C	0.063371	-0.170544	-0.667423
C150	C	0.102069	-0.128316	-0.631414
C151	C	0.112570	-0.120956	-0.536647
C152	C	0.084370	-0.155827	-0.477895
H153	H	0.006524	-0.236676	-0.635332
H154	H	0.055598	-0.175993	-0.737576
H155	H	0.122944	-0.102503	-0.674905
H156	H	0.141218	-0.089695	-0.509986
H157	H	0.092143	-0.150378	-0.407742
H158	H	0.044359	-0.322126	-0.304828
C159	C	-0.062020	-0.331188	-0.289590
C160	C	-0.097479	-0.306402	-0.224202
C161	C	-0.125677	-0.341270	-0.165444
C162	C	-0.118416	-0.400923	-0.172074
C163	C	-0.082956	-0.425712	-0.237465
C164	C	-0.054758	-0.390845	-0.296223
H165	H	-0.102855	-0.262241	-0.219291
H166	H	-0.151927	-0.322919	-0.117037
H167	H	-0.139290	-0.426734	-0.128578
H168	H	-0.077580	-0.469874	-0.242376
H169	H	-0.028508	-0.409195	-0.344630
C170	C	0.190828	-0.362862	-0.236111
C171	C	0.201336	-0.355495	-0.141353
C172	C	0.173145	-0.390360	-0.082583
C173	C	0.134446	-0.432593	-0.118572
C174	C	0.123936	-0.439963	-0.213336
C175	C	0.152127	-0.405097	-0.272105
H176	H	0.229985	-0.324230	-0.114707
H177	H	0.180926	-0.384904	-0.012433
H178	H	0.113578	-0.458403	-0.075067
H179	H	0.095287	-0.471228	-0.239981
H180	H	0.144347	-0.410553	-0.342255
H181	H	0.806429	-0.460544	-0.305035
H182	H	0.806647	-1.061960	-0.305150
H183	H	0.806477	-0.559596	-0.305060
H184	H	0.679064	-0.969101	-0.498411
C185	C	0.633827	-0.826965	-0.566893
C186	C	0.593945	-0.863407	-0.530729
C187	C	0.555285	-0.895304	-0.589342
C188	C	0.556507	-0.890759	-0.684117
C189	C	0.596390	-0.854316	-0.720286
C190	C	0.635051	-0.822419	-0.661673
H191	H	0.593040	-0.866773	-0.460566
H192	H	0.525761	-0.922282	-0.562567
H193	H	0.527888	-0.914372	-0.727506
H194	H	0.597296	-0.850950	-0.790449
H195	H	0.664575	-0.795441	-0.688448
C196	C	0.633792	-0.712310	-0.566865
C197	C	0.574579	-0.719668	-0.559973
C198	C	0.535900	-0.691521	-0.618562
C199	C	0.556434	-0.656015	-0.684043
C200	C	0.615650	-0.648655	-0.690938
C201	C	0.654329	-0.676803	-0.632349
H202	H	0.559377	-0.745953	-0.511497
H203	H	0.492065	-0.696969	-0.613457
H204	H	0.527802	-0.635179	-0.727414
H205	H	0.630853	-0.622370	-0.739414
H206	H	0.698164	-0.671354	-0.637454
C207	C	0.668839	-0.459432	-0.513536
C208	C	0.628945	-0.420795	-0.477342
C209	C	0.590277	-0.392635	-0.535930
C210	C	0.591501	-0.403111	-0.630712
C211	C	0.631396	-0.441749	-0.666911
C212	C	0.670065	-0.469909	-0.608322
H213	H	0.628038	-0.413039	-0.407174
H214	H	0.560744	-0.364033	-0.509133
H215	H	0.562876	-0.382265	-0.674083
H216	H	0.632304	-0.449505	-0.737078
H217	H	0.699598	-0.498512	-0.635119
H218	H	0.678921	-0.565812	-0.498343
H219	H	0.679092	-1.068152	-0.498416
