data_functionalizedCrystal
_audit_creation_method	'MofGen! by Chris Wilmer'
_symmetry_space_group_name_H-M	'P1'
_symmetry_Int_Tables_number	1
_symmetry_cell_setting	triclinic
loop_
_symmetry_equiv_pos_as_xyz
  x,y,z
_cell_length_a	16.959455
_cell_length_b	16.959454
_cell_length_c	12.759393
_cell_angle_alpha	89.969082
_cell_angle_beta	89.978155
_cell_angle_gamma	90.019023
loop_
_atom_site_label
_atom_site_type_symbol
_atom_site_fract_x
_atom_site_fract_y
_atom_site_fract_z
Zn1	Zn	1.208424	-0.314655	-0.594113
Zn2	Zn	1.208334	-0.446858	-0.418435
Zn3	Zn	1.076240	-0.314695	-0.418438
Zn4	Zn	1.076217	-0.446793	-0.594063
O5	O	1.142304	-0.380750	-0.506262
O6	O	1.319023	-0.332203	-0.570828
O7	O	1.190784	-0.429369	-0.271415
O8	O	1.093822	-0.204078	-0.441764
O9	O	1.318957	-0.429331	-0.441759
O10	O	1.190937	-0.204050	-0.570831
O11	O	1.093735	-0.332269	-0.271417
O12	O	0.965626	-0.332207	-0.441716
O13	O	1.093782	-0.429222	-0.741091
O14	O	0.965609	-0.429260	-0.570747
O15	O	1.190914	-0.332141	-0.741127
O16	O	1.190762	-0.557460	-0.441711
O17	O	1.093695	-0.557413	-0.570744
C18	C	0.936938	-0.380731	-0.506227
C19	C	0.849081	-0.380742	-0.506237
C20	C	0.807793	-0.330139	-0.439164
C21	C	0.807816	-0.431351	-0.573325
C22	C	0.725270	-0.431360	-0.573340
C23	C	0.683982	-0.380757	-0.506268
C24	C	0.725239	-0.330145	-0.439179
C25	C	0.684006	-0.481966	-0.640435
C26	C	0.601455	-0.481976	-0.640454
C27	C	0.560166	-0.431377	-0.573375
C28	C	0.601428	-0.380763	-0.506283
C29	C	0.560140	-0.330160	-0.439210
C30	C	0.601401	-0.279550	-0.372113
C31	C	0.683949	-0.279546	-0.372101
C32	C	0.477617	-0.431381	-0.573387
C33	C	0.477586	-0.330166	-0.439226
C34	C	1.142238	-0.586117	-0.506245
C35	C	1.142282	-0.673973	-0.506272
C36	C	1.091835	-1.045454	-0.573443
C37	C	1.192993	-1.045443	-0.439189
C38	C	1.192965	-0.962897	-0.439179
C39	C	1.142371	-0.921626	-0.506301
C40	C	1.091804	-0.962901	-0.573433
C41	C	1.243526	-0.921617	-0.372042
C42	C	1.243500	-0.839066	-0.372029
C43	C	1.192908	-0.797793	-0.439157
C44	C	1.142340	-0.839072	-0.506292
C45	C	1.091746	-0.797801	-0.573413
C46	C	1.041181	-0.839079	-0.640555
C47	C	1.041213	-0.921628	-0.640561
C48	C	1.192876	-0.715244	-0.439150
C49	C	1.091715	-0.715248	-0.573404
C50	C	1.348472	-0.380770	-0.506299
C51	C	1.436329	-0.380778	-0.506314
C52	C	1.142355	-0.380670	-0.780296
C53	C	1.142377	-0.380635	-0.897073
C54	C	1.142392	-0.174582	-0.506303
C55	C	1.142429	-0.086725	-0.506321
C56	C	1.091865	-0.330066	-0.951942
C57	C	1.091889	-0.330043	-1.061666
C58	C	1.192944	-0.431160	-1.061642
C59	C	1.192915	-0.431187	-0.951920
C60	C	1.033524	-0.271685	-0.951957
C61	C	1.033548	-0.271661	-1.061681
C62	C	1.142298	-0.380773	-0.233295
C63	C	1.142429	-0.380585	-0.116519
H64	H	0.717551	-0.238341	-0.317474
H65	H	1.050668	-1.079066	-0.628110
O66	O	1.042494	-0.675282	-0.638644
C67	C	0.942203	-0.684005	-0.771865
C68	C	0.997890	-0.729363	-0.698016
H69	H	0.906139	-0.727710	-0.819902
H70	H	0.900821	-0.645433	-0.723628
H71	H	0.978471	-0.645283	-0.826792
H72	H	0.961686	-0.768128	-0.643075
H73	H	1.039274	-0.767886	-0.746318
O74	O	0.561256	-0.230509	-0.306845
C75	C	0.467954	-0.219774	-0.165095
C76	C	0.513385	-0.275399	-0.238926
H77	H	0.429227	-0.256044	-0.110179
H78	H	0.511584	-0.183616	-0.117057
H79	H	0.429374	-0.178469	-0.213452
H80	H	0.551966	-0.316752	-0.190650
H81	H	0.469713	-0.311501	-0.286968
H82	H	0.841391	-0.288936	-0.384532
O83	O	0.848042	-0.480478	-0.638377
C84	C	0.975227	-0.525288	-0.697855
C85	C	0.929766	-0.469621	-0.624113
H86	H	1.041309	-0.516518	-0.686365
H87	H	0.959035	-0.589028	-0.679264
H88	H	0.958985	-0.511492	-0.782594
H89	H	0.945984	-0.483346	-0.539350
H90	H	0.945962	-0.405898	-0.642795
O91	O	0.437453	-0.480575	-0.638415
C92	C	0.344274	-0.587348	-0.652353
C93	C	0.389694	-0.531669	-0.578585
H94	H	0.305663	-0.628682	-0.604009
H95	H	0.305604	-0.551147	-0.707354
H96	H	0.387983	-0.623470	-0.700315
H97	H	0.346042	-0.495534	-0.530555
H98	H	0.428376	-0.567915	-0.523653
O99	O	0.992076	-0.799070	-0.705903
C100	C	0.953667	-0.773693	-0.884566
C101	C	1.009310	-0.819072	-0.810680
H102	H	0.967592	-0.789835	-0.969295
H103	H	0.889929	-0.789990	-0.866135
H104	H	0.962321	-0.707609	-0.872960
H105	H	1.000726	-0.885166	-0.822245
H106	H	1.073028	-0.802710	-0.829129
O107	O	0.992118	-0.961847	-0.705670
C108	C	0.947361	-1.089025	-0.765210
C109	C	1.002989	-1.043572	-0.691410
H110	H	0.956143	-1.155108	-0.753723
H111	H	0.883610	-1.072905	-0.746673
H112	H	0.961187	-1.072704	-0.849934
H113	H	0.989235	-1.059869	-0.606662
H114	H	1.066723	-1.059696	-0.710038
O115	O	1.242193	-1.085581	-0.374119
C116	C	1.348865	-1.178805	-0.360059
C117	C	1.293223	-1.133370	-0.433886
H118	H	1.390126	-1.217466	-0.408350
H119	H	1.385061	-1.135177	-0.312070
H120	H	1.312556	-1.217451	-0.305087
H121	H	1.329472	-1.094723	-0.488922
H122	H	1.257025	-1.177041	-0.481802
H123	H	1.234042	-0.681640	-0.384480
H124	H	0.567868	-0.523187	-0.695088
H125	H	1.284711	-0.955226	-0.317387
H126	H	1.284673	-0.805462	-0.317360
O127	O	0.964235	-0.297932	-1.102318
C128	C	0.899705	-0.394834	-1.210509
C129	C	0.978248	-0.365168	-1.164541
H130	H	0.911009	-0.449189	-1.260844
H131	H	0.857691	-0.410733	-1.144001
H132	H	0.872271	-0.346500	-1.260772
H133	H	1.005750	-0.413467	-1.114290
H134	H	1.020208	-0.349246	-1.231098
H135	H	1.049968	-0.210434	-1.091479
O136	O	1.242054	-0.480338	-0.898782
C137	C	1.342250	-0.580667	-0.910342
C138	C	1.286652	-0.525029	-0.970650
H139	H	1.378311	-0.616827	-0.968421
H140	H	1.383640	-0.544436	-0.859015
H141	H	1.305914	-0.621969	-0.858929
H142	H	1.322925	-0.483716	-1.022120
H143	H	1.245260	-0.561310	-1.021911
H144	H	0.717630	-0.523161	-0.695045
H145	H	1.234091	-0.472316	-1.106312
H146	H	0.972290	-0.288077	-0.922173
H147	H	1.055471	-0.213545	-0.917942
H148	H	0.443975	-0.288960	-0.384605
