data_functionalizedCrystal
_audit_creation_method	'MofGen! by Chris Wilmer'
_symmetry_space_group_name_H-M	'P1'
_symmetry_Int_Tables_number	1
_symmetry_cell_setting	triclinic
loop_
_symmetry_equiv_pos_as_xyz
  x,y,z
_cell_length_a	15.944499
_cell_length_b	27.732048
_cell_length_c	15.021413
_cell_angle_alpha	89.999048
_cell_angle_beta	89.990095
_cell_angle_gamma	83.060132
loop_
_atom_site_label
_atom_site_type_symbol
_atom_site_fract_x
_atom_site_fract_y
_atom_site_fract_z
O1	O	1.113742	0.062215	-0.074095
O2	O	1.613742	0.562215	0.425905
O3	O	0.869086	0.069927	-0.074087
O4	O	1.369086	0.569927	0.425913
O5	O	0.999013	-0.004294	-0.074074
O6	O	1.499013	0.495706	0.425926
O7	O	0.983816	0.136436	-0.074108
O8	O	1.483816	0.636436	0.425892
O9	O	0.998992	-0.004283	0.073990
O10	O	1.498992	0.495717	0.573990
O11	O	0.869065	0.069938	0.073978
O12	O	1.369065	0.569938	0.573978
O13	O	1.113722	0.062226	0.073969
O14	O	1.613722	0.562226	0.573969
Zn15	Zn	0.991390	0.066083	0.097482
Zn16	Zn	1.491390	0.566083	0.597482
Zn17	Zn	0.991417	0.066069	-0.097599
Zn18	Zn	1.491417	0.566069	0.402401
O19	O	0.983795	0.136446	0.073957
O20	O	1.483795	0.636446	0.573957
C21	C	0.837785	0.069617	-0.000053
C22	C	1.337785	0.569617	0.499947
C23	C	0.744549	0.068670	-0.000049
C24	C	1.244549	0.568670	0.499951
C25	C	0.998683	-0.022297	-0.000040
C26	C	1.498683	0.477703	0.499960
C27	C	0.997723	-0.075956	-0.000032
C28	C	1.497723	0.424044	0.499968
C29	C	0.452449	0.111790	-0.000072
C30	C	0.952449	0.611790	0.499928
C31	C	0.513782	0.089370	-0.073072
C32	C	1.013782	0.589370	0.426928
C33	C	0.408957	0.065231	-0.000069
C34	C	0.908957	0.565231	0.499931
C35	C	0.513747	0.089368	0.072908
C36	C	1.013747	0.589368	0.572908
C37	C	0.573844	0.066923	-0.000058
C38	C	1.073844	0.566923	0.499942
C39	C	0.469062	0.042798	-0.073129
C40	C	0.969062	0.542798	0.426871
C41	C	0.469021	0.042802	0.072917
C42	C	0.969021	0.542802	0.572917
C43	C	0.530337	0.020348	-0.000101
C44	C	1.030337	0.520348	0.499899
C45	C	0.313970	0.064257	-0.000076
C46	C	0.813970	0.564257	0.499924
C47	C	0.668830	0.067893	-0.000057
C48	C	1.168830	0.567893	0.499943
C49	C	1.068453	-0.414472	-0.000080
C50	C	1.568453	0.085528	0.499920
C51	C	1.064889	-0.616147	-0.000093
C52	C	1.564889	-0.116147	0.499907
O53	O	1.129568	-0.647129	-0.000134
O54	O	1.629568	-0.147129	0.499866
N55	N	0.987848	-0.635596	-0.000089
N56	N	1.487848	-0.135596	0.499911
C57	C	0.911693	-0.604623	-0.000088
C58	C	1.411693	-0.104623	0.499912
O59	O	0.846083	-0.625793	-0.000095
O60	O	1.346083	-0.125793	0.499905
C61	C	0.915258	-0.402949	-0.000082
C62	C	1.415258	0.097051	0.499918
C63	C	0.992304	-0.383503	-0.000077
C64	C	1.492304	0.116497	0.499923
C65	C	1.145493	-0.395025	-0.000076
C66	C	1.645493	0.104975	0.499924
C67	C	1.146384	-0.344609	-0.000068
C68	C	1.646384	0.155391	0.499932
C69	C	1.070234	-0.313640	-0.000065
C70	C	1.570234	0.186360	0.499935
C71	C	0.993194	-0.333087	-0.000069
C72	C	1.493194	0.166913	0.499931
C73	C	0.839103	-0.371977	-0.000088
C74	C	1.339103	0.128023	0.499912
C75	C	0.840001	-0.321556	-0.000089
C76	C	1.340001	0.178444	0.499911
C77	C	0.917047	-0.302110	-0.000083
C78	C	1.417047	0.197890	0.499917
C79	C	0.917934	-0.251702	-0.000058
C80	C	1.417934	0.248298	0.499942
N81	N	0.994976	-0.232253	-0.000061
N82	N	1.494976	0.267747	0.499939
C83	C	1.071125	-0.263222	-0.000065
C84	C	1.571125	0.236778	0.499935
C85	C	0.909826	-0.710505	-0.000090
C86	C	1.409826	-0.210505	0.499910
C87	C	0.908935	-0.760923	-0.000090
C88	C	1.408935	-0.260923	0.499910
C89	C	1.062132	-0.772443	-0.000096
C90	C	1.562132	-0.272443	0.499904
C91	C	1.063023	-0.722024	-0.000089
C92	C	1.563023	-0.222024	0.499911
C93	C	0.986868	-0.691056	-0.000093
C94	C	1.486868	-0.191056	0.499907
C95	C	1.072989	-0.157345	-0.000047
C96	C	1.572989	0.342655	0.499953
C97	C	1.073872	-0.106925	-0.000036
C98	C	1.573872	0.393075	0.499964
C99	C	0.920676	-0.095409	-0.000034
C100	C	1.420676	0.404591	0.499966
C101	C	0.919792	-0.145825	-0.000041
C102	C	1.419792	0.354175	0.499959
C103	C	0.995955	-0.176792	-0.000051
C104	C	1.495955	0.323208	0.499949
O105	O	0.853291	-0.220691	-0.000026
O106	O	1.353291	0.279309	0.499974
O107	O	1.136726	-0.242043	-0.000078
O108	O	1.636726	0.257957	0.499922
C109	C	1.067563	-0.464888	-0.000088
C110	C	1.567563	0.035112	0.499912
C111	C	0.990523	-0.484334	-0.000093
C112	C	1.490523	0.015666	0.499907
C113	C	0.914374	-0.453365	-0.000089
C114	C	1.414374	0.046635	0.499911
C115	C	0.989632	-0.534752	-0.000093
C116	C	1.489632	-0.034752	0.499907
C117	C	1.065782	-0.565721	-0.000096
C118	C	1.565782	-0.065721	0.499904
C119	C	1.142823	-0.546272	-0.000100
C120	C	1.642823	-0.046272	0.499900
C121	C	1.143713	-0.495857	-0.000092
C122	C	1.643713	0.004143	0.499908
C123	C	0.837332	-0.472814	-0.000086
C124	C	1.337332	0.027186	0.499914
C125	C	0.836449	-0.523231	-0.000093
C126	C	1.336449	-0.023231	0.499907
C127	C	0.912598	-0.554200	-0.000096
C128	C	1.412598	-0.054200	0.499904
C129	C	1.145023	0.062536	-0.000066
C130	C	1.645023	0.562536	0.499934
C131	C	1.238258	0.063483	-0.000076
C132	C	1.738258	0.563483	0.499924
N133	N	0.991378	0.066093	0.230619
N134	N	1.491378	0.566093	0.730619
C135	C	0.984124	0.154449	-0.000080
C136	C	1.484124	0.654449	0.499920
C137	C	0.985085	0.208108	-0.000093
C138	C	1.485085	0.708108	0.499907
N139	N	0.991436	0.066056	-0.230737
N140	N	1.491436	0.566056	0.269263
C141	C	0.931291	0.100396	0.470297
C142	C	1.431291	0.600396	0.970297
C143	C	1.007070	0.109772	0.529626
C144	C	1.507070	0.609772	1.029626
C145	C	0.991399	0.066080	0.412226
C146	C	1.491399	0.566080	0.912226
C147	C	0.915640	0.056715	0.529639
C148	C	1.415640	0.556715	1.029639
C149	C	0.991413	0.066070	0.587650
C150	C	1.491413	0.566070	1.087650
C151	C	1.067217	0.075478	0.470249
C152	C	1.567217	0.575478	0.970249
C153	C	0.975737	0.022403	0.470257
C154	C	1.475737	0.522403	0.970257
C155	C	1.051572	0.031760	0.529559
C156	C	1.551572	0.531760	1.029559
C157	C	0.991390	0.066088	0.311169
C158	C	1.491390	0.566088	0.811169
C159	C	0.991431	0.066062	0.688706
C160	C	1.491431	0.566062	1.188706
H161	H	0.418614	0.150430	-0.000152
H162	H	0.918614	0.650430	0.499848
F163	F	0.837791	-0.166522	-0.000031
F164	F	1.337791	0.333478	0.499969
F165	F	1.154051	-0.190296	-0.000058
F166	F	1.654051	0.309704	0.499942
F167	F	0.839636	-0.062441	-0.000030
F168	F	1.339636	0.437559	0.499970
F169	F	1.143177	-0.805411	-0.000101
F170	F	1.643177	-0.305411	0.499899
F171	F	0.539718	0.115103	-0.153753
F172	F	1.039718	0.615103	0.346247
H173	H	0.846196	-0.776751	-0.000079
H174	H	1.346196	-0.276751	0.499921
H175	H	1.206452	-0.480029	-0.000088
H176	H	1.706452	0.019971	0.499912
H177	H	1.131304	0.083439	0.444271
H178	H	1.631304	0.583439	0.944271
F179	F	0.828766	-0.677551	-0.000094
F180	F	1.328766	-0.177551	0.499906
F181	F	0.758944	-0.288599	-0.000095
F182	F	1.258944	0.211401	0.499905
F183	F	0.443300	0.017071	-0.153882
F184	F	0.943300	0.517071	0.346118
F185	F	1.155879	-0.086232	-0.000030
F186	F	1.655879	0.413768	0.499970
H187	H	0.564020	-0.018326	-0.000130
H188	H	1.064020	0.481674	0.499870
H189	H	0.449153	0.023130	0.134643
H190	H	0.949153	0.523130	0.634643
H191	H	1.125760	-0.706195	-0.000086
H192	H	1.625760	-0.206195	0.499914
F193	F	1.118091	-0.006179	0.563361
F194	F	1.618091	0.493821	1.063361
F195	F	1.223867	-0.579241	-0.000099
F196	F	1.723867	-0.079241	0.499901
F197	F	0.864916	0.138356	0.436282
F198	F	1.364916	0.638356	0.936282
F199	F	0.539642	0.115123	0.153569
F200	F	1.039642	0.615123	0.653569
F201	F	0.958375	-0.025856	0.436142
F202	F	1.458375	0.474144	0.936142
F203	F	0.831892	0.046367	0.563739
F204	F	1.331892	0.546367	1.063739
F205	F	1.024403	0.158045	0.563712
F206	F	1.524403	0.658045	1.063712
F207	F	1.228387	-0.323920	-0.000082
F208	F	1.728387	0.176080	0.499918
F209	F	0.756279	-0.439861	-0.000085
F210	F	1.256279	0.060139	0.499915
H211	H	1.207507	-0.420236	-0.000082
H212	H	1.707507	0.079764	0.499918
F213	F	0.757098	-0.392662	-0.000098
F214	F	1.257098	0.107338	0.499902
H215	H	0.773704	-0.539058	-0.000089
H216	H	1.273704	-0.039058	0.499911
