data_functionalizedCrystal
_audit_creation_method	'MofGen! by Chris Wilmer'
_symmetry_space_group_name_H-M	'P1'
_symmetry_Int_Tables_number	1
_symmetry_cell_setting	triclinic
loop_
_symmetry_equiv_pos_as_xyz
  x,y,z
_cell_length_a	10.654554
_cell_length_b	11.026607
_cell_length_c	9.130313
_cell_angle_alpha	90.000037
_cell_angle_beta	89.998999
_cell_angle_gamma	96.536430
loop_
_atom_site_label
_atom_site_type_symbol
_atom_site_fract_x
_atom_site_fract_y
_atom_site_fract_z
O1	O	1.704904	0.170790	-0.121822
O2	O	1.342956	0.187054	-0.121818
O3	O	1.493932	0.002016	-0.121814
O4	O	1.553928	0.355828	-0.121826
O5	O	1.493931	0.002021	0.121784
O6	O	1.342955	0.187059	0.121780
O7	O	1.704903	0.170795	0.121777
Cu8	Cu	1.523929	0.178927	0.144021
Cu9	Cu	1.523930	0.178921	-0.144063
O10	O	1.553927	0.355833	0.121773
C11	C	1.295898	0.185861	-0.000019
C12	C	1.155679	0.182284	-0.000017
C13	C	1.482864	-0.043286	-0.000017
C14	C	1.449869	-0.178278	-0.000022
C15	C	0.948008	0.066612	-0.000033
C16	C	1.079759	0.069972	-0.000018
C17	C	1.099842	0.291245	-0.000017
C18	C	0.968094	0.287884	-0.000021
C19	C	0.936415	-0.061139	-0.000040
C20	C	1.068166	-0.057779	-0.000025
C21	C	1.540972	-0.251316	-0.000025
C22	C	1.506873	-0.390837	-0.000030
C23	C	1.751961	0.171988	-0.000026
C24	C	1.892180	0.175564	-0.000037
C25	C	1.564995	0.401135	-0.000028
C26	C	1.597990	0.536127	-0.000033
N27	N	1.523937	0.178931	0.346644
N28	N	1.523930	0.178908	-0.346685
C29	C	1.590817	0.097024	0.423298
C30	C	1.590810	0.097009	0.576634
C31	C	1.457042	0.260819	0.576650
C32	C	1.457042	0.260827	0.423316
C33	C	1.668052	0.002453	0.423290
C34	C	1.668045	0.002439	0.576627
H35	H	1.161667	0.382692	-0.000003
H36	H	1.403625	-0.431594	-0.000038
H37	H	1.701239	-0.423119	-0.000143
H38	H	1.644214	-0.210554	-0.000016
O39	O	1.326763	-0.227095	0.000039
C40	C	1.180533	-0.410663	-0.000065
C41	C	1.320004	-0.355545	-0.000098
H42	H	1.175022	-0.514522	-0.000207
H43	H	1.131627	-0.379215	0.101906
H44	H	1.131691	-0.379043	-0.101986
H45	H	1.368953	-0.387140	0.101753
H46	H	1.368815	-0.386988	-0.102137
O47	O	1.392228	0.340555	0.348925
C48	C	1.366193	0.551301	0.302110
C49	C	1.439721	0.461141	0.386419
H50	H	1.404545	0.648814	0.332416
H51	H	1.377698	0.537352	0.179328
H52	H	1.261828	0.534471	0.332248
H53	H	1.544111	0.477916	0.356403
H54	H	1.428110	0.475110	0.509180
O55	O	1.112544	-0.104042	0.125371
C56	C	1.110722	-0.278855	0.284054
C57	C	1.060389	-0.226633	0.141989
H58	H	1.068555	-0.377968	0.297550
H59	H	1.218062	-0.274036	0.278308
H60	H	1.082744	-0.223178	0.381539
H61	H	1.088275	-0.282269	0.044430
H62	H	0.953057	-0.231430	0.147862
H63	H	1.618362	-0.085873	0.624177
O64	O	1.788641	0.027352	0.626040
C65	C	2.008393	0.072593	0.562017
C66	C	1.871884	0.044425	0.505859
H67	H	2.075735	0.086379	0.464881
H68	H	2.016559	0.159122	0.631345
H69	H	2.033949	-0.006965	0.631421
H70	H	1.846238	0.123907	0.436396
H71	H	1.863790	-0.042146	0.436612
H72	H	1.099476	-0.105910	-0.101971
H73	H	0.891957	-0.101820	-0.105221
H74	H	1.626323	-0.090998	0.381673
O75	O	0.913924	0.393755	-0.000271
C76	C	0.890854	0.581895	-0.126405
C77	C	0.952257	0.462024	-0.126324
H78	H	0.921844	0.637136	-0.228292
H79	H	0.783641	0.560280	-0.126501
H80	H	0.921690	0.637051	-0.024405
H81	H	0.921521	0.406809	-0.228306
H82	H	1.059460	0.483724	-0.126151
H83	H	1.402577	0.327496	0.639093
H84	H	1.765663	0.032067	0.375730
H85	H	0.896206	-0.111101	0.101900
