data_functionalizedCrystal
_audit_creation_method	'MofGen! by Chris Wilmer'
_symmetry_space_group_name_H-M	'P1'
_symmetry_Int_Tables_number	1
_symmetry_cell_setting	triclinic
loop_
_symmetry_equiv_pos_as_xyz
  x,y,z
_cell_length_a	17.699083
_cell_length_b	11.792241
_cell_length_c	16.776229
_cell_angle_alpha	89.993219
_cell_angle_beta	89.998886
_cell_angle_gamma	83.738215
loop_
_atom_site_label
_atom_site_type_symbol
_atom_site_fract_x
_atom_site_fract_y
_atom_site_fract_z
O1	O	1.004843	0.143527	-0.066177
O2	O	1.504843	0.643527	0.433823
O3	O	0.784565	0.162200	-0.066203
O4	O	1.284565	0.662200	0.433797
O5	O	0.900050	-0.012371	-0.066184
O6	O	1.400050	0.487629	0.433816
O7	O	0.889358	0.318098	-0.066196
O8	O	1.389358	0.818098	0.433804
O9	O	0.900034	-0.012382	0.066393
O10	O	1.400034	0.487618	0.566393
O11	O	0.784549	0.162189	0.066374
O12	O	1.284549	0.662189	0.566374
O13	O	1.004828	0.143516	0.066400
O14	O	1.504828	0.643516	0.566400
Zn15	Zn	0.894686	0.152851	0.087436
Zn16	Zn	1.394686	0.652851	0.587436
Zn17	Zn	0.894706	0.152865	-0.087239
Zn18	Zn	1.394706	0.652865	0.412761
O19	O	0.889343	0.318087	0.066381
O20	O	1.389343	0.818087	0.566381
C21	C	0.756356	0.161525	0.000082
C22	C	1.256356	0.661525	0.500082
C23	C	0.672328	0.159518	0.000072
C24	C	1.172328	0.659518	0.500072
C25	C	0.899370	-0.054660	0.000104
C26	C	1.399370	0.445340	0.500104
C27	C	0.897360	-0.180649	0.000103
C28	C	1.397360	0.319351	0.500103
C29	C	0.624253	0.261988	0.000069
C30	C	1.124253	0.761988	0.500069
C31	C	0.545299	0.260095	0.000079
C32	C	1.045299	0.760095	0.500079
C33	C	0.514422	0.155731	0.000087
C34	C	1.014422	0.655731	0.500087
C35	C	0.562503	0.053254	0.000093
C36	C	1.062503	0.553254	0.500093
C37	C	0.641455	0.055148	0.000089
C38	C	1.141455	0.555148	0.500089
C39	C	0.244099	0.045613	0.000113
C40	C	0.744099	0.545613	0.500113
C41	C	0.165141	0.043727	0.000116
C42	C	0.665141	0.543727	0.500116
C43	C	0.147944	0.250560	0.000104
C44	C	0.647944	0.750560	0.500104
C45	C	0.226896	0.252454	0.000099
C46	C	0.726896	0.752454	0.500099
C47	C	0.274970	0.149977	0.000109
C48	C	0.774970	0.649977	0.500109
C49	C	0.360580	0.152031	0.000099
C50	C	0.860580	0.652031	0.500099
C51	C	0.428814	0.153676	0.000091
C52	C	0.928814	0.653676	0.500091
C53	C	0.893664	-0.411317	0.000090
C54	C	1.393664	0.088683	0.500090
C55	C	0.895718	-0.282956	0.000097
C56	C	1.395718	0.217044	0.500097
C57	C	1.033036	0.144190	0.000113
C58	C	1.533036	0.644190	0.500113
C59	C	1.117065	0.146198	0.000118
C60	C	1.617065	0.646198	0.500118
C61	C	0.890022	0.360375	0.000091
C62	C	1.390022	0.860375	0.500091
C63	C	0.892032	0.486365	0.000087
C64	C	1.392032	0.986365	0.500087
N65	N	0.894678	0.152841	0.206647
N66	N	1.394678	0.652841	0.706647
N67	N	0.894721	0.152866	-0.206450
N68	N	1.394721	0.652866	0.293550
C69	C	0.945830	0.075572	0.248373
C70	C	1.445830	0.575572	0.748373
C71	C	0.945834	0.075571	0.331825
C72	C	1.445834	0.575571	0.831825
C73	C	0.894689	0.152845	0.373550
C74	C	1.394689	0.652845	0.873550
C75	C	0.843531	0.230117	0.331819
C76	C	1.343531	0.730117	0.831819
C77	C	0.843524	0.230112	0.248368
C78	C	1.343524	0.730112	0.748368
C79	C	0.843559	0.230139	0.668366
C80	C	1.343559	0.730139	1.168366
C81	C	0.843571	0.230141	0.751822
C82	C	1.343571	0.730141	1.251822
C83	C	0.945869	0.075599	0.751823
C84	C	1.445869	0.575599	1.251823
C85	C	0.945862	0.075593	0.668372
C86	C	1.445862	0.575593	1.168372
C87	C	0.894702	0.152861	0.626648
C88	C	1.394702	0.652861	1.126648
C89	C	0.894697	0.152860	0.536160
C90	C	1.394697	0.652860	1.036160
C91	C	0.894697	0.152853	0.464037
C92	C	1.394697	0.652853	0.964037
H93	H	0.506159	0.343536	0.000075
H94	H	1.006159	0.843536	0.500075
H95	H	0.108792	0.334002	0.000100
H96	H	0.608792	0.834002	0.500100
H97	H	0.537357	-0.031721	0.000112
H98	H	1.037357	0.468279	0.500112
N99	N	0.133588	-0.062874	0.000142
N100	N	0.633588	0.437126	0.500142
N101	N	0.063094	-0.064543	0.000147
N102	N	0.563094	0.435457	0.500147
H103	H	0.040807	-0.139825	0.000166
H104	H	0.540807	0.360175	0.500166
N105	N	0.293188	-0.059071	0.000120
N106	N	0.793188	0.440929	0.500120
N107	N	0.265606	-0.152242	0.000123
N108	N	0.765606	0.347758	0.500123
H109	H	0.300277	-0.226181	0.000126
H110	H	0.800277	0.273819	0.500126
N111	N	0.791275	0.309059	0.205756
N112	N	1.291275	0.809059	0.705756
N113	N	0.792739	0.413964	0.215065
N114	N	1.292739	0.913964	0.715065
H115	H	0.755835	0.469722	0.184971
H116	H	1.255835	0.969722	0.684971
N117	N	0.690554	-0.049533	0.000101
N118	N	1.190554	0.450467	0.500101
N119	N	0.662978	-0.142709	0.000112
N120	N	1.162978	0.357291	0.500112
H121	H	0.697653	-0.216644	0.000126
H122	H	1.197653	0.283356	0.500126
H123	H	0.987486	0.012653	0.365798
H124	H	1.487486	0.512653	0.865798
N125	N	0.998040	-0.003431	0.205768
N126	N	1.498040	0.496569	0.705768
N127	N	1.043676	-0.072461	0.243037
N128	N	1.543676	0.427539	0.743037
H129	H	1.080533	-0.128288	0.212950
H130	H	1.580533	0.371712	0.712950
N131	N	0.791283	0.309061	0.374425
N132	N	1.291283	0.809061	0.874425
N133	N	0.745613	0.378043	0.337157
N134	N	1.245613	0.878043	0.837157
H135	H	0.708710	0.433800	0.367245
H136	H	1.208710	0.933800	0.867245
H137	H	0.987525	0.012680	0.785804
H138	H	1.487525	0.512680	1.285804
N139	N	0.655777	0.368605	0.000053
N140	N	1.155777	0.868605	0.500053
N141	N	0.612840	0.460087	0.000051
N142	N	1.112840	0.960087	0.500051
H143	H	0.635101	0.535390	0.000042
H144	H	1.135101	1.035390	0.500042
N145	N	0.998121	-0.003332	0.625765
N146	N	1.498121	0.496668	1.125765
N147	N	1.043793	-0.072314	0.663030
N148	N	1.543793	0.427686	1.163030
H149	H	1.080704	-0.128057	0.632940
H150	H	1.580704	0.371943	1.132940
N151	N	0.791320	0.309087	0.794433
N152	N	1.291320	0.809087	1.294433
N153	N	0.745645	0.378069	0.757171
N154	N	1.245645	0.878069	1.257171
H155	H	0.708744	0.433823	0.787264
H156	H	1.208744	0.933823	1.287264
N157	N	0.791304	0.309087	0.625769
N158	N	1.291304	0.809087	1.125769
N159	N	0.792771	0.413991	0.635085
N160	N	1.292771	0.913991	1.135085
H161	H	0.755864	0.469755	0.605001
H162	H	1.255864	0.969755	1.105001
N163	N	0.258422	0.359069	0.000083
N164	N	0.758422	0.859069	0.500083
N165	N	0.215489	0.450554	0.000080
N166	N	0.715489	0.950554	0.500080
H167	H	0.237752	0.525855	0.000070
H168	H	0.737752	1.025855	0.500070
