data_functionalizedCrystal
_audit_creation_method	'MofGen! by Chris Wilmer'
_symmetry_space_group_name_H-M	'P1'
_symmetry_Int_Tables_number	1
_symmetry_cell_setting	triclinic
loop_
_symmetry_equiv_pos_as_xyz
  x,y,z
_cell_length_a	19.288840
_cell_length_b	12.837932
_cell_length_c	18.366186
_cell_angle_alpha	89.997561
_cell_angle_beta	89.983729
_cell_angle_gamma	88.977860
loop_
_atom_site_label
_atom_site_type_symbol
_atom_site_fract_x
_atom_site_fract_y
_atom_site_fract_z
O1	O	0.930183	0.129151	-0.060668
O2	O	0.729113	0.146617	-0.060642
O3	O	0.825189	-0.012997	-0.060655
O4	O	0.834108	0.288766	-0.060655
O5	O	0.825171	-0.013005	0.060444
O6	O	0.729095	0.146610	0.060457
O7	O	0.930165	0.129143	0.060432
Zn8	Zn	0.829627	0.137875	0.079672
Zn9	Zn	0.829651	0.137886	-0.079882
O10	O	0.834089	0.288758	0.060444
C11	C	0.703189	0.146056	-0.000089
C12	C	0.625970	0.144382	-0.000079
C13	C	0.589722	0.143582	-0.066093
C14	C	0.517167	0.141997	-0.066102
C15	C	0.480863	0.141192	-0.000094
C16	C	0.517120	0.141998	0.065928
C17	C	0.589674	0.143593	0.065935
C18	C	0.367210	0.077963	0.050468
C19	C	0.294658	0.076362	0.050458
C20	C	0.257084	0.136277	-0.000113
C21	C	0.292071	0.197781	-0.050685
C22	C	0.364625	0.199376	-0.050678
C23	C	0.402191	0.139463	-0.000094
C24	C	0.142163	0.133761	-0.066140
C25	C	0.069606	0.132183	-0.066146
C26	C	0.069561	0.132173	0.065886
C27	C	0.142116	0.133761	0.065890
C28	C	0.178413	0.134550	-0.000125
C29	C	0.822167	-0.051607	-0.000107
C30	C	0.813183	-0.166641	-0.000110
C31	C	0.738088	-0.316123	-0.000100
C32	C	0.746525	-0.208038	-0.000102
C33	C	0.871407	-0.233339	-0.000119
C34	C	0.862970	-0.341425	-0.000116
C35	C	0.796308	-0.382812	-0.000106
C36	C	0.787871	-0.490900	-0.000098
C37	C	0.912752	-0.516199	-0.000120
C38	C	0.921189	-0.408114	-0.000122
C39	C	0.956089	0.129705	-0.000123
C40	C	1.033308	0.131379	-0.000137
C41	C	0.837111	0.327368	-0.000106
C42	C	0.846095	0.442402	-0.000106
N43	N	0.829615	0.137868	0.188563
N44	N	0.829668	0.137885	-0.188773
C45	C	0.872175	0.067225	0.226657
C46	C	0.872179	0.067220	0.302885
C47	C	0.829631	0.137876	0.341015
C48	C	0.787062	0.208524	0.302912
C49	C	0.787054	0.208520	0.226685
C50	C	0.826781	0.232299	0.461776
C51	C	0.826794	0.232305	0.538001
C52	C	0.829652	0.137889	0.576123
C53	C	0.832511	0.043464	0.538010
C54	C	0.832503	0.043459	0.461784
C55	C	0.829635	0.137888	0.423670
C56	C	0.872218	0.067236	0.696873
C57	C	0.872218	0.067230	0.773102
C58	C	0.787104	0.208543	0.773127
C59	C	0.787101	0.208540	0.696899
C60	C	0.829662	0.137887	0.658776
H61	H	0.171630	0.134406	0.119645
O62	O	0.969292	-0.581023	-0.000258
C63	C	1.032233	-0.717778	-0.062978
C64	C	0.968183	-0.644411	-0.062924
H65	H	1.031351	-0.769060	-0.113631
H66	H	1.081346	-0.669674	-0.063033
H67	H	1.031394	-0.768965	-0.012273
H68	H	0.968955	-0.593208	-0.113620
H69	H	0.919098	-0.692576	-0.062831
O70	O	0.403601	0.019653	0.099621
C71	C	0.398509	-0.100919	0.199957
C72	C	0.357213	-0.034954	0.144324
H73	H	0.361022	-0.145069	0.236123
H74	H	0.433732	-0.158806	0.169937
H75	H	0.431351	-0.047649	0.235029
H76	H	0.324332	-0.088142	0.109236
H77	H	0.322033	0.022943	0.174389
H78	H	0.752458	0.266068	0.804172
H79	H	0.906829	0.009693	0.195620
O80	O	0.745694	0.277018	0.340029
C81	C	0.652305	0.299450	0.426098
C82	C	0.699124	0.221770	0.384122
H83	H	0.614633	0.254813	0.461746
H84	H	0.685675	0.351093	0.461816
H85	H	0.621916	0.349964	0.385761
H86	H	0.729522	0.171188	0.424407
H87	H	0.665717	0.170200	0.348393
O88	O	0.913585	-0.001449	0.339788
C89	C	0.997971	-0.141655	0.331725
C90	C	0.951128	-0.063925	0.289845
H91	H	1.028326	-0.192202	0.291364
H92	H	1.035666	-0.097102	0.367376
H93	H	0.964556	-0.193256	0.367446
H94	H	0.984487	-0.012304	0.254084
H95	H	0.913430	-0.108543	0.254239
O96	O	0.745744	0.277271	0.660002
C97	C	0.661296	0.417391	0.668074
C98	C	0.708115	0.339624	0.709949
H99	H	0.630849	0.467809	0.708437
H100	H	0.694666	0.469113	0.632390
H101	H	0.623674	0.372763	0.632384
H102	H	0.745744	0.384167	0.745678
H103	H	0.674702	0.287903	0.745586
H104	H	0.733592	-0.524596	-0.000083
H105	H	0.699116	-0.153742	-0.000098
H106	H	0.925680	-0.199621	-0.000081
H107	H	0.834838	-0.033419	0.569047
H108	H	0.487648	0.141347	-0.119859
H109	H	0.834829	-0.033425	0.430755
O110	O	0.985892	-0.367732	-0.000098
C111	C	1.054237	-0.212435	-0.000152
C112	C	0.980922	-0.258024	-0.000165
H113	H	1.050244	-0.123730	-0.000221
H114	H	1.083374	-0.239849	0.050539
H115	H	1.083375	-0.239987	-0.050821
H116	H	0.951726	-0.230492	0.050470
H117	H	0.951837	-0.230615	-0.050889
H118	H	0.824442	0.309189	0.430744
H119	H	0.040094	0.131538	-0.119904
H120	H	0.824470	0.309192	0.569027
O121	O	0.745693	0.277250	0.189789
C122	C	0.661242	0.417368	0.197858
C123	C	0.708060	0.339601	0.239735
H124	H	0.630793	0.467784	0.238220
H125	H	0.694613	0.469092	0.162177
H126	H	0.623623	0.372740	0.162165
H127	H	0.745687	0.384144	0.275467
H128	H	0.674646	0.287878	0.275369
H129	H	0.683809	-0.349822	-0.000078
O130	O	0.255553	0.256114	-0.099720
C131	C	0.170620	0.393512	-0.118113
C132	C	0.211943	0.327548	-0.062502
H133	H	0.135341	0.451267	-0.088044
H134	H	0.208061	0.437812	-0.154243
H135	H	0.137829	0.340228	-0.153229
H136	H	0.244737	0.380757	-0.027337
H137	H	0.174465	0.283237	-0.026423
H138	H	0.906872	0.009703	0.665832
O139	O	0.913629	-0.001435	0.809997
C140	C	0.998030	-0.141618	0.801924
C141	C	0.951176	-0.063898	0.760050
H142	H	1.028388	-0.192155	0.761560
H143	H	1.035721	-0.097057	0.837575
H144	H	0.964624	-0.193231	0.837647
H145	H	0.984527	-0.012266	0.724288
H146	H	0.913481	-0.108524	0.724445
H147	H	0.619270	0.144224	-0.119847
H148	H	0.171717	0.134414	-0.119893
O149	O	0.398502	0.259216	-0.099825
C150	C	0.388289	0.379442	-0.200168
C151	C	0.349836	0.311734	-0.144542
H152	H	0.348961	0.421904	-0.236346
H153	H	0.420959	0.438822	-0.170142
H154	H	0.423425	0.327660	-0.235230
H155	H	0.314664	0.363433	-0.109465
H156	H	0.317210	0.252347	-0.174612
H157	H	0.266177	0.026277	0.091634
O158	O	0.034411	0.131440	0.130072
C159	C	0.042025	0.131538	0.261027
C160	C	0.081922	0.132389	0.188387
H161	H	0.080421	0.132283	0.308194
H162	H	0.006510	0.203318	0.264375
H163	H	0.009602	0.058302	0.264285
H164	H	0.114384	0.205576	0.185081
H165	H	0.117394	0.060560	0.185070
O166	O	0.481965	0.141260	0.130114
C167	C	0.489577	0.141358	0.261069
C168	C	0.529475	0.142214	0.188430
H169	H	0.527972	0.142106	0.308237
H170	H	0.454058	0.213133	0.264417
H171	H	0.457157	0.068117	0.264326
H172	H	0.561933	0.215406	0.185124
H173	H	0.564951	0.070390	0.185113
O174	O	0.624968	0.144224	0.130018
C175	C	0.708760	0.056217	0.206666
C176	C	0.668846	0.055390	0.134060
H177	H	0.744234	-0.015609	0.209964
H178	H	0.741212	0.129419	0.209981
H179	H	0.670339	0.055423	0.253832
H180	H	0.707219	0.056146	0.086852
H181	H	0.636384	-0.017806	0.130808
