data_functionalizedCrystal
_audit_creation_method	'MofGen! by Chris Wilmer'
_symmetry_space_group_name_H-M	'P1'
_symmetry_Int_Tables_number	1
_symmetry_cell_setting	triclinic
loop_
_symmetry_equiv_pos_as_xyz
  x,y,z
_cell_length_a	17.699083
_cell_length_b	15.944551
_cell_length_c	16.176319
_cell_angle_alpha	89.992246
_cell_angle_beta	89.998611
_cell_angle_gamma	83.390877
loop_
_atom_site_label
_atom_site_type_symbol
_atom_site_fract_x
_atom_site_fract_y
_atom_site_fract_z
O1	O	1.004260	0.106222	-0.068632
O2	O	1.504260	0.606222	0.431368
O3	O	0.783905	0.120042	-0.068660
O4	O	1.283905	0.620042	0.431340
O5	O	0.900100	-0.009156	-0.068638
O6	O	1.400100	0.490844	0.431362
O7	O	0.888065	0.235419	-0.068654
O8	O	1.388065	0.735419	0.431346
O9	O	0.900084	-0.009164	0.068855
O10	O	1.400084	0.490836	0.568855
O11	O	0.783889	0.120033	0.068833
O12	O	1.283889	0.620033	0.568833
O13	O	1.004244	0.106214	0.068861
O14	O	1.504244	0.606214	0.568861
Cu15	Cu	0.894065	0.113123	0.081401
Cu16	Cu	1.394065	0.613123	0.581401
Cu17	Cu	0.894084	0.113133	-0.081200
Cu18	Cu	1.394084	0.613133	0.418800
O19	O	0.888049	0.235411	0.068839
O20	O	1.388049	0.735411	0.568839
C21	C	0.755700	0.119542	0.000083
C22	C	1.255700	0.619542	0.500083
C23	C	0.671679	0.118057	0.000073
C24	C	1.171679	0.618057	0.500073
C25	C	0.899593	-0.040453	0.000109
C26	C	1.399593	0.459547	0.500109
C27	C	0.898095	-0.133696	0.000109
C28	C	1.398095	0.366304	0.500109
C29	C	0.623187	0.193893	0.000068
C30	C	1.123187	0.693893	0.500068
C31	C	0.544242	0.192492	0.000079
C32	C	1.044242	0.692492	0.500079
C33	C	0.513789	0.115254	0.000089
C34	C	1.013789	0.615254	0.500089
C35	C	0.562287	0.039412	0.000096
C36	C	1.062287	0.539412	0.500096
C37	C	0.641231	0.040814	0.000091
C38	C	1.141231	0.540814	0.500091
C39	C	0.243914	0.033758	0.000117
C40	C	0.743914	0.533758	0.500117
C41	C	0.164964	0.032362	0.000119
C42	C	0.664964	0.532362	0.500119
C43	C	0.146925	0.185436	0.000105
C44	C	0.646925	0.685436	0.500105
C45	C	0.225869	0.186837	0.000100
C46	C	0.725869	0.686837	0.500100
C47	C	0.274360	0.110996	0.000112
C48	C	0.774360	0.610996	0.500112
C49	C	0.359962	0.112516	0.000102
C50	C	0.859962	0.612516	0.500102
C51	C	0.428189	0.113733	0.000093
C52	C	0.928189	0.613733	0.500093
C53	C	0.822492	-0.348393	0.000088
C54	C	1.322492	0.151607	0.500088
C55	C	0.857591	-0.409488	0.067885
C56	C	1.357591	0.090512	0.567885
C57	C	0.895385	-0.304416	0.000102
C58	C	1.395385	0.195584	0.500102
C59	C	0.857624	-0.409464	-0.067672
C60	C	1.357624	0.090536	0.432328
C61	C	0.892762	-0.469323	0.000092
C62	C	1.392762	0.030677	0.500092
C63	C	0.930505	-0.364283	0.067955
C64	C	1.430505	0.135717	0.567955
C65	C	0.930527	-0.364252	-0.067663
C66	C	1.430527	0.135748	0.432337
C67	C	0.965680	-0.425329	0.000150
C68	C	1.465680	0.074671	0.500150
C69	C	0.896894	-0.209417	0.000109
C70	C	1.396894	0.290583	0.500109
C71	C	0.891259	-0.564321	0.000092
C72	C	1.391259	-0.064321	0.500092
C73	C	1.032450	0.106713	0.000116
C74	C	1.532450	0.606713	0.500116
C75	C	1.116471	0.108199	0.000121
C76	C	1.616471	0.608199	0.500121
C77	C	0.888557	0.266708	0.000090
C78	C	1.388557	0.766708	0.500090
C79	C	0.890055	0.359951	0.000085
C80	C	1.390055	0.859951	0.500085
N81	N	0.894058	0.113116	0.195767
N82	N	1.394058	0.613116	0.695767
N83	N	0.894098	0.113133	-0.195565
N84	N	1.394098	0.613133	0.304435
C85	C	0.945524	0.055930	0.239040
C86	C	1.445524	0.555930	0.739040
C87	C	0.945528	0.055929	0.325588
C88	C	1.445528	0.555929	0.825588
C89	C	0.894068	0.113118	0.368859
C90	C	1.394068	0.613118	0.868859
C91	C	0.842596	0.170306	0.325579
C92	C	1.342596	0.670306	0.825579
C93	C	0.842589	0.170303	0.239034
C94	C	1.342589	0.670303	0.739034
C95	C	0.842622	0.170322	0.674608
C96	C	1.342622	0.670322	1.174608
C97	C	0.842634	0.170323	0.761159
C98	C	1.342634	0.670323	1.261159
C99	C	0.945561	0.055949	0.761161
C100	C	1.445561	0.555949	1.261161
C101	C	0.945554	0.055945	0.674616
C102	C	1.445554	0.555945	1.174616
C103	C	0.894080	0.113130	0.631343
C104	C	1.394080	0.613130	1.131343
C105	C	0.894075	0.113129	0.537499
C106	C	1.394075	0.613129	1.037499
C107	C	0.894076	0.113124	0.462702
C108	C	1.394076	0.613124	0.962702
H109	H	0.647975	0.256789	0.000060
H110	H	1.147975	0.756789	0.500060
O111	O	0.995542	0.000295	0.197138
O112	O	1.495542	0.500295	0.697138
C113	C	1.040980	-0.050165	0.253896
C114	C	1.540980	0.449835	0.753896
H115	H	1.009954	-0.051066	0.315592
H116	H	1.509954	0.448934	0.815592
H117	H	1.052523	-0.117264	0.228903
H118	H	1.552523	0.382736	0.728903
H119	H	1.097202	-0.022969	0.263089
H120	H	1.597202	0.477031	0.763089
H121	H	0.961303	-0.344360	0.125335
H122	H	1.461303	0.155640	0.625335
O123	O	0.820856	-0.433560	0.136227
O124	O	1.320856	0.066440	0.636227
C125	C	0.820548	-0.521946	0.135636
C126	C	1.320548	-0.021946	0.635636
H127	H	0.869457	-0.551951	0.095734
H128	H	1.369457	-0.051951	0.595734
H129	H	0.827637	-0.547180	0.201458
H130	H	1.327637	-0.047180	0.701458
H131	H	0.764302	-0.538178	0.109238
H132	H	1.264302	-0.038178	0.609238
H133	H	0.987460	0.009379	0.639387
H134	H	1.487460	0.509379	1.139387
O135	O	0.967175	-0.340324	-0.136118
O136	O	1.467175	0.159676	0.363882
C137	C	0.928564	-0.363094	-0.207460
C138	C	1.428564	0.136906	0.292540
H139	H	0.866857	-0.369730	-0.191226
H140	H	1.366857	0.130270	0.308774
H141	H	0.930420	-0.312168	-0.256654
H142	H	1.430420	0.187832	0.243346
H143	H	0.957194	-0.425792	-0.232191
H144	H	1.457194	0.074208	0.267809
H145	H	0.987472	0.009383	0.796403
H146	H	1.487472	0.509383	1.296403
H147	H	0.800679	0.216868	0.203801
H148	H	1.300679	0.716868	0.703801
O149	O	0.792701	0.225993	0.632622
O150	O	1.292701	0.725993	1.132622
C151	C	0.805000	0.309123	0.653776
C152	C	1.305000	0.809123	1.153776
H153	H	0.865599	0.309444	0.677551
H154	H	1.365599	0.809444	1.177551
H155	H	0.796285	0.351297	0.596860
H156	H	1.296285	0.851297	1.096860
H157	H	0.763063	0.333851	0.704021
H158	H	1.263063	0.833851	1.204021
O159	O	0.099742	0.259056	-0.000008
O160	O	0.599742	0.759056	0.499992
C161	C	0.053547	0.262837	-0.071224
C162	C	0.553547	0.762837	0.428776
H163	H	0.049549	0.196174	-0.094954
H164	H	0.549549	0.696174	0.405046
H165	H	-0.005783	0.294248	-0.055207
H166	H	0.494217	0.794248	0.444793
H167	H	0.079518	0.301146	-0.121095
H168	H	0.579518	0.801146	0.378905
O169	O	0.688368	-0.032831	0.000239
O170	O	1.188368	0.467169	0.500239
C171	C	0.734587	-0.036595	0.071436
C172	C	1.234587	0.463405	0.571436
H173	H	0.705678	0.006414	0.121204
H174	H	1.205678	0.506414	0.621204
H175	H	0.743463	-0.104275	0.095344
H176	H	1.243463	0.395725	0.595344
H177	H	0.791994	-0.014970	0.055332
H178	H	1.291994	0.485030	0.555332
H179	H	0.826790	-0.429472	-0.124993
H180	H	1.326790	0.070528	0.375007
O181	O	1.037878	-0.465169	0.000141
O182	O	1.537878	0.034831	0.500141
C183	C	1.035700	-0.553283	-0.000527
C184	C	1.535700	-0.053283	0.499473
H185	H	0.978967	-0.567964	-0.026928
H186	H	1.478967	-0.067964	0.473072
H187	H	1.084079	-0.584442	-0.040468
H188	H	1.584079	-0.084442	0.459532
H189	H	1.042291	-0.578694	0.065271
H190	H	1.542291	-0.078694	0.565271
O191	O	0.995424	0.000298	0.367656
O192	O	1.495424	0.500298	0.867656
C193	C	0.954906	-0.051461	0.417746
C194	C	1.454906	0.448539	0.917746
H195	H	0.895218	-0.052803	0.391677
H196	H	1.395218	0.447197	0.891677
H197	H	0.985791	-0.118266	0.418728
H198	H	1.485791	0.381734	0.918728
H199	H	0.950947	-0.025171	0.483336
H200	H	1.450947	0.474829	0.983336
H201	H	0.800727	0.216895	0.796389
H202	H	1.300727	0.716895	1.296389
O203	O	0.532745	-0.035639	0.000251
O204	O	1.032745	0.464361	0.500251
C205	C	0.557540	-0.081874	0.071451
C206	C	1.057540	0.418126	0.571451
H207	H	0.573961	-0.036709	0.121220
H208	H	1.073961	0.463291	0.621220
H209	H	0.509717	-0.117518	0.095355
H210	H	1.009717	0.382482	0.595355
H211	H	0.608991	-0.128781	0.055354
H212	H	1.108991	0.371219	0.555354
H213	H	0.761987	-0.314958	0.000149
H214	H	1.261987	0.185042	0.500149
H215	H	0.250659	0.249732	0.000088
H216	H	0.750659	0.749732	0.500088
O217	O	0.792681	0.225829	0.367739
O218	O	1.292681	0.725829	0.867739
C219	C	0.803710	0.213559	0.453406
C220	C	1.303710	0.713559	0.953406
H221	H	0.863882	0.182082	0.465224
H222	H	1.363882	0.682082	0.965224
H223	H	0.795293	0.277185	0.486286
H224	H	1.295293	0.777185	0.986286
H225	H	0.760876	0.171491	0.477981
H226	H	1.260876	0.671491	0.977981
H227	H	0.504763	0.254246	0.000074
H228	H	1.004763	0.754246	0.500074
H229	H	0.283386	-0.027997	0.000127
H230	H	0.783386	0.472003	0.500127
O231	O	0.135507	-0.042745	0.000171
O232	O	0.635507	0.457255	0.500171
C233	C	0.195233	-0.109385	0.000161
C234	C	0.695233	0.390615	0.500161
H235	H	0.248865	-0.085953	0.026187
H236	H	0.748865	0.414047	0.526187
H237	H	0.178729	-0.163317	0.040088
H238	H	0.678729	0.336683	0.540088
H239	H	0.206403	-0.132774	-0.065798
H240	H	0.706403	0.367226	0.434202
