data_functionalizedCrystal
_audit_creation_method	'MofGen! by Chris Wilmer'
_symmetry_space_group_name_H-M	'P1'
_symmetry_Int_Tables_number	1
_symmetry_cell_setting	triclinic
loop_
_symmetry_equiv_pos_as_xyz
  x,y,z
_cell_length_a	16.109301
_cell_length_b	12.837942
_cell_length_c	15.186229
_cell_angle_alpha	89.999517
_cell_angle_beta	90.002891
_cell_angle_gamma	89.145211
loop_
_atom_site_label
_atom_site_type_symbol
_atom_site_fract_x
_atom_site_fract_y
_atom_site_fract_z
O1	O	1.113718	0.133235	0.073172
O2	O	0.872974	0.149816	0.073186
O3	O	0.988008	-0.009376	0.073174
O4	O	0.998684	0.292426	0.073184
O5	O	0.987993	-0.009367	-0.073283
O6	O	0.872959	0.149825	-0.073271
O7	O	1.113704	0.133244	-0.073285
Zn8	Zn	0.993329	0.141536	-0.096532
Zn9	Zn	0.993348	0.141524	0.096432
O10	O	0.998670	0.292435	-0.073273
C11	C	0.841938	0.149149	-0.000041
C12	C	0.749483	0.147135	-0.000036
C13	C	0.534343	0.236914	-0.000043
C14	C	0.447471	0.235014	-0.000049
C15	C	0.452341	0.046138	-0.000051
C16	C	0.539211	0.048040	-0.000052
C17	C	0.580209	0.143431	-0.000043
C18	C	0.406468	0.139629	-0.000048
C19	C	0.312278	0.137568	-0.000055
C20	C	0.674405	0.145492	-0.000039
C21	C	0.984394	-0.047990	-0.000054
C22	C	0.973637	-0.163064	-0.000052
C23	C	1.102954	-0.404066	-0.000041
C24	C	1.092851	-0.512188	-0.000039
C25	C	0.943328	-0.487433	-0.000040
C26	C	0.953431	-0.379311	-0.000042
C27	C	1.033247	-0.337632	-0.000044
C28	C	1.043349	-0.229507	-0.000052
C29	C	0.893827	-0.204754	-0.000046
C30	C	0.883724	-0.312876	-0.000044
C31	C	1.144739	0.133911	-0.000056
C32	C	1.237195	0.135924	-0.000056
C33	C	1.002284	0.331050	-0.000043
C34	C	1.013041	0.446124	-0.000040
N35	N	0.993323	0.141543	-0.228224
C36	C	1.048741	0.204417	-0.453948
C37	C	1.048750	0.204409	-0.546138
C38	C	0.937940	0.078627	-0.546145
C39	C	0.937936	0.078630	-0.453957
C40	C	0.993336	0.141531	-0.407861
C41	C	0.993348	0.141521	-0.592239
C42	C	0.993357	0.141512	-0.692195
C43	C	0.993328	0.141538	-0.307898
N44	N	0.993361	0.141508	0.228125
H45	H	0.567721	0.314588	-0.000043
Br46	Br	0.601464	-0.078840	-0.000064
H47	H	0.818741	-0.346827	-0.000039
H48	H	0.410130	0.311138	-0.000050
Br49	Br	0.862754	-0.006727	-0.608710
H50	H	1.167943	-0.370130	-0.000051
Br51	Br	1.123931	0.289775	-0.391391
Br52	Br	0.835016	-0.544017	-0.000005
Br53	Br	0.862737	-0.006722	-0.391405
Br54	Br	0.396695	-0.083315	-0.000060
Br55	Br	1.187457	-0.602348	-0.000029
Br56	Br	1.151668	-0.172942	-0.000064
Br57	Br	0.799219	-0.114586	-0.000066
H58	H	1.093867	0.255616	-0.583657
