data_functionalizedCrystal
_audit_creation_method	'MofGen! by Chris Wilmer'
_symmetry_space_group_name_H-M	'P1'
_symmetry_Int_Tables_number	1
_symmetry_cell_setting	triclinic
loop_
_symmetry_equiv_pos_as_xyz
  x,y,z
_cell_length_a	15.944551
_cell_length_b	17.038272
_cell_length_c	14.421503
_cell_angle_alpha	90.004327
_cell_angle_beta	89.996859
_cell_angle_gamma	87.305147
loop_
_atom_site_label
_atom_site_type_symbol
_atom_site_fract_x
_atom_site_fract_y
_atom_site_fract_z
O1	O	1.121728	0.100827	-0.077015
O2	O	1.621728	0.600827	0.422985
O3	O	0.878066	0.113259	-0.077039
O4	O	1.378066	0.613259	0.422961
O5	O	0.998449	-0.006773	-0.077020
O6	O	1.498449	0.493227	0.422980
O7	O	1.001345	0.220859	-0.077034
O8	O	1.501345	0.720859	0.422966
O9	O	0.998429	-0.006755	0.077204
O10	O	1.498429	0.493245	0.577204
O11	O	0.878046	0.113277	0.077185
O12	O	1.378046	0.613277	0.577185
O13	O	1.121708	0.100845	0.077208
O14	O	1.621708	0.600845	0.577208
Cu15	Cu	0.999875	0.107062	0.091278
Cu16	Cu	1.499875	0.607062	0.591278
Cu17	Cu	0.999899	0.107041	-0.091109
Cu18	Cu	1.499899	0.607041	0.408891
O19	O	1.001325	0.220877	0.077189
O20	O	1.501325	0.720877	0.577189
C21	C	0.846725	0.112752	0.000070
C22	C	1.346725	0.612752	0.500070
C23	C	0.753369	0.111205	0.000062
C24	C	1.253369	0.611205	0.500062
C25	C	0.532936	0.033105	0.000085
C26	C	1.032936	0.533105	0.500085
C27	C	0.474515	0.069363	-0.075958
C28	C	0.974515	0.569363	0.424042
C29	C	0.582443	0.108405	0.000073
C30	C	1.082443	0.608405	0.500073
C31	C	0.474519	0.069398	0.076094
C32	C	0.974519	0.569398	0.576094
C33	C	0.417337	0.105696	0.000088
C34	C	0.917337	0.605696	0.500088
C35	C	0.525252	0.144684	-0.076033
C36	C	1.025252	0.644684	0.423967
C37	C	0.525261	0.144709	0.076088
C38	C	1.025261	0.644709	0.576088
C39	C	0.466862	0.181022	0.000027
C40	C	0.966862	0.681022	0.500027
C41	C	0.677557	0.109964	0.000063
C42	C	1.177557	0.609964	0.500063
C43	C	0.322225	0.104143	0.000090
C44	C	0.822225	0.604143	0.500090
C45	C	0.995805	-0.035893	0.000092
C46	C	1.495805	0.464107	0.500092
C47	C	0.987945	-0.122688	0.000091
C48	C	1.487945	0.377312	0.500091
C49	C	1.060103	-0.172781	0.000098
C50	C	1.560103	0.327219	0.500098
C51	C	1.052713	-0.254334	0.000089
C52	C	1.552713	0.245666	0.500089
C53	C	0.973165	-0.285792	0.000078
C54	C	1.473165	0.214208	0.500078
C55	C	0.901002	-0.235693	0.000068
C56	C	1.401002	0.264307	0.500068
C57	C	0.908393	-0.154142	0.000071
C58	C	1.408393	0.345858	0.500071
C59	C	0.947056	-0.531558	0.000063
C60	C	1.447056	-0.031558	0.500063
C61	C	0.939671	-0.613115	0.000063
C62	C	1.439671	-0.113115	0.500063
C63	C	1.091383	-0.631751	0.000083
C64	C	1.591383	-0.131751	0.500083
C65	C	1.098766	-0.550197	0.000091
C66	C	1.598766	-0.050197	0.500091
C67	C	1.026603	-0.500105	0.000075
C68	C	1.526603	-0.000105	0.500075
C69	C	0.965610	-0.369152	0.000071
C70	C	1.465610	0.130848	0.500071
C71	C	1.034159	-0.416747	0.000076
C72	C	1.534159	0.083253	0.500076
C73	C	1.153049	0.101352	0.000097
C74	C	1.653049	0.601352	0.500097
C75	C	1.246405	0.102899	0.000100
C76	C	1.746405	0.602899	0.500100
C77	C	1.003969	0.249997	0.000076
C78	C	1.503969	0.749997	0.500076
C79	C	1.011829	0.336792	0.000071
C80	C	1.511829	0.836792	0.500071
N81	N	0.999865	0.107077	0.219560
N82	N	1.499865	0.607077	0.719560
N83	N	0.999916	0.107021	-0.219390
N84	N	1.499916	0.607021	0.280610
C85	C	0.944187	0.162555	0.469205
C86	C	1.444187	0.662555	0.969205
C87	C	1.021171	0.177734	0.531013
C88	C	1.521171	0.677734	1.031013
C89	C	0.999884	0.107058	0.408721
C90	C	1.499884	0.607058	0.908721
C91	C	0.922921	0.091897	0.531006
C92	C	1.422921	0.591897	1.031006
C93	C	0.999895	0.107042	0.591442
C94	C	1.499895	0.607042	1.091442
C95	C	1.076908	0.122272	0.469169
C96	C	1.576908	0.622272	0.969169
C97	C	0.978606	0.036405	0.469156
C98	C	1.478606	0.536405	0.969156
C99	C	1.055642	0.051554	0.530937
C100	C	1.555642	0.551554	1.030937
C101	C	0.999876	0.107070	0.303460
C102	C	1.499876	0.607070	0.803460
C103	C	0.999912	0.107030	0.696701
C104	C	1.499912	0.607030	1.196701
H105	H	0.452149	0.037543	0.140380
H106	H	0.952149	0.537543	0.640380
C107	C	0.571907	-0.051333	-0.000011
C108	C	1.071907	0.448667	0.499989
N109	N	0.601261	-0.114929	-0.000088
N110	N	1.101261	0.385071	0.499912
C111	C	1.121660	-0.382140	0.000092
C112	C	1.621660	0.117860	0.500092
N113	N	1.187566	-0.356067	0.000111
N114	N	1.687566	0.143933	0.500111
H115	H	0.452139	0.037506	-0.140243
H116	H	0.952139	0.537506	0.359757
H117	H	1.142019	0.135160	0.442121
H118	H	1.642019	0.635160	0.942121
H119	H	0.900842	-0.394774	0.000065
H120	H	1.400842	0.105226	0.500065
C121	C	1.119354	-0.011854	0.567342
C122	C	1.619354	0.488146	1.067342
N123	N	1.167345	-0.059608	0.594767
N124	N	1.667345	0.440392	1.094767
C125	C	0.954245	-0.044277	0.432415
C126	C	1.454245	0.455723	0.932415
N127	N	0.935888	-0.105047	0.404738
N128	N	1.435888	0.394953	0.904738
H129	H	0.857830	0.079082	0.558171
H130	H	1.357830	0.579082	1.058171
H131	H	0.897141	0.209524	0.442099
H132	H	1.397141	0.709524	0.942099
C133	C	0.428092	0.265532	-0.000037
C134	C	0.928092	0.765532	0.499963
N135	N	0.398888	0.329183	-0.000090
N136	N	0.898888	0.829183	0.499910
C137	C	0.555525	0.187707	0.162939
C138	C	1.055525	0.687707	0.662939
N139	N	0.578322	0.220086	0.228362
N140	N	1.078322	0.720086	0.728362
C141	C	0.555333	0.187662	-0.162983
C142	C	1.055333	0.687662	0.337017
N143	N	0.577992	0.220029	-0.228476
N144	N	1.077992	0.720029	0.271524
C145	C	1.147613	-0.138185	0.000110
C146	C	1.647613	0.361815	0.500110
N147	N	1.213527	-0.112130	0.000115
N148	N	1.713527	0.387870	0.500115
C149	C	1.045494	0.258441	0.567730
C150	C	1.545494	0.758441	1.067730
N151	N	1.063807	0.319231	0.595384
N152	N	1.563807	0.819231	1.095384
H153	H	1.163543	-0.524590	0.000100
H154	H	1.663543	-0.024590	0.500100
C155	C	0.852159	-0.647717	0.000044
C156	C	1.352159	-0.147717	0.500044
N157	N	0.786247	-0.673779	0.000030
N158	N	1.286247	-0.173779	0.500030
C159	C	1.170757	-0.686858	0.000091
C160	C	1.670757	-0.186858	0.500091
N161	N	1.230544	-0.728365	0.000093
N162	N	1.730544	-0.228365	0.500093
C163	C	0.867674	-0.476467	0.000041
C164	C	1.367674	0.023533	0.500041
N165	N	0.807879	-0.434969	0.000022
N166	N	1.307879	0.065031	0.500022
H167	H	0.836233	-0.261313	0.000053
H168	H	1.336233	0.238687	0.500053
H169	H	1.111472	-0.295117	0.000097
H170	H	1.611472	0.204883	0.500097
C171	C	0.829013	-0.099039	0.000064
C172	C	1.329013	0.400961	0.500064
N173	N	0.769222	-0.057537	0.000057
N174	N	1.269222	0.442463	0.500057
