data_functionalizedCrystal
_audit_creation_method	'MofGen! by Chris Wilmer'
_symmetry_space_group_name_H-M	'P1'
_symmetry_Int_Tables_number	1
_symmetry_cell_setting	triclinic
loop_
_symmetry_equiv_pos_as_xyz
  x,y,z
_cell_length_a	14.519709
_cell_length_b	15.538191
_cell_length_c	14.185569
_cell_angle_alpha	82.124202
_cell_angle_beta	76.819419
_cell_angle_gamma	114.523881
loop_
_atom_site_label
_atom_site_type_symbol
_atom_site_fract_x
_atom_site_fract_y
_atom_site_fract_z
O1	O	-0.271310	-1.228085	-0.083424
O2	O	-0.164884	-0.954005	-0.083426
O3	O	-0.354783	-1.098314	-0.083416
O4	O	-0.081411	-1.083776	-0.083434
O5	O	-0.410876	-1.140944	0.083422
O6	O	-0.220977	-0.996635	0.083412
O7	O	-0.327403	-1.270715	0.083414
Cu8	Cu	-0.279312	-1.137568	0.098646
Cu9	Cu	-0.212975	-1.087153	-0.098658
O10	O	-0.137505	-1.126406	0.083404
C11	C	-0.181796	-0.940243	-0.000007
C12	C	-0.148628	-0.835725	-0.000007
C13	C	-0.416961	-1.118952	0.000003
C14	C	-0.518660	-1.116922	0.000004
C15	C	-0.310491	-1.284476	-0.000007
C16	C	-0.343656	-1.388993	-0.000014
C17	C	-0.891034	-1.109444	-0.000022
C18	C	-0.787426	-1.111520	-0.000015
C19	C	-0.704851	-1.113183	-0.000008
C20	C	-0.601236	-1.115260	-0.000003
C21	C	-0.075325	-1.105768	-0.000017
C22	C	0.026376	-1.107796	-0.000025
N23	N	-0.325973	-1.173034	0.237420
C24	C	-0.478139	-0.547381	-0.000001
C25	C	-0.446949	-0.449167	-0.000004
C26	C	-0.271514	-0.427017	-0.000015
C27	C	-0.302691	-0.525232	-0.000008
C28	C	-0.406004	-0.585407	-0.000002
C29	C	-0.230557	-0.563258	-0.000008
C30	C	-0.261730	-0.661463	-0.000006
C31	C	-0.365037	-0.721643	-0.000003
C32	C	-0.437177	-0.683612	0.000001
C33	C	-0.127242	-0.503080	-0.000021
C34	C	-0.055107	-0.541106	-0.000022
C35	C	-0.086282	-0.639314	-0.000012
C36	C	-0.189590	-0.699494	-0.000009
C37	C	-0.014142	-0.677345	-0.000016
C38	C	-0.045315	-0.775551	-0.000013
C39	C	-0.220763	-0.797700	-0.000007
N40	N	-0.166324	-1.051694	-0.237432
C41	C	-0.029276	-0.947494	0.605054
C42	C	-0.064616	-0.974366	0.710078
C43	C	-0.232734	-1.102177	0.710047
C44	C	-0.197409	-1.075313	0.605022
C45	C	-0.095679	-0.997972	0.552534
C46	C	-0.263812	-1.125791	0.552501
C47	C	-0.228488	-1.098932	0.447485
C48	C	-0.126760	-1.021596	0.394989
C49	C	-0.060354	-0.971113	0.447517
C50	C	-0.365540	-1.203137	0.604991
C51	C	-0.431943	-1.253615	0.552471
C52	C	-0.396622	-1.226752	0.447452
C53	C	-0.294894	-1.149415	0.394957
C54	C	-0.463027	-1.277234	0.394924
C55	C	-0.427703	-1.250375	0.289908
C56	C	-0.259569	-1.122556	0.289940
H57	H	-0.304892	-0.846700	0.000004
H58	H	-0.097999	-0.999731	0.309478
N59	N	-0.336653	-1.181162	0.763671
N60	N	-0.417473	-1.176726	0.751950
H61	H	-0.490869	-1.232508	0.789822
N62	N	-0.520656	-0.410343	0.000012
N63	N	-0.606520	-0.446698	0.070342
H64	H	-0.658575	-0.419278	0.070353
N65	N	-0.396873	-0.821960	0.000013
N66	N	-0.395267	-0.878815	0.070340
H67	H	-0.417751	-0.949665	0.070354
N68	N	0.043568	-0.892119	0.393891
N69	N	0.110512	-0.907096	0.335284
H70	H	0.183905	-0.851311	0.297408
H71	H	-0.514772	-1.316590	0.595219
H72	H	-0.101863	-0.423115	-0.000026
H73	H	-0.521307	-0.732612	0.000012
H74	H	-0.481776	-1.291481	0.247145
H75	H	-0.562268	-0.596381	0.000010
H76	H	0.053559	-0.884508	0.562316
H77	H	-0.187395	-0.378009	-0.000024
N78	N	0.003204	-0.922784	0.763732
N79	N	-0.026236	-0.879292	0.822344
H80	H	0.021659	-0.842864	0.860239
N81	N	-0.155655	-1.043557	0.236300
N82	N	-0.124132	-1.019591	0.142536
H83	H	-0.050745	-0.963801	0.104650
N84	N	0.050420	-0.479619	-0.000040
N85	N	0.078245	-0.391936	-0.000049
H86	H	0.152775	-0.348511	-0.000062
H87	H	0.069979	-0.628334	-0.000031
N88	N	-0.401647	-1.230580	0.712263
N89	N	-0.492476	-1.299636	0.759117
H90	H	-0.517979	-1.319018	0.834879
N91	N	0.028379	-0.814384	-0.000016
N92	N	0.120616	-0.760648	-0.000018
H93	H	0.172666	-0.788072	-0.000023
H94	H	-0.545854	-1.340213	0.437674
