data_functionalizedCrystal
_audit_creation_method	'MofGen! by Chris Wilmer'
_symmetry_space_group_name_H-M	'P1'
_symmetry_Int_Tables_number	1
_symmetry_cell_setting	triclinic
loop_
_symmetry_equiv_pos_as_xyz
  x,y,z
_cell_length_a	8.597366
_cell_length_b	10.967829
_cell_length_c	7.088929
_cell_angle_alpha	71.681627
_cell_angle_beta	103.954530
_cell_angle_gamma	86.633260
loop_
_atom_site_label
_atom_site_type_symbol
_atom_site_fract_x
_atom_site_fract_y
_atom_site_fract_z
O1	O	2.097315	0.176047	0.128502
O2	O	1.632152	0.196977	0.044978
O3	O	1.881726	-0.000119	0.151035
O4	O	1.847741	0.373143	0.022445
O5	O	1.915081	-0.026519	0.483203
O6	O	1.665507	0.170577	0.377146
O7	O	2.130669	0.149647	0.460671
Cu8	Cu	1.901134	0.157702	0.449238
Cu9	Cu	1.861688	0.188922	0.056410
O10	O	1.881095	0.346743	0.354614
C11	C	1.589384	0.183001	0.201525
C12	C	1.412257	0.180672	0.173113
C13	C	1.898451	-0.061078	0.332860
C14	C	1.898573	-0.203386	0.379758
C15	C	1.881348	-0.253149	0.228592
C16	C	1.881474	-0.400231	0.277060
C17	C	2.173437	0.163624	0.304119
C18	C	2.350563	0.165954	0.332518
C19	C	1.864370	0.407702	0.172784
C20	C	1.864247	0.550011	0.125873
N21	N	1.928889	0.135742	0.725534
N22	N	1.833945	0.210871	-0.219880
H23	H	1.329569	0.191481	0.014896
H24	H	1.433261	0.155134	0.490749
C25	C	1.701003	0.316047	0.613277
C26	C	1.590641	0.402780	0.676374
C27	C	1.457697	0.507958	0.509516
C28	C	1.435114	0.526402	0.279562
C29	C	1.545480	0.439667	0.216454
C30	C	1.678424	0.334489	0.383312
H31	H	1.607355	0.389128	0.846609
H32	H	1.375997	0.572165	0.556234
H33	H	1.336701	0.604261	0.156044
H34	H	1.528766	0.453318	0.046219
H35	H	1.760124	0.270282	0.336595
C36	C	1.901523	-0.489760	0.500392
C37	C	1.777667	-0.468669	0.616076
C38	C	1.797716	-0.558199	0.839402
C39	C	1.941621	-0.668821	0.947045
C40	C	2.065487	-0.689917	0.831361
C41	C	2.045438	-0.600387	0.608034
H42	H	1.671132	-0.386776	0.536393
H43	H	1.706022	-0.542581	0.925039
H44	H	1.956462	-0.735096	1.112364
H45	H	2.172022	-0.771810	0.911044
H46	H	2.137132	-0.616004	0.522398
H47	H	2.027305	0.057891	0.849055
H48	H	1.866502	-0.186863	0.063290
H49	H	1.849388	-0.383708	-0.039444
H50	H	1.913402	-0.269669	0.545057
