data_functionalizedCrystal
_audit_creation_method	'MofGen! by Chris Wilmer'
_symmetry_space_group_name_H-M	'P1'
_symmetry_Int_Tables_number	1
_symmetry_cell_setting	triclinic
loop_
_symmetry_equiv_pos_as_xyz
  x,y,z
_cell_length_a	17.699104
_cell_length_b	10.868271
_cell_length_c	17.699083
_cell_angle_alpha	90.002306
_cell_angle_beta	96.712734
_cell_angle_gamma	89.993943
loop_
_atom_site_label
_atom_site_type_symbol
_atom_site_fract_x
_atom_site_fract_y
_atom_site_fract_z
O1	O	-1.004066	0.102373	0.095783
O2	O	-0.504066	0.602373	0.595783
O3	O	-0.783690	0.102365	0.108219
O4	O	-0.283690	0.602365	0.608219
O5	O	-0.900104	0.102359	-0.008188
O6	O	-0.400104	0.602359	0.491812
O7	O	-0.887652	0.102380	0.212189
O8	O	-0.387652	0.602380	0.712189
O9	O	-0.900094	-0.102286	-0.008184
O10	O	-0.400094	0.397714	0.491816
O11	O	-0.783679	-0.102279	0.108222
O12	O	-0.283679	0.397721	0.608222
O13	O	-1.004056	-0.102271	0.095786
O14	O	-0.504056	0.397729	0.595786
Zn15	Zn	-0.893866	-0.134767	0.102005
Zn16	Zn	-0.393866	0.365233	0.602005
Zn17	Zn	-0.893880	0.134861	0.102000
Zn18	Zn	-0.393880	0.634861	0.602000
O19	O	-0.887641	-0.102265	0.212193
O20	O	-0.387641	0.397735	0.712193
C21	C	-0.755488	0.000042	0.107772
C22	C	-0.255488	0.500042	0.607772
C23	C	-0.671471	0.000039	0.106427
C24	C	-0.171471	0.500039	0.606427
N25	N	-0.893862	-0.318781	0.102008
N26	N	-0.393862	0.181219	0.602008
C27	C	-0.146600	0.000045	0.167171
C28	C	0.353400	0.500045	0.667171
C29	C	-0.225543	0.000051	0.168430
C30	C	0.274457	0.500051	0.668430
C31	C	-0.274161	0.000045	0.100095
C32	C	0.225839	0.500045	0.600095
C33	C	-0.243831	0.000046	0.030496
C34	C	0.256169	0.500046	0.530496
C35	C	-0.164889	0.000049	0.029238
C36	C	0.335111	0.500049	0.529238
C37	C	-0.562197	0.000034	0.035569
C38	C	-0.062197	0.500034	0.535569
C39	C	-0.641144	0.000027	0.036833
C40	C	-0.141144	0.500027	0.536833
C41	C	-0.622852	0.000036	0.174762
C42	C	-0.122852	0.500036	0.674762
C43	C	-0.543909	0.000039	0.173503
C44	C	-0.043909	0.500039	0.673503
C45	C	-0.513587	0.000047	0.103905
C46	C	-0.013587	0.500047	0.603905
C47	C	-0.427987	0.000043	0.102541
C48	C	0.072013	0.500043	0.602541
C49	C	-0.359759	0.000040	0.101459
C50	C	0.140241	0.500040	0.601459
C51	C	-0.893868	-0.430119	0.102008
C52	C	-0.393868	0.069881	0.602008
C53	C	-0.893878	-0.569796	0.102001
C54	C	-0.393878	-0.069796	0.602001
C55	C	-0.032258	0.000049	0.096233
C56	C	0.467742	0.500049	0.596233
C57	C	-0.116275	0.000043	0.097578
C58	C	0.383725	0.500043	0.597578
C59	C	-0.899653	0.000036	-0.036383
C60	C	-0.399653	0.500036	0.463617
C61	C	-0.898314	0.000036	-0.120402
C62	C	-0.398314	0.500036	0.379598
N63	N	-0.893890	0.318875	0.101991
N64	N	-0.393890	0.818875	0.601991
C65	C	-0.966647	0.000036	-0.169017
C66	C	-0.466647	0.500036	0.330983
C67	C	-0.965385	0.000047	-0.247961
C68	C	-0.465385	0.500047	0.252039
C69	C	-0.895789	0.000049	-0.278287
C70	C	-0.395789	0.500049	0.221713
C71	C	-0.827451	0.000052	-0.229665
C72	C	-0.327451	0.500052	0.270335
C73	C	-0.828714	0.000050	-0.150723
C74	C	-0.328714	0.500050	0.349277
C75	C	-0.822356	0.000061	-0.548028
C76	C	-0.322356	0.500061	-0.048028
C77	C	-0.821098	0.000060	-0.626976
C78	C	-0.321098	0.500060	-0.126976
C79	C	-0.959026	0.000059	-0.645266
C80	C	-0.459026	0.500059	-0.145266
C81	C	-0.960289	0.000057	-0.566324
C82	C	-0.460289	0.500057	-0.066324
C83	C	-0.891952	0.000067	-0.517709
C84	C	-0.391952	0.500067	-0.017709
C85	C	-0.893321	0.000057	-0.432110
C86	C	-0.393321	0.500057	0.067890
C87	C	-0.894419	0.000049	-0.363885
C88	C	-0.394419	0.500049	0.136115
C89	C	-0.888093	0.000061	0.240388
C90	C	-0.388093	0.500061	0.740388
C91	C	-0.889431	0.000069	0.324406
C92	C	-0.389431	0.500069	0.824406
H93	H	-0.107020	0.000041	0.222818
H94	H	0.392980	0.500041	0.722818
O95	O	-0.652183	-0.000011	0.242438
O96	O	-0.152183	0.499989	0.742438
C97	C	-0.592342	0.000020	0.302480
C98	C	-0.092342	0.500020	0.802480
H99	H	-0.538749	-0.038726	0.281362
H100	H	-0.038749	0.461274	0.781362
H101	H	-0.608750	-0.059391	0.351079
H102	H	-0.108750	0.440609	0.851079
H103	H	-0.581139	0.098199	0.323552
H104	H	-0.081139	0.598199	0.823552
H105	H	-0.537518	0.000037	-0.021102
H106	H	-0.037518	0.500037	0.478898
H107	H	-1.023320	0.000028	-0.144333
H108	H	-0.523320	0.500028	0.355667
H109	H	-0.250230	0.000064	0.225100
H110	H	0.249770	0.500064	0.725100
H111	H	-0.504328	0.000038	0.229149
H112	H	-0.004328	0.500038	0.729149
H113	H	-1.016961	0.000050	-0.541638
H114	H	-0.516961	0.500050	-0.041638
O115	O	-0.290948	0.000100	-0.035955
O116	O	0.209052	0.500100	0.464045
C117	C	-0.247251	0.000071	-0.097651
C118	C	0.252749	0.500071	0.402349
H119	H	-0.188301	0.038818	-0.078329
H120	H	0.311699	0.538818	0.421671
H121	H	-0.276460	0.059484	-0.145521
H122	H	0.223540	0.559484	0.354479
H123	H	-0.241659	-0.098107	-0.118991
H124	H	0.258341	0.401893	0.381009
O125	O	-0.688266	0.000087	-0.029622
O126	O	-0.188266	0.500087	0.470378
C127	C	-0.644575	0.000068	-0.091322
C128	C	-0.144575	0.500068	0.408678
H129	H	-0.585624	0.038814	-0.072003
H130	H	-0.085624	0.538814	0.427997
H131	H	-0.673788	0.059485	-0.139187
H132	H	-0.173788	0.559485	0.360813
H133	H	-0.638984	-0.098108	-0.112668
H134	H	-0.138984	0.401892	0.387332
H135	H	-0.140200	0.000050	-0.027432
H136	H	0.359800	0.500050	0.472568
O137	O	-1.031833	-0.000015	-0.295078
O138	O	-0.531833	0.499985	0.204922
C139	C	-1.093530	0.000003	-0.251384
C140	C	-0.593530	0.500003	0.248616
H141	H	-1.074206	-0.038740	-0.192431
H142	H	-0.574206	0.461260	0.307569
H143	H	-1.141393	-0.059417	-0.280591
H144	H	-0.641393	0.440583	0.219409
H145	H	-1.114882	0.098178	-0.245797
H146	H	-0.614882	0.598178	0.254203
O147	O	-0.762356	0.000264	-0.103463
O148	O	-0.262356	0.500264	0.396537
C149	C	-0.758977	0.106236	-0.057239
C150	C	-0.258977	0.606236	0.442761
H151	H	-0.797737	0.180314	-0.086220
H152	H	-0.297737	0.680314	0.413780
H153	H	-0.697997	0.141814	-0.048251
H154	H	-0.197997	0.641814	0.451749
H155	H	-0.778462	0.082275	0.000131
H156	H	-0.278462	0.582275	0.500131
O157	O	-1.025342	0.000119	-0.692600
O158	O	-0.525342	0.500119	-0.192600
C159	C	-1.009310	0.000096	-0.768780
C160	C	-0.509310	0.500096	-0.268780
H161	H	-0.949871	0.038842	-0.771702
H162	H	-0.449871	0.538842	-0.271702
H163	H	-1.052881	0.059510	-0.804620
H164	H	-0.552881	0.559510	-0.304620
H165	H	-1.012214	-0.098081	-0.791621
H166	H	-0.512214	0.401919	-0.291621
O167	O	-0.753422	0.000126	-0.656310
O168	O	-0.253422	0.500126	-0.156310
C169	C	-0.693375	0.000107	-0.596474
C170	C	-0.193375	0.500107	-0.096474
H171	H	-0.714494	0.038848	-0.542881
H172	H	-0.214494	0.538848	-0.042881
H173	H	-0.644786	0.059529	-0.612889
H174	H	-0.144786	0.559529	-0.112889
H175	H	-0.672291	-0.098067	-0.585268
H176	H	-0.172291	0.401933	-0.085268
H177	H	-0.766711	0.000069	-0.508455
H178	H	-0.266711	0.500069	-0.008455
H179	H	-0.770785	0.000060	-0.254362
H180	H	-0.270785	0.500060	0.245638
