data_functionalizedCrystal
_audit_creation_method	'MofGen! by Chris Wilmer'
_symmetry_space_group_name_H-M	'P1'
_symmetry_Int_Tables_number	1
_symmetry_cell_setting	triclinic
loop_
_symmetry_equiv_pos_as_xyz
  x,y,z
_cell_length_a	23.532407
_cell_length_b	13.339070
_cell_length_c	11.804365
_cell_angle_alpha	105.112168
_cell_angle_beta	78.232653
_cell_angle_gamma	99.238986
loop_
_atom_site_label
_atom_site_type_symbol
_atom_site_fract_x
_atom_site_fract_y
_atom_site_fract_z
O1	O	0.783276	0.102131	-0.098870
O2	O	0.620275	0.119864	-0.098904
O3	O	0.683068	-0.036078	-0.098887
O4	O	0.720483	0.258073	-0.098886
O5	O	0.666531	0.004935	0.099165
O6	O	0.603738	0.160877	0.099148
O7	O	0.766738	0.143144	0.099182
Cu8	Cu	0.683728	0.155755	0.117249
Cu9	Cu	0.703285	0.107253	-0.116970
O10	O	0.703946	0.299086	0.099165
C11	C	0.668479	-0.053198	0.000136
C12	C	0.649641	-0.165312	0.000127
C13	C	0.590718	0.139918	0.000118
C14	C	0.527283	0.138557	0.000105
C15	C	0.796119	-0.531571	0.000158
C16	C	0.813820	-0.426233	0.000173
C17	C	0.772777	-0.360998	0.000161
C18	C	0.714030	-0.401110	0.000135
C19	C	0.696327	-0.506457	0.000130
C20	C	0.672984	-0.335884	0.000133
C21	C	0.614238	-0.375996	0.000107
C22	C	0.596537	-0.481333	0.000100
C23	C	0.637581	-0.546568	0.000112
C24	C	0.690687	-0.230537	0.000138
C25	C	0.590895	-0.205424	0.000110
C26	C	0.573194	-0.310761	0.000095
C27	C	0.141679	0.222335	0.000159
C28	C	0.082075	0.221074	0.000166
O29	O	0.057844	0.298736	0.000209
N30	N	0.044503	0.128364	0.000164
C31	C	0.066538	0.036911	0.000166
O32	O	0.029108	-0.042062	0.000166
C33	C	0.126141	0.038174	0.000168
C34	C	0.163710	0.130888	0.000158
C35	C	0.179248	0.315041	0.000150
C36	C	0.238848	0.316300	0.000141
C37	C	0.260879	0.224853	0.000140
C38	C	0.223311	0.132147	0.000148
C39	C	0.148174	-0.053277	0.000179
C40	C	0.207781	-0.052005	0.000181
C41	C	0.245350	0.040708	0.000171
C42	C	0.304942	0.041959	0.000138
N43	N	0.342513	0.134669	0.000140
C44	C	0.320482	0.226116	0.000141
C45	C	-0.058631	0.034266	0.000166
C46	C	-0.118232	0.033000	0.000156
C47	C	-0.102691	0.217164	0.000158
C48	C	-0.043089	0.218427	0.000159
C49	C	-0.021060	0.126976	0.000168
C50	C	0.445646	0.228754	0.000120
C51	C	0.505252	0.230004	0.000105
C52	C	0.489706	0.045841	0.000110
C53	C	0.430106	0.044589	0.000118
C54	C	0.408078	0.136055	0.000127
O55	O	0.329213	-0.035660	0.000099
O56	O	0.357917	0.305079	0.000157
C57	C	0.796296	0.123089	0.000158
C58	C	0.859731	0.124449	0.000163
C59	C	0.718534	0.316205	0.000140
C60	C	0.737373	0.428318	0.000141
N61	N	0.669976	0.189868	0.281986
N62	N	0.717040	0.073132	-0.281707
C63	C	0.750060	-0.008806	0.655955
C64	C	0.760462	-0.034616	0.531297
C65	C	0.737841	0.021502	0.468963
C66	C	0.704817	0.103437	0.531300
C67	C	0.694418	0.129255	0.655971
C68	C	0.682199	0.159563	0.468978
C69	C	0.649176	0.241497	0.531316
C70	C	0.638778	0.267311	0.655975
C71	C	0.661399	0.211193	0.718308
C72	C	0.692598	0.133745	0.344307
C73	C	0.636957	0.271805	0.344323
C74	C	0.626555	0.297616	0.468982
H75	H	0.738519	-0.197888	0.000160
C76	C	0.752622	-0.176001	0.694355
C77	C	0.774917	-0.070487	0.724478
H78	H	0.767971	-0.214083	0.736656
H79	H	0.711237	-0.182384	0.714790
H80	H	0.763547	-0.203097	0.611188
H81	H	0.763988	-0.043388	0.807643
H82	H	0.816311	-0.064099	0.704050
C83	C	0.598134	0.368190	0.847083
C84	C	0.602482	0.357379	0.724500
H85	H	0.575729	0.423798	0.889383
H86	H	0.579607	0.305073	0.867508
H87	H	0.636119	0.383050	0.867493
H88	H	0.564497	0.342512	0.704088
H89	H	0.621008	0.420510	0.704066
C90	C	0.519783	-0.172671	-0.101723
C91	C	0.545773	-0.133731	0.000093
H92	H	0.491927	-0.128409	-0.101724
H93	H	0.548953	-0.174861	-0.170769
H94	H	0.500836	-0.241148	-0.101714
H95	H	0.564724	-0.065257	0.000080
H96	H	0.516599	-0.131530	0.069157
C97	C	0.007875	-0.092251	-0.101658
C98	C	-0.034416	-0.066270	0.000154
H99	H	0.022824	-0.154313	-0.101658
H100	H	-0.009292	-0.103209	-0.170707
H101	H	0.038781	-0.036854	-0.101641
H102	H	-0.065324	-0.121664	0.000133
H103	H	-0.017250	-0.055319	0.069221
C104	C	0.910678	-0.461645	0.000202
C105	C	0.878391	-0.382144	0.000198
H106	H	0.950545	-0.434425	0.000211
H107	H	0.895930	-0.487910	0.069258
H108	H	0.907465	-0.516510	-0.068873
H109	H	0.881601	-0.327283	0.069278
H110	H	0.893144	-0.355863	-0.068865
C111	C	0.467013	0.410915	0.000097
C112	C	0.421441	0.329290	0.000115
H113	H	0.452069	0.472977	0.000080
H114	H	0.484172	0.421879	0.069158
H115	H	0.495699	0.393251	-0.068972
H116	H	0.392756	0.346951	0.069189
H117	H	0.404273	0.318326	-0.068953
C118	C	0.248201	0.498210	0.000163
C119	C	0.280138	0.418219	0.000151
H120	H	0.273690	0.561135	0.000181
H121	H	0.230398	0.479586	-0.068900
H122	H	0.218863	0.508167	0.069230
H123	H	0.309474	0.408257	-0.068921
H124	H	0.297951	0.436847	0.069221
H125	H	0.535839	0.305506	0.000097
H126	H	0.623172	-0.632345	0.000096
C127	C	0.534272	0.365755	0.507401
C128	C	0.590257	0.387678	0.537516
H129	H	0.511863	0.421352	0.549719
H130	H	0.537230	0.358426	0.424248
H131	H	0.515753	0.302625	0.527832
H132	H	0.608778	0.450804	0.517076
H133	H	0.587301	0.395019	0.620687
H134	H	0.829529	-0.584691	0.000178
H135	H	-0.148815	-0.042501	0.000146
H136	H	0.787192	-0.275227	0.000174
H137	H	0.746312	0.000483	0.367460
H138	H	0.161317	0.389513	0.000155
H139	H	0.548701	-0.513987	0.000088
C140	C	0.634386	0.439014	0.305942
C141	C	0.612090	0.333501	0.275819
H142	H	0.619039	0.477097	0.263639
H143	H	0.623466	0.466108	0.389098
H144	H	0.675776	0.445393	0.285498
H145	H	0.570699	0.327120	0.296272
H146	H	0.623006	0.306398	0.192644
H147	H	0.525362	-0.343436	0.000074
C148	C	0.041444	0.305615	-0.101660
C149	C	-0.001797	0.320342	0.000151
H150	H	0.066930	0.368540	-0.101666
H151	H	0.063099	0.251351	-0.101646
H152	H	0.023626	0.286983	-0.170717
H153	H	0.016021	0.338967	0.069209
H154	H	-0.023454	0.374624	0.000148
C155	C	-0.152221	0.301499	-0.101637
C156	C	-0.126916	0.317689	0.000168
H157	H	-0.167180	0.363554	-0.101626
H158	H	-0.123529	0.283877	-0.170691
H159	H	-0.183122	0.246096	-0.101624
H160	H	-0.096012	0.373088	0.000150
H161	H	-0.155611	0.335325	0.069240
C162	C	0.138822	-0.235171	0.000222
C163	C	0.106886	-0.155189	0.000207
H164	H	0.113331	-0.298088	0.000251
H165	H	0.168150	-0.245155	-0.068845
H166	H	0.156636	-0.216517	0.069286
H167	H	0.089076	-0.173839	-0.068861
H168	H	0.077547	-0.145205	0.069281
H169	H	0.225713	-0.126478	0.000189
C170	C	0.362550	-0.084756	-0.101682
C171	C	0.388806	-0.057322	0.000118
H172	H	0.337058	-0.147674	-0.101674
H173	H	0.340898	-0.030477	-0.101666
H174	H	0.391889	-0.094739	-0.170747
H175	H	0.359467	-0.047332	0.069183
H176	H	0.410458	-0.111614	0.000113
C177	C	0.556227	-0.080648	-0.101693
C178	C	0.513933	-0.054670	0.000114
H179	H	0.571187	-0.142694	-0.101677
H180	H	0.539058	-0.091632	-0.170745
H181	H	0.587125	-0.025238	-0.101688
H182	H	0.483033	-0.110077	0.000105
H183	H	0.531101	-0.043692	0.069185
H184	H	0.652928	0.232205	0.819816
H185	H	0.787350	-0.101325	0.480546
C186	C	0.701535	-0.049343	0.306039
C187	C	0.728881	0.043654	0.275842
H188	H	0.723931	-0.104973	0.263780
H189	H	0.698573	-0.041950	0.389205
H190	H	0.663558	-0.064182	0.285593
H191	H	0.766857	0.058497	0.296296
H192	H	0.731850	0.036262	0.192658
