data_functionalizedCrystal
_audit_creation_method	'MofGen! by Chris Wilmer'
_symmetry_space_group_name_H-M	'P1'
_symmetry_Int_Tables_number	1
_symmetry_cell_setting	triclinic
loop_
_symmetry_equiv_pos_as_xyz
  x,y,z
_cell_length_a	12.996460
_cell_length_b	17.699083
_cell_length_c	17.699083
_cell_angle_alpha	96.716985
_cell_angle_beta	89.998816
_cell_angle_gamma	90.000172
loop_
_atom_site_label
_atom_site_type_symbol
_atom_site_fract_x
_atom_site_fract_y
_atom_site_fract_z
O1	O	-0.085425	-1.004078	0.095706
O2	O	0.414575	-0.504078	0.595706
O3	O	-0.085459	-0.783700	0.108158
O4	O	0.414541	-0.283700	0.608158
O5	O	-0.085432	-0.900115	-0.008257
O6	O	0.414568	-0.400115	0.491743
O7	O	-0.085452	-0.887663	0.212121
O8	O	0.414548	-0.387663	0.712121
O9	O	0.085702	-0.900100	-0.008250
O10	O	0.585702	-0.400100	0.491750
O11	O	0.085675	-0.783685	0.108165
O12	O	0.585675	-0.283685	0.608165
O13	O	0.085709	-1.004063	0.095713
O14	O	0.585709	-0.504063	0.595713
Cu15	Cu	0.101318	-0.893873	0.101940
Cu16	Cu	0.601318	-0.393873	0.601940
Cu17	Cu	-0.101067	-0.893890	0.101932
Cu18	Cu	0.398933	-0.393890	0.601932
O19	O	0.085682	-0.887648	0.212128
O20	O	0.585682	-0.387648	0.712128
C21	C	0.000104	-0.755495	0.107716
C22	C	0.500104	-0.255495	0.607716
C23	C	0.000091	-0.671477	0.106377
C24	C	0.500091	-0.171477	0.606377
N25	N	0.243665	-0.893866	0.101945
N26	N	0.743665	-0.393866	0.601945
N27	N	-0.243415	-0.893903	0.101920
N28	N	0.256585	-0.393903	0.601920
C29	C	0.336771	-0.893869	0.101947
C30	C	0.836771	-0.393869	0.601947
C31	C	0.453576	-0.893876	0.101942
C32	C	0.953576	-0.393876	0.601942
C33	C	0.546675	-0.893886	0.101933
C34	C	1.046675	-0.393886	0.601933
C35	C	0.663487	-0.893894	0.101929
C36	C	1.163487	-0.393894	0.601929
C37	C	0.000135	-0.899662	-0.036451
C38	C	0.500135	-0.399662	0.463549
C39	C	0.000136	-0.898323	-0.120469
C40	C	0.500136	-0.398323	0.379531
C41	C	0.000144	-1.032268	0.096156
C42	C	0.500144	-0.532268	0.596156
C43	C	0.000150	-1.116286	0.097494
C44	C	0.500150	-0.616286	0.597494
C45	C	0.000085	-0.622856	0.174710
C46	C	0.500085	-0.122856	0.674710
C47	C	0.000099	-0.543913	0.173448
C48	C	0.500099	-0.043913	0.673448
C49	C	0.000111	-0.513592	0.103852
C50	C	0.500111	-0.013592	0.603852
C51	C	0.000120	-0.562219	0.035513
C52	C	0.500120	-0.062219	0.535513
C53	C	0.000114	-0.641161	0.036776
C54	C	0.500114	-0.141161	0.536776
C55	C	0.000146	-0.243856	0.030418
C56	C	0.500146	0.256144	0.530418
C57	C	0.000149	-0.164908	0.029160
C58	C	0.500149	0.335092	0.529160
C59	C	0.000131	-0.146608	0.167090
C60	C	0.500131	0.353392	0.667090
C61	C	0.000125	-0.225550	0.168353
C62	C	0.500125	0.274450	0.668353
C63	C	0.000139	-0.274170	0.100015
C64	C	0.500139	0.225830	0.600015
C65	C	0.000127	-0.359769	0.101384
C66	C	0.500127	0.140231	0.601384
C67	C	0.000116	-0.427995	0.102481
C68	C	0.500116	0.072005	0.602481
C69	C	0.000148	-0.966656	-0.169090
C70	C	0.500148	-0.466656	0.330910
C71	C	0.000138	-0.965394	-0.248033
C72	C	0.500138	-0.465394	0.251967
C73	C	0.000124	-0.895798	-0.278354
C74	C	0.500124	-0.395798	0.221646
C75	C	0.000109	-0.827459	-0.229727
C76	C	0.500109	-0.327459	0.270273
C77	C	0.000111	-0.828722	-0.150785
C78	C	0.500111	-0.328722	0.349215
C79	C	0.000100	-0.822364	-0.548090
C80	C	0.500100	-0.322364	-0.048090
C81	C	0.000101	-0.821106	-0.627038
C82	C	0.500101	-0.321106	-0.127038
C83	C	0.000127	-0.959036	-0.645338
C84	C	0.500127	-0.459036	-0.145338
C85	C	0.000129	-0.960299	-0.566396
C86	C	0.500129	-0.460299	-0.066396
C87	C	0.000109	-0.891961	-0.517776
C88	C	0.500109	-0.391961	-0.017776
C89	C	0.000117	-0.893330	-0.432177
C90	C	0.500117	-0.393330	0.067823
C91	C	0.000124	-0.894427	-0.363951
C92	C	0.500124	-0.394427	0.136049
C93	C	0.000113	-0.888102	0.240322
C94	C	0.500113	-0.388102	0.740322
C95	C	0.000106	-0.889440	0.324340
C96	C	0.500106	-0.389440	0.824340
H97	H	0.000075	-0.647537	0.231384
H98	H	0.500075	-0.147537	0.731384
H99	H	0.000144	-0.537526	-0.021154
H100	H	0.500144	-0.037526	0.478846
H101	H	0.000158	-0.283434	-0.025228
H102	H	0.500158	0.216566	0.474772
H103	H	0.000101	-0.773078	-0.111198
H104	H	0.500101	-0.273078	0.388802
H105	H	0.000118	-0.680748	-0.018868
H106	H	0.500118	-0.180748	0.481132
H107	H	0.000093	-0.504328	0.229092
H108	H	0.500093	-0.004328	0.729092
H109	H	0.000092	-0.764429	-0.651721
H110	H	0.500092	-0.264429	-0.151721
H111	H	0.000150	-1.021038	-0.287618
H112	H	0.500150	-0.521038	0.212382
H113	H	0.000110	-0.250232	0.225025
H114	H	0.500110	0.249768	0.725025
H115	H	0.000146	-1.016971	-0.541714
H116	H	0.500146	-0.516971	-0.041714
H117	H	0.000139	-1.014680	-0.684934
H118	H	0.500139	-0.514680	-0.184934
H119	H	0.000084	-0.766718	-0.508512
H120	H	0.500084	-0.266718	-0.008512
H121	H	0.000165	-1.023330	-0.144409
H122	H	0.500165	-0.523330	0.355591
H123	H	0.000125	-0.107012	0.222734
H124	H	0.500125	0.392988	0.722734
H125	H	0.000091	-0.770792	-0.254420
H126	H	0.500091	-0.270792	0.245580
H127	H	0.000160	-0.140225	-0.027517
H128	H	0.500160	0.359775	0.472483
