data_functionalizedCrystal
_audit_creation_method	'MofGen! by Chris Wilmer'
_symmetry_space_group_name_H-M	'P1'
_symmetry_Int_Tables_number	1
_symmetry_cell_setting	triclinic
loop_
_symmetry_equiv_pos_as_xyz
  x,y,z
_cell_length_a	16.109302
_cell_length_b	8.597304
_cell_length_c	14.586319
_cell_angle_alpha	82.296329
_cell_angle_beta	89.994552
_cell_angle_gamma	84.402578
loop_
_atom_site_label
_atom_site_type_symbol
_atom_site_fract_x
_atom_site_fract_y
_atom_site_fract_z
O1	O	1.104800	0.201736	-0.092213
O2	O	0.862945	0.226840	-0.094188
O3	O	0.988632	-0.014182	-0.075152
O4	O	0.979113	0.442757	-0.111249
O5	O	0.988623	-0.014185	0.077329
O6	O	0.862936	0.226836	0.058293
O7	O	1.104791	0.201732	0.060268
Cu8	Cu	0.983863	0.214284	0.073203
Cu9	Cu	0.983873	0.214288	-0.107123
O10	O	0.979104	0.442753	0.041232
C11	C	0.831958	0.225821	-0.017867
C12	C	0.739637	0.222772	-0.017623
C13	C	0.527233	0.215719	0.066043
C14	C	0.440489	0.212837	0.066267
C15	C	0.440509	0.212849	-0.099977
C16	C	0.527252	0.215719	-0.100200
C17	C	0.570611	0.217162	-0.017188
C18	C	0.397125	0.211410	-0.016741
C19	C	0.303073	0.208285	-0.016498
C20	C	0.664669	0.220284	-0.017430
C21	C	0.987605	-0.072654	0.005706
C22	C	0.984548	-0.246880	0.019463
C23	C	1.135778	0.202751	-0.016056
C24	C	1.228099	0.205800	-0.016305
C25	C	0.980131	0.501226	-0.039628
C26	C	0.983188	0.675452	-0.053392
N27	N	0.983861	0.214280	0.200035
N28	N	0.983881	0.214280	-0.233954
C29	C	1.039534	0.107591	0.443468
C30	C	1.039537	0.107588	0.539450
C31	C	0.928202	0.320973	0.522606
C32	C	0.928196	0.320968	0.426626
C33	C	0.983867	0.214279	0.387060
C34	C	0.983875	0.214280	0.579021
C35	C	0.983877	0.214277	0.683088
C36	C	0.983864	0.214280	0.282986
H37	H	0.405196	0.211676	-0.167562
C38	C	0.982955	-0.337115	0.117963
N39	N	0.981755	-0.405082	0.192151
H40	H	0.562572	0.216891	-0.167979
H41	H	0.984359	-0.257756	-0.126297
C42	C	0.574926	0.217287	0.157359
N43	N	0.610847	0.218462	0.226142
C44	C	1.100768	-0.009790	0.601496
N45	N	1.146888	-0.098210	0.648229
H46	H	0.882861	0.407847	0.380695
H47	H	0.882877	0.407839	0.554830
C48	C	0.392776	0.211267	0.157826
N49	N	0.356838	0.210090	0.226791
H50	H	1.084864	0.020717	0.411256
