data_functionalizedCrystal
_audit_creation_method	'MofGen! by Chris Wilmer'
_symmetry_space_group_name_H-M	'P1'
_symmetry_Int_Tables_number	1
_symmetry_cell_setting	triclinic
loop_
_symmetry_equiv_pos_as_xyz
  x,y,z
_cell_length_a	12.837943
_cell_length_b	14.971486
_cell_length_c	14.048226
_cell_angle_alpha	90.003819
_cell_angle_beta	89.996231
_cell_angle_gamma	90.778466
loop_
_atom_site_label
_atom_site_type_symbol
_atom_site_fract_x
_atom_site_fract_y
_atom_site_fract_z
O1	O	1.375743	-0.232550	-0.079145
O2	O	1.875743	0.267450	0.420855
O3	O	1.073923	-0.221062	-0.079150
O4	O	1.573923	0.278938	0.420850
O5	O	1.232922	-0.097288	-0.079141
O6	O	1.732922	0.402712	0.420859
O7	O	1.216743	-0.356324	-0.079155
O8	O	1.716743	0.143676	0.420845
O9	O	1.232907	-0.097286	0.079181
O10	O	1.732907	0.402714	0.579181
O11	O	1.073908	-0.221060	0.079171
O12	O	1.573908	0.278940	0.579171
O13	O	1.375728	-0.232548	0.079176
O14	O	1.875728	0.267452	0.579176
Zn15	Zn	1.224815	-0.226803	0.104311
Zn16	Zn	1.724815	0.273197	0.604311
Zn17	Zn	1.224835	-0.226807	-0.104285
Zn18	Zn	1.724835	0.273193	0.395715
O19	O	1.216728	-0.356322	0.079167
O20	O	1.716728	0.143678	0.579167
C21	C	1.035290	-0.217180	0.000010
C22	C	1.535290	0.282820	0.500010
C23	C	0.920199	-0.205606	0.000008
C24	C	1.420199	0.294394	0.500008
C25	C	0.679413	-0.344749	0.000014
C26	C	1.179413	0.155251	0.500014
C27	C	0.571273	-0.333878	0.000013
C28	C	1.071273	0.166122	0.500013
C29	C	0.595779	-0.172995	0.000011
C30	C	1.095779	0.327005	0.500011
C31	C	0.703918	-0.183866	0.000012
C32	C	1.203918	0.316134	0.500012
C33	C	0.745731	-0.269745	0.000012
C34	C	1.245731	0.230255	0.500012
C35	C	0.853872	-0.280615	0.000006
C36	C	1.353872	0.219385	0.500006
C37	C	0.878375	-0.119733	0.000012
C38	C	1.378375	0.380267	0.500012
C39	C	0.770236	-0.108862	0.000011
C40	C	1.270236	0.391138	0.500011
C41	C	1.232191	-0.063901	0.000020
C42	C	1.732191	0.436099	0.500020
C43	C	1.230023	0.035579	0.000019
C44	C	1.730023	0.535579	0.500019
C45	C	1.414361	-0.236430	0.000014
C46	C	1.914361	0.263570	0.500014
C47	C	1.529452	-0.248004	0.000010
C48	C	2.029452	0.251996	0.500010
C49	C	1.217459	-0.389709	0.000004
C50	C	1.717459	0.110291	0.500004
C51	C	1.219628	-0.489189	-0.000001
C52	C	1.719628	0.010811	0.499999
N53	N	1.224809	-0.226801	0.246671
N54	N	1.724809	0.273199	0.746671
C55	C	1.323431	0.084929	0.000021
C56	C	1.823431	0.584929	0.500021
C57	C	1.321387	0.178400	0.000012
C58	C	1.821387	0.678400	0.500012
C59	C	1.225935	0.222520	0.000006
C60	C	1.725935	0.722520	0.500006
C61	C	1.132520	0.173164	0.000001
C62	C	1.632520	0.673164	0.500001
C63	C	1.134564	0.079694	0.000004
C64	C	1.634564	0.579694	0.500004
C65	C	1.128265	0.367985	-0.000002
C66	C	1.628265	0.867985	0.499998
C67	C	1.126220	0.461461	-0.000003
C68	C	1.626220	0.961461	0.499997
C69	C	1.315088	0.466692	0.000005
C70	C	1.815088	0.966692	0.500005
C71	C	1.317132	0.373222	0.000008
C72	C	1.817132	0.873222	0.500008
C73	C	1.223717	0.323871	0.000005
C74	C	1.723717	0.823871	0.500005
N75	N	1.224850	-0.226802	-0.246645
N76	N	1.724850	0.273198	0.253355
C77	C	1.287749	-0.286449	0.296483
C78	C	1.787749	0.213551	0.796483
C79	C	1.287762	-0.286446	0.396141
C80	C	1.787762	0.213554	0.896141
C81	C	1.224830	-0.226799	0.445985
C82	C	1.724830	0.273201	0.945985
C83	C	1.161887	-0.167145	0.396166
C84	C	1.661887	0.332855	0.896166
C85	C	1.161880	-0.167145	0.296510
C86	C	1.661880	0.332855	0.796510
C87	C	1.161904	-0.167153	0.603880
C88	C	1.661904	0.332847	1.103880
C89	C	1.161910	-0.167155	0.703543
C90	C	1.661910	0.332845	1.203543
C91	C	1.287787	-0.286455	0.703511
C92	C	1.787787	0.213545	1.203511
C93	C	1.287780	-0.286454	0.603855
C94	C	1.787780	0.213546	1.103855
C95	C	1.224836	-0.226801	0.554043
C96	C	1.724836	0.273199	1.054043
H97	H	0.561715	-0.103076	0.000090
H98	H	1.061715	0.396924	0.500090
C99	C	1.417843	0.520973	-0.000008
C100	C	1.917843	1.020973	0.499992
H101	H	1.402958	0.582959	-0.000026
H102	H	1.902958	1.082959	0.499974
H103	H	1.456979	0.506741	0.055202
H104	H	1.956979	1.006741	0.555202
H105	H	1.456976	0.506718	-0.055225
H106	H	1.956976	1.006718	0.444775
H107	H	1.397450	0.218577	0.000016
H108	H	1.897450	0.718577	0.500016
H109	H	1.339020	-0.335027	0.563275
H110	H	1.839020	0.164973	1.063275
H111	H	1.338990	-0.335025	0.255908
H112	H	1.838990	0.164975	0.755908
H113	H	1.339016	-0.335016	0.436694
H114	H	1.839016	0.164984	0.936694
C115	C	1.025510	0.313701	-0.000005
C116	C	1.525510	0.813701	0.499995
H117	H	0.968368	0.353363	0.000002
H118	H	1.468368	0.853363	0.500002
H119	H	1.022384	0.277123	-0.055213
H120	H	1.522384	0.777123	0.444787
H121	H	1.022380	0.277137	0.055215
H122	H	1.522380	0.777137	0.555215
C123	C	1.428427	0.036401	0.000030
C124	C	1.928427	0.536401	0.500030
H125	H	1.416270	-0.026335	0.000041
H126	H	1.916270	0.473665	0.500041
H127	H	1.466900	0.052789	-0.055179
H128	H	1.966900	0.552789	0.444821
H129	H	1.466883	0.052802	0.055249
H130	H	1.966883	0.552802	0.555249
C131	C	1.031816	0.025408	0.000004
C132	C	1.531816	0.525408	0.500004
H133	H	0.974674	0.065070	0.000008
H134	H	1.474674	0.565070	0.500008
H135	H	1.028694	-0.011168	-0.055206
H136	H	1.528694	0.488832	0.444794
H137	H	1.028682	-0.011158	0.055221
H138	H	1.528682	0.488842	0.555221
H139	H	1.339034	-0.335030	0.744073
H140	H	1.839034	0.164970	1.244073
H141	H	1.048494	0.497381	0.000008
H142	H	1.548494	0.997381	0.500008
C143	C	1.092661	-0.101565	0.758370
C144	C	1.592661	0.398435	1.258370
H145	H	1.055174	-0.066036	0.714432
H146	H	1.555174	0.433964	1.214432
H147	H	1.045002	-0.134154	0.797234
H148	H	1.545002	0.365846	1.297234
H149	H	1.135083	-0.064032	0.797258
H150	H	1.635083	0.435968	1.297258
H151	H	1.110650	-0.118576	0.563326
H152	H	1.610650	0.381424	1.063326
H153	H	1.110651	-0.118576	0.436756
H154	H	1.610651	0.381424	0.936756
H155	H	0.932384	-0.058660	0.000004
H156	H	1.432384	0.441340	0.500004
H157	H	1.110628	-0.118574	0.255954
H158	H	1.610628	0.381426	0.755954
H159	H	1.394858	0.337302	0.000019
H160	H	1.894858	0.837302	0.500019
H161	H	0.736177	-0.038941	0.000022
H162	H	1.236177	0.461059	0.500022
H163	H	0.887914	-0.350543	0.000008
H164	H	1.387914	0.149457	0.500008
H165	H	0.517280	-0.394954	0.000017
H166	H	1.017280	0.105046	0.500017
H167	H	0.713457	-0.414675	0.000012
H168	H	1.213457	0.085325	0.500012
H169	H	1.054801	0.209093	-0.000009
H170	H	1.554801	0.709093	0.499991
