data_functionalizedCrystal
_audit_creation_method	'MofGen! by Chris Wilmer'
_symmetry_space_group_name_H-M	'P1'
_symmetry_Int_Tables_number	1
_symmetry_cell_setting	triclinic
loop_
_symmetry_equiv_pos_as_xyz
  x,y,z
_cell_length_a	15.698487
_cell_length_b	21.606444
_cell_length_c	21.606444
_cell_angle_alpha	60.001331
_cell_angle_beta	90.001483
_cell_angle_gamma	59.999624
loop_
_atom_site_label
_atom_site_type_symbol
_atom_site_fract_x
_atom_site_fract_y
_atom_site_fract_z
Zr1	Zr	0.820595	0.677465	-0.081210
O2	O	0.684571	0.806586	-0.180031
O3	O	0.862295	0.548346	-0.050919
O4	O	0.862284	0.677470	-0.180037
O5	O	0.684589	0.677457	0.050941
O6	O	1.002465	0.677473	-0.180039
O7	O	0.684582	0.677462	-0.050913
O8	O	1.002484	0.446494	0.050930
O9	O	0.684570	0.908436	-0.180028
O10	O	0.984693	0.601456	-0.037998
O11	O	0.880083	0.601451	0.038016
O12	O	0.880070	0.753478	-0.114004
O13	O	0.775460	0.753473	-0.037991
Zr14	Zr	1.044179	0.677462	0.081233
Zr15	Zr	1.044168	0.677469	-0.081212
Zr16	Zr	0.820606	0.677458	0.081236
Zr17	Zr	0.820593	0.839906	-0.081205
Zr18	Zr	1.044181	0.515022	0.081228
O19	O	1.002479	0.806581	0.050942
O20	O	1.002463	0.806591	-0.180035
O21	O	0.684588	0.806576	0.050946
O22	O	1.180202	0.548342	0.180054
O23	O	1.180186	0.548352	-0.050922
O24	O	0.862311	0.548337	0.180058
O25	O	1.180184	0.677470	-0.050918
O26	O	1.002490	0.677457	0.180060
O27	O	0.862309	0.677455	0.180062
O28	O	1.180191	0.677466	0.050936
O29	O	0.862280	0.908439	-0.180030
O30	O	1.002493	0.446488	0.180053
O31	O	1.180204	0.446491	0.180051
O32	O	1.180195	0.446497	0.050928
O33	O	0.684579	0.908431	-0.050905
O34	O	0.862289	0.908434	-0.050907
O35	O	0.984704	0.601450	0.114027
O36	O	1.089314	0.601455	0.038014
O37	O	0.984691	0.753476	-0.037993
O38	O	0.880081	0.753471	0.038021
C39	C	0.932390	0.474276	0.000005
C40	C	0.932391	0.405316	0.000003
C41	C	0.986994	0.372921	-0.039677
C42	C	0.986998	0.308121	-0.039672
C43	C	0.932391	0.275721	0.000009
C44	C	0.877787	0.308119	0.039693
C45	C	0.877790	0.372913	0.039692
C46	C	0.877774	0.046810	0.039700
C47	C	0.877773	-0.017987	0.039696
C48	C	0.986982	-0.017983	-0.039664
C49	C	0.986985	0.046811	-0.039665
C50	C	0.932386	0.079200	0.000022
C51	C	0.932384	0.149462	0.000017
C52	C	0.932387	0.205465	0.000010
C53	C	0.652732	0.677459	0.000015
C54	C	0.557819	0.677457	0.000016
C55	C	0.384034	0.677473	0.000009
C56	C	0.480738	0.677468	0.000011
C57	C	1.212042	0.677469	0.000008
C58	C	1.306955	0.677470	0.000007
C59	C	0.932373	0.677473	-0.203183
C60	C	0.932368	0.677476	-0.272145
C61	C	0.932384	0.880652	0.000018
C62	C	0.932383	0.949612	0.000020
C63	C	0.877755	0.756829	-0.344219
C64	C	0.877764	0.756826	-0.409014
C65	C	0.932380	0.677470	-0.401734
C66	C	0.987000	0.598110	-0.329653
C67	C	0.986996	0.598114	-0.264859
C68	C	0.987016	0.598095	-0.590956
C69	C	0.987013	0.598098	-0.655757
C70	C	0.877784	0.756808	-0.735110
C71	C	0.877781	0.756811	-0.670317
C72	C	0.932404	0.677452	-0.598242
C73	C	0.932395	0.677456	-0.527984
C74	C	0.932384	0.677465	-0.471989
C75	C	0.932401	0.677455	0.203206
C76	C	0.932406	0.677452	0.272169
C77	C	1.212045	0.474281	0.000002
C78	C	1.306959	0.405322	-0.000001
C79	C	0.932404	0.474267	0.203200
C80	C	0.932410	0.405304	0.272160
C81	C	1.212059	0.474272	0.203196
C82	C	1.306978	0.405311	0.272156
C83	C	0.652714	0.880656	-0.203173
C84	C	0.557796	0.949617	-0.272132
C85	C	0.652729	0.880647	0.000021
C86	C	0.557815	0.949605	0.000025
C87	C	0.932370	0.880661	-0.203176
C88	C	0.932364	0.949624	-0.272137
C89	C	1.296920	0.372939	-0.039687
C90	C	1.386093	0.308154	-0.039705
C91	C	1.485303	0.275749	-0.000033
C92	C	1.495340	0.308139	0.039654
C93	C	1.406168	0.372927	0.039667
C94	C	0.987024	0.372917	0.344228
C95	C	0.987025	0.308128	0.409030
C96	C	0.932418	0.275723	0.401761
C97	C	0.877798	0.308115	0.329685
C98	C	0.877791	0.372908	0.264885
C99	C	1.406167	0.372928	0.264861
C100	C	1.495362	0.308141	0.329649
C101	C	1.485364	0.275732	0.401731
C102	C	1.386164	0.308121	0.409024
C103	C	1.296972	0.372912	0.344237
C104	C	0.458607	0.982007	-0.264838
C105	C	0.369412	1.046815	-0.329626
C106	C	0.379410	1.079227	-0.401708
C107	C	0.478610	1.046834	-0.409001
C108	C	0.567802	0.982032	-0.344214
C109	C	0.567854	0.981995	0.039703
C110	C	0.478681	1.046798	0.039704
C111	C	0.379471	1.079205	0.000029
C112	C	0.369434	1.046813	-0.039654
C113	C	0.458606	0.982016	-0.039659
C114	C	0.986981	0.982009	-0.264844
C115	C	0.986996	1.046799	-0.329633
C116	C	0.932387	1.079206	-0.401714
C117	C	0.877768	1.046814	-0.409006
C118	C	0.877760	0.982022	-0.344217
H119	H	1.031460	0.281744	-0.071981
H120	H	1.031472	1.073165	-0.323682
H121	H	1.031451	0.955633	-0.206158
C122	C	0.281388	1.150477	0.000041
H123	H	0.220859	1.165147	-0.029273
H124	H	0.281398	1.129233	0.050595
H125	H	0.281392	1.201031	-0.021205
C126	C	0.676976	0.946359	0.083344
H127	H	0.728656	0.903123	0.077669
H128	H	0.684794	0.992877	0.063746
H129	H	0.684801	0.921080	0.135548
H130	H	0.932402	1.131965	-0.454463
H131	H	0.833307	1.073211	-0.467703
H132	H	1.557999	0.222975	0.454479
H133	H	1.031447	0.073192	-0.071980
H134	H	0.486873	1.073161	0.072022
C135	C	0.281292	1.150496	-0.472967
H136	H	0.220790	1.165131	-0.458293
H137	H	0.281265	1.201060	-0.502289
H138	H	0.281281	1.129249	-0.502276
C139	C	1.375181	0.272458	0.488316
H140	H	1.442511	0.229226	0.525850
H141	H	1.338128	0.318959	0.494019
H142	H	1.338141	0.247164	0.494002
C143	C	0.447556	0.946382	-0.083297
H144	H	0.514866	0.903151	-0.077626
H145	H	0.410495	0.921113	-0.063698
H146	H	0.410496	0.992903	-0.135500
C147	C	0.817659	0.946416	-0.352244
H148	H	0.825469	0.903184	-0.303340
H149	H	0.745818	0.992947	-0.379171
H150	H	0.844624	0.921138	-0.379170
C151	C	1.047080	0.408563	0.352238
H152	H	1.079589	0.379998	0.404445
H153	H	1.098762	0.397949	0.328616
H154	H	0.999924	0.469740	0.328610
C155	C	1.375040	0.272528	-0.083354
H156	H	1.442351	0.229308	-0.077691
H157	H	1.337991	0.247248	-0.063751
H158	H	1.337968	0.319054	-0.135555
H159	H	1.031455	0.399300	-0.071993
C160	C	1.047121	0.272500	0.488303
H161	H	1.079654	0.301072	0.483345
H162	H	0.999998	0.283122	0.515237
H163	H	1.098804	0.211323	0.515228
C164	C	1.604471	0.272476	0.083304
H165	H	1.597690	0.301037	0.106945
H166	H	1.641514	0.211301	0.120839
H167	H	1.641534	0.283097	0.049056
H168	H	1.216211	0.399269	0.350187
C169	C	0.447589	0.946375	-0.185556
H170	H	0.375735	0.974964	-0.190502
H171	H	0.480100	0.885203	-0.158625
H172	H	0.480115	0.957001	-0.158636
C173	C	1.583383	0.204476	-0.000046
H174	H	1.563186	0.189829	-0.029358
H175	H	1.623734	0.225705	-0.021289
H176	H	1.623726	0.153912	0.050507
H177	H	0.833310	0.821425	-0.793803
C178	C	1.047057	-0.053623	-0.083309
H179	H	1.039249	-0.096860	-0.077620
H180	H	1.020087	-0.007109	-0.135510
H181	H	1.118907	-0.078902	-0.063711
H182	H	0.288648	1.073178	-0.323673
H183	H	0.932432	0.222964	0.454532
H184	H	1.216146	0.399323	-0.072002
C185	C	0.817707	0.844103	-0.678328
H186	H	0.785191	0.891364	-0.730533
H187	H	0.766030	0.847405	-0.654702
H188	H	0.864854	0.847398	-0.654700
C189	C	0.817724	0.408522	0.185612
H190	H	0.825529	0.451755	0.148055
H191	H	0.844698	0.361996	0.179941
H192	H	0.745875	0.433801	0.179932
H193	H	0.833338	0.281721	0.323778
C194	C	1.604470	0.272496	0.321618
H195	H	1.656165	0.229268	0.370522
H196	H	1.612260	0.247220	0.294698
H197	H	1.612300	0.319010	0.294685
H198	H	1.414327	0.399306	0.206174
H199	H	0.833331	0.281730	0.072006
C200	C	0.817727	-0.053643	0.083364
H201	H	0.785223	-0.025084	0.107010
H202	H	0.766042	-0.043030	0.049129
H203	H	0.864891	-0.114821	0.120908
C204	C	0.817706	0.082437	0.083346
H205	H	0.785175	0.053867	0.106969
H206	H	0.864840	0.071818	0.120893
H207	H	0.766022	0.143615	0.049093
C208	C	0.489593	1.082486	-0.488293
H209	H	0.422262	1.125710	-0.525827
H210	H	0.526646	1.107767	-0.493991
H211	H	0.526633	1.035970	-0.493983
H212	H	0.648564	0.955660	-0.350162
C213	C	0.817686	0.844115	-0.488292
H214	H	0.785147	0.891376	-0.483347
H215	H	0.864818	0.847419	-0.515219
H216	H	0.766008	0.847407	-0.515216
C217	C	1.417223	0.408531	0.083334
H218	H	1.489083	0.379941	0.106963
H219	H	1.384707	0.469705	0.049102
H220	H	1.384719	0.397891	0.120891
C221	C	0.260300	1.082461	-0.083286
H222	H	0.208639	1.125682	-0.077588
H223	H	0.252453	1.107745	-0.135489
H224	H	0.252474	1.035943	-0.063682
H225	H	1.031492	0.533473	-0.649821
C226	C	1.047075	0.510820	-0.321644
H227	H	1.039247	0.522182	-0.370554
H228	H	1.118921	0.478213	-0.294721
H229	H	1.020099	0.478217	-0.294722
C230	C	0.817722	0.408551	0.083336
H231	H	0.785191	0.379982	0.106963
H232	H	0.864861	0.397931	0.120881
H233	H	0.766038	0.469728	0.049084
H234	H	1.031495	0.533477	-0.532278
C235	C	0.817682	0.844122	-0.352233
H236	H	0.785168	0.891381	-0.404439
H237	H	0.766003	0.847428	-0.328609
H238	H	0.864828	0.847418	-0.328606
H239	H	1.031467	0.533496	-0.206174
