data_functionalizedCrystal
_audit_creation_method	'MofGen! by Chris Wilmer'
_symmetry_space_group_name_H-M	'P1'
_symmetry_Int_Tables_number	1
_symmetry_cell_setting	triclinic
loop_
_symmetry_equiv_pos_as_xyz
  x,y,z
_cell_length_a	6.817900
_cell_length_b	19.551823
_cell_length_c	9.514088
_cell_angle_alpha	92.277325
_cell_angle_beta	118.843545
_cell_angle_gamma	101.663376
loop_
_atom_site_label
_atom_site_type_symbol
_atom_site_fract_x
_atom_site_fract_y
_atom_site_fract_z
V1	V	-4.208673	-0.097915	-0.501504
O2	O	-4.201670	0.003431	-0.491184
O3	O	-4.150342	-0.192924	-0.498817
O4	O	-4.243536	-0.096969	-0.719888
O5	O	-4.107831	-0.093189	-0.268583
V6	V	-4.682799	-0.085727	-0.473554
O7	O	-4.490545	-0.124651	-0.562813
O8	O	-4.851125	-0.058991	-0.412245
O9	O	-4.517924	0.009281	-0.476241
O10	O	-4.807199	-0.187073	-0.483873
O11	O	-4.901039	-0.090454	-0.706475
O12	O	-4.424730	-0.086674	-0.255170
C13	C	-3.990233	-0.216068	-0.491097
C14	C	-4.024381	-0.293742	-0.490356
C15	C	-4.109110	-0.093666	-0.773093
C16	C	-4.218832	-0.093521	-0.951628
C17	C	-4.225252	-0.333807	-0.498039
C18	C	-4.257350	-0.406791	-0.497359
C19	C	-4.088544	-0.439705	-0.488963
C20	C	-3.887651	-0.399632	-0.481288
C21	C	-3.855569	-0.326650	-0.481985
C22	C	-3.936486	-0.545941	-0.387121
C23	C	-3.968567	-0.618921	-0.386415
C24	C	-4.187490	-0.664806	-0.486822
C25	C	-4.374347	-0.637701	-0.587916
C26	C	-4.342266	-0.564719	-0.588613
C27	C	-4.123310	-0.518842	-0.488208
C28	C	-4.423178	-0.784009	-0.493771
C29	C	-4.455275	-0.856996	-0.493101
C30	C	-4.085560	-0.849834	-0.477013
C31	C	-4.053479	-0.776850	-0.477700
C32	C	-4.222291	-0.743942	-0.486072
C33	C	-4.341374	0.032421	-0.483956
C34	C	-4.286467	0.110095	-0.484708
C35	C	-4.222495	-0.089979	-0.201957
C36	C	-4.092011	-0.090121	-0.023420
H37	H	-4.362723	-0.307018	-0.504867
H38	H	-4.420928	-0.439418	-0.503615
C39	C	-3.785703	-0.144596	-0.979638
C40	C	-3.832120	-0.086352	-0.922043
H41	H	-3.625253	-0.142272	-0.917043
H42	H	-3.827833	-0.143990	-1.090325
H43	H	-3.872518	-0.187028	-0.970580
H44	H	-3.745317	-0.043921	-0.931113
H45	H	-3.789964	-0.086953	-0.811328
C46	C	-4.511662	-0.696337	-0.365092
C47	C	-4.608731	-0.747829	-0.502987
H48	H	-4.626220	-0.674005	-0.370780
H49	H	-4.387444	-0.662033	-0.360616
H50	H	-4.455525	-0.718055	-0.270362
H51	H	-4.664853	-0.726109	-0.597717
H52	H	-4.732990	-0.782137	-0.507479
C53	C	-4.690311	-0.875806	-0.367781
C54	C	-4.676090	-0.901034	-0.501538
H55	H	-4.826628	-0.902996	-0.372985
H56	H	-4.695352	-0.827636	-0.369402
H57	H	-4.558608	-0.879688	-0.270241
H58	H	-4.807784	-0.897147	-0.599078
H59	H	-4.671069	-0.949216	-0.499932
C60	C	-4.746576	-0.590605	-0.787740
C61	C	-4.547636	-0.534926	-0.699746
H62	H	-4.873355	-0.572211	-0.856359
H63	H	-4.779955	-0.615081	-0.714478
H64	H	-4.721342	-0.622280	-0.852080
H65	H	-4.572865	-0.503254	-0.635396
H66	H	-4.514253	-0.510438	-0.773017
H67	H	-4.411364	-0.096322	-1.026757
H68	H	-3.948120	-0.876633	-0.470187
C69	C	-3.675717	-0.620070	-0.113018
C70	C	-3.763169	-0.648706	-0.275289
H71	H	-3.548897	-0.638453	-0.044415
H72	H	-3.793605	-0.632296	-0.085489
H73	H	-3.625303	-0.570039	-0.099099
H74	H	-3.813599	-0.698737	-0.289211
H75	H	-3.645258	-0.636484	-0.302827
C76	C	-3.492497	-0.406241	-0.328581
C77	C	-3.702086	-0.435807	-0.472053
H78	H	-3.377936	-0.428572	-0.322892
H79	H	-3.512728	-0.413060	-0.237647
H80	H	-3.444672	-0.357042	-0.327919
H81	H	-3.749921	-0.485005	-0.472710
H82	H	-3.681857	-0.428995	-0.563011
C83	C	-3.708195	-0.447665	-0.169570
C84	C	-3.695835	-0.495503	-0.276745
H85	H	-3.559636	-0.416525	-0.101443
H86	H	-3.758416	-0.472931	-0.104684
H87	H	-3.814895	-0.421087	-0.229905
H88	H	-3.589147	-0.522085	-0.216410
H89	H	-3.645584	-0.470235	-0.341639
C90	C	-3.515115	-0.230672	-0.334650
C91	C	-3.634745	-0.282604	-0.473521
H92	H	-3.378792	-0.203477	-0.329430
H93	H	-3.474335	-0.252682	-0.240595
H94	H	-3.611082	-0.200632	-0.339762
H95	H	-3.538784	-0.312648	-0.468404
H96	H	-3.675520	-0.260594	-0.567600
H97	H	-4.552517	-0.675071	-0.669899
H98	H	-3.889903	-0.744228	-0.471433
