data_functionalizedCrystal
_audit_creation_method	'MofGen! by Chris Wilmer'
_symmetry_space_group_name_H-M	'P1'
_symmetry_Int_Tables_number	1
_symmetry_cell_setting	triclinic
loop_
_symmetry_equiv_pos_as_xyz
  x,y,z
_cell_length_a	13.032891
_cell_length_b	13.032721
_cell_length_c	12.759393
_cell_angle_alpha	97.149226
_cell_angle_beta	82.805360
_cell_angle_gamma	90.903621
loop_
_atom_site_label
_atom_site_type_symbol
_atom_site_fract_x
_atom_site_fract_y
_atom_site_fract_z
Zn1	Zn	1.520301	-0.609320	-0.865597
Zn2	Zn	1.498332	-0.781305	-0.709063
Zn3	Zn	1.348305	-0.587498	-0.665220
Zn4	Zn	1.326450	-0.759369	-0.859988
O5	O	1.423347	-0.684373	-0.774967
O6	O	1.661301	-0.650446	-0.865528
O7	O	1.478382	-0.755644	-0.556226
O8	O	1.389462	-0.446488	-0.675799
O9	O	1.645160	-0.776803	-0.750523
O10	O	1.515827	-0.462520	-0.823015
O11	O	1.368158	-0.613255	-0.524015
O12	O	1.201492	-0.591985	-0.670360
O13	O	1.352213	-0.739417	-1.007753
O14	O	1.185435	-0.718258	-0.813456
O15	O	1.494635	-0.629176	-1.011874
O16	O	1.457190	-0.922300	-0.745084
O17	O	1.330910	-0.906184	-0.855968
C18	C	1.156148	-0.650374	-0.736542
C19	C	1.041836	-0.635854	-0.720132
C20	C	0.864795	-0.676950	-0.766581
C21	C	0.982941	-0.691962	-0.783540
C22	C	1.389322	-0.951559	-0.804702
C23	C	1.374861	-1.065874	-0.817472
C24	C	1.430949	-1.124785	-0.768357
C25	C	1.416004	-1.242936	-0.781554
C26	C	1.691589	-0.718506	-0.813542
C27	C	1.805898	-0.733051	-0.829981
C28	C	1.423437	-0.684284	-1.049000
C29	C	1.423475	-0.684246	-1.165777
C30	C	1.457533	-0.416148	-0.745142
C31	C	1.472101	-0.301846	-0.732433
C32	C	1.497640	-0.626834	-1.222786
C33	C	1.497663	-0.626792	-1.332508
C34	C	1.349352	-0.741583	-1.328203
C35	C	1.349325	-0.741618	-1.218481
C36	C	1.549904	-0.510140	-1.474260
C37	C	1.624084	-0.452739	-1.531276
C38	C	1.726435	-0.449733	-1.508350
C39	C	1.754625	-0.504145	-1.428414
C40	C	1.680450	-0.561555	-1.371405
C41	C	1.578086	-0.564540	-1.394326
C42	C	1.297095	-0.858273	-1.076729
C43	C	1.222923	-0.915689	-1.019719
C44	C	1.120568	-0.918705	-1.042644
C45	C	1.092379	-0.864311	-1.122586
C46	C	1.166551	-0.806895	-1.179596
C47	C	1.268905	-0.803877	-1.156663
C48	C	1.423327	-0.684395	-0.502000
C49	C	1.423524	-0.684168	-0.385220
H50	H	1.019982	-0.751106	-0.850384
H51	H	1.315780	-1.102908	-0.869295
H52	H	1.380438	-0.855815	-1.058049
C53	C	0.855930	-0.812961	-0.920260
H54	H	0.928774	-0.812577	-0.919807
H55	H	0.840319	-0.795796	-0.986719
H56	H	0.829571	-0.879824	-0.909936
H57	H	1.356919	-1.279966	-0.833381
C58	C	1.510772	-1.074771	-0.698354
H59	H	1.544028	-1.127053	-0.669257
H60	H	1.476712	-1.027925	-0.642252
H61	H	1.560837	-1.038493	-0.740376
C62	C	0.814761	-0.597053	-0.676289
H63	H	0.741916	-0.597451	-0.676730
H64	H	0.841115	-0.530189	-0.686587
H65	H	0.830374	-0.614244	-0.609834
H66	H	1.004798	-0.576700	-0.653297
H67	H	1.531193	-1.264818	-0.680615
C68	C	1.579189	-0.563713	-1.164811
H69	H	1.623355	-0.529506	-1.214480
H70	H	1.618978	-0.608759	-1.132826
H71	H	1.545538	-0.513910	-1.111369
H72	H	1.703403	-0.605861	-1.306327
H73	H	1.837974	-0.501701	-1.409763
H74	H	1.786834	-0.402994	-1.554780
C75	C	1.593074	-0.392880	-1.619192
H76	H	1.521486	-0.402874	-1.624669
H77	H	1.632170	-0.417536	-1.685192
H78	H	1.606425	-0.321294	-1.601941
H79	H	1.288983	-0.788296	-1.371128
C80	C	1.437313	-0.513439	-1.499472
H81	H	1.397168	-0.555410	-1.454063
H82	H	1.435529	-0.541593	-1.571563
H83	H	1.409774	-0.445343	-1.488325
H84	H	1.143592	-0.762604	-1.244688
C85	C	0.979790	-0.867624	-1.147808
H86	H	0.939652	-0.909601	-1.102400
H87	H	0.978011	-0.895781	-1.219899
H88	H	0.952240	-0.799533	-1.136662
C89	C	1.038981	-0.981866	-0.979937
H90	H	1.070424	-1.013833	-0.929042
H91	H	1.010978	-1.033481	-1.027655
H92	H	0.985213	-0.937238	-0.944410
C93	C	1.253929	-0.975523	-0.931785
H94	H	1.325509	-0.965494	-0.926283
H95	H	1.240598	-1.047109	-0.949021
H96	H	1.214816	-0.950859	-0.865790
