data_functionalizedCrystal
_audit_creation_method	'MofGen! by Chris Wilmer'
_symmetry_space_group_name_H-M	'P1'
_symmetry_Int_Tables_number	1
_symmetry_cell_setting	triclinic
loop_
_symmetry_equiv_pos_as_xyz
  x,y,z
_cell_length_a	6.817900
_cell_length_b	9.109307
_cell_length_c	14.125465
_cell_angle_alpha	100.871692
_cell_angle_beta	100.398878
_cell_angle_gamma	111.764999
loop_
_atom_site_label
_atom_site_type_symbol
_atom_site_fract_x
_atom_site_fract_y
_atom_site_fract_z
V1	V	-4.044302	-0.223872	-0.318463
V2	V	-3.544302	0.276128	0.181537
O3	O	-3.976621	0.012197	-0.293259
O4	O	-3.476621	0.512197	0.206741
O5	O	-4.048462	-0.445285	-0.334695
O6	O	-3.548462	0.054715	0.165305
O7	O	-3.979480	-0.219797	-0.448956
O8	O	-3.479480	0.280203	0.051044
O9	O	-4.046081	-0.214852	-0.178206
O10	O	-3.546081	0.285148	0.321794
V11	V	-4.523248	-0.195710	-0.299451
V12	V	-4.023248	0.304290	0.200549
O13	O	-4.315602	-0.285648	-0.360168
O14	O	-3.815602	0.214352	0.139832
O15	O	-4.702145	-0.133934	-0.257746
O16	O	-4.202145	0.366066	0.242254
O17	O	-4.295881	0.025703	-0.283219
O18	O	-3.795881	0.525703	0.216781
O19	O	-4.708325	-0.431779	-0.324655
O20	O	-4.208325	0.068221	0.175345
O21	O	-4.638866	-0.204730	-0.439707
O22	O	-4.138866	0.295270	0.060293
O23	O	-4.364863	-0.199785	-0.168957
O24	O	-3.864863	0.300215	0.331043
C25	C	-3.906780	-0.499280	-0.334421
C26	C	-3.406780	0.000720	0.165579
C27	C	-3.991358	-0.680284	-0.348562
C28	C	-3.491358	-0.180284	0.151438
C29	C	-3.818786	-0.211646	-0.480172
C30	C	-3.318786	0.288354	0.019828
C31	C	-3.847417	-0.209779	-0.586972
C32	C	-3.347417	0.290221	-0.086972
C33	C	-3.899897	-0.206356	-0.782512
C34	C	-3.399897	0.293644	-0.282512
C35	C	-4.087020	-0.213223	-0.835401
C36	C	-3.587020	0.286777	-0.335401
C37	C	-4.116223	-0.211318	-0.944206
C38	C	-3.616223	0.288682	-0.444206
C39	C	-3.870687	-0.208260	-0.673697
C40	C	-3.370687	0.291740	-0.173697
C41	C	-4.100907	0.079690	-0.283490
C42	C	-3.600907	0.579690	0.216510
C43	C	-3.995567	0.260692	-0.269356
C44	C	-3.495567	0.760692	0.230644
C45	C	-4.188902	-0.207941	-0.137737
C46	C	-3.688902	0.292059	0.362263
C47	C	-4.139506	-0.209800	-0.030935
C48	C	-3.639506	0.290200	0.469065
H49	H	-4.052436	-0.768237	-0.427220
H50	H	-3.552436	-0.268237	0.072780
H51	H	-4.225298	-0.220550	-0.798967
H52	H	-3.725298	0.279450	-0.298967
C53	C	-3.913098	-0.620521	-0.163100
C54	C	-3.413098	-0.120521	0.336900
H55	H	-3.927090	-0.681820	-0.115309
H56	H	-3.427090	-0.181820	0.384691
H57	H	-3.763263	-0.547908	-0.150699
H58	H	-3.263263	-0.047908	0.349301
H59	H	-3.998103	-0.558561	-0.157735
H60	H	-3.498103	-0.058561	0.342265
H61	H	-3.761641	-0.199048	-0.818947
H62	H	-3.261641	0.300952	-0.318947
