data_functionalizedCrystal
_audit_creation_method	'MofGen! by Chris Wilmer'
_symmetry_space_group_name_H-M	'P1'
_symmetry_Int_Tables_number	1
_symmetry_cell_setting	triclinic
loop_
_symmetry_equiv_pos_as_xyz
  x,y,z
_cell_length_a	12.594509
_cell_length_b	18.101398
_cell_length_c	18.101395
_cell_angle_alpha	90.026371
_cell_angle_beta	90.030520
_cell_angle_gamma	90.026340
loop_
_atom_site_label
_atom_site_type_symbol
_atom_site_fract_x
_atom_site_fract_y
_atom_site_fract_z
Zn1	Zn	-0.601985	-1.132136	0.294901
Zn2	Zn	-0.424000	-1.132027	0.418756
Zn3	Zn	-0.423999	-1.008290	0.294923
Zn4	Zn	-0.601914	-1.008245	0.418695
O5	O	-0.512974	-1.070175	0.356819
O6	O	-0.578405	-1.235754	0.311347
O7	O	-0.275054	-1.115587	0.402364
O8	O	-0.447638	-1.024783	0.191287
O9	O	-0.447640	-1.235675	0.402343
O10	O	-0.578404	-1.115772	0.191271
O11	O	-0.275053	-1.024678	0.311384
O12	O	-0.447569	-0.904651	0.311325
O13	O	-0.750870	-1.024706	0.402238
O14	O	-0.578283	-0.904619	0.402260
O15	O	-0.750922	-1.115728	0.311288
O16	O	-0.447571	-1.115543	0.522381
O17	O	-0.578284	-1.024601	0.522336
C18	C	-0.512919	-0.877764	0.356788
C19	C	-0.512920	-0.795450	0.356793
C20	C	-0.512943	-1.070076	0.549229
C21	C	-0.512965	-1.070101	0.631543
C22	C	-0.790596	-1.070224	0.356754
C23	C	-0.908901	-1.070245	0.356726
C24	C	-0.978126	-1.020754	0.406166
C25	C	-1.048924	-1.088324	0.424266
C26	C	-1.048902	-1.002729	0.338581
C27	C	-0.978141	-1.137850	0.374862
C28	C	-0.978113	-1.052210	0.289145
C29	C	-1.048879	-1.119826	0.307220
C30	C	-0.236433	-1.070168	0.356830
C31	C	-0.118129	-1.070290	0.356649
C32	C	-0.513031	-1.263337	0.356849
C33	C	-0.513055	-1.345651	0.356862
C34	C	-0.513010	-0.496359	0.356840
C35	C	-0.431170	-0.527680	0.299340
C36	C	-0.430820	-0.613298	0.299494
C37	C	-0.512965	-0.644742	0.356816
C38	C	-0.482320	-0.613623	0.434829
C39	C	-0.481751	-0.527978	0.434510
C40	C	-0.625688	-0.527976	0.337005
C41	C	-0.625073	-0.613627	0.335267
C42	C	-0.512942	-0.728601	0.356808
C43	C	-0.513031	-0.412500	0.356853
C44	C	-0.513029	-1.070294	0.163657
C45	C	-0.513053	-1.070345	0.081342
C46	C	-0.513023	-1.070263	0.930634
C47	C	-0.595468	-1.013178	0.899311
C48	C	-0.595210	-1.012907	0.813693
C49	C	-0.512995	-1.070183	0.782252
C50	C	-0.400816	-1.049051	0.813406
C51	C	-0.401309	-1.048683	0.899051
C52	C	-0.541769	-1.148606	0.898983
C53	C	-0.544229	-1.148145	0.813332
C54	C	-0.512973	-1.070139	0.698392
C55	C	-0.513038	-1.070306	1.014494
H56	H	-0.947061	-0.978934	0.448041
C57	C	-0.569563	-0.934445	0.786094
N58	N	-0.550270	-0.875340	0.765307
C59	C	-0.460653	-1.206064	0.926352
N60	N	-0.399554	-1.249336	0.946972
C61	C	-0.318025	-0.640931	0.317214
N62	N	-0.233063	-0.661743	0.330563
H63	H	-0.947188	-1.194984	0.390241
C64	C	-0.368421	-0.971315	0.926125
N65	N	-0.343653	-0.913039	0.946513
H66	H	-0.538761	-0.507257	0.478802
C67	C	-0.315561	-1.103449	0.785890
N68	N	-0.251348	-1.144421	0.765161
C69	C	-1.090949	-1.108964	0.501430
N70	N	-1.122600	-1.124505	0.559550
C71	C	-0.315483	-1.102408	0.927049
N72	N	-0.250834	-1.142868	0.948134
C73	C	-1.090587	-1.176457	0.250691
N74	N	-1.122003	-1.219113	0.208117
H75	H	-0.686667	-0.507721	0.378885
H76	H	-0.946986	-1.036911	0.232043
C77	C	-0.570059	-0.935203	0.928458
N78	N	-0.550915	-0.876472	0.950409
C79	C	-0.456755	-0.641726	0.221339
N80	N	-0.476284	-0.663134	0.162468
C81	C	-1.090889	-0.925566	0.317888
N82	N	-1.122509	-0.867446	0.302307
H83	H	-0.376030	-0.992389	0.792017
H84	H	-0.626787	-1.164081	0.792967
C85	C	-0.456828	-0.499888	0.220947
N86	N	-0.476155	-0.478950	0.161899
H87	H	-0.348162	-0.506129	0.312305
H88	H	-0.678917	-1.026268	0.919857
H89	H	-0.540063	-0.633989	0.478819
H90	H	-0.399378	-0.507964	0.451330
C91	C	-0.372234	-0.642542	0.457945
N92	N	-0.289313	-0.664322	0.475352
C93	C	-0.650400	-1.174631	0.928086
N94	N	-0.732226	-1.194224	0.950007
C95	C	-0.663325	-0.498842	0.261486
N96	N	-0.691660	-0.476900	0.204600
H97	H	-0.648181	-0.633972	0.277858
C98	C	-0.711866	-0.642540	0.387726
N99	N	-0.777236	-0.664315	0.427246
C100	C	-0.707583	-1.030765	0.785232
N101	N	-0.792228	-1.044214	0.763799
C102	C	-0.469017	-1.208645	0.784416
N103	N	-0.412357	-1.254212	0.762638
