data_functionalizedCrystal
_audit_creation_method	'MofGen! by Chris Wilmer'
_symmetry_space_group_name_H-M	'P1'
_symmetry_Int_Tables_number	1
_symmetry_cell_setting	triclinic
loop_
_symmetry_equiv_pos_as_xyz
  x,y,z
_cell_length_a	17.699083
_cell_length_b	17.699104
_cell_length_c	16.776229
_cell_angle_alpha	89.992410
_cell_angle_beta	89.998886
_cell_angle_gamma	83.287266
loop_
_atom_site_label
_atom_site_type_symbol
_atom_site_fract_x
_atom_site_fract_y
_atom_site_fract_z
O1	O	1.004086	0.095712	-0.066178
O2	O	1.337419	0.429045	0.267155
O3	O	1.670752	0.762379	0.600489
O4	O	0.783708	0.108164	-0.066204
O5	O	1.117042	0.441498	0.267129
O6	O	1.450375	0.774831	0.600462
O7	O	0.900115	-0.008250	-0.066183
O8	O	1.233448	0.325083	0.267150
O9	O	1.566782	0.658417	0.600483
O10	O	0.887679	0.212126	-0.066199
O11	O	1.221012	0.545460	0.267134
O12	O	1.554346	0.878793	0.600468
O13	O	0.900099	-0.008257	0.066393
O14	O	1.233433	0.325076	0.399726
O15	O	1.566766	0.658410	0.733060
O16	O	0.783693	0.108157	0.066372
O17	O	1.117026	0.441491	0.399705
O18	O	1.450359	0.774824	0.733039
O19	O	1.004070	0.095705	0.066398
O20	O	1.337404	0.429038	0.399732
O21	O	1.670737	0.762372	0.733065
Zn22	Zn	0.893879	0.101930	0.087435
Zn23	Zn	1.227212	0.435263	0.420768
Zn24	Zn	1.560546	0.768597	0.754101
Zn25	Zn	0.893899	0.101939	-0.087241
Zn26	Zn	1.227233	0.435273	0.246093
Zn27	Zn	1.560566	0.768606	0.579426
O28	O	0.887664	0.212119	0.066377
O29	O	1.220997	0.545453	0.399711
O30	O	1.554330	0.878786	0.733044
C31	C	0.755503	0.107715	0.000081
C32	C	1.088837	0.441048	0.333414
C33	C	1.422170	0.774381	0.666747
C34	C	0.671485	0.106376	0.000071
C35	C	1.004819	0.439709	0.333404
C36	C	1.338152	0.773043	0.666737
C37	C	0.622869	0.174709	0.000066
C38	C	0.956203	0.508042	0.333399
C39	C	1.289536	0.841375	0.666733
C40	C	0.543926	0.173446	0.000076
C41	C	0.877259	0.506780	0.333410
C42	C	1.210593	0.840113	0.666743
C43	C	0.513600	0.103851	0.000086
C44	C	0.846933	0.437184	0.333419
C45	C	1.180267	0.770517	0.666752
C46	C	0.562222	0.035513	0.000093
C47	C	0.895555	0.368846	0.333426
C48	C	1.228889	0.702179	0.666759
C49	C	0.641164	0.036776	0.000088
C50	C	0.974497	0.370109	0.333421
C51	C	1.307831	0.703442	0.666755
C52	C	0.243859	0.030418	0.000113
C53	C	0.577192	0.363751	0.333446
C54	C	0.910525	0.697084	0.666780
C55	C	0.164911	0.029160	0.000115
C56	C	0.498244	0.362493	0.333449
C57	C	0.831577	0.695826	0.666782
C58	C	0.146621	0.167088	0.000101
C59	C	0.479954	0.500422	0.333435
C60	C	0.813287	0.833755	0.666768
C61	C	0.225563	0.168351	0.000097
C62	C	0.558896	0.501685	0.333430
C63	C	0.892229	0.835018	0.666763
C64	C	0.274178	0.100014	0.000108
C65	C	0.607511	0.433347	0.333441
C66	C	0.940844	0.766680	0.666774
C67	C	0.359777	0.101383	0.000098
C68	C	0.693110	0.434717	0.333431
C69	C	1.026444	0.768050	0.666765
C70	C	0.428002	0.102480	0.000090
C71	C	0.761336	0.435814	0.333423
C72	C	1.094669	0.769147	0.666757
C73	C	0.899659	-0.036450	0.000105
C74	C	1.232992	0.296883	0.333438
C75	C	1.566326	0.630216	0.666772
C76	C	0.898314	-0.120467	0.000105
C77	C	1.231647	0.212866	0.333438
C78	C	1.564981	0.546199	0.666772
C79	C	1.032275	0.096155	0.000112
C80	C	1.365608	0.429488	0.333445
C81	C	1.698942	0.762821	0.666778
C82	C	1.116293	0.097493	0.000116
C83	C	1.449626	0.430827	0.333450
C84	C	1.782960	0.764160	0.666783
C85	C	0.959058	-0.645338	0.000090
C86	C	1.292391	-0.312005	0.333423
C87	C	1.625725	0.021328	0.666756
C88	C	0.960317	-0.566395	0.000097
C89	C	1.293650	-0.233061	0.333430
C90	C	1.626984	0.100272	0.666764
C91	C	0.891982	-0.517777	0.000091
C92	C	1.225315	-0.184444	0.333424
C93	C	1.558648	0.148890	0.666757
C94	C	0.822383	-0.548107	0.000085
C95	C	1.155716	-0.214774	0.333418
C96	C	1.489050	0.118560	0.666752
C97	C	0.821125	-0.627049	0.000084
C98	C	1.154458	-0.293716	0.333417
C99	C	1.487791	0.039617	0.666750
C100	C	0.827456	-0.229741	0.000092
C101	C	1.160789	0.103592	0.333426
C102	C	1.494123	0.436926	0.666759
C103	C	0.828720	-0.150794	0.000092
C104	C	1.162053	0.182540	0.333425
C105	C	1.495386	0.515873	0.666758
C106	C	0.966648	-0.169086	0.000106
C107	C	1.299982	0.164247	0.333439
C108	C	1.633315	0.497580	0.666772
C109	C	0.965390	-0.248029	0.000104
C110	C	1.298723	0.085305	0.333438
C111	C	1.632057	0.418638	0.666771
C112	C	0.895792	-0.278352	0.000103
C113	C	1.229125	0.054982	0.333436
C114	C	1.562458	0.388315	0.666770
C115	C	0.894427	-0.363951	0.000097
C116	C	1.227761	-0.030618	0.333430
C117	C	1.561094	0.302715	0.666763
C118	C	0.893345	-0.432179	0.000091
C119	C	1.226679	-0.098845	0.333425
C120	C	1.560012	0.234488	0.666758
C121	C	0.888120	0.240319	0.000087
C122	C	1.221453	0.573653	0.333421
C123	C	1.554786	0.906986	0.666754
C124	C	0.889464	0.324337	0.000082
C125	C	1.222798	0.657670	0.333415
C126	C	1.556131	0.991003	0.666748
N127	N	0.893871	0.101923	0.206646
N128	N	1.227204	0.435256	0.539979
N129	N	1.560537	0.768590	0.873312
N130	N	0.893914	0.101940	-0.206452
N131	N	1.227247	0.435274	0.126881
N132	N	1.560580	0.768607	0.460215
C133	C	0.945431	0.050396	0.248372
C134	C	1.278765	0.383729	0.581706
C135	C	1.612098	0.717063	0.915039
C136	C	0.945435	0.050395	0.331824
C137	C	1.278769	0.383729	0.665158
C138	C	1.612102	0.717062	0.998491
C139	C	0.893882	0.101926	0.373549
C140	C	1.227215	0.435259	0.706882
C141	C	1.560549	0.768593	1.040215
C142	C	0.842316	0.153456	0.331816
C143	C	1.175649	0.486789	0.665150
C144	C	1.508983	0.820122	0.998483
C145	C	0.842309	0.153452	0.248366
C146	C	1.175642	0.486785	0.581699
C147	C	1.508976	0.820119	0.915032
C148	C	0.842343	0.153470	0.668364
C149	C	1.175677	0.486804	1.001697
C150	C	1.509010	0.820137	1.335030
C151	C	0.842356	0.153472	0.751820
C152	C	1.175690	0.486805	1.085154
C153	C	1.509023	0.820138	1.418487
C154	C	0.945470	0.050414	0.751822
C155	C	1.278803	0.383747	1.085156
C156	C	1.612137	0.717080	1.418489
C157	C	0.945463	0.050410	0.668372
C158	C	1.278796	0.383743	1.001705
C159	C	1.612129	0.717077	1.335038
C160	C	0.893894	0.101937	0.626647
C161	C	1.227228	0.435270	0.959980
C162	C	1.560561	0.768603	1.293313
C163	C	0.893890	0.101936	0.536158
C164	C	1.227223	0.435269	0.869492
C165	C	1.560556	0.768602	1.202825
C166	C	0.893890	0.101931	0.464036
C167	C	1.227223	0.435264	0.797369
C168	C	1.560557	0.768598	1.130702
H169	H	0.250249	0.225023	0.000085
H170	H	0.583583	0.558357	0.333419
H171	H	0.916916	0.891690	0.666752
O172	O	1.001058	-0.005175	0.623366
O173	O	1.334392	0.328158	0.956699
O174	O	1.667725	0.661491	1.290033
H175	H	1.060045	0.004383	0.639371
H176	H	1.393378	0.337717	0.972705
H177	H	1.726711	0.671050	1.306038
O178	O	0.746064	-0.659763	0.000072
O179	O	1.079397	-0.326430	0.333405
O180	O	1.412731	0.006903	0.666739
H181	H	0.698757	-0.612695	0.000060
H182	H	1.032090	-0.279362	0.333394
H183	H	1.365423	0.053971	0.666727
O184	O	1.039097	-0.300462	0.000112
O185	O	1.372430	0.032871	0.333446
O186	O	1.705764	0.366204	0.666779
H187	H	1.026530	-0.360451	0.000104
H188	H	1.359863	-0.027117	0.333437
H189	H	1.693196	0.306216	0.666771
H190	H	0.800322	0.195410	0.214393
H191	H	1.133655	0.528743	0.547726
H192	H	1.466989	0.862076	0.881060
H193	H	0.987415	0.008437	0.214406
H194	H	1.320748	0.341770	0.547739
H195	H	1.654082	0.675104	0.881072
O196	O	1.001092	-0.005169	0.796822
O197	O	1.334425	0.328164	1.130155
O198	O	1.667758	0.661497	1.463488
H199	H	0.969309	-0.041925	0.834846
H200	H	1.302642	0.291409	1.168180
H201	H	1.635976	0.624742	1.501513
H202	H	0.800356	0.195426	0.634398
H203	H	1.133689	0.528760	0.967731
H204	H	1.467023	0.862093	1.301064
H205	H	0.987419	0.008438	0.365798
H206	H	1.320753	0.341771	0.699131
H207	H	1.654086	0.675104	1.032464
O208	O	0.094187	0.240800	0.000106
O209	O	0.427520	0.574134	0.333440
O210	O	0.760854	0.907467	0.666773
H211	H	0.034198	0.228235	0.000123
H212	H	0.367531	0.561568	0.333457
H213	H	0.700865	0.894901	0.666790
H214	H	1.014705	-0.684918	0.000088
H215	H	1.348038	-0.351585	0.333422
H216	H	1.681371	-0.018251	0.666755
H217	H	1.016987	-0.541708	0.000104
H218	H	1.350320	-0.208375	0.333438
H219	H	1.683654	0.124958	0.666771
O220	O	0.786762	0.209065	0.796828
O221	O	1.120095	0.542398	1.130161
O222	O	1.453428	0.875731	1.463495
H223	H	0.750902	0.244895	0.753795
H224	H	1.084235	0.578228	1.087128
H225	H	1.417568	0.911562	1.420462
H226	H	0.680747	-0.018868	0.000091
H227	H	1.014080	0.314465	0.333425
H228	H	1.347414	0.647799	0.666758
O229	O	0.786713	0.209041	0.376813
O230	O	1.120046	0.542374	0.710146
O231	O	1.453379	0.875707	1.043480
H232	H	0.795385	0.200394	0.441852
H233	H	1.128719	0.533728	0.775186
H234	H	1.462052	0.867061	1.108519
O235	O	1.041720	-0.136383	0.000117
O236	O	1.375053	0.196950	0.333451
O237	O	1.708387	0.530283	0.666784
H238	H	1.031119	-0.073322	0.000127
H239	H	1.364453	0.260011	0.333460
H240	H	1.697786	0.593345	0.666793
H241	H	0.647554	0.231382	0.000058
H242	H	0.980887	0.564715	0.333391
H243	H	1.314221	0.898048	0.666725
O244	O	0.132197	-0.045907	0.000139
O245	O	0.465530	0.287426	0.333472
O246	O	0.798864	0.620760	0.666806
H247	H	0.179264	-0.093215	0.000157
H248	H	0.512597	0.240118	0.333490
H249	H	0.845931	0.573451	0.666823
O250	O	0.755013	-0.098351	0.000099
O251	O	1.088346	0.234982	0.333432
O252	O	1.421679	0.568316	0.666765
H253	H	0.706404	-0.132698	0.000109
H254	H	1.039738	0.200635	0.333442
H255	H	1.373071	0.533969	0.666775
O256	O	0.491493	0.247151	0.000070
O257	O	0.824827	0.580485	0.333403
O258	O	1.158160	0.913818	0.666737
H259	H	0.431505	0.234584	0.000086
H260	H	0.764838	0.567917	0.333419
H261	H	1.098172	0.901250	0.666752
O262	O	0.296289	-0.043285	0.000125
O263	O	0.629623	0.290048	0.333458
O264	O	0.962956	0.623381	0.666791
H265	H	0.261937	-0.091889	0.000125
H266	H	0.595270	0.241444	0.333458
H267	H	0.928603	0.574778	0.666792
O268	O	0.529520	-0.039555	0.000106
O269	O	0.862853	0.293779	0.333439
O270	O	1.196186	0.627112	0.666773
H271	H	0.466458	-0.028955	0.000101
H272	H	0.799792	0.304379	0.333434
H273	H	1.133125	0.637712	0.666768
H274	H	0.770785	-0.254420	0.000082
H275	H	1.104118	0.078914	0.333415
H276	H	1.437452	0.412247	0.666748
H277	H	0.766743	-0.508516	0.000085
H278	H	1.100077	-0.175183	0.333418
H279	H	1.433410	0.158151	0.666751
