data_functionalizedCrystal
_audit_creation_method	'MofGen! by Chris Wilmer'
_symmetry_space_group_name_H-M	'P1'
_symmetry_Int_Tables_number	1
_symmetry_cell_setting	triclinic
loop_
_symmetry_equiv_pos_as_xyz
  x,y,z
_cell_length_a	15.538191
_cell_length_b	14.519709
_cell_length_c	14.750779
_cell_angle_alpha	77.332886
_cell_angle_beta	97.572172
_cell_angle_gamma	65.476119
loop_
_atom_site_label
_atom_site_type_symbol
_atom_site_fract_x
_atom_site_fract_y
_atom_site_fract_z
O1	O	1.229003	-0.272518	-0.079831
O2	O	0.954923	-0.166092	-0.079833
O3	O	1.099232	-0.355991	-0.079824
O4	O	1.084694	-0.082619	-0.079841
O5	O	1.140026	-0.409668	0.079829
O6	O	0.995717	-0.219769	0.079820
O7	O	1.269797	-0.326196	0.079821
Zn8	Zn	1.139234	-0.281505	0.105169
Zn9	Zn	1.085486	-0.210782	-0.105181
O10	O	1.125488	-0.136297	0.079812
C11	C	0.940243	-0.181796	-0.000007
C12	C	0.835725	-0.148628	-0.000007
C13	C	0.547381	-0.478139	-0.000001
C14	C	0.449167	-0.446949	-0.000004
C15	C	0.427017	-0.271514	-0.000015
C16	C	0.525232	-0.302691	-0.000007
C17	C	0.585407	-0.406004	-0.000002
C18	C	0.563258	-0.230557	-0.000008
C19	C	0.661464	-0.261730	-0.000005
C20	C	0.721643	-0.365037	-0.000003
C21	C	0.683612	-0.437177	0.000001
C22	C	0.503080	-0.127242	-0.000020
C23	C	0.541106	-0.055108	-0.000021
C24	C	0.639315	-0.086282	-0.000012
C25	C	0.699494	-0.189590	-0.000009
C26	C	0.677346	-0.014142	-0.000015
C27	C	0.775551	-0.045315	-0.000013
C28	C	0.797700	-0.220763	-0.000006
C29	C	1.118952	-0.416961	0.000003
C30	C	1.116922	-0.518660	0.000004
C31	C	1.109444	-0.891034	-0.000021
C32	C	1.111521	-0.787427	-0.000014
C33	C	1.113183	-0.704851	-0.000008
C34	C	1.115260	-0.601236	-0.000003
C35	C	1.284476	-0.310491	-0.000007
C36	C	1.388993	-0.343656	-0.000013
C37	C	1.105768	-0.075325	-0.000017
C38	C	1.107796	0.026375	-0.000024
N39	N	1.175923	-0.329774	0.248727
N40	N	1.048805	-0.162523	-0.248739
C41	C	0.946338	-0.027755	0.600530
C42	C	0.972054	-0.061575	0.701031
C43	C	1.099866	-0.229693	0.701002
C44	C	1.074158	-0.195889	0.600499
C45	C	0.997394	-0.094918	0.550271
C46	C	1.125213	-0.263052	0.550240
C47	C	1.099510	-0.229248	0.449746
C48	C	1.022751	-0.128281	0.399511
C49	C	0.971690	-0.061114	0.449777
C50	C	1.201982	-0.364019	0.600470
C51	C	1.253037	-0.431183	0.550211
C52	C	1.227330	-0.397382	0.449715
C53	C	1.150571	-0.296415	0.399480
C54	C	1.278390	-0.464549	0.399449
C55	C	1.252687	-0.430745	0.298955
C56	C	1.124867	-0.262611	0.298986
H57	H	0.378009	-0.187395	-0.000023
H58	H	0.883822	0.054461	0.559633
H59	H	0.930472	-0.006872	0.741947
C60	C	0.863904	-0.334408	0.000010
H61	H	0.927838	-0.342640	0.000018
H62	H	0.838142	-0.346636	-0.055659
H63	H	0.866589	-0.384059	0.055697
H64	H	1.162371	-0.311903	0.741909
C65	C	0.749817	-0.550822	0.000017
H66	H	0.813751	-0.559054	0.000025
H67	H	0.724054	-0.563050	-0.055651
H68	H	0.752502	-0.600474	0.055705
C69	C	1.230261	-0.401208	0.711012
H70	H	1.283299	-0.470954	0.733727
H71	H	1.175893	-0.401374	0.733765
H72	H	1.249057	-0.354243	0.733739
C73	C	0.474912	0.058527	-0.000021
H74	H	0.410979	0.066761	-0.000016
H75	H	0.472231	0.108187	-0.055692
H76	H	0.500685	0.070730	0.055664
C77	C	0.613578	-0.591780	0.000001
H78	H	0.576867	-0.630279	-0.000005
H79	H	0.666578	-0.626308	0.055672
H80	H	0.638113	-0.588855	-0.055684
C81	C	0.407343	-0.526305	-0.000001
H82	H	0.457250	-0.592297	0.000008
H83	H	0.355268	-0.499070	-0.055676
H84	H	0.383722	-0.536515	0.055680
H85	H	0.909175	0.021102	0.408880
C86	C	1.308836	-0.504621	0.243662
H87	H	1.282537	-0.470023	0.176618
H88	H	1.302721	-0.568260	0.260134
H89	H	1.375896	-0.521143	0.260112
C90	C	0.395056	-0.092946	-0.000022
H91	H	0.364661	-0.021084	-0.000038
H92	H	0.391152	-0.137007	0.055656
H93	H	0.362704	-0.099574	-0.055700
C94	C	1.337469	-0.542245	0.605467
H95	H	1.345462	-0.552763	0.672516
H96	H	1.396101	-0.547695	0.588981
H97	H	1.322919	-0.594803	0.589001
C98	C	0.994472	-0.091088	0.288970
H99	H	0.941448	-0.021333	0.266256
H100	H	0.975677	-0.138045	0.266235
H101	H	1.048848	-0.090922	0.266222
H102	H	1.340899	-0.546756	0.440358
H103	H	0.801605	-0.390412	-0.000014
C104	C	0.611147	0.099495	-0.000025
H105	H	0.547214	0.107727	-0.000024
H106	H	0.608470	0.149149	-0.055698
H107	H	0.636913	0.111707	0.055658
H108	H	0.806514	0.013421	-0.000004
H109	H	1.062352	-0.180395	0.258089
