data_functionalizedCrystal
_audit_creation_method	'MofGen! by Chris Wilmer'
_symmetry_space_group_name_H-M	'P1'
_symmetry_Int_Tables_number	1
_symmetry_cell_setting	triclinic
loop_
_symmetry_equiv_pos_as_xyz
  x,y,z
_cell_length_a	14.519731
_cell_length_b	14.519709
_cell_length_c	8.140239
_cell_angle_alpha	90.002100
_cell_angle_beta	89.997705
_cell_angle_gamma	96.315502
loop_
_atom_site_label
_atom_site_type_symbol
_atom_site_fract_x
_atom_site_fract_y
_atom_site_fract_z
O1	O	-0.120888	1.223876	-0.136379
O2	O	-0.135124	0.955400	-0.136427
O3	O	0.006231	1.096746	-0.136414
O4	O	-0.262243	1.082530	-0.136392
O5	O	0.006231	1.096736	0.136814
O6	O	-0.135124	0.955390	0.136800
O7	O	-0.120888	1.223866	0.136848
Zn8	Zn	-0.128006	1.089626	0.180205
Zn9	Zn	-0.128006	1.089639	-0.179784
O10	O	-0.262243	1.082520	0.136835
C11	C	-0.134461	0.921035	0.000180
C12	C	-0.132473	0.818654	0.000161
C13	C	-0.125153	0.443757	0.000235
C14	C	-0.127186	0.548065	0.000214
C15	C	-0.128813	0.631202	0.000196
C16	C	-0.130846	0.735517	0.000178
C17	C	-0.296603	1.083191	0.000224
C18	C	-0.398983	1.085187	0.000233
C19	C	-0.482127	1.086809	0.000227
C20	C	-0.586436	1.088835	0.000212
C21	C	-0.669575	1.090444	0.000199
C22	C	-0.773890	1.092470	0.000186
C23	C	0.040591	1.096075	0.000193
C24	C	0.142971	1.094079	0.000173
C25	C	-0.121551	1.258230	0.000237
C26	C	-0.123539	1.360612	0.000246
N27	N	-0.128005	1.089624	0.425887
N28	N	-0.128004	1.089641	0.574534
