data_functionalizedCrystal
_audit_creation_method	'MofGen! by Chris Wilmer'
_symmetry_space_group_name_H-M	'P1'
_symmetry_Int_Tables_number	1
_symmetry_cell_setting	triclinic
loop_
_symmetry_equiv_pos_as_xyz
  x,y,z
_cell_length_a	6.817900
_cell_length_b	9.582860
_cell_length_c	16.015572
_cell_angle_alpha	76.189886
_cell_angle_beta	104.485554
_cell_angle_gamma	111.206767
loop_
_atom_site_label
_atom_site_type_symbol
_atom_site_fract_x
_atom_site_fract_y
_atom_site_fract_z
V1	V	-4.003263	-0.060387	-0.269347
O2	O	-3.950086	0.153916	-0.264383
O3	O	-3.994506	-0.264976	-0.267348
O4	O	-3.926564	0.006805	-0.386890
O5	O	-4.018499	-0.119746	-0.144013
V6	V	-4.485422	-0.042583	-0.254375
O7	O	-4.267516	-0.099440	-0.302189
O8	O	-4.671367	-0.003529	-0.221533
O9	O	-4.270973	0.162006	-0.256374
O10	O	-4.655995	-0.256885	-0.259339
O11	O	-4.587583	0.016777	-0.379709
O12	O	-4.338915	-0.109774	-0.136832
C13	C	-3.850066	-0.316921	-0.263058
C14	C	-3.924004	-0.483749	-0.262208
C15	C	-3.763398	0.029764	-0.415545
C16	C	-3.782234	0.083346	-0.511636
C17	C	-4.163022	-0.392251	-0.888905
C18	C	-4.180716	-0.341854	-0.979193
C19	C	-4.053206	-0.081114	-0.954685
C20	C	-4.035491	-0.131490	-0.864393
C21	C	-4.090405	-0.287060	-0.831511
C22	C	-3.962873	-0.026298	-0.806999
C23	C	-3.945171	-0.076671	-0.716715
C24	C	-4.000085	-0.232235	-0.683826
C25	C	-4.072703	-0.337432	-0.741227
C26	C	-3.907974	0.129271	-0.839884
C27	C	-3.835357	0.234463	-0.782489
C28	C	-3.817639	0.184091	-0.692203
C29	C	-3.872554	0.028527	-0.659314
C30	C	-3.745022	0.289289	-0.634802
C31	C	-3.727319	0.238917	-0.544518
C32	C	-3.854851	-0.021845	-0.569030
C33	C	-4.078756	0.213942	-0.260661
C34	C	-3.984056	0.380772	-0.261517
C35	C	-4.165424	-0.132741	-0.108172
C36	C	-4.125826	-0.186316	-0.012081
H37	H	-3.985674	-0.273246	-0.610310
H38	H	-4.117392	-0.464112	-0.714452
C39	C	-4.289828	-0.644933	-0.922168
C40	C	-4.222672	-0.563239	-0.852735
H41	H	-4.326454	-0.750481	-0.899830
H42	H	-4.177402	-0.616237	-0.954148
H43	H	-4.411200	-0.623500	-0.959606
H44	H	-4.101291	-0.584662	-0.815299
H45	H	-4.335109	-0.591946	-0.820740
H46	H	-3.922361	0.170280	-0.913399
C47	C	-3.805855	0.427466	-0.910005
C48	C	-3.774986	0.405462	-0.818639
H49	H	-3.768564	0.533037	-0.932318
H50	H	-3.951708	0.378919	-0.932637
H51	H	-3.718195	0.385384	-0.927021
H52	H	-3.862658	0.447534	-0.801623
H53	H	-3.629109	0.454029	-0.795999
C54	C	-4.446737	-0.441274	-1.099081
C55	C	-4.260540	-0.457490	-1.042285
H56	H	-4.496022	-0.512667	-1.138027
H57	H	-4.416552	-0.341428	-1.131583
H58	H	-4.553925	-0.458756	-1.066148
H59	H	-4.153346	-0.439997	-1.075218
H60	H	-4.290716	-0.557360	-1.009780
C61	C	-4.122100	0.151864	-0.965736
C62	C	-3.992863	0.089883	-0.990840
H63	H	-4.084851	0.257429	-0.988062
H64	H	-4.101140	0.136927	-0.903760
H65	H	-4.267959	0.103283	-0.988376
H66	H	-3.847005	0.138457	-0.968195
H67	H	-4.013806	0.104832	-1.052830
H68	H	-3.899541	-0.148525	-0.542255
C69	C	-3.813947	0.522252	-0.645853
C70	C	-3.684699	0.460285	-0.670960
H71	H	-3.776717	0.627817	-0.668181
H72	H	-3.792977	0.507319	-0.583876
H73	H	-3.959804	0.473660	-0.668489
H74	H	-3.538842	0.508870	-0.648318
H75	H	-3.705651	0.475230	-0.732949
C76	C	-3.805540	0.328752	-0.432903
C77	C	-3.647487	0.354539	-0.481422
H78	H	-3.756259	0.400140	-0.393954
H79	H	-3.835698	0.228905	-0.400403
H80	H	-3.931843	0.339749	-0.471450
H81	H	-3.521188	0.343530	-0.442876
H82	H	-3.617301	0.454411	-0.513924
