data_functionalizedCrystal
_audit_creation_method	'MofGen! by Chris Wilmer'
_symmetry_space_group_name_H-M	'P1'
_symmetry_Int_Tables_number	1
_symmetry_cell_setting	triclinic
loop_
_symmetry_equiv_pos_as_xyz
  x,y,z
_cell_length_a	18.215407
_cell_length_b	12.759400
_cell_length_c	18.215399
_cell_angle_alpha	89.973045
_cell_angle_beta	89.983176
_cell_angle_gamma	90.015132
loop_
_atom_site_label
_atom_site_type_symbol
_atom_site_fract_x
_atom_site_fract_y
_atom_site_fract_z
Zn1	Zn	1.125102	-0.418240	-0.416133
Zn2	Zn	1.125039	-0.593944	-0.293074
Zn3	Zn	1.002041	-0.418281	-0.293081
Zn4	Zn	1.002023	-0.593878	-0.416099
O5	O	1.063551	-0.506086	-0.354597
O6	O	1.228078	-0.441557	-0.399821
O7	O	1.108704	-0.570687	-0.190091
O8	O	1.018400	-0.271255	-0.309421
O9	O	1.228032	-0.570647	-0.309410
O10	O	1.108812	-0.271224	-0.399827
O11	O	1.018339	-0.441628	-0.190096
O12	O	0.899055	-0.441565	-0.309388
O13	O	1.018368	-0.570534	-0.519088
O14	O	0.899041	-0.570575	-0.399769
O15	O	1.108794	-0.441493	-0.519113
O16	O	1.108686	-0.740957	-0.309377
O17	O	1.018307	-0.740908	-0.399763
C18	C	0.872345	-0.506068	-0.354576
C19	C	0.790546	-0.506086	-0.354584
C20	C	0.602364	-0.573367	-0.401587
C21	C	0.525506	-0.573370	-0.401596
C22	C	0.525490	-0.438824	-0.307623
C23	C	0.602348	-0.438816	-0.307618
C24	C	0.640783	-0.506094	-0.354599
C25	C	0.487067	-0.506105	-0.354613
C26	C	0.403733	-0.506108	-0.354623
C27	C	0.724122	-0.506089	-0.354590
C28	C	1.063508	-0.779053	-0.354582
C29	C	1.063556	-0.895830	-0.354600
C30	C	1.110669	-0.950682	-0.307588
C31	C	1.110714	-1.060406	-0.307610
C32	C	1.016527	-1.060416	-0.401659
C33	C	1.016487	-0.950694	-0.401639
C34	C	1.157739	-0.895818	-0.260548
C35	C	1.204855	-0.950671	-0.213532
C36	C	1.204900	-1.060395	-0.213554
C37	C	1.157829	-1.115266	-0.260593
C38	C	1.255504	-0.506105	-0.354618
C39	C	1.337303	-0.506113	-0.354628
C40	C	1.063586	-0.506002	-0.546550
C41	C	1.063601	-0.505966	-0.628349
C42	C	1.063615	-0.232053	-0.354628
C43	C	1.063642	-0.115276	-0.354642
C44	C	1.016587	-0.438720	-0.816546
C45	C	1.016600	-0.438699	-0.893405
C46	C	1.110703	-0.573087	-0.893389
C47	C	1.110686	-0.573113	-0.816532
C48	C	1.063629	-0.505923	-0.778112
C49	C	1.063659	-0.505876	-0.931829
C50	C	1.063673	-0.505854	-1.015162
C51	C	1.063614	-0.505947	-0.694773
C52	C	1.063559	-0.506094	-0.163391
C53	C	1.063687	-0.505833	-0.081592
H54	H	0.494187	-0.384051	-0.269372
H55	H	0.633656	-0.628146	-0.439843
H56	H	1.148995	-0.627842	-0.785238
H57	H	0.494229	-0.628149	-0.439859
H58	H	0.633629	-0.384028	-0.269355
C59	C	1.157826	-0.776690	-0.260442
C60	C	1.209142	-0.740379	-0.209199
C61	C	1.209248	-0.630645	-0.209087
H62	H	1.110375	-0.751809	-0.247645
H63	H	1.170553	-0.751763	-0.307926
H64	H	1.196411	-0.765295	-0.161725
H65	H	1.256601	-0.765231	-0.221984
H66	H	1.221975	-0.605719	-0.256571
H67	H	1.161794	-0.605775	-0.196292
H68	H	1.244070	-0.605995	-0.174325
H69	H	1.243183	-0.905988	-0.175238
C70	C	1.161825	-0.646139	-0.934971
C71	C	1.203005	-0.705018	-0.884859
C72	C	1.250102	-0.772332	-0.923135
H73	H	1.193970	-0.606055	-0.964964
H74	H	1.133688	-0.691961	-0.964929
H75	H	1.231139	-0.659201	-0.854914
H76	H	1.170879	-0.745123	-0.854865
H77	H	1.221966	-0.818155	-0.953094
H78	H	1.282243	-0.732240	-0.953126
H79	H	1.278044	-0.812297	-0.889141
C80	C	1.256082	-1.119761	-0.162433
C81	C	1.297279	-1.048225	-0.121223
C82	C	1.344428	-1.102872	-0.074112
H83	H	1.288215	-1.162500	-0.190537
H84	H	1.227982	-1.162609	-0.130311
H85	H	1.325378	-1.005395	-0.153341
H86	H	1.265166	-1.005484	-0.093104
H87	H	1.316327	-1.145719	-0.041991
H88	H	1.376555	-1.145609	-0.102222
H89	H	1.372381	-1.054343	-0.046141
C90	C	1.158037	-1.234396	-0.260627
C91	C	1.228110	-1.270594	-0.279456
C92	C	1.228330	-1.380327	-0.279483
H93	H	1.123311	-1.259352	-0.295368
H94	H	1.145391	-1.259325	-0.213121
H95	H	1.240748	-1.245676	-0.326954
H96	H	1.262848	-1.245667	-0.244721
H97	H	1.215683	-1.405256	-0.231977
H98	H	1.193601	-1.405272	-0.314224
H99	H	1.275874	-1.404901	-0.292251
C100	C	0.965448	-1.120177	-0.452642
C101	C	0.975554	-1.228008	-0.442581
C102	C	0.928502	-1.283090	-0.489526
H103	H	0.976133	-1.102262	-0.502126
H104	H	0.915985	-1.102323	-0.441815
H105	H	1.025005	-1.245855	-0.453414
H106	H	0.964863	-1.245954	-0.393107
H107	H	0.879040	-1.265236	-0.478699
H108	H	0.939191	-1.265166	-0.539007
H109	H	0.935348	-1.356258	-0.482702
C110	C	0.965261	-0.891321	-0.452714
C111	C	0.924032	-0.962850	-0.493898
C112	C	0.876834	-0.908194	-0.540954
H113	H	0.993303	-0.848455	-0.484858
H114	H	0.933156	-0.848601	-0.424547
H115	H	0.956134	-1.005553	-0.522062
H116	H	0.895975	-1.005719	-0.461773
H117	H	0.844729	-0.865474	-0.512788
H118	H	0.904882	-0.865330	-0.573094
H119	H	0.848850	-0.956718	-0.568899
H120	H	0.978270	-0.384010	-0.785267
H121	H	0.978293	-0.383976	-0.924694
