data_functionalizedCrystal
_audit_creation_method	'MofGen! by Chris Wilmer'
_symmetry_space_group_name_H-M	'P1'
_symmetry_Int_Tables_number	1
_symmetry_cell_setting	triclinic
loop_
_symmetry_equiv_pos_as_xyz
  x,y,z
_cell_length_a	23.532407
_cell_length_b	17.038272
_cell_length_c	15.500227
_cell_angle_alpha	93.043705
_cell_angle_beta	92.805592
_cell_angle_gamma	93.019883
loop_
_atom_site_label
_atom_site_type_symbol
_atom_site_fract_x
_atom_site_fract_y
_atom_site_fract_z
O1	O	0.121159	-1.040103	-0.071851
O2	O	0.119196	-0.812488	-0.071876
O3	O	0.037607	-0.933158	-0.071847
O4	O	0.202748	-0.919432	-0.071880
O5	O	0.042537	-0.925836	0.072040
O6	O	0.124126	-0.805165	0.072011
O7	O	0.126090	-1.032780	0.072036
Cu8	Cu	0.125558	-0.918304	0.085162
Cu9	Cu	0.119727	-0.926964	-0.085001
O10	O	0.207678	-0.912110	0.072007
C11	C	0.119875	-0.779712	0.000065
C12	C	0.114548	-0.692959	0.000056
C13	C	0.018838	-0.929147	0.000099
C14	C	-0.044434	-0.928096	0.000105
N15	N	0.129659	-0.912219	0.204845
C16	C	-0.440131	-0.992917	0.000065
C17	C	-0.499583	-0.991941	0.000058
O18	O	-0.533169	-1.052030	0.000033
N19	N	-0.525981	-0.920202	0.000051
C20	C	-0.492924	-0.849435	0.000042
O21	O	-0.520836	-0.788325	0.000034
C22	C	-0.433473	-0.850412	0.000042
C23	C	-0.407078	-0.922155	0.000058
C24	C	-0.413736	-1.064654	0.000080
C25	C	-0.354288	-1.065630	0.000089
C26	C	-0.321235	-0.994868	0.000082
C27	C	-0.347631	-0.923131	0.000067
C28	C	-0.400418	-0.779646	0.000027
C29	C	-0.340963	-0.780629	0.000026
C30	C	-0.314569	-0.852372	0.000043
C31	C	-0.255130	-0.853344	0.000068
N32	N	-0.228732	-0.925083	0.000075
C33	C	-0.261785	-0.995845	0.000082
C34	C	-0.617774	-0.847388	0.000039
C35	C	-0.677223	-0.846410	0.000045
C36	C	-0.683878	-0.988916	0.000060
C37	C	-0.624428	-0.989894	0.000061
C38	C	-0.591376	-0.919127	0.000047
C39	C	-0.136940	-0.997889	0.000100
C40	C	-0.077487	-0.998858	0.000112
C41	C	-0.070837	-0.856352	0.000093
C42	C	-0.130285	-0.855382	0.000085
C43	C	-0.163336	-0.926157	0.000086
O44	O	-0.221508	-0.793287	0.000090
O45	O	-0.233865	-1.056945	0.000078
C46	C	0.226447	-0.916121	0.000059
C47	C	0.289719	-0.917172	0.000047
C48	C	0.125410	-1.065556	0.000094
C49	C	0.130737	-1.152310	0.000097
C50	C	0.163453	-0.642483	0.000046
C51	C	0.158445	-0.560969	0.000059
C52	C	0.104532	-0.529932	0.000075
C53	C	0.055624	-0.580414	0.000087
C54	C	0.060632	-0.661927	0.000080
C55	C	0.086837	-0.284304	0.000102
C56	C	0.081832	-0.202786	0.000106
C57	C	0.184654	-0.183345	0.000080
C58	C	0.189658	-0.264860	0.000068
C59	C	0.140750	-0.315335	0.000084
C60	C	0.099412	-0.446612	0.000086
C61	C	0.145871	-0.398653	0.000080
N62	N	0.115622	-0.933055	-0.204685
C63	C	0.095101	-0.963369	0.250134
C64	C	0.098208	-0.958774	0.340706
C65	C	0.135876	-0.903033	0.385987
C66	C	0.170435	-0.851877	0.340691
C67	C	0.167324	-0.856469	0.250121
C68	C	0.147071	-0.886491	0.659450
C69	C	0.150180	-0.881905	0.750026
C70	C	0.077952	-0.988801	0.750034
C71	C	0.074848	-0.993391	0.659462
C72	C	0.109404	-0.942233	0.614175
C73	C	0.139054	-0.898336	0.478566
C74	C	0.106223	-0.946927	0.521598
H75	H	-0.055999	-1.057282	0.000128
H76	H	0.169725	-0.852952	0.515441
H77	H	0.180855	-0.836511	0.786890
H78	H	-0.314056	-0.723001	0.000014
H79	H	-0.710801	-1.046535	0.000062
H80	H	0.055516	-0.421332	0.000123
H81	H	0.064431	-1.008763	0.213272
H82	H	0.070069	-1.000424	0.377580
H83	H	-0.421898	-0.721225	0.000008
H84	H	-0.151776	-0.796962	0.000096
H85	H	-0.698708	-0.787989	0.000047
H86	H	0.175209	-0.844838	0.622584
H87	H	0.201102	-0.806487	0.377565
H88	H	-0.602941	-1.048313	0.000073
H89	H	0.075552	-0.992309	0.484727
H90	H	-0.043915	-0.798739	0.000090
H91	H	-0.163843	-1.055521	0.000098
H92	H	-0.440642	-1.122281	0.000083
H93	H	-0.332803	-1.124051	0.000098
H94	H	0.189767	-0.423926	0.000072
H95	H	0.020809	-0.703024	0.000087
H96	H	0.207354	-0.667745	0.000033
H97	H	0.195464	-0.814816	0.213248
H98	H	0.198268	-0.519874	0.000051
H99	H	-0.590866	-0.789757	0.000035
H100	H	0.037928	-0.177520	0.000118
H101	H	0.233559	-0.290124	0.000045
H102	H	0.224472	-0.142240	0.000069
H103	H	0.047013	-0.325391	0.000116
H104	H	0.011727	-0.555138	0.000112
H105	H	0.044176	-1.038780	0.622596
H106	H	0.049817	-1.030451	0.786915
