data_functionalizedCrystal
_audit_creation_method	'MofGen! by Chris Wilmer'
_symmetry_space_group_name_H-M	'P1'
_symmetry_Int_Tables_number	1
_symmetry_cell_setting	triclinic
loop_
_symmetry_equiv_pos_as_xyz
  x,y,z
_cell_length_a	17.699083
_cell_length_b	13.339070
_cell_length_c	16.176319
_cell_angle_alpha	89.996815
_cell_angle_beta	89.998611
_cell_angle_gamma	99.456154
loop_
_atom_site_label
_atom_site_type_symbol
_atom_site_fract_x
_atom_site_fract_y
_atom_site_fract_z
O1	O	1.031106	0.127864	-0.068625
O2	O	0.814244	0.144499	-0.068651
O3	O	0.897786	-0.011021	-0.068639
O4	O	0.947564	0.283384	-0.068637
O5	O	0.897768	-0.011031	0.068855
O6	O	0.814226	0.144489	0.068842
O7	O	1.031088	0.127854	0.068868
Cu8	Cu	0.922655	0.136171	0.081409
Cu9	Cu	0.922677	0.136182	-0.081192
O10	O	0.947546	0.283374	0.068856
C11	C	0.785912	0.143898	0.000092
C12	C	0.701516	0.142110	0.000082
C13	C	0.672191	0.233397	0.000082
C14	C	0.592891	0.231710	0.000093
C15	C	0.542918	0.138736	0.000097
C16	C	0.572248	0.047442	0.000099
C17	C	0.651546	0.049129	0.000094
C18	C	0.252446	0.040635	0.000119
C19	C	0.173143	0.038955	0.000122
C20	C	0.193791	0.223216	0.000118
C21	C	0.273089	0.224904	0.000113
C22	C	0.302412	0.133610	0.000120
C23	C	0.388398	0.135440	0.000110
C24	C	0.456933	0.136906	0.000101
C25	C	0.889369	-0.048694	0.000106
C26	C	0.864305	-0.160935	0.000100
C27	C	1.059185	-0.526207	0.000124
C28	C	1.082736	-0.420752	0.000134
C29	C	1.028130	-0.355792	0.000125
C30	C	0.949970	-0.396298	0.000106
C31	C	0.926417	-0.501763	0.000102
C32	C	0.895362	-0.331349	0.000104
C33	C	0.817202	-0.371855	0.000085
C34	C	0.793652	-0.477310	0.000080
C35	C	0.848258	-0.542269	0.000089
C36	C	0.918915	-0.225884	0.000108
C37	C	0.786147	-0.201441	0.000086
C38	C	0.762596	-0.306895	0.000076
C39	C	1.059420	0.128455	0.000123
C40	C	1.143816	0.130243	0.000128
C41	C	0.955963	0.321047	0.000110
C42	C	0.981027	0.433288	0.000110
N43	N	0.922646	0.136162	0.195775
N44	N	0.922691	0.136183	-0.195557
C45	C	0.959660	0.067326	0.239044
C46	C	0.959663	0.067324	0.325592
C47	C	0.922657	0.136165	0.368867
C48	C	0.885638	0.205005	0.325591
C49	C	0.885631	0.205000	0.239046
C50	C	0.885668	0.205024	0.674620
C51	C	0.885681	0.205025	0.761171
C52	C	0.959701	0.067348	0.761165
C53	C	0.959693	0.067343	0.674620
C54	C	0.922671	0.136179	0.631352
C55	C	0.922667	0.136178	0.537507
C56	C	0.922666	0.136172	0.462710
H57	H	0.276310	-0.033702	0.000125
C58	C	0.707679	-0.521864	0.000066
H59	H	0.678530	-0.468076	0.000054
H60	H	0.695723	-0.562502	0.048010
H61	H	0.695742	-0.562489	-0.047890
H62	H	1.047310	-0.269927	0.000134
H63	H	0.132455	-0.036760	0.000126
C64	C	0.822354	-0.658271	0.000082
H65	H	0.866071	-0.691152	0.000092
H66	H	0.792515	-0.677610	-0.047868
H67	H	0.792505	-0.677619	0.048032
C68	C	0.560633	0.332123	0.000085
H69	H	0.506249	0.317806	0.000097
H70	H	0.577868	0.370252	-0.047866
H71	H	0.577872	0.370257	0.048034
H72	H	0.675420	-0.025206	0.000093
C73	C	1.004883	-0.181334	0.000126
H74	H	1.011093	-0.109223	0.000134
H75	H	1.028309	-0.203636	-0.047816
H76	H	1.028286	-0.203647	0.048084
H77	H	0.855544	0.261085	0.796405
C78	C	0.844954	0.280748	0.627035
H79	H	0.822925	0.321753	0.665206
H80	H	0.805819	0.244432	0.593281
H81	H	0.881009	0.322795	0.593268
H82	H	0.531553	-0.028259	0.000114
C83	C	0.328056	0.327175	0.000112
H84	H	0.299233	0.381302	0.000122
H85	H	0.359421	0.331670	-0.047834
H86	H	0.359416	0.331654	0.048066
H87	H	0.698956	-0.339890	0.000061
H88	H	0.741682	-0.148550	0.000083
C89	C	0.161533	0.323639	0.000122
H90	H	0.107149	0.309324	0.000135
H91	H	0.178769	0.361773	-0.047826
H92	H	0.178775	0.361766	0.048074
C93	C	0.844903	0.280700	0.373188
H94	H	0.822843	0.321681	0.335021
H95	H	0.880937	0.322760	0.406956
H96	H	0.805775	0.244345	0.406943
C97	C	1.168704	-0.376202	0.000146
H98	H	1.197853	-0.429990	0.000142
H99	H	1.180647	-0.335574	0.048094
H100	H	1.180655	-0.335567	-0.047806
H101	H	0.989798	0.011272	0.203815
H102	H	1.103637	-0.579105	0.000138
H103	H	0.989802	0.011272	0.360821
H104	H	0.989830	0.011290	0.639387
C105	C	1.000417	-0.008382	0.808759
H106	H	1.022461	-0.049373	0.770589
H107	H	0.964369	-0.050429	0.842526
H108	H	1.039553	0.027944	0.842513
C109	C	0.844919	0.280724	0.191449
H110	H	0.822887	0.321731	0.229616
H111	H	0.805787	0.244403	0.157694
H112	H	0.880974	0.322770	0.157682
H113	H	0.712875	0.309107	0.000078
