data_functionalizedCrystal
_audit_creation_method	'MofGen! by Chris Wilmer'
_symmetry_space_group_name_H-M	'P1'
_symmetry_Int_Tables_number	1
_symmetry_cell_setting	triclinic
loop_
_symmetry_equiv_pos_as_xyz
  x,y,z
_cell_length_a	16.959455
_cell_length_b	25.639240
_cell_length_c	16.959447
_cell_angle_alpha	90.040258
_cell_angle_beta	90.020374
_cell_angle_gamma	90.029777
loop_
_atom_site_label
_atom_site_type_symbol
_atom_site_fract_x
_atom_site_fract_y
_atom_site_fract_z
Zn1	Zn	1.208314	-0.208182	0.446982
Zn2	Zn	1.208207	-0.295623	0.314780
Zn3	Zn	1.076143	-0.208199	0.314805
Zn4	Zn	1.076078	-0.295584	0.446905
O5	O	1.142186	-0.251897	0.380868
O6	O	1.318911	-0.219791	0.429467
O7	O	1.190671	-0.284049	0.204173
O8	O	1.093747	-0.135031	0.332381
O9	O	1.318832	-0.284033	0.332339
O10	O	1.190853	-0.135019	0.429491
O11	O	1.093644	-0.219819	0.204191
O12	O	0.965523	-0.219781	0.332307
O13	O	1.093637	-0.283966	0.557526
O14	O	0.965476	-0.283982	0.429360
O15	O	1.190790	-0.219753	0.557582
O16	O	1.190608	-0.368783	0.332264
O17	O	1.093534	-0.368754	0.429336
C18	C	0.936819	-0.251880	0.380828
C19	C	0.848963	-0.251885	0.380830
C20	C	0.477436	-0.285315	0.330268
C21	C	0.477539	-0.218522	0.431564
C22	C	0.560084	-0.218514	0.431545
C23	C	0.601310	-0.251907	0.380887
C24	C	0.559989	-0.285308	0.330249
C25	C	0.601411	-0.185117	0.482189
C26	C	0.683962	-0.185107	0.482172
C27	C	0.725189	-0.218498	0.431510
C28	C	0.683863	-0.251900	0.380868
C29	C	0.725089	-0.285293	0.330210
C30	C	0.683764	-0.318693	0.279564
C31	C	0.601216	-0.318699	0.279586
C32	C	0.807737	-0.218492	0.431488
C33	C	0.807642	-0.285286	0.330191
C34	C	1.142074	-0.387739	0.380806
C35	C	1.142098	-0.445853	0.380806
C36	C	1.192774	-0.806172	0.431524
C37	C	1.192797	-0.860776	0.431540
O38	O	1.235750	-0.888975	0.474599
N39	N	1.142295	-0.888136	0.380944
C40	C	1.091761	-0.860889	0.330335
O41	O	1.048807	-0.889174	0.287301
C42	C	1.091734	-0.806285	0.330323
C43	C	1.142245	-0.778928	0.380917
C44	C	1.243280	-0.778814	0.482114
C45	C	1.243257	-0.724214	0.482097
C46	C	1.192729	-0.696971	0.431490
C47	C	1.142223	-0.724328	0.380900
C48	C	1.041197	-0.779039	0.279719
C49	C	1.041174	-0.724432	0.279712
C50	C	1.091685	-0.697075	0.330305
C51	C	1.091672	-0.642484	0.330275
N52	N	1.142174	-0.615124	0.380871
C53	C	1.192702	-0.642367	0.431478
C54	C	1.091820	-0.975559	0.330364
C55	C	1.091850	-1.030161	0.330371
C56	C	1.192885	-1.030045	0.431577
C57	C	1.192859	-0.975442	0.431566
C58	C	1.142322	-0.948199	0.380960
C59	C	1.192651	-0.527702	0.431437
C60	C	1.192627	-0.473097	0.431413
C61	C	1.091589	-0.473218	0.330210
C62	C	1.091617	-0.527819	0.330231
C63	C	1.142150	-0.555059	0.380851
O64	O	1.048738	-0.614250	0.287241
O65	O	1.235642	-0.614075	0.474512
C66	C	1.348354	-0.251914	0.380908
C67	C	1.436210	-0.251922	0.380926
C68	C	1.142218	-0.251853	0.587036
C69	C	1.142232	-0.251835	0.674893
C70	C	1.142319	-0.115524	0.380947
C71	C	1.142376	-0.057410	0.380981
C72	C	1.142198	-0.251902	0.175502
C73	C	1.142337	-0.251773	0.087646
C74	C	1.091744	-0.285213	1.046342
C75	C	1.192910	-0.218347	1.046396
C76	C	1.192889	-0.218358	0.963850
C77	C	1.142295	-0.251798	0.922546
C78	C	1.091723	-0.285226	0.963788
C79	C	1.243467	-0.184934	0.922601
C80	C	1.243448	-0.184944	0.840050
C81	C	1.192850	-0.218381	0.798745
C82	C	1.142274	-0.251811	0.839993
C83	C	1.091681	-0.285250	0.798689
C84	C	1.041101	-0.318678	0.839935
C85	C	1.041124	-0.318664	0.922483
C86	C	1.192826	-0.218395	0.716197
C87	C	1.091660	-0.285264	0.716135
H88	H	0.717341	-0.345884	0.238323
C89	C	1.036009	-0.443243	0.274550
H90	H	1.043227	-0.406806	0.281797
H91	H	1.047606	-0.452212	0.221452
H92	H	0.982895	-0.452213	0.286078
C93	C	1.248554	-0.181564	1.091827
H94	H	1.241320	-0.186341	1.146898
H95	H	1.301654	-0.189216	1.078300
H96	H	1.237005	-0.146434	1.078323
C97	C	1.299076	-0.148172	0.794687
H98	H	1.329206	-0.128252	0.831110
H99	H	1.333488	-0.168177	0.762469
H100	H	1.268845	-0.125391	0.762503
H101	H	1.234010	-0.191181	0.682618
C102	C	0.852984	-0.322022	0.274470
H103	H	0.816548	-0.341915	0.244318
H104	H	0.885183	-0.301994	0.240082
H105	H	0.885184	-0.344828	0.304640
C106	C	1.036112	-0.321982	1.091707
H107	H	1.043371	-0.317188	1.146786
H108	H	0.983008	-0.314329	1.078175
H109	H	1.047650	-0.357116	1.078155
H110	H	0.443968	-0.191338	0.472812
C111	C	1.298817	-0.694128	0.537753
H112	H	1.328904	-0.718180	0.567895
H113	H	1.333270	-0.672826	0.507550
H114	H	1.268547	-0.672825	0.572164
H115	H	1.050728	-1.052431	0.289164
H116	H	1.284662	-0.157712	0.956237
C117	C	0.985498	-0.355433	0.967854
H118	H	0.992765	-0.350639	1.022932
H119	H	0.932392	-0.347781	0.954330
H120	H	0.997035	-0.390567	0.954301
H121	H	0.567840	-0.157933	0.523437
C122	C	0.555759	-0.355438	0.223888
H123	H	0.500692	-0.350663	0.231163
H124	H	0.569255	-0.347745	0.170797
H125	H	0.569274	-0.390578	0.235357
H126	H	0.443786	-0.312507	0.289031
C127	C	0.729412	-0.148364	0.537872
H128	H	0.693036	-0.128475	0.568039
H129	H	0.761628	-0.168386	0.572246
H130	H	0.761604	-0.125554	0.507685
C131	C	1.248184	-0.443007	0.487075
H132	H	1.278271	-0.467056	0.517223
H133	H	1.282638	-0.421704	0.456874
H134	H	1.217907	-0.421704	0.521481
H135	H	1.000066	-0.801304	0.238520
H136	H	0.841380	-0.191299	0.472725
C137	C	1.298871	-0.808774	0.537782
H138	H	1.328946	-0.784653	0.567901
H139	H	1.268635	-0.830075	0.572203
H140	H	1.333347	-0.830069	0.507579
H141	H	1.050493	-0.550094	0.289027
C142	C	1.248244	-0.557659	0.487111
H143	H	1.278322	-0.533540	0.517228
H144	H	1.218005	-0.578958	0.521533
H145	H	1.282718	-0.578957	0.456908
H146	H	1.234027	-1.052237	0.472786
C147	C	1.248406	-0.945354	0.487232
H148	H	1.278494	-0.969404	0.517376
H149	H	1.282859	-0.924046	0.457039
H150	H	1.218124	-0.924056	0.521641
H151	H	1.050669	-0.953381	0.289148
H152	H	0.999911	-0.345907	0.806294
C153	C	0.985584	-0.694468	0.224042
H154	H	0.955513	-0.718585	0.193912
H155	H	0.951116	-0.673167	0.254236
H156	H	1.015836	-0.673173	0.189619
H157	H	1.050452	-0.312490	0.682511
