data_functionalizedCrystal
_audit_creation_method	'MofGen! by Chris Wilmer'
_symmetry_space_group_name_H-M	'P1'
_symmetry_Int_Tables_number	1
_symmetry_cell_setting	triclinic
loop_
_symmetry_equiv_pos_as_xyz
  x,y,z
_cell_length_a	10.967926
_cell_length_b	11.792240
_cell_length_c	10.065918
_cell_angle_alpha	80.228909
_cell_angle_beta	87.800512
_cell_angle_gamma	95.540026
loop_
_atom_site_label
_atom_site_type_symbol
_atom_site_fract_x
_atom_site_fract_y
_atom_site_fract_z
O1	O	1.617971	-0.124035	-0.267022
O2	O	1.266777	-0.150149	-0.184415
O3	O	1.450891	0.028329	-0.227763
O4	O	1.433858	-0.302512	-0.223674
O5	O	1.419012	0.057225	-0.447261
O6	O	1.234898	-0.121253	-0.403913
O7	O	1.586092	-0.095139	-0.486520
Zn8	Zn	1.405434	-0.103608	-0.480066
Zn9	Zn	1.447436	-0.141680	-0.190869
O10	O	1.401979	-0.273616	-0.443172
C11	C	1.205877	-0.135984	-0.283589
C12	C	1.071909	-0.136815	-0.252079
C13	C	0.995667	-0.122216	-0.351737
C14	C	0.857203	-0.123075	-0.319172
C15	C	1.433880	0.085038	-0.337268
C16	C	1.430672	0.210963	-0.336536
C17	C	1.424776	0.441508	-0.335171
C18	C	1.428052	0.313216	-0.335929
C19	C	1.646993	-0.109304	-0.387343
C20	C	1.780962	-0.108474	-0.418845
N21	N	1.376777	-0.077624	-0.677438
C22	C	1.418983	0.669680	-0.333711
C23	C	1.422172	0.543773	-0.334574
C24	C	1.437457	-0.132640	-0.759476
C25	C	1.415413	-0.112631	-0.911463
N26	N	1.476102	-0.167654	0.006501
H27	H	1.505733	-0.194549	-0.717192
O28	O	1.325002	-0.030585	-0.967465
H29	H	1.283921	0.006687	-0.884254
H30	H	1.544379	-0.229571	-0.951223
H31	H	1.308510	-0.015706	-0.719724
H32	H	1.032903	-0.109076	-0.461166
H33	H	0.819974	-0.136207	-0.209736
O34	O	0.830255	-0.091080	-0.563812
H35	H	0.931273	-0.093146	-0.566645
O36	O	1.022606	-0.154218	-0.107119
H37	H	0.921586	-0.152171	-0.104289
