data_functionalizedCrystal
_audit_creation_method	'MofGen! by Chris Wilmer'
_symmetry_space_group_name_H-M	'P1'
_symmetry_Int_Tables_number	1
_symmetry_cell_setting	triclinic
loop_
_symmetry_equiv_pos_as_xyz
  x,y,z
_cell_length_a	17.640968
_cell_length_b	17.640112
_cell_length_c	17.640280
_cell_angle_alpha	87.815931
_cell_angle_beta	65.682561
_cell_angle_gamma	87.860920
loop_
_atom_site_label
_atom_site_type_symbol
_atom_site_fract_x
_atom_site_fract_y
_atom_site_fract_z
Zn1	Zn	-0.189698	-1.251359	-0.023073
Zn2	Zn	0.310302	-0.751359	0.476927
Zn3	Zn	-0.024069	-1.251298	-0.188752
Zn4	Zn	0.475931	-0.751298	0.311248
Zn5	Zn	-0.076159	-1.106797	-0.075311
Zn6	Zn	0.423841	-0.606797	0.424689
Zn7	Zn	-0.179117	-1.148399	-0.178182
Zn8	Zn	0.320883	-0.648399	0.321818
O9	O	-0.117261	-1.189463	-0.116329
O10	O	0.382739	-0.689463	0.383671
O11	O	-0.150355	-1.354914	-0.027613
O12	O	0.349645	-0.854914	0.472387
O13	O	0.081425	-1.214694	-0.199989
O14	O	0.581425	-0.714694	0.300011
O15	O	-0.117448	-1.108588	0.044008
O16	O	0.382552	-0.608588	0.544008
O17	O	-0.028669	-1.354870	-0.149337
O18	O	0.471331	-0.854870	0.350663
O19	O	-0.200865	-1.214797	0.082386
O20	O	0.299135	-0.714797	0.582386
O21	O	0.043155	-1.108529	-0.116644
O22	O	0.543155	-0.608529	0.383356
O23	O	-0.107188	-1.008752	-0.106394
O24	O	0.392812	-0.508752	0.393606
O25	O	-0.292925	-1.179493	-0.131321
O26	O	0.207075	-0.679493	0.368679
O27	O	-0.182831	-1.039317	-0.181973
O28	O	0.317169	-0.539317	0.318027
O29	O	-0.300699	-1.255137	-0.017364
O30	O	0.199301	-0.755137	0.482636
O31	O	-0.018409	-1.255033	-0.299739
O32	O	0.481591	-0.755033	0.200261
O33	O	-0.132322	-1.179434	-0.291973
O34	O	0.367678	-0.679434	0.208027
C35	C	-0.149514	-0.997182	-0.148705
C36	C	0.350486	-0.497182	0.351295
C37	C	-0.163327	-0.914929	-0.162571
C38	C	0.336673	-0.414929	0.337429
C39	C	-0.326772	-1.221962	-0.067336
C40	C	0.173228	-0.721962	0.432664
C41	C	-0.416053	-1.235811	-0.046458
C42	C	0.083947	-0.735811	0.453542
C43	C	-0.068579	-1.221764	-0.324990
C44	C	0.431421	-0.721764	0.175010
C45	C	-0.047768	-1.235655	-0.414238
C46	C	0.452232	-0.735655	0.085762
C47	C	-0.689444	-1.084469	-0.274453
C48	C	-0.189444	-0.584469	0.225547
C49	C	-0.773337	-1.097496	-0.254822
C50	C	-0.273337	-0.597496	0.245178
C51	C	-0.781421	-1.176258	-0.136168
C52	C	-0.281421	-0.676258	0.363832
C53	C	-0.697528	-1.163234	-0.155787
C54	C	-0.197528	-0.663234	0.344213
C55	C	-0.651546	-1.117340	-0.224930
C56	C	-0.151546	-0.617340	0.275070
C57	C	-0.659630	-1.196105	-0.106264
C58	C	-0.159630	-0.696105	0.393736
C59	C	-0.575743	-1.183085	-0.125884
C60	C	-0.075743	-0.683085	0.374116
C61	C	-0.529754	-1.137195	-0.195026
C62	C	-0.029754	-0.637195	0.304974
C63	C	-0.567659	-1.104320	-0.244550
C64	C	-0.067659	-0.604320	0.255450
C65	C	-0.705612	-1.242004	-0.037124
C66	C	-0.205612	-0.742004	0.462876
C67	C	-0.667713	-1.274874	0.012398
C68	C	-0.167713	-0.774874	0.512398
C69	C	-0.583827	-1.261851	-0.007218
C70	C	-0.083827	-0.761851	0.492782
C71	C	-0.537838	-1.215960	-0.076360
C72	C	-0.037838	-0.715960	0.423640
C73	C	-0.545922	-1.294725	0.042306
C74	C	-0.045922	-0.794725	0.542306
C75	C	-0.462035	-1.281706	0.022686
C76	C	0.037965	-0.781706	0.522686
C77	C	-0.453951	-1.202940	-0.095980
C78	C	0.046049	-0.702940	0.404020
C79	C	0.091429	-1.157124	-0.165067
C80	C	0.591429	-0.657124	0.334933
C81	C	0.180681	-1.143383	-0.185695
C82	C	0.680681	-0.643383	0.314305
C83	C	-0.084882	-1.382495	-0.083827
C84	C	0.415118	-0.882495	0.416173
C85	C	-0.071084	-1.464754	-0.069977
C86	C	0.428916	-0.964754	0.430023
C87	C	-0.012337	-0.564743	-0.010979
C88	C	0.487663	-0.064743	0.489021
C89	C	-0.025323	-0.487458	-0.024022
C90	C	0.474677	0.012542	0.475978
C91	C	-0.103880	-0.519334	-0.102905
C92	C	0.396120	-0.019334	0.397095
C93	C	-0.090904	-0.596623	-0.089865
C94	C	0.409096	-0.096623	0.410135
C95	C	-0.045131	-0.619321	-0.043903
C96	C	0.454869	-0.119321	0.456097
C97	C	-0.123697	-0.651201	-0.122789
C98	C	0.376303	-0.151201	0.377211
C99	C	-0.110718	-0.728483	-0.109754
C100	C	0.389282	-0.228483	0.390246
C101	C	-0.064946	-0.751188	-0.063796
C102	C	0.435054	-0.251188	0.436204
C103	C	-0.032152	-0.696603	-0.030868
C104	C	0.467848	-0.196603	0.469132
C105	C	-0.169465	-0.628502	-0.168756
C106	C	0.330535	-0.128502	0.331244
C107	C	-0.202259	-0.683080	-0.201680
C108	C	0.297741	-0.183080	0.298320
C109	C	-0.189285	-0.760364	-0.188640
C110	C	0.310715	-0.260364	0.311360
C111	C	-0.143512	-0.783068	-0.142682
C112	C	0.356488	-0.283068	0.357318
C113	C	-0.222079	-0.814949	-0.221568
C114	C	0.277921	-0.314949	0.278432
C115	C	-0.209100	-0.892231	-0.208534
C116	C	0.290900	-0.392231	0.291466
C117	C	-0.130533	-0.860351	-0.129647
C118	C	0.369467	-0.360351	0.370353
C119	C	-0.275600	-1.084287	-0.687787
C120	C	0.224400	-0.584287	-0.187787
C121	C	-0.256019	-1.097337	-0.771655
C122	C	0.243981	-0.597337	-0.271655
C123	C	-0.137496	-1.176134	-0.779643
C124	C	0.362504	-0.676134	-0.279643
C125	C	-0.157069	-1.163094	-0.695773
C126	C	0.342931	-0.663094	-0.195773
C127	C	-0.226122	-1.117169	-0.649852
C128	C	0.273878	-0.617169	-0.149852
C129	C	-0.107591	-1.195976	-0.657837
C130	C	0.392409	-0.695976	-0.157837
C131	C	-0.127160	-1.182933	-0.573976
C132	C	0.372840	-0.682933	-0.073976
C133	C	-0.196208	-1.137009	-0.528050
C134	C	0.303792	-0.637009	-0.028050
C135	C	-0.245691	-1.104127	-0.565990
C136	C	0.254309	-0.604127	-0.065990
C137	C	-0.038535	-1.241896	-0.703761
C138	C	0.461465	-0.741896	-0.203761
C139	C	0.010944	-1.274778	-0.665825
C140	C	0.510944	-0.774778	-0.165825
C141	C	-0.008629	-1.261740	-0.581961
C142	C	0.491371	-0.761740	-0.081961
C143	C	-0.077677	-1.215815	-0.536035
C144	C	0.422323	-0.715815	-0.036035
C145	C	0.040854	-1.294622	-0.544020
C146	C	0.540854	-0.794622	-0.044020
C147	C	0.021285	-1.281579	-0.460159
C148	C	0.521285	-0.781579	0.039841
C149	C	-0.097246	-1.202773	-0.452173
C150	C	0.402754	-0.702773	0.047827
C151	C	-0.166147	-1.157059	0.093153
C152	C	0.333853	-0.657059	0.593153
C153	C	-0.186980	-1.143250	0.182422
C154	C	0.313020	-0.643250	0.682422
H155	H	-0.416517	-1.165548	-0.152268
H156	H	0.083483	-0.665548	0.347732
Br157	Br	-0.608331	-1.357020	0.136130
Br158	Br	-0.108331	-0.857020	0.636130
Br159	Br	0.019198	-0.413387	0.020656
Br160	Br	0.519198	0.086613	0.520656
Br161	Br	-0.505250	-1.042024	-0.338382
Br162	Br	-0.005250	-0.542024	0.161618
Br163	Br	-0.415904	-1.119530	-0.221662
Br164	Br	0.084096	-0.619530	0.278338
H165	H	-0.141145	-0.500842	-0.140330
H166	H	0.358855	-0.000842	0.359670
Br167	Br	-0.730123	-1.337162	0.106229
Br168	Br	-0.230123	-0.837162	0.606229
H169	H	-0.239524	-0.664588	-0.239106
H170	H	0.260476	-0.164588	0.260894
Br171	Br	0.049774	-0.595554	0.051409
Br172	Br	0.549774	-0.095554	0.551409
Br173	Br	-0.819458	-1.259679	-0.010501
Br174	Br	-0.319458	-0.759679	0.489499
H175	H	-0.054377	-0.814117	-0.053186
H176	H	0.445623	-0.314117	0.446814
H177	H	-0.093275	-0.878832	-0.092205
H178	H	0.406725	-0.378832	0.407795
Br179	Br	-0.222942	-1.119525	-0.414157
Br180	Br	0.277058	-0.619525	0.085843
Br181	Br	-0.410594	-1.326321	0.089890
Br182	Br	0.089406	-0.826321	0.589890
Br183	Br	0.104654	-1.337102	-0.728153
Br184	Br	0.604654	-0.837102	-0.228153
H185	H	0.061576	-1.308354	-0.429272
H186	H	0.561576	-0.808354	0.070728
Br187	Br	-0.323166	-1.052693	-0.823142
Br188	Br	0.176834	-0.552693	-0.323142
H189	H	0.005106	-0.715084	0.006574
H190	H	0.505106	-0.215084	0.506574
H191	H	-0.180031	-0.565572	-0.179368
H192	H	0.319969	-0.065572	0.320632
H193	H	-0.652010	-1.047076	-0.330740
H194	H	-0.152010	-0.547076	0.169260
Br195	Br	-0.824769	-1.052880	-0.322038
Br196	Br	-0.324769	-0.552880	0.177962
H197	H	-0.818870	-1.213628	-0.079873
H198	H	-0.318870	-0.713628	0.420127
H199	H	-0.081271	-1.213523	-0.817044
H200	H	0.418729	-0.713523	-0.317044
Br201	Br	-0.284173	-0.784134	-0.283967
Br202	Br	0.215827	-0.284134	0.216033
Br203	Br	-0.253600	-0.966306	-0.253221
Br204	Br	0.246400	-0.466306	0.246779
Br205	Br	-0.339415	-1.041811	-0.503657
Br206	Br	0.160585	-0.541811	-0.003657
H207	H	-0.153481	-1.165383	-0.414780
H208	H	0.346519	-0.665383	0.085220
Br209	Br	-0.369324	-1.021971	-0.625454
Br210	Br	0.130676	-0.521971	-0.125454
H211	H	-0.022606	-1.252515	-0.772045
H212	H	0.477394	-0.752515	-0.272045
Br213	Br	0.134571	-1.356937	-0.606354
Br214	Br	0.634571	-0.856937	-0.106354
