data_functionalizedCrystal
_audit_creation_method	'MofGen! by Chris Wilmer'
_symmetry_space_group_name_H-M	'P1'
_symmetry_Int_Tables_number	1
_symmetry_cell_setting	triclinic
loop_
_symmetry_equiv_pos_as_xyz
  x,y,z
_cell_length_a	16.992694
_cell_length_b	10.654550
_cell_length_c	16.053802
_cell_angle_alpha	92.591674
_cell_angle_beta	87.249047
_cell_angle_gamma	87.576563
loop_
_atom_site_label
_atom_site_type_symbol
_atom_site_fract_x
_atom_site_fract_y
_atom_site_fract_z
O1	O	1.045116	0.261481	-0.069321
O2	O	0.816816	0.258556	-0.069346
O3	O	0.936215	0.077733	-0.069330
O4	O	0.925717	0.442304	-0.069337
O5	O	0.929643	0.087643	0.069528
O6	O	0.810244	0.268466	0.069512
O7	O	1.038544	0.271390	0.069537
Zn8	Zn	0.923350	0.271501	0.091571
Zn9	Zn	0.932009	0.258446	-0.091380
O10	O	0.919145	0.452213	0.069521
C11	C	0.784297	0.259751	0.000080
C12	C	0.697192	0.248531	0.000071
C13	C	0.647540	0.356781	0.000069
C14	C	0.565696	0.346233	0.000081
C15	C	0.533505	0.227432	0.000088
C16	C	0.583163	0.119174	0.000092
C17	C	0.665006	0.129724	0.000087
C18	C	0.289668	0.183707	0.000112
C19	C	0.207819	0.173165	0.000115
C20	C	0.190358	0.400225	0.000105
C21	C	0.272203	0.410765	0.000094
C22	C	0.321854	0.302506	0.000103
N23	N	0.449847	0.216647	0.000098
N24	N	0.405510	0.313293	0.000099
C25	C	0.932158	0.035823	0.000098
C26	C	0.929852	-0.103819	0.000095
C27	C	1.000152	-0.177229	0.000105
C28	C	0.997981	-0.308438	0.000099
C29	C	0.855203	-0.292815	0.000076
C30	C	0.857375	-0.161609	0.000077
C31	C	1.072629	-0.119440	0.000124
C32	C	1.142935	-0.192850	0.000135
C33	C	1.140763	-0.324059	0.000129
C34	C	1.068286	-0.381858	0.000112
C35	C	1.071063	0.270196	0.000109
C36	C	1.158168	0.281416	0.000113
C37	C	0.923202	0.494123	0.000091
C38	C	0.925508	0.633766	0.000089
N39	N	0.917446	0.280411	0.216431
N40	N	0.937920	0.249526	-0.216239
C41	C	0.968269	0.203502	0.260132
C42	C	0.964147	0.209747	0.347538
C43	C	0.909204	0.292909	0.391242
C44	C	0.858376	0.369822	0.347535
C45	C	0.862495	0.363569	0.260130
C46	C	0.891210	0.320186	0.652649
C47	C	0.887096	0.326435	0.740060
C48	C	0.992867	0.166359	0.740057
C49	C	0.996985	0.160119	0.652650
C50	C	0.946153	0.237026	0.608951
N51	N	0.904991	0.299298	0.480585
N52	N	0.950364	0.230631	0.519610
H53	H	0.298407	0.507504	0.000079
H54	H	1.074405	-0.012604	0.000131
H55	H	1.066524	-0.488698	0.000098
C56	C	0.172411	0.042479	0.000125
H57	H	0.213702	-0.020485	0.000135
H58	H	0.143134	0.030188	-0.048298
H59	H	0.138560	0.037110	0.048554
C60	C	1.057417	0.068633	0.604582
H61	H	1.087091	0.023713	0.643128
H62	H	1.091924	0.114699	0.570475
H63	H	1.030513	0.011026	0.570497
C64	C	0.682947	0.487460	0.000059
H65	H	0.738802	0.478243	0.000047
H66	H	0.663662	0.535837	0.048480
H67	H	0.668229	0.528915	-0.048371
H68	H	0.149924	0.488363	0.000100
C69	C	0.344274	0.064627	0.000115
H70	H	0.313378	-0.007634	0.000111
H71	H	0.374278	0.067475	0.048537
H72	H	0.378849	0.060562	-0.048315
H73	H	0.525272	0.434383	0.000079
H74	H	0.796195	-0.339885	0.000064
C75	C	0.547755	-0.011504	0.000099
H76	H	0.491902	-0.002286	0.000093
H77	H	0.562470	-0.052969	0.048521
H78	H	0.567043	-0.059874	-0.048330
C79	C	0.780047	-0.080853	0.000067
H80	H	0.736571	-0.134059	0.000067
H81	H	0.780223	-0.032799	-0.048357
H82	H	0.775635	-0.025891	0.048495
H83	H	1.201944	-0.145783	0.000128
C84	C	1.028706	0.112021	0.212065
H85	H	1.058378	0.067103	0.250613
H86	H	1.063215	0.158085	0.177958
H87	H	1.001803	0.054413	0.177980
C88	C	1.020060	0.125160	0.395605
H89	H	1.053380	0.074751	0.357059
H90	H	0.989959	0.072427	0.429713
H91	H	1.051352	0.176125	0.429690
C92	C	1.048771	0.081753	0.788123
H93	H	1.082084	0.031335	0.749576
H94	H	1.018660	0.029030	0.822228
H95	H	1.080070	0.132703	0.822211
H96	H	0.705432	0.041574	0.000087
C97	C	0.806593	0.448170	0.212056
H98	H	0.816909	0.432527	0.153742
H99	H	0.814888	0.533918	0.226369
H100	H	0.753485	0.430234	0.226389
H101	H	0.842353	0.394161	0.775640
H102	H	0.849823	0.382810	0.617076
H103	H	1.198010	-0.383827	0.000129
C104	C	0.797915	0.461260	0.395603
H105	H	0.768225	0.506149	0.357056
H106	H	0.824786	0.518879	0.429704
H107	H	0.763415	0.415146	0.429694
