data_functionalizedCrystal
_audit_creation_method	'MofGen! by Chris Wilmer'
_symmetry_space_group_name_H-M	'P1'
_symmetry_Int_Tables_number	1
_symmetry_cell_setting	triclinic
loop_
_symmetry_equiv_pos_as_xyz
  x,y,z
_cell_length_a	11.102288
_cell_length_b	11.164115
_cell_length_c	6.817900
_cell_angle_alpha	70.473462
_cell_angle_beta	108.605689
_cell_angle_gamma	88.372889
loop_
_atom_site_label
_atom_site_type_symbol
_atom_site_fract_x
_atom_site_fract_y
_atom_site_fract_z
V1	V	-0.175845	0.396258	-4.122535
O2	O	0.008444	0.388715	-4.081358
O3	O	-0.348665	0.393548	-4.099237
O4	O	-0.173143	0.569080	-4.104116
O5	O	-0.168294	0.211968	-4.076446
V6	V	-0.153802	0.374215	-4.599026
O7	O	-0.224199	0.444610	-4.399220
O8	O	-0.105448	0.325863	-4.772538
O9	O	0.019019	0.376925	-4.399117
O10	O	-0.338091	0.381759	-4.757600
O11	O	-0.161353	0.558506	-4.762512
O12	O	-0.156504	0.201394	-4.394239
C13	C	-0.390795	0.387297	-3.949374
C14	C	-0.532078	0.386233	-4.011812
C15	C	-0.166897	0.611204	-3.955596
C16	C	-0.165831	0.752486	-4.021986
C17	C	-0.604926	0.392074	-4.225329
C18	C	-0.737678	0.391085	-4.283989
C19	C	-0.724719	0.378408	-3.915591
C20	C	-0.591972	0.379406	-3.856939
C21	C	0.061142	0.383173	-4.212322
C22	C	0.202423	0.384245	-4.129125
C23	C	-0.171678	0.825335	-4.237367
C24	C	-0.170672	0.958084	-4.299733
C25	C	-0.157978	0.945124	-3.931318
C26	C	-0.158975	0.812376	-3.868950
C27	C	-0.162758	1.159264	-4.213078
C28	C	-0.163829	1.017983	-4.146719
H29	H	-0.556165	0.397631	-4.351439
H30	H	-0.796986	0.395843	-4.457852
H31	H	-0.154204	0.753058	-3.693550
H32	H	-0.532657	0.374655	-3.683064
H33	H	-0.773501	0.372847	-3.789506
H34	H	-0.177259	0.776577	-4.361981
H35	H	-0.175432	1.017393	-4.475111
H36	H	-0.152398	0.993903	-3.806732
