data_functionalizedCrystal
_audit_creation_method	'MofGen! by Chris Wilmer'
_symmetry_space_group_name_H-M	'P1'
_symmetry_Int_Tables_number	1
_symmetry_cell_setting	triclinic
loop_
_symmetry_equiv_pos_as_xyz
  x,y,z
_cell_length_a	12.759401
_cell_length_b	19.121111
_cell_length_c	12.759393
_cell_angle_alpha	92.406076
_cell_angle_beta	90.019676
_cell_angle_gamma	87.529375
loop_
_atom_site_label
_atom_site_type_symbol
_atom_site_fract_x
_atom_site_fract_y
_atom_site_fract_z
Zn1	Zn	1.588323	0.279571	0.611790
Zn2	Zn	1.580674	0.397038	0.443591
Zn3	Zn	1.412619	0.279606	0.436131
Zn4	Zn	1.405077	0.396986	0.619229
O5	O	1.496673	0.338300	0.527685
O6	O	1.734329	0.295160	0.589487
O7	O	1.558337	0.381496	0.295583
O8	O	1.442284	0.181317	0.453197
O9	O	1.728709	0.381462	0.465912
O10	O	1.571372	0.181291	0.582253
O11	O	1.434867	0.295220	0.290102
O12	O	1.264598	0.295170	0.460411
O13	O	1.429430	0.381375	0.765261
O14	O	1.259057	0.381409	0.594932
O15	O	1.564059	0.295110	0.759796
O16	O	1.551024	0.495315	0.473125
O17	O	1.422013	0.495277	0.602166
C18	C	1.223707	0.338288	0.527670
C19	C	1.106929	0.338300	0.527689
C20	C	1.054989	0.293444	0.592143
C21	C	0.945264	0.293451	0.592151
C22	C	0.939430	0.383177	0.463247
C23	C	1.049153	0.383165	0.463235
C24	C	1.484899	0.520780	0.539285
C25	C	1.479958	0.598846	0.544283
C26	C	1.544857	0.635518	0.479502
C27	C	1.540217	0.708869	0.484208
C28	C	1.470670	0.745547	0.553691
C29	C	1.405767	0.708870	0.618479
C30	C	1.410414	0.635520	0.613777
C31	C	1.453281	0.967015	0.571250
C32	C	1.448637	1.040370	0.575945
C33	C	1.583088	1.040364	0.441675
C34	C	1.587724	0.967013	0.436975
C35	C	1.522826	0.930343	0.501767
C36	C	1.465922	0.820523	0.558501
C37	C	1.527579	0.855367	0.496962
C38	C	1.770706	0.338313	0.527702
C39	C	1.887482	0.338318	0.527709
C40	C	1.496756	0.338233	0.801714
C41	C	1.496792	0.338204	0.918489
C42	C	1.508514	1.155108	0.516077
C43	C	1.513537	1.077042	0.511164
C44	C	1.496654	0.338317	0.254719
C45	C	1.496835	0.338148	0.137932
C46	C	1.566899	0.293279	0.970507
C47	C	1.566918	0.293249	1.080229
C48	C	1.426721	0.383075	1.085907
C49	C	1.426697	0.383101	0.976187
H50	H	1.091444	0.419694	0.410743
Br51	Br	1.639237	0.585748	0.385189
H52	H	0.892375	0.419705	0.410772
H53	H	1.369600	0.419684	0.933833
H54	H	1.349146	0.738739	0.675058
Br55	Br	1.365205	0.917257	0.659183
H56	H	1.369654	0.419630	1.132898
H57	H	1.357567	0.605663	0.666530
Br58	Br	1.628305	0.758635	0.396293
H59	H	1.584208	0.825502	0.440393
Br60	Br	1.662025	0.232347	0.892206
H61	H	1.102027	0.256909	0.644623
H62	H	1.644355	0.937151	0.380397
Br63	Br	1.671165	1.090135	0.353754
H64	H	1.409295	0.850394	0.615072
H65	H	1.624005	0.256665	1.122576
H66	H	1.392016	1.070231	0.632544
H67	H	0.902979	0.256923	0.644634
