data_functionalizedCrystal
_audit_creation_method	'MofGen! by Chris Wilmer'
_symmetry_space_group_name_H-M	'P1'
_symmetry_Int_Tables_number	1
_symmetry_cell_setting	triclinic
loop_
_symmetry_equiv_pos_as_xyz
  x,y,z
_cell_length_a	16.625548
_cell_length_b	12.759400
_cell_length_c	12.759393
_cell_angle_alpha	90.031564
_cell_angle_beta	89.978332
_cell_angle_gamma	89.984247
loop_
_atom_site_label
_atom_site_type_symbol
_atom_site_fract_x
_atom_site_fract_y
_atom_site_fract_z
Zn1	Zn	1.232733	0.418174	-0.594070
Zn2	Zn	1.732733	0.918174	-0.094070
Zn3	Zn	1.232652	0.593893	-0.418390
Zn4	Zn	1.732652	1.093893	0.081610
Zn5	Zn	1.097892	0.418232	-0.418400
Zn6	Zn	1.597892	0.918232	0.081600
Zn7	Zn	1.097883	0.593815	-0.594022
Zn8	Zn	1.597883	1.093815	-0.094022
O9	O	1.165290	0.506029	-0.506221
O10	O	1.665290	1.006029	-0.006221
O11	O	1.345554	0.441492	-0.570782
O12	O	1.845554	0.941492	-0.070782
O13	O	1.214745	0.570648	-0.271371
O14	O	1.714745	1.070648	0.228629
O15	O	1.115817	0.271203	-0.441727
O16	O	1.615817	0.771203	0.058273
O17	O	1.345495	0.570592	-0.441711
O18	O	1.845495	1.070592	0.058289
O19	O	1.214883	0.271161	-0.570791
O20	O	1.714883	0.771161	-0.070791
O21	O	1.115738	0.441591	-0.271378
O22	O	1.615738	0.941591	0.228622
O23	O	0.985059	0.441515	-0.441680
O24	O	1.485059	0.941515	0.058320
O25	O	1.115802	0.570459	-0.741050
O26	O	1.615802	1.070459	-0.241050
O27	O	0.985052	0.570515	-0.570709
O28	O	1.485052	1.070515	-0.070709
O29	O	1.214875	0.441417	-0.741085
O30	O	1.714875	0.941417	-0.241085
O31	O	1.214737	0.740904	-0.441664
O32	O	1.714737	1.240904	0.058336
O33	O	1.115723	0.740847	-0.570700
O34	O	1.615723	1.240847	-0.070700
C35	C	1.165242	0.778996	-0.506199
C36	C	1.665242	1.278996	-0.006199
C37	C	1.165295	0.895773	-0.506225
C38	C	1.665295	1.395773	-0.006225
C39	C	0.955799	0.506014	-0.506191
C40	C	1.455799	1.006014	-0.006191
C41	C	0.866178	0.506033	-0.506204
C42	C	1.366178	1.006033	-0.006204
C43	C	1.165346	0.505923	-0.780254
C44	C	1.665346	1.005923	-0.280254
C45	C	1.165371	0.505878	-0.897031
C46	C	1.665371	1.005878	-0.397031
C47	C	0.538002	0.506039	-0.506249
C48	C	1.038002	1.006039	-0.006249
C49	C	0.629311	0.506035	-0.506233
C50	C	1.129311	1.006035	-0.006233
C51	C	0.702087	0.506037	-0.506225
C52	C	1.202087	1.006037	-0.006225
C53	C	0.793402	0.506031	-0.506211
C54	C	1.293402	1.006031	-0.006211
C55	C	1.375599	0.506045	-0.506251
C56	C	1.875599	1.006045	-0.006251
C57	C	1.465220	0.506051	-0.506264
C58	C	1.965220	1.006051	-0.006264
C59	C	1.165360	0.231995	-0.506266
C60	C	1.665360	0.731995	-0.006266
C61	C	1.165390	0.115219	-0.506285
C62	C	1.665390	0.615219	-0.006285
C63	C	1.216909	0.950630	-0.439110
C64	C	1.716909	1.450630	0.060890
C65	C	1.216959	1.060354	-0.439142
C66	C	1.716959	1.560354	0.060858
C67	C	1.113774	1.060354	-0.573407
C68	C	1.613774	1.560354	-0.073407
C69	C	1.113729	0.950632	-0.573379
C70	C	1.613729	1.450632	-0.073379
C71	C	1.268476	0.895770	-0.371955
C72	C	1.768476	1.395770	0.128045
C73	C	1.320093	0.950627	-0.304834
C74	C	1.820093	1.450627	0.195166
C75	C	1.320142	1.060351	-0.304867
C76	C	1.820142	1.560351	0.195133
C77	C	1.268575	1.115218	-0.372020
C78	C	1.768575	1.615218	0.127980
C79	C	1.216965	0.438679	-0.951913
C80	C	1.716965	0.938679	-0.451913
C81	C	1.216984	0.438641	-1.061637
C82	C	1.716984	0.938641	-0.561637
C83	C	1.113812	0.573010	-1.061587
C84	C	1.613812	1.073010	-0.561587
C85	C	1.113789	0.573041	-0.951865
C86	C	1.613789	1.073041	-0.451865
C87	C	1.268546	0.371515	-0.897079
C88	C	1.768546	0.871515	-0.397079
C89	C	1.320146	0.304311	-0.951961
C90	C	1.820146	0.804311	-0.451961
C91	C	1.320165	0.304273	-1.061685
C92	C	1.820165	0.804273	-0.561685
C93	C	1.268585	0.371439	-1.116527
C94	C	1.768585	0.871439	-0.616527
C95	C	1.165280	0.506058	-0.233253
C96	C	1.665280	1.006058	0.266747
C97	C	1.165412	0.505808	-0.116477
C98	C	1.665412	1.005808	0.383523
H99	H	1.268439	0.806428	-0.371918
H100	H	1.768439	1.306428	0.128082
H101	H	1.071701	0.905967	-0.628031
H102	H	1.571701	1.405967	-0.128031
C103	C	1.057084	0.646893	-1.121906
C104	C	1.557084	1.146893	-0.621906
H105	H	1.026347	0.686915	-1.073504
H106	H	1.526347	1.186915	-0.573504
H107	H	1.087925	0.692659	-1.164701
H108	H	1.587925	1.192659	-0.664701
H109	H	1.021969	0.606681	-1.164713
H110	H	1.521969	1.106681	-0.664713
C111	C	1.268599	0.371395	-1.237221
C112	C	1.768599	0.871395	-0.737221
H113	H	1.230490	0.421016	-1.262019
H114	H	1.730490	0.921016	-0.762019
H115	H	1.320630	0.389556	-1.262053
H116	H	1.820630	0.889556	-0.762053
H117	H	1.254671	0.303582	-1.262050
H118	H	1.754671	0.803582	-0.762050
C119	C	1.376817	0.890284	-0.230975
C120	C	1.876817	1.390284	0.269025
H121	H	1.407570	0.938673	-0.191016
H122	H	1.907570	1.438673	0.308984
H123	H	1.345975	0.847553	-0.185149
H124	H	1.845975	1.347553	0.314851
H125	H	1.411917	0.847411	-0.271201
H126	H	1.911917	1.347411	0.228799
C127	C	1.376877	0.230434	-0.891640
C128	C	1.876877	0.730434	-0.391640
H129	H	1.369483	0.240086	-0.818433
H130	H	1.869483	0.740086	-0.318433
H131	H	1.365102	0.159836	-0.909634
H132	H	1.865102	0.659836	-0.409634
H133	H	1.431054	0.245818	-0.909631
H134	H	1.931054	0.745818	-0.409631
C135	C	1.057050	1.120700	-0.647265
C136	C	1.557050	1.620700	-0.147265
H137	H	1.026308	1.072314	-0.687240
H138	H	1.526308	1.572314	-0.187240
H139	H	1.021953	1.163573	-0.607046
H140	H	1.521953	1.663573	-0.107046
H141	H	1.087899	1.163432	-0.693092
H142	H	1.587899	1.663432	-0.193092
C143	C	1.057039	0.646957	-0.891486
C144	C	1.557039	1.146957	-0.391486
H145	H	1.064408	0.637347	-0.818287
H146	H	1.564408	1.137347	-0.318287
H147	H	1.068820	0.717546	-0.909447
H148	H	1.568820	1.217546	-0.409447
H149	H	1.002869	0.631561	-0.909463
H150	H	1.502869	1.131561	-0.409463
C151	C	1.268525	0.371550	-0.776387
C152	C	1.768525	0.871550	-0.276387
H153	H	1.306628	0.321922	-0.751587
H154	H	1.806628	0.821922	-0.251587
H155	H	1.282439	0.439359	-0.751551
H156	H	1.782439	0.939359	-0.251551
H157	H	1.216490	0.353372	-0.751563
H158	H	1.716490	0.853372	-0.251563
C159	C	1.376911	1.120697	-0.231035
C160	C	1.876911	1.620697	0.268965
H161	H	1.369559	1.193901	-0.240672
H162	H	1.869559	1.693901	0.259328
H163	H	1.365123	1.102781	-0.160430
H164	H	1.865123	1.602781	0.339570
H165	H	1.431078	1.102646	-0.246465
H166	H	1.931078	1.602646	0.253535
C167	C	1.268633	1.235912	-0.372059
C168	C	1.768633	1.735912	0.127941
H169	H	1.306757	1.260728	-0.322468
H170	H	1.806757	1.760728	0.177532
H171	H	1.282558	1.260661	-0.439882
H172	H	1.782558	1.760661	0.060118
H173	H	1.216617	1.260807	-0.353829
H174	H	1.716617	1.760807	0.146171
H175	H	1.362174	0.249546	-1.106367
H176	H	1.862174	0.749546	-0.606367
