data_functionalizedCrystal
_audit_creation_method	'MofGen! by Chris Wilmer'
_symmetry_space_group_name_H-M	'P1'
_symmetry_Int_Tables_number	1
_symmetry_cell_setting	triclinic
loop_
_symmetry_equiv_pos_as_xyz
  x,y,z
_cell_length_a	10.654545
_cell_length_b	12.837942
_cell_length_c	9.730223
_cell_angle_alpha	89.996108
_cell_angle_beta	89.997167
_cell_angle_gamma	89.656010
loop_
_atom_site_label
_atom_site_type_symbol
_atom_site_fract_x
_atom_site_fract_y
_atom_site_fract_z
O1	O	1.683742	0.145700	-0.114275
O2	O	1.319778	0.159589	-0.114281
O3	O	1.493690	0.001684	-0.114270
O4	O	1.509830	0.303605	-0.114287
O5	O	1.493677	0.001679	0.114310
O6	O	1.319765	0.159584	0.114299
O7	O	1.683729	0.145696	0.114305
Zn8	Zn	1.501745	0.152639	0.150594
Zn9	Zn	1.501762	0.152645	-0.150570
O10	O	1.509818	0.303601	0.114293
C11	C	1.272863	0.158568	0.000008
C12	C	1.133086	0.155520	0.000006
C13	C	1.067418	0.154082	0.124606
C14	C	0.936084	0.151201	0.124606
C15	C	0.936098	0.151199	-0.124604
C16	C	1.067430	0.154073	-0.124603
C17	C	1.488230	-0.036978	0.000019
C18	C	1.471968	-0.152172	0.000017
C19	C	1.667472	-0.391727	-0.000009
C20	C	1.652198	-0.499963	-0.000012
C21	C	1.426147	-0.476880	-0.000001
C22	C	1.441421	-0.368645	0.000002
C23	C	1.562087	-0.326073	-0.000000
C24	C	1.577361	-0.217835	0.000012
C25	C	1.351310	-0.194755	0.000013
C26	C	1.336036	-0.302990	0.000010
C27	C	1.730645	0.146717	0.000012
C28	C	1.870421	0.149765	0.000005
C29	C	1.515277	0.342263	0.000001
C30	C	1.531539	0.457456	-0.000005
N31	N	1.501743	0.152635	0.356130
N32	N	1.501773	0.152641	-0.356107
C33	C	1.578783	0.082744	0.428061
C34	C	1.578796	0.082745	0.571944
C35	C	1.424724	0.222535	0.571952
C36	C	1.424706	0.222529	0.428072
H37	H	1.675613	-0.183175	0.000016
Cl38	Cl	1.675623	-0.005127	0.337625
H39	H	1.120899	0.155240	-0.226073
Cl40	Cl	1.675647	-0.005123	0.662367
Cl41	Cl	1.327888	0.310402	0.662400
H42	H	0.882625	0.150022	-0.226057
H43	H	1.361965	0.279443	0.369502
Cl44	Cl	1.218818	-0.112210	0.000041
H45	H	0.882623	0.150031	0.226068
Cl46	Cl	1.149954	0.155895	0.281257
H47	H	1.765724	-0.357065	0.000003
Cl48	Cl	1.784688	-0.582498	-0.000027
H49	H	1.327905	-0.511562	-0.000014
H50	H	1.237792	-0.337668	0.000007
