data_functionalizedCrystal
_audit_creation_method	'MofGen! by Chris Wilmer'
_symmetry_space_group_name_H-M	'P1'
_symmetry_Int_Tables_number	1
_symmetry_cell_setting	triclinic
loop_
_symmetry_equiv_pos_as_xyz
  x,y,z
_cell_length_a	21.395364
_cell_length_b	21.395362
_cell_length_c	21.395355
_cell_angle_alpha	89.980094
_cell_angle_beta	90.025600
_cell_angle_gamma	89.975000
loop_
_atom_site_label
_atom_site_type_symbol
_atom_site_fract_x
_atom_site_fract_y
_atom_site_fract_z
Zn1	Zn	-0.957873	-0.249553	-0.354273
Zn2	Zn	-0.457873	0.250447	0.145727
Zn3	Zn	-0.957781	-0.354313	-0.249493
Zn4	Zn	-0.457781	0.145687	0.250507
Zn5	Zn	-0.853088	-0.249548	-0.249508
Zn6	Zn	-0.353088	0.250452	0.250492
Zn7	Zn	-0.853063	-0.354292	-0.354231
Zn8	Zn	-0.353063	0.145708	0.145769
O9	O	-0.905451	-0.301926	-0.301876
O10	O	-0.405451	0.198074	0.198124
O11	O	-1.045539	-0.263460	-0.340385
O12	O	-0.545539	0.236540	0.159615
O13	O	-0.943866	-0.340422	-0.161817
O14	O	-0.443866	0.159578	0.338183
O15	O	-0.867037	-0.161871	-0.263429
O16	O	-0.367037	0.338129	0.236571
O17	O	-1.045471	-0.340427	-0.263403
O18	O	-0.545471	0.159573	0.236597
O19	O	-0.944022	-0.161874	-0.340399
O20	O	-0.444022	0.338126	0.159601
O21	O	-0.866948	-0.263452	-0.161828
O22	O	-0.366948	0.236548	0.338172
O23	O	-0.765407	-0.263432	-0.263388
O24	O	-0.265407	0.236568	0.236612
O25	O	-0.866994	-0.340391	-0.441915
O26	O	-0.366994	0.159609	0.058085
O27	O	-0.765388	-0.340387	-0.340328
O28	O	-0.265388	0.159613	0.159672
O29	O	-0.943998	-0.263440	-0.441945
O30	O	-0.443998	0.236560	0.058055
O31	O	-0.943841	-0.441988	-0.263363
O32	O	-0.443841	0.058012	0.236637
O33	O	-0.866905	-0.441973	-0.340314
O34	O	-0.366905	0.058027	0.159686
C35	C	-0.742664	-0.301907	-0.301856
C36	C	-0.242664	0.198093	0.198144
C37	C	-0.673022	-0.301914	-0.301862
C38	C	-0.173022	0.198086	0.198138
C39	C	-0.171233	-0.342059	-0.341889
C40	C	0.328767	0.157941	0.158111
C41	C	-0.236669	-0.342061	-0.341883
C42	C	0.263331	0.157939	0.158117
C43	C	-0.269384	-0.301931	-0.301886
C44	C	0.230616	0.198069	0.198114
C45	C	-0.236659	-0.261809	-0.261881
C46	C	0.263341	0.238191	0.238119
C47	C	-0.171225	-0.261813	-0.261883
C48	C	0.328775	0.238187	0.238117
C49	C	-0.373070	-0.245467	-0.297038
C50	C	0.126930	0.254533	0.202962
C51	C	-0.438503	-0.245462	-0.297040
C52	C	0.061497	0.254538	0.202960
C53	C	-0.471205	-0.301917	-0.301876
C54	C	0.028795	0.198083	0.198124
C55	C	-0.438466	-0.358380	-0.306722
C56	C	0.061534	0.141620	0.193278
C57	C	-0.373032	-0.358385	-0.306724
C58	C	0.126968	0.141615	0.193276
C59	C	-0.340337	-0.301922	-0.301879
C60	C	0.159663	0.198078	0.198121
C61	C	-0.574875	-0.342041	-0.341870
C62	C	-0.074875	0.157959	0.158130
C63	C	-0.640311	-0.342044	-0.341860
C64	C	-0.140311	0.157956	0.158140
C65	C	-0.640301	-0.261786	-0.261860
C66	C	-0.140301	0.238214	0.238140
C67	C	-0.574865	-0.261790	-0.261867
C68	C	-0.074865	0.238210	0.238133
C69	C	-0.542156	-0.301916	-0.301875
C70	C	-0.042156	0.198084	0.198125
C71	C	-0.905378	-0.464714	-0.301846
C72	C	-0.405378	0.035286	0.198154
C73	C	-0.905404	-0.534355	-0.301854
C74	C	-0.405404	-0.034355	0.198146
C75	C	-0.068875	-0.301942	-0.301893
C76	C	0.431125	0.198058	0.198107
C77	C	-0.138516	-0.301940	-0.301891
C78	C	0.361484	0.198060	0.198109
C79	C	-0.945663	-1.036139	-0.261910
C80	C	-0.445663	-0.536139	0.238090
C81	C	-0.945639	-0.970703	-0.261895
C82	C	-0.445639	-0.470703	0.238105
C83	C	-0.905540	-0.937994	-0.301921
C84	C	-0.405540	-0.437994	0.198079
C85	C	-0.865451	-0.970725	-0.341953
C86	C	-0.365451	-0.470725	0.158047
C87	C	-0.865471	-1.036159	-0.341962
C88	C	-0.365471	-0.536159	0.158038
C89	C	-0.900532	-0.834303	-0.358351
C90	C	-0.400532	-0.334303	0.141649
C91	C	-0.900516	-0.768870	-0.358343
C92	C	-0.400516	-0.268870	0.141657
C93	C	-0.905474	-0.736173	-0.301893
C94	C	-0.405474	-0.236173	0.198107
C95	C	-0.910460	-0.768917	-0.245448
C96	C	-0.410460	-0.268917	0.254552
C97	C	-0.910480	-0.834351	-0.245457
C98	C	-0.410480	-0.334351	0.254543
C99	C	-0.905513	-0.867041	-0.301915
C100	C	-0.405513	-0.367041	0.198085
C101	C	-0.945532	-0.632497	-0.261844
C102	C	-0.445532	-0.132497	0.238156
C103	C	-0.945504	-0.567060	-0.261828
C104	C	-0.445504	-0.067060	0.238172
C105	C	-0.865318	-0.567083	-0.341892
C106	C	-0.365318	-0.067083	0.158108
C107	C	-0.865343	-0.632519	-0.341902
C108	C	-0.365343	-0.132519	0.158098
C109	C	-0.905453	-0.665222	-0.301879
C110	C	-0.405453	-0.165222	0.198121
C111	C	-0.905503	-0.301914	-0.465299
C112	C	-0.405503	0.198086	0.034701
C113	C	-0.905526	-0.301908	-0.534941
C114	C	-0.405526	0.198092	-0.034941
C115	C	-0.905542	-0.138503	-0.301920
C116	C	-0.405542	0.361497	0.198080
C117	C	-0.905581	-0.068862	-0.301939
C118	C	-0.405581	0.431138	0.198061
C119	C	-0.945619	-0.261838	-0.567671
C120	C	-0.445619	0.238162	-0.067671
C121	C	-0.945619	-0.261811	-0.633106
C122	C	-0.445619	0.238189	-0.133106
C123	C	-0.905530	-0.301866	-0.665809
C124	C	-0.405530	0.198134	-0.165809
C125	C	-0.865429	-0.341939	-0.633071
C126	C	-0.365429	0.158061	-0.133071
C127	C	-0.865426	-0.341960	-0.567637
C128	C	-0.365426	0.158040	-0.067637
C129	C	-0.900558	-0.358281	-0.769473
C130	C	-0.400558	0.141719	-0.269473
C131	C	-0.900564	-0.358261	-0.834906
C132	C	-0.400564	0.141739	-0.334906
C133	C	-0.905534	-0.301799	-0.867630
C134	C	-0.405534	0.198201	-0.367630
C135	C	-0.910510	-0.245357	-0.834913
C136	C	-0.410510	0.254643	-0.334913
C137	C	-0.910508	-0.245378	-0.769479
C138	C	-0.410508	0.254622	-0.269479
C139	C	-0.905528	-0.301847	-0.736762
C140	C	-0.405528	0.198153	-0.236762
C141	C	-0.945629	-0.261697	-0.971313
C142	C	-0.445629	0.238303	-0.471313
C143	C	-0.945624	-0.261669	-1.036749
C144	C	-0.445624	0.238331	-0.536749
C145	C	-0.865438	-0.341802	-1.036713
C146	C	-0.365438	0.158198	-0.536713
C147	C	-0.865439	-0.341824	-0.971278
C148	C	-0.365439	0.158176	-0.471278
C149	C	-0.905539	-0.301772	-0.938581
C150	C	-0.405539	0.198228	-0.438581
C151	C	-0.905436	-0.301894	-0.139089
C152	C	-0.405436	0.198106	0.360911
C153	C	-0.905535	-0.301723	-0.069448
C154	C	-0.405535	0.198277	0.430552
H155	H	-0.465091	-0.404352	-0.310664
H156	H	0.034909	0.095648	0.189336
F157	F	-0.895274	-0.418331	-0.869720
F158	F	-0.395274	0.081669	-0.369720
H159	H	-0.978267	-0.229178	-0.659760
H160	H	-0.478267	0.270822	-0.159760
F161	F	-0.988216	-0.667304	-0.219245
F162	F	-0.488216	-0.167304	0.280755
H163	H	-0.914498	-0.742296	-0.199481
H164	H	-0.414498	-0.242296	0.300519
H165	H	-0.832706	-0.659162	-0.374500
H166	H	-0.332706	-0.159162	0.125500
F167	F	-0.915801	-0.185310	-0.734661
F168	F	-0.415801	0.314690	-0.234661
F169	F	-0.988350	-1.070940	-0.219311
F170	F	-0.488350	-0.570940	0.280689
F171	F	-0.822810	-1.070987	-0.384570
F172	F	-0.322810	-0.570987	0.115430
F173	F	-0.822635	-0.532276	-0.384485
F174	F	-0.322635	-0.032276	0.115515
F175	F	-0.822751	-0.384610	-0.532802
F176	F	-0.322751	0.115390	-0.032802
H177	H	-0.548226	-0.229118	-0.229298
H178	H	-0.048226	0.270882	0.270702
H179	H	-0.978271	-0.229224	-0.541054
H180	H	-0.478271	0.270776	-0.041054
F181	F	-0.136426	-0.384769	-0.384466
F182	F	0.363574	0.115231	0.115534
H183	H	-0.978141	-0.540417	-0.229228
H184	H	-0.478141	-0.040417	0.270772
H185	H	-0.914558	-0.199381	-0.861555
H186	H	-0.414558	0.300619	-0.361555
H187	H	-0.832800	-0.944090	-0.374542
H188	H	-0.332800	-0.444090	0.125458
F189	F	-0.895214	-0.734027	-0.418416
F190	F	-0.395214	-0.234027	0.081584
H191	H	-0.896609	-0.860919	-0.404333
H192	H	-0.396609	-0.360919	0.095667
H193	H	-0.832791	-0.374409	-1.063339
H194	H	-0.332791	0.125591	-0.563339
H195	H	-0.978277	-0.229081	-0.944690
H196	H	-0.478277	0.270919	-0.444690
H197	H	-0.263312	-0.374731	-0.374456
H198	H	0.236688	0.125269	0.125544
F199	F	-0.988307	-0.219025	-1.071583
F200	F	-0.488307	0.280975	-0.571583
H201	H	-0.832794	-0.374458	-0.944628
H202	H	-0.332794	0.125542	-0.444628
F203	F	-0.895282	-0.418380	-0.734652
F204	F	-0.395282	0.081620	-0.234652
F205	F	-0.473340	-0.185369	-0.291890
F206	F	0.026660	0.314631	0.208110
H207	H	-0.346379	-0.404359	-0.310669
H208	H	0.153621	0.095641	0.189331
F209	F	-0.540061	-0.384750	-0.384447
F210	F	-0.040061	0.115250	0.115553
H211	H	-0.666949	-0.374718	-0.374429
H212	H	-0.166949	0.125282	0.125571
F213	F	-0.675114	-0.219082	-0.219287
F214	F	-0.175114	0.280918	0.280713
H215	H	-0.346449	-0.199492	-0.293090
H216	H	0.153551	0.300508	0.206910
F217	F	-0.271478	-0.219102	-0.219311
F218	F	0.228522	0.280898	0.280689
F219	F	-0.136404	-0.219110	-0.219310
F220	F	0.363596	0.280890	0.280690
H221	H	-0.978279	-0.944055	-0.229297
H222	H	-0.478279	-0.444055	0.270703
H223	H	-0.832787	-0.374549	-0.659702
H224	H	-0.332787	0.125451	-0.159702
H225	H	-0.914539	-0.861009	-0.199498
H226	H	-0.414539	-0.361009	0.300502
