data_functionalizedCrystal
_audit_creation_method	'MofGen! by Chris Wilmer'
_symmetry_space_group_name_H-M	'P1'
_symmetry_Int_Tables_number	1
_symmetry_cell_setting	triclinic
loop_
_symmetry_equiv_pos_as_xyz
  x,y,z
_cell_length_a	11.026607
_cell_length_b	16.109301
_cell_length_c	9.483334
_cell_angle_alpha	80.660810
_cell_angle_beta	78.643382
_cell_angle_gamma	83.976251
loop_
_atom_site_label
_atom_site_type_symbol
_atom_site_fract_x
_atom_site_fract_y
_atom_site_fract_z
O1	O	1.591103	-0.358315	0.120914
O2	O	2.091103	0.141685	0.620914
O3	O	1.237813	-0.318674	0.120913
O4	O	1.737813	0.181326	0.620913
O5	O	1.424165	-0.218917	0.120898
O6	O	1.924165	0.281083	0.620898
O7	O	1.404750	-0.458072	0.120928
O8	O	1.904750	0.041928	0.620928
O9	O	1.461987	-0.198546	-0.120880
O10	O	1.961987	0.301454	0.379120
O11	O	1.275634	-0.298303	-0.120865
O12	O	1.775634	0.201697	0.379135
O13	O	1.628924	-0.337944	-0.120865
O14	O	2.128924	0.162056	0.379135
Cu15	Cu	1.455733	-0.316264	-0.142941
Cu16	Cu	1.955733	0.183736	0.357059
Cu17	Cu	1.411004	-0.340355	0.142990
Cu18	Cu	1.911004	0.159645	0.642990
O19	O	1.442572	-0.437701	-0.120850
O20	O	1.942572	0.062299	0.379150
C21	C	1.211515	-0.301175	0.000023
C22	C	1.711515	0.198825	0.500023
C23	C	1.076810	-0.279374	0.000023
C24	C	1.576810	0.220626	0.500023
N25	N	1.487201	-0.299320	-0.344050
N26	N	1.987201	0.200680	0.155950
C27	C	1.442290	-0.177638	0.000009
C28	C	1.942290	0.322362	0.500009
C29	C	1.439933	-0.084990	0.000007
C30	C	1.939933	0.415010	0.500007
C31	C	1.002979	-0.339571	0.000031
C32	C	1.502979	0.160429	0.500031
C33	C	0.863754	-0.317040	0.000030
C34	C	1.363754	0.182960	0.500030
C35	C	1.655221	-0.355443	0.000028
C36	C	2.155221	0.144557	0.500028
C37	C	1.789925	-0.377245	0.000038
C38	C	2.289925	0.122755	0.500038
C39	C	1.424447	-0.478980	0.000043
C40	C	1.924447	0.021020	0.500043
C41	C	1.426802	-0.571630	0.000054
C42	C	1.926802	-0.071630	0.500054
C43	C	1.545025	0.121532	0.000030
C44	C	2.045025	0.621532	0.500030
C45	C	1.542799	0.208585	0.000042
C46	C	2.042799	0.708585	0.500042
C47	C	1.321701	0.221843	0.000036
C48	C	1.821701	0.721843	0.500036
C49	C	1.323927	0.134791	0.000034
C50	C	1.823927	0.634791	0.500034
C51	C	1.435594	0.084638	0.000024
C52	C	1.935594	0.584638	0.500024
C53	C	1.431141	0.258743	0.000037
C54	C	1.931141	0.758743	0.500037
C55	C	1.428727	0.353129	0.000050
C56	C	1.928727	0.853129	0.500050
C57	C	1.438008	-0.009755	0.000014
C58	C	1.938008	0.490245	0.500014
C59	C	1.420272	-0.335355	-0.416274
C60	C	1.920272	0.164645	0.083726
C61	C	1.446485	-0.321253	-0.583682
C62	C	1.946485	0.178747	-0.083682
N63	N	1.379546	-0.357293	0.344098
N64	N	1.879546	0.142707	0.844098
H65	H	1.042844	-0.407786	0.000031
H66	H	1.542844	0.092214	0.500031
H67	H	1.234809	0.104751	0.000033
H68	H	1.734809	0.604751	0.500033
N69	N	0.810976	-0.226670	0.000001
N70	N	1.310976	0.273330	0.500001
H71	H	0.719001	-0.223383	-0.000002
H72	H	1.219001	0.276617	0.499998
H73	H	0.825347	-0.205641	0.089626
H74	H	1.325347	0.294359	0.589626
H75	H	1.302838	-0.398590	-0.593806
H76	H	1.802838	0.101410	-0.093806
H77	H	1.230786	0.262688	0.000041
H78	H	1.730786	0.762688	0.500041
H79	H	0.829782	-0.445466	0.000037
H80	H	1.329782	0.054534	0.500037
H81	H	1.343569	-0.376649	-0.354175
H82	H	1.843569	0.123351	0.145825
N83	N	1.660825	0.248383	0.000041
N84	N	2.160825	0.748383	0.500041
H85	H	1.695526	0.222778	0.089664
H86	H	2.195526	0.722778	0.589664
H87	H	1.723473	0.237886	-0.089650
H88	H	2.223473	0.737886	0.410350
H89	H	1.563912	-0.258033	-0.406151
H90	H	2.063912	0.241967	0.093849
H91	H	1.523201	-0.279964	-0.645777
H92	H	2.023201	0.220036	-0.145777
H93	H	1.635950	0.080700	0.000025
H94	H	2.135950	0.580700	0.500025
N95	N	1.024027	-0.189009	-0.000006
N96	N	1.524027	0.310991	0.499994
H97	H	0.932052	-0.185722	-0.000009
H98	H	1.432052	0.314278	0.499991
H99	H	1.038398	-0.167980	0.089618
H100	H	1.538398	0.332020	0.589618
