data_functionalizedCrystal
_audit_creation_method	'MofGen! by Chris Wilmer'
_symmetry_space_group_name_H-M	'P1'
_symmetry_Int_Tables_number	1
_symmetry_cell_setting	triclinic
loop_
_symmetry_equiv_pos_as_xyz
  x,y,z
_cell_length_a	15.944480
_cell_length_b	17.038272
_cell_length_c	15.021413
_cell_angle_alpha	90.004029
_cell_angle_beta	90.006395
_cell_angle_gamma	92.709298
loop_
_atom_site_label
_atom_site_type_symbol
_atom_site_fract_x
_atom_site_fract_y
_atom_site_fract_z
O1	O	-1.121746	0.100562	-0.074014
O2	O	-0.878080	0.113052	-0.074020
O3	O	-0.998465	-0.007008	-0.074010
O4	O	-1.001361	0.220623	-0.074024
O5	O	-0.998446	-0.006991	0.074054
O6	O	-0.878061	0.113069	0.074044
O7	O	-1.121727	0.100579	0.074050
Zn8	Zn	-0.999891	0.106827	0.097556
Zn9	Zn	-0.999916	0.106804	-0.097525
O10	O	-1.001342	0.220640	0.074040
C11	C	-0.846739	0.112552	0.000011
C12	C	-0.753381	0.111027	0.000009
C13	C	-0.995821	-0.036128	0.000022
C14	C	-0.987962	-0.122922	0.000022
C15	C	-0.522666	0.181704	0.000003
C16	C	-0.469377	0.143606	0.073012
C17	C	-0.582457	0.108200	0.000010
C18	C	-0.469400	0.143572	-0.072968
C19	C	-0.417352	0.105476	0.000007
C20	C	-0.530398	0.070123	0.073080
C21	C	-0.530424	0.070099	-0.072966
C22	C	-0.477164	0.031948	0.000061
C23	C	-0.677570	0.109772	0.000013
C24	C	-0.322242	0.103899	0.000011
C25	C	-1.060120	-0.173031	0.000024
C26	C	-1.052730	-0.254582	0.000016
C27	C	-0.973181	-0.286022	0.000011
C28	C	-0.901017	-0.235906	0.000005
C29	C	-0.908408	-0.154356	0.000008
C30	C	-0.947072	-0.531781	-0.000002
C31	C	-0.939687	-0.613337	-0.000002
C32	C	-1.091401	-0.632008	0.000007
C33	C	-1.098784	-0.550457	0.000015
C34	C	-1.026620	-0.500347	0.000005
C35	C	-0.965626	-0.369380	0.000005
C36	C	-1.034176	-0.416991	0.000004
C37	C	-0.153067	0.101090	0.000015
C38	C	-0.246423	0.102647	0.000007
C39	C	-1.003986	0.249760	0.000006
C40	C	-1.011845	0.336553	0.000001
N41	N	-0.999879	0.106842	0.230693
N42	N	-0.999934	0.106783	-0.230663
C43	C	-0.944203	0.162332	0.470372
C44	C	-1.021188	0.177492	0.529707
C45	C	-0.999900	0.106822	0.412300
C46	C	-0.922936	0.091679	0.529707
C47	C	-0.999912	0.106805	0.587724
C48	C	-1.076926	0.122018	0.470329
C49	C	-0.978622	0.036174	0.470323
C50	C	-1.055660	0.051305	0.529632
C51	C	-0.999891	0.106834	0.311243
C52	C	-0.999929	0.106793	0.688780
H53	H	-0.542810	0.245016	0.000067
H54	H	-0.457175	-0.031412	0.000107
C55	C	-0.880651	0.225794	0.435208
H56	H	-0.895915	0.275953	0.455542
H57	H	-0.826116	0.215537	0.456409
H58	H	-0.880732	0.225051	0.371971
H59	H	-0.900856	-0.394987	0.000003
C60	C	-1.045511	0.258188	0.564958
H61	H	-1.005878	0.297578	0.544676
H62	H	-1.099807	0.269326	0.543759
H63	H	-1.045833	0.257446	0.628195
C64	C	-0.433258	0.185544	0.156386
H65	H	-0.402964	0.149618	0.190761
H66	H	-0.396665	0.228379	0.138836
H67	H	-0.477872	0.204500	0.191004
H68	H	-1.142037	0.134891	0.444357
H69	H	-1.111490	-0.295379	0.000020
H70	H	-1.102821	0.004352	0.555488
H71	H	-1.163562	-0.524865	0.000019
C72	C	-1.147625	-0.138455	0.000030
H73	H	-1.189541	-0.179982	0.000022
H74	H	-1.153657	-0.107028	0.051663
H75	H	-1.153667	-0.107035	-0.051610
C76	C	-0.852181	-0.647923	-0.000007
H77	H	-0.858118	-0.703668	0.000005
H78	H	-0.822229	-0.630731	-0.051642
H79	H	-0.822217	-0.630717	0.051631
H80	H	-1.150152	-0.672815	0.000014
C81	C	-0.433316	0.185507	-0.156344
H82	H	-0.403020	0.149585	-0.190722
H83	H	-0.477937	0.204461	-0.190951
H84	H	-0.396715	0.228345	-0.138791
C85	C	-0.566331	0.028233	0.156553
H86	H	-0.625834	0.029498	0.156060
H87	H	-0.550427	-0.024797	0.156769
H88	H	-0.544910	0.054170	0.208330
H89	H	-0.857844	0.078879	0.555791
H90	H	-0.888310	-0.490992	-0.000010
C91	C	-0.954264	-0.044497	0.435048
H92	H	-0.899530	-0.055172	0.455342
H93	H	-0.993274	-0.084039	0.456219
H94	H	-0.954939	-0.044042	0.371811
C95	C	-0.566567	0.028197	-0.156344
H96	H	-0.545644	0.054394	-0.208168
H97	H	-0.550270	-0.024712	-0.156866
H98	H	-0.626091	0.029076	-0.155447
C99	C	-0.813515	-0.270487	0.000002
H100	H	-0.819447	-0.326232	0.000011
H101	H	-0.783563	-0.253290	-0.051630
H102	H	-0.783555	-0.253281	0.051643
C103	C	-0.829036	-0.099232	0.000004
H104	H	-0.844830	-0.046162	-0.000003
H105	H	-0.796646	-0.108754	0.051634
H106	H	-0.796669	-0.108765	-0.051639
C107	C	-1.121677	-0.382414	0.000012
H108	H	-1.163599	-0.423934	0.000010
H109	H	-1.127699	-0.350984	0.051645
H110	H	-1.127720	-0.350993	-0.051628
