data_functionalizedCrystal
_audit_creation_method	'MofGen! by Chris Wilmer'
_symmetry_space_group_name_H-M	'P1'
_symmetry_Int_Tables_number	1
_symmetry_cell_setting	triclinic
loop_
_symmetry_equiv_pos_as_xyz
  x,y,z
_cell_length_a	12.827893
_cell_length_b	17.637651
_cell_length_c	12.827885
_cell_angle_alpha	78.750798
_cell_angle_beta	89.980728
_cell_angle_gamma	101.219116
loop_
_atom_site_label
_atom_site_type_symbol
_atom_site_fract_x
_atom_site_fract_y
_atom_site_fract_z
Zn1	Zn	1.513559	-0.314731	-0.506620
Zn2	Zn	1.478113	-0.446966	-0.296491
Zn3	Zn	1.338790	-0.314769	-0.331883
Zn4	Zn	1.303462	-0.446907	-0.471206
O5	O	1.408481	-0.380843	-0.401550
O6	O	1.655091	-0.332280	-0.478754
O7	O	1.459583	-0.429471	-0.154939
O8	O	1.391592	-0.204123	-0.384694
O9	O	1.629049	-0.429433	-0.324374
O10	O	1.519994	-0.204094	-0.513073
O11	O	1.357222	-0.332346	-0.180941
O12	O	1.187870	-0.332289	-0.350356
O13	O	1.331380	-0.429333	-0.622151
O14	O	1.161914	-0.429370	-0.452716
O15	O	1.485738	-0.332223	-0.648169
O16	O	1.425326	-0.557600	-0.290035
O17	O	1.297010	-0.557557	-0.418398
C18	C	1.136975	-0.380828	-0.401534
C19	C	1.020819	-0.380841	-0.401547
C20	C	0.956198	-0.428955	-0.452080
C21	C	0.836144	-0.428969	-0.452095
C22	C	1.353517	-0.586266	-0.346556
C23	C	1.330099	-0.674147	-0.323064
C24	C	1.587066	-0.962808	-0.580344
C25	C	1.565027	-1.045385	-0.558252
C26	C	1.431412	-1.045522	-0.424442
C27	C	1.453442	-0.962943	-0.446520
C28	C	1.531270	-0.921592	-0.524473
C29	C	1.397646	-0.921727	-0.390648
C30	C	1.419671	-0.839156	-0.412728
C31	C	1.497493	-0.797799	-0.490680
C32	C	1.553295	-0.839020	-0.546552
C33	C	1.319814	-0.963079	-0.312701
C34	C	1.264018	-0.921864	-0.256830
C35	C	1.286048	-0.839291	-0.278904
C36	C	1.363869	-0.797934	-0.356855
C37	C	1.230246	-0.798069	-0.223031
C38	C	1.252271	-0.715498	-0.245111
C39	C	1.385895	-0.715362	-0.378935
C40	C	1.681047	-0.380859	-0.401566
C41	C	1.797198	-0.380866	-0.401573
C42	C	1.408572	-0.380767	-0.674141
C43	C	1.408611	-0.380735	-0.790302
C44	C	1.463688	-0.174618	-0.456782
C45	C	1.487214	-0.086737	-0.480318
C46	C	1.485002	-0.332673	-0.854964
C47	C	1.485044	-0.332638	-0.975024
C48	C	1.408465	-0.380862	-0.130035
C49	C	1.408688	-0.380671	-0.013933
H50	H	1.515425	-0.730564	-0.508655
O51	O	1.298253	-1.043290	-0.291149
C52	C	1.193366	-1.161857	-0.185992
C53	C	1.217659	-1.071021	-0.210310
H54	H	1.128220	-1.184305	-0.120617
H55	H	1.165598	-1.184289	-0.260870
H56	H	1.268362	-1.184226	-0.158437
H57	H	1.142705	-1.048585	-0.237839
H58	H	1.245471	-1.048642	-0.135409
H59	H	1.368042	-1.079201	-0.360976
O60	O	1.563045	-0.283536	-0.815162
C61	C	1.722527	-0.183261	-0.853304
C62	C	1.634190	-0.238855	-0.898519
H63	H	1.780083	-0.147133	-0.920672
H64	H	1.685608	-0.141912	-0.813304
H65	H	1.767327	-0.219626	-0.792437
H66	H	1.589359	-0.202553	-0.959425
H67	H	1.671173	-0.280207	-0.938453
H68	H	1.200648	-0.955543	-0.193363
H69	H	0.852714	-0.339674	-0.358303
H70	H	0.780620	-0.470163	-0.495354
O71	O	1.330496	-0.429713	-0.830263
C72	C	1.142510	-0.468086	-0.853532
C73	C	1.230873	-0.412556	-0.808250
H74	H	1.061943	-0.454246	-0.835732
H75	H	1.156352	-0.459313	-0.943250
H76	H	1.143822	-0.531856	-0.815071
H77	H	1.229613	-0.348764	-0.846630
H78	H	1.217000	-0.421398	-0.718529
O79	O	0.980726	-0.331826	-0.349791
C80	C	0.860116	-0.321174	-0.211732
C81	C	0.905442	-0.376773	-0.270250
H82	H	0.799224	-0.357491	-0.147426
H83	H	0.927396	-0.284966	-0.173600
H84	H	0.820119	-0.279894	-0.270913
H85	H	0.945428	-0.418101	-0.211138
H86	H	0.838120	-0.412926	-0.308400
H87	H	1.616678	-0.805351	-0.610022
O88	O	1.662666	-0.922755	-0.656137
C89	C	1.792921	-0.931324	-0.786506
C90	C	1.707325	-0.976782	-0.700716
H91	H	1.829068	-0.974985	-0.822558
H92	H	1.755259	-0.892687	-0.851504
H93	H	1.857861	-0.892637	-0.748908
H94	H	1.642359	-1.015511	-0.738218
H95	H	1.745065	-1.015368	-0.635729
O96	O	1.461375	-0.675219	-0.454799
C97	C	1.518799	-0.649859	-0.639381
C98	C	1.433238	-0.695358	-0.553578
H99	H	1.496092	-0.666136	-0.719259
H100	H	1.524942	-0.583755	-0.645653
H101	H	1.598753	-0.666044	-0.616727
H102	H	1.353238	-0.679239	-0.576169
H103	H	1.427187	-0.761450	-0.547323
H104	H	1.206835	-0.681940	-0.199615
O105	O	1.619106	-1.085545	-0.612460
C106	C	1.644443	-1.212690	-0.637711
C107	C	1.583109	-1.167309	-0.576258
H108	H	1.615379	-1.278804	-0.608449
H109	H	1.630365	-1.196480	-0.726316
H110	H	1.733058	-1.196375	-0.623811
H111	H	1.494476	-1.183600	-0.590070
H112	H	1.597276	-1.183523	-0.487674
H113	H	1.166872	-0.831749	-0.159569
O114	O	1.562963	-0.283569	-1.041451
C115	C	1.634108	-0.238850	-1.221668
C116	C	1.545786	-0.294450	-1.146560
H117	H	1.620264	-0.247639	-1.306661
H118	H	1.632838	-0.175070	-1.217427
H119	H	1.714663	-0.252718	-1.196499
H120	H	1.465188	-0.280653	-1.171678
H121	H	1.547150	-0.358213	-1.150811
O122	O	1.330795	-0.429805	-0.947539
C123	C	1.288257	-0.536533	-0.795643
C124	C	1.376574	-0.480928	-0.870752
H125	H	1.325234	-0.577891	-0.733556
H126	H	1.243378	-0.500254	-0.754181
H127	H	1.230758	-0.572658	-0.843643
H128	H	1.434144	-0.444791	-0.822830
H129	H	1.421372	-0.517253	-0.912217
H130	H	0.989754	-0.470134	-0.495337
