data_functionalizedCrystal
_audit_creation_method	'MofGen! by Chris Wilmer'
_symmetry_space_group_name_H-M	'P1'
_symmetry_Int_Tables_number	1
_symmetry_cell_setting	triclinic
loop_
_symmetry_equiv_pos_as_xyz
  x,y,z
_cell_length_a	8.597340
_cell_length_b	8.597304
_cell_length_c	17.766277
_cell_angle_alpha	82.293845
_cell_angle_beta	97.692772
_cell_angle_gamma	86.359595
loop_
_atom_site_label
_atom_site_type_symbol
_atom_site_fract_x
_atom_site_fract_y
_atom_site_fract_z
O1	O	2.085986	0.234298	0.057501
O2	O	1.629342	0.252275	0.026718
O3	O	1.866647	0.014956	0.057502
O4	O	1.848681	0.471617	0.026718
O5	O	1.866605	0.014943	0.182688
O6	O	1.629300	0.252262	0.151905
O7	O	2.085944	0.234285	0.182688
Cu8	Cu	1.857618	0.243272	0.178727
Cu9	Cu	1.857668	0.243288	0.030679
O10	O	1.848639	0.471604	0.151905
C11	C	1.570821	0.250338	0.085643
C12	C	1.396511	0.244568	0.074711
C13	C	1.864695	-0.043552	0.123762
C14	C	1.858921	-0.217868	0.134689
C15	C	2.144465	0.236222	0.123762
C16	C	2.318775	0.241991	0.134688
C17	C	1.850591	0.530112	0.085642
C18	C	1.856365	0.704428	0.074711
N19	N	1.857594	0.243261	0.282856
N20	N	1.857704	0.243287	-0.073449
C21	C	1.962708	0.138229	0.335873
C22	C	1.962717	0.138222	0.414676
C23	C	1.857627	0.243274	0.440458
C24	C	1.752493	0.348313	0.387430
C25	C	1.752476	0.348307	0.308630
C26	C	1.839255	0.385928	0.554852
C27	C	1.839283	0.385937	0.633652
C28	C	1.857669	0.243293	0.683506
C29	C	1.876061	0.100636	0.654553
C30	C	1.876045	0.100629	0.575752
C31	C	1.857633	0.243292	0.525903
C32	C	1.962799	0.138245	0.821971
C33	C	1.962797	0.138236	0.900774
C34	C	1.752581	0.348341	0.873527
C35	C	1.752575	0.348337	0.794725
C36	C	1.857693	0.243291	0.768952
H37	H	1.329704	0.242360	0.014993
H38	H	1.385576	0.244189	0.194403
H39	H	1.858588	-0.228741	0.014996
H40	H	1.856675	-0.284704	0.194406
H41	H	2.048297	0.052691	0.314892
H42	H	2.048316	0.052689	0.457850
H43	H	1.666987	0.433870	0.751556
H44	H	1.891016	-0.015528	0.552181
H45	H	1.891033	-0.015518	0.695143
H46	H	2.048388	0.052705	0.800986
H47	H	2.048389	0.052698	0.943943
H48	H	1.667009	0.433870	0.894518
H49	H	1.824317	0.502097	0.657220
H50	H	1.824256	0.502093	0.514265
H51	H	1.666925	0.433846	0.408426
H52	H	1.666878	0.433838	0.265461
