data_functionalizedCrystal
_audit_creation_method	'MofGen! by Chris Wilmer'
_symmetry_space_group_name_H-M	'P1'
_symmetry_Int_Tables_number	1
_symmetry_cell_setting	triclinic
loop_
_symmetry_equiv_pos_as_xyz
  x,y,z
_cell_length_a	12.827893
_cell_length_b	12.827893
_cell_length_c	12.759393
_cell_angle_alpha	89.979240
_cell_angle_beta	90.025048
_cell_angle_gamma	89.996520
loop_
_atom_site_label
_atom_site_type_symbol
_atom_site_fract_x
_atom_site_fract_y
_atom_site_fract_z
Zn1	Zn	0.415983	1.597771	-0.594055
Zn2	Zn	0.590761	1.597697	-0.418392
Zn3	Zn	0.416034	1.423008	-0.418391
Zn4	Zn	0.590683	1.423034	-0.594030
O5	O	0.503365	1.510378	-0.506217
O6	O	0.439179	1.743997	-0.570764
O7	O	0.567637	1.574482	-0.271370
O8	O	0.269791	1.446211	-0.441703
O9	O	0.567587	1.743943	-0.441705
O10	O	0.269754	1.574609	-0.570763
O11	O	0.439266	1.446139	-0.271370
O12	O	0.439190	1.276776	-0.441678
O13	O	0.567455	1.446255	-0.741054
O14	O	0.567504	1.276795	-0.570720
O15	O	0.439104	1.574634	-0.741073
O16	O	0.736986	1.574507	-0.441680
O17	O	0.736929	1.446183	-0.570721
C18	C	0.503345	1.238868	-0.506197
C19	C	0.503362	1.122715	-0.506213
C20	C	0.439802	0.950848	-0.442491
C21	C	0.439784	1.070899	-0.442473
C22	C	0.230795	1.510415	-0.506236
C23	C	0.114642	1.510431	-0.506244
C24	C	0.062876	1.446910	-0.442391
C25	C	-0.057175	1.446925	-0.442398
C26	C	0.774875	1.510369	-0.506221
C27	C	0.891028	1.510460	-0.506258
C28	C	0.503265	1.510456	-0.780250
C29	C	0.503222	1.510489	-0.897027
C30	C	0.503386	1.782948	-0.506237
C31	C	0.503395	1.899101	-0.506246
C32	C	0.436379	1.577341	-0.951900
C33	C	0.436334	1.577358	-1.061624
C34	C	0.569984	1.443670	-1.061592
C35	C	0.570023	1.443648	-0.951870
C36	C	0.313040	1.614746	-1.211591
C37	C	0.246206	1.681614	-1.266468
C38	C	0.230185	1.783576	-1.230874
C39	C	0.281012	1.818691	-1.140406
C40	C	0.347854	1.751829	-1.085534
C41	C	0.363856	1.649852	-1.121126
C42	C	0.693318	1.406271	-0.801902
C43	C	0.760166	1.339413	-0.747028
C44	C	0.776198	1.237449	-0.782619
C45	C	0.725389	1.202338	-0.873092
C46	C	0.658542	1.269196	-0.927965
C47	C	0.642508	1.371159	-0.892366
C48	C	0.503390	1.510360	-0.233249
C49	C	0.503138	1.510529	-0.116473
H50	H	-0.101691	1.392545	-0.387727
H51	H	0.557821	0.943675	-0.560821
H52	H	0.385368	0.906275	-0.387925
H53	H	0.389240	1.780420	-1.011880
H54	H	0.175766	1.838020	-1.275563
C55	C	0.635647	1.133530	-0.638842
C56	C	0.576866	1.062656	-0.579909
H57	H	0.681028	1.096444	-0.684334
H58	H	0.590194	1.176115	-0.679131
H59	H	0.675599	1.176084	-0.593024
H60	H	0.536908	1.020106	-0.625726
H61	H	0.622325	1.020052	-0.539617
H62	H	0.267969	1.901723	-1.111439
H63	H	0.830641	1.183018	-0.737937
C64	C	0.388705	1.104612	-0.264677
C65	C	0.366286	1.130968	-0.368779
H66	H	0.343333	1.141704	-0.219182
H67	H	0.379067	1.031826	-0.255030
H68	H	0.458918	1.122449	-0.249217
H69	H	0.296075	1.113124	-0.384243
H70	H	0.375916	1.203770	-0.378432
C71	C	0.185753	1.306440	-0.427888
C72	C	0.123020	1.373477	-0.368581
H73	H	0.222886	1.261110	-0.382317
H74	H	0.143152	1.266447	-0.473611
H75	H	0.233780	1.346302	-0.467946
H76	H	0.074987	1.333615	-0.328529
H77	H	0.165625	1.413474	-0.322841
H78	H	0.680262	1.489297	-0.772909
C79	C	0.013837	1.524887	-0.647465
C80	C	-0.048889	1.583880	-0.580066
H81	H	0.050929	1.570214	-0.693034
H82	H	0.061889	1.485036	-0.607397
H83	H	-0.028773	1.479415	-0.687685
H84	H	-0.006278	1.629347	-0.539840
H85	H	-0.096947	1.623749	-0.620139
H86	H	0.070085	1.564822	-0.560920
H87	H	0.326071	1.531717	-1.240574
H88	H	0.381982	1.631765	-0.907250
C89	C	0.264466	1.613349	-1.440688
C90	C	0.190332	1.643012	-1.365903
H91	H	0.229972	1.589517	-1.502072
H92	H	0.307137	1.671465	-1.457626
H93	H	0.306554	1.558933	-1.413086
H94	H	0.148249	1.697433	-1.393502
H95	H	0.147643	1.584889	-1.348966
C96	C	0.629274	1.384348	-1.229775
C97	C	0.643417	1.370209	-1.121880
H98	H	0.674616	1.339000	-1.266990
H99	H	0.559061	1.369066	-1.247756
H100	H	0.644570	1.454567	-1.247754
H101	H	0.628114	1.299992	-1.103899
H102	H	0.713646	1.385483	-1.103892
H103	H	0.617171	1.240600	-1.001633
C104	C	0.812404	1.038985	-0.844949
C105	C	0.743006	1.090255	-0.912220
H106	H	0.823278	0.969788	-0.869104
H107	H	0.876977	1.075198	-0.843899
H108	H	0.784012	1.037184	-0.776224
H109	H	0.771403	1.092063	-0.980944
H110	H	0.678421	1.054032	-0.913282
H111	H	0.801547	1.368014	-0.673368
