data_functionalizedCrystal
_audit_creation_method	'MofGen! by Chris Wilmer'
_symmetry_space_group_name_H-M	'P1'
_symmetry_Int_Tables_number	1
_symmetry_cell_setting	triclinic
loop_
_symmetry_equiv_pos_as_xyz
  x,y,z
_cell_length_a	13.635800
_cell_length_b	27.923496
_cell_length_c	11.020452
_cell_angle_alpha	95.762595
_cell_angle_beta	72.703313
_cell_angle_gamma	81.036054
loop_
_atom_site_label
_atom_site_type_symbol
_atom_site_fract_x
_atom_site_fract_y
_atom_site_fract_z
V1	V	2.023975	-0.067119	-0.397056
O2	O	2.028862	0.003232	-0.388671
O3	O	1.988762	-0.133092	-0.395136
O4	O	2.009368	-0.066084	-0.569863
O5	O	2.008114	-0.064241	-0.212734
V6	V	2.265973	-0.058705	-0.374913
O7	O	2.154085	-0.085577	-0.445628
O8	O	2.360961	-0.040247	-0.326340
O9	O	2.189583	0.007268	-0.376833
O10	O	2.319784	-0.129056	-0.383298
O11	O	2.340532	-0.061584	-0.559235
O12	O	2.168977	-0.059740	-0.202106
V13	V	2.523975	-0.067119	-0.397056
O14	O	2.528862	0.003232	-0.388671
O15	O	2.488762	-0.133092	-0.395136
O16	O	2.509368	-0.066084	-0.569863
O17	O	2.508114	-0.064241	-0.212734
V18	V	2.765973	-0.058705	-0.374913
O19	O	2.654085	-0.085577	-0.445628
O20	O	2.860961	-0.040247	-0.326340
O21	O	2.689583	0.007268	-0.376833
O22	O	2.819784	-0.129056	-0.383298
O23	O	2.840532	-0.061584	-0.559235
O24	O	2.668977	-0.059740	-0.202106
C25	C	1.908273	-0.149175	-0.389077
C26	C	1.920190	-0.203109	-0.388659
C27	C	2.085222	-0.540037	-0.392574
C28	C	2.130077	-0.742746	-0.391061
O29	O	2.213276	-0.771062	-0.396340
N30	N	2.044686	-0.765621	-0.384496
C31	C	1.948076	-0.737816	-0.378316
O32	O	1.876478	-0.761924	-0.372710
C33	C	1.903225	-0.535108	-0.379838
C34	C	1.988619	-0.512235	-0.386391
C35	C	2.170609	-0.517164	-0.399128
C36	C	2.159394	-0.466489	-0.399499
C37	C	2.062791	-0.438688	-0.393316
C38	C	1.977404	-0.461561	-0.386762
C39	C	1.806618	-0.507305	-0.373667
C40	C	1.795413	-0.456625	-0.374052
C41	C	1.880808	-0.433752	-0.380605
C42	C	1.869585	-0.383084	-0.380950
N43	N	1.954976	-0.360210	-0.387516
C44	C	2.051579	-0.388011	-0.393699
C45	C	1.971630	-0.844240	-0.377515
C46	C	1.982842	-0.894917	-0.377132
C47	C	2.164843	-0.899844	-0.389880
C48	C	2.153627	-0.849166	-0.390254
C49	C	2.057021	-0.821365	-0.384081
C50	C	2.028019	-0.281590	-0.394476
C51	C	2.016793	-0.230911	-0.394842
C52	C	1.834795	-0.225989	-0.382101
C53	C	1.846018	-0.276664	-0.381729
C54	C	1.942638	-0.304464	-0.387921
O55	O	1.786422	-0.354739	-0.375689
O56	O	2.123170	-0.363895	-0.399333
C57	C	2.096437	-0.590712	-0.392203
C58	C	2.011050	-0.613585	-0.385649
C59	C	1.914447	-0.585783	-0.379466
C60	C	2.022262	-0.664261	-0.385266
C61	C	2.118865	-0.692063	-0.391449
C62	C	2.204256	-0.669188	-0.398015
C63	C	2.193040	-0.618513	-0.398386
C64	C	1.829056	-0.608658	-0.372900
C65	C	1.840279	-0.659333	-0.372528
C66	C	1.936882	-0.687134	-0.378711
C67	C	1.934557	-0.063699	-0.611958
C68	C	1.963182	-0.063289	-0.753234
C69	C	2.101742	0.023348	-0.382889
C70	C	2.079445	0.077282	-0.383315
C71	C	2.075458	-0.062127	-0.160005
C72	C	2.036452	-0.062534	-0.018727
C73	C	2.408273	-0.149175	-0.389077
C74	C	2.420190	-0.203109	-0.388659
C75	C	1.994609	-0.018293	0.066310
C76	C	1.957977	-0.018671	0.199058
C77	C	2.005033	-0.107534	0.161719
C78	C	2.041671	-0.107156	0.028973
C79	C	1.967438	0.033011	0.087868
C80	C	1.930806	0.032634	0.220616
C81	C	2.434557	-0.063699	-0.611958
C82	C	2.463182	-0.063289	-0.753234
C83	C	2.601742	0.023348	-0.382889
C84	C	2.579445	0.077282	-0.383315
C85	C	2.575458	-0.062127	-0.160005
C86	C	2.536452	-0.062534	-0.018727
C87	C	2.516793	-0.230911	-0.394842
C88	C	2.528008	-0.281589	-0.394468
C89	C	2.442617	-0.304464	-0.387902
C90	C	2.346007	-0.276659	-0.381723
C91	C	2.334795	-0.225982	-0.382105
C92	C	2.655336	0.105083	-0.377136
C93	C	2.634393	0.155761	-0.377515
C94	C	2.537560	0.178636	-0.384084
C95	C	2.461663	0.150831	-0.390260
C96	C	2.482604	0.100155	-0.389871
C97	C	2.567640	-0.065516	-0.826107
C98	C	2.594528	-0.065122	-0.958846
C99	C	2.412490	-0.060275	-0.945827
C100	C	2.385603	-0.060666	-0.813089
C101	C	2.672739	-0.068317	-0.833625
C102	C	2.699627	-0.067922	-0.966365
H103	H	2.086335	-0.212290	-0.400173
H104	H	2.586332	-0.212292	-0.400180
Br105	Br	2.796705	-0.126384	-1.055156
Br106	Br	2.379594	0.062430	-0.398259
Br107	Br	2.098483	-0.167198	-0.086431
H108	H	2.606679	-0.304221	-0.399497
Br109	Br	2.012115	-0.168088	0.226465
Br110	Br	2.786761	0.074050	-0.368223
Br111	Br	1.697941	-0.570935	-0.364508
Br112	Br	2.457852	-0.373240	-0.387384
H113	H	2.349332	-0.058139	-0.994578
H114	H	2.696204	0.178392	-0.372488
H115	H	2.243499	-0.922487	-0.394901
H116	H	2.520522	0.219900	-0.384399
Br117	Br	2.330249	0.181883	-0.399163
Br118	Br	2.077110	0.069113	0.049900
H119	H	1.716745	-0.433993	-0.369032
H120	H	1.901975	0.047129	0.048250
H121	H	1.979411	0.050356	0.273609
H122	H	2.276487	-0.295291	-0.376377
H123	H	2.256127	-0.203349	-0.377064
Br124	Br	1.786363	0.062202	0.286185
Br125	Br	2.731408	-0.128620	-0.793560
Br126	Br	1.866935	-0.925950	-0.368202
Br127	Br	2.243833	-0.057638	-0.714189
H128	H	2.695201	-0.035388	-0.786136
H129	H	2.729642	-0.033474	-0.995054
H130	H	2.228935	-0.447871	-0.404844
Br131	Br	2.159146	-0.319311	-0.402882
H132	H	2.223164	-0.830546	-0.395587
Br133	Br	2.301729	-0.554886	-0.407522
H134	H	1.892958	-0.821609	-0.372486
H135	H	1.737076	-0.525918	-0.368322
H136	H	1.756140	-0.203343	-0.377060
Br137	Br	2.335359	-0.706928	-0.406395
Br138	Br	1.730124	-0.307706	-0.372830
Br139	Br	1.724369	-0.690367	-0.363615
H140	H	2.262579	-0.599895	-0.403722
