data_functionalizedCrystal
_audit_creation_method	'MofGen! by Chris Wilmer'
_symmetry_space_group_name_H-M	'P1'
_symmetry_Int_Tables_number	1
_symmetry_cell_setting	triclinic
loop_
_symmetry_equiv_pos_as_xyz
  x,y,z
_cell_length_a	14.519709
_cell_length_b	13.596369
_cell_length_c	10.654550
_cell_angle_alpha	89.994175
_cell_angle_beta	95.917462
_cell_angle_gamma	89.999709
loop_
_atom_site_label
_atom_site_type_symbol
_atom_site_fract_x
_atom_site_fract_y
_atom_site_fract_z
O1	O	1.224722	0.081663	-0.164625
O2	O	1.724722	0.581663	0.335375
O3	O	0.956346	0.081693	-0.184012
O4	O	1.456346	0.581693	0.315988
O5	O	1.096704	0.081671	0.008480
O6	O	1.596704	0.581671	0.508480
O7	O	1.084363	0.081685	-0.357117
O8	O	1.584363	0.581685	0.142883
O9	O	1.096690	-0.081912	0.008490
O10	O	1.596690	0.418088	0.508490
O11	O	0.956331	-0.081890	-0.184001
O12	O	1.456331	0.418110	0.315999
O13	O	1.224708	-0.081920	-0.164615
O14	O	1.724708	0.418080	0.335385
Zn15	Zn	1.090517	-0.107877	-0.174307
Zn16	Zn	1.590517	0.392123	0.325693
Zn17	Zn	1.090536	0.107650	-0.174320
Zn18	Zn	1.590536	0.607650	0.325680
O19	O	1.084349	-0.081898	-0.357107
O20	O	1.584349	0.418102	0.142893
C21	C	0.921974	-0.000095	-0.183103
C22	C	1.421974	0.499905	0.316897
C23	C	0.819579	-0.000083	-0.180396
C24	C	1.319579	0.499917	0.319604
N25	N	1.090511	-0.254969	-0.174297
N26	N	1.590511	0.245031	0.325703
C27	C	1.090535	-0.656260	-0.174321
C28	C	1.590535	-0.156260	0.325679
C29	C	1.090526	-0.544609	-0.174319
C30	C	1.590526	-0.044609	0.325681
C31	C	1.090524	-0.455618	-0.174310
C32	C	1.590524	0.044382	0.325690
C33	C	1.090513	-0.343960	-0.174305
C34	C	1.590513	0.156040	0.325695
C35	C	0.444631	-0.000128	-0.170428
C36	C	0.944631	0.499872	0.329572
C37	C	0.548954	-0.000116	-0.173196
C38	C	1.048954	0.499884	0.326804
C39	C	0.632102	-0.000105	-0.175412
C40	C	1.132102	0.499895	0.324588
C41	C	0.736431	-0.000094	-0.178180
C42	C	1.236431	0.499906	0.321820
C43	C	1.259079	-0.000130	-0.165524
C44	C	1.759079	0.499870	0.334476
C45	C	1.361475	-0.000135	-0.168231
C46	C	1.861475	0.499865	0.331769
C47	C	1.095791	-0.000120	0.055275
C48	C	1.595791	0.499880	0.555275
C49	C	1.093080	-0.000118	0.194692
C50	C	1.593080	0.499882	0.694692
N51	N	1.090549	0.254742	-0.174320
N52	N	1.590549	0.754742	0.325680
C53	C	1.085262	-0.000105	-0.403901
C54	C	1.585262	0.499895	0.096099
C55	C	1.087973	-0.000100	-0.543318
C56	C	1.587973	0.499900	-0.043318
C57	C	1.175721	-0.000127	0.274972
C58	C	1.675721	0.499873	0.774972
C59	C	1.173168	-0.000115	0.405968
C60	C	1.673168	0.499885	0.905968
C61	C	1.005326	-0.000089	0.376391
C62	C	1.505326	0.499911	0.876391
C63	C	1.007880	-0.000094	0.245397
C64	C	1.507880	0.499906	0.745397
C65	C	1.270504	0.057191	0.602745
C66	C	1.770504	0.557191	1.102745
C67	C	1.353150	0.057165	0.683031
C68	C	1.853150	0.557165	1.183031
C69	C	1.428065	-0.000170	0.653583
C70	C	1.928065	0.499830	1.153583
C71	C	1.420339	-0.057502	0.543852
C72	C	1.920339	0.442498	1.043852
C73	C	1.337692	-0.057485	0.463573
C74	C	1.837692	0.442515	0.963573
C75	C	1.262780	-0.000128	0.493020
C76	C	1.762780	0.499872	0.993020
C77	C	0.910550	-0.057407	0.048619
C78	C	1.410550	0.442593	0.548619
C79	C	0.827902	-0.057397	-0.031663
C80	C	1.327902	0.442603	0.468337
C81	C	0.752979	-0.000069	-0.002218
C82	C	1.252979	0.499931	0.497782
C83	C	0.760696	0.057249	0.107515
C84	C	1.260696	0.557249	0.607515
C85	C	0.843344	0.057239	0.187797
C86	C	1.343344	0.557239	0.687797
C87	C	0.918267	-0.000088	0.158343
C88	C	1.418267	0.499912	0.658343
H89	H	1.245096	-0.000144	0.233692
H90	H	1.745096	0.499856	0.733692
H91	H	0.971565	-0.104071	0.024616
H92	H	1.471565	0.395929	0.524616
C93	C	0.819418	-0.120444	-0.152379
C94	C	1.319418	0.379556	0.347621
N95	N	0.813030	-0.167925	-0.243306
N96	N	1.313030	0.332075	0.256694
H97	H	1.359435	0.103852	0.772372
H98	H	1.859435	0.603852	1.272372
H99	H	1.331400	-0.104167	0.374235
H100	H	1.831400	0.395833	0.874235
H101	H	0.685678	-0.000078	-0.067587
H102	H	1.185678	0.499922	0.432413
C103	C	0.851833	0.120299	0.308502
C104	C	1.351833	0.620299	0.808502
N105	N	0.858229	0.167796	0.399415
N106	N	1.358229	0.667796	0.899415
C107	C	1.502751	-0.120583	0.511476
C108	C	2.002751	0.379417	1.011476
N109	N	1.564826	-0.168094	0.487088
N110	N	2.064826	0.331906	0.987088
H111	H	0.699679	0.103910	0.131507
H112	H	1.199679	0.603910	0.631507
H113	H	1.495357	-0.000189	0.718961
H114	H	1.995357	0.499811	1.218961
H115	H	1.209511	0.103891	0.626725
H116	H	1.709511	0.603891	1.126725
H117	H	0.935959	-0.000071	0.417692
H118	H	1.435959	0.499929	0.917692
