data_functionalizedCrystal
_audit_creation_method	'MofGen! by Chris Wilmer'
_symmetry_space_group_name_H-M	'P1'
_symmetry_Int_Tables_number	1
_symmetry_cell_setting	triclinic
loop_
_symmetry_equiv_pos_as_xyz
  x,y,z
_cell_length_a	16.625548
_cell_length_b	13.032721
_cell_length_c	16.625539
_cell_angle_alpha	82.844953
_cell_angle_beta	90.017055
_cell_angle_gamma	97.205603
loop_
_atom_site_label
_atom_site_type_symbol
_atom_site_fract_x
_atom_site_fract_y
_atom_site_fract_z
Zn1	Zn	1.191890	-0.416032	0.496666
Zn2	Zn	1.691890	0.083968	0.996666
Zn3	Zn	1.174679	-0.590793	0.378954
Zn4	Zn	1.674679	-0.090793	0.878954
Zn5	Zn	1.057057	-0.416066	0.361850
Zn6	Zn	1.557057	0.083934	0.861850
Zn7	Zn	1.039905	-0.590739	0.513738
Zn8	Zn	1.539905	-0.090739	1.013738
O9	O	1.115883	-0.503407	0.437802
O10	O	1.615883	-0.003407	0.937802
O11	O	1.302439	-0.439223	0.481064
O12	O	1.802439	0.060777	0.981064
O13	O	1.159051	-0.567652	0.263856
O14	O	1.659051	-0.067652	0.763856
O15	O	1.089324	-0.269821	0.365431
O16	O	1.589324	0.230179	0.865431
O17	O	1.289794	-0.567619	0.394582
O18	O	1.789794	-0.067619	0.894582
O19	O	1.188386	-0.269796	0.464479
O20	O	1.688386	0.230204	0.964479
O21	O	1.072635	-0.439281	0.251290
O22	O	1.572635	0.060719	0.751290
O23	O	0.941950	-0.439228	0.381985
O24	O	1.441950	0.060772	0.881985
O25	O	1.060091	-0.567527	0.624302
O26	O	1.560091	-0.067527	1.124302
O27	O	0.929349	-0.567560	0.493577
O28	O	1.429349	-0.067560	0.993577
O29	O	1.171754	-0.439170	0.611759
O30	O	1.671754	0.060830	1.111759
O31	O	1.142420	-0.737026	0.411136
O32	O	1.642420	-0.237026	0.911136
O33	O	1.043402	-0.736986	0.510162
O34	O	1.543402	-0.236986	1.010162
C35	C	1.089204	-0.774925	0.464375
C36	C	1.589204	-0.274925	0.964375
C37	C	1.077864	-0.891081	0.475770
C38	C	1.577864	-0.391081	0.975770
C39	C	0.906394	-0.503393	0.437778
C40	C	1.406394	-0.003393	0.937778
C41	C	0.816771	-0.503411	0.437789
C42	C	1.316771	-0.003411	0.937789
C43	C	1.121844	-0.942852	0.431891
C44	C	1.621844	-0.442852	0.931891
C45	C	1.110125	-1.062905	0.443667
C46	C	1.610125	-0.562905	0.943667
C47	C	0.488594	-0.503418	0.437824
C48	C	0.988594	-0.003418	0.937824
C49	C	0.579903	-0.503413	0.437812
C50	C	1.079903	-0.003413	0.937812
C51	C	0.652679	-0.503415	0.437806
C52	C	1.152679	-0.003415	0.937806
C53	C	0.743994	-0.503409	0.437795
C54	C	1.243994	-0.003409	0.937795
C55	C	1.326190	-0.503423	0.437827
C56	C	1.826190	-0.003423	0.937827
C57	C	1.415811	-0.503430	0.437837
C58	C	1.915811	-0.003430	0.937837
C59	C	1.115929	-0.503338	0.648104
C60	C	1.615929	-0.003338	1.148104
C61	C	1.115949	-0.503309	0.737722
C62	C	1.615949	-0.003309	1.237722
C63	C	1.142688	-0.230830	0.411143
C64	C	1.642688	0.269170	0.911143
C65	C	1.154111	-0.114674	0.399782
C66	C	1.654111	0.385326	0.899782
C67	C	1.115891	-0.503401	0.228310
C68	C	1.615891	-0.003401	0.728310
C69	C	1.116056	-0.503136	0.138664
C70	C	1.616056	-0.003136	0.638664
C71	C	1.115964	-0.503286	0.810503
C72	C	1.615964	-0.003286	1.310503
C73	C	1.115987	-0.503247	0.901807
C74	C	1.615987	-0.003247	1.401807
C75	C	1.116010	-0.503210	0.974580
C76	C	1.616010	-0.003210	1.474580
C77	C	1.116033	-0.503173	1.065891
C78	C	1.616033	-0.003173	1.565891
H79	H	1.063796	-1.107457	0.489958
H80	H	1.563796	-0.607457	0.989958
N81	N	1.215490	-1.055675	0.338472
N82	N	1.715490	-0.555675	0.838472
H83	H	1.215165	-0.978276	0.338749
H84	H	1.715165	-0.478276	0.838749
H85	H	1.201127	-1.074759	0.282733
H86	H	1.701127	-0.574759	0.782733
N87	N	1.016488	-0.950090	0.537074
N88	N	1.516488	-0.450090	1.037074
H89	H	0.988747	-0.899047	0.564738
H90	H	1.488747	-0.399047	1.064738
H91	H	1.044900	-0.995311	0.578825
H92	H	1.544900	-0.495311	1.078825
N93	N	1.183221	-0.883847	0.370585
N94	N	1.683221	-0.383847	0.870585
H95	H	1.182894	-0.806448	0.370865
H96	H	1.682894	-0.306448	0.870865
H97	H	1.168859	-0.902929	0.314846
H98	H	1.668859	-0.402929	0.814846
