data_functionalizedCrystal
_audit_creation_method	'MofGen! by Chris Wilmer'
_symmetry_space_group_name_H-M	'P1'
_symmetry_Int_Tables_number	1
_symmetry_cell_setting	triclinic
loop_
_symmetry_equiv_pos_as_xyz
  x,y,z
_cell_length_a	18.760490
_cell_length_b	20.875641
_cell_length_c	20.875641
_cell_angle_alpha	60.089808
_cell_angle_beta	90.019007
_cell_angle_gamma	62.464452
loop_
_atom_site_label
_atom_site_type_symbol
_atom_site_fract_x
_atom_site_fract_y
_atom_site_fract_z
Zr1	Zr	0.719171	0.694620	-0.105708
O2	O	0.614732	0.820820	-0.208981
O3	O	0.747280	0.563375	-0.070774
O4	O	0.757775	0.687402	-0.204245
O5	O	0.600403	0.704245	0.026049
O6	O	0.875055	0.687447	-0.204235
O7	O	0.604237	0.696793	-0.075510
O8	O	0.856281	0.465585	0.034521
O9	O	0.619177	0.926107	-0.212707
O10	O	0.851514	0.619259	-0.059824
O11	O	0.761128	0.624787	0.015960
O12	O	0.773485	0.770813	-0.141185
O13	O	0.683099	0.776341	-0.065400
Zr14	Zr	0.900105	0.706575	0.056283
Zr15	Zr	0.906219	0.694690	-0.105692
Zr16	Zr	0.713057	0.706505	0.056267
Zr17	Zr	0.726261	0.862540	-0.111650
Zr18	Zr	0.893016	0.538655	0.062225
O19	O	0.871996	0.837820	0.021349
O20	O	0.880690	0.820921	-0.208958
O21	O	0.606038	0.837719	0.021326
O22	O	1.004544	0.580375	0.159556
O23	O	1.013238	0.563476	-0.070751
O24	O	0.738586	0.580274	0.159533
O25	O	1.018873	0.696950	-0.075474
O26	O	0.861501	0.713793	0.154820
O27	O	0.744221	0.713748	0.154810
O28	O	1.015039	0.704402	0.026085
O29	O	0.767856	0.926163	-0.212694
O30	O	0.851421	0.475032	0.163269
O31	O	1.000099	0.475088	0.163282
O32	O	1.004959	0.465641	0.034534
O33	O	0.614317	0.935554	-0.083959
O34	O	0.762995	0.935610	-0.083946
O35	O	0.845791	0.630382	0.091760
O36	O	0.936177	0.624854	0.015975
O37	O	0.858148	0.776408	-0.065385
O38	O	0.767763	0.781936	0.010399
C39	C	0.800770	0.490555	-0.017280
C40	C	0.797761	0.419268	-0.014758
C41	C	0.843525	0.382892	-0.053131
C42	C	0.840699	0.315906	-0.050754
C43	C	0.792104	0.285303	-0.010007
C44	C	0.746338	0.321682	0.028372
C45	C	0.749169	0.388662	0.025999
C46	C	0.778581	0.085286	0.001338
C47	C	0.775751	0.018303	0.003706
C48	C	0.870114	0.012531	-0.075418
C49	C	0.872937	0.079516	-0.077792
C50	C	0.827175	0.115887	-0.039410
N51	N	0.789212	0.216834	-0.007577
N52	N	0.830072	0.184349	-0.041835
C53	C	0.575670	0.700509	-0.024733
C54	C	0.496263	0.700479	-0.024740
C55	C	0.162394	0.696586	-0.080643
C56	C	0.158286	0.704797	0.031262
C57	C	0.232931	0.704752	0.031251
C58	C	0.272312	0.700622	-0.024707
C59	C	0.237047	0.696538	-0.080654
C60	C	0.268205	0.708827	0.087202
C61	C	0.342855	0.708780	0.087194
C62	C	0.382234	0.704656	0.031232
C63	C	0.346965	0.700573	-0.024718
C64	C	0.386346	0.696443	-0.080676
C65	C	0.351075	0.692366	-0.136630
C66	C	0.276426	0.692414	-0.136616
C67	C	0.456882	0.704609	0.031218
C68	C	0.460999	0.696395	-0.080687
C69	C	1.043607	0.700686	-0.024692
C70	C	1.123013	0.700716	-0.024685
C71	C	0.817286	0.685731	-0.227318
C72	C	0.819882	0.680686	-0.296080
C73	C	0.818506	0.910640	-0.032145
C74	C	0.821516	0.981927	-0.034667
C75	C	0.780373	0.757423	-0.370855
C76	C	0.782823	0.752677	-0.435461
C77	C	0.824778	0.671193	-0.425292
C78	C	0.864292	0.594450	-0.350511
C79	C	0.861847	0.599197	-0.285905
C80	C	0.836463	0.648513	-0.613957
C81	C	0.838904	0.643772	-0.678570
C82	C	0.757435	0.802000	-0.763517
C83	C	0.754989	0.806739	-0.698906
C84	C	0.794508	0.729997	-0.624131
N85	N	0.827281	0.666340	-0.491330
N86	N	0.792009	0.734851	-0.558095
C87	C	0.801990	0.715464	0.177893
C88	C	0.799394	0.720509	0.246656
C89	C	1.034739	0.490643	-0.017260
C90	C	1.111136	0.419387	-0.014730
C91	C	0.793122	0.505421	0.185326
C92	C	0.787517	0.439180	0.256610
C93	C	1.027091	0.505510	0.185346
C94	C	1.100892	0.439299	0.256638
C95	C	0.592186	0.895685	-0.234771
C96	C	0.518384	0.961896	-0.306063
C97	C	0.584537	0.910552	-0.032165
C98	C	0.508140	0.981808	-0.034695
C99	C	0.826154	0.895774	-0.234750
C100	C	0.831760	0.962015	-0.306035
C101	C	1.102820	0.383003	-0.053116
C102	C	1.174597	0.316058	-0.050755
C103	C	1.254689	0.285494	-0.010003
C104	C	1.263004	0.321884	0.028384
C105	C	1.191228	0.388832	0.026018
C106	C	0.829078	0.410993	0.329660
C107	C	0.823808	0.348763	0.396646
C108	C	0.776981	0.314715	0.390580
C109	C	0.735415	0.342908	0.317523
C110	C	0.740681	0.405142	0.250539
C111	C	1.182738	0.405320	0.250558
C112	C	1.252090	0.343116	0.317538
C113	C	1.239594	0.314889	0.390597
C114	C	1.157739	0.348874	0.396674
C115	C	1.088389	0.411081	0.329695
C116	C	0.436539	0.995883	-0.299984
C117	C	0.367187	1.058108	-0.366964
C118	C	0.379684	1.086339	-0.440023
C119	C	0.461538	1.052349	-0.446100
C120	C	0.530888	0.990131	-0.379121
C121	C	0.516457	1.018198	0.003684
C122	C	0.444682	1.085160	0.001304
C123	C	0.364590	1.115727	-0.039450
C124	C	0.356274	1.079334	-0.077833
C125	C	0.428050	1.012377	-0.075458
C126	C	0.878593	0.996043	-0.299945
C127	C	0.883876	1.058275	-0.366918
C128	C	0.842321	1.086483	-0.439981
C129	C	0.795486	1.052448	-0.446070
C130	C	0.790208	0.990213	-0.379097
H131	H	0.883093	0.407809	-0.086316
C132	C	1.342123	0.305735	0.310836
N133	N	1.409933	0.277579	0.305785
H134	H	0.383150	0.688998	-0.182188
H135	H	0.912507	0.104432	-0.110972
C136	C	0.998359	0.448449	0.336396
N137	N	0.930549	0.476594	0.341448
C138	C	1.351113	0.288247	0.073215
N139	N	1.417479	0.262905	0.106986
C140	C	0.422772	0.964847	-0.219625
N141	N	0.412396	0.941479	-0.159102
C142	C	1.315890	0.246452	0.464269
N143	N	1.373360	0.194902	0.519757
H144	H	0.697290	0.315177	0.312596
C145	C	0.694967	0.436131	0.170186
N146	N	0.660534	0.459466	0.109665
H147	H	0.746203	0.823776	-0.379144
C148	C	0.771206	0.246247	0.464273
N149	N	0.766864	0.194673	0.519781
H150	H	0.867209	0.438708	0.334614
H151	H	0.126223	0.708153	0.076824
H152	H	0.752067	0.962514	-0.384067
C153	C	1.196505	0.436363	0.170200
N154	N	1.206881	0.459746	0.109676
H155	H	1.147577	0.325882	0.456168
H156	H	0.451468	1.114781	0.032564
H157	H	0.720828	0.873093	-0.707195
C158	C	0.869546	0.317754	0.477002
N159	N	0.903999	0.294397	0.537524
C160	C	0.303388	1.154775	-0.513695
N161	N	0.245918	1.206317	-0.569183
C162	C	0.123598	0.692099	-0.142188
N163	N	0.094376	0.688717	-0.188543
C164	C	0.475270	1.083405	-0.526472
N165	N	0.485610	1.106792	-0.587010
H166	H	0.846625	1.137159	-0.494509
H167	H	0.922013	1.085980	-0.361945
H168	H	0.597529	0.962458	-0.384079
C169	C	0.891021	0.275915	-0.092990
N170	N	0.928919	0.245801	-0.124811
C171	C	0.277155	1.095484	-0.360261
N172	N	0.209344	1.123634	-0.355211
C173	C	0.285642	1.189378	-0.042051
N174	N	0.226182	1.244850	-0.044005
H175	H	0.247705	0.689094	-0.182171
H176	H	0.421266	0.982750	-0.106708
H177	H	0.581665	0.993317	0.036876
H178	H	0.761653	1.075424	-0.505567
C179	C	0.268164	1.112955	-0.122648
N180	N	0.201796	1.138274	-0.156394
H181	H	0.898457	0.528104	-0.342235
H182	H	0.371567	0.712101	0.132753
C183	C	0.879927	0.564093	-0.531711
N184	N	0.912663	0.500503	-0.469758
H185	H	0.907373	-0.017089	-0.106666
C186	C	0.728270	0.125259	0.043588
N187	N	0.690385	0.155358	0.075424
C188	C	0.722258	-0.015330	0.048502
N189	N	0.681955	-0.040651	0.082227
C190	C	0.692882	0.288015	0.073194
N191	N	0.652615	0.262661	0.106952
H192	H	0.236142	0.712183	0.132764
C193	C	0.905308	0.514779	-0.203651
N194	N	0.938046	0.451193	-0.141696
C195	C	0.924318	0.965022	-0.219581
N196	N	0.958765	0.941656	-0.159053
H197	H	1.313127	0.230980	-0.008082
C198	C	0.504312	0.691851	-0.142246
N199	N	0.536936	0.688427	-0.188612
H200	H	0.711901	0.418281	0.057244
H201	H	0.750652	0.815165	-0.496344
C202	C	0.495675	0.709096	0.092762
N203	N	0.524892	0.712479	0.139118
C204	C	1.165431	0.276034	-0.092977
N205	N	1.158524	0.245887	-0.124777
H206	H	0.725262	0.864480	-0.824404
H207	H	1.037612	0.407887	-0.086310
H208	H	0.873067	0.577414	-0.670282
H209	H	1.198011	0.418448	0.057281
