data_functionalizedCrystal
_audit_creation_method	'MofGen! by Chris Wilmer'
_symmetry_space_group_name_H-M	'P1'
_symmetry_Int_Tables_number	1
_symmetry_cell_setting	triclinic
loop_
_symmetry_equiv_pos_as_xyz
  x,y,z
_cell_length_a	17.699083
_cell_length_b	15.944493
_cell_length_c	16.776229
_cell_angle_alpha	89.997542
_cell_angle_beta	89.999727
_cell_angle_gamma	83.379029
loop_
_atom_site_label
_atom_site_type_symbol
_atom_site_fract_x
_atom_site_fract_y
_atom_site_fract_z
O1	O	1.004239	0.106221	0.066166
O2	O	0.783881	0.120041	0.066191
O3	O	0.900100	-0.009160	0.066184
O4	O	0.888020	0.235422	0.066173
O5	O	0.900087	-0.009160	-0.066392
O6	O	0.783868	0.120041	-0.066386
O7	O	1.004226	0.106221	-0.066410
Zn8	Zn	0.894045	0.113131	-0.087447
Zn9	Zn	0.894062	0.113131	0.087228
O10	O	0.888007	0.235422	-0.066404
C11	C	0.755677	0.119546	-0.000094
C12	C	0.671657	0.118060	-0.000084
C13	C	0.623151	0.193898	-0.000088
C14	C	0.544206	0.192497	-0.000098
C15	C	0.513767	0.115257	-0.000099
C16	C	0.562279	0.039413	-0.000097
C17	C	0.641223	0.040815	-0.000093
C18	C	0.243908	0.033759	-0.000117
C19	C	0.164958	0.032363	-0.000119
C20	C	0.146890	0.185441	-0.000122
C21	C	0.225834	0.186843	-0.000118
C22	C	0.274339	0.110999	-0.000120
C23	C	0.359940	0.112519	-0.000111
C24	C	0.428167	0.113737	-0.000103
C25	C	0.899600	-0.040454	-0.000100
C26	C	0.898120	-0.133699	-0.000090
C27	C	0.966529	-0.369603	-0.000113
C28	C	0.929645	-0.420093	0.065258
C29	C	0.895377	-0.304415	-0.000100
C30	C	0.929615	-0.420070	-0.065452
C31	C	0.892733	-0.469319	-0.000112
C32	C	0.858512	-0.353677	0.065325
C33	C	0.858493	-0.353650	-0.065443
C34	C	0.821557	-0.404107	-0.000057
C35	C	0.896902	-0.209418	-0.000092
C36	C	0.891202	-0.564312	-0.000114
C37	C	1.032430	0.106716	-0.000124
C38	C	1.116450	0.108202	-0.000129
C39	C	0.888507	0.266715	-0.000117
C40	C	0.889987	0.359961	-0.000122
N41	N	0.894039	0.113130	-0.206659
C42	C	0.939931	0.164014	-0.248380
C43	C	0.939939	0.164011	-0.331833
C44	C	0.894051	0.113127	-0.373561
C45	C	0.848157	0.062237	-0.331834
C46	C	0.848153	0.062237	-0.248383
C47	C	0.848172	0.062239	-0.668381
C48	C	0.848178	0.062245	-0.751838
C49	C	0.939958	0.164012	-0.751830
C50	C	0.939955	0.164012	-0.668380
C51	C	0.894064	0.113119	-0.626659
C52	C	0.894056	0.113122	-0.536171
C53	C	0.894054	0.113128	-0.464048
N54	N	0.894075	0.113125	0.206439
H55	H	0.140178	-0.030539	-0.000120
N56	N	0.967334	-0.456506	0.134579
N57	N	0.931684	-0.496104	0.183511
H58	H	0.958305	-0.521821	0.232467
H59	H	0.810808	0.020807	-0.785811
N60	N	0.801284	0.010261	-0.625783
N61	N	0.810340	-0.068033	-0.635105
H62	H	0.777216	-0.104740	-0.605021
H63	H	0.828486	-0.324794	0.120650
N64	N	0.986826	0.215988	-0.374438
N65	N	1.027793	0.261418	-0.337170
H66	H	1.060910	0.298128	-0.367259
H67	H	0.959673	-0.449064	-0.120714
N68	N	0.986827	0.216000	-0.625768
N69	N	1.027799	0.261430	-0.663030
H70	H	1.060905	0.298147	-0.632937
N71	N	0.801286	0.010237	-0.205775
N72	N	0.760327	-0.035202	-0.243040
H73	H	0.727232	-0.071937	-0.212950
H74	H	0.250612	0.249739	-0.000114
N75	N	0.744618	-0.423369	-0.000016
N76	N	0.720811	-0.464686	-0.056150
H77	H	0.666474	-0.478292	-0.056120
H78	H	1.027817	-0.354103	-0.000054
N79	N	0.097331	0.262908	-0.000122
N80	N	0.026847	0.261652	-0.000127
H81	H	-0.008154	0.316361	-0.000124
N82	N	0.293436	-0.043718	-0.000116
N83	N	0.266246	-0.112675	-0.000112
H84	H	0.301229	-0.167398	-0.000110
N85	N	0.494655	0.269962	-0.000122
N86	N	0.448602	0.286255	-0.056021
H87	H	0.413608	0.340969	-0.056045
N88	N	0.801282	0.010272	-0.374470
N89	N	0.751242	0.043147	-0.421039
H90	H	0.718134	0.006448	-0.451152
H91	H	0.537490	-0.023477	-0.000109
H92	H	0.680716	-0.020940	-0.000089
N93	N	0.820828	-0.317247	-0.134775
N94	N	0.845096	-0.338703	-0.202602
H95	H	0.818500	-0.312994	-0.251574
H96	H	0.977327	0.205450	-0.785809
N97	N	0.654227	0.272806	-0.000080
N98	N	0.610905	0.340512	-0.000085
H99	H	0.632849	0.396244	-0.000082
N100	N	0.986812	0.215994	-0.205771
N101	N	1.027790	0.261415	-0.243037
H102	H	1.060906	0.298124	-0.212947
