data_functionalizedCrystal
_audit_creation_method	'MofGen! by Chris Wilmer'
_symmetry_space_group_name_H-M	'P1'
_symmetry_Int_Tables_number	1
_symmetry_cell_setting	triclinic
loop_
_symmetry_equiv_pos_as_xyz
  x,y,z
_cell_length_a	19.288864
_cell_length_b	27.732048
_cell_length_c	18.366186
_cell_angle_alpha	89.988789
_cell_angle_beta	89.977106
_cell_angle_gamma	82.889449
loop_
_atom_site_label
_atom_site_type_symbol
_atom_site_fract_x
_atom_site_fract_y
_atom_site_fract_z
O1	O	0.920977	0.060300	-0.060791
O2	O	0.718665	0.068434	-0.060742
O3	O	0.826104	-0.006011	-0.060754
O4	O	0.813538	0.134745	-0.060779
O5	O	0.826086	-0.006014	0.060345
O6	O	0.718647	0.068430	0.060357
O7	O	0.920959	0.060296	0.060309
Zn8	Zn	0.819800	0.064363	0.079560
Zn9	Zn	0.819824	0.064368	-0.079994
O10	O	0.813520	0.134741	0.060321
C11	C	0.692781	0.068171	-0.000186
C12	C	0.615683	0.067385	-0.000167
C13	C	0.570714	0.111066	-0.000186
C14	C	0.498271	0.110328	-0.000194
C15	C	0.470801	0.065906	-0.000197
C16	C	0.515780	0.022219	-0.000174
C17	C	0.588220	0.022959	-0.000159
C18	C	0.362763	0.030987	-0.042642
C19	C	0.290323	0.030250	-0.042662
C20	C	0.247370	0.063624	-0.000241
C21	C	0.276863	0.097744	0.042190
C22	C	0.349304	0.098483	0.042206
C23	C	0.392252	0.065099	-0.000213
C24	C	0.123850	0.106507	-0.000268
C25	C	0.051406	0.105767	-0.000271
C26	C	0.068916	0.017658	-0.000258
C27	C	0.141358	0.018399	-0.000248
C28	C	0.168820	0.062825	-0.000256
C29	C	0.825831	-0.024020	-0.000202
C30	C	0.825037	-0.077678	-0.000196
C31	C	0.883526	-0.416316	-0.000248
C32	C	0.880579	-0.617985	-0.000257
O33	O	0.934063	-0.649079	-0.000302
N34	N	0.816872	-0.637301	-0.000241
C35	C	0.753897	-0.606196	-0.000227
O36	O	0.699643	-0.627253	-0.000222
C37	C	0.756845	-0.404529	-0.000223
C38	C	0.820556	-0.385216	-0.000232
C39	C	0.947232	-0.397002	-0.000257
C40	C	0.947968	-0.346588	-0.000251
C41	C	0.884998	-0.315488	-0.000235
C42	C	0.821292	-0.334801	-0.000226
C43	C	0.693871	-0.373425	-0.000215
C44	C	0.694614	-0.323006	-0.000216
C45	C	0.758325	-0.303693	-0.000224
C46	C	0.759059	-0.253287	-0.000203
N47	N	0.822766	-0.233971	-0.000219
C48	C	0.885735	-0.265071	-0.000235
C49	C	0.752354	-0.712075	-0.000228
C50	C	0.751617	-0.762492	-0.000228
C51	C	0.878299	-0.774276	-0.000259
C52	C	0.879035	-0.723859	-0.000254
C53	C	0.816061	-0.692759	-0.000244
C54	C	0.887276	-0.159197	-0.000221
C55	C	0.888007	-0.108778	-0.000212
C56	C	0.761325	-0.096998	-0.000185
C57	C	0.760595	-0.147412	-0.000190
C58	C	0.823576	-0.178511	-0.000211
O59	O	0.705603	-0.222164	-0.000167
O60	O	0.939982	-0.244005	-0.000257
C61	C	0.882790	-0.466730	-0.000254
C62	C	0.819084	-0.486044	-0.000245
C63	C	0.756114	-0.454943	-0.000229
C64	C	0.818347	-0.536461	-0.000244
C65	C	0.881317	-0.567561	-0.000260
C66	C	0.945023	-0.548245	-0.000276
C67	C	0.945760	-0.497831	-0.000270
C68	C	0.692407	-0.474260	-0.000213
C69	C	0.691676	-0.524674	-0.000218
C70	C	0.754646	-0.555775	-0.000234
C71	C	0.946842	0.060560	-0.000249
C72	C	1.023941	0.061345	-0.000273
C73	C	0.813792	0.152751	-0.000233
C74	C	0.814587	0.206408	-0.000244
N75	N	0.819789	0.064359	0.188451
N76	N	0.819841	0.064367	-0.188885
C77	C	0.867378	0.031411	0.226546
C78	C	0.867383	0.031409	0.302774
C79	C	0.819804	0.064363	0.340904
C80	C	0.772206	0.097314	0.302800
C81	C	0.772198	0.097312	0.226573
C82	C	0.810231	0.108406	0.461658
C83	C	0.810244	0.108409	0.537883
C84	C	0.819824	0.064369	0.576011
C85	C	0.829406	0.020325	0.537906
C86	C	0.829398	0.020323	0.461679
C87	C	0.819807	0.064369	0.423559
C88	C	0.867421	0.031416	0.696761
C89	C	0.867420	0.031413	0.772991
C90	C	0.772247	0.097322	0.773015
C91	C	0.772244	0.097321	0.696787
C92	C	0.819835	0.064368	0.658665
H93	H	0.397731	0.003809	-0.077191
H94	H	0.146211	0.142682	-0.000263
F95	F	0.955820	-0.088227	-0.000222
F96	F	0.954308	-0.192288	-0.000244
F97	F	0.918070	-0.003659	0.813536
F98	F	1.014259	-0.430095	-0.000274
F99	F	0.003547	0.152261	-0.000288
H100	H	0.906127	0.004578	0.195509
F101	F	0.039685	-0.029619	-0.000255
F102	F	0.692787	-0.167968	-0.000168
F103	F	0.625382	-0.441166	-0.000198
H104	H	0.906137	0.004578	0.333797
F105	F	0.626060	-0.393969	-0.000209
H106	H	0.639791	-0.540394	-0.000205
H107	H	0.997640	-0.482111	-0.000277
F108	F	0.721606	0.132392	0.813592
F109	F	1.012041	-0.581353	-0.000289
F110	F	0.627586	-0.289909	-0.000207
F111	F	0.599937	0.158348	-0.000192
F112	F	0.380691	0.134794	0.087365
F113	F	0.694312	-0.063890	-0.000168
H114	H	0.837199	-0.015539	0.430657
F115	F	0.946844	-0.703309	-0.000263
F116	F	0.721596	0.132391	0.656240
H117	H	0.493409	-0.013949	-0.000187
F118	F	0.450404	0.156821	-0.000212
F119	F	1.015778	-0.326040	-0.000276
F120	F	0.839607	-0.026548	0.578478
F121	F	0.918068	-0.003657	0.656188
F122	F	0.800050	0.155283	0.578431
F123	F	0.636082	-0.023534	-0.000138
F124	F	0.685324	-0.678981	-0.000218
H125	H	0.929571	-0.799607	-0.000271
F126	F	0.189219	-0.028093	-0.000231
F127	F	0.800085	0.155283	0.421086
F128	F	0.721567	0.132385	0.343381
H129	H	0.733444	0.124142	0.195556
H130	H	0.241891	0.124920	0.076734
F131	F	0.683807	-0.783040	-0.000206
H132	H	0.266315	0.002469	-0.077215
