data_functionalizedCrystal
_audit_creation_method	'MofGen! by Chris Wilmer'
_symmetry_space_group_name_H-M	'P1'
_symmetry_Int_Tables_number	1
_symmetry_cell_setting	triclinic
loop_
_symmetry_equiv_pos_as_xyz
  x,y,z
_cell_length_a	16.625547
_cell_length_b	15.297327
_cell_length_c	16.625539
_cell_angle_alpha	99.648496
_cell_angle_beta	89.978691
_cell_angle_gamma	99.707591
loop_
_atom_site_label
_atom_site_type_symbol
_atom_site_fract_x
_atom_site_fract_y
_atom_site_fract_z
Zn1	Zn	1.177072	-0.359184	-0.511519
Zn2	Zn	1.677072	0.140816	-0.011519
Zn3	Zn	1.153637	-0.510055	-0.400006
Zn4	Zn	1.653637	-0.010055	0.099994
Zn5	Zn	1.042238	-0.359211	-0.376694
Zn6	Zn	1.542238	0.140789	0.123306
Zn7	Zn	1.018866	-0.510005	-0.534779
Zn8	Zn	1.518866	-0.010005	-0.034779
O9	O	1.097953	-0.434613	-0.455750
O10	O	1.597953	0.065387	0.044250
O11	O	1.286794	-0.379207	-0.496749
O12	O	1.786794	0.120793	0.003251
O13	O	1.138834	-0.490077	-0.284086
O14	O	1.638834	0.009923	0.215914
O15	O	1.079712	-0.232959	-0.375088
O16	O	1.579712	0.267041	0.124912
O17	O	1.269577	-0.490051	-0.414821
O18	O	1.769577	0.009949	0.085179
O19	O	1.178774	-0.232940	-0.474144
O20	O	1.678774	0.267060	0.025856
O21	O	1.056989	-0.379252	-0.266959
O22	O	1.556989	0.120748	0.233041
O23	O	0.926306	-0.379204	-0.397642
O24	O	1.426306	0.120796	0.102358
O25	O	1.039878	-0.489966	-0.644521
O26	O	1.539878	0.010034	-0.144521
O27	O	0.909135	-0.489992	-0.513786
O28	O	1.409135	0.010008	-0.013786
O29	O	1.156112	-0.379159	-0.627432
O30	O	1.656112	0.120841	-0.127432
O31	O	1.116171	-0.636296	-0.437375
O32	O	1.616171	-0.136296	0.062625
O33	O	1.017155	-0.636259	-0.536391
O34	O	1.517155	-0.136259	-0.036391
C35	C	0.888465	-0.434596	-0.455709
C36	C	1.388465	0.065404	0.044291
C37	C	0.798842	-0.434610	-0.455714
C38	C	1.298842	0.065390	0.044286
C39	C	1.061605	-0.669012	-0.491954
C40	C	1.561605	-0.169012	0.008046
C41	C	1.046130	-0.769289	-0.507469
C42	C	1.546130	-0.269289	-0.007469
C43	C	1.208894	-1.051903	-0.345134
C44	C	1.708894	-0.551903	0.154866
C45	C	1.223434	-0.957688	-0.330552
C46	C	1.723434	-0.457688	0.169448
C47	C	1.179109	-0.910584	-0.374780
C48	C	1.679109	-0.410584	0.125220
C49	C	1.120242	-0.957703	-0.433592
C50	C	1.620242	-0.457703	0.066408
C51	C	1.105696	-1.051928	-0.448171
C52	C	1.605696	-0.551928	0.051829
C53	C	1.075911	-0.910608	-0.477817
C54	C	1.575911	-0.410608	0.022183
C55	C	1.017044	-0.957728	-0.536630
C56	C	1.517044	-0.457728	-0.036630
C57	C	1.002501	-1.051943	-0.551206
C58	C	1.502501	-0.551943	-0.051206
C59	C	1.046826	-1.099047	-0.506978
C60	C	1.546826	-0.599047	-0.006978
C61	C	1.090457	-0.816384	-0.463239
C62	C	1.590457	-0.316384	0.036761
C63	C	0.987259	-0.816408	-0.566276
C64	C	1.487259	-0.316408	-0.066276
C65	C	0.972719	-0.910623	-0.580858
C66	C	1.472719	-0.410623	-0.080858
C67	C	0.726059	-0.434612	-0.455724
C68	C	1.226059	0.065388	0.044276
C69	C	0.634750	-0.434617	-0.455745
C70	C	1.134750	0.065383	0.044255
C71	C	0.561972	-0.434625	-0.455767
C72	C	1.061972	0.065375	0.044233
C73	C	0.470657	-0.434631	-0.455787
C74	C	0.970657	0.065369	0.044213
C75	C	1.308259	-0.434632	-0.455791
C76	C	1.808259	0.065368	0.044209
C77	C	1.397879	-0.434639	-0.455809
C78	C	1.897879	0.065361	0.044191
C79	C	1.098002	-0.434554	-0.666049
C80	C	1.598002	0.065446	-0.166049
C81	C	1.098023	-0.434529	-0.755667
C82	C	1.598023	0.065471	-0.255667
C83	C	1.134465	-0.199300	-0.419421
C84	C	1.634465	0.300700	0.080579
C85	C	1.150024	-0.099023	-0.403940
C86	C	1.650024	0.400977	0.096060
C87	C	1.098039	-0.434509	-0.828446
C88	C	1.598039	0.065491	-0.328446
C89	C	1.098063	-0.434475	-0.919749
C90	C	1.598063	0.065525	-0.419749
C91	C	1.098087	-0.434443	-0.992521
C92	C	1.598087	0.065557	-0.492521
C93	C	1.098112	-0.434411	-1.083830
C94	C	1.598112	0.065589	-0.583830
C95	C	1.097961	-0.434608	-0.246258
C96	C	1.597961	0.065392	0.253742
C97	C	1.098136	-0.434379	-0.156602
C98	C	1.598136	0.065621	0.343398
H99	H	1.190951	-0.833870	-0.362904
H100	H	1.690951	-0.333870	0.137096
O101	O	0.945406	-1.097674	-0.608440
O102	O	1.445406	-0.597674	-0.108440
C103	C	0.901717	-1.126396	-0.749999
C104	C	1.401717	-0.626396	-0.249999
C105	C	0.966446	-1.074570	-0.685268
C106	C	1.466446	-0.574570	-0.185268
H107	H	0.918696	-1.107722	-0.812125
H108	H	1.418696	-0.607722	-0.312125
H109	H	0.898934	-1.201838	-0.752893
H110	H	1.398934	-0.701838	-0.252893
H111	H	0.839563	-1.107949	-0.732880
H112	H	1.339563	-0.607949	-0.232880
H113	H	1.028634	-1.092942	-0.702339
H114	H	1.528634	-0.592942	-0.202339
H115	H	0.969158	-0.999141	-0.682385
H116	H	1.469158	-0.499141	-0.182385
O117	O	1.280672	-0.912059	-0.273428
O118	O	1.780672	-0.412059	0.226572
C119	C	1.381466	-0.921983	-0.172740
C120	C	1.881466	-0.421983	0.327260
C121	C	1.316675	-0.973771	-0.237424
C122	C	1.816675	-0.473771	0.262576
H123	H	1.410581	-0.971855	-0.143600
H124	H	1.910581	-0.471855	0.356400
H125	H	1.430473	-0.877833	-0.202932
H126	H	1.930473	-0.377833	0.297068
H127	H	1.351266	-0.877910	-0.123758
H128	H	1.851266	-0.377910	0.376242
H129	H	1.346803	-1.017893	-0.286425
H130	H	1.846803	-0.517893	0.213575
H131	H	1.267675	-1.017864	-0.207172
H132	H	1.767675	-0.517864	0.292828
H133	H	1.244972	-1.090264	-0.309125
H134	H	1.744972	-0.590264	0.190875
H135	H	0.924788	-0.949002	-0.628743
H136	H	1.424788	-0.449002	-0.128743
H137	H	1.034992	-1.175765	-0.518849
H138	H	1.534992	-0.675765	-0.018849
O139	O	0.944297	-0.770522	-0.609198
O140	O	1.444297	-0.270522	-0.109198
C141	C	0.920938	-0.625380	-0.632369
C142	C	1.420938	-0.125380	-0.132369
C143	C	0.969661	-0.677240	-0.583723
C144	C	1.469661	-0.177240	-0.083723
H145	H	0.941414	-0.549952	-0.611778
H146	H	1.441414	-0.049952	-0.111778
H147	H	0.932218	-0.643779	-0.700264
H148	H	1.432218	-0.143779	-0.200264
H149	H	0.853060	-0.644025	-0.621040
H150	H	1.353060	-0.144025	-0.121040
H151	H	1.037553	-0.658623	-0.594983
H152	H	1.537553	-0.158623	-0.094983
H153	H	0.958312	-0.658837	-0.515844
H154	H	1.458312	-0.158837	-0.015844
H155	H	1.138387	-0.778027	-0.415353
H156	H	1.638387	-0.278027	0.084647
