data_functionalizedCrystal
_audit_creation_method	'MofGen! by Chris Wilmer'
_symmetry_space_group_name_H-M	'P1'
_symmetry_Int_Tables_number	1
_symmetry_cell_setting	triclinic
loop_
_symmetry_equiv_pos_as_xyz
  x,y,z
_cell_length_a	14.044191
_cell_length_b	14.044220
_cell_length_c	12.503552
_cell_angle_alpha	93.839943
_cell_angle_beta	86.157523
_cell_angle_gamma	93.190327
loop_
_atom_site_label
_atom_site_type_symbol
_atom_site_fract_x
_atom_site_fract_y
_atom_site_fract_z
O1	O	1.282215	0.225150	-0.089273
O2	O	1.615548	0.558483	0.244060
O3	O	1.948882	0.891817	0.577393
O4	O	1.005543	0.216836	-0.089287
O5	O	1.338877	0.550170	0.244047
O6	O	1.672210	0.883503	0.577380
O7	O	1.139726	0.082658	-0.089270
O8	O	1.473059	0.415991	0.244064
O9	O	1.806392	0.749325	0.577397
O10	O	1.148032	0.359328	-0.089291
O11	O	1.481366	0.692662	0.244043
O12	O	1.814699	1.025995	0.577376
O13	O	1.129622	0.092758	0.089372
O14	O	1.462956	0.426091	0.422705
O15	O	1.796289	0.759424	0.756038
O16	O	0.995440	0.226936	0.089354
O17	O	1.328773	0.560269	0.422688
O18	O	1.662107	0.893603	0.756021
O19	O	1.272112	0.235250	0.089368
O20	O	1.605445	0.568583	0.422701
O21	O	1.938778	0.901916	0.756034
Cu22	Cu	1.132853	0.232015	0.105672
Cu23	Cu	1.466187	0.565348	0.439006
Cu24	Cu	1.799520	0.898682	0.772339
Cu25	Cu	1.144802	0.220071	-0.105591
Cu26	Cu	1.478135	0.553404	0.227742
Cu27	Cu	1.811468	0.886738	0.561075
O28	O	1.137929	0.369428	0.089351
O29	O	1.471263	0.702761	0.422684
O30	O	1.804596	1.036095	0.756017
C31	C	0.964870	0.218250	0.000032
C32	C	1.298203	0.551583	0.333366
C33	C	1.631536	0.884916	0.666699
C34	C	0.858727	0.207402	0.000027
C35	C	1.192060	0.540735	0.333361
C36	C	1.525394	0.874069	0.666694
C37	C	0.613268	0.264503	0.000034
C38	C	0.946601	0.597836	0.333367
C39	C	1.279935	0.931170	0.666700
C40	C	0.664393	0.187587	0.000038
C41	C	0.997727	0.520920	0.333371
C42	C	1.331060	0.854254	0.666704
C43	C	0.772531	0.198615	0.000032
C44	C	1.105864	0.531948	0.333365
C45	C	1.439197	0.865281	0.666699
C46	C	0.505121	0.253477	0.000040
C47	C	0.838454	0.586810	0.333373
C48	C	1.171788	0.920143	0.666706
C49	C	1.131038	0.052086	0.000051
C50	C	1.464372	0.385419	0.333385
C51	C	1.797705	0.718753	0.666718
C52	C	1.120194	-0.054057	0.000052
C53	C	1.453527	0.279276	0.333385
C54	C	1.786860	0.612610	0.666719
C55	C	1.100368	-0.248396	0.000036
C56	C	1.433702	0.084937	0.333369
C57	C	1.767035	0.418270	0.666702
C58	C	1.177283	-0.299524	0.000036
C59	C	1.510616	0.033809	0.333369
C60	C	1.843950	0.367142	0.666703
C61	C	1.166252	-0.407661	0.000027
C62	C	1.499585	-0.074328	0.333360
C63	C	1.832918	0.259006	0.666694
C64	C	1.111398	-0.140249	0.000045
C65	C	1.444731	0.193084	0.333378
C66	C	1.778065	0.526417	0.666711
C67	C	1.312785	0.233836	0.000046
C68	C	1.646119	0.567170	0.333380
C69	C	1.979452	0.900503	0.666713
C70	C	1.418929	0.244683	0.000044
C71	C	1.752262	0.578017	0.333378
C72	C	2.085595	0.911350	0.666711
C73	C	1.146617	0.400000	0.000027
C74	C	1.479950	0.733333	0.333361
C75	C	1.813283	1.066667	0.666694
C76	C	1.157462	0.506143	0.000020
C77	C	1.490795	0.839476	0.333353
C78	C	1.824128	1.172809	0.666686
N79	N	1.124457	0.240416	0.254264
N80	N	1.457790	0.573749	0.587597
N81	N	1.791123	0.907082	0.920931
N82	N	1.153205	0.211663	-0.254183
N83	N	1.486539	0.544997	0.079150
N84	N	1.819872	0.878330	0.412484
C85	C	1.165552	0.199302	0.526702
C86	C	1.498885	0.532635	0.860036
C87	C	1.832219	0.865969	1.193369
C88	C	1.112113	0.252774	0.473372
C89	C	1.445446	0.586107	0.806705
C90	C	1.778779	0.919441	1.140038
C91	C	1.118983	0.245896	0.351449
C92	C	1.452316	0.579229	0.684782
C93	C	1.785649	0.912563	1.018116
C94	C	1.158683	0.206179	0.648636
C95	C	1.492017	0.539512	0.981970
C96	C	1.825350	0.872846	1.315303
H97	H	0.650710	0.338629	0.000025
H98	H	0.984043	0.671962	0.333358
H99	H	1.317376	1.005296	0.666692
H100	H	1.216460	0.148362	0.480799
H101	H	1.549793	0.481695	0.814132
H102	H	1.883127	0.815028	1.147465
H103	H	1.251420	-0.262087	-0.000032
H104	H	1.584754	0.071246	0.333301
H105	H	1.918087	0.404580	0.666634
O106	O	1.011999	-0.293203	0.000083
O107	O	1.345332	0.040130	0.333417
O108	O	1.678665	0.373464	0.666750
C109	C	1.020522	-0.392762	0.000052
C110	C	1.353855	-0.059429	0.333385
C111	C	1.687188	0.273905	0.666718
H112	H	1.091175	-0.407811	0.033865
H113	H	1.424509	-0.074477	0.367199
H114	H	1.757842	0.258856	0.700532
H115	H	0.958843	-0.425262	0.051919
H116	H	1.292176	-0.091928	0.385252
H117	H	1.625510	0.241405	0.718586
H118	H	1.018437	-0.425719	-0.085652
H119	H	1.351771	-0.092386	0.247681
H120	H	1.685104	0.240947	0.581014
H121	H	0.626954	0.113450	-0.000032
H122	H	0.960287	0.446784	0.333301
H123	H	1.293620	0.780117	0.666634
H124	H	1.061203	0.303719	0.519281
H125	H	1.394536	0.637052	0.852614
H126	H	1.727869	0.970386	1.185948
