data_functionalizedCrystal
_audit_creation_method	'MofGen! by Chris Wilmer'
_symmetry_space_group_name_H-M	'P1'
_symmetry_Int_Tables_number	1
_symmetry_cell_setting	triclinic
loop_
_symmetry_equiv_pos_as_xyz
  x,y,z
_cell_length_a	13.897448
_cell_length_b	10.685969
_cell_length_c	10.686551
_cell_angle_alpha	89.648066
_cell_angle_beta	94.407384
_cell_angle_gamma	94.348258
loop_
_atom_site_label
_atom_site_type_symbol
_atom_site_fract_x
_atom_site_fract_y
_atom_site_fract_z
Zn1	Zn	-0.466497	-1.972184	0.561976
Zn2	Zn	-0.639181	-1.955944	0.352214
Zn3	Zn	-0.464678	-1.746311	0.368339
Zn4	Zn	-0.614522	-1.762383	0.578031
O5	O	-0.546219	-1.859205	0.465140
O6	O	-0.500485	-2.145564	0.520683
O7	O	-0.625591	-1.914613	0.178810
O8	O	-0.329940	-1.776343	0.394054
O9	O	-0.627355	-2.133632	0.366572
O10	O	-0.331276	-1.942291	0.536319
O11	O	-0.497385	-1.760596	0.190656
O12	O	-0.473474	-1.572908	0.409622
O13	O	-0.585327	-1.803736	0.751445
O14	O	-0.583564	-1.584716	0.563682
O15	O	-0.476574	-1.957876	0.739649
O16	O	-0.770889	-1.930197	0.382140
O17	O	-0.752772	-1.787989	0.548047
C18	C	-0.525646	-1.533298	0.490145
C19	C	-0.516866	-1.393876	0.500872
C20	C	-0.796830	-1.859111	0.465111
C21	C	-0.904047	-1.859188	0.465131
C22	C	-1.100346	-1.859326	0.465200
C23	C	-0.991111	-1.859246	0.465166
C24	C	-0.294631	-1.859336	0.465194
C25	C	-0.187419	-1.859392	0.465217
C26	C	-0.528403	-1.884410	0.792336
C27	C	-0.520811	-1.895151	0.931767
C28	C	-0.566865	-1.186384	0.440024
C29	C	-0.575641	-1.325805	0.429285
C30	C	-0.563901	-1.834170	0.139211
C31	C	-0.571237	-1.823673	-0.000238
H32	H	-0.620220	-1.754263	0.951306
H33	H	-0.632688	-1.374196	0.359789
C34	C	-0.440667	-1.329526	0.593462
C35	C	-0.348653	-1.359258	0.563965
C36	C	-0.278435	-1.300008	0.649244
H37	H	-0.444538	-1.241237	0.588684
H38	H	-0.451574	-1.357476	0.676103
H39	H	-0.337749	-1.331301	0.481345
H40	H	-0.344750	-1.447537	0.568752
H41	H	-0.289342	-1.327958	0.731885
H42	H	-0.282315	-1.211721	0.644459
H43	H	-0.215996	-1.320182	0.629249
C44	C	-0.455508	-1.987592	0.996610
C45	C	-0.460677	-1.980199	1.126656
C46	C	-0.400524	-2.065321	1.186430
H47	H	-0.476026	-2.070299	0.968874
H48	H	-0.390668	-1.967624	0.976692
H49	H	-0.525504	-2.000176	1.146564
H50	H	-0.440151	-1.897512	1.154428
H51	H	-0.335684	-2.045353	1.166512
H52	H	-0.421048	-2.148023	1.158684
H53	H	-0.404017	-2.060309	1.274672
