data_functionalizedCrystal
_audit_creation_method	'MofGen! by Chris Wilmer'
_symmetry_space_group_name_H-M	'P1'
_symmetry_Int_Tables_number	1
_symmetry_cell_setting	triclinic
loop_
_symmetry_equiv_pos_as_xyz
  x,y,z
_cell_length_a	12.759401
_cell_length_b	25.639240
_cell_length_c	12.759393
_cell_angle_alpha	90.044235
_cell_angle_beta	90.018496
_cell_angle_gamma	90.032919
loop_
_atom_site_label
_atom_site_type_symbol
_atom_site_fract_x
_atom_site_fract_y
_atom_site_fract_z
Zn1	Zn	1.606124	-0.208118	0.593889
Zn2	Zn	2.106124	0.291882	1.093889
Zn3	Zn	1.605962	-0.295564	0.418170
Zn4	Zn	2.105962	0.204436	0.918170
Zn5	Zn	1.430425	-0.208145	0.418228
Zn6	Zn	1.930425	0.291855	0.918228
Zn7	Zn	1.430359	-0.295524	0.593812
Zn8	Zn	1.930359	0.204476	1.093812
O9	O	1.518218	-0.251838	0.506025
O10	O	2.018218	0.248162	1.006025
O11	O	1.753123	-0.219723	0.570587
O12	O	2.253123	0.280277	1.070587
O13	O	1.582638	-0.283996	0.271157
O14	O	2.082638	0.216004	0.771157
O15	O	1.453828	-0.134976	0.441587
O16	O	1.953828	0.365024	0.941587
O17	O	1.753005	-0.283970	0.441488
O18	O	2.253005	0.216030	0.941488
O19	O	1.582912	-0.134956	0.570644
O20	O	2.082912	0.365044	1.070644
O21	O	1.453671	-0.219770	0.271199
O22	O	1.953671	0.280230	0.771199
O23	O	1.283396	-0.219731	0.441512
O24	O	1.783396	0.280269	0.941512
O25	O	1.453714	-0.283901	0.740843
O26	O	1.953714	0.216099	1.240843
O27	O	1.283347	-0.283928	0.570512
O28	O	1.783347	0.216072	1.070512
O29	O	1.582847	-0.219684	0.740900
O30	O	2.082847	0.280316	1.240900
O31	O	1.582573	-0.368724	0.441413
O32	O	2.082573	0.131276	0.941413
O33	O	1.453558	-0.368695	0.570456
O34	O	1.953558	0.131305	1.070456
C35	C	1.245250	-0.251828	0.506010
C36	C	1.745250	0.248172	1.006010
C37	C	1.128474	-0.251837	0.506029
C38	C	1.628474	0.248163	1.006029
C39	C	1.518069	-0.387680	0.505942
C40	C	2.018069	0.112320	1.005942
C41	C	1.518102	-0.445795	0.505942
C42	C	2.018102	0.054205	1.005942
C43	C	1.073614	-0.285318	0.573089
C44	C	1.573614	0.214682	1.073089
C45	C	0.963889	-0.285324	0.573100
C46	C	1.463889	0.214676	1.073100
C47	C	0.963895	-0.218368	0.438984
C48	C	1.463895	0.281632	0.938984
C49	C	1.073617	-0.218359	0.438978
C50	C	1.573617	0.281641	0.938978
C51	C	1.073609	-0.323976	0.650516
C52	C	1.573609	0.176024	1.150516
C53	C	0.963885	-0.323983	0.650528
C54	C	1.463885	0.176017	1.150528
C55	C	1.585465	-0.806109	0.573346
C56	C	2.085465	-0.306109	1.073346
C57	C	1.585496	-0.860713	0.573367
C58	C	2.085496	-0.360713	1.073367
O59	O	1.642595	-0.888908	0.630592
O60	O	2.142595	-0.388908	1.130592
N61	N	1.518363	-0.888077	0.506126
N62	N	2.018363	-0.388077	1.006126
C63	C	1.451188	-0.860834	0.438867
C64	C	1.951188	-0.360834	0.938867
O65	O	1.394088	-0.889123	0.381676
O66	O	1.894088	-0.389123	0.881676
C67	C	1.451152	-0.806230	0.438852
C68	C	1.951152	-0.306230	0.938852
C69	C	1.518297	-0.778869	0.506090
C70	C	2.018297	-0.278869	1.006090
C71	C	1.652604	-0.778747	0.640579
C72	C	2.152604	-0.278747	1.140579
C73	C	1.652574	-0.724147	0.640556
C74	C	2.152574	-0.224147	1.140556
C75	C	1.585406	-0.696907	0.573300
C76	C	2.085406	-0.196907	1.073300
C77	C	1.518267	-0.724269	0.506067
C78	C	2.018267	-0.224269	1.006067
C79	C	1.383972	-0.778988	0.371598
C80	C	1.883972	-0.278988	0.871598
C81	C	1.383941	-0.724381	0.371590
C82	C	1.883941	-0.224381	0.871590
C83	C	1.451086	-0.697020	0.438828
C84	C	1.951086	-0.197020	0.938828
C85	C	1.451069	-0.642429	0.438787
C86	C	1.951069	-0.142429	0.938787
N87	N	1.518202	-0.615065	0.506028
N88	N	2.018202	-0.115065	1.006028
C89	C	1.585370	-0.642304	0.573285
C90	C	2.085370	-0.142304	1.073285
C91	C	1.451266	-0.975504	0.438905
C92	C	1.951266	-0.475504	0.938905
C93	C	1.451306	-1.030107	0.438915
C94	C	1.951306	-0.530107	0.938915
C95	C	1.585614	-1.029982	0.573417
C96	C	2.085614	-0.529982	1.073417
C97	C	1.585578	-0.975379	0.573401
C98	C	2.085578	-0.475379	1.073401
C99	C	1.518399	-0.948140	0.506146
C100	C	2.018399	-0.448140	1.006146
C101	C	1.585303	-0.527639	0.573231
C102	C	2.085303	-0.027639	1.073231
C103	C	1.585270	-0.473034	0.573199
C104	C	2.085270	0.026966	1.073199
C105	C	1.450959	-0.473163	0.438701
C106	C	1.950959	0.026837	0.938701
C107	C	1.450995	-0.527764	0.438729
C108	C	1.950995	-0.027764	0.938729
C109	C	1.518171	-0.555000	0.506002
C110	C	2.018171	-0.055000	1.006002
O111	O	1.393996	-0.614199	0.381595
O112	O	1.893996	-0.114199	0.881595
O113	O	1.642450	-0.614008	0.630476
O114	O	2.142450	-0.114008	1.130476
C115	C	1.792251	-0.251848	0.506040
C116	C	2.292251	0.248152	1.006040
C117	C	1.909027	-0.251852	0.506046
C118	C	2.409027	0.248148	1.006046
C119	C	1.518291	-0.251785	0.780058
C120	C	2.018291	0.248215	1.280058
C121	C	1.518323	-0.251763	0.896835
C122	C	2.018323	0.248237	1.396835
C123	C	1.518395	-0.115465	0.506130
C124	C	2.018395	0.384535	1.006130
C125	C	1.518471	-0.057351	0.506175
C126	C	2.018471	0.442649	1.006175
C127	C	1.518205	-0.251853	0.233057
C128	C	2.018205	0.248147	0.733057
C129	C	1.518377	-0.251728	0.116281
C130	C	2.018377	0.248272	0.616281
C131	C	1.585572	-0.218322	0.951728
C132	C	2.085572	0.281678	1.451728
C133	C	1.585597	-0.218303	1.061452
C134	C	2.085597	0.281697	1.561452
C135	C	1.451120	-0.285170	1.061380
C136	C	1.951120	0.214830	1.561380
C137	C	1.451091	-0.285186	0.951658
C138	C	1.951091	0.214814	1.451658
C139	C	1.663214	-0.179718	0.951771
C140	C	2.163214	0.320282	1.451771
C141	C	1.663239	-0.179699	1.061495
C142	C	2.163239	0.320301	1.561495
H143	H	1.118280	-0.191092	0.384379
H144	H	1.618280	0.308908	0.884379
H145	H	0.919218	-0.191111	0.384394
H146	H	1.419218	0.308889	0.884394
H147	H	1.396381	-0.312382	1.106031
H148	H	1.896381	0.187618	1.606031
H149	H	1.103424	-0.313178	0.731928
H150	H	1.603424	0.186822	1.231928
Br151	Br	1.130272	-0.388072	0.601787
Br152	Br	1.630272	0.111928	1.101787
H153	H	0.929897	-0.309529	0.727886
H154	H	1.429897	0.190471	1.227886
H155	H	1.396641	-1.052380	0.384151
H156	H	1.896641	-0.552380	0.884151
H157	H	1.744603	-0.190544	1.091268
H158	H	2.244603	0.309456	1.591268
H159	H	1.641471	-0.139227	0.922033
H160	H	2.141471	0.360773	1.422033
H161	H	0.934064	-0.364467	0.628578
H162	H	1.434064	0.135533	1.128578
H163	H	1.329295	-0.801257	0.316846
H164	H	1.829295	-0.301257	0.816846
Br165	Br	1.359886	-0.564898	0.347460
Br166	Br	1.859886	-0.064898	0.847460
H167	H	1.634149	-0.141226	1.095560
H168	H	2.134149	0.358774	1.595560
Br169	Br	1.676405	-0.435904	0.664452
Br170	Br	2.176405	0.064096	1.164452
H171	H	1.639996	-0.549809	0.628018
H172	H	2.139996	-0.049809	1.128018
H173	H	1.640253	-0.953104	0.628153
H174	H	2.140253	-0.453104	1.128153
Br175	Br	1.360091	-0.938544	0.347617
Br176	Br	1.860091	-0.438544	0.847617
H177	H	1.707246	-0.701872	0.695310
H178	H	2.207246	-0.201872	1.195310
Br179	Br	1.743768	-0.815705	0.731874
Br180	Br	2.243768	-0.315705	1.231874
Br181	Br	1.676773	-1.066960	0.664693
Br182	Br	2.176773	-0.566960	1.164693
H183	H	1.329233	-0.702207	0.316824
H184	H	1.829233	-0.202207	0.816824
H185	H	1.396274	-0.450977	0.383938
H186	H	1.896274	0.049023	0.883938
Br187	Br	1.359800	-0.330562	0.877162
Br188	Br	1.859800	0.169438	1.377162
H189	H	1.740476	-0.194233	0.917728
H190	H	2.240476	0.305767	1.417728
