data_functionalizedCrystal
_audit_creation_method	'MofGen! by Chris Wilmer'
_symmetry_space_group_name_H-M	'P1'
_symmetry_Int_Tables_number	1
_symmetry_cell_setting	triclinic
loop_
_symmetry_equiv_pos_as_xyz
  x,y,z
_cell_length_a	12.759401
_cell_length_b	15.299816
_cell_length_c	12.759393
_cell_angle_alpha	99.650122
_cell_angle_beta	89.981433
_cell_angle_gamma	80.349384
loop_
_atom_site_label
_atom_site_type_symbol
_atom_site_fract_x
_atom_site_fract_y
_atom_site_fract_z
Zn1	Zn	1.678549	-0.359025	-0.666404
Zn2	Zn	1.708818	-0.509869	-0.521151
Zn3	Zn	1.502860	-0.359070	-0.490752
Zn4	Zn	1.533200	-0.509797	-0.696778
O5	O	1.605857	-0.434440	-0.593771
O6	O	1.829588	-0.379047	-0.647146
O7	O	1.681468	-0.489914	-0.370107
O8	O	1.500801	-0.232855	-0.488619
O9	O	1.851826	-0.489871	-0.540430
O10	O	1.629879	-0.232823	-0.617669
O11	O	1.530151	-0.379122	-0.347773
O12	O	1.359861	-0.379052	-0.518071
O13	O	1.552510	-0.489748	-0.839760
O14	O	1.382152	-0.489791	-0.669437
O15	O	1.659298	-0.378977	-0.817444
O16	O	1.710886	-0.636068	-0.569882
O17	O	1.581860	-0.636015	-0.698914
C18	C	1.332885	-0.434419	-0.593752
C19	C	1.216111	-0.434432	-0.593774
C20	C	1.149685	-0.376835	-0.649467
C21	C	1.039964	-0.376852	-0.649477
C22	C	1.063108	-0.492071	-0.538099
C23	C	1.172825	-0.492049	-0.538083
C24	C	1.192971	-0.319217	-0.705157
C25	C	1.126543	-0.261616	-0.760856
C26	C	1.016823	-0.261633	-0.760866
C27	C	0.973529	-0.319252	-0.705177
C28	C	1.652979	-0.668766	-0.641016
C29	C	1.673234	-0.769011	-0.661263
C30	C	1.461780	-1.051953	-0.449422
C31	C	1.442744	-0.957767	-0.430402
C32	C	1.500365	-0.910574	-0.488115
C33	C	1.577025	-0.957575	-0.564852
C34	C	1.596057	-1.051770	-0.583880
C35	C	1.634642	-0.910391	-0.622573
C36	C	1.711302	-0.957392	-0.699311
C37	C	1.730331	-1.051577	-0.718335
C38	C	1.672710	-1.098771	-0.660621
C39	C	1.615610	-0.816196	-0.603545
C40	C	1.749887	-0.816013	-0.738004
C41	C	1.768923	-0.910198	-0.757024
C42	C	1.879894	-0.434462	-0.593791
C43	C	1.996673	-0.434472	-0.593799
C44	C	1.605912	-0.434349	-0.867786
C45	C	1.605936	-0.434311	-0.984555
C46	C	1.558580	-0.199200	-0.546365
C47	C	1.538433	-0.098954	-0.526163
C48	C	1.661548	-0.376627	-1.027798
C49	C	1.661567	-0.376594	-1.137516
C50	C	1.550358	-0.491937	-1.160739
C51	C	1.550334	-0.491965	-1.051023
C52	C	1.717149	-0.318973	-0.961330
C53	C	1.772767	-0.261285	-1.004573
C54	C	1.772786	-0.261252	-1.114290
C55	C	1.717186	-0.318907	-1.180766
C56	C	1.605849	-0.434466	-0.320809
C57	C	1.605978	-0.434251	-0.203989
H58	H	1.161799	-0.214700	-0.806188
H59	H	1.818027	-0.214338	-0.950440
O60	O	1.496455	-0.547918	-1.225468
C61	C	1.508383	-0.535510	-1.331576
H62	H	1.583530	-0.505972	-1.340614
H63	H	1.436419	-0.487471	-1.353038
C64	C	1.424818	-0.663028	-1.395185
C65	C	1.517120	-0.626756	-1.406287
H66	H	1.430202	-0.719311	-1.441271
H67	H	1.416777	-0.671386	-1.323697
H68	H	1.364856	-0.622987	-1.413068
H69	H	1.577077	-0.666792	-1.388391
H70	H	1.525170	-0.618407	-1.477773
H71	H	1.414868	-1.090387	-0.402445
H72	H	1.484862	-0.833884	-0.472623
H73	H	1.505031	-0.538922	-1.015812
H74	H	0.962739	-0.214725	-0.806210
O75	O	1.299523	-0.319057	-0.705218
C76	C	1.323491	-0.255871	-0.766336
H77	H	1.249666	-0.203203	-0.770540
H78	H	1.350203	-0.291713	-0.850096
C79	C	1.503990	-0.274269	-0.709105
C80	C	1.413318	-0.209576	-0.714261
H81	H	1.559402	-0.245714	-0.676987
H82	H	1.487844	-0.316841	-0.667932
H83	H	1.526236	-0.304132	-0.778909
H84	H	1.391066	-0.179722	-0.644457
H85	H	1.429462	-0.166998	-0.755422
H86	H	1.818064	-0.214273	-1.149493
O87	O	1.843302	-0.955765	-0.831701
C88	C	1.815602	-0.932715	-0.931738
H89	H	1.761413	-0.864349	-0.920073
H90	H	1.772267	-0.985735	-0.977777
C91	C	1.983641	-1.012234	-1.008908
C92	C	1.917093	-0.928262	-0.994580
H93	H	2.046244	-1.009491	-1.047675
H94	H	2.002302	-1.027767	-0.941512
H95	H	1.947516	-1.056409	-1.047269
H96	H	1.953214	-0.884091	-0.956208
H97	H	1.898440	-0.912722	-1.061971
O98	O	1.021197	-0.548170	-0.484092
C99	C	1.066103	-0.638076	-0.525025
H100	H	1.146169	-0.639969	-0.565778
H101	H	1.010506	-0.668519	-0.585131
C102	C	0.983766	-0.690282	-0.383440
C103	C	1.082108	-0.692607	-0.433486
H104	H	0.993634	-0.723921	-0.326976
H105	H	0.953508	-0.629711	-0.355864
H106	H	0.937444	-0.715649	-0.433538
H107	H	1.128423	-0.667230	-0.383391
H108	H	1.112374	-0.753176	-0.461051
O109	O	1.368163	-0.912216	-0.355930
C110	C	1.268097	-0.935275	-0.383473
H111	H	1.279710	-1.003635	-0.437671
H112	H	1.221964	-0.882251	-0.426743
C113	C	1.191156	-0.855787	-0.215330
C114	C	1.205419	-0.939752	-0.281890
H115	H	1.152490	-0.858544	-0.152669
H116	H	1.258571	-0.840248	-0.196774
H117	H	1.152715	-0.811609	-0.251400
H118	H	1.243870	-0.983925	-0.245824
H119	H	1.138009	-0.955298	-0.300437
O120	O	1.804725	-1.097133	-0.793003
C121	C	1.777044	-1.074080	-0.893042
H122	H	1.722839	-1.005722	-0.881382
H123	H	1.733733	-1.127109	-0.939101
C124	C	1.945113	-1.153565	-0.970176
C125	C	1.878543	-1.069602	-0.955854
H126	H	2.007721	-1.150806	-1.008924
H127	H	1.963761	-1.169099	-0.902779
H128	H	1.909007	-1.197746	-1.008554
H129	H	1.914644	-1.025425	-0.917466
H130	H	1.859903	-1.054060	-1.023247
O131	O	1.717387	-0.318958	-1.287362
C132	C	1.822745	-0.342097	-1.328688
H133	H	1.874069	-0.381434	-1.273383
H134	H	1.855432	-0.278244	-1.335302
C135	C	1.761310	-0.352176	-1.507532
C136	C	1.824345	-0.400496	-1.439609
H137	H	1.762298	-0.388196	-1.575955
H138	H	1.690328	-0.336583	-1.479690
H139	H	1.788557	-0.298967	-1.513031
H140	H	1.797090	-0.453697	-1.434100
H141	H	1.895323	-0.416099	-1.467452
O142	O	1.805701	-0.770080	-0.794103
C143	C	1.734841	-0.715609	-0.850921
H144	H	1.652407	-0.701583	-0.810964
H145	H	1.730581	-0.751862	-0.936094
C146	C	1.875793	-0.643311	-0.900982
C147	C	1.774548	-0.626077	-0.851901
H148	H	1.900287	-0.588085	-0.901592
H149	H	1.923534	-0.680011	-0.862706
H150	H	1.872230	-0.673524	-0.971955
H151	H	1.778115	-0.595875	-0.780926
H152	H	1.726808	-0.589369	-0.890165
H153	H	0.884183	-0.319242	-0.705164
H154	H	1.688208	-1.175465	-0.676100
H155	H	1.717143	-0.318995	-0.871992
H156	H	1.226912	-0.538950	-0.492733
H157	H	1.553192	-0.777936	-0.541066
