data_functionalizedCrystal
_audit_creation_method	'MofGen! by Chris Wilmer'
_symmetry_space_group_name_H-M	'P1'
_symmetry_Int_Tables_number	1
_symmetry_cell_setting	triclinic
loop_
_symmetry_equiv_pos_as_xyz
  x,y,z
_cell_length_a	18.215407
_cell_length_b	16.120484
_cell_length_c	18.215399
_cell_angle_alpha	87.130211
_cell_angle_beta	90.019833
_cell_angle_gamma	92.926015
loop_
_atom_site_label
_atom_site_type_symbol
_atom_site_fract_x
_atom_site_fract_y
_atom_site_fract_z
Zn1	Zn	1.110213	-0.331906	0.430960
Zn2	Zn	1.360213	-0.081906	0.680960
Zn3	Zn	1.610213	0.168094	0.930960
Zn4	Zn	1.860213	0.418094	1.180960
Zn5	Zn	1.103879	-0.471328	0.314129
Zn6	Zn	1.353879	-0.221328	0.564129
Zn7	Zn	1.603879	0.028672	0.814129
Zn8	Zn	1.853879	0.278672	1.064129
Zn9	Zn	0.987144	-0.331934	0.307908
Zn10	Zn	1.237144	-0.081934	0.557908
Zn11	Zn	1.487144	0.168066	0.807908
Zn12	Zn	1.737144	0.418066	1.057908
Zn13	Zn	0.980871	-0.471282	0.437152
Zn14	Zn	1.230871	-0.221282	0.687152
Zn15	Zn	1.480871	0.028718	0.937152
Zn16	Zn	1.730871	0.278718	1.187152
O17	O	1.045527	-0.401612	0.372537
O18	O	1.295527	-0.151612	0.622537
O19	O	1.545527	0.098388	0.872537
O20	O	1.795527	0.348388	1.122537
O21	O	1.212356	-0.350409	0.415474
O22	O	1.462356	-0.100409	0.665474
O23	O	1.712356	0.149591	0.915474
O24	O	1.962356	0.399591	1.165474
O25	O	1.088368	-0.452868	0.210321
O26	O	1.338368	-0.202868	0.460321
O27	O	1.588368	0.047132	0.710321
O28	O	1.838368	0.297132	0.960321
O29	O	1.008745	-0.215264	0.319037
O30	O	1.258745	0.034736	0.569037
O31	O	1.508745	0.284736	0.819037
O32	O	1.758745	0.534736	1.069037
O33	O	1.207703	-0.452841	0.329639
O34	O	1.457703	-0.202841	0.579639
O35	O	1.707703	0.047159	0.829639
O36	O	1.957703	0.297159	1.079639
O37	O	1.099163	-0.215244	0.409442
O38	O	1.349163	0.034756	0.659442
O39	O	1.599163	0.284756	0.909442
O40	O	1.849163	0.534756	1.159442
O41	O	1.002604	-0.350456	0.205751
O42	O	1.252604	-0.100456	0.455751
O43	O	1.502604	0.149544	0.705751
O44	O	1.752604	0.399544	0.955751
O45	O	0.883328	-0.350411	0.325041
O46	O	1.133328	-0.100411	0.575041
O47	O	1.383328	0.149589	0.825041
O48	O	1.633328	0.399589	1.075041
O49	O	0.998054	-0.452762	0.539313
O50	O	1.248054	-0.202762	0.789313
O51	O	1.498054	0.047238	1.039313
O52	O	1.748054	0.297238	1.289313
O53	O	0.878719	-0.452789	0.419995
O54	O	1.128719	-0.202789	0.669995
O55	O	1.378719	0.047211	0.919995
O56	O	1.628719	0.297211	1.169995
O57	O	1.093081	-0.350364	0.534764
O58	O	1.343081	-0.100364	0.784764
O59	O	1.593081	0.149636	1.034764
O60	O	1.843081	0.399636	1.284764
O61	O	1.082286	-0.587988	0.335643
O62	O	1.332286	-0.337988	0.585643
O63	O	1.582286	-0.087988	0.835643
O64	O	1.832286	0.162012	1.085643
O65	O	0.991913	-0.587954	0.426027
O66	O	1.241913	-0.337954	0.676027
O67	O	1.491913	-0.087954	0.926027
O68	O	1.741913	0.162046	1.176027
C69	C	0.854321	-0.401598	0.372516
C70	C	1.104321	-0.151598	0.622516
C71	C	1.354321	0.098402	0.872516
C72	C	1.604321	0.348402	1.122516
C73	C	0.772522	-0.401612	0.372525
C74	C	1.022522	-0.151612	0.622525
C75	C	1.272522	0.098388	0.872525
C76	C	1.522522	0.348388	1.122525
C77	C	0.581943	-0.455004	0.421912
C78	C	0.831943	-0.205004	0.671912
C79	C	1.081943	0.044996	0.921912
C80	C	1.331943	0.294996	1.171912
C81	C	0.505085	-0.455007	0.421921
C82	C	0.755085	-0.205007	0.671921
C83	C	1.005085	0.044993	0.921921
C84	C	1.255085	0.294993	1.171921
C85	C	0.509861	-0.348236	0.323179
C86	C	0.759861	-0.098236	0.573179
C87	C	1.009861	0.151764	0.823179
C88	C	1.259861	0.401764	1.073179
C89	C	0.586719	-0.348229	0.323174
C90	C	0.836719	-0.098229	0.573174
C91	C	1.086719	0.151771	0.823174
C92	C	1.336719	0.401771	1.073174
C93	C	0.622758	-0.401619	0.372540
C94	C	0.872758	-0.151619	0.622540
C95	C	1.122758	0.098381	0.872540
C96	C	1.372758	0.348381	1.122540
C97	C	0.469041	-0.401627	0.372554
C98	C	0.719041	-0.151627	0.622554
C99	C	0.969041	0.098373	0.872554
C100	C	1.219041	0.348373	1.122554
C101	C	0.385708	-0.401630	0.372564
C102	C	0.635708	-0.151630	0.622564
C103	C	0.885708	0.098370	0.872564
C104	C	1.135708	0.348370	1.122564
C105	C	0.706097	-0.401615	0.372531
C106	C	0.956097	-0.151615	0.622531
C107	C	1.206097	0.098385	0.872531
C108	C	1.456097	0.348385	1.122531
C109	C	1.035751	-0.618221	0.382198
C110	C	1.285751	-0.368221	0.632198
C111	C	1.535751	-0.118221	0.882198
C112	C	1.785751	0.131779	1.132198
C113	C	1.031637	-0.710887	0.386356
C114	C	1.281637	-0.460887	0.636356
C115	C	1.531637	-0.210887	0.886356
C116	C	1.781637	0.039113	1.136356
C117	C	1.024129	-0.880549	0.393961
C118	C	1.274129	-0.630549	0.643961
C119	C	1.524129	-0.380549	0.893961
C120	C	1.774129	-0.130549	1.143961
C121	C	1.067056	-0.921836	0.351125
C122	C	1.317056	-0.671836	0.601125
C123	C	1.567056	-0.421836	0.851125
C124	C	1.817056	-0.171836	1.101125
C125	C	1.062879	-1.016241	0.355357
C126	C	1.312879	-0.766241	0.605357
C127	C	1.562879	-0.516241	0.855357
C128	C	1.812879	-0.266241	1.105357
C129	C	1.028305	-0.786135	0.389730
C130	C	1.278305	-0.536135	0.639730
C131	C	1.528305	-0.286135	0.889730
C132	C	1.778305	-0.036135	1.139730
C133	C	1.237479	-0.401627	0.372560
C134	C	1.487479	-0.151627	0.622560
C135	C	1.737479	0.098373	0.872560
C136	C	1.987479	0.348373	1.122560
C137	C	1.319277	-0.401634	0.372569
C138	C	1.569277	-0.151634	0.622569
C139	C	1.819277	0.098366	0.872569
C140	C	2.069277	0.348366	1.122569
C141	C	1.045574	-0.401555	0.564488
C142	C	1.295574	-0.151555	0.814488
C143	C	1.545574	0.098445	1.064488
C144	C	1.795574	0.348445	1.314488
C145	C	1.045594	-0.401530	0.646286
C146	C	1.295594	-0.151530	0.896286
C147	C	1.545594	0.098470	1.146286
C148	C	1.795594	0.348470	1.396286
C149	C	1.055360	-0.184158	0.362855
C150	C	1.305360	0.065842	0.612855
C151	C	1.555360	0.315842	0.862855
C152	C	1.805360	0.565842	1.112855
C153	C	1.059551	-0.091492	0.358729
C154	C	1.309551	0.158508	0.608729
C155	C	1.559551	0.408508	0.858729
C156	C	1.809551	0.658508	1.108729
C157	C	1.045524	-0.401610	0.181331
C158	C	1.295524	-0.151610	0.431331
C159	C	1.545524	0.098390	0.681331
C160	C	1.795524	0.348390	0.931331
C161	C	1.045657	-0.401399	0.099523
C162	C	1.295657	-0.151399	0.349523
C163	C	1.545657	0.098601	0.599523
C164	C	1.795657	0.348601	0.849523
C165	C	1.095094	-0.348162	0.832110
C166	C	1.345094	-0.098162	1.082110
C167	C	1.595094	0.151838	1.332110
C168	C	1.845094	0.401838	1.582110
C169	C	1.095104	-0.348138	0.908967
C170	C	1.345104	-0.098138	1.158967
C171	C	1.595104	0.151862	1.408967
C172	C	1.845104	0.401862	1.658967
C173	C	0.996153	-0.454770	0.913694
C174	C	1.246153	-0.204770	1.163694
C175	C	1.496153	0.045230	1.413694
C176	C	1.746153	0.295230	1.663694
C177	C	0.996140	-0.454790	0.836837
C178	C	1.246140	-0.204790	1.086837
C179	C	1.496140	0.045210	1.336837
C180	C	1.746140	0.295210	1.586837
C181	C	1.045615	-0.401487	0.796047
C182	C	1.295615	-0.151487	1.046047
C183	C	1.545615	0.098513	1.296047
C184	C	1.795615	0.348513	1.546047
C185	C	1.045637	-0.401443	0.949761
C186	C	1.295637	-0.151443	1.199761
C187	C	1.545637	0.098557	1.449761
C188	C	1.795637	0.348557	1.699761
C189	C	1.045648	-0.401417	1.033094
C190	C	1.295648	-0.151417	1.283094
C191	C	1.545648	0.098583	1.533094
C192	C	1.795648	0.348583	1.783094
C193	C	1.045603	-0.401511	0.712709
C194	C	1.295603	-0.151511	0.962709
C195	C	1.545603	0.098489	1.212709
C196	C	1.795603	0.348489	1.462709
H197	H	0.611284	-0.498475	0.462110
H198	H	0.861284	-0.248475	0.712110
H199	H	1.111284	0.001525	0.962110
H200	H	1.361284	0.251525	1.212110
O201	O	0.630751	-0.290647	0.269921
O202	O	0.880751	-0.040647	0.519921
O203	O	1.130751	0.209353	0.769921
O204	O	1.380751	0.459353	1.019921
H205	H	0.664077	-0.327911	0.234095
H206	H	0.914077	-0.077911	0.484095
H207	H	1.164077	0.172089	0.734095
H208	H	1.414077	0.422089	0.984095
H209	H	0.955843	-0.498213	0.807474
H210	H	1.205843	-0.248213	1.057474
H211	H	1.455843	0.001787	1.307474
H212	H	1.705843	0.251787	1.557474
H213	H	1.106944	-0.886281	0.311274
H214	H	1.356944	-0.636281	0.561274
H215	H	1.606944	-0.386281	0.811274
H216	H	1.856944	-0.136281	1.061274
H217	H	0.480509	-0.304769	0.282986
H218	H	0.730509	-0.054769	0.532986
H219	H	0.980509	0.195231	0.782986
H220	H	1.230509	0.445231	1.032986
O221	O	0.971283	-0.927641	0.446732
O222	O	1.221283	-0.677641	0.696732
O223	O	1.471283	-0.427641	0.946732
O224	O	1.721283	-0.177641	1.196732
H225	H	1.002473	-0.967263	0.485943
H226	H	1.252473	-0.717263	0.735943
H227	H	1.502473	-0.467263	0.985943
H228	H	1.752473	-0.217263	1.235943
O229	O	0.461056	-0.512679	0.475095
O230	O	0.711056	-0.262679	0.725095
O231	O	0.961056	-0.012679	0.975095
O232	O	1.211056	0.237321	1.225095
H233	H	0.499030	-0.549837	0.509387
H234	H	0.749030	-0.299837	0.759387
H235	H	0.999030	-0.049837	1.009387
H236	H	1.249030	0.200163	1.259387
H237	H	1.135377	-0.304757	0.798901
H238	H	1.385377	-0.054757	1.048901
H239	H	1.635377	0.195243	1.298901
H240	H	1.885377	0.445243	1.548901
H241	H	1.135393	-0.304714	0.938326
H242	H	1.385393	-0.054714	1.188326
H243	H	1.635393	0.195286	1.438326
H244	H	1.885393	0.445286	1.688326
O245	O	0.942793	-0.512262	0.957687
O246	O	1.192793	-0.262262	1.207687
O247	O	1.442793	-0.012262	1.457687
O248	O	1.692793	0.237738	1.707687
H249	H	0.951117	-0.503295	1.017189
H250	H	1.201117	-0.253295	1.267189
H251	H	1.451117	-0.003295	1.517189
H252	H	1.701117	0.246705	1.767189
