data_functionalizedCrystal
_audit_creation_method	'MofGen! by Chris Wilmer'
_symmetry_space_group_name_H-M	'P1'
_symmetry_Int_Tables_number	1
_symmetry_cell_setting	triclinic
loop_
_symmetry_equiv_pos_as_xyz
  x,y,z
_cell_length_a	14.044220
_cell_length_b	9.065218
_cell_length_c	7.540329
_cell_angle_alpha	90.001757
_cell_angle_beta	89.997420
_cell_angle_gamma	90.897619
loop_
_atom_site_label
_atom_site_type_symbol
_atom_site_fract_x
_atom_site_fract_y
_atom_site_fract_z
O1	O	1.260762	-0.356074	-0.147465
O2	O	1.594095	-0.022741	0.185868
O3	O	1.927428	0.310592	0.519202
O4	O	0.984682	-0.343225	-0.147470
O5	O	1.318016	-0.009892	0.185863
O6	O	1.651349	0.323441	0.519197
O7	O	1.128428	-0.135640	-0.147464
O8	O	1.461762	0.197693	0.185870
O9	O	1.795095	0.531027	0.519203
O10	O	1.117015	-0.563660	-0.147471
O11	O	1.450349	-0.230327	0.185862
O12	O	1.783682	0.103007	0.519196
O13	O	1.128420	-0.135636	0.147501
O14	O	1.461753	0.197697	0.480835
O15	O	1.795086	0.531031	0.814168
O16	O	0.984673	-0.343221	0.147495
O17	O	1.318007	-0.009888	0.480828
O18	O	1.651340	0.323445	0.814162
O19	O	1.260753	-0.356071	0.147500
O20	O	1.594086	-0.022737	0.480833
O21	O	1.927420	0.310596	0.814167
Cu22	Cu	1.122712	-0.349646	0.174430
Cu23	Cu	1.456046	-0.016312	0.507764
Cu24	Cu	1.789379	0.317021	0.841097
Cu25	Cu	1.122723	-0.349650	-0.174400
Cu26	Cu	1.456056	-0.016317	0.158933
Cu27	Cu	1.789389	0.317016	0.492267
O28	O	1.117007	-0.563656	0.147494
O29	O	1.450340	-0.230323	0.480827
O30	O	1.783673	0.103011	0.814161
C31	C	1.127327	-0.080530	0.000016
C32	C	1.460661	0.252804	0.333349
C33	C	1.793994	0.586137	0.666683
C34	C	1.124048	0.083677	0.000007
C35	C	1.457381	0.417010	0.333341
C36	C	1.790714	0.750343	0.666674
C37	C	0.949315	-0.337599	0.000012
C38	C	1.282648	-0.004266	0.333345
C39	C	1.615982	0.329068	0.666679
C40	C	0.843945	-0.320822	0.000010
C41	C	1.177279	0.012511	0.333343
C42	C	1.510612	0.345845	0.666677
C43	C	1.296120	-0.361697	0.000014
C44	C	1.629453	-0.028364	0.333348
C45	C	1.962787	0.304970	0.666681
C46	C	1.401490	-0.378474	0.000005
C47	C	1.734823	-0.045141	0.333338
C48	C	2.068157	0.288193	0.666671
C49	C	1.594415	-0.409146	0.000006
C50	C	1.927748	-0.075812	0.333339
C51	C	2.261081	0.257521	0.666673
C52	C	1.651026	-0.290157	0.000009
C53	C	1.984360	0.043177	0.333342
C54	C	2.317693	0.376510	0.666675
C55	C	1.758376	-0.307223	0.000009
C56	C	2.091710	0.026110	0.333343
C57	C	2.425043	0.359444	0.666676
C58	C	1.487055	-0.392082	0.000005
C59	C	1.820388	-0.058748	0.333339
C60	C	2.153721	0.274585	0.666672
C61	C	1.118108	-0.618766	0.000010
C62	C	1.451441	-0.285433	0.333344
C63	C	1.784775	0.047901	0.666677
C64	C	1.121388	-0.782972	0.000007
C65	C	1.454721	-0.449639	0.333341
C66	C	1.788054	-0.116306	0.666674
N67	N	1.122712	-0.349642	0.419779
N68	N	1.456045	-0.016309	0.753112
N69	N	1.789379	0.317024	1.086445
N70	N	1.122730	-0.349643	-0.419749
N71	N	1.456064	-0.016309	-0.086415
N72	N	1.789397	0.317024	0.246918
H73	H	1.618871	-0.175470	-0.000118
H74	H	1.952204	0.157864	0.333215
H75	H	2.285537	0.491197	0.666549
Br76	Br	1.648007	-0.600289	-0.000009
Br77	Br	1.981340	-0.266955	0.333324
Br78	Br	2.314673	0.066378	0.666657
