data_functionalizedCrystal
_audit_creation_method	'MofGen! by Chris Wilmer'
_symmetry_space_group_name_H-M	'P1'
_symmetry_Int_Tables_number	1
_symmetry_cell_setting	triclinic
loop_
_symmetry_equiv_pos_as_xyz
  x,y,z
_cell_length_a	12.759395
_cell_length_b	17.641144
_cell_length_c	12.759387
_cell_angle_alpha	78.815281
_cell_angle_beta	90.021426
_cell_angle_gamma	78.826428
loop_
_atom_site_label
_atom_site_type_symbol
_atom_site_fract_x
_atom_site_fract_y
_atom_site_fract_z
Zn1	Zn	1.690681	-0.314526	0.678639
Zn2	Zn	1.726041	-0.446684	0.538510
Zn3	Zn	1.514990	-0.314567	0.502984
Zn4	Zn	1.550425	-0.446626	0.714131
O5	O	1.620534	-0.380600	0.608566
O6	O	1.842395	-0.332064	0.660065
O7	O	1.698013	-0.429200	0.386787
O8	O	1.508669	-0.203985	0.496564
O9	O	1.868373	-0.429160	0.557113
O10	O	1.637748	-0.203955	0.625617
O11	O	1.542955	-0.332134	0.360687
O12	O	1.372668	-0.332077	0.530979
O13	O	1.569062	-0.429061	0.856433
O14	O	1.398701	-0.429101	0.686107
O15	O	1.672107	-0.332007	0.830357
O16	O	1.732372	-0.557252	0.591528
O17	O	1.603348	-0.557209	0.720556
C18	C	1.347563	-0.380588	0.608540
C19	C	1.230790	-0.380601	0.608559
C20	C	1.038563	-0.481813	0.769966
C21	C	1.107028	-0.532403	0.850640
C22	C	1.216747	-0.532393	0.850624
C23	C	1.258002	-0.481790	0.769923
C24	C	1.189537	-0.431201	0.689249
C25	C	1.079816	-0.431214	0.689276
C26	C	1.162325	-0.330012	0.527885
C27	C	1.052604	-0.330016	0.527903
C28	C	1.203580	-0.279409	0.447184
C29	C	1.135113	-0.228814	0.366512
C30	C	1.025388	-0.228826	0.366533
C31	C	0.984139	-0.279427	0.447229
C32	C	1.675571	-0.585902	0.663771
C33	C	1.699212	-0.673730	0.687423
C34	C	1.441317	-0.962961	0.429014
C35	C	1.463548	-1.045489	0.451241
C36	C	1.597806	-1.045330	0.585690
C37	C	1.575582	-0.962799	0.563478
C38	C	1.497337	-0.921622	0.485138
C39	C	1.631602	-0.921460	0.619602
C40	C	1.609384	-0.838937	0.597388
C41	C	1.531145	-0.797754	0.519049
C42	C	1.475118	-0.839099	0.462924
C43	C	1.709852	-0.962640	0.697936
C44	C	1.765872	-0.921301	0.754061
C45	C	1.743649	-0.838776	0.731852
C46	C	1.665410	-0.797592	0.653513
C47	C	1.799675	-0.797431	0.787978
C48	C	1.777456	-0.714908	0.765763
C49	C	1.643191	-0.715070	0.631299
C50	C	1.894571	-0.380614	0.608593
C51	C	2.011349	-0.380619	0.608604
C52	C	1.620593	-0.380523	0.882579
C53	C	1.620618	-0.380490	0.999347
C54	C	1.565312	-0.174498	0.553168
C55	C	1.541779	-0.086669	0.529561
C56	C	1.620521	-0.380621	0.335604
C57	C	1.620640	-0.380431	0.218777
C58	C	1.727930	-0.279435	0.972215
C59	C	1.781598	-0.228896	1.013508
C60	C	1.781616	-0.228867	1.123221
C61	C	1.727957	-0.279381	1.191647
C62	C	1.674290	-0.329920	1.150355
C63	C	1.674280	-0.329945	1.040637
C64	C	1.566972	-0.430970	1.177485
C65	C	1.566959	-0.431004	1.067772
C66	C	1.513314	-0.481485	1.245910
C67	C	1.459651	-0.532029	1.204619
C68	C	1.459637	-0.532056	1.094898
C69	C	1.513292	-0.481544	1.026480
H70	H	1.292921	-0.279408	0.447173
H71	H	1.825309	-0.187708	1.156839
H72	H	0.894801	-0.279437	0.447257
H73	H	1.417922	-1.079144	0.405533
Cl74	Cl	1.376749	-0.787326	0.364440
H75	H	1.727966	-0.279346	1.280979
H76	H	1.513290	-0.481564	0.937144
Cl77	Cl	1.847887	-0.662935	0.836315
Cl78	Cl	1.727930	-0.279478	0.834290
Cl79	Cl	1.513336	-0.481449	1.383837
Cl80	Cl	1.503206	-0.694009	0.491125
H81	H	0.969648	-0.187630	0.300837
Cl82	Cl	1.696168	-1.097104	0.684169
H83	H	1.168714	-0.187621	0.300809
Cl84	Cl	1.392196	-0.595521	1.290641
H85	H	1.073427	-0.573604	0.916343
Cl86	Cl	0.900628	-0.481819	0.770003
H87	H	1.415920	-0.573203	1.061284
H88	H	1.377594	-0.929432	0.365229
Cl89	Cl	1.302822	-0.595995	0.952039
Cl90	Cl	1.544821	-0.663297	0.532815
Cl91	Cl	1.395939	-0.481789	0.769895
H92	H	1.727942	-1.029835	0.716018
H93	H	1.829582	-0.954839	0.817842
H94	H	1.825283	-0.187767	0.957783
H95	H	1.863389	-0.830971	0.851754
