data_functionalizedCrystal
_audit_creation_method	'MofGen! by Chris Wilmer'
_symmetry_space_group_name_H-M	'P1'
_symmetry_Int_Tables_number	1
_symmetry_cell_setting	triclinic
loop_
_symmetry_equiv_pos_as_xyz
  x,y,z
_cell_length_a	12.759395
_cell_length_b	16.625546
_cell_length_c	12.759387
_cell_angle_alpha	89.964440
_cell_angle_beta	89.980569
_cell_angle_gamma	90.022313
loop_
_atom_site_label
_atom_site_type_symbol
_atom_site_fract_x
_atom_site_fract_y
_atom_site_fract_z
Zn1	Zn	1.606212	-0.320962	-0.593940
Zn2	Zn	1.606079	-0.455818	-0.418246
Zn3	Zn	1.430510	-0.321002	-0.418280
Zn4	Zn	1.430479	-0.455756	-0.593888
O5	O	1.518320	-0.388385	-0.506089
O6	O	1.753215	-0.338860	-0.570641
O7	O	1.582747	-0.437977	-0.271229
O8	O	1.453886	-0.208165	-0.441618
O9	O	1.753117	-0.437938	-0.441559
O10	O	1.582974	-0.208135	-0.570674
O11	O	1.453757	-0.338928	-0.271255
O12	O	1.283485	-0.338869	-0.441568
O13	O	1.453833	-0.437833	-0.740916
O14	O	1.283462	-0.437872	-0.570586
O15	O	1.582943	-0.338801	-0.740954
O16	O	1.582716	-0.568642	-0.441509
O17	O	1.453703	-0.568597	-0.570553
C18	C	1.245352	-0.388369	-0.506076
C19	C	1.128576	-0.388381	-0.506095
C20	C	1.128658	-0.285379	-0.640725
C21	C	1.073839	-0.233887	-0.708048
C22	C	0.964117	-0.233901	-0.708062
C23	C	0.909213	-0.285411	-0.640742
C24	C	0.964032	-0.336903	-0.573418
C25	C	1.073756	-0.336884	-0.573415
C26	C	0.963949	-0.439900	-0.438785
C27	C	1.073671	-0.439891	-0.438775
C28	C	0.909045	-0.491410	-0.371465
C29	C	0.963864	-0.542907	-0.304145
C30	C	1.073593	-0.542891	-0.304136
C31	C	1.128491	-0.491383	-0.371452
C32	C	1.518220	-0.597876	-0.506045
C33	C	1.518274	-0.687497	-0.506061
C34	C	1.518457	-1.015672	-0.506170
C35	C	1.518403	-0.924364	-0.506143
C36	C	1.518365	-0.851587	-0.506115
C37	C	1.518312	-0.760273	-0.506089
C38	C	1.792353	-0.388401	-0.506102
C39	C	1.909130	-0.388409	-0.506108
C40	C	1.518448	-0.178076	-0.506156
C41	C	1.518503	-0.088455	-0.506184
C42	C	1.518399	-0.388306	-0.780122
C43	C	1.518433	-0.388272	-0.896899
C44	C	1.652885	-0.285156	-0.896958
C45	C	1.720125	-0.233586	-0.951849
C46	C	1.720151	-0.233557	-1.061571
C47	C	1.652927	-0.285101	-1.116404
C48	C	1.585686	-0.336671	-1.061514
C49	C	1.585670	-0.336697	-0.951790
C50	C	1.451230	-0.439782	-1.061454
C51	C	1.451209	-0.439817	-0.951733
C52	C	1.384006	-0.491326	-1.116288
C53	C	1.316769	-0.542902	-1.061398
C54	C	1.316747	-0.542929	-0.951669
C55	C	1.383968	-0.491386	-0.896842
C56	C	1.518301	-0.388405	-0.233121
C57	C	1.518471	-0.388212	-0.116345
H58	H	1.217832	-0.491361	-0.371446
H59	H	1.384028	-0.491296	-1.205629
C60	C	0.788348	-0.491423	-0.371480
N61	N	0.697438	-0.491436	-0.371493
H62	H	1.652881	-0.285183	-0.807617
C63	C	1.794068	-0.176889	-0.891524
N64	N	1.849760	-0.134184	-0.846090
C65	C	1.242822	-0.599587	-1.121721
N66	N	1.187123	-0.642284	-1.167161
C67	C	0.903463	-0.599560	-0.230100
N68	N	0.857964	-0.642233	-0.174329
H69	H	1.774898	-0.191559	-1.106262
C70	C	1.652959	-0.285066	-1.237101
N71	N	1.652987	-0.285043	-1.328012
C72	C	1.134242	-0.177227	-0.782095
N73	N	1.179735	-0.134550	-0.837865
H74	H	1.118220	-0.584819	-0.249309
H75	H	0.919483	-0.191968	-0.762876
H76	H	1.383961	-0.491408	-0.807501
C77	C	1.249355	-0.285364	-0.640724
N78	N	1.340265	-0.285351	-0.640725
C79	C	0.788516	-0.285417	-0.640752
N80	N	0.697605	-0.285423	-0.640759
C81	C	1.242774	-0.599660	-0.891298
N82	N	1.187056	-0.642392	-0.845831
