data_functionalizedCrystal
_audit_creation_method	'MofGen! by Chris Wilmer'
_symmetry_space_group_name_H-M	'P1'
_symmetry_Int_Tables_number	1
_symmetry_cell_setting	triclinic
loop_
_symmetry_equiv_pos_as_xyz
  x,y,z
_cell_length_a	21.395362
_cell_length_b	13.033304
_cell_length_c	21.395355
_cell_angle_alpha	97.216878
_cell_angle_beta	89.979451
_cell_angle_gamma	82.802461
loop_
_atom_site_label
_atom_site_type_symbol
_atom_site_fract_x
_atom_site_fract_y
_atom_site_fract_z
Zn1	Zn	-0.128019	-1.597779	-0.476158
Zn2	Zn	-0.232791	-1.597619	-0.371365
Zn3	Zn	-0.141309	-1.422990	-0.358059
Zn4	Zn	-0.246057	-1.422942	-0.462778
O5	O	-0.187044	-1.510332	-0.417090
O6	O	-0.130803	-1.744010	-0.473426
O7	O	-0.220666	-1.574407	-0.281918
O8	O	-0.051862	-1.446264	-0.373757
O9	O	-0.207778	-1.743892	-0.396434
O10	O	-0.042097	-1.574680	-0.460524
O11	O	-0.153455	-1.446109	-0.272143
O12	O	-0.166318	-1.276731	-0.360782
O13	O	-0.230388	-1.446181	-0.552234
O14	O	-0.243276	-1.276696	-0.437718
O15	O	-0.143666	-1.574633	-0.562065
O16	O	-0.322235	-1.574360	-0.383460
O17	O	-0.331981	-1.446026	-0.450620
C18	C	-0.207679	-1.238792	-0.396355
C19	C	-0.216522	-1.122626	-0.387499
C20	C	-0.182438	-1.070893	-0.421703
C21	C	-0.191577	-0.950829	-0.412551
C22	C	-0.349842	-1.510199	-0.417048
C23	C	-0.419480	-1.510237	-0.417058
C24	C	-0.447055	-1.577065	-0.462263
C25	C	-0.512487	-1.577102	-0.462281
C26	C	-0.550342	-1.510322	-0.417084
C27	C	-0.522760	-1.443481	-0.371875
C28	C	-0.457329	-1.443438	-0.371862
C29	C	-0.654661	-1.502186	-0.360024
C30	C	-0.720090	-1.502236	-0.360037
C31	C	-0.752153	-1.510446	-0.417123
C32	C	-0.718777	-1.518628	-0.474201
C33	C	-0.653347	-1.518586	-0.474188
C34	C	-0.621291	-1.510359	-0.417093
C35	C	-0.850677	-1.577317	-0.462352
C36	C	-0.916111	-1.577346	-0.462371
C37	C	-0.926383	-1.443731	-0.371959
C38	C	-0.860950	-1.443696	-0.371946
C39	C	-0.823101	-1.510495	-0.417142
C40	C	-0.023608	-1.510495	-0.417148
C41	C	0.046038	-1.510564	-0.417173
C42	C	-0.187025	-1.510419	-0.580520
C43	C	-0.187016	-1.510456	-0.650164
C44	C	-0.166325	-0.782933	-0.437902
C45	C	-0.157488	-0.899099	-0.446761
C46	C	-0.141859	-1.577338	-0.687997
C47	C	-0.141832	-1.577337	-0.753432
C48	C	-0.186973	-1.510464	-0.781033
C49	C	-0.232135	-1.443569	-0.743192
C50	C	-0.232156	-1.443565	-0.677757
C51	C	-0.244019	-1.502166	-0.884063
C52	C	-0.243998	-1.502177	-0.949497
C53	C	-0.186906	-1.510471	-0.982854
C54	C	-0.129832	-1.518775	-0.950771
C55	C	-0.129854	-1.518771	-0.885337
C56	C	-0.186954	-1.510461	-0.851985
C57	C	-0.141716	-1.577355	-1.091640
C58	C	-0.141689	-1.577346	-1.157076
C59	C	-0.231996	-1.443584	-1.146834
C60	C	-0.232019	-1.443587	-1.081399
C61	C	-0.186879	-1.510478	-1.053806
C62	C	-0.187013	-1.510306	-0.254300
C63	C	-0.186830	-1.510472	-0.184672
H64	H	-0.416240	-1.631454	-0.499066
N65	N	-0.109870	-0.958148	-0.494534
H66	H	-0.066519	-0.939224	-0.483453
H67	H	-0.110143	-1.035528	-0.494283
H68	H	-0.252468	-1.078029	-0.351438
H69	H	-0.747259	-1.495580	-0.313561
H70	H	-0.534944	-1.631512	-0.499099
H71	H	-0.938561	-1.631766	-0.499185
N72	N	-0.831203	-1.371625	-0.323184
H73	H	-0.865111	-1.329326	-0.294552
H74	H	-0.800811	-1.414179	-0.297456
N75	N	-0.967198	-1.371695	-0.323209
H76	H	-0.998042	-1.323258	-0.344953
H77	H	-0.991066	-1.414279	-0.297457
H78	H	-0.146489	-1.115490	-0.457760
N79	N	-0.617345	-1.527396	-0.535742
H80	H	-0.623539	-1.595021	-0.562266
H81	H	-0.633365	-1.466894	-0.559084
N82	N	-0.753348	-1.527491	-0.535780
H83	H	-0.799863	-1.526272	-0.527130
H84	H	-0.746524	-1.467024	-0.559143
H85	H	-0.083382	-1.525530	-0.859217
N86	N	-0.280871	-1.371422	-0.636957
H87	H	-0.306693	-1.413861	-0.613056
H88	H	-0.259052	-1.323026	-0.606140
H89	H	-0.083343	-1.525530	-0.977929
H90	H	-0.819859	-1.631706	-0.499155
H91	H	-0.227525	-0.906237	-0.376488
H92	H	-0.628561	-1.495497	-0.313534
H93	H	-0.553586	-1.389105	-0.335076
H94	H	-0.434878	-1.389018	-0.335050
N95	N	-0.093174	-1.649479	-0.658236
H96	H	-0.064562	-1.691848	-0.692136
H97	H	-0.067416	-1.606966	-0.627835
H98	H	-0.105056	-1.631798	-0.784241
H99	H	-0.290471	-1.495421	-0.975615
N100	N	-0.093031	-1.649493	-1.061873
H101	H	-0.064416	-1.691858	-1.095771
H102	H	-0.067277	-1.606979	-1.031468
H103	H	-0.104912	-1.631808	-1.187879
N104	N	-0.280681	-1.371446	-1.176593
H105	H	-0.273815	-1.381594	-1.223787
H106	H	-0.324201	-1.387665	-1.166398
H107	H	-0.268794	-1.389131	-1.050595
N108	N	-0.305601	-1.493234	-0.848089
H109	H	-0.341751	-1.487990	-0.878342
H110	H	-0.306579	-1.556913	-0.825818
N111	N	-0.280814	-1.371424	-0.772955
H112	H	-0.273948	-1.381573	-0.820149
H113	H	-0.324337	-1.387630	-0.762759
