data_functionalizedCrystal
_audit_creation_method	'MofGen! by Chris Wilmer'
_symmetry_space_group_name_H-M	'P1'
_symmetry_Int_Tables_number	1
_symmetry_cell_setting	triclinic
loop_
_symmetry_equiv_pos_as_xyz
  x,y,z
_cell_length_a	10.540535
_cell_length_b	10.540539
_cell_length_c	8.140239
_cell_angle_alpha	89.998610
_cell_angle_beta	89.999658
_cell_angle_gamma	84.524567
loop_
_atom_site_label
_atom_site_type_symbol
_atom_site_fract_x
_atom_site_fract_y
_atom_site_fract_z
O1	O	1.685888	0.178871	-0.136515
O2	O	1.316474	0.195733	-0.136537
O3	O	1.509609	0.002595	-0.136524
O4	O	1.492753	0.372009	-0.136529
O5	O	1.509598	0.002593	0.136703
O6	O	1.316463	0.195731	0.136690
O7	O	1.685877	0.178869	0.136712
Zn8	Zn	1.501168	0.187299	0.180082
Zn9	Zn	1.501182	0.187302	-0.179907
O10	O	1.492742	0.372006	0.136698
C11	C	1.269165	0.194469	0.000073
C12	C	1.128217	0.190689	0.000065
C13	C	1.091546	0.049675	0.000073
C14	C	0.944946	0.045698	0.000709
C15	C	0.918875	0.255058	0.155806
C16	C	1.065640	0.258059	0.155920
C17	C	1.065536	0.260113	-0.154801
C18	C	0.919190	0.253591	-0.156831
C19	C	1.508339	-0.044709	0.000087
C20	C	1.504557	-0.185657	0.000078
C21	C	1.359640	-0.369081	-0.000544
C22	C	1.363474	-0.222463	0.000071
C23	C	1.572447	-0.247317	0.156108
C24	C	1.567632	-0.393861	0.156239
C25	C	1.570514	-0.394377	-0.154471
C26	C	1.571813	-0.247395	-0.156534
C27	C	1.733185	0.180133	0.000098
C28	C	1.874134	0.183913	0.000096
C29	C	1.494011	0.419311	0.000084
C30	C	1.497793	0.560259	0.000082
N31	N	1.501168	0.187297	0.425764
N32	N	1.501193	0.187295	-0.425590
H33	H	0.916489	-0.009672	0.112990
N34	N	1.118856	0.194397	0.310676
H35	H	1.214535	0.195700	0.312297
H36	H	1.080731	0.241635	0.409625
N37	N	1.096154	0.394985	0.164715
H38	H	1.147711	0.407853	0.266929
H39	H	1.146852	0.415620	0.064538
H40	H	0.871518	0.356823	0.161156
N41	N	0.881290	0.185050	-0.309444
H42	H	0.960086	0.155061	-0.374503
H43	H	0.835098	0.109224	-0.276964
N44	N	1.286100	-0.409074	0.146829
H45	H	1.280246	-0.504113	0.142989
H46	H	1.331368	-0.386580	0.250670
H47	H	1.309671	-0.180707	0.112100
H48	H	1.087721	0.363864	-0.156309
N49	N	1.147160	-0.022073	-0.147793
H50	H	1.196668	0.036131	-0.216227
H51	H	1.205951	-0.097732	-0.110061
N52	N	0.877960	0.190398	0.309904
H53	H	0.830453	0.115038	0.279208
H54	H	0.955683	0.160186	0.376879
H55	H	1.517449	-0.422061	0.272869
N56	N	1.709694	-0.217730	0.163758
H57	H	1.713203	-0.122385	0.168716
H58	H	1.751406	-0.258379	0.264992
H59	H	1.108000	0.216112	-0.272865
H60	H	0.870142	0.354465	-0.166719
N61	N	1.292722	-0.166028	-0.148091
H62	H	1.352596	-0.119888	-0.218308
H63	H	1.258768	-0.236460	-0.214252
H64	H	1.522139	-0.206535	-0.271961
H65	H	1.303913	-0.397679	-0.112436
H66	H	1.669097	-0.441831	0.163324
H67	H	1.135000	-0.003570	0.111573
N68	N	1.509992	-0.190882	0.309914
H69	H	1.437735	-0.125391	0.278878
H70	H	1.475661	-0.260719	0.376792
N71	N	1.510048	-0.436169	-0.311127
H72	H	1.434895	-0.484940	-0.283491
H73	H	1.480177	-0.358735	-0.378835
H74	H	1.674674	-0.223175	-0.165950
H75	H	1.672418	-0.441604	-0.155514
H76	H	0.915613	-0.009943	-0.110887
