data_functionalizedCrystal
_audit_creation_method	'MofGen! by Chris Wilmer'
_symmetry_space_group_name_H-M	'P1'
_symmetry_Int_Tables_number	1
_symmetry_cell_setting	triclinic
loop_
_symmetry_equiv_pos_as_xyz
  x,y,z
_cell_length_a	12.759401
_cell_length_b	18.050589
_cell_length_c	18.050582
_cell_angle_alpha	89.981795
_cell_angle_beta	89.986894
_cell_angle_gamma	90.029746
loop_
_atom_site_label
_atom_site_type_symbol
_atom_site_fract_x
_atom_site_fract_y
_atom_site_fract_z
Zn1	Zn	1.606086	-0.295676	-0.419899
Zn2	Zn	1.605960	-0.419860	-0.295719
Zn3	Zn	1.430409	-0.295691	-0.295727
Zn4	Zn	1.430336	-0.419832	-0.419871
O5	O	1.518198	-0.357765	-0.357804
O6	O	1.753091	-0.312155	-0.403434
O7	O	1.582651	-0.403406	-0.191795
O8	O	1.453797	-0.191765	-0.312214
O9	O	1.752998	-0.403392	-0.312200
O10	O	1.582866	-0.191754	-0.403443
O11	O	1.453674	-0.312180	-0.191801
O12	O	1.283378	-0.312154	-0.312187
O13	O	1.453671	-0.403345	-0.523799
O14	O	1.283324	-0.403360	-0.403395
O15	O	1.582795	-0.312128	-0.523820
O16	O	1.582579	-0.523781	-0.312172
O17	O	1.453549	-0.523761	-0.403387
C18	C	1.245230	-0.357756	-0.357789
C19	C	1.128454	-0.357770	-0.357801
C20	C	1.073591	-0.405333	-0.405218
C21	C	0.963867	-0.405336	-0.405232
C22	C	0.963878	-0.310210	-0.310406
C23	C	1.073600	-0.310204	-0.310396
C24	C	0.813945	-0.432001	-0.492786
C25	C	0.759079	-0.479576	-0.540197
C26	C	0.794650	-0.552054	-0.551471
C27	C	0.885086	-0.576972	-0.515324
C28	C	0.939947	-0.529401	-0.467907
C29	C	0.904377	-0.456913	-0.456647
C30	C	1.223524	-0.283547	-0.222841
C31	C	1.278387	-0.235979	-0.175421
C32	C	1.242817	-0.163500	-0.164139
C33	C	1.152378	-0.138584	-0.200273
C34	C	1.097515	-0.186152	-0.247694
C35	C	1.133092	-0.258631	-0.258977
C36	C	1.518071	-0.550717	-0.357792
C37	C	1.518113	-0.633263	-0.357811
C38	C	1.448015	-0.832730	-0.407396
C39	C	1.422412	-0.882164	-0.339629
C40	C	1.518216	-0.784393	-0.357821
C41	C	1.543870	-0.882040	-0.425595
C42	C	1.518314	-0.930378	-0.357836
C43	C	1.492563	-0.832740	-0.290018
C44	C	1.614066	-0.832613	-0.376030
C45	C	1.588499	-0.882025	-0.308216
C46	C	1.518157	-0.700295	-0.357813
C47	C	1.518373	-1.014475	-0.357836
C48	C	1.792231	-0.357775	-0.357819
C49	C	1.909008	-0.357779	-0.357826
C50	C	1.518239	-0.357732	-0.551510
C51	C	1.518257	-0.357718	-0.634055
C52	C	1.518354	-0.164059	-0.357833
C53	C	1.518420	-0.081514	-0.357845
C54	C	1.448093	-0.407254	-0.833495
C55	C	1.543946	-0.425406	-0.882886
C56	C	1.518308	-0.357661	-0.785186
C57	C	1.422508	-0.339489	-0.882877
C58	C	1.518350	-0.357608	-0.931171
C59	C	1.614211	-0.375849	-0.833489
C60	C	1.492709	-0.289900	-0.833476
C61	C	1.588628	-0.308026	-0.882845
C62	C	1.518283	-0.357694	-0.701088
C63	C	1.518386	-0.357575	-1.015268
C64	C	1.518217	-0.357744	-0.164852
C65	C	1.518403	-0.357549	-0.082306
H66	H	0.914035	-0.635994	-0.524501
H67	H	1.471004	-0.232636	-0.811757
H68	H	1.352027	-0.256272	-0.145998
H69	H	1.470809	-0.811175	-0.232693
H70	H	1.287492	-0.124773	-0.125519
H71	H	1.341474	-0.324141	-0.904572
H72	H	1.388561	-0.811084	-0.449261
H73	H	1.695269	-0.391261	-0.811886
H74	H	1.252500	-0.342564	-0.232030
H75	H	1.647908	-0.903533	-0.266250
H76	H	1.013578	-0.549689	-0.438477
H77	H	1.565623	-0.482687	-0.904588
H78	H	1.695059	-0.810833	-0.391450
H79	H	1.648093	-0.266065	-0.904376
H80	H	1.118250	-0.444062	-0.443820
H81	H	0.749971	-0.590789	-0.590075
H82	H	0.685446	-0.459280	-0.569629
H83	H	1.565530	-0.903696	-0.482905
H84	H	1.388770	-0.449248	-0.811827
H85	H	1.341401	-0.903946	-0.324242
H86	H	1.023880	-0.165857	-0.277121
H87	H	0.784981	-0.372981	-0.483618
H88	H	1.123404	-0.079570	-0.191076
H89	H	0.919203	-0.271485	-0.271810
