data_functionalizedCrystal
_audit_creation_method	'MofGen! by Chris Wilmer'
_symmetry_space_group_name_H-M	'P1'
_symmetry_Int_Tables_number	1
_symmetry_cell_setting	triclinic
loop_
_symmetry_equiv_pos_as_xyz
  x,y,z
_cell_length_a	14.044220
_cell_length_b	16.992694
_cell_length_c	16.053802
_cell_angle_alpha	92.750953
_cell_angle_beta	92.799619
_cell_angle_gamma	88.071450
loop_
_atom_site_label
_atom_site_type_symbol
_atom_site_fract_x
_atom_site_fract_y
_atom_site_fract_z
O1	O	0.198305	-1.057564	-0.069327
O2	O	0.196087	-0.829125	-0.069352
O3	O	0.058952	-0.939916	-0.069331
O4	O	0.335440	-0.946774	-0.069347
O5	O	0.066468	-0.933815	0.069526
O6	O	0.203602	-0.823025	0.069506
O7	O	0.205821	-1.051464	0.069531
Zn8	Zn	0.205905	-0.936276	0.091565
Zn9	Zn	0.196003	-0.944313	-0.091386
O10	O	0.342955	-0.940673	0.069511
C11	C	0.196993	-0.796663	0.000074
C12	C	0.188484	-0.709024	0.000065
C13	C	0.027168	-0.933863	0.000098
C14	C	-0.078736	-0.924909	0.000098
C15	C	0.204915	-1.083926	0.000103
C16	C	0.213424	-1.171565	0.000107
C17	C	-0.272638	-0.908540	0.000084
C18	C	-0.325460	-0.972046	0.000088
C19	C	-0.433354	-0.962938	0.000080
C20	C	-0.164734	-0.917647	0.000091
C21	C	0.374740	-0.946726	0.000080
C22	C	0.480643	-0.955680	0.000074
N23	N	0.212662	-0.930796	0.216425
C24	C	0.270580	-0.664526	0.000061
C25	C	0.262581	-0.582179	0.000073
C26	C	0.172483	-0.544333	0.000083
C27	C	0.090381	-0.588837	0.000090
C28	C	0.098382	-0.671182	0.000084
C29	C	0.139322	-0.298414	0.000107
C30	C	0.131327	-0.216063	0.000111
C31	C	0.303528	-0.209412	0.000096
C32	C	0.311521	-0.291759	0.000085
C33	C	0.229419	-0.336255	0.000096
N34	N	0.164304	-0.460161	0.000093
N35	N	0.237599	-0.420425	0.000092
N36	N	0.189239	-0.949799	-0.216245
C37	C	0.154335	-0.977958	0.260127
C38	C	0.159071	-0.974132	0.347533
C39	C	0.222140	-0.923149	0.391235
C40	C	0.280470	-0.875982	0.347526
C41	C	0.275728	-0.879804	0.260122
C42	C	0.242827	-0.906453	0.652642
C43	C	0.247566	-0.902637	0.740052
C44	C	0.126165	-1.000787	0.740053
C45	C	0.121433	-1.004608	0.652647
C46	C	0.179759	-0.957438	0.608946
N47	N	0.226985	-0.919240	0.480578
N48	N	0.174909	-0.961343	0.519604
H49	H	-0.289655	-1.033258	0.000039
N50	N	0.039284	-0.177412	0.000135
N51	N	-0.014297	-0.186269	0.058676
H52	H	-0.079300	-0.158971	0.058693
H53	H	-0.308444	-0.847335	0.000075
N54	N	0.403548	-0.330427	0.000094
N55	N	0.410679	-0.403949	0.000094
H56	H	0.475674	-0.431260	0.000102
N57	N	0.311992	-0.850546	0.784681
N58	N	0.364059	-0.808430	0.745654
H59	H	0.409556	-0.771640	0.777173
H60	H	0.343947	-0.695334	0.000052
N61	N	0.335298	-0.831631	0.215465
N62	N	0.298672	-0.782721	0.166704
H63	H	0.340741	-0.748695	0.135165
H64	H	0.329433	-0.545952	0.000069
N65	N	0.387379	-0.163947	0.000084
N66	N	0.380228	-0.090426	0.000088
H67	H	0.439451	-0.058316	0.000082
N68	N	0.055468	-0.343872	0.000105
N69	N	0.062616	-0.417393	0.000102
H70	H	0.003391	-0.449502	0.000100
H71	H	0.031530	-0.707411	0.000086
H72	H	0.290320	-0.868047	0.617067
H73	H	0.017022	-0.558015	0.000110
H74	H	0.070077	-1.046122	0.617066
N75	N	0.344878	-0.823890	0.392166
N76	N	0.313543	-0.770716	0.440950
H77	H	0.359032	-0.733925	0.472476
N78	N	0.089850	-1.029996	0.215504
N79	N	0.037736	-1.072065	0.254538
H80	H	-0.007833	-1.108798	0.223026
N81	N	0.099480	-1.022309	0.392161
N82	N	0.043175	-1.067829	0.353132
H83	H	0.001084	-1.101856	0.384649
H84	H	0.078678	-1.039190	0.775642
