data_functionalizedCrystal
_audit_creation_method	'MofGen! by Chris Wilmer'
_symmetry_space_group_name_H-M	'P1'
_symmetry_Int_Tables_number	1
_symmetry_cell_setting	triclinic
loop_
_symmetry_equiv_pos_as_xyz
  x,y,z
_cell_length_a	20.919309
_cell_length_b	14.446369
_cell_length_c	14.446369
_cell_angle_alpha	59.999833
_cell_angle_beta	90.000794
_cell_angle_gamma	57.442498
loop_
_atom_site_label
_atom_site_type_symbol
_atom_site_fract_x
_atom_site_fract_y
_atom_site_fract_z
Zr1	Zr	0.641770	0.940910	-0.085371
O2	O	0.535398	1.146012	-0.239174
O3	O	0.674377	0.744118	-0.038216
O4	O	0.674377	0.937230	-0.231337
O5	O	0.535400	0.952906	0.106276
O6	O	0.784007	0.924875	-0.225162
O7	O	0.535399	0.952900	-0.046054
O8	O	0.784007	0.579433	0.120296
O9	O	0.535399	1.298347	-0.239181
O10	O	0.770100	0.812764	-0.013504
O11	O	0.688286	0.821988	0.095570
O12	O	0.688286	1.049353	-0.131805
O13	O	0.606471	1.058577	-0.022732
Zr14	Zr	0.816618	0.921215	0.167426
Zr15	Zr	0.816616	0.921205	-0.075523
Zr16	Zr	0.641772	0.940920	0.157578
Zr17	Zr	0.641771	1.183868	-0.085382
Zr18	Zr	0.816617	0.678257	0.167437
O19	O	0.784011	1.118007	0.120271
O20	O	0.784008	1.117994	-0.225171
O21	O	0.535401	1.146025	0.106268
O22	O	0.922989	0.716113	0.321229
O23	O	0.922987	0.716100	-0.024213
O24	O	0.674380	0.744131	0.307226
O25	O	0.922988	0.909219	-0.024222
O26	O	0.784011	0.924895	0.313392
O27	O	0.674381	0.937250	0.307217
O28	O	0.922989	0.909225	0.128109
O29	O	0.674379	1.282685	-0.231353
O30	O	0.784009	0.579440	0.313408
O31	O	0.922988	0.563777	0.321236
O32	O	0.922987	0.563770	0.128124
O33	O	0.535401	1.298355	-0.046069
O34	O	0.674381	1.282692	-0.038241
O35	O	0.770102	0.812772	0.213860
O36	O	0.851917	0.803548	0.104787
O37	O	0.770102	1.040137	-0.013515
O38	O	0.688287	1.049361	0.095559
C39	C	0.729192	0.627159	0.041041
C40	C	0.729191	0.524017	0.041046
C41	C	0.677838	0.382798	0.110181
C42	C	0.677559	0.490449	0.109874
C43	C	0.691548	0.577251	-0.084610
C44	C	0.691162	0.470062	-0.084258
C45	C	0.818224	0.280528	0.096506
C46	C	0.818093	0.386693	0.099020
C47	C	0.510487	0.955710	0.028708
C48	C	0.436261	0.964076	0.024527
C49	C	0.444093	0.844512	0.084309
C50	C	0.374346	0.852380	0.080378
C51	C	0.296767	0.979813	0.016658
C52	C	0.288937	1.099386	-0.043126
C53	C	0.358683	1.091517	-0.039187
C54	C	0.084043	1.009753	0.001683
C55	C	0.014295	1.017613	-0.002254
C56	C	0.099709	0.770606	0.121252
C57	C	0.169453	0.762748	0.125179
C58	C	0.161616	0.882320	0.065401
C59	C	0.225474	0.987859	0.012635
C60	C	0.232909	0.874273	0.069431
C61	C	0.947900	0.906415	0.053347
C62	C	1.022127	0.898049	0.057528
C63	C	0.729192	0.931051	-0.262865
C64	C	0.729191	0.931047	-0.366003
C65	C	0.729196	1.234966	0.041014
C66	C	0.729197	1.338108	0.041009
C67	C	0.780800	0.781815	-0.330669
C68	C	0.781079	0.781732	-0.437908
C69	C	0.766562	0.998505	-0.546693
C70	C	0.766949	0.997508	-0.438881
C71	C	0.640188	1.013898	-0.446979
C72	C	0.640326	1.011218	-0.552960
C73	C	0.729196	0.931074	0.344920
C74	C	0.729197	0.931078	0.448058
C75	C	0.947898	0.602511	0.053361
C76	C	1.022125	0.491004	0.057546
C77	C	0.729194	0.627171	0.344933
C78	C	0.729194	0.524033	0.448076
C79	C	0.947901	0.602523	0.357253
C80	C	1.022128	0.491019	0.464577
C81	C	0.510487	1.259602	-0.275198
C82	C	0.436260	1.371106	-0.382522
C83	C	0.510489	1.259614	0.028694
C84	C	0.436263	1.371121	0.024509
C85	C	0.729193	1.234954	-0.262878
C86	C	0.729193	1.338092	-0.366021
C87	C	1.014275	0.443450	-0.002245
C88	C	1.084012	0.338691	0.001665
C89	C	1.161597	0.281482	0.065373
C90	C	1.169446	0.329046	0.125166
C91	C	1.099710	0.433809	0.121249
C92	C	1.099699	0.433840	0.458042
C93	C	1.169450	0.329084	0.558875
C94	C	1.161628	0.281502	0.666242
C95	C	1.084048	0.338691	0.672774
C96	C	1.014299	0.443453	0.571942
C97	C	0.358688	1.428297	-0.375987
C98	C	0.288938	1.533083	-0.476820
C99	C	0.296760	1.580670	-0.584187
C100	C	0.374339	1.523474	-0.590719
C101	C	0.444089	1.418696	-0.489887
C102	C	0.444113	1.418685	0.084290
C103	C	0.374376	1.523471	0.080353
C104	C	0.296790	1.580683	0.016641
C105	C	0.288942	1.533115	-0.043147
C106	C	0.358678	1.428338	-0.039216
C107	C	0.677344	0.383560	0.520145
C108	C	0.677563	0.490458	0.412823
C109	C	0.818095	0.387160	0.527644
C110	C	0.817816	0.279814	0.634493
C111	C	0.692881	0.468867	0.629033
C112	C	0.691076	0.577542	0.520254
H113	H	0.726153	0.444148	-0.138898
N114	N	0.527789	1.356991	0.153011
H115	H	0.522168	1.403041	0.190273
H116	H	0.558584	1.370382	0.100253
N117	N	0.382845	1.574774	0.144834
H118	H	0.413647	1.497371	0.229589
H119	H	0.326868	1.649860	0.132576
H120	H	1.077691	0.299935	0.760205
H121	H	0.846896	0.185783	0.635861
H122	H	0.239959	1.665988	-0.666282
H123	H	0.727158	0.602021	-0.138620
H124	H	0.380699	1.562233	-0.678149
H125	H	0.832434	0.939816	-0.385006
H126	H	0.162302	1.091615	-0.039246
N127	N	0.108160	0.641645	0.185719
H128	H	0.052207	0.665961	0.173556
H129	H	0.138999	0.586335	0.270448
N130	N	0.350230	1.377003	-0.260199
H131	H	0.377268	1.390815	-0.215824
H132	H	0.377241	1.276696	-0.215909
N133	N	0.855351	0.330104	0.221646
H134	H	0.821178	0.312577	0.266120
H135	H	0.857298	0.398103	0.222363
H136	H	0.702809	0.450897	0.202264
N137	N	1.236863	0.168484	0.774990
H138	H	1.220143	0.147003	0.844004
H139	H	1.270404	0.198503	0.776815
N140	N	0.605600	0.709207	-0.143360
H141	H	0.590908	0.734710	-0.088796
H142	H	0.566524	0.697292	-0.166621
N143	N	0.350202	1.377025	-0.103679
H144	H	0.406147	1.301963	-0.091527
H145	H	0.319358	1.454511	-0.188406
N146	N	0.873058	0.408963	0.039827
H147	H	0.840965	0.508832	-0.025704
H148	H	0.895109	0.353244	0.008913
N149	N	0.603342	0.946196	-0.554180
H150	H	0.588798	0.914955	-0.483750
H151	H	0.644013	0.865220	-0.554115
N152	N	1.108186	0.485092	0.185742
H153	H	1.052240	0.560146	0.173597
H154	H	1.139028	0.521745	0.156305
H155	H	1.218374	0.196177	0.068554
H156	H	0.225762	1.579713	-0.095020
H157	H	0.951140	0.489995	0.577278
N158	N	0.221578	1.693692	0.012407
H159	H	0.238332	1.715132	0.059953
H160	H	0.188040	1.663675	0.044270
N161	N	0.871510	0.410596	0.566714
H162	H	0.893004	0.354291	0.653413
H163	H	0.838467	0.510429	0.533056
N164	N	0.747926	0.711035	-0.437462
H165	H	0.748049	0.710839	-0.507277
H166	H	0.690295	0.760990	-0.439234
N167	N	0.316575	0.736826	0.138157
H168	H	0.347417	0.728055	0.199616
H169	H	0.347348	0.728151	0.085385
H170	H	0.601560	1.123900	-0.476573
H171	H	1.106084	0.472565	0.370628
N172	N	0.205270	1.594757	-0.469761
H173	H	0.210905	1.548695	-0.386442
H174	H	0.174466	1.581373	-0.509122
N175	N	0.527754	1.357011	-0.496943
H176	H	0.522118	1.403061	-0.580262
H177	H	0.558547	1.256262	-0.457596
H178	H	0.849675	0.183240	0.187845
H179	H	0.846735	0.718412	-0.431922
H180	H	0.232617	0.658978	0.177045
N181	N	0.869154	0.240380	0.030183
H182	H	0.834771	0.259361	-0.035485
H183	H	0.917082	0.139932	0.083007
N184	N	1.253118	0.267411	0.551816
H185	H	1.247483	0.313447	0.468497
H186	H	1.283920	0.166656	0.591180
H187	H	0.612099	0.587185	0.354863
N188	N	0.590407	0.442681	0.512144
H189	H	0.583793	0.440584	0.582267
H190	H	0.577062	0.386957	0.507970
H191	H	0.507257	0.740742	0.136202
N192	N	0.710406	0.261074	0.520623
H193	H	0.758831	0.176280	0.594293
H194	H	0.727904	0.273851	0.452797
H195	H	0.702759	0.450151	0.360458
N196	N	0.930600	0.505137	-0.070963
H197	H	0.887605	0.578719	-0.064377
H198	H	0.924149	0.431842	-0.040163
H199	H	0.755893	0.728012	-0.277972
N200	N	0.720367	1.142148	-0.476759
H201	H	0.672637	1.167362	-0.450512
H202	H	0.699724	1.206186	-0.563356
N203	N	0.075583	1.138718	-0.062812
H204	H	0.102608	1.140981	-0.006871
H205	H	0.015838	1.220557	-0.103777
N206	N	0.590576	0.617899	0.058582
H207	H	0.590033	0.688440	0.058170
H208	H	0.559087	0.595142	0.106059
H209	H	0.858557	0.245269	0.715369
N210	N	0.856892	0.331701	0.461482
H211	H	0.817031	0.395011	0.379994
H212	H	0.872042	0.238321	0.499724
H213	H	1.077606	0.299978	-0.047026
N214	N	0.607481	0.530912	0.629683
H215	H	0.591473	0.474886	0.633228
H216	H	0.568253	0.627302	0.557285
N217	N	0.604311	0.707155	0.447277
H218	H	0.589749	0.731128	0.367789
H219	H	0.598968	0.783756	0.441605
H220	H	0.380730	0.755019	0.129060
H221	H	0.724923	0.605854	0.547682
N222	N	0.867256	0.698251	-0.253186
H223	H	0.866935	0.694860	-0.181652
H224	H	0.892714	0.741430	-0.295194
H225	H	-0.048875	1.121390	-0.054148
N226	N	0.719150	1.143626	-0.653020
H227	H	0.672883	1.167114	-0.705742
H228	H	0.756552	1.153256	-0.694210
N229	N	0.205266	1.236835	-0.111842
H230	H	0.162269	1.223680	-0.105268
H231	H	0.198808	1.289394	-0.195194
N232	N	0.350244	1.220469	-0.103666
H233	H	0.319434	1.275834	-0.074279
H234	H	0.319463	1.275723	-0.188406
H235	H	0.831420	0.942050	-0.545342
N236	N	1.253130	0.267337	0.193876
H237	H	1.296109	0.193752	0.187281
H238	H	1.259597	0.226460	0.277233
H239	H	0.730475	0.439842	0.709367
H240	H	0.702955	0.291103	0.202790
H241	H	0.612556	0.425916	0.071799
H242	H	0.608945	0.971188	-0.398568
H243	H	0.598663	1.120579	-0.634433
H244	H	0.625650	0.518141	-0.128362
