data_functionalizedCrystal
_audit_creation_method	'MofGen! by Chris Wilmer'
_symmetry_space_group_name_H-M	'P1'
_symmetry_Int_Tables_number	1
_symmetry_cell_setting	triclinic
loop_
_symmetry_equiv_pos_as_xyz
  x,y,z
_cell_length_a	19.288866
_cell_length_b	9.130313
_cell_length_c	19.288857
_cell_angle_alpha	90.003386
_cell_angle_beta	96.865124
_cell_angle_gamma	90.001307
loop_
_atom_site_label
_atom_site_type_symbol
_atom_site_fract_x
_atom_site_fract_y
_atom_site_fract_z
O1	O	-0.921341	0.121753	0.086648
O2	O	-0.719081	0.121769	0.098336
O3	O	-0.826058	0.121743	-0.008639
O4	O	-0.814364	0.121779	0.193623
O5	O	-0.826057	-0.121856	-0.008636
O6	O	-0.719079	-0.121830	0.098339
O7	O	-0.921340	-0.121845	0.086651
Cu8	Cu	-0.820210	-0.144080	0.092495
Cu9	Cu	-0.820211	0.144004	0.092492
O10	O	-0.814363	-0.121820	0.193626
C11	C	-0.693204	-0.000029	0.097961
C12	C	-0.616100	-0.000024	0.096832
C13	C	-0.060535	0.132745	0.088696
C14	C	-0.132983	0.132750	0.089753
C15	C	-0.169211	-0.000035	0.090287
C16	C	-0.132987	-0.132836	0.089745
C17	C	-0.060542	-0.132838	0.088681
C18	C	-0.278536	-0.101759	0.132655
C19	C	-0.350980	-0.101751	0.133723
C20	C	-0.392656	-0.000035	0.093565
C21	C	-0.361880	0.101698	0.052347
C22	C	-0.289434	0.101697	0.051283
C23	C	-0.247765	-0.000048	0.091440
C24	C	-0.507428	0.132763	0.095247
C25	C	-0.579877	0.132763	0.096300
C26	C	-0.579879	-0.132827	0.096299
C27	C	-0.507432	-0.132823	0.095239
C28	C	-0.471210	-0.000024	0.094717
N29	N	-0.820214	-0.346703	0.092497
C30	C	-0.867595	-0.423366	0.045145
C31	C	-0.867593	-0.576703	0.045136
C32	C	-0.772826	-0.576700	0.139839
C33	C	-0.772825	-0.423366	0.139844
C34	C	-0.914984	-0.346703	-0.002202
C35	C	-0.962370	-0.423367	-0.049558
C36	C	-0.962368	-0.576704	-0.049566
C37	C	-0.914980	-0.653377	-0.002218
C38	C	0.052783	-0.000044	0.087027
C39	C	-0.024320	-0.000039	0.088159
C40	C	-0.825682	-0.000058	-0.034514
C41	C	-0.824555	-0.000062	-0.111617
N42	N	-0.820213	0.346626	0.092484
C43	C	-0.824030	0.132724	-0.147830
C44	C	-0.822961	0.132735	-0.220276
C45	C	-0.822432	-0.000047	-0.256509
C46	C	-0.822953	-0.132851	-0.220287
C47	C	-0.824015	-0.132858	-0.147842
C48	C	-0.861433	-0.101770	-0.376739
C49	C	-0.860376	-0.101757	-0.449184
C50	C	-0.819154	-0.000031	-0.479954
C51	C	-0.778999	0.101708	-0.438273
C52	C	-0.780061	0.101701	-0.365827
C53	C	-0.821280	-0.000054	-0.335064
C54	C	-0.817469	0.132776	-0.594721
C55	C	-0.816396	0.132782	-0.667168
C56	C	-0.816395	-0.132808	-0.667179
C57	C	-0.817461	-0.132810	-0.594732
C58	C	-0.818001	-0.000013	-0.558508
C59	C	-0.814739	-0.000016	0.219501
C60	C	-0.815865	-0.000002	0.296605
H61	H	-0.264379	0.184529	0.017721
H62	H	-0.395811	0.184529	0.019648
H63	H	-0.815965	0.240917	-0.696650
H64	H	-0.734245	-0.639137	0.178388
H65	H	-0.244609	-0.184604	0.165354
H66	H	-0.477934	0.240896	0.094820
H67	H	-0.822529	0.240869	-0.249765
H68	H	-0.609363	0.240896	0.096733
H69	H	-0.815959	-0.240922	-0.696678
H70	H	-0.745433	0.184544	-0.463324
H71	H	-0.817905	0.240907	-0.565225
H72	H	-0.817894	-0.240939	-0.565249
H73	H	-1.000947	-0.639122	-0.088129
H74	H	-0.609376	-0.240943	0.096730
H75	H	-0.914991	-0.221849	-0.002198
H76	H	-0.914978	-0.778234	-0.002234
H77	H	-1.000947	-0.360932	-0.088110
H78	H	-0.747364	0.184537	-0.331893
H79	H	-0.734242	-0.360946	0.178402
H80	H	-0.893075	-0.184593	-0.483116
H81	H	-0.824468	0.240857	-0.118340
H82	H	-0.895000	-0.184619	-0.351692
H83	H	-0.477945	-0.240950	0.094804
H84	H	-0.822520	-0.240963	-0.249792
H85	H	-0.376030	-0.184558	0.167302
H86	H	-0.031048	0.240880	0.088268
H87	H	-0.162474	0.240882	0.090195
H88	H	-0.162489	-0.240951	0.090178
H89	H	-0.031056	-0.240969	0.088246
H90	H	-0.824440	-0.240992	-0.118358
