data_functionalizedCrystal
_audit_creation_method	'MofGen! by Chris Wilmer'
_symmetry_space_group_name_H-M	'P1'
_symmetry_Int_Tables_number	1
_symmetry_cell_setting	triclinic
loop_
_symmetry_equiv_pos_as_xyz
  x,y,z
_cell_length_a	23.532407
_cell_length_b	23.532407
_cell_length_c	7.681481
_cell_angle_alpha	95.710550
_cell_angle_beta	84.307441
_cell_angle_gamma	82.848678
loop_
_atom_site_label
_atom_site_type_symbol
_atom_site_fract_x
_atom_site_fract_y
_atom_site_fract_z
O1	O	0.749851	0.074550	0.146230
O2	O	0.583986	0.084555	0.146285
O3	O	0.671922	-0.003380	0.146224
O4	O	0.661916	0.162485	0.146291
O5	O	0.682745	-0.014228	-0.146642
O6	O	0.594810	0.073707	-0.146581
O7	O	0.760675	0.063702	-0.146635
Zn8	Zn	0.679461	0.066982	-0.193106
Zn9	Zn	0.665200	0.081275	0.192756
O10	O	0.672739	0.151638	-0.146574
C11	C	0.568182	0.078877	-0.000141
C12	C	0.504964	0.078112	-0.000122
C13	C	0.105863	0.125343	-0.000183
C14	C	0.046463	0.124631	-0.000194
O15	O	0.009720	0.168415	-0.000240
N16	N	0.023838	0.072354	-0.000212
C17	C	0.060616	0.020785	-0.000237
O18	O	0.035917	-0.023746	-0.000256
C19	C	0.120015	0.021497	-0.000239
C20	C	0.142637	0.073778	-0.000203
C21	C	0.128485	0.177620	-0.000148
C22	C	0.187881	0.178331	-0.000134
C23	C	0.224654	0.126766	-0.000154
C24	C	0.202032	0.074490	-0.000188
C25	C	0.156793	-0.030072	-0.000277
C26	C	0.216196	-0.029356	-0.000280
C27	C	0.238817	0.022925	-0.000243
C28	C	0.298202	0.023636	-0.000194
N29	N	0.320827	0.075913	-0.000175
C30	C	0.284053	0.127478	-0.000155
C31	C	-0.064126	0.019293	-0.000237
C32	C	-0.123525	0.018581	-0.000223
C33	C	-0.137674	0.122428	-0.000183
C34	C	-0.078275	0.123140	-0.000184
C35	C	-0.041501	0.071570	-0.000219
C36	C	0.408789	0.128969	-0.000124
C37	C	0.468190	0.129677	-0.000102
C38	C	0.482334	0.025830	-0.000152
C39	C	0.422938	0.025123	-0.000164
C40	C	0.386166	0.076697	-0.000156
O41	O	0.334979	-0.020125	-0.000155
O42	O	0.308761	0.172001	-0.000160
C43	C	0.677079	-0.030021	-0.000213
C44	C	0.676313	-0.093238	-0.000227
C45	C	0.723544	-0.492338	-0.000146
C46	C	0.722832	-0.551738	-0.000132
O47	O	0.766616	-0.588481	-0.000081
N48	N	0.670555	-0.574363	-0.000116
C49	C	0.618986	-0.537585	-0.000096
O50	O	0.574455	-0.562284	-0.000080
C51	C	0.619698	-0.478186	-0.000097
C52	C	0.671979	-0.455565	-0.000131
C53	C	0.775821	-0.469716	-0.000177
C54	C	0.776532	-0.410321	-0.000194
C55	C	0.724968	-0.373547	-0.000179
C56	C	0.672691	-0.396169	-0.000148
C57	C	0.568129	-0.441408	-0.000064
C58	C	0.568846	-0.382006	-0.000064
C59	C	0.621127	-0.359385	-0.000098
C60	C	0.621838	-0.300000	-0.000150
N61	N	0.674115	-0.277375	-0.000165
C62	C	0.725680	-0.314148	-0.000180
C63	C	0.617494	-0.662327	-0.000091
C64	C	0.616782	-0.721726	-0.000102
C65	C	0.720628	-0.735874	-0.000135
C66	C	0.721340	-0.676475	-0.000136
C67	C	0.669771	-0.639702	-0.000107
C68	C	0.727171	-0.189413	-0.000217
C69	C	0.727878	-0.130012	-0.000241
C70	C	0.624032	-0.115868	-0.000200
C71	C	0.623325	-0.175264	-0.000185
C72	C	0.674898	-0.212035	-0.000188
O73	O	0.578077	-0.263223	-0.000193
O74	O	0.770203	-0.289440	-0.000173
C75	C	0.776479	0.069381	-0.000205
C76	C	0.839697	0.070146	-0.000212
C77	C	0.667582	0.178278	-0.000133
C78	C	0.668347	0.241496	-0.000108
N79	N	0.689197	0.057228	-0.456447
N80	N	0.655468	0.091025	0.456097
H81	H	0.206293	0.220904	-0.000104
C82	C	0.735076	0.011145	-0.556521
C83	C	0.724445	-0.043108	-0.511794
C84	C	0.766699	-0.085571	-0.603929
H85	H	0.734061	0.012128	-0.679507
H86	H	0.771968	0.018155	-0.526343
H87	H	0.687563	-0.050115	-0.541984
H88	H	0.725465	-0.044109	-0.388823
H89	H	0.803591	-0.078561	-0.573752
H90	H	0.765681	-0.084583	-0.726912
H91	H	0.759495	-0.122386	-0.573583
H92	H	0.769167	-0.219345	-0.000213
H93	H	0.621038	0.125521	-0.468682
H94	H	0.098549	0.219612	-0.000138
C95	C	0.492642	0.186497	-0.000159
C96	C	0.447721	0.231499	-0.000197
C97	C	0.470223	0.283847	-0.000276
H98	H	0.511731	0.192799	0.101948
H99	H	0.519284	0.185181	-0.102323
H100	H	0.421089	0.232816	0.101957
H101	H	0.428628	0.225216	-0.102296
H102	H	0.496865	0.282530	-0.102440
H103	H	0.489312	0.290143	0.101832
H104	H	0.439749	0.314386	-0.000318
H105	H	-0.059860	0.165711	-0.000165
H106	H	0.819105	-0.391908	-0.000214
H107	H	-0.167626	0.164414	-0.000175
C108	C	0.368794	0.184931	0.000174
C109	C	0.328696	0.193130	0.150823
C110	C	0.291838	0.244671	0.151160
H111	H	0.390705	0.216214	0.000291
H112	H	0.349070	0.183042	-0.101902
H113	H	0.348417	0.195023	0.252873
H114	H	0.306771	0.161860	0.150738
H115	H	0.272115	0.242783	0.049083
H116	H	0.313755	0.275950	0.151272
H117	H	0.264624	0.250239	0.253364
H118	H	-0.141938	-0.023990	-0.000225
H119	H	0.512286	-0.016152	-0.000162
C120	C	-0.024301	-0.036757	-0.000154
C121	C	-0.056838	-0.082684	-0.000120
C122	C	-0.020175	-0.134325	-0.000020
H123	H	0.002956	-0.042508	-0.102252
H124	H	-0.004625	-0.034885	0.102019
H125	H	-0.076505	-0.084557	-0.102282
H126	H	-0.084093	-0.076953	0.101971
H127	H	-0.000498	-0.132453	0.102153
H128	H	0.007080	-0.140069	-0.102120
H129	H	-0.042246	-0.165492	0.000019
H130	H	0.817813	-0.499652	-0.000183
H131	H	0.138386	-0.072645	-0.000308
C132	C	0.256023	-0.085405	-0.000215
C133	C	0.223491	-0.131335	-0.000200
C134	C	0.260157	-0.182974	-0.000110
H135	H	0.283281	-0.091151	-0.102310
H136	H	0.275698	-0.083534	0.101960
H137	H	0.203825	-0.133207	-0.102366
H138	H	0.196234	-0.125609	0.101887
H139	H	0.279832	-0.181103	0.102066
H140	H	0.287414	-0.188714	-0.102206
H141	H	0.238089	-0.214143	-0.000083
H142	H	0.525556	-0.459815	-0.000026
H143	H	0.404518	-0.017448	-0.000168
H144	H	0.770454	-0.111597	-0.000273
H145	H	0.763912	-0.658062	-0.000162
C146	C	0.776648	-0.775729	0.000142
C147	C	0.802583	-0.759951	0.150784
C148	C	0.854189	-0.796648	0.151087
H149	H	0.768811	-0.814359	0.000245
H150	H	0.801906	-0.772684	-0.101939
H151	H	0.777331	-0.763002	0.252839
H152	H	0.810434	-0.721327	0.150713
H153	H	0.879447	-0.793603	0.049006
H154	H	0.846347	-0.835276	0.151185
H155	H	0.871795	-0.785945	0.253287
H156	H	0.526851	-0.352067	-0.000037
H157	H	0.574211	-0.740140	-0.000105
C158	C	0.561506	-0.622364	0.000276
C159	C	0.553297	-0.582270	0.150969
C160	C	0.501724	-0.545455	0.151382
H161	H	0.563338	-0.602628	-0.101734
H162	H	0.530254	-0.644327	0.000379
H163	H	0.584541	-0.560309	0.150850
H164	H	0.551454	-0.601990	0.253004
H165	H	0.470471	-0.567419	0.151484
H166	H	0.503560	-0.525723	0.049365
H167	H	0.496144	-0.518251	0.253632
C168	C	0.566502	-0.199714	-0.000062
C169	C	0.521495	-0.154792	-0.000014
C170	C	0.469140	-0.177287	0.000146
H171	H	0.567753	-0.226375	-0.102145
H172	H	0.560261	-0.218779	0.102125
H173	H	0.527735	-0.135736	-0.102191
H174	H	0.520226	-0.128127	0.102062
H175	H	0.462899	-0.196351	0.102334
H176	H	0.470397	-0.203947	-0.101938
H177	H	0.438596	-0.146810	0.000195
H178	H	0.582050	-0.085917	-0.000194
