data_functionalizedCrystal
_audit_creation_method	'MofGen! by Chris Wilmer'
_symmetry_space_group_name_H-M	'P1'
_symmetry_Int_Tables_number	1
_symmetry_cell_setting	triclinic
loop_
_symmetry_equiv_pos_as_xyz
  x,y,z
_cell_length_a	14.971506
_cell_length_b	27.732048
_cell_length_c	14.048226
_cell_angle_alpha	89.988614
_cell_angle_beta	89.993237
_cell_angle_gamma	83.132521
loop_
_atom_site_label
_atom_site_type_symbol
_atom_site_fract_x
_atom_site_fract_y
_atom_site_fract_z
O1	O	1.185940	0.063037	-0.079178
O2	O	0.925423	0.070570	-0.079180
O3	O	1.063772	-0.003555	-0.079161
O4	O	1.047590	0.137163	-0.079197
O5	O	1.063756	-0.003560	0.079161
O6	O	0.925407	0.070566	0.079142
O7	O	1.185923	0.063033	0.079143
Zn8	Zn	1.055662	0.066799	0.104279
Zn9	Zn	1.055684	0.066805	-0.104316
O10	O	1.047574	0.137159	0.079124
C11	C	0.892096	0.070230	-0.000019
C12	C	0.792816	0.069215	-0.000019
C13	C	0.353906	0.108889	-0.000039
C14	C	0.447191	0.109839	-0.000043
C15	C	0.505100	0.066288	-0.000028
C16	C	0.469718	0.021783	-0.000018
C17	C	0.376435	0.020834	-0.000020
C18	C	0.664150	0.023765	-0.000010
C19	C	0.757440	0.024714	-0.000006
C20	C	0.734907	0.112770	-0.000033
C21	C	0.641623	0.111821	-0.000036
C22	C	0.606248	0.067316	-0.000024
C23	C	1.063425	-0.021566	0.000003
C24	C	1.062402	-0.075226	0.000010
C25	C	1.137718	-0.413690	-0.000038
C26	C	1.133923	-0.615367	-0.000051
O27	O	1.202794	-0.646302	-0.000092
N28	N	1.051887	-0.634873	-0.000051
C29	C	0.970795	-0.603956	-0.000053
O30	O	0.900931	-0.625174	-0.000063
C31	C	0.974591	-0.402279	-0.000047
C32	C	1.056632	-0.382777	-0.000038
C33	C	1.219752	-0.394187	-0.000030
C34	C	1.220700	-0.343771	-0.000021
C35	C	1.139614	-0.312857	-0.000021
C36	C	1.057579	-0.332360	-0.000029
C37	C	0.893499	-0.371363	-0.000056
C38	C	0.894456	-0.320941	-0.000057
C39	C	0.976496	-0.301439	-0.000048
C40	C	0.977441	-0.251031	-0.000020
N41	N	1.059477	-0.231525	-0.000021
C42	C	1.140563	-0.262439	-0.000021
C43	C	0.968808	-0.709839	-0.000055
C44	C	0.967858	-0.760258	-0.000055
C45	C	1.130987	-0.771666	-0.000054
C46	C	1.131935	-0.721246	-0.000048
C47	C	1.050843	-0.690333	-0.000055
C48	C	1.142547	-0.156560	-0.000002
C49	C	1.143488	-0.106139	0.000010
C50	C	0.980360	-0.094735	0.000005
C51	C	0.979419	-0.145152	-0.000003
C52	C	1.060520	-0.176064	-0.000009
O53	O	0.908607	-0.220067	0.000010
O54	O	1.210416	-0.241211	-0.000032
C55	C	1.136770	-0.464106	-0.000046
C56	C	1.054736	-0.483610	-0.000055
C57	C	0.973650	-0.452696	-0.000054
C58	C	1.053787	-0.534028	-0.000055
C59	C	1.134873	-0.564942	-0.000055
C60	C	1.216908	-0.545436	-0.000055
C61	C	1.217856	-0.495020	-0.000047
C62	C	0.891614	-0.472202	-0.000054
C63	C	0.890673	-0.522619	-0.000061
C64	C	0.971759	-0.553532	-0.000062
C65	C	1.219251	0.063374	-0.000019
C66	C	1.318531	0.064389	-0.000026
C67	C	1.047922	0.155169	-0.000041
C68	C	1.048945	0.208829	-0.000055
N69	N	1.055654	0.066795	0.246640
N70	N	1.055699	0.066805	-0.246676
C71	C	1.116934	0.033985	0.296467
C72	C	1.116940	0.033985	0.396124
C73	C	1.055670	0.066797	0.445954
C74	C	0.994383	0.099608	0.396120
C75	C	0.994374	0.099605	0.296464
C76	C	0.994409	0.099611	0.603834
C77	C	0.994419	0.099614	0.703497
C78	C	1.116976	0.033991	0.703494
C79	C	1.116966	0.033989	0.603838
C80	C	1.055680	0.066800	0.554012
H81	H	0.475989	0.146076	-0.000063
Br82	Br	0.616142	-0.036635	0.000011
H83	H	0.944526	0.126332	0.744063
Br84	Br	0.856513	-0.786719	-0.000045
Br85	Br	0.275325	0.167999	-0.000049
Br86	Br	1.329813	-0.436132	-0.000031
Br87	Br	0.548307	-0.037323	-0.000002
Br88	Br	0.563033	0.170927	-0.000049
H89	H	0.763713	0.149007	-0.000042
Br90	Br	0.784395	-0.278991	-0.000072
H91	H	0.804587	-0.010750	-0.000001
H92	H	0.902769	-0.684673	-0.000061
H93	H	0.347634	-0.015403	-0.000011
Br94	Br	0.868077	-0.171621	0.000007
Br95	Br	1.200098	-0.010544	0.228851
H96	H	0.914342	-0.069556	0.000008
H97	H	1.198740	-0.705371	-0.000041
H98	H	0.944501	0.126328	0.563269
Br99	Br	1.326953	-0.587400	-0.000048
Br100	Br	1.200104	-0.010544	0.463749
Br101	Br	1.254837	-0.079675	0.000024
Br102	Br	1.252614	-0.198504	-0.000012
H103	H	1.287506	-0.327897	-0.000018
H104	H	1.197010	-0.796844	-0.000054
H105	H	1.166861	0.007273	0.563268
H106	H	0.826693	-0.387233	-0.000070
H107	H	0.944491	0.126322	0.436697
H108	H	1.284662	-0.479146	-0.000039
Br109	Br	1.200151	-0.010536	0.771119
Br110	Br	0.779321	-0.549079	-0.000067
Br111	Br	0.781556	-0.430255	-0.000059
Br112	Br	0.911198	0.144131	0.228842
