data_functionalizedCrystal
_audit_creation_method	'MofGen! by Chris Wilmer'
_symmetry_space_group_name_H-M	'P1'
_symmetry_Int_Tables_number	1
_symmetry_cell_setting	triclinic
loop_
_symmetry_equiv_pos_as_xyz
  x,y,z
_cell_length_a	18.215407
_cell_length_b	18.215405
_cell_length_c	11.169409
_cell_angle_alpha	90.035722
_cell_angle_beta	90.021298
_cell_angle_gamma	90.016535
loop_
_atom_site_label
_atom_site_type_symbol
_atom_site_fract_x
_atom_site_fract_y
_atom_site_fract_z
Zn1	Zn	1.125112	-0.293032	0.678562
Zn2	Zn	1.125019	-0.416124	0.477867
Zn3	Zn	1.002037	-0.293064	0.477891
Zn4	Zn	1.002016	-0.416050	0.678506
O5	O	1.063546	-0.354567	0.578206
O6	O	1.228084	-0.309378	0.651952
O7	O	1.108675	-0.399843	0.309920
O8	O	1.018411	-0.190075	0.504543
O9	O	1.228016	-0.399813	0.504502
O10	O	1.108833	-0.190052	0.651975
O11	O	1.018320	-0.309432	0.309938
O12	O	0.899050	-0.309360	0.504490
O13	O	1.018376	-0.399688	0.846463
O14	O	0.899035	-0.399718	0.651881
O15	O	1.108813	-0.309307	0.846504
O16	O	1.108655	-0.519098	0.504449
O17	O	1.018286	-0.519044	0.651858
C18	C	0.872340	-0.354535	0.578183
C19	C	0.790541	-0.354539	0.578201
C20	C	0.525513	-0.307569	0.655106
C21	C	0.602372	-0.307557	0.655102
C22	C	0.602320	-0.401590	0.501333
C23	C	0.525463	-0.401605	0.501344
C24	C	0.487061	-0.354590	0.578228
C25	C	0.640777	-0.354563	0.578214
C26	C	0.724111	-0.354551	0.578209
C27	C	0.403722	-0.354604	0.578235
C28	C	1.063478	-0.545774	0.578171
C29	C	1.063516	-0.627573	0.578196
C30	C	1.110643	-0.892560	0.655081
C31	C	1.110618	-0.815702	0.655063
C32	C	1.016543	-0.815833	0.501401
C33	C	1.016572	-0.892690	0.501414
C34	C	1.063621	-0.931052	0.578261
C35	C	1.063567	-0.777336	0.578229
C36	C	1.063540	-0.694002	0.578209
C37	C	1.063649	-1.014391	0.578280
C38	C	1.255499	-0.354600	0.578231
C39	C	1.337298	-0.354615	0.578241
C40	C	1.063603	-0.354486	0.891249
C41	C	1.063627	-0.354451	1.024649
C42	C	1.063635	-0.162614	0.578268
C43	C	1.063672	-0.080816	0.578295
C44	C	1.063532	-0.354596	0.266382
C45	C	1.063651	-0.354423	0.132982
H46	H	1.148950	-0.923792	0.717659
H47	H	0.978236	-0.784591	0.438836
H48	H	1.148909	-0.784364	0.717615
H49	H	0.633596	-0.439866	0.438734
C50	C	0.964842	-0.935037	0.416910
C51	C	0.913082	-0.892844	0.332394
C52	C	0.861357	-0.935191	0.247892
C53	C	0.861391	-1.019731	0.247906
C54	C	0.913152	-1.061929	0.332425
C55	C	0.964878	-1.019582	0.416927
H56	H	0.913055	-0.830258	0.332381
H57	H	0.823039	-0.903953	0.185326
H58	H	0.823100	-1.051079	0.185353
H59	H	0.913179	-1.124515	0.332439
H60	H	1.003196	-1.050820	0.479494
H61	H	0.494249	-0.269286	0.717710
C62	C	0.644667	-0.255830	0.739667
C63	C	0.634130	-0.261922	0.876089
C64	C	0.676424	-0.210194	0.960661
C65	C	0.729255	-0.152373	0.908812
C66	C	0.739795	-0.146279	0.772383
C67	C	0.697501	-0.198007	0.687811
H68	H	0.595018	-0.304727	0.914478
H69	H	0.668621	-0.214706	1.061655
H70	H	0.760564	-0.114081	0.971417
H71	H	0.778907	-0.103474	0.733994
H72	H	0.705304	-0.193495	0.586817
C73	C	0.483160	-0.453332	0.416773
C74	C	0.525396	-0.505041	0.332193
C75	C	0.483093	-0.556768	0.247632
C76	C	0.398553	-0.556787	0.247651
C77	C	0.356311	-0.505076	0.332234
C78	C	0.398615	-0.453349	0.416795
H79	H	0.587982	-0.505029	0.332177
H80	H	0.514363	-0.595047	0.185018
H81	H	0.367237	-0.595078	0.185053
H82	H	0.293725	-0.505088	0.332250
H83	H	0.367345	-0.415069	0.479409
