data_functionalizedCrystal
_audit_creation_method	'MofGen! by Chris Wilmer'
_symmetry_space_group_name_H-M	'P1'
_symmetry_Int_Tables_number	1
_symmetry_cell_setting	triclinic
loop_
_symmetry_equiv_pos_as_xyz
  x,y,z
_cell_length_a	14.971486
_cell_length_b	10.489716
_cell_length_c	14.048226
_cell_angle_alpha	89.997629
_cell_angle_beta	89.998499
_cell_angle_gamma	84.071632
loop_
_atom_site_label
_atom_site_type_symbol
_atom_site_fract_x
_atom_site_fract_y
_atom_site_fract_z
O1	O	1.187883	0.166224	-0.079042
O2	O	0.927595	0.186130	-0.079067
O3	O	1.063673	-0.009492	-0.079058
O4	O	1.051805	0.361845	-0.079052
O5	O	1.063656	-0.009503	0.079264
O6	O	0.927578	0.186118	0.079254
O7	O	1.187866	0.166212	0.079279
Zn8	Zn	1.057720	0.176163	0.104403
Zn9	Zn	1.057741	0.176179	-0.104192
O10	O	1.051788	0.361834	0.079269
C11	C	0.894257	0.185234	0.000090
C12	C	0.794945	0.182566	0.000080
C13	C	0.738366	0.297488	0.000083
C14	C	0.645053	0.294974	0.000097
C15	C	0.608319	0.177536	0.000102
C16	C	0.664905	0.062605	0.000101
C17	C	0.758217	0.065121	0.000094
C18	C	0.470413	0.057370	0.000114
C19	C	0.377095	0.054854	0.000120
C20	C	0.357249	0.287223	0.000118
C21	C	0.450561	0.289739	0.000110
C22	C	0.507140	0.174807	0.000108
C23	C	1.062773	-0.057019	0.000100
C24	C	1.060105	-0.198619	0.000091
C25	C	1.143552	-0.297259	0.000108
C26	C	1.099465	-0.374104	-0.077955
C27	C	1.099429	-0.374079	0.078138
C28	C	1.016052	-0.273599	-0.078036
C29	C	1.016029	-0.273569	0.078127
C30	C	0.971880	-0.350364	0.000045
C31	C	1.221204	0.167108	0.000120
C32	C	1.320516	0.169776	0.000123
C33	C	1.052688	0.409361	0.000110
C34	C	1.055356	0.550961	0.000112
N35	N	1.057711	0.176152	0.246764
N36	N	1.057757	0.176180	-0.246552
C37	C	1.117986	0.089567	0.296586
C38	C	1.117992	0.089566	0.396244
C39	C	1.057727	0.176158	0.446078
C40	C	0.997446	0.262747	0.396248
C41	C	0.997436	0.262741	0.296592
C42	C	0.997471	0.262757	0.603963
C43	C	0.997482	0.262765	0.703625
C44	C	1.118027	0.089582	0.703614
C45	C	1.118018	0.089575	0.603958
C46	C	1.057737	0.176167	0.554136
H47	H	0.516478	-0.036220	0.000114
H48	H	1.134667	-0.417964	0.144132
H49	H	1.167064	0.019059	0.256018
Br50	Br	0.615054	-0.096777	0.000117
H51	H	0.598990	0.388555	0.000099
Br52	Br	0.327242	-0.104527	0.000158
Br53	Br	0.915648	0.380259	0.463876
H54	H	0.480466	0.385367	0.000098
Br55	Br	0.957374	-0.200328	0.188121
H56	H	0.804283	-0.028461	0.000091
H57	H	1.167071	0.019061	0.436809
Br58	Br	0.915690	0.380287	0.771249
Br59	Br	0.280464	0.443203	0.000119
H60	H	1.216137	-0.273423	0.000035
Br61	Br	0.915656	0.380270	0.536349
Br62	Br	0.915625	0.380247	0.228976
H63	H	1.167094	0.019072	0.563384
H64	H	1.134698	-0.418002	-0.143945
H65	H	0.980852	-0.229883	-0.144105
H66	H	0.768267	0.393120	0.000079
H67	H	1.167109	0.019076	0.744185
Br68	Br	0.850811	-0.389687	-0.000030
