data_functionalizedCrystal
_audit_creation_method	'MofGen! by Chris Wilmer'
_symmetry_space_group_name_H-M	'P1'
_symmetry_Int_Tables_number	1
_symmetry_cell_setting	triclinic
loop_
_symmetry_equiv_pos_as_xyz
  x,y,z
_cell_length_a	17.019372
_cell_length_b	19.188940
_cell_length_c	15.500227
_cell_angle_alpha	92.818165
_cell_angle_beta	91.029586
_cell_angle_gamma	83.270614
loop_
_atom_site_label
_atom_site_type_symbol
_atom_site_fract_x
_atom_site_fract_y
_atom_site_fract_z
O1	O	1.046060	0.089193	0.005920
O2	O	0.817231	0.099773	-0.011115
O3	O	0.938245	-0.007139	-0.002099
O4	O	0.925046	0.196104	-0.003095
O5	O	0.930901	-0.000677	0.141242
O6	O	0.809887	0.106235	0.132227
O7	O	1.038717	0.095655	0.149262
Cu8	Cu	0.923631	0.101535	0.153832
Cu9	Cu	0.932316	0.093893	-0.015686
O10	O	0.917703	0.202566	0.140246
C11	C	0.784283	0.102476	0.058376
C12	C	0.697051	0.100895	0.051883
C13	C	0.203888	0.091752	0.011178
C14	C	0.285852	0.093238	0.017291
C15	C	0.322822	0.097509	0.098484
C16	C	0.277825	0.100287	0.173568
C17	C	0.195864	0.098796	0.167454
C18	C	0.570092	0.102182	0.120853
C19	C	0.652059	0.103675	0.126962
C20	C	0.660081	0.096625	-0.029317
C21	C	0.578117	0.095139	-0.035423
C22	C	0.533128	0.097913	0.039661
C23	C	0.406602	0.099030	0.104734
C24	C	0.449350	0.096387	0.033410
C25	C	0.934144	-0.029921	0.069539
C26	C	0.932857	-0.107431	0.069443
C27	C	0.919700	-0.657215	0.146877
C28	C	0.920900	-0.584385	0.146971
C29	C	0.925507	-0.551484	0.068881
C30	C	0.928893	-0.591419	-0.009310
C31	C	0.927685	-0.664247	-0.009402
N32	N	0.975101	-0.444847	0.014194
N33	N	0.976250	-0.375663	0.014288
C34	C	0.929146	-0.332057	0.069155
N35	N	0.880859	-0.360248	0.123940
N36	N	0.879713	-0.429439	0.123849
C37	C	0.926817	-0.472515	0.068973
C38	C	0.927056	-0.213159	0.147443
C39	C	0.928252	-0.140327	0.147533
C40	C	0.936253	-0.147364	-0.008749
C41	C	0.935049	-0.220194	-0.008838
C42	C	0.930455	-0.253087	0.069261
C43	C	1.071664	0.092952	0.079768
C44	C	1.158897	0.094532	0.086257
C45	C	0.921803	0.225348	0.068606
C46	C	0.923090	0.302859	0.068696
N47	N	0.917529	0.106910	0.273063
N48	N	0.938424	0.088513	-0.134915
C49	C	0.968825	0.061624	0.322161
C50	C	0.964217	0.065696	0.412390
C51	C	0.908316	0.115056	0.453520
C52	C	0.857015	0.160343	0.404416
C53	C	0.861620	0.156268	0.314187
C54	C	0.891728	0.129725	0.725752
C55	C	0.887129	0.133798	0.815986
C56	C	0.994330	0.039149	0.823955
C57	C	0.998933	0.035081	0.733725
C58	C	0.947629	0.080366	0.684628
C59	C	0.903607	0.119220	0.545750
C60	C	0.952335	0.076198	0.592400
H61	H	0.682157	0.107158	0.193082
F62	F	1.028326	0.009091	0.278396
F63	F	1.058428	-0.017453	0.689953
H64	H	0.923308	-0.239942	0.211035
F65	F	0.844115	0.171754	0.589528
H66	H	1.005985	0.028820	0.452366
F67	F	0.931295	-0.706741	-0.092616
H68	H	0.548022	0.091660	-0.101539
H69	H	0.937816	-0.252703	-0.072500
H70	H	0.173793	0.088280	-0.054938
F71	F	0.933799	-0.556404	-0.092418
H72	H	0.159231	0.101067	0.228592
F73	F	1.048925	-0.009045	0.876213
H74	H	0.925489	-0.107820	0.211200
H75	H	0.939995	-0.120576	-0.072332
F76	F	0.522220	0.105149	0.200766
H77	H	0.841606	0.173996	0.849470
F78	F	0.837130	0.177922	0.673506
F79	F	0.797517	0.212874	0.448190
F80	F	0.807022	0.204466	0.261934
F81	F	1.011824	0.023663	0.548625
H82	H	0.696720	0.094366	-0.090446
F83	F	0.317174	0.104830	0.259980
H84	H	0.419246	0.092907	-0.032697
H85	H	0.915957	-0.683993	0.210471
F86	F	0.333732	0.090276	-0.062619
F87	F	0.917297	-0.541885	0.230185
H88	H	0.436712	0.102508	0.170842
