data_functionalizedCrystal
_audit_creation_method	'MofGen! by Chris Wilmer'
_symmetry_space_group_name_H-M	'P1'
_symmetry_Int_Tables_number	1
_symmetry_cell_setting	triclinic
loop_
_symmetry_equiv_pos_as_xyz
  x,y,z
_cell_length_a	14.044191
_cell_length_b	27.731996
_cell_length_c	13.101039
_cell_angle_alpha	93.327690
_cell_angle_beta	86.337551
_cell_angle_gamma	87.906582
loop_
_atom_site_label
_atom_site_type_symbol
_atom_site_fract_x
_atom_site_fract_y
_atom_site_fract_z
O1	O	1.261209	0.114036	-0.085190
O2	O	0.985303	0.109829	-0.085202
O3	O	1.131850	0.041938	-0.085173
O4	O	1.114663	0.181927	-0.085218
O5	O	1.121335	0.046818	0.085254
O6	O	0.974789	0.114709	0.085226
O7	O	1.250695	0.118916	0.085238
Zn8	Zn	1.111072	0.117587	0.112291
Zn9	Zn	1.124926	0.111158	-0.112255
O10	O	1.104148	0.186807	0.085209
C11	C	0.944759	0.110429	0.000011
C12	C	0.839616	0.104941	0.000007
C13	C	0.588896	0.133832	0.000008
C14	C	0.647108	0.094915	0.000019
C15	C	0.754229	0.100494	0.000012
C16	C	0.481765	0.128253	0.000015
C17	C	1.126239	0.026354	0.000044
C18	C	1.125175	-0.027352	0.000054
C19	C	1.124218	-0.363044	-0.092896
C20	C	1.120180	-0.564892	-0.092914
O21	O	1.124492	-0.593251	-0.171923
N22	N	1.113947	-0.587473	-0.000015
C23	C	1.108717	-0.559588	0.092895
O24	O	1.103313	-0.583425	0.171912
C25	C	1.112748	-0.357740	0.092913
C26	C	1.118991	-0.335163	0.000007
C27	C	1.130459	-0.340466	-0.185794
C28	C	1.131474	-0.290007	-0.185788
C29	C	1.126247	-0.262126	-0.092885
C30	C	1.120005	-0.284704	0.000013
C31	C	1.107511	-0.329856	0.185822
C32	C	1.108517	-0.279391	0.185818
C33	C	1.114760	-0.256814	0.092913
C34	C	1.115793	-0.206364	0.092921
N35	N	1.122026	-0.183783	0.000022
C36	C	1.127253	-0.211664	-0.092881
C37	C	1.106603	-0.665561	0.092880
C38	C	1.105597	-0.716023	0.092876
C39	C	1.117058	-0.721323	-0.092934
C40	C	1.118071	-0.670861	-0.092929
C41	C	1.112836	-0.642980	-0.000019
C42	C	1.129384	-0.105696	-0.092863
C43	C	1.130402	-0.055233	-0.092849
C44	C	1.118935	-0.049936	0.092961
C45	C	1.117922	-0.100396	0.092948
C46	C	1.123144	-0.128275	0.000028
O47	O	1.111474	-0.177974	0.171889
O48	O	1.132635	-0.187817	-0.171885
C49	C	1.123203	-0.413503	-0.092902
C50	C	1.116962	-0.436081	-0.000004
C51	C	1.111735	-0.408199	0.092900
C52	C	1.115956	-0.486542	-0.000008
C53	C	1.121183	-0.514423	-0.092911
C54	C	1.127416	-0.491843	-0.185810
C55	C	1.128430	-0.441384	-0.185805
C56	C	1.105502	-0.430780	0.185799
C57	C	1.104489	-0.481239	0.185786
C58	C	1.109716	-0.509120	0.092882
C59	C	1.291239	0.118316	0.000023
C60	C	1.396383	0.123804	0.000020
C61	C	1.109759	0.202391	-0.000010
C62	C	1.110824	0.256096	-0.000027
N63	N	1.101625	0.121975	0.265538
N64	N	1.134381	0.106766	-0.265502
C65	C	1.088770	0.127950	0.474578
C66	C	1.147232	0.100793	0.525465
C67	C	1.140080	0.104118	0.641782
C68	C	1.095921	0.124626	0.358250
H69	H	0.619507	0.171338	-0.000007
O70	O	1.136426	-0.033378	-0.183193
C71	C	1.147744	-0.043972	-0.367491
C72	C	1.140906	-0.068781	-0.265255
H73	H	1.151389	-0.072585	-0.433864
H74	H	1.082178	-0.018927	-0.372211
H75	H	1.214804	-0.022033	-0.372078
H76	H	1.073886	-0.090746	-0.260599
H77	H	1.206520	-0.093798	-0.260579
O78	O	1.114006	-0.022876	0.183234
C79	C	1.186522	-0.004855	0.342109
C80	C	1.192253	-0.035524	0.239898
H81	H	1.249766	-0.015077	0.387960
H82	H	1.188365	0.035096	0.326218
H83	H	1.117143	-0.011903	0.387850
H84	H	1.261624	-0.028517	0.194106
H85	H	1.190357	-0.075465	0.255862
O86	O	1.213384	0.070040	0.473390
C87	C	1.341334	0.010658	0.484434
C88	C	1.266447	0.045453	0.543541
H89	H	1.384268	-0.009223	0.541125
H90	H	1.303809	-0.016659	0.434237
H91	H	1.391412	0.032125	0.434168
H92	H	1.216347	0.024026	0.593862
H93	H	1.304035	0.072770	0.593672
O94	O	1.100301	-0.403750	0.276117
C95	C	1.008713	-0.381826	0.434916
C96	C	1.014482	-0.412468	0.332671
H97	H	0.939326	-0.388856	0.480660
H98	H	1.071960	-0.392022	0.480789
H99	H	1.010560	-0.341884	0.418956
H100	H	1.012608	-0.452419	0.348538
H101	H	0.951240	-0.402232	0.286830
H102	H	1.099412	-0.499617	0.261446
H103	H	1.133514	-0.423006	-0.261458
O104	O	1.135663	-0.367599	-0.275983
C105	C	1.223324	-0.429554	-0.383865
C106	C	1.217524	-0.398870	-0.281672
H107	H	1.289515	-0.454837	-0.388508
H108	H	1.156872	-0.451782	-0.388550
H109	H	1.227910	-0.404730	-0.450233
H110	H	1.212969	-0.423658	-0.215247
H111	H	1.283976	-0.376637	-0.277077
O112	O	1.134579	-0.132824	-0.183063
C113	C	1.222217	-0.194779	-0.290967
C114	C	1.216432	-0.164100	-0.188767
H115	H	1.288401	-0.220066	-0.295621
H116	H	1.155758	-0.217002	-0.295650
H117	H	1.226804	-0.169951	-0.357328
H118	H	1.211876	-0.188892	-0.122348
H119	H	1.282891	-0.141872	-0.184173
O120	O	0.610441	0.050199	-0.000022
C121	C	0.468681	0.003799	0.000035
C122	C	0.510085	0.054465	0.000066
H123	H	0.387537	0.007232	0.000127
H124	H	0.498265	-0.018714	-0.071306
H125	H	0.489594	-0.014628	0.071341
H126	H	0.489187	0.072934	-0.071193
H127	H	0.480503	0.076943	0.071454
O128	O	1.137489	-0.268154	-0.276129
C129	C	1.148795	-0.278758	-0.460425
C130	C	1.141969	-0.303562	-0.358183
H131	H	1.152439	-0.307374	-0.526792
H132	H	1.083224	-0.253716	-0.465145
H133	H	1.215851	-0.256816	-0.465024
H134	H	1.074953	-0.325529	-0.353516
H135	H	1.207588	-0.328576	-0.353506
O136	O	1.022743	0.158656	0.526969
C137	C	0.955272	0.189973	0.692366
C138	C	1.030101	0.155185	0.633145
H139	H	0.961183	0.187171	0.778219
H140	H	0.968439	0.228608	0.671410
H141	H	0.880743	0.179868	0.671299
H142	H	1.104660	0.165246	0.654180
H143	H	1.016851	0.116558	0.654106
O144	O	1.124091	-0.649007	-0.183268
C145	C	1.135413	-0.659606	-0.367565
C146	C	1.128580	-0.684413	-0.265326
H147	H	1.139065	-0.688221	-0.433935
H148	H	1.069841	-0.634565	-0.372289
H149	H	1.202468	-0.637663	-0.372154
H150	H	1.061566	-0.706381	-0.260668
H151	H	1.194200	-0.709426	-0.260645
O152	O	1.099497	-0.737873	0.183216
C153	C	1.088286	-0.727277	0.367513
C154	C	1.095176	-0.702472	0.265274
H155	H	1.084811	-0.698667	0.433883
H156	H	1.021191	-0.749187	0.372227
H157	H	1.153832	-0.752350	0.372111
H158	H	1.029680	-0.677376	0.260607
H159	H	1.162312	-0.680592	0.260602
H160	H	1.121315	-0.744033	-0.168580
O161	O	1.101359	-0.638458	0.183114
C162	C	1.013789	-0.576458	0.290960
C163	C	1.019592	-0.607124	0.188743
H164	H	0.947697	-0.551110	0.295535
H165	H	1.009103	-0.601247	0.357385
H166	H	1.080323	-0.554290	0.295601
H167	H	0.953076	-0.629296	0.184002
H168	H	1.024326	-0.582308	0.122367
H169	H	1.102428	-0.348230	0.261476
O170	O	1.103399	-0.252236	0.275982
C171	C	1.099935	-0.172151	0.358352
C172	C	1.105710	-0.202844	0.256171
H173	H	1.101821	-0.132212	0.342370
H174	H	1.030575	-0.179162	0.404171
H175	H	1.163208	-0.182363	0.404169
H176	H	1.042486	-0.192650	0.210271
H177	H	1.175109	-0.195829	0.210430
O178	O	1.132317	-0.518951	-0.276028
C179	C	1.055737	-0.577094	-0.383800
C180	C	1.050066	-0.546407	-0.281614
H181	H	0.989256	-0.599307	-0.388341
H182	H	1.060308	-0.552319	-0.450255
H183	H	1.121893	-0.602400	-0.388424
H184	H	0.983915	-0.521098	-0.276891
H185	H	1.045548	-0.571211	-0.215208
H186	H	1.112847	-0.118779	0.168599
