data_functionalizedCrystal
_audit_creation_method	'MofGen! by Chris Wilmer'
_symmetry_space_group_name_H-M	'P1'
_symmetry_Int_Tables_number	1
_symmetry_cell_setting	triclinic
loop_
_symmetry_equiv_pos_as_xyz
  x,y,z
_cell_length_a	17.077404
_cell_length_b	15.297327
_cell_length_c	17.077396
_cell_angle_alpha	99.646061
_cell_angle_beta	89.982756
_cell_angle_gamma	99.707136
loop_
_atom_site_label
_atom_site_type_symbol
_atom_site_fract_x
_atom_site_fract_y
_atom_site_fract_z
Zn1	Zn	1.145934	-0.359152	-0.497893
Zn2	Zn	1.645934	0.140848	0.002107
Zn3	Zn	1.123118	-0.510028	-0.389334
Zn4	Zn	1.623118	-0.010028	0.110666
Zn5	Zn	1.014666	-0.359186	-0.366647
Zn6	Zn	1.514666	0.140814	0.133353
Zn7	Zn	0.991914	-0.509973	-0.520549
Zn8	Zn	1.491914	-0.009973	-0.020549
O9	O	1.068908	-0.434585	-0.443606
O10	O	1.568908	0.065415	0.056394
O11	O	1.252753	-0.379176	-0.483506
O12	O	1.752753	0.120824	0.016494
O13	O	1.108705	-0.490056	-0.276483
O14	O	1.608705	0.009944	0.223517
O15	O	1.051149	-0.232935	-0.365081
O16	O	1.551149	0.267065	0.134919
O17	O	1.235991	-0.490024	-0.403748
O18	O	1.735991	0.009976	0.096252
O19	O	1.147591	-0.232910	-0.461507
O20	O	1.647591	0.267090	0.038493
O21	O	1.029026	-0.379233	-0.259815
O22	O	1.529026	0.120767	0.240185
O23	O	0.901803	-0.379179	-0.387049
O24	O	1.401803	0.120821	0.112951
O25	O	1.012372	-0.489929	-0.627385
O26	O	1.512372	0.010071	-0.127385
O27	O	0.885087	-0.489961	-0.500120
O28	O	1.385087	0.010039	-0.000120
O29	O	1.125530	-0.379121	-0.610740
O30	O	1.625530	0.120879	-0.110740
O31	O	1.086644	-0.636268	-0.425716
O32	O	1.586644	-0.136268	0.074284
O33	O	0.990249	-0.636227	-0.522119
O34	O	1.490249	-0.136227	-0.022119
C35	C	0.864963	-0.434569	-0.443581
C36	C	1.364963	0.065431	0.056419
C37	C	0.777711	-0.434583	-0.443593
C38	C	1.277711	0.065417	0.056407
C39	C	1.033523	-0.668982	-0.478855
C40	C	1.533523	-0.168982	0.021145
C41	C	1.018457	-0.769258	-0.493961
C42	C	1.518457	-0.269258	0.006039
C43	C	0.728024	-0.492355	-0.502402
C44	C	1.228024	0.007645	-0.002402
C45	C	0.646044	-0.492357	-0.502415
C46	C	1.146044	0.007643	-0.002415
C47	C	0.613750	-0.434591	-0.443615
C48	C	1.113750	0.065409	0.056385
C49	C	0.663444	-0.376813	-0.384803
C50	C	1.163444	0.123187	0.115197
C51	C	0.745423	-0.376808	-0.384794
C52	C	1.245423	0.123192	0.115206
C53	C	0.492571	-0.376831	-0.384824
C54	C	0.992571	0.123169	0.115176
C55	C	0.410585	-0.376838	-0.384832
C56	C	0.910585	0.123162	0.115168
C57	C	0.393191	-0.492380	-0.502445
C58	C	0.893191	0.007620	-0.002445
C59	C	0.475171	-0.492374	-0.502436
C60	C	0.975171	0.007626	-0.002436
C61	C	0.524858	-0.434598	-0.443623
C62	C	1.024858	0.065402	0.056377
C63	C	1.176913	-1.051879	-0.335909
C64	C	1.676913	-0.551879	0.164091
C65	C	1.191068	-0.957665	-0.321712
C66	C	1.691068	-0.457665	0.178288
C67	C	1.147916	-0.910559	-0.364773
C68	C	1.647916	-0.410559	0.135227
C69	C	1.090607	-0.957676	-0.422033
C70	C	1.590607	-0.457676	0.077967
C71	C	1.076446	-1.051899	-0.436227
C72	C	1.576446	-0.551899	0.063773
C73	C	1.047450	-0.910579	-0.465091
C74	C	1.547450	-0.410579	0.034909
C75	C	0.990141	-0.957696	-0.522351
C76	C	1.490141	-0.457696	-0.022351
C77	C	0.975983	-1.051910	-0.536543
C78	C	1.475983	-0.551910	-0.036543
C79	C	1.019134	-1.099017	-0.493482
C80	C	1.519134	-0.599017	0.006518
C81	C	1.061611	-0.816355	-0.450897
C82	C	1.561611	-0.316355	0.049103
C83	C	0.961145	-0.816375	-0.551215
C84	C	1.461145	-0.316375	-0.051215
C85	C	0.946990	-0.910589	-0.565412
C86	C	1.446990	-0.410589	-0.065412
C87	C	1.273650	-0.434602	-0.443630
C88	C	1.773650	0.065398	0.056370
C89	C	1.360899	-0.434609	-0.443641
C90	C	1.860899	0.065391	0.056359
C91	C	1.068958	-0.434515	-0.648339
C92	C	1.568958	0.065485	-0.148339
C93	C	1.068980	-0.434485	-0.735585
C94	C	1.568980	0.065515	-0.235585
C95	C	1.104453	-0.199273	-0.408236
C96	C	1.604453	0.300727	0.091764
C97	C	1.119601	-0.098997	-0.393164
C98	C	1.619601	0.401003	0.106836
C99	C	1.027507	-0.376773	-0.767894
C100	C	1.527507	0.123227	-0.267894
C101	C	1.027523	-0.376752	-0.849872
C102	C	1.527523	0.123248	-0.349872
C103	C	1.069016	-0.434440	-0.899538
C104	C	1.569016	0.065560	-0.399538
C105	C	1.110490	-0.492159	-0.867223
C106	C	1.610490	0.007841	-0.367223
C107	C	1.110469	-0.492184	-0.785248
C108	C	1.610469	0.007816	-0.285248
C109	C	1.110533	-0.492103	-1.038085
C110	C	1.610533	0.007897	-0.538085
C111	C	1.110555	-0.492078	-1.120066
C112	C	1.610555	0.007922	-0.620066
C113	C	1.027586	-0.376671	-1.102709
C114	C	1.527586	0.123329	-0.602709
C115	C	1.027565	-0.376696	-1.020733
C116	C	1.527565	0.123304	-0.520733
C117	C	1.069041	-0.434414	-0.988425
C118	C	1.569041	0.065586	-0.488425
C119	C	1.068914	-0.434589	-0.239658
C120	C	1.568914	0.065411	0.260342
C121	C	1.069083	-0.434365	-0.152375
C122	C	1.569083	0.065635	0.347625
H123	H	0.754310	-0.539397	-0.550282
H124	H	1.254310	-0.039397	-0.050282
H125	H	0.785879	-0.329759	-0.336909
H126	H	1.285879	0.170241	0.163091
Br127	Br	0.971260	-0.298395	-0.953328
Br128	Br	1.471260	0.201605	-0.453328
H129	H	1.007614	-1.175734	-0.505040
H130	H	1.507614	-0.675734	-0.005040
Br131	Br	1.139384	-0.752422	-0.373189
Br132	Br	1.639384	-0.252422	0.126811
H133	H	1.159444	-0.833845	-0.353210
H134	H	1.659444	-0.333845	0.146790
H135	H	0.605591	-0.539401	-0.550302
H136	H	1.105591	-0.039401	-0.050302
Br137	Br	0.518996	-0.570780	-0.582231
Br138	Br	1.018996	-0.070780	-0.082231
H139	H	1.144271	-0.539135	-0.907669
H140	H	1.644271	-0.039135	-0.407669
H141	H	0.993817	-0.329674	-1.129018
H142	H	1.493817	0.170326	-0.629018
H143	H	1.237727	-0.919306	-0.275091
H144	H	1.737727	-0.419306	0.224909
H145	H	1.144315	-0.539095	-1.011782
H146	H	1.644315	-0.039095	-0.511782
Br147	Br	1.166749	-0.570518	-0.741400
Br148	Br	1.666749	-0.070518	-0.241400
Br149	Br	1.166878	-0.570361	-1.187469
Br150	Br	1.666878	-0.070361	-0.687469
Br151	Br	1.235464	-1.115812	-0.277473
Br152	Br	1.735464	-0.615812	0.222527
H153	H	0.352732	-0.539422	-0.550335
H154	H	0.852732	-0.039422	-0.050335
H155	H	0.384297	-0.329789	-0.336960
H156	H	0.884297	0.170211	0.163040
H157	H	0.993748	-0.329760	-0.876174
H158	H	1.493748	0.170240	-0.376174
Br159	Br	0.898201	-1.115854	-0.614247
Br160	Br	1.398201	-0.615854	-0.114247
H161	H	0.993723	-0.329791	-0.727460
H162	H	1.493723	0.170209	-0.227460
Br163	Br	0.902571	-0.752453	-0.609651
Br164	Br	1.402571	-0.252453	-0.109651
Br165	Br	0.619619	-0.298408	-0.305008
Br166	Br	1.119619	0.201592	0.194992
Br167	Br	0.560004	-0.298417	-0.305007
Br168	Br	1.060004	0.201583	0.194993
H169	H	0.900327	-0.948966	-0.612033
H170	H	1.400327	-0.448966	-0.112033
