data_functionalizedCrystal
_audit_creation_method	'MofGen! by Chris Wilmer'
_symmetry_space_group_name_H-M	'P1'
_symmetry_Int_Tables_number	1
_symmetry_cell_setting	triclinic
loop_
_symmetry_equiv_pos_as_xyz
  x,y,z
_cell_length_a	9.065215
_cell_length_b	14.519709
_cell_length_c	12.996460
_cell_angle_alpha	90.007090
_cell_angle_beta	90.005021
_cell_angle_gamma	84.347421
loop_
_atom_site_label
_atom_site_type_symbol
_atom_site_fract_x
_atom_site_fract_y
_atom_site_fract_z
O1	O	1.957872	0.135216	0.085558
O2	O	2.291205	0.468549	0.418891
O3	O	2.624539	0.801882	0.752224
O4	O	1.528379	0.146310	0.085562
O5	O	1.861712	0.479644	0.418896
O6	O	2.195045	0.812977	0.752229
O7	O	1.754513	0.006608	0.085551
O8	O	2.087846	0.339941	0.418884
O9	O	2.421179	0.673274	0.752217
O10	O	1.731738	0.274918	0.085569
O11	O	2.065071	0.608251	0.418903
O12	O	2.398405	0.941585	0.752236
O13	O	1.754489	0.006600	-0.085583
O14	O	2.087822	0.339933	0.247750
O15	O	2.421156	0.673266	0.581083
O16	O	1.528355	0.146302	-0.085571
O17	O	1.861688	0.479636	0.247762
O18	O	2.195022	0.812969	0.581095
O19	O	1.957848	0.135208	-0.085576
O20	O	2.291182	0.468541	0.247757
O21	O	2.624515	0.801874	0.581090
Cu22	Cu	1.743100	0.140754	-0.101200
Cu23	Cu	2.076433	0.474088	0.232134
Cu24	Cu	2.409766	0.807421	0.565467
Cu25	Cu	1.743127	0.140764	0.101186
Cu26	Cu	2.076461	0.474097	0.434519
Cu27	Cu	2.409794	0.807430	0.767853
O28	O	1.731714	0.274910	-0.085564
O29	O	2.065048	0.608243	0.247769
O30	O	2.398381	0.941577	0.581102
C31	C	1.473400	0.145241	-0.000004
C32	C	1.806734	0.478574	0.333329
C33	C	2.140067	0.811907	0.666663
C34	C	1.309617	0.142054	-0.000002
C35	C	1.642950	0.475388	0.333331
C36	C	1.976283	0.808721	0.666664
C37	C	1.753439	-0.027764	-0.000016
C38	C	2.086773	0.305570	0.333317
C39	C	2.420106	0.638903	0.666650
C40	C	1.750259	-0.130168	-0.000017
C41	C	2.083592	0.203165	0.333316
C42	C	2.416926	0.536498	0.666650
C43	C	1.738550	-0.505150	0.000010
C44	C	2.071883	-0.171816	0.333343
C45	C	2.405216	0.161517	0.666677
C46	C	1.741801	-0.400818	0.000002
C47	C	2.075135	-0.067485	0.333335
C48	C	2.408468	0.265849	0.666669
C49	C	1.744404	-0.317662	-0.000005
C50	C	2.077737	0.015671	0.333329
C51	C	2.411071	0.349004	0.666662
C52	C	1.747656	-0.213324	-0.000010
C53	C	2.080990	0.120009	0.333323
C54	C	2.414323	0.453343	0.666656
C55	C	2.012827	0.136277	-0.000008
C56	C	2.346160	0.469611	0.333326
C57	C	2.679494	0.802944	0.666659
C58	C	2.176610	0.139464	-0.000002
C59	C	2.509944	0.472797	0.333331
C60	C	2.843277	0.806130	0.666664
C61	C	1.732788	0.309282	0.000005
C62	C	2.066121	0.642615	0.333338
C63	C	2.399454	0.975948	0.666672
C64	C	1.735968	0.411686	0.000012
C65	C	2.069301	0.745019	0.333346
C66	C	2.402635	1.078353	0.666679
N67	N	1.743091	0.140747	-0.243547
N68	N	2.076424	0.474080	0.089787
N69	N	2.409757	0.807414	0.423120
C70	C	1.743125	0.140765	-0.663361
C71	C	2.076459	0.474098	-0.330028
C72	C	2.409792	0.807431	0.003306
C73	C	1.743111	0.140763	-0.546556
C74	C	2.076445	0.474096	-0.213223
C75	C	2.409778	0.807429	0.120111
C76	C	1.743109	0.140757	-0.453458
C77	C	2.076442	0.474090	-0.120124
C78	C	2.409775	0.807423	0.213209
C79	C	1.743093	0.140753	-0.336645
C80	C	2.076427	0.474087	-0.003312
C81	C	2.409760	0.807420	0.330022
N82	N	1.743148	0.140764	0.243533
N83	N	2.076481	0.474097	0.576866
N84	N	2.409815	0.807430	0.910200
