data_functionalizedCrystal
_audit_creation_method	'MofGen! by Chris Wilmer'
_symmetry_space_group_name_H-M	'P1'
_symmetry_Int_Tables_number	1
_symmetry_cell_setting	triclinic
loop_
_symmetry_equiv_pos_as_xyz
  x,y,z
_cell_length_a	19.805407
_cell_length_b	12.759400
_cell_length_c	19.805399
_cell_angle_alpha	89.976763
_cell_angle_beta	89.980427
_cell_angle_gamma	90.014685
loop_
_atom_site_label
_atom_site_type_symbol
_atom_site_fract_x
_atom_site_fract_y
_atom_site_fract_z
Zn1	Zn	1.034791	-0.418291	-0.382740
Zn2	Zn	1.034729	-0.593984	-0.269560
Zn3	Zn	0.921605	-0.418320	-0.269565
Zn4	Zn	0.921592	-0.593928	-0.382707
O5	O	0.978179	-0.506131	-0.326143
O6	O	1.129499	-0.441608	-0.367739
O7	O	1.019702	-0.570717	-0.174844
O8	O	0.936651	-0.271295	-0.284593
O9	O	1.129454	-0.570689	-0.284586
O10	O	1.019808	-0.271273	-0.367743
O11	O	0.936591	-0.441657	-0.174848
O12	O	0.826887	-0.441603	-0.284561
O13	O	0.936629	-0.570594	-0.477428
O14	O	0.826877	-0.570622	-0.367687
O15	O	1.019795	-0.441554	-0.477452
O16	O	1.019689	-0.740998	-0.284554
O17	O	0.936568	-0.740957	-0.367682
C18	C	0.802323	-0.506110	-0.326121
C19	C	0.727091	-0.506127	-0.326128
C20	C	0.978139	-0.779098	-0.326129
C21	C	0.978184	-0.895875	-0.326146
C22	C	0.691760	-0.573408	-0.369341
C23	C	0.621071	-0.573410	-0.369351
C24	C	0.585716	-0.506135	-0.326143
C25	C	0.621052	-0.438847	-0.282928
C26	C	0.691739	-0.438840	-0.282922
C27	C	0.335979	-0.438870	-0.282950
C28	C	0.265287	-0.438884	-0.282958
C29	C	0.265311	-0.573440	-0.369379
C30	C	0.335998	-0.573433	-0.369373
C31	C	0.371328	-0.506141	-0.326161
C32	C	0.447977	-0.506139	-0.326152
C33	C	0.509069	-0.506142	-0.326148
C34	C	1.021513	-0.950723	-0.282908
C35	C	1.021555	-1.060447	-0.282929
C36	C	0.934932	-1.060464	-0.369426
C37	C	0.934894	-0.950742	-0.369408
C38	C	1.064802	-0.895855	-0.239646
C39	C	1.108135	-0.950704	-0.196404
C40	C	1.108176	-1.060428	-0.196425
C41	C	1.064886	-1.115303	-0.239687
C42	C	1.154722	-0.506152	-0.326165
C43	C	1.229954	-0.506160	-0.326175
C44	C	0.978217	-0.506064	-0.502686
C45	C	0.978233	-0.506036	-0.577918
C46	C	0.978238	-0.232097	-0.326172
C47	C	0.978263	-0.115321	-0.326184
C48	C	1.021539	-0.438842	-0.613276
C49	C	1.021546	-0.438811	-0.683964
C50	C	0.978250	-0.505981	-0.719294
C51	C	0.934940	-0.573179	-0.683931
C52	C	0.934930	-0.573203	-0.613244
C53	C	0.934978	-0.573081	-0.969004
C54	C	0.934992	-0.573054	-1.039696
C55	C	1.021594	-0.438689	-1.039725
C56	C	1.021584	-0.438713	-0.969038
C57	C	0.978272	-0.505906	-0.933681
C58	C	0.978264	-0.505937	-0.857033
C59	C	0.978261	-0.505957	-0.795941
C60	C	0.978180	-0.506121	-0.150287
C61	C	0.978295	-0.505853	-0.075055
H62	H	0.592308	-0.628198	-0.404539
H63	H	0.899720	-0.627809	-0.940225
C64	C	1.222752	-0.916803	-0.163531
C65	C	1.155719	-0.890389	-0.148854
H66	H	1.252128	-0.879564	-0.134177
H67	H	1.228973	-0.989991	-0.157354
H68	H	1.232617	-0.898752	-0.209015
H69	H	1.145853	-0.908448	-0.103372
H70	H	1.149495	-0.817186	-0.155025
H71	H	0.720541	-0.628195	-0.404524
C72	C	0.896524	-1.228671	-0.407853
C73	C	0.887344	-1.120782	-0.416971
H74	H	0.867140	-1.265905	-0.437203
H75	H	0.941996	-1.246582	-0.417807
H76	H	0.886652	-1.246697	-0.362367
H77	H	0.897221	-1.102754	-0.462457
H78	H	0.841862	-1.102864	-0.407023
H79	H	0.899613	-0.906084	-0.404617
C80	C	0.820318	-0.624329	-0.705670
C81	C	0.887346	-0.647013	-0.722763
H82	H	0.790937	-0.669911	-0.729646
H83	H	0.814119	-0.633962	-0.658516
H84	H	0.810438	-0.553732	-0.717266
H85	H	0.897227	-0.717609	-0.711162
H86	H	0.893549	-0.637389	-0.769927
C87	C	0.243597	-0.624856	-0.483941
C88	C	0.226474	-0.647398	-0.416889
H89	H	0.219624	-0.670519	-0.513269
H90	H	0.232025	-0.554296	-0.493921
H91	H	0.290757	-0.634485	-0.490109
H92	H	0.179314	-0.637761	-0.410719
H93	H	0.238042	-0.717976	-0.406906
H94	H	0.364736	-0.384085	-0.247759
H95	H	1.056798	-0.384147	-0.584516
H96	H	0.720505	-0.384048	-0.247737
H97	H	1.143464	-1.105083	-0.161221
C98	C	0.512685	-0.379106	-0.244563
C99	C	0.582191	-0.364892	-0.235435
H100	H	0.488696	-0.333452	-0.215238
H101	H	0.501125	-0.363827	-0.290053
H102	H	0.501094	-0.449680	-0.234575
H103	H	0.593783	-0.294320	-0.245428
H104	H	0.593755	-0.380164	-0.189934
H105	H	0.364781	-0.628219	-0.404555
H106	H	0.236502	-0.384094	-0.247773
C107	C	1.112109	-1.272473	-0.192628
C108	C	1.064933	-1.235915	-0.239713
H109	H	1.112133	-1.346932	-0.192640
H110	H	1.155764	-1.247585	-0.204371
H111	H	1.100415	-1.247708	-0.148936
H112	H	1.076629	-1.260673	-0.283405
H113	H	1.021268	-1.260814	-0.227973
H114	H	1.064772	-0.806512	-0.239622
H115	H	0.899659	-0.627909	-0.584456
H116	H	1.056812	-0.384097	-0.712749
C117	C	1.107185	-0.305883	-0.976168
C118	C	1.069174	-0.364874	-0.930204
H119	H	1.136560	-0.260291	-0.952193
H120	H	1.133071	-0.351649	-1.003735
H121	H	1.077700	-0.265687	-1.003740
H122	H	1.098659	-0.405076	-0.902636
H123	H	1.043286	-0.319102	-0.902625
H124	H	1.056859	-0.383973	-1.068521
H125	H	0.899733	-0.627754	-1.068460
