data_functionalizedCrystal
_audit_creation_method	'MofGen! by Chris Wilmer'
_symmetry_space_group_name_H-M	'P1'
_symmetry_Int_Tables_number	1
_symmetry_cell_setting	triclinic
loop_
_symmetry_equiv_pos_as_xyz
  x,y,z
_cell_length_a	15.995350
_cell_length_b	14.519709
_cell_length_c	12.996460
_cell_angle_alpha	89.998766
_cell_angle_beta	89.997437
_cell_angle_gamma	83.586260
loop_
_atom_site_label
_atom_site_type_symbol
_atom_site_fract_x
_atom_site_fract_y
_atom_site_fract_z
O1	O	-1.111166	-0.118867	0.085482
O2	O	-0.867413	-0.133546	0.085503
O3	O	-0.995752	0.008044	0.085483
O4	O	-0.982827	-0.260457	0.085502
O5	O	-0.995736	0.008035	-0.085651
O6	O	-0.867396	-0.133554	-0.085630
O7	O	-1.111150	-0.118875	-0.085652
Cu8	Cu	-0.989272	-0.126215	-0.101267
Cu9	Cu	-0.989291	-0.126206	0.101118
O10	O	-0.982810	-0.260465	-0.085631
C11	C	-0.995142	0.042398	-0.000084
C12	C	-0.993337	0.144776	-0.000085
C13	C	-0.836209	-0.132943	-0.000061
C14	C	-0.743256	-0.131124	-0.000053
C15	C	-1.142354	-0.119478	-0.000085
C16	C	-1.235307	-0.121297	-0.000087
C17	C	-0.405499	-0.124590	-0.000075
C18	C	-0.452782	-0.023752	-0.000464
C19	C	-0.549475	-0.025572	-0.000071
C20	C	-0.573064	-0.127831	-0.000065
C21	C	-0.532061	-0.177563	0.097661
C22	C	-0.435421	-0.175030	0.097735
C23	C	-0.435067	-0.177123	-0.096876
C24	C	-0.532012	-0.177099	-0.098160
C25	C	-0.667764	-0.129668	-0.000055
C26	C	-0.310798	-0.122756	-0.000077
C27	C	-0.983421	-0.294819	-0.000062
C28	C	-0.985226	-0.397197	-0.000055
N29	N	-0.989264	-0.126222	-0.243614
C30	C	-0.986691	0.519660	-0.000057
C31	C	-0.988537	0.415355	-0.000065
C32	C	-0.990014	0.332221	-0.000072
C33	C	-0.991859	0.227910	-0.000078
C34	C	-0.989268	-0.126224	-0.336720
C35	C	-0.989275	-0.126218	-0.453525
C36	C	-0.989286	-0.126208	-0.546624
C37	C	-0.989295	-0.126202	-0.663436
N38	N	-0.989305	-0.126192	0.243466
H39	H	-0.577838	0.013520	-0.070125
H40	H	-0.560390	-0.143015	0.170385
F41	F	-0.428480	0.028928	-0.092068
H42	H	-0.403416	-0.251469	-0.097532
H43	H	-0.433135	0.016373	0.069227
F44	F	-0.552235	-0.274571	-0.105869
F45	F	-0.550689	-0.275752	0.102436
F46	F	-0.585798	0.025670	0.091792
H47	H	-0.417066	-0.138756	0.170783
H48	H	-0.414475	-0.144160	-0.170949
H49	H	-0.403284	-0.249063	0.102175
F50	F	-0.567553	-0.129572	-0.192657
