data_functionalizedCrystal
_audit_creation_method	'MofGen! by Chris Wilmer'
_symmetry_space_group_name_H-M	'P1'
_symmetry_Int_Tables_number	1
_symmetry_cell_setting	triclinic
loop_
_symmetry_equiv_pos_as_xyz
  x,y,z
_cell_length_a	19.121321
_cell_length_b	19.120786
_cell_length_c	12.759393
_cell_angle_alpha	92.477119
_cell_angle_beta	87.580725
_cell_angle_gamma	90.133760
loop_
_atom_site_label
_atom_site_type_symbol
_atom_site_fract_x
_atom_site_fract_y
_atom_site_fract_z
Zn1	Zn	1.059836	-0.324739	0.505616
Zn2	Zn	1.054741	-0.441999	0.322761
Zn3	Zn	0.942598	-0.319781	0.337750
Zn4	Zn	0.937570	-0.436953	0.506198
O5	O	0.998686	-0.380868	0.418081
O6	O	1.157261	-0.344480	0.474844
O7	O	1.039837	-0.425823	0.177727
O8	O	0.962386	-0.222328	0.366047
O9	O	1.153518	-0.430631	0.340501
O10	O	1.048520	-0.225971	0.489378
O11	O	0.957446	-0.336030	0.188740
O12	O	0.843829	-0.331138	0.366611
O13	O	0.953817	-0.422031	0.653142
O14	O	0.840135	-0.417223	0.490369
O15	O	1.043645	-0.339588	0.652715
O16	O	1.034962	-0.539440	0.341065
O17	O	0.948876	-0.535733	0.475835
C18	C	0.816546	-0.373095	0.430180
C19	C	0.738625	-0.369787	0.435380
C20	C	0.298019	-0.348774	0.468357
C21	C	0.371233	-0.351896	0.463464
C22	C	0.405886	-0.398237	0.390968
C23	C	0.367320	-0.441464	0.323368
C24	C	0.294106	-0.438345	0.328266
C25	C	0.626845	-0.409896	0.372678
C26	C	0.700064	-0.413009	0.367783
C27	C	0.703972	-0.323442	0.507881
C28	C	0.630758	-0.320325	0.512769
C29	C	0.592198	-0.363554	0.445172
C30	C	0.480723	-0.401427	0.385963
C31	C	0.517362	-0.360367	0.450183
C32	C	0.990840	-0.563026	0.406908
C33	C	0.987547	-0.640957	0.402159
C34	C	1.030812	-0.679403	0.464196
C35	C	1.027715	-0.752627	0.459736
C36	C	0.981357	-0.787403	0.393232
C37	C	0.938087	-0.748951	0.331192
C38	C	0.941180	-0.675729	0.335659
C39	C	0.969771	-1.008397	0.376536
C40	C	0.966682	-1.081625	0.372072
C41	C	1.056310	-1.085296	0.500617
C42	C	1.059403	-1.012072	0.505073
C43	C	1.016130	-0.973626	0.443038
C44	C	0.978192	-0.862250	0.388669
C45	C	1.019292	-0.898780	0.447607
C46	C	1.181538	-0.388671	0.405935
C47	C	1.259458	-0.391997	0.400759
C48	C	0.998738	-0.380799	0.692116
C49	C	0.998760	-0.380770	0.808893
C50	C	1.006582	-0.197999	0.429320
C51	C	1.009947	-0.120072	0.434109
C52	C	0.998677	-0.380887	0.145113
C53	C	0.998799	-0.380725	0.028340
C54	C	1.045540	-0.337838	0.863534
C55	C	1.045558	-0.337813	0.973259
C56	C	0.952014	-0.423659	0.973691
C57	C	0.951993	-0.423679	0.863969
C58	C	1.092308	-0.294929	0.808458
C59	C	1.139092	-0.251994	0.863099
C60	C	1.139110	-0.251969	0.972824
C61	C	1.092343	-0.294879	1.027907
H62	H	0.489144	-0.322639	0.509213
Br63	Br	1.122322	-0.964880	0.595331
H64	H	0.940448	-0.890573	0.334518
H65	H	0.900337	-0.777272	0.277048
Br66	Br	1.202602	-0.193703	1.046978
Br67	Br	0.250998	-0.285874	0.566741
H68	H	1.068565	-0.651094	0.518346
Br69	Br	1.115032	-1.137475	0.584806
Br70	Br	1.092290	-0.294964	0.659546
H71	H	1.057035	-0.870463	0.501759
H72	H	0.262711	-0.473543	0.273223
Br73	Br	0.888502	-0.481942	0.789806
H74	H	0.928928	-1.109938	0.317916
Br75	Br	1.202545	-0.193747	0.788349
H76	H	0.402626	-0.316702	0.518513
H77	H	1.092354	-0.294847	1.117253
Br78	Br	0.882458	-0.623550	0.251467
Br79	Br	1.086423	-0.804802	0.543953
Br80	Br	0.888550	-0.481892	1.048446
H81	H	0.934538	-0.977100	0.326022
H82	H	0.508945	-0.439155	0.326933
H83	H	0.602548	-0.282592	0.571807
H84	H	0.735376	-0.288248	0.562916
H85	H	0.595459	-0.445095	0.317634
Br86	Br	0.747092	-0.475918	0.269409
H87	H	0.395540	-0.479198	0.264344
