data_functionalizedCrystal
_audit_creation_method	'MofGen! by Chris Wilmer'
_symmetry_space_group_name_H-M	'P1'
_symmetry_Int_Tables_number	1
_symmetry_cell_setting	triclinic
loop_
_symmetry_equiv_pos_as_xyz
  x,y,z
_cell_length_a	10.654550
_cell_length_b	14.519709
_cell_length_c	9.730223
_cell_angle_alpha	89.997715
_cell_angle_beta	89.996251
_cell_angle_gamma	84.082524
loop_
_atom_site_label
_atom_site_type_symbol
_atom_site_fract_x
_atom_site_fract_y
_atom_site_fract_z
O1	O	1.666589	0.129528	-0.114406
O2	O	1.300991	0.141869	-0.114384
O3	O	1.493483	0.001510	-0.114384
O4	O	1.474097	0.269887	-0.114407
O5	O	1.493481	0.001514	0.114196
O6	O	1.300989	0.141873	0.114195
O7	O	1.666586	0.129532	0.114174
Zn8	Zn	1.483787	0.135703	0.150477
Zn9	Zn	1.483790	0.135698	-0.150687
O10	O	1.474094	0.269890	0.114173
C11	C	1.254201	0.140965	-0.000092
C12	C	1.114784	0.138254	-0.000083
C13	C	1.034504	0.220895	-0.000110
C14	C	0.903507	0.218342	-0.000134
C15	C	0.933085	0.050500	-0.000108
C16	C	1.064078	0.053054	-0.000075
C17	C	1.017426	0.317797	-0.000131
C18	C	0.886430	0.315244	-0.000154
C19	C	1.492579	-0.032852	-0.000093
C20	C	1.489871	-0.135247	-0.000092
C21	C	1.479904	-0.510195	-0.000127
C22	C	1.482672	-0.405873	-0.000117
C23	C	1.484887	-0.322725	-0.000109
C24	C	1.487656	-0.218396	-0.000101
C25	C	1.713377	0.130436	-0.000122
C26	C	1.852794	0.133147	-0.000140
C27	C	1.474999	0.304253	-0.000120
C28	C	1.477707	0.406648	-0.000130
N29	N	1.483795	0.135705	0.356013
N30	N	1.483793	0.135688	-0.356224
C31	C	1.569052	0.073576	0.427939
C32	C	1.569048	0.073565	0.571822
C33	C	1.398527	0.197821	0.571840
C34	C	1.398525	0.197827	0.427959
C35	C	1.667505	0.001840	0.427931
C36	C	1.667502	0.001829	0.571814
H37	H	0.844347	0.351754	-0.095825
O38	O	0.831575	0.350013	0.117652
C39	C	0.707057	0.320591	0.316604
C40	C	0.769136	0.281104	0.183237
H41	H	0.656538	0.264902	0.369653
H42	H	0.782612	0.343807	0.387954
H43	H	0.635986	0.382328	0.290881
H44	H	0.840197	0.219338	0.208832
H45	H	0.693511	0.257950	0.111925
O46	O	1.315823	0.258304	0.358156
C47	C	1.242505	0.418162	0.314223
C48	C	1.336261	0.349771	0.393332
H49	H	1.258978	0.492127	0.342655
H50	H	1.257139	0.407581	0.199011
H51	H	1.141915	0.405397	0.342509
H52	H	1.436888	0.362494	0.365161
H53	H	1.321516	0.360368	0.508525
O54	O	1.315530	0.258071	0.641672
C55	C	1.097289	0.310644	0.685646
C56	C	1.191145	0.242343	0.606505
H57	H	0.996704	0.297965	0.657221
H58	H	1.111822	0.299965	0.800853
H59	H	1.113872	0.384619	0.657382
H60	H	1.174619	0.168341	0.634654
H61	H	1.176590	0.253103	0.491317
H62	H	1.763861	0.017630	0.610857
O63	O	1.631940	-0.078168	0.624835
C64	C	1.564956	-0.228430	0.577079
C65	C	1.605214	-0.137887	0.516847
H66	H	1.543311	-0.276730	0.489800
H67	H	1.644595	-0.263390	0.642950
H68	H	1.477064	-0.212167	0.643095
H69	H	1.693077	-0.154070	0.450769
H70	H	1.525501	-0.102953	0.451055
O71	O	1.642563	-0.082643	0.381179
C72	C	1.503754	-0.168623	0.247984
C73	C	1.531879	-0.072893	0.300805
H74	H	1.414252	-0.160775	0.183015
H75	H	1.586182	-0.200102	0.182798
H76	H	1.489964	-0.215878	0.339132
H77	H	1.545643	-0.025567	0.209740
H78	H	1.449437	-0.041489	0.366033
H79	H	1.129439	-0.014241	-0.000033
O80	O	1.776127	0.028612	0.374897
C81	C	1.980168	0.079046	0.422632
C82	C	1.857233	0.048720	0.482877
H83	H	2.045765	0.095330	0.509904
H84	H	2.028420	0.020859	0.356733
H85	H	1.957286	0.143469	0.356642
H86	H	1.880006	-0.015683	0.548928
H87	H	1.809015	0.106962	0.548698
H88	H	0.891784	-0.018867	-0.000123
O89	O	1.051785	0.362996	0.114091
C90	C	0.982761	0.442893	0.322083
C91	C	0.943678	0.391710	0.192806
H92	H	0.895376	0.466139	0.385746
H93	H	1.050691	0.394479	0.385984
H94	H	1.031154	0.506013	0.290169
H95	H	0.895233	0.328591	0.224597
H96	H	0.875805	0.440186	0.128937
H97	H	1.052786	0.348651	-0.098821
