data_functionalizedCrystal
_audit_creation_method	'MofGen! by Chris Wilmer'
_symmetry_space_group_name_H-M	'P1'
_symmetry_Int_Tables_number	1
_symmetry_cell_setting	triclinic
loop_
_symmetry_equiv_pos_as_xyz
  x,y,z
_cell_length_a	18.215407
_cell_length_b	19.121063
_cell_length_c	18.215398
_cell_angle_alpha	92.412350
_cell_angle_beta	89.983470
_cell_angle_gamma	92.466335
loop_
_atom_site_label
_atom_site_type_symbol
_atom_site_fract_x
_atom_site_fract_y
_atom_site_fract_z
Zn1	Zn	1.112553	-0.279686	-0.428542
Zn2	Zn	1.107206	-0.397136	-0.310718
Zn3	Zn	0.989486	-0.279698	-0.305496
Zn4	Zn	0.984197	-0.397096	-0.433748
O5	O	1.048361	-0.338404	-0.369626
O6	O	1.214828	-0.295278	-0.412920
O7	O	1.091566	-0.381579	-0.207042
O8	O	1.010262	-0.181412	-0.317455
O9	O	1.210899	-0.381568	-0.326355
O10	O	1.100679	-0.181403	-0.407856
O11	O	1.005077	-0.295298	-0.203206
O12	O	0.885801	-0.295259	-0.322502
O13	O	1.001248	-0.381500	-0.536041
O14	O	0.881915	-0.381511	-0.416728
O15	O	1.095551	-0.295239	-0.532216
O16	O	1.086438	-0.495416	-0.331403
O17	O	0.996064	-0.495386	-0.421792
C18	C	0.857155	-0.338383	-0.369614
C19	C	0.775356	-0.338390	-0.369627
C20	C	1.040117	-0.520885	-0.377745
C21	C	1.036658	-0.598951	-0.381242
C22	C	0.508291	-0.383389	-0.418628
C23	C	0.585150	-0.383383	-0.418624
C24	C	0.589171	-0.293435	-0.320638
C25	C	0.512313	-0.293445	-0.320639
C26	C	0.471875	-0.338421	-0.369638
C27	C	0.625592	-0.338405	-0.369633
C28	C	0.708926	-0.338398	-0.369629
C29	C	0.388536	-0.338429	-0.369642
C30	C	1.082122	-0.635619	-0.335864
C31	C	1.078873	-0.708970	-0.339158
C32	C	1.030155	-0.745652	-0.387827
C33	C	0.984689	-0.708980	-0.433211
C34	C	0.987942	-0.635630	-0.429920
C35	C	1.017979	-0.967122	-0.400119
C36	C	1.014728	-1.040477	-0.403405
C37	C	1.108913	-1.040463	-0.309352
C38	C	1.112159	-0.967111	-0.306063
C39	C	1.066696	-0.930445	-0.351449
C40	C	1.026831	-0.820629	-0.391194
C41	C	1.070024	-0.855469	-0.348086
C42	C	1.240313	-0.338426	-0.369639
C43	C	1.322111	-0.338436	-0.369644
C44	C	1.048406	-0.338364	-0.561577
C45	C	1.048426	-0.338347	-0.643376
C46	C	1.056657	-0.155211	-0.361492
C47	C	1.060192	-0.077145	-0.358026
C48	C	1.093498	-0.383187	-0.910432
C49	C	1.093485	-0.383211	-0.833574
C50	C	1.003415	-0.293371	-0.829562
C51	C	1.003424	-0.293351	-0.906419
C52	C	1.048470	-0.338258	-0.946851
C53	C	1.048448	-0.338302	-0.793137
C54	C	1.048435	-0.338328	-0.709805
C55	C	1.048482	-0.338233	-1.030189
C56	C	1.048360	-0.338394	-0.178420
C57	C	1.048492	-0.338213	-0.096613
H58	H	0.614796	-0.420002	-0.458517
H59	H	0.987163	-0.850504	-0.430819
H60	H	0.482663	-0.256825	-0.280741
H61	H	0.622105	-0.256816	-0.280745
H62	H	1.145928	-1.070324	-0.272402
H63	H	1.130152	-0.419797	-0.803924
N64	N	1.131885	-0.598163	-0.286138
N65	N	1.172474	-0.630914	-0.245626
H66	H	1.207621	-0.604463	-0.210506
N67	N	0.466984	-0.429346	-0.468662
N68	N	0.422079	-0.474076	-0.444681
H69	H	0.392907	-0.506537	-0.480016
N70	N	0.957417	-0.247482	-0.788270
N71	N	0.917222	-0.207365	-0.820800
H72	H	0.884738	-0.174951	-0.791639
N73	N	1.125330	-0.746414	-0.292810
N74	N	1.168827	-0.713654	-0.249362
H75	H	1.201644	-0.740097	-0.216630
N76	N	0.964951	-1.077938	-0.453120
N77	N	0.924360	-1.045193	-0.493636
H78	H	0.889203	-1.071649	-0.528744
H79	H	0.980960	-0.937274	-0.437073
N80	N	0.941499	-0.598161	-0.476261
N81	N	0.944410	-0.532671	-0.473317
H82	H	0.911611	-0.506208	-0.506048
N83	N	0.934935	-0.746458	-0.482928
N84	N	0.932036	-0.811948	-0.485861
H85	H	0.896896	-0.838418	-0.520974
H86	H	1.151829	-0.937246	-0.266432
H87	H	0.966753	-0.256763	-0.936072
N88	N	1.119775	-0.817992	-0.298369
N89	N	1.095711	-0.777109	-0.249624
H90	H	1.130845	-0.750635	-0.214509
H91	H	1.130176	-0.419753	-0.943350
