data_functionalizedCrystal
_audit_creation_method	'MofGen! by Chris Wilmer'
_symmetry_space_group_name_H-M	'P1'
_symmetry_Int_Tables_number	1
_symmetry_cell_setting	triclinic
loop_
_symmetry_equiv_pos_as_xyz
  x,y,z
_cell_length_a	10.723022
_cell_length_b	14.044220
_cell_length_c	9.798715
_cell_angle_alpha	90.004373
_cell_angle_beta	90.003403
_cell_angle_gamma	88.828052
loop_
_atom_site_label
_atom_site_type_symbol
_atom_site_fract_x
_atom_site_fract_y
_atom_site_fract_z
O1	O	1.670498	0.133033	0.113486
O2	O	2.170498	0.633033	0.613486
O3	O	1.308620	0.145769	0.113491
O4	O	1.808620	0.645769	0.613491
O5	O	1.484127	0.001381	0.113476
O6	O	1.984127	0.501381	0.613476
O7	O	1.494991	0.277421	0.113502
O8	O	1.994991	0.777421	0.613502
O9	O	1.484113	0.001380	-0.113507
O10	O	1.984113	0.501380	0.386493
O11	O	1.308605	0.145768	-0.113491
O12	O	1.808605	0.645768	0.386509
O13	O	1.670484	0.133032	-0.113496
O14	O	2.170484	0.633032	0.386504
Zn15	Zn	1.489542	0.139400	-0.149532
Zn16	Zn	1.989542	0.639400	0.350468
Zn17	Zn	1.489561	0.139401	0.149527
Zn18	Zn	1.989561	0.639401	0.649527
O19	O	1.494976	0.277420	-0.113480
O20	O	1.994976	0.777420	0.386520
C21	C	1.262020	0.144842	0.000001
C22	C	1.762020	0.644842	0.500001
C23	C	1.123188	0.142070	0.000002
C24	C	1.623188	0.642070	0.500002
C25	C	0.912806	0.219995	0.000013
C26	C	1.412806	0.719995	0.500013
C27	C	1.056296	0.222862	0.000011
C28	C	1.556296	0.722862	0.500011
C29	C	1.479364	-0.033965	-0.000016
C30	C	1.979364	0.466035	0.499984
C31	C	1.465180	-0.139283	-0.000018
C32	C	1.965180	0.360717	0.499982
C33	C	1.439248	-0.332113	0.000002
C34	C	1.939248	0.167887	0.500002
C35	C	1.539850	-0.389092	0.000005
C36	C	2.039850	0.110908	0.500005
C37	C	1.525421	-0.496389	0.000016
C38	C	2.025421	0.003611	0.500016
C39	C	1.453675	-0.224805	-0.000009
C40	C	1.953675	0.275195	0.499991
C41	C	1.717083	0.133959	-0.000002
C42	C	2.217083	0.633959	0.499998
C43	C	1.855915	0.136731	0.000005
C44	C	2.355915	0.636731	0.500005
C45	C	1.499739	0.312766	0.000015
C46	C	1.999739	0.812766	0.500015
C47	C	1.513923	0.418084	0.000025
C48	C	2.013923	0.918084	0.500025
N49	N	1.489538	0.139398	-0.353631
N50	N	1.989538	0.639398	0.146369
C51	C	1.567806	0.194401	-0.421404
C52	C	2.067806	0.694401	0.078596
C53	C	1.567826	0.194400	-0.578567
C54	C	2.067826	0.694400	-0.078567
N55	N	1.489574	0.139395	0.353627
N56	N	1.989574	0.639395	0.853627
H57	H	1.105240	0.294151	0.000010
H58	H	1.605240	0.794151	0.500010
H59	H	1.074252	0.070777	0.000032
H60	H	1.574252	0.570777	0.500032
F61	F	1.312516	-0.373676	0.000011
F62	F	1.812516	0.126324	0.500011
H63	H	1.422548	0.092305	-0.411960
H64	H	1.922548	0.592305	0.088040
H65	H	1.634828	0.241495	-0.636851
H66	H	2.134828	0.741495	-0.136851
F67	F	0.837626	0.310399	0.000035
F68	F	1.337626	0.810399	0.500035
H69	H	1.422557	0.092307	-0.588098
H70	H	1.922557	0.592307	-0.088098
F71	F	1.655381	0.255950	-0.345171
F72	F	2.155381	0.755950	0.154829
H73	H	1.636814	-0.357291	0.000095
H74	H	2.136814	0.142709	0.500095
F75	F	0.931095	0.046327	0.000005
F76	F	1.431095	0.546327	0.500005
