data_functionalizedCrystal
_audit_creation_method	'MofGen! by Chris Wilmer'
_symmetry_space_group_name_H-M	'P1'
_symmetry_Int_Tables_number	1
_symmetry_cell_setting	triclinic
loop_
_symmetry_equiv_pos_as_xyz
  x,y,z
_cell_length_a	13.897449
_cell_length_b	12.759394
_cell_length_c	12.759387
_cell_angle_alpha	90.031660
_cell_angle_beta	89.978260
_cell_angle_gamma	89.983883
loop_
_atom_site_label
_atom_site_type_symbol
_atom_site_fract_x
_atom_site_fract_y
_atom_site_fract_z
Zn1	Zn	1.474731	0.418175	-0.594033
Zn2	Zn	1.474631	0.593892	-0.418351
Zn3	Zn	1.313418	0.418232	-0.418366
Zn4	Zn	1.313410	0.593817	-0.593986
O5	O	1.394047	0.506029	-0.506184
O6	O	1.609700	0.441492	-0.570742
O7	O	1.453206	0.570646	-0.271332
O8	O	1.334862	0.271203	-0.441695
O9	O	1.609626	0.570591	-0.441669
O10	O	1.453378	0.271162	-0.570757
O11	O	1.334764	0.441589	-0.271343
O12	O	1.178435	0.441515	-0.441650
O13	O	1.334849	0.570462	-0.741014
O14	O	1.178430	0.570517	-0.570677
O15	O	1.453371	0.441419	-0.741048
O16	O	1.453199	0.740903	-0.441624
O17	O	1.334751	0.740848	-0.570662
C18	C	1.143433	0.506015	-0.506160
C19	C	1.036219	0.506034	-0.506175
C20	C	1.393990	0.778996	-0.506159
C21	C	1.394053	0.895773	-0.506183
C22	C	1.394120	0.505926	-0.780218
C23	C	1.394151	0.505882	-0.896995
C24	C	0.839924	0.506038	-0.506203
C25	C	0.949157	0.506033	-0.506184
C26	C	1.645640	0.506044	-0.506209
C27	C	1.752854	0.506050	-0.506220
C28	C	1.394132	0.231996	-0.506233
C29	C	1.394168	0.115219	-0.506253
C30	C	1.517485	0.895778	-0.371916
C31	C	1.579227	0.950641	-0.304795
C32	C	1.579283	1.060362	-0.304823
C33	C	1.517594	1.115223	-0.371983
C34	C	1.455853	1.060360	-0.439104
C35	C	1.455801	0.950636	-0.439066
C36	C	1.332427	1.060356	-0.573375
C37	C	1.332364	0.950634	-0.573342
C38	C	1.270737	1.115217	-0.640534
C39	C	1.208990	1.060354	-0.707651
C40	C	1.208935	0.950626	-0.707619
C41	C	1.270622	0.895771	-0.640464
C42	C	1.517577	0.371518	-0.897050
C43	C	1.579303	0.304321	-0.951939
C44	C	1.579326	0.304283	-1.061661
C45	C	1.517615	0.371447	-1.116496
C46	C	1.455889	0.438644	-1.061608
C47	C	1.455874	0.438678	-0.951883
C48	C	1.332460	0.573001	-1.061552
C49	C	1.332440	0.573046	-0.951830
C50	C	1.270749	0.640165	-1.116388
C51	C	1.209026	0.707370	-1.061499
C52	C	1.209006	0.707406	-0.951771
C53	C	1.270714	0.640244	-0.896942
C54	C	1.394030	0.506056	-0.233217
C55	C	1.394186	0.505804	-0.116441
H56	H	1.629456	0.905963	-0.250116
H57	H	1.158661	0.905962	-0.762281
H58	H	1.517654	1.204564	-0.372009
H59	H	1.158730	0.762116	-0.907087
O60	O	1.639365	1.113705	-0.239777
C61	C	1.701653	1.177085	-0.299672
H62	H	1.707557	1.143941	-0.382414
H63	H	1.671868	1.260264	-0.303290
C64	C	1.794701	1.219434	-0.146817
C65	C	1.801959	1.178721	-0.248439
H66	H	1.856574	1.220449	-0.115213
H67	H	1.752735	1.176738	-0.106463
H68	H	1.769877	1.288747	-0.149845
H69	H	1.826771	1.109406	-0.245408
H70	H	1.843932	1.221407	-0.288792
O71	O	1.639221	0.239185	-0.898509
C72	C	1.625955	0.253608	-0.789895
H73	H	1.594322	0.334684	-0.774886
H74	H	1.574615	0.191287	-0.758758
C75	C	1.762402	0.144448	-0.752023
C76	C	1.723557	0.244032	-0.733588
H77	H	1.822605	0.138537	-0.717288
H78	H	1.771337	0.134728	-0.825198
H79	H	1.719609	0.092525	-0.726075
H80	H	1.766344	0.295952	-0.759548
H81	H	1.714630	0.253761	-0.660416
O82	O	1.270881	1.221799	-0.640735
C83	C	1.295611	1.258348	-0.741466
H84	H	1.337614	1.195041	-0.784916
H85	H	1.227314	1.277841	-0.786930
C86	C	1.306554	1.435211	-0.678026
C87	C	1.358150	1.357460	-0.731388
H88	H	1.345127	1.496351	-0.671811
H89	H	1.289889	1.410589	-0.610162
H90	H	1.249642	1.451442	-0.715919
H91	H	1.415053	1.341221	-0.693488
H92	H	1.374826	1.382082	-0.799246
O93	O	1.270775	0.640323	-1.222970
C94	C	1.295534	0.741003	-1.259605
H95	H	1.279014	0.801534	-1.196356
H96	H	1.375573	0.743241	-1.279085
C97	C	1.257066	0.691846	-1.436431
C98	C	1.236768	0.766192	-1.358751
H99	H	1.220821	0.707383	-1.497592
H100	H	1.240388	0.624014	-1.411751
H101	H	1.323766	0.693718	-1.452652
H102	H	1.170072	0.764309	-1.342522
H103	H	1.253434	0.834024	-1.383431
H104	H	1.517433	0.806436	-0.371872
H105	H	1.517573	0.371553	-0.807709
H106	H	1.158781	0.762044	-1.106155
H107	H	1.158772	1.105030	-0.762332
H108	H	1.270577	0.806430	-0.640424
O109	O	1.639147	0.238896	-1.115032
C110	C	1.584267	0.171032	-1.178526
H111	H	1.508294	0.164538	-1.145444
H112	H	1.580943	0.203494	-1.261672
C113	C	1.724746	0.069795	-1.220889
C114	C	1.631437	0.061813	-1.180251
H115	H	1.753843	0.002425	-1.221958
H116	H	1.761721	0.115519	-1.178115
H117	H	1.721963	0.096851	-1.290173
H118	H	1.634221	0.034769	-1.110964
H119	H	1.594463	0.016082	-1.223014
H120	H	1.517631	0.371401	-1.205837
H121	H	1.270708	0.640272	-0.807600
