data_functionalizedCrystal
_audit_creation_method	'MofGen! by Chris Wilmer'
_symmetry_space_group_name_H-M	'P1'
_symmetry_Int_Tables_number	1
_symmetry_cell_setting	triclinic
loop_
_symmetry_equiv_pos_as_xyz
  x,y,z
_cell_length_a	18.215407
_cell_length_b	14.908178
_cell_length_c	18.215399
_cell_angle_alpha	93.325522
_cell_angle_beta	90.019833
_cell_angle_gamma	93.314324
loop_
_atom_site_label
_atom_site_type_symbol
_atom_site_fract_x
_atom_site_fract_y
_atom_site_fract_z
Zn1	Zn	1.108200	-0.359185	0.399200
Zn2	Zn	1.441533	-0.025852	0.732533
Zn3	Zn	1.774867	0.307481	1.065867
Zn4	Zn	1.101021	-0.510066	0.269028
Zn5	Zn	1.434355	-0.176732	0.602361
Zn6	Zn	1.767688	0.156601	0.935695
Zn7	Zn	0.985131	-0.359215	0.276146
Zn8	Zn	1.318465	-0.025881	0.609479
Zn9	Zn	1.651798	0.307452	0.942813
Zn10	Zn	0.978014	-0.510015	0.392055
Zn11	Zn	1.311347	-0.176682	0.725389
Zn12	Zn	1.644680	0.156651	1.058722
O13	O	1.043092	-0.434620	0.334107
O14	O	1.376425	-0.101287	0.667441
O15	O	1.709758	0.232046	1.000774
O16	O	1.210232	-0.379209	0.381944
O17	O	1.543565	-0.045875	0.715277
O18	O	1.876898	0.287458	1.048610
O19	O	1.085623	-0.490088	0.166986
O20	O	1.418956	-0.156755	0.500320
O21	O	1.752289	0.176578	0.833653
O22	O	1.007440	-0.232956	0.298438
O23	O	1.340773	0.100377	0.631772
O24	O	1.674106	0.433710	0.965105
O25	O	1.204957	-0.490060	0.286307
O26	O	1.538291	-0.156726	0.619640
O27	O	1.871624	0.176607	0.952974
O28	O	1.097858	-0.232935	0.388846
O29	O	1.431191	0.100399	0.722179
O30	O	1.764525	0.433732	1.055512
O31	O	1.000479	-0.379259	0.172216
O32	O	1.333812	-0.045926	0.505549
O33	O	1.667145	0.287408	0.838883
O34	O	0.881203	-0.379210	0.291510
O35	O	1.214537	-0.045877	0.624844
O36	O	1.547870	0.287457	0.958177
O37	O	0.995309	-0.489974	0.495989
O38	O	1.328642	-0.156641	0.829322
O39	O	1.661975	0.176693	1.162656
O40	O	0.875974	-0.490003	0.376669
O41	O	1.209307	-0.156669	0.710002
O42	O	1.542641	0.176664	1.043335
O43	O	1.090956	-0.379160	0.501238
O44	O	1.424290	-0.045827	0.834572
O45	O	1.757623	0.287507	1.167905
O46	O	1.078721	-0.636314	0.279379
O47	O	1.412054	-0.302980	0.612712
O48	O	1.745388	0.030353	0.946046
O49	O	0.988348	-0.636277	0.369767
O50	O	1.321681	-0.302943	0.703100
O51	O	1.655014	0.030390	1.036433
C52	C	0.851886	-0.434605	0.334087
C53	C	1.185219	-0.101272	0.667420
C54	C	1.518553	0.232062	1.000754
C55	C	0.770086	-0.434620	0.334095
C56	C	1.103420	-0.101287	0.667428
C57	C	1.436753	0.232047	1.000761
C58	C	0.579185	-0.492400	0.378373
C59	C	0.912518	-0.159067	0.711707
C60	C	1.245851	0.174266	1.045040
C61	C	0.502326	-0.492403	0.378382
C62	C	0.835659	-0.159070	0.711716
C63	C	1.168992	0.174263	1.045049
C64	C	0.507750	-0.376857	0.289857
C65	C	0.841083	-0.043523	0.623190
C66	C	1.174416	0.289810	0.956524
C67	C	0.584607	-0.376850	0.289852
C68	C	0.917941	-0.043517	0.623186
C69	C	1.251274	0.289817	0.956519
C70	C	0.620323	-0.434627	0.334109
C71	C	0.953656	-0.101294	0.667442
C72	C	1.286989	0.232040	1.000776
C73	C	0.466606	-0.434636	0.334123
C74	C	0.799939	-0.101303	0.667456
C75	C	1.133273	0.232030	1.000789
C76	C	0.383272	-0.434639	0.334132
C77	C	0.716606	-0.101306	0.667466
C78	C	1.049939	0.232028	1.000799
C79	C	0.703662	-0.434623	0.334101
C80	C	1.036995	-0.101290	0.667434
C81	C	1.370328	0.232043	1.000768
C82	C	1.032003	-0.669031	0.323041
C83	C	1.365336	-0.335698	0.656374
C84	C	1.698670	-0.002365	0.989708
C85	C	1.027327	-0.769314	0.318331
C86	C	1.360660	-0.435980	0.651665
C87	C	1.693993	-0.102647	0.984998
C88	C	1.112620	-0.957582	0.403724
C89	C	1.445954	-0.624248	0.737057
C90	C	1.779287	-0.290915	1.070390
C91	C	1.108229	-1.051806	0.399301
C92	C	1.441562	-0.718472	0.732634
C93	C	1.774895	-0.385139	1.065968
C94	C	1.014149	-1.051987	0.305068
C95	C	1.347483	-0.718654	0.638401
C96	C	1.680816	-0.385320	0.971735
C97	C	1.018541	-0.957763	0.309490
C98	C	1.351874	-0.624430	0.642824
C99	C	1.685207	-0.291096	0.976157
C100	C	1.067779	-0.910564	0.358819
C101	C	1.401112	-0.577230	0.692153
C102	C	1.734445	-0.243897	1.025486
C103	C	1.072173	-0.816338	0.363238
C104	C	1.405506	-0.483005	0.696571
C105	C	1.738840	-0.149671	1.029904
C106	C	0.978090	-0.816521	0.269009
C107	C	1.311424	-0.483188	0.602342
C108	C	1.644757	-0.149855	0.935675
C109	C	0.973699	-0.910745	0.264586
C110	C	1.307032	-0.577412	0.597919
C111	C	1.640366	-0.244079	0.931253
C112	C	1.235044	-0.434636	0.334128
C113	C	1.568377	-0.101303	0.667462
C114	C	1.901710	0.232030	1.000795
C115	C	1.316842	-0.434643	0.334137
C116	C	1.650176	-0.101310	0.667470
C117	C	1.983509	0.232023	1.000804
C118	C	1.043139	-0.434558	0.526063
C119	C	1.376473	-0.101225	0.859397
C120	C	1.709806	0.232109	1.192730
C121	C	1.043160	-0.434532	0.607863
C122	C	1.376493	-0.101198	0.941197
C123	C	1.709826	0.232135	1.274530
C124	C	1.054244	-0.199294	0.345233
C125	C	1.387577	0.134040	0.678566
C126	C	1.720910	0.467373	1.011900
C127	C	1.058996	-0.099012	0.349974
C128	C	1.392329	0.234322	0.683307
C129	C	1.725663	0.567655	1.016641
C130	C	1.043089	-0.434617	0.142901
C131	C	1.376423	-0.101284	0.476235
C132	C	1.709756	0.232050	0.809568
C133	C	1.043224	-0.434389	0.061114
C134	C	1.376557	-0.101056	0.394447
C135	C	1.709890	0.232277	0.727780
C136	C	1.092983	-0.376777	0.798795
C137	C	1.426316	-0.043443	1.132128
C138	C	1.759649	0.289890	1.465461
C139	C	1.092993	-0.376750	0.875655
C140	C	1.426326	-0.043417	1.208988
C141	C	1.759659	0.289916	1.542321
C142	C	0.993395	-0.492147	0.870177
C143	C	1.326729	-0.158814	1.203510
C144	C	1.660062	0.174520	1.536844
C145	C	0.993382	-0.492168	0.793319
C146	C	1.326716	-0.158835	1.126652
C147	C	1.660049	0.174499	1.459985
C148	C	1.043180	-0.434484	0.757629
C149	C	1.376514	-0.101151	1.090963
C150	C	1.709847	0.232182	1.424296
C151	C	1.043203	-0.434437	0.911348
C152	C	1.376536	-0.101104	1.244681
C153	C	1.709870	0.232230	1.578014
C154	C	1.043214	-0.434409	0.994683
C155	C	1.376547	-0.101075	1.328016
C156	C	1.709880	0.232258	1.661349
C157	C	1.043169	-0.434511	0.674289
C158	C	1.376502	-0.101178	1.007622
C159	C	1.709836	0.232156	1.340956
H160	H	0.478661	-0.329818	0.253823
H161	H	0.811994	0.003515	0.587157
H162	H	1.145328	0.336849	0.920490
H163	H	0.952853	-0.539113	0.899245
H164	H	1.286186	-0.205780	1.232578
H165	H	1.619520	0.127554	1.565911
Br166	Br	0.446498	-0.570809	0.438461
Br167	Br	0.779831	-0.237476	0.771795
Br168	Br	1.113165	0.095857	1.105128
H169	H	0.952822	-0.539160	0.759801
H170	H	1.286155	-0.205826	1.093134
H171	H	1.619489	0.127507	1.426467
Br172	Br	0.640443	-0.298428	0.229783
Br173	Br	0.973777	0.034905	0.563116
Br174	Br	1.307110	0.368238	0.896449
H175	H	0.974059	-1.090433	0.264910
H176	H	1.307392	-0.757100	0.598244
H177	H	1.640726	-0.423766	0.931577
H178	H	0.608262	-0.539444	0.414412
H179	H	0.941595	-0.206111	0.747745
H180	H	1.274928	0.127223	1.081079
H181	H	1.144740	-1.090084	0.435871
H182	H	1.478073	-0.756751	0.769204
H183	H	1.811407	-0.423417	1.102537
Br184	Br	1.160564	-0.298490	0.750361
Br185	Br	1.493897	0.034843	1.083694
Br186	Br	1.827230	0.368176	1.417028
Br187	Br	0.917238	-0.752707	0.208055
Br188	Br	1.250571	-0.419373	0.541388
Br189	Br	1.583905	-0.086040	0.874722
Br190	Br	1.138998	-0.752282	0.430179
Br191	Br	1.472332	-0.418949	0.763512
Br192	Br	1.805665	-0.085615	1.096846
Br193	Br	1.179451	-0.893521	0.470656
Br194	Br	1.512785	-0.560187	0.803990
Br195	Br	1.846118	-0.226854	1.137323
H196	H	0.933609	-0.949188	0.224426
H197	H	1.266943	-0.615854	0.557759
H198	H	1.600276	-0.282521	0.891093
Br199	Br	1.160590	-0.298436	0.931519
Br200	Br	1.493923	0.034897	1.264852
Br201	Br	1.827257	0.368231	1.598186
