data_functionalizedCrystal
_audit_creation_method	'MofGen! by Chris Wilmer'
_symmetry_space_group_name_H-M	'P1'
_symmetry_Int_Tables_number	1
_symmetry_cell_setting	triclinic
loop_
_symmetry_equiv_pos_as_xyz
  x,y,z
_cell_length_a	8.597187
_cell_length_b	10.489716
_cell_length_c	7.088668
_cell_angle_alpha	83.093573
_cell_angle_beta	75.473873
_cell_angle_gamma	84.932368
loop_
_atom_site_label
_atom_site_type_symbol
_atom_site_fract_x
_atom_site_fract_y
_atom_site_fract_z
O1	O	2.131182	0.228489	-0.510042
O2	O	1.667427	0.237391	-0.433650
O3	O	1.909878	0.047523	-0.473594
O4	O	1.888731	0.418357	-0.470097
O5	O	1.880377	0.023419	-0.150746
O6	O	1.637927	0.213286	-0.110802
O7	O	2.101681	0.204385	-0.187194
Cu8	Cu	1.867110	0.206635	-0.119519
Cu9	Cu	1.901998	0.235141	-0.501324
O10	O	1.859230	0.394253	-0.147249
C11	C	1.593294	0.223039	-0.262444
C12	C	1.416350	0.216173	-0.233298
C13	C	1.893540	-0.012088	-0.311915
C14	C	1.888788	-0.153800	-0.311149
C15	C	2.037464	-0.248913	-0.335622
C16	C	1.973444	-0.315743	-0.481857
C17	C	1.944324	-0.339473	-0.163548
C18	C	1.824842	-0.218754	-0.457525
C19	C	1.795731	-0.242488	-0.139077
C20	C	1.731605	-0.309268	-0.285333
C21	C	2.175815	0.218737	-0.358403
C22	C	2.352761	0.225604	-0.387562
C23	C	1.875569	0.453864	-0.308933
C24	C	1.880322	0.595577	-0.309711
N25	N	1.842583	0.186585	0.149020
N26	N	1.926538	0.255181	-0.769866
H27	H	1.335422	0.202861	-0.078940
H28	H	2.013515	0.326263	0.134109
H29	H	1.433694	0.238932	-0.541931
C30	C	1.757319	-0.149110	-0.623189
C31	C	1.597756	-0.180284	-0.597082
C32	C	1.535506	-0.116135	-0.749639
H33	H	1.819888	-0.174676	-0.744835
H34	H	1.760736	-0.058872	-0.622714
H35	H	1.594349	-0.270503	-0.597577
H36	H	1.535147	-0.154716	-0.475467
H37	H	1.538923	-0.025897	-0.749163
H38	H	1.598086	-0.141706	-0.871274
H39	H	1.427232	-0.137269	-0.731936
H40	H	1.755621	0.115500	0.245033
C41	C	2.209786	-0.212732	-0.364086
C42	C	2.211868	-0.079537	-0.362699
C43	C	2.370568	-0.046148	-0.388884
H44	H	2.272912	-0.237502	-0.485961
H45	H	2.252895	-0.255653	-0.260880
H46	H	2.168781	-0.036630	-0.465897
H47	H	2.148776	-0.054735	-0.240837
H48	H	2.413677	-0.089069	-0.285678
H49	H	2.433681	-0.070925	-0.510759
H50	H	2.372000	0.044226	-0.387929
C51	C	2.073666	-0.358665	-0.675170
C52	C	2.141739	-0.251910	-0.795576
C53	C	2.234101	-0.291398	-0.973653
H54	H	2.006968	-0.396957	-0.738215
H55	H	2.156869	-0.419566	-0.651243
H56	H	2.058547	-0.191032	-0.819507
H57	H	2.208463	-0.213605	-0.732592
H58	H	2.317303	-0.352298	-0.949725
H59	H	2.167391	-0.329691	-1.036679
H60	H	2.280310	-0.218974	-1.055362
C61	C	1.559148	-0.345090	-0.256931
C62	C	1.556321	-0.478509	-0.254851
C63	C	1.397485	-0.511558	-0.228677
H64	H	1.516756	-0.303279	-0.361370
H65	H	1.495713	-0.318833	-0.136118
H66	H	1.619732	-0.504752	-0.375649
H67	H	1.598681	-0.520351	-0.150415
H68	H	1.334050	-0.485301	-0.107864
H69	H	1.355107	-0.469739	-0.333120
H70	H	1.395544	-0.602086	-0.227244
H71	H	1.720726	-0.210099	0.005832
H72	H	1.994823	-0.391910	-0.039324
