data_functionalizedCrystal
_audit_creation_method	'MofGen! by Chris Wilmer'
_symmetry_space_group_name_H-M	'P1'
_symmetry_Int_Tables_number	1
_symmetry_cell_setting	triclinic
loop_
_symmetry_equiv_pos_as_xyz
  x,y,z
_cell_length_a	14.853566
_cell_length_b	14.519709
_cell_length_c	13.330367
_cell_angle_alpha	89.996549
_cell_angle_beta	90.004068
_cell_angle_gamma	96.342720
loop_
_atom_site_label
_atom_site_type_symbol
_atom_site_fract_x
_atom_site_fract_y
_atom_site_fract_z
O1	O	1.196417	-0.120386	0.083377
O2	O	0.933963	-0.134731	0.083395
O3	O	1.072148	0.006683	0.083357
O4	O	1.058231	-0.261800	0.083414
O5	O	1.072127	0.006660	-0.083490
O6	O	0.933942	-0.134753	-0.083452
O7	O	1.196396	-0.120409	-0.083471
Cu8	Cu	1.065167	-0.127583	-0.098696
Cu9	Cu	1.065192	-0.127556	0.098620
O10	O	1.058210	-0.261822	-0.083433
C11	C	0.900363	-0.134092	-0.000026
C12	C	0.800279	-0.132145	-0.000020
C13	C	0.377102	-0.123897	0.090909
C14	C	0.377100	-0.123923	-0.090995
C15	C	0.471135	-0.125751	-0.090991
C16	C	0.518158	-0.126654	-0.000036
C17	C	0.471145	-0.125729	0.090915
C18	C	0.518153	-0.126686	-0.181941
C19	C	0.612194	-0.128516	-0.181941
C20	C	0.659219	-0.129412	-0.090985
C21	C	0.612201	-0.128485	-0.000030
C22	C	0.659223	-0.129388	0.090925
C23	C	0.612208	-0.128455	0.181881
C24	C	0.518170	-0.126625	0.181871
C25	C	0.753256	-0.131242	-0.090975
C26	C	0.753266	-0.131220	0.090931
C27	C	1.071489	0.041031	-0.000071
C28	C	1.069546	0.143412	-0.000086
C29	C	1.062390	0.518304	-0.000113
C30	C	1.064377	0.413997	-0.000106
C31	C	1.065968	0.330861	-0.000100
C32	C	1.067955	0.226548	-0.000091
C33	C	1.229995	-0.121047	-0.000047
C34	C	1.330080	-0.122994	-0.000046
N35	N	1.065156	-0.127601	-0.237477
C36	C	1.058869	0.703829	-0.000038
C37	C	1.060813	0.601449	-0.000122
C38	C	1.119969	-0.183576	-0.710081
C39	C	1.010442	-0.071500	-0.710087
C40	C	1.010428	-0.071514	-0.605069
C41	C	1.065187	-0.127559	-0.552552
C42	C	1.119959	-0.183590	-0.605053
C43	C	0.955664	-0.015477	-0.552560
C44	C	0.955650	-0.015488	-0.447535
C45	C	1.010405	-0.071539	-0.395016
C46	C	1.065178	-0.127573	-0.447524
C47	C	1.119937	-0.183618	-0.395007
C48	C	1.174706	-0.239658	-0.447512
C49	C	1.174714	-0.239641	-0.552534
C50	C	1.010397	-0.071556	-0.289994
C51	C	1.119928	-0.183632	-0.289978
N52	N	1.065210	-0.127531	0.237402
H53	H	0.338818	-0.123134	0.164963
H54	H	0.791546	-0.131952	0.164998
H55	H	0.338808	-0.123194	-0.165046
H56	H	1.219306	-0.285263	-0.595294
O57	O	1.173070	-0.238209	-0.239079
C58	C	1.208472	-0.393503	-0.206905
C59	C	1.148242	-0.331802	-0.264628
H60	H	1.188408	-0.469187	-0.227524
H61	H	1.282476	-0.373157	-0.227565
H62	H	1.199081	-0.383840	-0.122828
H63	H	1.157554	-0.341434	-0.348717
H64	H	1.074260	-0.352163	-0.243885
O65	O	0.957118	-0.017101	-0.239146
C66	C	0.848532	0.094118	-0.250241
C67	C	0.908815	0.032474	-0.307949
H68	H	0.809478	0.134231	-0.305843
H69	H	0.798745	0.048890	-0.201115
H70	H	0.892801	0.144921	-0.201030
H71	H	0.864619	-0.018337	-0.357215
H72	H	0.958607	0.077760	-0.357012
H73	H	0.650466	-0.129273	-0.256003
O74	O	0.658033	-0.129296	0.270142
C75	C	0.802907	-0.132175	0.350750
C76	C	0.751121	-0.131202	0.250727
H77	H	0.878175	-0.133735	0.335087
H78	H	0.792647	-0.067304	0.395601
H79	H	0.776219	-0.196279	0.395617
H80	H	0.777775	-0.067141	0.205779
H81	H	0.761380	-0.196116	0.205951
O82	O	0.902499	0.038879	-0.603722
C83	C	0.853946	0.088554	-0.765516
C84	C	0.914188	0.026933	-0.707698
H85	H	0.863390	0.078932	-0.849591
H86	H	0.779938	0.068173	-0.744898
H87	H	0.873961	0.164236	-0.744852
H88	H	0.894253	-0.048766	-0.728331
H89	H	0.988181	0.047393	-0.728321
H90	H	0.479882	-0.125864	0.255922
O91	O	0.472342	-0.125777	-0.270198
C92	C	0.327456	-0.123040	-0.350816
C93	C	0.379233	-0.124041	-0.250789
H94	H	0.252165	-0.121656	-0.335159
H95	H	0.354020	-0.058908	-0.395708
H96	H	0.337851	-0.187888	-0.395640
H97	H	0.368860	-0.059237	-0.205884
H98	H	0.352658	-0.188216	-0.205973
O99	O	0.798945	-0.132314	-0.179292
C100	C	0.895074	-0.214202	-0.284808
C101	C	0.843358	-0.213118	-0.184757
H102	H	0.931011	-0.279516	-0.289250
H103	H	0.845343	-0.213308	-0.349855
H104	H	0.947208	-0.150539	-0.289359
H105	H	0.791224	-0.276770	-0.180109
H106	H	0.893143	-0.213964	-0.119758
H107	H	0.911053	0.030142	-0.404793
H108	H	0.965865	-0.025864	-0.752853
H109	H	1.219295	-0.285286	-0.404739
O110	O	1.173300	-0.237955	-0.760969
C111	C	1.325088	-0.274215	-0.793124
C112	C	1.264795	-0.212582	-0.735413
H113	H	1.399075	-0.253710	-0.772499
H114	H	1.305180	-0.349918	-0.772459
H115	H	1.315642	-0.264601	-0.877202
H116	H	1.274209	-0.222115	-0.651321
H117	H	1.284717	-0.136902	-0.756160
