data_functionalizedCrystal
_audit_creation_method	'MofGen! by Chris Wilmer'
_symmetry_space_group_name_H-M	'P1'
_symmetry_Int_Tables_number	1
_symmetry_cell_setting	triclinic
loop_
_symmetry_equiv_pos_as_xyz
  x,y,z
_cell_length_a	10.540539
_cell_length_b	10.654550
_cell_length_c	9.730223
_cell_angle_alpha	89.996251
_cell_angle_beta	89.998426
_cell_angle_gamma	95.494803
loop_
_atom_site_label
_atom_site_type_symbol
_atom_site_fract_x
_atom_site_fract_y
_atom_site_fract_z
O1	O	-0.178295	1.667897	-0.114393
O2	O	-0.195282	1.302424	-0.114370
O3	O	-0.002079	1.493499	-0.114383
O4	O	-0.371498	1.476822	-0.114380
O5	O	-0.002084	1.493496	0.114197
O6	O	-0.195287	1.302422	0.114210
O7	O	-0.178300	1.667895	0.114187
Zn8	Zn	-0.186794	1.485158	0.150490
Zn9	Zn	-0.186788	1.485161	-0.150674
O10	O	-0.371503	1.476820	0.114200
C11	C	-0.194038	1.255625	-0.000078
C12	C	-0.190306	1.116180	-0.000069
C13	C	-0.304061	1.036734	-0.000088
C14	C	-0.300547	0.905712	-0.000112
C15	C	-0.069513	0.933595	-0.000103
C16	C	-0.073028	1.064614	-0.000070
C17	C	-0.421338	1.088301	-0.000088
C18	C	-0.535103	1.008854	-0.000108
C19	C	-0.531589	0.877832	-0.000132
C20	C	-0.414310	0.826256	-0.000135
C21	C	-0.418803	1.478072	-0.000090
C22	C	-0.559750	1.481813	-0.000090
C23	C	-0.743125	1.625185	-0.000627
C24	C	-0.596508	1.621392	-0.000101
C25	C	-0.621443	1.414641	0.130441
C26	C	-0.767986	1.419405	0.130539
C27	C	-0.768483	1.416568	-0.129399
C28	C	-0.621501	1.415282	-0.131113
C29	C	0.045221	1.492247	-0.000097
C30	C	0.186168	1.488505	-0.000106
C31	C	-0.179545	1.714694	-0.000109
C32	C	-0.183276	1.854139	-0.000127
N33	N	-0.186798	1.485165	0.356027
N34	N	-0.186774	1.485164	-0.356210
C35	C	-0.101277	1.569795	0.427947
C36	C	-0.101261	1.569791	0.571830
C37	C	-0.272299	1.400525	0.571860
C38	C	-0.272308	1.400523	0.427979
C39	C	-0.015767	1.654437	0.355994
C40	C	0.069760	1.739074	0.427915
C41	C	0.069775	1.739071	0.571798
C42	C	-0.015736	1.654430	0.643760
H43	H	0.019601	1.129301	-0.000058
O44	O	-0.364552	1.309254	0.350392
H45	H	-0.424026	1.250412	0.424594
H46	H	-0.554742	1.674612	0.093626
H47	H	-0.553877	1.674254	-0.093666
H48	H	0.139388	1.807979	0.369315
H49	H	0.139423	1.807977	0.630354
O50	O	-0.780968	1.698239	-0.124618
H51	H	-0.850583	1.637921	-0.187196
O52	O	-0.661591	1.064473	-0.000084
H53	H	-0.716314	1.032653	-0.093245
O54	O	-0.015718	1.654432	0.798950
H55	H	-0.089546	1.581361	0.836902
O56	O	-0.425124	1.229617	-0.000049
H57	H	-0.525782	1.252131	-0.000039
H58	H	-0.624221	0.813149	-0.000135
H59	H	-0.815725	1.315744	-0.130259
O60	O	-0.410508	0.684940	-0.000148
H61	H	-0.459434	0.644391	-0.093324
O62	O	0.056975	0.877976	-0.000118
H63	H	0.040308	0.773522	-0.000158
O64	O	-0.364540	1.309251	0.649466
H65	H	-0.350177	1.323480	0.761598
H66	H	-0.796175	1.469049	0.228106
O67	O	-0.783118	1.697940	0.122649
H68	H	-0.853131	1.637174	0.184294
O69	O	-0.831590	1.286446	0.138420
H70	H	-0.757641	1.219034	0.142156
H71	H	-0.578847	1.461312	0.227577
O72	O	-0.591857	1.278873	0.136902
H73	H	-0.630298	1.228228	0.043928
H74	H	-0.800017	1.461739	-0.228338
H75	H	-0.580540	1.464367	-0.227679
H76	H	-0.597309	1.313522	-0.138991
H77	H	-0.015774	1.654450	0.238837
