data_functionalizedCrystal
_audit_creation_method	'MofGen! by Chris Wilmer'
_symmetry_space_group_name_H-M	'P1'
_symmetry_Int_Tables_number	1
_symmetry_cell_setting	triclinic
loop_
_symmetry_equiv_pos_as_xyz
  x,y,z
_cell_length_a	17.038272
_cell_length_b	17.038272
_cell_length_c	10.268362
_cell_angle_alpha	89.994496
_cell_angle_beta	90.001146
_cell_angle_gamma	91.111556
loop_
_atom_site_label
_atom_site_type_symbol
_atom_site_fract_x
_atom_site_fract_y
_atom_site_fract_z
O1	O	1.048755	0.170537	-0.108138
O2	O	1.548755	0.670537	0.391862
O3	O	0.820943	0.167829	-0.108177
O4	O	1.320943	0.667829	0.391823
O5	O	0.933495	0.055278	-0.108148
O6	O	1.433495	0.555278	0.391852
O7	O	0.936203	0.283089	-0.108168
O8	O	1.436203	0.783089	0.391832
O9	O	0.933484	0.055272	0.108453
O10	O	1.433484	0.555272	0.608453
O11	O	0.820932	0.167824	0.108424
O12	O	1.320932	0.667824	0.608424
O13	O	1.048744	0.170532	0.108462
O14	O	1.548744	0.670532	0.608462
Cu15	Cu	0.934837	0.169177	0.128220
Cu16	Cu	1.434837	0.669177	0.628220
Cu17	Cu	0.934850	0.169184	-0.127935
Cu18	Cu	1.434850	0.669184	0.372065
O19	O	0.936192	0.283084	0.108433
O20	O	1.436192	0.783084	0.608433
C21	C	0.791645	0.165364	0.000119
C22	C	1.291645	0.665364	0.500119
C23	C	0.704361	0.158016	0.000104
C24	C	1.204361	0.658016	0.500104
C25	C	0.658752	0.225479	0.000099
C26	C	1.158752	0.725479	0.500099
C27	C	0.576740	0.218570	0.000118
C28	C	1.076740	0.718570	0.500118
C29	C	0.540339	0.144197	0.000132
C30	C	1.040339	0.644197	0.500132
C31	C	0.585954	0.076728	0.000141
C32	C	1.085954	0.576728	0.500141
C33	C	0.667965	0.083638	0.000132
C34	C	1.167965	0.583638	0.500132
C35	C	0.292951	0.119787	0.000169
C36	C	0.792951	0.619787	0.500169
C37	C	0.210935	0.112882	0.000175
C38	C	0.710935	0.612882	0.500175
C39	C	0.201726	0.254725	0.000154
C40	C	0.701726	0.754725	0.500154
C41	C	0.283739	0.261628	0.000137
C42	C	0.783739	0.761628	0.500137
C43	C	0.329347	0.194159	0.000153
C44	C	0.829347	0.694159	0.500153
C45	C	0.456510	0.137133	0.000147
C46	C	0.956510	0.637133	0.500147
C47	C	0.413174	0.201224	0.000147
C48	C	0.913174	0.701224	0.500147
C49	C	0.931027	0.025982	0.000152
C50	C	1.431027	0.525982	0.500152
C51	C	0.923679	-0.061301	0.000151
C52	C	1.423679	0.438699	0.500151
C53	C	0.991142	-0.106911	0.000163
C54	C	1.491142	0.393089	0.500163
C55	C	0.984233	-0.188923	0.000150
C56	C	1.484233	0.311077	0.500150
C57	C	0.909860	-0.225324	0.000133
C58	C	1.409860	0.274676	0.500133
C59	C	0.842391	-0.179708	0.000116
C60	C	1.342391	0.320292	0.500116
C61	C	0.849301	-0.097698	0.000121
C62	C	1.349301	0.402302	0.500121
C63	C	0.885449	-0.472712	0.000111
C64	C	1.385449	0.027288	0.500111
C65	C	0.878545	-0.554728	0.000111
C66	C	1.378545	-0.054728	0.500111
C67	C	1.020387	-0.563937	0.000142
C68	C	1.520387	-0.063937	0.500142
C69	C	1.027291	-0.481924	0.000154
C70	C	1.527291	0.018076	0.500154
C71	C	0.959822	-0.436316	0.000130
C72	C	1.459822	0.063684	0.500130
C73	C	0.902796	-0.309153	0.000123
C74	C	1.402796	0.190847	0.500123
C75	C	0.966886	-0.352488	0.000131
C76	C	1.466886	0.147512	0.500131
C77	C	1.078042	0.172997	0.000164
C78	C	1.578042	0.672997	0.500164
C79	C	1.165326	0.180346	0.000170
C80	C	1.665326	0.680346	0.500170
C81	C	0.938660	0.312379	0.000130
C82	C	1.438660	0.812379	0.500130
C83	C	0.946008	0.399663	0.000123
C84	C	1.446008	0.899663	0.500123
N85	N	0.934834	0.169172	0.308386
N86	N	1.434834	0.669172	0.808386
N87	N	0.934859	0.169183	-0.308101
N88	N	1.434859	0.669183	0.191899
C89	C	0.934846	0.169182	0.574057
C90	C	1.434846	0.669182	1.074057
C91	C	0.934837	0.169179	0.426219
C92	C	1.434837	0.669179	0.926219
H93	H	0.705099	0.028702	0.000135
H94	H	1.205099	0.528702	0.500135
C95	C	0.763281	-0.291820	0.000098
C96	C	1.263281	0.208180	0.500098
C97	C	0.821045	-0.349167	0.000106
C98	C	1.321045	0.150833	0.500106
H99	H	0.712813	-0.316527	0.000075
H100	H	1.212813	0.183473	0.500075
H101	H	0.768917	-0.260035	0.075633
H102	H	1.268917	0.239965	0.575633
H103	H	0.768934	-0.260014	-0.075434
H104	H	1.268934	0.239986	0.424566
H105	H	0.815396	-0.380970	0.075644
H106	H	1.315396	0.119030	0.575644
H107	H	0.815407	-0.380966	-0.075437
H108	H	1.315407	0.119034	0.424563
H109	H	0.830511	-0.435587	0.000092
H110	H	1.330511	0.064413	0.500092
C111	C	0.124048	0.022827	0.111544
C112	C	0.624048	0.522827	0.611544
C113	C	0.170922	0.031124	0.000199
C114	C	0.670922	0.531124	0.500199
H115	H	0.099343	-0.027642	0.111551
H116	H	0.599343	0.472358	0.611551
H117	H	0.155852	0.028468	0.187062
H118	H	0.655852	0.528468	0.687062
H119	H	0.085151	0.062023	0.111520
H120	H	0.585151	0.562023	0.611520
H121	H	0.209823	-0.008068	0.000228
H122	H	0.709823	0.491932	0.500228
H123	H	0.139115	0.025475	-0.075338
H124	H	0.639115	0.525475	0.424662
H125	H	0.330076	0.064848	0.000183
H126	H	0.830076	0.564848	0.500183
H127	H	1.051705	-0.077279	0.000185
H128	H	1.551705	0.422721	0.500185
C129	C	1.139163	-0.597022	-0.111186
C130	C	1.639163	-0.097022	0.388814
C131	C	1.094547	-0.614069	0.000152
C132	C	1.594547	-0.114069	0.500152
H133	H	1.184950	-0.627969	-0.111177
H134	H	1.684950	-0.127969	0.388823
H135	H	1.108893	-0.608569	-0.186709
H136	H	1.608893	-0.108569	0.313291
H137	H	1.153914	-0.542968	-0.111166
H138	H	1.653914	-0.042968	0.388834
H139	H	1.079791	-0.668122	0.000127
H140	H	1.579791	-0.168122	0.500127
H141	H	1.124822	-0.602528	0.075694
H142	H	1.624822	-0.102528	0.575694
H143	H	0.794365	-0.060564	0.000110
H144	H	1.294365	0.439436	0.500110
H145	H	0.313370	0.322190	0.000110
H146	H	0.813370	0.822190	0.500110
H147	H	0.539608	0.273507	0.000112
H148	H	1.039608	0.773507	0.500112
H149	H	0.556310	0.016172	0.000171
H150	H	1.056310	0.516172	0.500171
C151	C	0.104146	0.329243	-0.111187
C152	C	0.604146	0.829243	0.388813
C153	C	0.151590	0.328882	0.000151
C154	C	0.651590	0.828882	0.500151
H155	H	0.073192	0.375025	-0.111178
H156	H	0.573192	0.875025	0.388822
H157	H	0.136327	0.328997	-0.186710
H158	H	0.636327	0.828997	0.313290
H159	H	0.070734	0.283957	-0.111165
H160	H	0.570734	0.783957	0.388835
H161	H	0.185006	0.374165	0.000125
H162	H	0.685006	0.874165	0.500125
H163	H	0.119406	0.329135	0.075693
H164	H	0.619406	0.829135	0.575693
H165	H	0.781835	-0.209353	0.000094
H166	H	1.281835	0.290647	0.500094
H167	H	0.442816	0.261778	0.000143
H168	H	0.942816	0.761778	0.500143
C169	C	0.788471	-0.641612	0.111438
C170	C	1.288471	-0.141612	0.611438
C171	C	0.796785	-0.594738	0.000089
C172	C	1.296785	-0.094738	0.500089
H173	H	0.737997	-0.666306	0.111428
H174	H	1.237997	-0.166306	0.611428
H175	H	0.827656	-0.680509	0.111442
H176	H	1.327656	-0.180509	0.611442
H177	H	0.794109	-0.609803	0.186961
H178	H	1.294109	-0.109803	0.686961
H179	H	0.791153	-0.626547	-0.075435
H180	H	1.291153	-0.126547	0.424565
H181	H	0.757589	-0.555835	0.000073
H182	H	1.257589	-0.055835	0.500073
H183	H	1.027441	-0.322847	0.000116
H184	H	1.527441	0.177153	0.500116
H185	H	0.426863	0.076578	0.000196
H186	H	0.926863	0.576578	0.500196
C187	C	1.125130	-0.189787	0.000211
C188	C	1.625130	0.310213	0.500211
C189	C	1.058392	-0.239056	0.000179
C190	C	1.558392	0.260944	0.500179
H191	H	1.170913	-0.220739	0.000238
H192	H	1.670913	0.279261	0.500238
H193	H	1.124885	-0.157605	-0.075317
H194	H	1.624885	0.342395	0.424683
H195	H	1.124858	-0.157612	0.075751
H196	H	1.624858	0.342388	0.575751
H197	H	1.058661	-0.271228	-0.075366
H198	H	1.558661	0.228772	0.424634
H199	H	1.058638	-0.271252	0.075715
H200	H	1.558638	0.228748	0.575715
H201	H	0.688384	0.286042	0.000087
H202	H	1.188384	0.786042	0.500087
C203	C	1.117356	-0.395034	-0.111177
C204	C	1.617356	0.104966	0.388823
C205	C	1.109045	-0.441917	0.000164
C206	C	1.609045	0.058083	0.500164
H207	H	1.167827	-0.370334	-0.111160
H208	H	1.667827	0.129666	0.388840
H209	H	1.111718	-0.426831	-0.186698
H210	H	1.611718	0.073169	0.313302
H211	H	1.078163	-0.356134	-0.111167
H212	H	1.578163	0.143866	0.388833
H213	H	1.148235	-0.480821	0.000149
H214	H	1.648235	0.019179	0.500149
H215	H	1.114691	-0.410118	0.075704
H216	H	1.614691	0.089882	0.575704
