data_functionalizedCrystal
_audit_creation_method	'MofGen! by Chris Wilmer'
_symmetry_space_group_name_H-M	'P1'
_symmetry_Int_Tables_number	1
_symmetry_cell_setting	triclinic
loop_
_symmetry_equiv_pos_as_xyz
  x,y,z
_cell_length_a	27.732048
_cell_length_b	27.732064
_cell_length_c	9.482900
_cell_angle_alpha	99.261060
_cell_angle_beta	80.794297
_cell_angle_gamma	82.646039
loop_
_atom_site_label
_atom_site_type_symbol
_atom_site_fract_x
_atom_site_fract_y
_atom_site_fract_z
O1	O	0.648508	0.049904	-0.120695
O2	O	1.148508	0.549904	0.379305
O3	O	0.507718	0.058647	-0.120737
O4	O	1.007718	0.558647	0.379263
O5	O	0.582482	-0.016121	-0.120721
O6	O	1.082482	0.483879	0.379279
O7	O	0.573744	0.124672	-0.120712
O8	O	1.073744	0.624672	0.379288
O9	O	0.567295	-0.000873	0.121068
O10	O	1.067295	0.499127	0.621068
O11	O	0.492531	0.073894	0.121052
O12	O	0.992531	0.573894	0.621052
O13	O	0.633321	0.065152	0.121094
O14	O	1.133321	0.565152	0.621094
Cu15	Cu	0.561540	0.070915	0.143150
Cu16	Cu	1.061540	0.570915	0.643150
Cu17	Cu	0.579500	0.052883	-0.142794
Cu18	Cu	1.079500	0.552883	0.357206
O19	O	0.558558	0.139920	0.121077
O20	O	1.058558	0.639920	0.621077
C21	C	0.482118	0.066087	0.000152
C22	C	0.982118	0.566087	0.500152
C23	C	0.428464	0.065533	0.000135
C24	C	0.928464	0.565533	0.500135
C25	C	0.574704	-0.026504	0.000169
C26	C	1.074704	0.473496	0.500169
C27	C	0.574149	-0.080159	0.000156
C28	C	1.074149	0.419841	0.500156
C29	C	0.526183	-0.457233	0.000136
C30	C	1.026183	0.042767	0.500136
C31	C	0.528229	-0.255573	0.000134
C32	C	1.028229	0.244427	0.500134
O33	O	0.491013	-0.224325	0.000065
O34	O	0.991013	0.275675	0.500065
N35	N	0.572563	-0.236445	0.000147
N36	N	1.072563	0.263555	0.500147
C37	C	0.616389	-0.267736	0.000151
C38	C	1.116389	0.232264	0.500151
O39	O	0.654145	-0.246840	0.000147
O40	O	1.154145	0.253160	0.500147
C41	C	0.614342	-0.469396	0.000142
C42	C	1.114342	0.030604	0.500142
C43	C	0.570005	-0.488520	0.000144
C44	C	1.070005	0.011480	0.500144
C45	C	0.481850	-0.476358	0.000136
C46	C	0.981850	0.023642	0.500136
C47	C	0.481338	-0.526770	0.000144
C48	C	0.981338	-0.026770	0.500144
C49	C	0.525160	-0.558057	0.000152
C50	C	1.025160	-0.058057	0.500152
C51	C	0.569494	-0.538932	0.000152
C52	C	1.069494	-0.038932	0.500152
C53	C	0.658168	-0.500686	0.000136
C54	C	1.158168	-0.000686	0.500136
C55	C	0.657653	-0.551104	0.000130
C56	C	1.157653	-0.051104	0.500130
C57	C	0.613316	-0.570228	0.000131
C58	C	1.113316	-0.070228	0.500131
C59	C	0.612804	-0.620630	0.000168
C60	C	1.112804	-0.120630	0.500168
N61	N	0.568470	-0.639758	0.000155
N62	N	1.068470	-0.139758	0.500155
C63	C	0.524648	-0.608472	0.000147
C64	C	1.024648	-0.108472	0.500147
C65	C	0.617459	-0.161861	0.000159
C66	C	1.117459	0.338139	0.500159
C67	C	0.617971	-0.111446	0.000164
C68	C	1.117971	0.388554	0.500164
C69	C	0.529812	-0.099287	0.000144
C70	C	1.029812	0.400713	0.500144
C71	C	0.529300	-0.149702	0.000150
C72	C	1.029300	0.350298	0.500150
C73	C	0.573126	-0.180989	0.000146
C74	C	1.073126	0.319011	0.500146
C75	C	0.523577	-0.714340	0.000166
C76	C	1.023577	-0.214340	0.500166
C77	C	0.523069	-0.764756	0.000180
C78	C	1.023069	-0.264756	0.500180
C79	C	0.611228	-0.776911	0.000192
C80	C	1.111228	-0.276911	0.500192
C81	C	0.611736	-0.726499	0.000185
C82	C	1.111736	-0.226499	0.500185
C83	C	0.567907	-0.695214	0.000167
C84	C	1.067907	-0.195214	0.500167
O85	O	0.650002	-0.651907	0.000221
O86	O	1.150002	-0.151907	0.500221
O87	O	0.486900	-0.629379	0.000119
O88	O	0.986900	-0.129379	0.500119
C89	C	0.526695	-0.406822	0.000127
C90	C	1.026695	0.093178	0.500127
C91	C	0.571028	-0.387697	0.000127
C92	C	1.071028	0.112303	0.500127
C93	C	0.614850	-0.418983	0.000135
C94	C	1.114850	0.081017	0.500135
C95	C	0.571540	-0.337282	0.000132
C96	C	1.071540	0.162718	0.500132
C97	C	0.527718	-0.305995	0.000124
C98	C	1.027718	0.194005	0.500124
C99	C	0.483384	-0.325124	0.000111
C100	C	0.983384	0.174876	0.500111
C101	C	0.482873	-0.375535	0.000119
C102	C	0.982873	0.124465	0.500119
C103	C	0.659184	-0.399855	0.000149
C104	C	1.159184	0.100145	0.500149
C105	C	0.659692	-0.349443	0.000142
C106	C	1.159692	0.150557	0.500142
C107	C	0.615870	-0.318156	0.000134
C108	C	1.115870	0.181844	0.500134
C109	C	0.089647	0.106241	0.000200
C110	C	0.589647	0.606241	0.500200
C111	C	-0.112013	0.104190	0.000213
C112	C	0.387987	0.604190	0.500213
O113	O	-0.143271	0.141415	0.000279
O114	O	0.356729	0.641415	0.500279
N115	N	-0.131139	0.059855	0.000208
N116	N	0.368861	0.559855	0.500208
C117	C	-0.099847	0.016030	0.000209
C118	C	0.400153	0.516030	0.500209
O119	O	-0.120743	-0.021726	0.000220
O120	O	0.379257	0.478274	0.500220
C121	C	0.101812	0.018081	0.000207
C122	C	0.601812	0.518081	0.500207
C123	C	0.120936	0.062418	0.000197
C124	C	0.620936	0.562418	0.500197
C125	C	0.108772	0.150574	0.000193
C126	C	0.608772	0.650574	0.500193
C127	C	0.159184	0.151086	0.000182
C128	C	0.659184	0.651086	0.500182
C129	C	0.190473	0.107264	0.000178
C130	C	0.690473	0.607264	0.500178
C131	C	0.171348	0.062930	0.000186
C132	C	0.671348	0.562930	0.500186
C133	C	0.133102	-0.025743	0.000218
C134	C	0.633102	0.474257	0.500218
C135	C	0.183519	-0.025226	0.000221
C136	C	0.683519	0.474774	0.500221
C137	C	0.202643	0.019111	0.000212
C138	C	0.702643	0.519111	0.500212
C139	C	0.253049	0.019620	0.000171
C140	C	0.753049	0.519620	0.500171
N141	N	0.272175	0.063955	0.000177
N142	N	0.772175	0.563955	0.500177
C143	C	0.240887	0.107777	0.000180
C144	C	0.740887	0.607777	0.500180
C145	C	-0.205721	0.014956	0.000207
C146	C	0.294279	0.514956	0.500207
C147	C	-0.256136	0.014443	0.000205
C148	C	0.243864	0.514443	0.500205
C149	C	-0.268298	0.102604	0.000212
C150	C	0.231702	0.602604	0.500212
C151	C	-0.217882	0.103116	0.000204
C152	C	0.282118	0.603116	0.500204
C153	C	-0.186595	0.059291	0.000213
C154	C	0.313405	0.559291	0.500213
C155	C	0.346758	0.108848	0.000156
C156	C	0.846758	0.608848	0.500156
C157	C	0.397176	0.109355	0.000138
C158	C	0.897176	0.609355	0.500138
C159	C	0.409334	0.021195	0.000139
C160	C	0.909334	0.521195	0.500139
C161	C	0.358920	0.020687	0.000148
C162	C	0.858920	0.520687	0.500148
C163	C	0.327633	0.064518	0.000162
C164	C	0.827633	0.564518	0.500162
O165	O	0.284334	-0.017584	0.000123
O166	O	0.784334	0.482416	0.500123
O167	O	0.261790	0.145529	0.000202
O168	O	0.761790	0.645529	0.500202
C169	C	0.039235	0.105729	0.000212
C170	C	0.539235	0.605729	0.500212
C171	C	0.020110	0.061395	0.000219
C172	C	0.520110	0.561395	0.500219
C173	C	0.051399	0.017573	0.000216
C174	C	0.551399	0.517573	0.500216
C175	C	-0.030304	0.060882	0.000217
C176	C	0.469696	0.560882	0.500217
C177	C	-0.061592	0.104704	0.000221
C178	C	0.438408	0.604704	0.500221
C179	C	-0.042466	0.149039	0.000226
C180	C	0.457534	0.649039	0.500226
C181	C	0.007946	0.149551	0.000215
C182	C	0.507946	0.649551	0.500215
C183	C	0.032272	-0.026762	0.000211
C184	C	0.532272	0.473238	0.500211
C185	C	-0.018141	-0.027270	0.000220
C186	C	0.481859	0.472730	0.500220
C187	C	-0.049429	0.016552	0.000224
C188	C	0.450571	0.516552	0.500224
C189	C	0.658922	0.057712	0.000202
C190	C	1.158922	0.557712	0.500202
C191	C	0.712576	0.058265	0.000209
C192	C	1.212576	0.558265	0.500209
C193	C	0.566335	0.150303	0.000184
C194	C	1.066335	0.650303	0.500184
C195	C	0.566891	0.203957	0.000188
C196	C	1.066891	0.703957	0.500188
N197	N	0.548911	0.083598	0.344267
N198	N	1.048911	0.583598	0.844267
N199	N	0.592132	0.040197	-0.343911
N200	N	1.092132	0.540197	0.156089
C201	C	0.575771	0.056622	0.416473
C202	C	1.075771	0.556622	0.916473
C203	C	0.565268	0.067177	0.583888
C204	C	1.065268	0.567177	1.083888
H205	H	0.486963	-0.780324	0.000188
H206	H	0.986963	-0.280324	0.500188
C207	C	0.666741	-0.090414	0.000176
C208	C	1.166741	0.409586	0.500176
H209	H	0.692765	-0.116272	0.000166
H210	H	1.192765	0.383728	0.500166
H211	H	0.663482	-0.065682	0.084492
H212	H	1.163482	0.434318	0.584492
H213	H	0.674069	-0.076320	-0.084153
H214	H	1.174069	0.423680	0.415847
H215	H	-0.202316	0.139219	0.000205
H216	H	0.297684	0.639219	0.500205
C217	C	-0.277167	-0.034328	0.000190
C218	C	0.222833	0.465672	0.500190
H219	H	-0.311673	-0.028363	0.000176
H220	H	0.188327	0.471637	0.500176
H221	H	-0.271698	-0.047039	0.084503
H222	H	0.228302	0.452961	0.584503
H223	H	-0.261110	-0.057670	-0.084142
H224	H	0.238890	0.442330	0.415858
H225	H	0.117540	-0.061847	0.000227
H226	H	0.617540	0.438153	0.500227
H227	H	0.622905	0.009283	0.593971
H228	H	1.122905	0.509283	1.093971
C229	C	0.507332	0.125349	0.428172
C230	C	1.007332	0.625349	0.928172
H231	H	0.491838	0.140900	0.361161
H232	H	0.991838	0.640900	0.861161
H233	H	0.520918	0.149023	0.487561
H234	H	1.020918	0.649023	0.987561
H235	H	0.483581	0.111874	0.487538
H236	H	0.983581	0.611874	0.987538
H237	H	-0.033705	-0.063378	0.000216
H238	H	0.466295	0.436622	0.500216
C239	C	0.434103	-0.396567	0.000104
C240	C	0.934103	0.103433	0.500104
H241	H	0.408082	-0.370709	0.000085
H242	H	0.908082	0.129291	0.500085
H243	H	0.426770	-0.410663	0.084418
H244	H	0.926770	0.089337	0.584418
H245	H	0.437365	-0.421297	-0.084227
H246	H	0.937365	0.078703	0.415773
H247	H	0.083301	0.186262	0.000201
H248	H	0.583301	0.686262	0.500201
C249	C	0.523695	0.108937	0.667793
C250	C	1.023695	0.608937	1.167793
H251	H	0.522091	0.110556	0.769307
H252	H	1.022091	0.610556	1.269307
H253	H	0.493001	0.102444	0.642929
H254	H	0.993001	0.602444	1.142929
H255	H	0.530353	0.139578	0.642922
H256	H	1.030353	0.639578	1.142922
C257	C	0.475366	-0.679933	0.000157
C258	C	0.975366	-0.179933	0.500157
H259	H	0.448892	-0.698549	0.000172
H260	H	0.948892	-0.198549	0.500172
H261	H	0.479021	-0.665331	-0.084159
H262	H	0.979021	-0.165331	0.415841
H263	H	0.468437	-0.654696	0.084486
H264	H	0.968437	-0.154696	0.584486
C265	C	0.432568	-0.547802	0.000125
C266	C	0.932568	-0.047802	0.500125
H267	H	0.406547	-0.521944	0.000104
H268	H	0.906547	-0.021944	0.500104
H269	H	0.425235	-0.561899	0.084437
H270	H	0.925235	-0.061899	0.584437
H271	H	0.435832	-0.572532	-0.084208
H272	H	0.935832	-0.072532	0.415792
C273	C	0.418212	0.158126	0.000128
C274	C	0.918212	0.658126	0.500128
H275	H	0.452719	0.152157	0.000106
H276	H	0.952719	0.652157	0.500106
H277	H	0.402159	0.181472	0.084445
H278	H	0.902159	0.681472	0.584445
H279	H	0.412741	0.170833	-0.084200
H280	H	0.912741	0.670833	0.415800
C281	C	0.665670	-0.196270	0.000174
C282	C	1.165670	0.303730	0.500174
H283	H	0.692142	-0.177651	0.000199
H284	H	1.192142	0.322349	0.500199
H285	H	0.672605	-0.221508	-0.084140
H286	H	1.172605	0.278492	0.415860
H287	H	0.662007	-0.210869	0.084505
H288	H	1.162007	0.289131	0.584505
H289	H	0.446163	-0.450890	0.000124
H290	H	0.946163	0.049110	0.500124
H291	H	0.321289	0.144539	0.000171
H292	H	0.821289	0.644539	0.500171
C293	C	0.480531	-0.170736	0.000130
C294	C	0.980531	0.329264	0.500130
H295	H	0.454509	-0.144879	0.000116
H296	H	0.954509	0.355121	0.500116
H297	H	0.473200	-0.184836	0.084439
H298	H	0.973200	0.315164	0.584439
H299	H	0.483795	-0.195465	-0.084206
H300	H	0.983795	0.304535	0.415794
C301	C	0.028975	0.198323	0.000219
C302	C	0.528975	0.698323	0.500219
H303	H	0.003115	0.224346	0.000236
H304	H	0.503115	0.724346	0.500236
H305	H	0.053682	0.195044	-0.084096
H306	H	0.553682	0.695044	0.415904
H307	H	0.043094	0.205675	0.084549
H308	H	0.543094	0.705675	0.584549
H309	H	0.606542	0.025710	0.354351
H310	H	1.106542	0.525710	0.854351
C311	C	0.481610	-0.064867	0.000115
C312	C	0.981610	0.435133	0.500115
H313	H	0.488270	-0.032105	0.000103
H314	H	0.988270	0.467895	0.500103
H315	H	0.458113	-0.065308	0.084416
H316	H	0.958113	0.434692	0.584416
H317	H	0.468718	-0.075950	-0.084229
H318	H	0.968718	0.424050	0.415771
H319	H	0.174750	0.187189	0.000173
H320	H	0.674750	0.687189	0.500173
H321	H	0.694272	-0.485125	0.000133
H322	H	1.194272	0.014875	0.500133
H323	H	0.693343	-0.576577	0.000119
H324	H	1.193343	-0.076577	0.500119
C325	C	0.660505	-0.705460	0.000201
C326	C	1.160505	-0.205460	0.500201
H327	H	0.686530	-0.731315	0.000204
H328	H	1.186530	-0.231315	0.500204
H329	H	0.657243	-0.680725	0.084510
H330	H	1.157243	-0.180725	0.584510
H331	H	0.667833	-0.691369	-0.084135
H332	H	1.167833	-0.191369	0.415865
C333	C	-0.302720	0.150808	0.000223
C334	C	0.197280	0.650808	0.500223
H335	H	-0.284113	0.177290	0.000221
H336	H	0.215887	0.677290	0.500221
H337	H	-0.327932	0.157752	0.084541
H338	H	0.172068	0.657752	0.584541
H339	H	-0.317345	0.147123	-0.084104
H340	H	0.182655	0.647123	0.415896
C341	C	0.659429	-0.811333	0.000193
C342	C	1.159429	-0.311333	0.500193
H343	H	0.652772	-0.844096	0.000181
H344	H	1.152772	-0.344096	0.500181
H345	H	0.672335	-0.800256	0.084506
H346	H	1.172335	-0.300256	0.584506
H347	H	0.682917	-0.810889	-0.084139
H348	H	1.182917	-0.310889	0.415861
C349	C	-0.171310	-0.033255	0.000201
C350	C	0.328690	0.466745	0.500201
H351	H	-0.189925	-0.059730	0.000182
H352	H	0.310075	0.440270	0.500182
H353	H	-0.156682	-0.029577	0.084515
H354	H	0.343318	0.470423	0.584515
H355	H	-0.146098	-0.040206	-0.084130
H356	H	0.353902	0.459794	0.415870
C357	C	0.435182	-0.290703	0.000092
C358	C	0.935182	0.209297	0.500092
H359	H	0.441843	-0.257941	0.000075
H360	H	0.941843	0.242059	0.500075
H361	H	0.411687	-0.291143	0.084400
H362	H	0.911687	0.208857	0.584400
H363	H	0.422286	-0.301785	-0.084245
H364	H	0.922286	0.198215	0.415755
H365	H	0.695798	-0.333877	0.000152
H366	H	1.195798	0.166123	0.500152
H367	H	0.694870	-0.425325	0.000154
H368	H	1.194870	0.074675	0.500154
H369	H	0.208991	-0.060914	0.000229
H370	H	0.708991	0.439086	0.500229
C371	C	0.337884	-0.028083	0.000143
C372	C	0.837884	0.471917	0.500143
H373	H	0.363740	-0.054108	0.000143
H374	H	0.863740	0.445892	0.500143
H375	H	0.323758	-0.035433	-0.084164
H376	H	0.823758	0.464567	0.415836
H377	H	0.313181	-0.024797	0.084481
H378	H	0.813181	0.475203	0.584481
C379	C	0.443755	-0.027007	0.000128
C380	C	0.943755	0.472993	0.500128
H381	H	0.425149	-0.053488	0.000120
H382	H	0.925149	0.446512	0.500120
H383	H	0.458384	-0.023320	0.084440
H384	H	0.958384	0.476680	0.584440
H385	H	0.468966	-0.033955	-0.084205
H386	H	0.968966	0.466045	0.415795
H387	H	-0.067950	0.184721	0.000223
H388	H	0.432050	0.684721	0.500223
C389	C	0.066684	-0.074970	0.000195
C390	C	0.566684	0.425030	0.500195
H391	H	0.048069	-0.101445	0.000182
H392	H	0.548069	0.398555	0.500182
H393	H	0.081316	-0.071292	0.084503
H394	H	0.581316	0.428708	0.584503
H395	H	0.091893	-0.081920	-0.084142
H396	H	0.591893	0.418080	0.415858
