data_functionalizedCrystal
_audit_creation_method	'MofGen! by Chris Wilmer'
_symmetry_space_group_name_H-M	'P1'
_symmetry_Int_Tables_number	1
_symmetry_cell_setting	triclinic
loop_
_symmetry_equiv_pos_as_xyz
  x,y,z
_cell_length_a	17.077404
_cell_length_b	18.101395
_cell_length_c	17.077396
_cell_angle_alpha	89.970929
_cell_angle_beta	89.982940
_cell_angle_gamma	90.031329
loop_
_atom_site_label
_atom_site_type_symbol
_atom_site_fract_x
_atom_site_fract_y
_atom_site_fract_z
Zn1	Zn	1.199991	-0.294813	-0.443848
Zn2	Zn	1.533324	0.038520	-0.110515
Zn3	Zn	1.866658	0.371853	0.222818
Zn4	Zn	1.199885	-0.418666	-0.312585
Zn5	Zn	1.533218	-0.085332	0.020749
Zn6	Zn	1.866551	0.248001	0.354082
Zn7	Zn	1.068728	-0.294843	-0.312596
Zn8	Zn	1.402062	0.038490	0.020737
Zn9	Zn	1.735395	0.371824	0.354070
Zn10	Zn	1.068672	-0.418618	-0.443808
Zn11	Zn	1.402005	-0.085285	-0.110475
Zn12	Zn	1.735339	0.248049	0.222859
O13	O	1.134319	-0.356735	-0.378209
O14	O	1.467652	-0.023402	-0.044876
O15	O	1.800986	0.309932	0.288457
O16	O	1.309824	-0.311250	-0.426448
O17	O	1.643157	0.022083	-0.093114
O18	O	1.976490	0.355416	0.240219
O19	O	1.182466	-0.402272	-0.202739
O20	O	1.515799	-0.068939	0.130594
O21	O	1.849132	0.264394	0.463928
O22	O	1.086209	-0.191206	-0.330029
O23	O	1.419542	0.142127	0.003305
O24	O	1.752875	0.475461	0.336638
O25	O	1.309746	-0.402244	-0.330009
O26	O	1.643079	-0.068911	0.003324
O27	O	1.976412	0.264423	0.336658
O28	O	1.182647	-0.191184	-0.426459
O29	O	1.515980	0.142149	-0.093126
O30	O	1.849313	0.475482	0.240208
O31	O	1.086106	-0.311300	-0.202748
O32	O	1.419439	0.022033	0.130586
O33	O	1.752772	0.355366	0.463919
O34	O	0.958874	-0.311254	-0.329990
O35	O	1.292207	0.022079	0.003344
O36	O	1.625541	0.355412	0.336677
O37	O	1.086112	-0.402163	-0.553660
O38	O	1.419446	-0.068830	-0.220327
O39	O	1.752779	0.264504	0.113006
O40	O	0.958832	-0.402192	-0.426391
O41	O	1.292166	-0.068858	-0.093057
O42	O	1.625499	0.264475	0.240276
O43	O	1.182592	-0.311204	-0.553690
O44	O	1.515925	0.022129	-0.220357
O45	O	1.849259	0.355462	0.112977
O46	O	1.182411	-0.522292	-0.329970
O47	O	1.515744	-0.188959	0.003363
O48	O	1.849078	0.144374	0.336697
O49	O	1.086010	-0.522257	-0.426379
O50	O	1.419343	-0.188924	-0.093046
O51	O	1.752676	0.144409	0.240287
C52	C	0.930371	-0.356722	-0.378188
C53	C	1.263704	-0.023388	-0.044854
C54	C	1.597038	0.309945	0.288479
C55	C	0.843121	-0.356734	-0.378197
C56	C	1.176455	-0.023400	-0.044864
C57	C	1.509788	0.309933	0.288470
C58	C	0.802130	-0.404156	-0.428312
C59	C	1.135463	-0.070823	-0.094979
C60	C	1.468797	0.262511	0.238354
C61	C	0.720150	-0.404158	-0.428325
C62	C	1.053483	-0.070824	-0.094992
C63	C	1.386816	0.262509	0.238342
C64	C	0.679162	-0.356740	-0.378218
C65	C	1.012495	-0.023407	-0.044884
C66	C	1.345829	0.309927	0.288449
C67	C	0.720159	-0.309312	-0.328100
C68	C	1.053492	0.024021	0.005233
C69	C	1.386826	0.357354	0.338567
C70	C	0.802138	-0.309308	-0.328092
C71	C	1.135471	0.024026	0.005241
C72	C	1.468804	0.357359	0.338575
C73	C	0.549289	-0.309327	-0.328119
C74	C	0.882622	0.024006	0.005215
C75	C	1.215955	0.357340	0.338548
C76	C	0.467304	-0.309333	-0.328126
C77	C	0.800638	0.024001	0.005208
C78	C	1.133971	0.357334	0.338541
C79	C	0.467301	-0.404177	-0.428352
C80	C	0.800634	-0.070844	-0.095018
C81	C	1.133967	0.262490	0.238315
C82	C	0.549280	-0.404172	-0.428344
C83	C	0.882613	-0.070839	-0.095010
C84	C	1.215946	0.262494	0.238323
C85	C	0.590271	-0.356745	-0.378225
C86	C	0.923604	-0.023412	-0.044892
C87	C	1.256938	0.309921	0.288442
C88	C	1.134214	-0.549146	-0.378186
C89	C	1.467547	-0.215812	-0.044853
C90	C	1.800881	0.117521	0.288480
C91	C	1.134241	-0.631460	-0.378203
C92	C	1.467574	-0.298126	-0.044869
C93	C	1.800907	0.035207	0.288464
C94	C	1.134413	-0.930551	-0.378245
C95	C	1.467746	-0.597217	-0.044912
C96	C	1.801080	-0.263884	0.288422
C97	C	1.073900	-0.899234	-0.439054
C98	C	1.407234	-0.565901	-0.105720
C99	C	1.740567	-0.232568	0.227613
C100	C	1.073613	-0.813616	-0.438863
C101	C	1.406946	-0.480283	-0.105530
C102	C	1.740280	-0.146950	0.227803
C103	C	1.134328	-0.782168	-0.378225
C104	C	1.467661	-0.448835	-0.044891
C105	C	1.800994	-0.115501	0.288442
C106	C	1.111934	-0.813322	-0.295495
C107	C	1.445267	-0.479989	0.037838
C108	C	1.778601	-0.146655	0.371172
C109	C	1.111544	-0.898967	-0.295859
C110	C	1.444877	-0.565634	0.037474
C111	C	1.778211	-0.232300	0.370808
C112	C	1.217452	-0.898893	-0.399437
C113	C	1.550785	-0.565560	-0.066104
C114	C	1.884118	-0.232227	0.267229
C115	C	1.216963	-0.813242	-0.401252
C116	C	1.550297	-0.479909	-0.067918
C117	C	1.883630	-0.146576	0.265415
C118	C	1.134281	-0.698309	-0.378208
C119	C	1.467614	-0.364975	-0.044875
C120	C	1.800947	-0.031642	0.288459
C121	C	1.134458	-1.014410	-0.378256
C122	C	1.467791	-0.681077	-0.044923
C123	C	1.801125	-0.347743	0.288411
C124	C	1.339063	-0.356749	-0.378231
C125	C	1.672397	-0.023416	-0.044898
C126	C	2.005730	0.309918	0.288435
C127	C	1.426313	-0.356755	-0.378241
C128	C	1.759646	-0.023422	-0.044908
C129	C	2.092980	0.309912	0.288426
C130	C	1.134358	-0.356675	-0.582954
C131	C	1.467691	-0.023342	-0.249620
C132	C	1.801024	0.309992	0.083713
C133	C	1.134374	-0.356650	-0.670203
C134	C	1.467708	-0.023316	-0.336870
C135	C	1.801041	0.310017	-0.003537
C136	C	1.134446	-0.163573	-0.378250
C137	C	1.467779	0.169760	-0.044916
C138	C	1.801112	0.503094	0.288417
C139	C	1.134500	-0.081259	-0.378267
C140	C	1.467833	0.252074	-0.044933
C141	C	1.801166	0.585408	0.288400
C142	C	1.184620	-0.403932	-1.046016
C143	C	1.517954	-0.070599	-0.712683
C144	C	1.851287	0.262734	-0.379349
C145	C	1.184600	-0.403954	-0.964036
C146	C	1.517934	-0.070621	-0.630702
C147	C	1.851267	0.262713	-0.297369
C148	C	1.134425	-0.356597	-0.923053
C149	C	1.467758	-0.023264	-0.589719
C150	C	1.801091	0.310069	-0.256386
C151	C	1.084260	-0.309221	-0.964054
C152	C	1.417593	0.024112	-0.630721
C153	C	1.750927	0.357446	-0.297388
C154	C	1.084277	-0.309204	-1.046033
C155	C	1.417610	0.024130	-0.712700
C156	C	1.750943	0.357463	-0.379367
C157	C	1.084231	-0.309259	-0.793184
C158	C	1.417564	0.024074	-0.459851
C159	C	1.750897	0.357407	-0.126518
C160	C	1.084215	-0.309275	-0.711200
C161	C	1.417548	0.024058	-0.377866
C162	C	1.750882	0.357391	-0.044533
C163	C	1.184555	-0.404010	-0.711186
C164	C	1.517888	-0.070676	-0.377853
C165	C	1.851221	0.262657	-0.044520
C166	C	1.184571	-0.403992	-0.793165
C167	C	1.517904	-0.070659	-0.459832
C168	C	1.851238	0.262674	-0.126499
C169	C	1.134407	-0.356615	-0.834161
C170	C	1.467741	-0.023281	-0.500828
C171	C	1.801074	0.310052	-0.167495
C172	C	1.134326	-0.356741	-0.174261
C173	C	1.467659	-0.023408	0.159072
C174	C	1.800992	0.309925	0.492405
C175	C	1.134461	-0.356558	-0.087012
C176	C	1.467794	-0.023225	0.246321
C177	C	1.801128	0.310108	0.579655
H178	H	0.835512	-0.270688	-0.287287
H179	H	1.168845	0.062646	0.046046
H180	H	1.502178	0.395979	0.379380
Cl181	Cl	0.668621	-0.463777	-0.491330
Cl182	Cl	1.001955	-0.130444	-0.157997
Cl183	Cl	1.335288	0.202889	0.175336
H184	H	1.225436	-0.442540	-0.930660
H185	H	1.558769	-0.109206	-0.597327
H186	H	1.892102	0.224127	-0.263994
H187	H	0.582661	-0.270700	-0.287314
H188	H	0.915995	0.062633	0.046020
H189	H	1.249328	0.395966	0.379353
H190	H	1.043433	-0.270626	-1.079411
H191	H	1.376766	0.062707	-0.746078
H192	H	1.710099	0.396041	-0.412745
Cl193	Cl	1.095239	-0.781089	-0.533573
Cl194	Cl	1.428573	-0.447755	-0.200240
Cl195	Cl	1.761906	-0.114422	0.133093
Cl196	Cl	1.247707	-0.463466	-1.097529
Cl197	Cl	1.581040	-0.130133	-0.764196
Cl198	Cl	1.914373	0.203201	-0.430863
Cl199	Cl	1.177839	-0.781876	-0.223633
Cl200	Cl	1.511172	-0.448543	0.109700
Cl201	Cl	1.844505	-0.115209	0.443034
H202	H	0.433922	-0.442792	-0.469163
H203	H	0.767255	-0.109458	-0.135829
H204	H	1.100588	0.223875	0.197504
H205	H	1.225432	-0.442551	-0.826532
H206	H	1.558766	-0.109217	-0.493198
H207	H	1.892099	0.224116	-0.159865
H208	H	1.225400	-0.442586	-0.677803
H209	H	1.558733	-0.109252	-0.344470
H210	H	1.892067	0.224081	-0.011137
H211	H	1.264433	-0.791831	-0.360190
H212	H	1.597766	-0.458497	-0.026857
H213	H	1.931100	-0.125164	0.306477
H214	H	1.051876	-0.791938	-0.277221
H215	H	1.385210	-0.458605	0.056112
H216	H	1.718543	-0.125271	0.389446
Cl217	Cl	1.095310	-0.930958	-0.534073
Cl218	Cl	1.428643	-0.597625	-0.200739
Cl219	Cl	1.761977	-0.264291	0.132594
H220	H	1.262536	-0.919144	-0.355148
H221	H	1.595869	-0.585811	-0.021815
H222	H	1.929202	-0.252478	0.311519
Cl223	Cl	1.021134	-0.249743	-0.659679
Cl224	Cl	1.354467	0.083591	-0.326346
Cl225	Cl	1.687800	0.416924	0.006988
H226	H	0.835496	-0.442772	-0.469113
H227	H	1.168830	-0.109438	-0.135780
H228	H	1.502163	0.223895	0.197554
Cl229	Cl	1.021192	-0.249676	-0.912533
Cl230	Cl	1.354526	0.083657	-0.579199
Cl231	Cl	1.687859	0.416990	-0.245866
Cl232	Cl	1.243039	-0.781801	-0.495253
Cl233	Cl	1.576373	-0.448468	-0.161919
Cl234	Cl	1.909706	-0.115135	0.171414
H235	H	1.012063	-0.793194	-0.424826
H236	H	1.345396	-0.459860	-0.091492
H237	H	1.678729	-0.126527	0.241841
H238	H	0.582650	-0.442788	-0.469141
H239	H	0.915983	-0.109455	-0.135808
H240	H	1.249316	0.223879	0.197525
H241	H	1.237869	-0.920440	-0.458736
H242	H	1.571202	-0.587106	-0.125402
H243	H	1.904535	-0.253773	0.207931
H244	H	1.012724	-0.920821	-0.425192
H245	H	1.346058	-0.587488	-0.091859
H246	H	1.679391	-0.254155	0.241474
Cl247	Cl	0.668631	-0.249696	-0.265112
Cl248	Cl	1.001965	0.083637	0.068221
Cl249	Cl	1.335298	0.416970	0.401554
Cl250	Cl	0.415778	-0.249724	-0.265129
Cl251	Cl	0.749111	0.083609	0.068204
Cl252	Cl	1.082444	0.416942	0.401538
Cl253	Cl	1.017827	-0.929916	-0.268144
Cl254	Cl	1.351160	-0.596583	0.065190
Cl255	Cl	1.684494	-0.263250	0.398523
H256	H	1.043382	-0.270680	-0.826561
H257	H	1.376715	0.062654	-0.493227
H258	H	1.710048	0.395987	-0.159894
Cl259	Cl	1.176630	-0.930959	-0.223517
Cl260	Cl	1.509963	-0.597625	0.109816
Cl261	Cl	1.843296	-0.264292	0.443149
