data_functionalizedCrystal
_audit_creation_method	'MofGen! by Chris Wilmer'
_symmetry_space_group_name_H-M	'P1'
_symmetry_Int_Tables_number	1
_symmetry_cell_setting	triclinic
loop_
_symmetry_equiv_pos_as_xyz
  x,y,z
_cell_length_a	10.723023
_cell_length_b	12.376457
_cell_length_c	10.723024
_cell_angle_alpha	78.613680
_cell_angle_beta	84.467709
_cell_angle_gamma	101.401370
loop_
_atom_site_label
_atom_site_type_symbol
_atom_site_fract_x
_atom_site_fract_y
_atom_site_fract_z
O1	O	1.680913	0.093991	0.151312
O2	O	1.317761	0.093995	0.168065
O3	O	1.507713	0.093988	-0.021887
O4	O	1.490961	0.093997	0.341264
O5	O	1.460241	-0.094022	0.025536
O6	O	1.270290	-0.094015	0.215488
O7	O	1.633441	-0.094020	0.198735
Zn8	Zn	1.444329	-0.123868	0.214641
Zn9	Zn	1.506874	0.123843	0.152159
O10	O	1.443490	-0.094013	0.388686
C11	C	1.247526	-0.000010	0.190557
C12	C	1.108972	-0.000008	0.186910
N13	N	1.401652	-0.292925	0.257282
C14	C	0.928596	0.097387	0.156948
C15	C	1.071800	0.097388	0.160717
C16	C	1.648626	-0.647919	0.010499
C17	C	1.678489	-0.529580	-0.019346
C18	C	1.609282	-0.470410	0.049808
C19	C	1.510208	-0.529591	0.148813
C20	C	1.480349	-0.647942	0.178668
C21	C	1.441005	-0.470434	0.217977
C22	C	1.341931	-0.529614	0.316982
C23	C	1.312077	-0.647953	0.346831
C24	C	1.381283	-0.707123	0.277677
C25	C	1.470863	-0.352083	0.188122
C26	C	1.302586	-0.352106	0.356291
C27	C	1.272724	-0.470445	0.386136
C28	C	1.703677	-0.000013	0.176242
C29	C	1.842233	-0.000007	0.179888
C30	C	1.482758	-0.000015	-0.044675
C31	C	1.479111	-0.000011	-0.183230
N32	N	1.549561	0.292900	0.109508
C33	C	1.585399	-0.000011	-0.258213
C34	C	1.581633	-0.000007	-0.401418
C35	C	1.468445	-0.000007	0.411474
C36	C	1.472094	-0.000004	0.550028
H37	H	0.896519	0.180769	0.134509
O38	O	1.160381	0.196796	0.137483
C39	C	1.223987	0.202856	0.245842
H40	H	1.216487	0.113851	0.304773
H41	H	1.329489	0.246124	0.213078
H42	H	1.177421	0.253493	0.307297
O43	O	0.880313	-0.099560	0.206828
C44	C	0.819660	-0.161932	0.329631
H45	H	0.728024	-0.132901	0.355792
H46	H	0.794635	-0.255696	0.328902
H47	H	0.887272	-0.147638	0.403499
H48	H	1.034802	-0.083395	0.206551
H49	H	1.381096	-0.000012	-0.385545
O50	O	1.235443	-0.294467	0.423313
C51	C	1.283060	-0.177324	0.375755
H52	H	1.332929	-0.161161	0.272886
H53	H	1.200025	-0.132358	0.377436
H54	H	1.354728	-0.143729	0.438484
O55	O	1.566942	-0.294692	0.091763
C56	C	1.538261	-0.323703	-0.024610
H57	H	1.430128	-0.356223	-0.017879
H58	H	1.571722	-0.245914	-0.106787
H59	H	1.589739	-0.392427	-0.043265
H60	H	1.759154	-0.481399	-0.099953
H61	H	1.385328	-0.000003	-0.225055
O62	O	1.638410	-0.355457	0.020611
C63	C	1.740713	-0.315910	-0.081581
H64	H	1.744649	-0.384111	-0.138513
H65	H	1.725147	-0.236748	-0.147345
H66	H	1.835066	-0.294890	-0.041520
H67	H	1.704972	-0.696102	-0.045791
H68	H	1.679183	-0.000019	-0.216390
O69	O	1.690174	-0.000205	-0.478174
C70	C	1.735569	-0.097563	-0.430339
H71	H	1.652933	-0.165623	-0.369176
H72	H	1.776462	-0.130244	-0.514069
H73	H	1.814016	-0.075549	-0.369094
O74	O	1.352069	-0.822081	0.306797
C75	C	1.249814	-0.861632	0.409036
H76	H	1.192872	-0.793441	0.412930
H77	H	1.184071	-0.940808	0.393429
H78	H	1.289811	-0.882629	0.503420
H79	H	1.231415	-0.696139	0.427455
H80	H	1.192056	-0.518645	0.466748
