data_functionalizedCrystal
_audit_creation_method	'MofGen! by Chris Wilmer'
_symmetry_space_group_name_H-M	'P1'
_symmetry_Int_Tables_number	1
_symmetry_cell_setting	triclinic
loop_
_symmetry_equiv_pos_as_xyz
  x,y,z
_cell_length_a	15.944493
_cell_length_b	15.944493
_cell_length_c	10.065875
_cell_angle_alpha	98.793649
_cell_angle_beta	81.254849
_cell_angle_gamma	83.475044
loop_
_atom_site_label
_atom_site_type_symbol
_atom_site_fract_x
_atom_site_fract_y
_atom_site_fract_z
O1	O	1.126820	0.095758	-0.113459
O2	O	1.460154	0.429091	0.219874
O3	O	1.793487	0.762425	0.553208
O4	O	0.882262	0.109165	-0.113463
O5	O	1.215595	0.442498	0.219870
O6	O	1.548928	0.775832	0.553203
O7	O	1.011246	-0.019819	-0.113472
O8	O	1.344579	0.313514	0.219861
O9	O	1.677913	0.646847	0.553194
O10	O	0.997836	0.224742	-0.113450
O11	O	1.331169	0.558075	0.219883
O12	O	1.664503	0.891409	0.553217
O13	O	0.986650	0.004875	0.113518
O14	O	1.319984	0.338208	0.446851
O15	O	1.653317	0.671542	0.780185
O16	O	0.857666	0.133859	0.113527
O17	O	1.190999	0.467192	0.446860
O18	O	1.524333	0.800526	0.780194
O19	O	1.102225	0.120452	0.113531
O20	O	1.435558	0.453785	0.446865
O21	O	1.768891	0.787119	0.780198
Zn22	Zn	0.976040	0.131076	0.149569
Zn23	Zn	1.309374	0.464410	0.482902
Zn24	Zn	1.642707	0.797743	0.816235
Zn25	Zn	1.008446	0.098541	-0.149501
Zn26	Zn	1.341779	0.431874	0.183832
Zn27	Zn	1.675113	0.765207	0.517166
O28	O	0.973240	0.249436	0.113540
O29	O	1.306574	0.582770	0.446874
O30	O	1.639907	0.916103	0.780207
C31	C	0.838669	0.120964	0.000031
C32	C	1.172003	0.454297	0.333364
C33	C	1.505336	0.787631	0.666698
C34	C	0.745421	0.119321	0.000028
C35	C	1.078755	0.452654	0.333362
C36	C	1.412088	0.785987	0.666695
C37	C	0.509645	0.195244	0.000034
C38	C	0.842978	0.528577	0.333368
C39	C	1.176312	0.861911	0.666701
C40	C	0.446968	0.166478	0.111955
C41	C	0.780301	0.499811	0.445288
C42	C	1.113635	0.833144	0.778621
C43	C	0.574701	0.116277	0.000031
C44	C	0.908034	0.449610	0.333364
C45	C	1.241367	0.782943	0.666697
C46	C	0.471222	0.142112	-0.111840
C47	C	0.804555	0.475446	0.221493
C48	C	1.137889	0.808779	0.554826
C49	C	0.409792	0.113342	0.000027
C50	C	0.743125	0.446675	0.333360
C51	C	1.076459	0.780009	0.666694
C52	C	0.513242	0.087542	0.112043
C53	C	0.846575	0.420875	0.445377
C54	C	1.179909	0.754209	0.778710
C55	C	0.537510	0.063177	-0.111852
C56	C	0.870843	0.396511	0.221481
C57	C	1.204177	0.729844	0.554815
C58	C	0.474863	0.034356	0.000096
C59	C	0.808196	0.367689	0.333429
C60	C	1.141530	0.701023	0.666762
C61	C	0.669700	0.117970	0.000034
C62	C	1.003033	0.451303	0.333367
C63	C	1.336367	0.784637	0.666701
C64	C	0.314795	0.111643	0.000033
C65	C	0.648128	0.444977	0.333367
C66	C	0.981461	0.778310	0.666700
C67	C	0.998401	-0.038768	0.000017
C68	C	1.331734	0.294566	0.333350
C69	C	1.665067	0.627899	0.666684
C70	C	0.996760	-0.132018	-0.000000
C71	C	1.330093	0.201316	0.333333
C72	C	1.663426	0.534649	0.666666
C73	C	1.072679	-0.367790	0.000027
C74	C	1.406013	-0.034457	0.333360
C75	C	1.739346	0.298876	0.666693
C76	C	1.043864	-0.430526	-0.111891
C77	C	1.377197	-0.097192	0.221442
C78	C	1.710531	0.236141	0.554775
C79	C	0.993714	-0.302736	0.000016
C80	C	1.327047	0.030597	0.333350
C81	C	1.660380	0.363930	0.666683
C82	C	1.019596	-0.406155	0.111903
C83	C	1.352930	-0.072822	0.445237
C84	C	1.686263	0.260512	0.778570
C85	C	0.990777	-0.467643	0.000038
C86	C	1.324110	-0.134310	0.333372
C87	C	1.657444	0.199024	0.666705
C88	C	0.964930	-0.364253	-0.111994
C89	C	1.298263	-0.030920	0.221339
C90	C	1.631597	0.302413	0.554672
C91	C	0.940663	-0.339868	0.111901
C92	C	1.273996	-0.006535	0.445234
C93	C	1.607330	0.326798	0.778568
C94	C	0.911793	-0.402574	-0.000045
C95	C	1.245126	-0.069240	0.333289
C96	C	1.578459	0.264093	0.666622
C97	C	0.995408	-0.207738	0.000002
C98	C	1.328742	0.125595	0.333336
C99	C	1.662075	0.458928	0.666669
C100	C	0.989077	-0.562639	0.000042
C101	C	1.322411	-0.229306	0.333376
C102	C	1.655744	0.104027	0.666709
C103	C	1.145817	0.108653	0.000034
C104	C	1.479151	0.441986	0.333367
C105	C	1.812484	0.775319	0.666701
C106	C	1.239066	0.110295	0.000028
C107	C	1.572400	0.443628	0.333361
C108	C	1.905733	0.776962	0.666694
C109	C	0.986086	0.268384	0.000048
C110	C	1.319419	0.601718	0.333381
C111	C	1.652753	0.935051	0.666715
C112	C	0.987728	0.361633	0.000056
C113	C	1.321061	0.694967	0.333390
C114	C	1.654395	1.028300	0.666723
N115	N	0.953930	0.153281	0.353676
N116	N	1.287264	0.486614	0.687009
N117	N	1.620597	0.819947	1.020343
N118	N	1.030563	0.076330	-0.353608
N119	N	1.363896	0.409663	-0.020275
N120	N	1.697229	0.742996	0.313059
C121	C	1.000748	0.106261	0.421452
C122	C	1.334081	0.439594	0.754785
C123	C	1.667415	0.772928	1.088118
C124	C	0.983738	0.123356	0.578620
C125	C	1.317072	0.456690	0.911953
C126	C	1.650405	0.790023	1.245287
H127	H	0.525242	0.263277	0.000145
H128	H	0.858576	0.596611	0.333478
H129	H	1.191909	0.929944	0.666812
H130	H	0.843727	-0.418032	-0.000107
H131	H	1.177060	-0.084699	0.333226
H132	H	1.510393	0.248634	0.666560
H133	H	0.901252	0.206189	0.412006
H134	H	1.234585	0.539523	0.745339
H135	H	1.567919	0.872856	1.078672
H136	H	1.140711	-0.352188	-0.000085
H137	H	1.474044	-0.018855	0.333249
H138	H	1.807378	0.314478	0.666582
H139	H	0.941864	-0.345731	-0.206714
H140	H	1.275197	-0.012398	0.126620
H141	H	1.608530	0.320936	0.459953
H142	H	0.576717	0.019559	-0.206482
H143	H	0.910050	0.352892	0.126851
H144	H	1.243383	0.686226	0.460185
H145	H	0.897090	-0.300607	0.206523
H146	H	1.230423	0.032726	0.539856
H147	H	1.563757	0.366060	0.873190
H148	H	1.042710	-0.424800	0.206515
H149	H	1.376043	-0.091467	0.539849
H150	H	1.709377	0.241866	0.873182
H151	H	1.053421	0.053346	0.363124
H152	H	1.386754	0.386679	0.696457
H153	H	1.720087	0.720012	1.029790
H154	H	0.931056	0.176268	0.636945
H155	H	1.264390	0.509602	0.970278
H156	H	1.597723	0.842935	1.303611
H157	H	1.083238	0.023411	0.588067
H158	H	1.416572	0.356745	0.921401
H159	H	1.749905	0.690078	1.254734
H160	H	0.407771	0.210121	0.206579
H161	H	0.741104	0.543454	0.539913
H162	H	1.074437	0.876787	0.873246
H163	H	1.087465	-0.469772	-0.206510
H164	H	1.420799	-0.136438	0.126823
H165	H	1.754132	0.196895	0.460157
H166	H	0.531814	0.064517	0.206757
H167	H	0.865147	0.397850	0.540090
H168	H	1.198481	0.731184	0.873424
H169	H	0.459405	-0.033710	0.000154
H170	H	0.792738	0.299623	0.333487
H171	H	1.126072	0.632956	0.666820
H172	H	0.452528	0.165185	-0.206447
H173	H	0.785861	0.498518	0.126886
H174	H	1.119194	0.831852	0.460220
