data_functionalizedCrystal
_audit_creation_method	'MofGen! by Chris Wilmer'
_symmetry_space_group_name_H-M	'P1'
_symmetry_Int_Tables_number	1
_symmetry_cell_setting	triclinic
loop_
_symmetry_equiv_pos_as_xyz
  x,y,z
_cell_length_a	19.121102
_cell_length_b	19.121063
_cell_length_c	19.076919
_cell_angle_alpha	94.606347
_cell_angle_beta	89.940198
_cell_angle_gamma	90.126902
loop_
_atom_site_label
_atom_site_type_symbol
_atom_site_fract_x
_atom_site_fract_y
_atom_site_fract_z
Zn1	Zn	1.040759	-0.342423	-0.457002
Zn2	Zn	1.040381	-0.455333	-0.344111
Zn3	Zn	0.928655	-0.332726	-0.334121
Zn4	Zn	0.918504	-0.454595	-0.456531
O5	O	0.982075	-0.396269	-0.397941
O6	O	1.138631	-0.361768	-0.446405
O7	O	1.029650	-0.435320	-0.244312
O8	O	0.947932	-0.235756	-0.346437
O9	O	1.138354	-0.444723	-0.363465
O10	O	1.030295	-0.242880	-0.436718
O11	O	0.947566	-0.345241	-0.236972
O12	O	0.829386	-0.344525	-0.345981
O13	O	0.930631	-0.443464	-0.555068
O14	O	0.821928	-0.434062	-0.435915
O15	O	1.020452	-0.361052	-0.555414
O16	O	1.019808	-0.553492	-0.363008
O17	O	0.930265	-0.552949	-0.445603
C18	C	0.800267	-0.388161	-0.389813
C19	C	0.722488	-0.384710	-0.386353
C20	C	0.682082	-0.429771	-0.431484
C21	C	0.609000	-0.426519	-0.428236
C22	C	0.576325	-0.378210	-0.379853
C23	C	0.616736	-0.333144	-0.334721
C24	C	0.689817	-0.336393	-0.337973
C25	C	0.355862	-0.366062	-0.367699
C26	C	0.282776	-0.362818	-0.364449
C27	C	0.275045	-0.456192	-0.457965
C28	C	0.348128	-0.459440	-0.461210
C29	C	0.388532	-0.414372	-0.416080
C30	C	0.501624	-0.374886	-0.376531
C31	C	0.463232	-0.417692	-0.419406
C32	C	0.973912	-0.578699	-0.405354
C33	C	0.970483	-0.656746	-0.408552
C34	C	1.015525	-0.693676	-0.367091
C35	C	1.012304	-0.767010	-0.370103
C36	C	0.964037	-0.803414	-0.414572
C37	C	0.918993	-0.766480	-0.456038
C38	C	0.922218	-0.693147	-0.453030
C39	C	0.951969	-1.024819	-0.425809
C40	C	0.948746	-1.098157	-0.428813
C41	C	1.042059	-1.098682	-0.342877
C42	C	1.045276	-1.025348	-0.339870
C43	C	1.000235	-0.988420	-0.381339
C44	C	0.960742	-0.878373	-0.417650
C45	C	1.003534	-0.913462	-0.378264
C46	C	1.164593	-0.404409	-0.406102
C47	C	1.242371	-0.407878	-0.409579
C48	C	0.974452	-0.403258	-0.581488
C49	C	0.971203	-0.406235	-0.659705
C50	C	0.990288	-0.213129	-0.390516
C51	C	0.993788	-0.135086	-0.387351
C52	C	1.016439	-0.364729	-0.696633
C53	C	1.013378	-0.367524	-0.770125
C54	C	0.965084	-0.411830	-0.806689
C55	C	0.919843	-0.453338	-0.769756
C56	C	0.922901	-0.450539	-0.696265
C57	C	0.950921	-0.424799	-1.026465
C58	C	0.947868	-0.427597	-1.099962
C59	C	1.041402	-0.341781	-1.100326
C60	C	1.044459	-0.338989	-1.026834
C61	C	0.999216	-0.380494	-0.989907
N62	N	0.961956	-0.414689	-0.881811
N63	N	1.002341	-0.377630	-0.914787
C64	C	0.989711	-0.389259	-0.215108
C65	C	0.993104	-0.386090	-0.136890
H66	H	0.708680	-0.469112	-0.470880
O67	O	0.584963	-0.286310	-0.287653
C68	C	0.542773	-0.322599	-0.241886
H69	H	0.562509	-0.378703	-0.240670
H70	H	0.486379	-0.323421	-0.261277
C71	C	0.521967	-0.216436	-0.168834
C72	C	0.546211	-0.285342	-0.167336
H73	H	0.524084	-0.193453	-0.122848
H74	H	0.550389	-0.191986	-0.199669
H75	H	0.474974	-0.217130	-0.184996
H76	H	0.593206	-0.284647	-0.151183
H77	H	0.517797	-0.309791	-0.136497
H78	H	1.078730	-1.128756	-0.309117
H79	H	0.374726	-0.498780	-0.500607
H80	H	0.879695	-0.796126	-0.492250
H81	H	0.909449	-1.127795	-0.465038
H82	H	0.914090	-0.458606	-0.996409
O83	O	0.235868	-0.499933	-0.501908
C84	C	0.251499	-0.488142	-0.572242
H85	H	0.305706	-0.463572	-0.575005
H86	H	0.211001	-0.451151	-0.592704
C87	C	0.183473	-0.588602	-0.614306
C88	C	0.250054	-0.558429	-0.617699
H89	H	0.182579	-0.631957	-0.642347
H90	H	0.172940	-0.596545	-0.566920
H91	H	0.149733	-0.557769	-0.631356
H92	H	0.283792	-0.589258	-0.600641
H93	H	0.260593	-0.550494	-0.665083
H94	H	0.915293	-0.994758	-0.459573
O95	O	1.085246	-0.301382	-1.136221
C96	C	1.045670	-0.255886	-1.175122
H97	H	0.991673	-0.248251	-1.150331
H98	H	1.039971	-0.279608	-1.231592
C99	C	1.149401	-0.193838	-1.205268
C100	C	1.083082	-0.184455	-1.174816
H101	H	1.172479	-0.149777	-1.205083
H102	H	1.176064	-0.224491	-1.179062
H103	H	1.144642	-0.213608	-1.252324
H104	H	1.087842	-0.164694	-1.127759
H105	H	1.056420	-0.153797	-1.201014
O106	O	0.900888	-0.470652	-1.135371
C107	C	0.861622	-0.506699	-1.087021
H108	H	0.862664	-0.475836	-1.033359
H109	H	0.885178	-0.560872	-1.082511
C110	C	0.784223	-0.552492	-1.178694
C111	C	0.785498	-0.514583	-1.112788
H112	H	0.737266	-0.557359	-1.194589
H113	H	0.810678	-0.528209	-1.211269
H114	H	0.803856	-0.597633	-1.174928
H115	H	0.765873	-0.469442	-1.116557
H116	H	0.759037	-0.538859	-1.080214
H117	H	0.885540	-0.663080	-0.486793
O118	O	0.569855	-0.470371	-0.472098
C119	C	0.614365	-0.513701	-0.515503
H120	H	0.667546	-0.517296	-0.489091
H121	H	0.621069	-0.490466	-0.568302
C122	C	0.516775	-0.583149	-0.559713
C123	C	0.582090	-0.587569	-0.527270
H124	H	0.496866	-0.628713	-0.566975
H125	H	0.486786	-0.553955	-0.530472
H126	H	0.522371	-0.563784	-0.603709
H127	H	0.576493	-0.606926	-0.483272
H128	H	0.612077	-0.616768	-0.556504
H129	H	1.054827	-0.664040	-0.330875
H130	H	0.256175	-0.323470	-0.325054
H131	H	0.388751	-0.329369	-0.330946
H132	H	0.880519	-0.489410	-0.799532
O133	O	0.469920	-0.327863	-0.329601
C134	C	0.490283	-0.259292	-0.343035
H135	H	0.508206	-0.258868	-0.400011
H136	H	0.535084	-0.241333	-0.306474
C137	C	0.405784	-0.209741	-0.260150
C138	C	0.427791	-0.209219	-0.330132
H139	H	0.367238	-0.178853	-0.252188
H140	H	0.392066	-0.255939	-0.251098
H141	H	0.443124	-0.194777	-0.229691
H142	H	0.390455	-0.224192	-0.360589
H143	H	0.441501	-0.163023	-0.339189
H144	H	1.083787	-0.302912	-0.997069
H145	H	1.042835	-0.883820	-0.342059
O146	O	0.728965	-0.292595	-0.294057
C147	C	0.684456	-0.249249	-0.250665
H148	H	0.631178	-0.275594	-0.247034
H149	H	0.677999	-0.196600	-0.274009
C150	C	0.781967	-0.205076	-0.181099
C151	C	0.716531	-0.237436	-0.176634
H152	H	0.801753	-0.197785	-0.135434
H153	H	0.811954	-0.234277	-0.210334
H154	H	0.776577	-0.161205	-0.200555
H155	H	0.721923	-0.281309	-0.157187
H156	H	0.686545	-0.208241	-0.147394
O157	O	0.913944	-0.913821	-0.460884
C158	C	0.949998	-0.959678	-0.509895
H159	H	1.003599	-0.972041	-0.487944
H160	H	0.956713	-0.933717	-0.561235
C161	C	0.842068	-1.012953	-0.550693
C162	C	0.907900	-1.028143	-0.523730
H163	H	0.816099	-1.055185	-0.559230
H164	H	0.817777	-0.982057	-0.517676
H165	H	0.847674	-0.991318	-0.593474
H166	H	0.902293	-1.049770	-0.480946
H167	H	0.932188	-1.059045	-0.556741
H168	H	1.055768	-0.328652	-0.666868
H169	H	1.050216	-0.333726	-0.800189
H170	H	0.489839	-0.457023	-0.458802
H171	H	1.048982	-0.797074	-0.336340
O172	O	1.092232	-0.990098	-0.296663
C173	C	1.131288	-1.038418	-0.260702
H174	H	1.130189	-1.091884	-0.291775
H175	H	1.107587	-1.043084	-0.206411
C176	C	1.208802	-0.947008	-0.214617
C177	C	1.207457	-1.012674	-0.252785
H178	H	1.255786	-0.931127	-0.209730
H179	H	1.182488	-0.914453	-0.238842
H180	H	1.189048	-0.950904	-0.169379
H181	H	1.227203	-1.008774	-0.298025
H182	H	1.233777	-1.045228	-0.228567
H183	H	0.886058	-0.484331	-0.666199
