data_functionalizedCrystal
_audit_creation_method	'MofGen! by Chris Wilmer'
_symmetry_space_group_name_H-M	'P1'
_symmetry_Int_Tables_number	1
_symmetry_cell_setting	triclinic
loop_
_symmetry_equiv_pos_as_xyz
  x,y,z
_cell_length_a	14.853567
_cell_length_b	14.853566
_cell_length_c	9.130307
_cell_angle_alpha	90.001136
_cell_angle_beta	90.001476
_cell_angle_gamma	83.634672
loop_
_atom_site_label
_atom_site_type_symbol
_atom_site_fract_x
_atom_site_fract_y
_atom_site_fract_z
O1	O	0.117700	1.196365	0.121690
O2	O	0.617700	1.696365	0.621690
O3	O	0.131722	0.933905	0.121713
O4	O	0.631722	1.433905	0.621713
O5	O	-0.006519	1.072146	0.121705
O6	O	0.493481	1.572146	0.621705
O7	O	0.255941	1.058124	0.121697
O8	O	0.755941	1.558124	0.621697
O9	O	-0.006525	1.072135	-0.121894
O10	O	0.493475	1.572135	0.378106
O11	O	0.131716	0.933895	-0.121886
O12	O	0.631716	1.433895	0.378114
O13	O	0.117694	1.196354	-0.121909
O14	O	0.617694	1.696354	0.378091
Cu15	Cu	0.124704	1.065123	-0.144140
Cu16	Cu	0.624704	1.565123	0.355860
Cu17	Cu	0.124711	1.065136	0.143944
Cu18	Cu	0.624711	1.565136	0.643944
O19	O	0.255935	1.058114	-0.121902
O20	O	0.755935	1.558114	0.378098
C21	C	0.131084	0.900311	-0.000084
C22	C	0.631084	1.400311	0.499916
C23	C	0.129181	0.800227	-0.000075
C24	C	0.629181	1.300227	0.499925
C25	C	-0.040111	1.071505	-0.000090
C26	C	0.459889	1.571505	0.499910
C27	C	-0.140194	1.069601	-0.000077
C28	C	0.359806	1.569601	0.499923
C29	C	0.121133	0.377048	0.132686
C30	C	0.621133	0.877048	0.632686
C31	C	0.121127	0.377058	-0.132895
C32	C	0.621127	0.877058	0.367105
C33	C	0.122915	0.471092	-0.132891
C34	C	0.622915	0.971092	0.367109
C35	C	0.123813	0.518108	-0.000096
C36	C	0.623813	1.018108	0.499904
C37	C	0.122923	0.471091	0.132694
C38	C	0.622923	0.971091	0.632694
C39	C	0.123813	0.518116	-0.265679
C40	C	0.623813	1.018116	0.234321
C41	C	0.125602	0.612156	-0.265680
C42	C	0.625602	1.112156	0.234320
C43	C	0.126494	0.659174	-0.132883
C44	C	0.626494	1.159174	0.367117
C45	C	0.125603	0.612151	-0.000088
C46	C	0.625603	1.112151	0.499912
C47	C	0.126501	0.659167	0.132707
C48	C	0.626501	1.159167	0.632707
C49	C	0.125604	0.612146	0.265505
C50	C	0.625604	1.112146	0.765505
C51	C	0.123815	0.518109	0.265491
C52	C	0.623815	1.018109	0.765491
C53	C	0.128283	0.753211	-0.132869
C54	C	0.628283	1.253211	0.367131
C55	C	0.128291	0.753210	0.132716
C56	C	0.628291	1.253210	0.632716
C57	C	-0.552728	0.979435	-0.000097
C58	C	-0.052728	1.479435	0.499903
C59	C	-0.574009	1.143668	-0.000111
C60	C	-0.074009	1.643668	0.499889
C61	C	-0.479976	1.145458	-0.000103
C62	C	0.020024	1.645458	0.499897
C63	C	-0.422313	1.064236	-0.000094
C64	C	0.077687	1.564236	0.499906
C65	C	-0.458685	0.981223	-0.000093
C66	C	0.041315	1.481223	0.499907
C67	C	-0.443597	1.228470	-0.000118
C68	C	0.056403	1.728470	0.499882
C69	C	-0.349558	1.230263	-0.000112
C70	C	0.150442	1.730263	0.499888
C71	C	-0.291894	1.149040	-0.000092
C72	C	0.208106	1.649040	0.499908
C73	C	-0.328271	1.066023	-0.000090
C74	C	0.171729	1.566023	0.499910
C75	C	-0.270608	0.984801	-0.000081
C76	C	0.229392	1.484801	0.499919
C77	C	-0.306984	0.901784	-0.000068
C78	C	0.193016	1.401784	0.499932
C79	C	-0.401021	0.899999	-0.000074
C80	C	0.098979	1.399999	0.499926
C81	C	-0.197856	1.150824	-0.000086
C82	C	0.302144	1.650824	0.499914
C83	C	-0.176566	0.986588	-0.000077
C84	C	0.323434	1.486588	0.499923
C85	C	0.289526	1.058754	-0.000103
C86	C	0.789526	1.558754	0.499897
C87	C	0.389610	1.060658	-0.000106
C88	C	0.889610	1.560658	0.499894
C89	C	0.118332	1.229948	-0.000109
C90	C	0.618332	1.729948	0.499891
C91	C	0.120235	1.330032	-0.000109
C92	C	0.620235	1.830032	0.499891
N93	N	0.124699	1.065121	-0.346763
N94	N	0.624699	1.565121	0.153237
C95	C	0.015129	0.955646	-0.346809
C96	C	0.515129	1.455646	0.153191
C97	C	-0.039657	0.900918	-0.423499
C98	C	0.460343	1.400918	0.076501
C99	C	-0.039658	0.900931	-0.576833
C100	C	0.460342	1.400931	-0.076833
C101	C	0.015137	0.955676	-0.653480
C102	C	0.515137	1.455676	-0.153480
C103	C	0.069923	1.010404	-0.576790
C104	C	0.569923	1.510404	-0.076790
C105	C	0.069916	1.010387	-0.423453
C106	C	0.569916	1.510387	0.076547
C107	C	0.179496	1.119873	-0.576744
C108	C	0.679496	1.619873	-0.076744
C109	C	0.179493	1.119866	-0.423410
C110	C	0.679493	1.619866	0.076590
C111	C	0.234291	1.174618	-0.653391
C112	C	0.734291	1.674618	-0.153391
C113	C	0.289074	1.229352	-0.576701
C114	C	0.789074	1.729352	-0.076701
C115	C	0.289071	1.229337	-0.423358
C116	C	0.789071	1.729337	0.076642
C117	C	0.234280	1.174594	-0.346720
C118	C	0.734280	1.674594	0.153280
N119	N	0.124710	1.065145	0.346567
N120	N	0.624710	1.565145	0.846567
H121	H	0.129020	0.791484	0.240855
H122	H	0.629020	1.291484	0.740855
H123	H	0.234270	1.174580	-0.221868
H124	H	0.734270	1.674580	0.278132
H125	H	0.126342	0.650438	0.373626
H126	H	0.626342	1.150438	0.873626
H127	H	-0.490552	1.294597	-0.000139
H128	H	0.009448	1.794597	0.499861
H129	H	-0.260023	0.835653	-0.000071
H130	H	0.239977	1.335653	0.499929
H131	H	-0.084265	0.856363	-0.639273
H132	H	0.415735	1.356363	-0.139273
H133	H	0.123084	0.479817	0.373607
H134	H	0.623084	0.979817	0.873607
H135	H	-0.129622	0.920446	-0.000063
H136	H	0.370378	1.420446	0.499937
H137	H	0.015140	0.955673	-0.778332
H138	H	0.515140	1.455673	-0.278332
H139	H	-0.582349	0.911845	-0.000081
H140	H	-0.082349	1.411845	0.499919
H141	H	0.120399	0.338760	0.240806
H142	H	0.620399	0.838760	0.740806
H143	H	0.120403	0.338771	-0.241011
H144	H	0.620403	0.838771	0.258989
H145	H	-0.319950	1.297861	-0.000120
H146	H	0.180050	1.797861	0.499880
H147	H	-0.430646	0.832411	-0.000065
H148	H	0.069354	1.332411	0.499935
H149	H	0.123088	0.479828	-0.373793
H150	H	0.623088	0.979828	0.126207
H151	H	-0.168244	1.218415	-0.000106
H152	H	0.331756	1.718415	0.499894
H153	H	0.126330	0.650432	-0.373811
H154	H	0.626330	1.150432	0.126189
H155	H	0.333691	1.273899	-0.360926
H156	H	0.833691	1.773899	0.139074
H157	H	0.129022	0.791490	-0.240991
H158	H	0.629022	1.291490	0.259009
H159	H	0.234291	1.174620	-0.778243
H160	H	0.734291	1.674620	-0.278243
H161	H	0.333688	1.273916	-0.639119
H162	H	0.833688	1.773916	-0.139119
H163	H	-0.084268	0.856345	-0.361076
H164	H	0.415732	1.356345	0.138924
H165	H	0.015118	0.955637	-0.221957
H166	H	0.515118	1.455637	0.278043
H167	H	-0.620963	1.209796	-0.000130
H168	H	-0.120963	1.709796	0.499870
