data_functionalizedCrystal
_audit_creation_method	'MofGen! by Chris Wilmer'
_symmetry_space_group_name_H-M	'P1'
_symmetry_Int_Tables_number	1
_symmetry_cell_setting	triclinic
loop_
_symmetry_equiv_pos_as_xyz
  x,y,z
_cell_length_a	19.077236
_cell_length_b	12.759394
_cell_length_c	19.076919
_cell_angle_alpha	92.275853
_cell_angle_beta	89.887323
_cell_angle_gamma	92.306804
loop_
_atom_site_label
_atom_site_type_symbol
_atom_site_fract_x
_atom_site_fract_y
_atom_site_fract_z
Zn1	Zn	1.058338	-0.381376	-0.440561
Zn2	Zn	1.062998	-0.549744	-0.323063
Zn3	Zn	0.945553	-0.380825	-0.318341
Zn4	Zn	0.940819	-0.563761	-0.435801
O5	O	1.001927	-0.468927	-0.379441
O6	O	1.157289	-0.398075	-0.428942
O7	O	1.051351	-0.521241	-0.224105
O8	O	0.960545	-0.233876	-0.334569
O9	O	1.160713	-0.521775	-0.342617
O10	O	1.043407	-0.234281	-0.424364
O11	O	0.965064	-0.397136	-0.220636
O12	O	0.846592	-0.410727	-0.329954
O13	O	0.952477	-0.545664	-0.534764
O14	O	0.843114	-0.545129	-0.416252
O15	O	1.038817	-0.411666	-0.538261
O16	O	1.046760	-0.698626	-0.338002
O17	O	0.956996	-0.708924	-0.420831
C18	C	0.819357	-0.479390	-0.372075
C19	C	0.741252	-0.483893	-0.368940
C20	C	0.702773	-0.421716	-0.412481
C21	C	0.629385	-0.425941	-0.409529
C22	C	0.594477	-0.492350	-0.363040
C23	C	0.632961	-0.554530	-0.319494
C24	C	0.706348	-0.550298	-0.322443
C25	C	0.375186	-0.511895	-0.349392
C26	C	0.301794	-0.516124	-0.346448
C27	C	0.298223	-0.387533	-0.436482
C28	C	0.371611	-0.383312	-0.439430
C29	C	0.410089	-0.445488	-0.395882
N30	N	0.519463	-0.496673	-0.360024
N31	N	0.485102	-0.441159	-0.398895
C32	C	1.001889	-0.741896	-0.379428
C33	C	1.001936	-0.858671	-0.379449
C34	C	1.088150	-0.858942	-0.473016
C35	C	1.131279	-0.913938	-0.519806
C36	C	1.131320	-1.023658	-0.519823
C37	C	1.088226	-1.078385	-0.473046
C38	C	1.045097	-1.023390	-0.426256
C39	C	1.045062	-0.913667	-0.426243
C40	C	0.958880	-1.023119	-0.332693
C41	C	0.958841	-0.913398	-0.332672
C42	C	0.915786	-1.077846	-0.285916
C43	C	0.872659	-1.022850	-0.239122
C44	C	0.872620	-0.913123	-0.239106
C45	C	0.915712	-0.858403	-0.285882
C46	C	1.185211	-0.458423	-0.386837
C47	C	1.263315	-0.453947	-0.389989
C48	C	0.994599	-0.480290	-0.562721
C49	C	0.991476	-0.485132	-0.640824
C50	C	1.001985	-0.194892	-0.379471
C51	C	1.002009	-0.078114	-0.379483
C52	C	1.034960	-0.417645	-0.679339
C53	C	1.032017	-0.422191	-0.752724
C54	C	0.985594	-0.494231	-0.787594
C55	C	0.942106	-0.561721	-0.749075
C56	C	0.945045	-0.557169	-0.675690
C57	C	0.971978	-0.515321	-1.006875
C58	C	0.969043	-0.519871	-1.080265
C59	C	1.058954	-0.380339	-1.083909
C60	C	1.061892	-0.375798	-1.010524
C61	C	1.018402	-0.443284	-0.972010
N62	N	0.982586	-0.498882	-0.862606
N63	N	1.021406	-0.438627	-0.896999
C64	C	1.009267	-0.457530	-0.196876
C65	C	1.012526	-0.452383	-0.118779
H66	H	0.273374	-0.570208	-0.308590
H67	H	1.166365	-0.869369	-0.557893
N68	N	0.892031	-0.639428	-0.786671
H69	H	0.842341	-0.625188	-0.771869
H70	H	0.896821	-0.632047	-0.838996
N71	N	0.740421	-0.350098	-0.462629
H72	H	0.728090	-0.275068	-0.451291
H73	H	0.792738	-0.356946	-0.457869
N74	N	0.826189	-1.081877	-0.188672
H75	H	0.798863	-1.030391	-0.159024
H76	H	0.792521	-1.131060	-0.215946
H77	H	0.598058	-0.375312	-0.444986
N78	N	0.747848	-0.617365	-0.275480
H79	H	0.777161	-0.666130	-0.305201
H80	H	0.779550	-0.570747	-0.244195
N81	N	1.177827	-1.082983	-0.570296
H82	H	1.205118	-1.031670	-0.599930
H83	H	1.211526	-1.124847	-0.543040
N84	N	0.409245	-0.311651	-0.489561
H85	H	0.440823	-0.259376	-0.462274
H86	H	0.438362	-0.354731	-0.523299
N87	N	0.925083	-0.588100	-0.965325
H88	H	0.893752	-0.545366	-0.933571
H89	H	0.895268	-0.634424	-0.998585
N90	N	0.826103	-0.853803	-0.188641
H91	H	0.775460	-0.876508	-0.197496
H92	H	0.839124	-0.869193	-0.138909
N93	N	1.088273	-1.196725	-0.473059
H94	H	1.122135	-1.223259	-0.509796
H95	H	1.103145	-1.219331	-0.425363
N96	N	0.416682	-0.578950	-0.302422
H97	H	0.383430	-0.621661	-0.272527
H98	H	0.445994	-0.627652	-0.332188
N99	N	0.915676	-0.740062	-0.285859
H100	H	0.949520	-0.713742	-0.322590
H101	H	0.866917	-0.717327	-0.296771
H102	H	1.088128	-0.769601	-0.473001
H103	H	0.909629	-0.612114	-0.644332
H104	H	1.072765	-0.358986	-0.650953
N105	N	1.078903	-0.349382	-0.794265
H106	H	1.108756	-0.303054	-0.761040
H107	H	1.110195	-0.392156	-0.826032
N108	N	1.111965	-0.298102	-0.972915
H109	H	1.139066	-0.256037	-1.008450
H110	H	1.084593	-0.249231	-0.941315
H111	H	0.915819	-1.167186	-0.285936
N112	N	1.105858	-0.307552	-1.125448
H113	H	1.096953	-0.321363	-1.177228
H114	H	1.095449	-0.232350	-1.112186
H115	H	0.266886	-0.336912	-0.471936
H116	H	0.604533	-0.608596	-0.281638
N117	N	0.918973	-0.597577	-1.117877
H118	H	0.891867	-0.639638	-1.082344
H119	H	0.885247	-0.558560	-1.147019
