data_functionalizedCrystal
_audit_creation_method	'MofGen! by Chris Wilmer'
_symmetry_space_group_name_H-M	'P1'
_symmetry_Int_Tables_number	1
_symmetry_cell_setting	triclinic
loop_
_symmetry_equiv_pos_as_xyz
  x,y,z
_cell_length_a	13.033293
_cell_length_b	16.959454
_cell_length_c	13.033109
_cell_angle_alpha	97.156051
_cell_angle_beta	74.800007
_cell_angle_gamma	97.190068
loop_
_atom_site_label
_atom_site_type_symbol
_atom_site_fract_x
_atom_site_fract_y
_atom_site_fract_z
Zn1	Zn	1.700273	-0.229029	-0.807189
Zn2	Zn	1.677596	-0.346337	-0.629567
Zn3	Zn	1.500077	-0.229044	-0.606991
Zn4	Zn	1.522594	-0.376045	-0.784542
O5	O	1.600135	-0.295114	-0.707072
O6	O	1.845916	-0.232151	-0.802553
O7	O	1.635134	-0.318351	-0.477931
O8	O	1.526699	-0.118428	-0.633578
O9	O	1.829256	-0.318337	-0.672054
O10	O	1.673782	-0.118417	-0.780663
O11	O	1.504711	-0.232176	-0.461345
O12	O	1.354412	-0.260983	-0.611618
O13	O	1.565078	-0.368970	-0.936187
O14	O	1.370956	-0.368984	-0.742063
O15	O	1.695617	-0.260958	-0.952826
O16	O	1.656969	-0.460892	-0.650094
O17	O	1.543089	-0.482719	-0.763953
C18	C	1.324140	-0.318210	-0.671934
C19	C	1.206072	-0.328111	-0.656927
C20	C	1.161689	-0.289966	-0.714904
C21	C	1.039659	-0.300199	-0.699395
C22	C	1.600044	-0.500486	-0.707043
C23	C	1.600106	-0.588340	-0.707078
C24	C	1.540936	-0.971198	-0.766364
C25	C	1.659644	-0.948410	-0.647926
C26	C	1.659606	-0.865867	-0.647912
C27	C	1.600230	-0.835985	-0.707123
C28	C	1.540893	-0.888648	-0.766349
C29	C	1.718933	-0.813198	-0.588678
C30	C	1.718896	-0.730649	-0.588660
C31	C	1.659526	-0.700767	-0.647879
C32	C	1.600187	-0.753434	-0.707108
C33	C	1.540812	-0.723553	-0.766319
C34	C	1.481479	-0.776220	-0.825555
C35	C	1.481523	-0.858765	-0.825567
C36	C	1.659482	-0.618221	-0.647867
C37	C	1.540769	-0.641002	-0.766304
C38	C	1.877208	-0.271928	-0.742348
C39	C	1.995279	-0.262048	-0.757381
C40	C	1.635388	-0.318277	-0.984125
C41	C	1.650411	-0.328147	-1.102188
C42	C	1.600259	-0.088939	-0.707129
C43	C	1.600311	-0.001080	-0.707153
C44	C	1.592578	-0.289910	-1.146618
C45	C	1.608104	-0.300111	-1.268642
C46	C	1.565080	-0.271979	-0.431105
C47	C	1.550263	-0.261869	-0.313069
H48	H	0.987318	-0.340433	-0.638270
C49	C	1.732739	-0.382652	-1.172827
N50	N	1.794719	-0.423733	-1.226026
H51	H	1.214032	-0.249729	-0.776019
C52	C	1.065984	-0.207691	-0.839957
N53	N	1.119239	-0.166751	-0.902155
H54	H	1.153727	-0.368343	-0.595806
H55	H	1.767209	-0.687773	-0.540429
H56	H	1.707978	-0.972745	-0.599712
C57	C	1.690436	-0.354619	-1.339277
N58	N	1.752415	-0.395699	-1.392477
H59	H	1.492423	-0.616679	-0.814526
C60	C	1.416167	-0.743339	-0.890685
N61	N	1.366976	-0.718570	-0.939740
C62	C	1.416248	-0.916703	-0.890707
N63	N	1.367078	-0.960345	-0.939764
H64	H	1.492631	-1.014083	-0.814596
H65	H	1.531567	-0.249626	-1.094317
C66	C	1.467836	-0.207438	-1.242424
N67	N	1.405754	-0.166441	-1.189213
H68	H	1.767265	-0.837535	-0.540463
C69	C	1.724746	-0.560293	-0.582713
N70	N	1.773910	-0.516661	-0.533639
