data_functionalizedCrystal
_audit_creation_method	'MofGen! by Chris Wilmer'
_symmetry_space_group_name_H-M	'P1'
_symmetry_Int_Tables_number	1
_symmetry_cell_setting	triclinic
loop_
_symmetry_equiv_pos_as_xyz
  x,y,z
_cell_length_a	19.077241
_cell_length_b	19.077713
_cell_length_c	25.639234
_cell_angle_alpha	87.723951
_cell_angle_beta	92.323673
_cell_angle_gamma	90.117203
loop_
_atom_site_label
_atom_site_type_symbol
_atom_site_fract_x
_atom_site_fract_y
_atom_site_fract_z
Zn1	Zn	-1.085504	0.236730	-0.335166
Zn2	Zn	-0.585504	0.736730	0.164834
Zn3	Zn	-1.090123	0.354228	-0.251380
Zn4	Zn	-0.590123	0.854228	0.248620
Zn5	Zn	-0.967990	0.241450	-0.244369
Zn6	Zn	-0.467990	0.741450	0.255631
Zn7	Zn	-0.972666	0.358905	-0.335409
Zn8	Zn	-0.472666	0.858905	0.164591
O9	O	-1.029071	0.297829	-0.291581
O10	O	-0.529071	0.797829	0.208419
O11	O	-1.184452	0.248384	-0.326884
O12	O	-0.684452	0.748384	0.173116
O13	O	-1.073898	0.339286	-0.177285
O14	O	-0.573898	0.839286	0.322715
O15	O	-0.979689	0.142496	-0.253378
O16	O	-0.479689	0.642496	0.246622
O17	O	-1.187846	0.334709	-0.265327
O18	O	-0.687846	0.834709	0.234673
O19	O	-1.066025	0.139028	-0.320086
O20	O	-0.566025	0.639028	0.179914
O21	O	-0.984168	0.256429	-0.172134
O22	O	-0.484168	0.756429	0.327866
O23	O	-0.870275	0.260964	-0.253614
O24	O	-0.370275	0.760964	0.246386
O25	O	-0.987658	0.342680	-0.408543
O26	O	-0.487658	0.842680	0.091457
O27	O	-0.873710	0.347257	-0.320501
O28	O	-0.373710	0.847257	0.179499
O29	O	-1.070560	0.252919	-0.408364
O30	O	-0.570560	0.752919	0.091636
O31	O	-1.078432	0.453177	-0.265562
O32	O	-0.578432	0.953177	0.234438
O33	O	-0.992137	0.456613	-0.327299
O34	O	-0.492137	0.956613	0.172701
C35	C	-0.846495	0.305131	-0.286323
C36	C	-0.346495	0.805131	0.213677
C37	C	-0.768389	0.308271	-0.284087
C38	C	-0.268389	0.808271	0.215913
C39	C	-0.729931	0.264873	-0.315139
C40	C	-0.229931	0.764873	0.184861
C41	C	-0.656542	0.267821	-0.313033
C42	C	-0.156542	0.767821	0.186967
C43	C	-0.621612	0.314171	-0.279877
C44	C	-0.121612	0.814171	0.220123
C45	C	-0.660075	0.357571	-0.248821
C46	C	-0.160075	0.857571	0.251179
C47	C	-0.733463	0.354619	-0.250925
C48	C	-0.233463	0.854619	0.249075
C49	C	-0.402316	0.327807	-0.270141
C50	C	0.097684	0.827807	0.229859
C51	C	-0.328923	0.330757	-0.268041
C52	C	0.171077	0.830757	0.231959
C53	C	-0.325395	0.241007	-0.332252
C54	C	0.174605	0.741007	0.167748
C55	C	-0.398785	0.238062	-0.334354
C56	C	0.101215	0.738062	0.165646
C57	C	-0.437241	0.281459	-0.303297
C58	C	0.062759	0.781459	0.196703
N59	N	-0.546597	0.317187	-0.277725
N60	N	-0.046597	0.817187	0.222275
N61	N	-0.512255	0.278439	-0.305447
N62	N	-0.012255	0.778439	0.194553
C63	C	-1.036312	0.480390	-0.297230
C64	C	-0.536312	0.980390	0.202770
C65	C	-1.039475	0.558488	-0.299665
C66	C	-0.539475	1.058488	0.200335
C67	C	-0.212359	0.290495	-0.296856
C68	C	0.287641	0.790495	0.203144
C69	C	-0.290466	0.287359	-0.299093
C70	C	0.209534	0.787359	0.200907
C71	C	-1.029115	0.297795	-0.427955
C72	C	-0.529115	0.797795	0.072045
C73	C	-1.029134	0.297780	-0.486069
C74	C	-0.529134	0.797780	0.013931
C75	C	-1.021820	0.114554	-0.285923
C76	C	-0.521820	0.614554	0.214077
C77	C	-1.018731	0.036453	-0.283511
C78	C	-0.518731	0.536453	0.216489
C79	C	-1.062152	0.997893	-0.317120
C80	C	-0.562152	1.497893	0.182880
C81	C	-1.059173	0.924512	-0.314826
C82	C	-0.559173	1.424512	0.185174
C83	C	-1.012769	0.889692	-0.278927
C84	C	-0.512769	1.389692	0.221073
C85	C	-0.969345	0.928257	-0.245315
C86	C	-0.469345	1.428257	0.254685
C87	C	-0.972328	1.001637	-0.247606
C88	C	-0.472328	1.501637	0.252394
C89	C	-0.999034	0.670432	-0.268345
C90	C	-0.499034	1.170432	0.231655
C91	C	-0.996053	0.597047	-0.266057
C92	C	-0.496053	1.097047	0.233943
C93	C	-1.085882	0.593307	-0.335568
C94	C	-0.585882	1.093307	0.164432
C95	C	-1.088858	0.666689	-0.337858
C96	C	-0.588858	1.166689	0.162142
C97	C	-1.045438	0.705247	-0.304245
C98	C	-0.545438	1.205247	0.195755
N99	N	-1.009721	0.814685	-0.276583
N100	N	-0.509721	1.314685	0.223417
N101	N	-1.048489	0.780252	-0.306587
N102	N	-0.548489	1.280252	0.193413
C103	C	-0.982428	0.254552	-0.843753
C104	C	-0.482428	0.754552	-0.343753
C105	C	-0.982431	0.254539	-0.898358
C106	C	-0.482431	0.754539	-0.398358
O107	O	-0.942688	0.217864	-0.924318
O108	O	-0.442688	0.717864	-0.424318
N109	N	-1.029153	0.297669	-0.928349
N110	N	-0.529153	0.797669	-0.428349
C111	C	-1.075870	0.340820	-0.903733
C112	C	-0.575870	0.840820	-0.403733
O113	O	-1.115610	0.377505	-0.934257
O114	O	-0.615610	0.877505	-0.434257
C115	C	-1.075863	0.340836	-0.849130
C116	C	-0.575863	0.840836	-0.349130
C117	C	-1.029143	0.297698	-0.819142
C118	C	-0.529143	0.797698	-0.319142
C119	C	-0.935711	0.211418	-0.813765
C120	C	-0.435711	0.711418	-0.313765
C121	C	-0.935709	0.211430	-0.759165
C122	C	-0.435709	0.711430	-0.259165
C123	C	-0.982424	0.254576	-0.734553
C124	C	-0.482424	0.754576	-0.234553
C125	C	-1.029140	0.297710	-0.764541
C126	C	-0.529140	0.797710	-0.264541
C127	C	-1.122575	0.383990	-0.824516
C128	C	-0.622575	0.883990	-0.324516
C129	C	-1.122564	0.384003	-0.769908
C130	C	-0.622564	0.884003	-0.269908
C131	C	-1.075844	0.340865	-0.739920
C132	C	-0.575844	0.840865	-0.239920
C133	C	-1.075853	0.340868	-0.685329
C134	C	-0.575853	0.840868	-0.185329
N135	N	-1.029131	0.297738	-0.655338
N136	N	-0.529131	0.797738	-0.155338
C137	C	-0.982416	0.254592	-0.679950
C138	C	-0.482416	0.754592	-0.179950
C139	C	-1.075881	0.340784	-1.018403
C140	C	-0.575881	0.840784	-0.518403
C141	C	-1.075892	0.340765	-1.073005
C142	C	-0.575892	0.840765	-0.573005
C143	C	-0.982452	0.254484	-1.067626
C144	C	-0.482452	0.754484	-0.567626
C145	C	-0.982445	0.254500	-1.013023
C146	C	-0.482445	0.754500	-0.513023
C147	C	-1.029159	0.297654	-0.988412
C148	C	-0.529159	0.797654	-0.488412
C149	C	-0.982416	0.254620	-0.565286
C150	C	-0.482416	0.754620	-0.065286
C151	C	-0.982420	0.254634	-0.510681
C152	C	-0.482420	0.754634	-0.010681
C153	C	-1.075856	0.340917	-0.516065
C154	C	-0.575856	0.840917	-0.016065
C155	C	-1.075855	0.340901	-0.570665
C156	C	-0.575855	0.840901	-0.070665
C157	C	-1.029129	0.297750	-0.595274
C158	C	-0.529129	0.797750	-0.095274
O159	O	-1.115574	0.377527	-0.659332
O160	O	-0.615574	0.877527	-0.159332
O161	O	-0.942676	0.217920	-0.649420
O162	O	-0.442676	0.717920	-0.149420
C163	C	-1.029065	0.297810	-0.155738
C164	C	-0.529065	0.797810	0.344262
C165	C	-1.029174	0.297621	-0.097622
C166	C	-0.529174	0.797621	0.402378
H167	H	-0.631630	0.395306	-0.221823
H168	H	-0.131630	0.895306	0.278177
Br169	Br	-0.872296	0.152886	-0.718474
Br170	Br	-0.372296	0.652886	-0.218474
H171	H	-1.126654	0.695033	-0.367086
H172	H	-0.626654	1.195033	0.132914
H173	H	-0.300486	0.368504	-0.241041
H174	H	0.199514	0.868504	0.258959
H175	H	-0.758366	0.227132	-0.342139
H176	H	-0.258366	0.727132	0.157861
H177	H	-0.764775	0.389958	-0.225639
H178	H	-0.264775	0.889958	0.274361
H179	H	-0.944402	0.219373	-0.988609
H180	H	-0.444402	0.719373	-0.488609
Br181	Br	-0.872294	0.152866	-0.847156
Br182	Br	-0.372294	0.652866	-0.347156
H183	H	-1.113906	0.376019	-0.595083
H184	H	-0.613906	0.876019	-0.095083
Br185	Br	-0.913402	1.053968	-0.201990
Br186	Br	-0.413402	1.553968	0.298010
H187	H	-0.963678	0.701817	-0.240975
H188	H	-0.463678	1.201817	0.259025
Br189	Br	-0.919012	0.196083	-0.469985
Br190	Br	-0.419012	0.696083	0.030015
Br191	Br	-0.604352	0.208921	-0.355178
Br192	Br	-0.104352	0.708921	0.144822
H193	H	-0.944367	0.219483	-0.585315
H194	H	-0.444367	0.719483	-0.085315
H195	H	-0.427219	0.200321	-0.361355
H196	H	0.072781	0.700321	0.138645
H197	H	-0.433619	0.363145	-0.244852
H198	H	0.066381	0.863145	0.255148
Br199	Br	-0.919053	0.195928	-1.101038
Br200	Br	-0.419053	0.695928	-0.601038
H201	H	-1.094531	0.893117	-0.342192
H202	H	-0.594531	1.393117	0.157808
H203	H	-0.294076	0.205674	-0.357536
H204	H	0.205924	0.705674	0.142464
H205	H	-1.099933	1.026239	-0.346358
H206	H	-0.599933	1.526239	0.153642
Br207	Br	-1.144806	0.540975	-0.381184
Br208	Br	-0.644806	1.040975	0.118816
H209	H	-1.113944	0.375884	-1.097417
H210	H	-0.613944	0.875884	-0.597417
Br211	Br	-0.933077	0.549791	-0.217329
Br212	Br	-0.433077	1.049791	0.282671
Br213	Br	-0.906371	0.881002	-0.196590
Br214	Br	-0.406371	1.381002	0.303410
H215	H	-1.113929	0.375920	-0.998369
H216	H	-0.613929	0.875920	-0.498369
Br217	Br	-1.185981	0.442544	-0.865201
Br218	Br	-0.685981	0.942544	-0.365201
Br219	Br	-1.185962	0.442575	-0.736512
Br220	Br	-0.685962	0.942575	-0.236512
H221	H	-1.113892	0.376043	-0.496016
H222	H	-0.613892	0.876043	0.003984
