data_functionalizedCrystal
_audit_creation_method	'MofGen! by Chris Wilmer'
_symmetry_space_group_name_H-M	'P1'
_symmetry_Int_Tables_number	1
_symmetry_cell_setting	triclinic
loop_
_symmetry_equiv_pos_as_xyz
  x,y,z
_cell_length_a	19.288864
_cell_length_b	16.992695
_cell_length_c	17.766277
_cell_angle_alpha	89.993690
_cell_angle_beta	89.976791
_cell_angle_gamma	86.902234
loop_
_atom_site_label
_atom_site_type_symbol
_atom_site_fract_x
_atom_site_fract_y
_atom_site_fract_z
O1	O	0.927053	0.097795	-0.062838
O2	O	0.725561	0.110988	-0.062787
O3	O	0.825499	-0.009748	-0.062806
O4	O	0.827114	0.218531	-0.062819
O5	O	0.825480	-0.009754	0.062382
O6	O	0.725542	0.110982	0.062402
O7	O	0.927034	0.097789	0.062351
Cu8	Cu	0.826286	0.104385	0.073807
Cu9	Cu	0.826308	0.104392	-0.074243
O10	O	0.827095	0.218525	0.062370
C11	C	0.699650	0.110560	-0.000186
C12	C	0.622472	0.109286	-0.000166
C13	C	0.581905	0.180128	-0.000182
C14	C	0.509388	0.178931	-0.000190
C15	C	0.477442	0.106888	-0.000198
C16	C	0.518018	0.036036	-0.000178
C17	C	0.590534	0.037235	-0.000162
C18	C	0.365886	0.050256	-0.044079
C19	C	0.293371	0.049059	-0.044099
C20	C	0.253780	0.103186	-0.000243
C21	C	0.286711	0.158522	0.043624
C22	C	0.359227	0.159722	0.043640
C23	C	0.398811	0.105579	-0.000214
C24	C	0.134581	0.172735	-0.000267
C25	C	0.062063	0.171535	-0.000270
C26	C	0.070695	0.028638	-0.000266
C27	C	0.143212	0.029840	-0.000254
C28	C	0.175150	0.101891	-0.000259
C29	C	0.823411	-0.038957	-0.000211
C30	C	0.817211	-0.125979	-0.000210
C31	C	0.877039	-0.176431	-0.000224
C32	C	0.871208	-0.258197	-0.000230
C33	C	0.805549	-0.289509	-0.000216
C34	C	0.745717	-0.239051	-0.000204
C35	C	0.751548	-0.157287	-0.000204
C36	C	0.781382	-0.533022	-0.000220
C37	C	0.775556	-0.614793	-0.000218
C38	C	0.901048	-0.633933	-0.000246
C39	C	0.906873	-0.552166	-0.000241
C40	C	0.847041	-0.501715	-0.000233
N41	N	0.799588	-0.373087	-0.000219
N42	N	0.853002	-0.418138	-0.000235
C43	C	0.952944	0.098217	-0.000252
C44	C	1.030122	0.099491	-0.000277
C45	C	0.829183	0.247733	-0.000226
C46	C	0.835384	0.334756	-0.000233
N47	N	0.826275	0.104379	0.177937
N48	N	0.826324	0.104391	-0.178373
C49	C	0.870544	0.050944	0.217316
C50	C	0.870548	0.050940	0.296117
C51	C	0.826290	0.104385	0.335538
C52	C	0.782012	0.157825	0.296150
C53	C	0.782005	0.157822	0.217350
C54	C	0.821154	0.175815	0.460373
C55	C	0.821167	0.175819	0.539172
C56	C	0.826309	0.104395	0.578584
C57	C	0.831454	0.032964	0.539188
C58	C	0.831446	0.032961	0.460387
C59	C	0.826293	0.104394	0.420983
C60	C	0.870585	0.050951	0.703408
C61	C	0.870584	0.050946	0.782212
C62	C	0.782051	0.157838	0.782243
C63	C	0.782049	0.157836	0.703441
C64	C	0.826319	0.104393	0.664029
H65	H	0.607904	0.238798	-0.000187
N66	N	0.674895	-0.272815	-0.000189
H67	H	0.669685	-0.306309	-0.046594
H68	H	0.669715	-0.306276	0.046251
N69	N	0.815613	0.252858	0.581658
H70	H	0.816402	0.242024	0.637558
H71	H	0.856026	0.285401	0.567856
H72	H	0.906599	0.007424	0.328185
N73	N	0.257855	-0.010619	-0.091412
H74	H	0.293938	-0.044733	-0.119184
H75	H	0.229779	-0.044728	-0.057771
H76	H	0.160587	0.231403	-0.000259
N77	N	0.408585	-0.008130	-0.091382
H78	H	0.376721	-0.043361	-0.119177
H79	H	0.436950	0.021218	-0.128838
H80	H	0.919927	-0.299272	-0.000240
H81	H	0.492003	-0.022623	-0.000194
N82	N	0.734272	0.215467	0.338662
H83	H	0.740995	0.207362	0.394558
H84	H	0.745374	0.271059	0.324873
H85	H	0.176243	-0.027848	-0.000246
N86	N	0.687019	-0.102867	-0.000193
H87	H	0.644539	-0.135108	-0.000183
H88	H	0.686696	-0.068528	0.046215
H89	H	0.816955	0.233980	0.428291
N90	N	0.465626	0.255346	-0.000215
H91	H	0.435375	0.258025	-0.046631
H92	H	0.435361	0.257992	0.046214
N93	N	0.734309	0.215479	0.824749
H94	H	0.741029	0.207372	0.880645
H95	H	0.745412	0.271071	0.810963
H96	H	0.949760	-0.675018	-0.000254
H97	H	0.835634	-0.025201	0.428314
H98	H	0.745954	0.201337	0.185287
H99	H	0.732662	-0.491954	-0.000213
N100	N	0.394747	0.219396	0.090952
H101	H	0.358668	0.253506	0.118735
H102	H	0.426555	0.191040	0.128420
H103	H	0.906590	0.007425	0.185228
N104	N	0.634294	-0.039176	-0.000142
H105	H	0.603056	-0.085000	-0.000144
H106	H	0.664594	-0.041791	-0.046544
H107	H	0.835641	-0.025196	0.571275
H108	H	0.906631	0.007432	0.671317
H109	H	0.029034	0.229226	-0.000279
N110	N	0.244019	0.216897	0.090942
H111	H	0.275884	0.252129	0.118734
H112	H	0.211915	0.250017	0.057301
H113	H	0.960340	-0.526677	-0.000253
N114	N	0.036250	-0.049068	-0.000265
H115	H	-0.015845	-0.039080	-0.000275
H116	H	0.050834	-0.080058	-0.046670
N117	N	0.947857	-0.142661	-0.000233
H118	H	0.984873	-0.187032	-0.000244
H119	H	0.953019	-0.109146	-0.046641
N120	N	0.734300	0.215476	0.660970
H121	H	0.745383	0.271094	0.674669
H122	H	0.741028	0.207298	0.605082
N123	N	0.918347	-0.006682	0.824683
H124	H	0.907280	-0.062305	0.810983
H125	H	0.968108	0.002297	0.810915
N126	N	0.704734	-0.648568	-0.000204
H127	H	0.667715	-0.604201	-0.000201
H128	H	0.699596	-0.682073	-0.046611
