data_functionalizedCrystal
_audit_creation_method	'MofGen! by Chris Wilmer'
_symmetry_space_group_name_H-M	'P1'
_symmetry_Int_Tables_number	1
_symmetry_cell_setting	triclinic
loop_
_symmetry_equiv_pos_as_xyz
  x,y,z
_cell_length_a	17.019282
_cell_length_b	27.732048
_cell_length_c	16.098538
_cell_angle_alpha	92.695138
_cell_angle_beta	91.140572
_cell_angle_gamma	83.017024
loop_
_atom_site_label
_atom_site_type_symbol
_atom_site_fract_x
_atom_site_fract_y
_atom_site_fract_z
O1	O	1.045635	0.061727	0.005752
O2	O	1.378968	0.395060	0.339086
O3	O	1.712302	0.728394	0.672419
O4	O	0.816718	0.069074	-0.010674
O5	O	1.150051	0.402407	0.322660
O6	O	1.483384	0.735741	0.655993
O7	O	0.938285	-0.004952	-0.001935
O8	O	1.271619	0.328381	0.331399
O9	O	1.604952	0.661714	0.664732
O10	O	0.924068	0.135753	-0.002987
O11	O	1.257401	0.469087	0.330347
O12	O	1.590734	0.802420	0.663680
O13	O	0.931184	-0.000645	0.136068
O14	O	1.264517	0.332688	0.469401
O15	O	1.597851	0.666022	0.802734
O16	O	0.809617	0.073381	0.127329
O17	O	1.142950	0.406715	0.460662
O18	O	1.476283	0.740048	0.793995
O19	O	1.038534	0.066034	0.143755
O20	O	1.371867	0.399368	0.477088
O21	O	1.705200	0.732701	0.810422
Zn22	Zn	0.922948	0.070392	0.157453
Zn23	Zn	1.256281	0.403725	0.490786
Zn24	Zn	1.589614	0.737058	0.824119
Zn25	Zn	0.932304	0.064717	-0.024371
Zn26	Zn	1.265637	0.398050	0.308962
Zn27	Zn	1.598971	0.731383	0.642295
O28	O	0.916966	0.140061	0.135016
O29	O	1.250300	0.473394	0.468349
O30	O	1.583633	0.806727	0.801683
C31	C	0.783890	0.070865	0.056227
C32	C	1.117223	0.404199	0.389560
C33	C	1.450556	0.737532	0.722894
C34	C	0.696652	0.069780	0.049968
C35	C	1.029985	0.403113	0.383301
C36	C	1.363318	0.736446	0.716634
C37	C	0.651801	0.071616	0.122254
C38	C	0.985134	0.404950	0.455588
C39	C	1.318468	0.738283	0.788921
C40	C	0.569833	0.070589	0.116376
C41	C	0.903167	0.403922	0.449709
C42	C	1.236500	0.737255	0.783042
C43	C	0.532717	0.067728	0.038210
C44	C	0.866050	0.401061	0.371543
C45	C	1.199384	0.734394	0.704876
C46	C	0.577574	0.065889	-0.034082
C47	C	0.910908	0.399223	0.299251
C48	C	1.244241	0.732556	0.632584
C49	C	0.659541	0.066914	-0.028203
C50	C	0.992874	0.400247	0.305131
C51	C	1.326208	0.733580	0.638464
C52	C	0.285424	0.064514	0.016694
C53	C	0.618758	0.397848	0.350027
C54	C	0.952091	0.731181	0.683360
C55	C	0.203451	0.063492	0.010820
C56	C	0.536784	0.396825	0.344153
C57	C	0.870118	0.730158	0.677486
C58	C	0.195716	0.068190	0.161278
C59	C	0.529049	0.401524	0.494612
C60	C	0.862383	0.734857	0.827945
C61	C	0.277684	0.069217	0.167151
C62	C	0.611017	0.402551	0.500484
C63	C	0.944351	0.735884	0.833818
C64	C	0.322535	0.067376	0.094859
C65	C	0.655868	0.400710	0.428192
C66	C	0.989201	0.734043	0.761526
C67	C	0.448933	0.066679	0.032199
C68	C	0.782266	0.400012	0.365532
C69	C	1.115599	0.733345	0.698865
C70	C	0.406318	0.068422	0.100871
C71	C	0.739651	0.401755	0.434204
C72	C	1.072985	0.735088	0.767537
C73	C	0.934436	-0.020807	0.067047
C74	C	1.267769	0.312526	0.400381
C75	C	1.601103	0.645859	0.733714
C76	C	0.933537	-0.074467	0.066990
C77	C	1.266870	0.258866	0.400323
C78	C	1.600204	0.592199	0.733656
C79	C	0.999720	-0.412880	0.071696
C80	C	1.333053	-0.079546	0.405029
C81	C	1.666386	0.253787	0.738363
C82	C	0.996386	-0.614560	0.071445
C83	C	1.329719	-0.281227	0.404779
C84	C	1.663052	0.052107	0.738112
O85	O	1.056905	-0.645447	0.075751
O86	O	1.390238	-0.312114	0.409085
O87	O	1.723572	0.021220	0.742418
N88	N	0.924301	-0.634124	0.066273
N89	N	1.257634	-0.300791	0.399607
N90	N	1.590967	0.032543	0.732940
C91	C	0.853044	-0.603265	0.061159
C92	C	1.186378	-0.269931	0.394492
C93	C	1.519711	0.063402	0.727825
O94	O	0.791656	-0.624533	0.056745
O95	O	1.124989	-0.291200	0.390079
O96	O	1.458322	0.042134	0.723412
C97	C	0.856380	-0.401585	0.061404
C98	C	1.189713	-0.068252	0.394737
C99	C	1.523046	0.265081	0.728070
C100	C	0.928469	-0.382024	0.066584
C101	C	1.261802	-0.048691	0.399917
C102	C	1.595135	0.284643	0.733251
C103	C	1.071803	-0.393318	0.076875
C104	C	1.405136	-0.059984	0.410208
C105	C	1.738470	0.273349	0.743542
C106	C	1.072636	-0.342901	0.076942
C107	C	1.405969	-0.009567	0.410276
C108	C	1.739302	0.323766	0.743609
C109	C	1.001385	-0.312045	0.071830
C110	C	1.334718	0.021288	0.405164
C111	C	1.668051	0.354622	0.738497
C112	C	0.929301	-0.331607	0.066651
C113	C	1.262635	0.001726	0.399985
C114	C	1.595968	0.335060	0.733318
C115	C	0.785124	-0.370727	0.056283
C116	C	1.118458	-0.037394	0.389616
C117	C	1.451791	0.295939	0.722950
C118	C	0.785965	-0.320305	0.056342
C119	C	1.119298	0.013028	0.389676
C120	C	1.452631	0.346362	0.723009
C121	C	0.858054	-0.300744	0.061523
C122	C	1.191387	0.032590	0.394856
C123	C	1.524721	0.365923	0.728190
C124	C	0.858883	-0.250334	0.061606
C125	C	1.192216	0.082999	0.394940
C126	C	1.525550	0.416333	0.728273
N127	N	0.930968	-0.230770	0.066778
N128	N	1.264301	0.102563	0.400112
N129	N	1.597635	0.435897	0.733445
C130	C	1.002219	-0.261626	0.071890
C131	C	1.335552	0.071708	0.405223
C132	C	1.668885	0.405041	0.738557
C133	C	0.851298	-0.709149	0.061032
C134	C	1.184632	-0.375816	0.394365
C135	C	1.517965	-0.042483	0.727699
C136	C	0.850464	-0.759569	0.060972
C137	C	1.183797	-0.426236	0.394306
C138	C	1.517131	-0.092902	0.727639
C139	C	0.993806	-0.770861	0.071257
C140	C	1.327139	-0.437528	0.404591
C141	C	1.660472	-0.104194	0.737924
C142	C	0.994639	-0.720440	0.071323
C143	C	1.327972	-0.387107	0.404656
C144	C	1.661305	-0.053773	0.737990
C145	C	0.923383	-0.689585	0.066204
C146	C	1.256717	-0.356252	0.399537
C147	C	1.590050	-0.022919	0.732870
C148	C	1.003962	-0.155745	0.072032
C149	C	1.337295	0.177588	0.405365
C150	C	1.670628	0.510921	0.738698
C151	C	1.004788	-0.105323	0.072102
C152	C	1.338121	0.228010	0.405435
C153	C	1.671454	0.561344	0.738768
C154	C	0.861447	-0.094036	0.061812
C155	C	1.194780	0.239298	0.395146
C156	C	1.528113	0.572631	0.728479
C157	C	0.860620	-0.144453	0.061747
C158	C	1.193953	0.188880	0.395080
C159	C	1.527287	0.522213	0.728413
C160	C	0.931884	-0.175307	0.066854
C161	C	1.265217	0.158026	0.400187
C162	C	1.598551	0.491359	0.733520
O163	O	0.798397	-0.219419	0.057293
O164	O	1.131730	0.113915	0.390627
O165	O	1.465063	0.447248	0.723960
O166	O	1.063600	-0.240348	0.076284
O167	O	1.396933	0.092985	0.409618
O168	O	1.730266	0.426318	0.742951
C169	C	0.998887	-0.463297	0.071629
C170	C	1.332220	-0.129964	0.404962
C171	C	1.665554	0.203370	0.738296
C172	C	0.926804	-0.482859	0.066450
C173	C	1.260137	-0.149525	0.399783
C174	C	1.593470	0.183808	0.733116
C175	C	0.855553	-0.452003	0.061338
C176	C	1.188886	-0.118670	0.394671
C177	C	1.522219	0.214663	0.728004
C178	C	0.925970	-0.533278	0.066390
C179	C	1.259303	-0.199945	0.399723
C180	C	1.592636	0.133389	0.733057
C181	C	0.997221	-0.564134	0.071502
C182	C	1.330554	-0.230800	0.404835
C183	C	1.663887	0.102533	0.738169
C184	C	1.069306	-0.544570	0.076674
C185	C	1.402639	-0.211236	0.410007
C186	C	1.735972	0.122097	0.743340
C187	C	1.070138	-0.494152	0.076741
C188	C	1.403471	-0.160819	0.410074
C189	C	1.736805	0.172514	0.743407
C190	C	0.783468	-0.471567	0.056166
C191	C	1.116801	-0.138234	0.389499
C192	C	1.450134	0.195099	0.722833
C193	C	0.782641	-0.521985	0.056100
C194	C	1.115974	-0.188652	0.389434
C195	C	1.449308	0.144682	0.722767
C196	C	0.853892	-0.552840	0.061212
C197	C	1.187225	-0.219507	0.394545
C198	C	1.520559	0.113826	0.727879
C199	C	1.071362	0.064243	0.076852
C200	C	1.404695	0.397576	0.410186
C201	C	1.738029	0.730910	0.743519
C202	C	1.158600	0.065328	0.083106
C203	C	1.491934	0.398662	0.416440
C204	C	1.825267	0.731995	0.749773
C205	C	0.920816	0.155916	0.066032
C206	C	1.254149	0.489249	0.399365
C207	C	1.587482	0.822582	0.732699
C208	C	0.921715	0.209576	0.066084
C209	C	1.255048	0.542909	0.399418
C210	C	1.588382	0.876242	0.732751
N211	N	0.916568	0.074264	0.281543
N212	N	1.249901	0.407598	0.614877
N213	N	1.583235	0.740931	0.948210
N214	N	0.938690	0.060840	-0.148462
N215	N	1.272023	0.394173	0.184872
N216	N	1.605356	0.727507	0.518205
C217	C	0.968185	0.042856	0.328839
C218	C	1.301518	0.376189	0.662172
C219	C	1.634851	0.709523	0.995506
C220	C	0.963729	0.045570	0.415708
C221	C	1.297063	0.378903	0.749041
C222	C	1.630396	0.712236	1.082374
C223	C	0.907660	0.079695	0.455279
C224	C	1.240994	0.413028	0.788613
C225	C	1.574327	0.746361	1.121946
C226	C	0.856038	0.111105	0.407977
C227	C	1.189371	0.444438	0.741311
C228	C	1.522705	0.777771	1.074644
C229	C	0.860490	0.108388	0.321110
C230	C	1.193824	0.441722	0.654443
C231	C	1.527157	0.775055	0.987777
C232	C	0.891520	0.089534	0.717369
C233	C	1.224853	0.422867	1.050702
C234	C	1.558187	0.756200	1.384036
C235	C	0.887073	0.092249	0.804243
C236	C	1.220406	0.425582	1.137576
C237	C	1.553740	0.758915	1.470909
C238	C	0.994764	0.026713	0.811967
C239	C	1.328097	0.360046	1.145300
C240	C	1.661430	0.693379	1.478634
C241	C	0.999214	0.024001	0.725098
C242	C	1.332548	0.357335	1.058431
C243	C	1.665881	0.690668	1.391765
C244	C	0.947589	0.055410	0.677803
C245	C	1.280923	0.388743	1.011137
C246	C	1.614256	0.722076	1.344470
C247	C	0.903106	0.082470	0.544073
C248	C	1.236440	0.415804	0.877406
C249	C	1.569773	0.749137	1.210740
C250	C	0.952140	0.052631	0.589011
C251	C	1.285474	0.385965	0.922344
C252	C	1.618807	0.719298	1.255678
H253	H	1.063494	-0.089399	0.076323
H254	H	1.396827	0.243934	0.409656
H255	H	1.730161	0.577268	0.742989
F256	F	0.409428	0.063617	-0.050989
F257	F	0.742761	0.396950	0.282344
F258	F	1.076094	0.730284	0.615678
F259	F	0.785621	-0.061188	0.056372
F260	F	1.118954	0.272145	0.389706
F261	F	1.452287	0.605478	0.723039
F262	F	0.691294	0.074665	0.205450
F263	F	1.024628	0.407998	0.538783
F264	F	1.357961	0.741331	0.872117
F265	F	0.805550	0.141816	0.270775
F266	F	1.138883	0.475150	0.604109
F267	F	1.472217	0.808483	0.937442
F268	F	0.796360	0.147421	0.450093
F269	F	1.129694	0.480755	0.783426
F270	F	1.463027	0.814088	1.116759
H271	H	0.696058	0.065419	-0.087066
H272	H	1.029391	0.398752	0.246267
H273	H	1.362724	0.732086	0.579600
H274	H	0.307899	0.071545	0.230802
H275	H	0.641232	0.404878	0.564135
H276	H	0.974565	0.738211	0.897469
H277	H	0.791761	-0.775491	0.056768
H278	H	1.125094	-0.442157	0.390101
H279	H	1.458428	-0.108824	0.723435
F280	F	0.445822	0.071465	0.184058
F281	F	0.779155	0.404798	0.517391
F282	F	1.112489	0.738131	0.850725
H283	H	1.051821	-0.795992	0.075420
H284	H	1.385154	-0.462659	0.408753
H285	H	1.718488	-0.129325	0.742087
H286	H	1.005759	0.019994	0.454215
H287	H	1.339092	0.353327	0.787549
H288	H	1.672426	0.686661	1.120882
F289	F	1.011808	0.016312	0.546895
F290	F	1.345142	0.349645	0.880228
F291	F	1.678475	0.682979	1.213561
H292	H	0.849486	0.115108	0.678868
H293	H	1.182819	0.448442	1.012202
H294	H	1.516153	0.781775	1.345535
H295	H	0.801918	-0.160380	0.057551
H296	H	1.135251	0.172953	0.390885
H297	H	1.468585	0.506287	0.724218
F298	F	1.058890	-0.012318	0.682984
F299	F	1.392223	0.321016	1.016317
F300	F	1.725556	0.654349	1.349651
F301	F	0.775453	-0.676317	0.055583
F302	F	1.108786	-0.342983	0.388916
F303	F	1.442120	-0.009650	0.722249
H304	H	0.857455	0.110257	0.576300
H305	H	1.190788	0.443590	0.909633
H306	H	1.524122	0.776923	1.242966
F307	F	0.708396	-0.391535	0.050765
F308	F	1.041729	-0.058201	0.384099
F309	F	1.375063	0.275132	0.717432
H310	H	1.127320	-0.569701	0.080840
H311	H	1.460654	-0.236368	0.414173
H312	H	1.793987	0.096966	0.747506
H313	H	0.533321	0.072076	0.175239
H314	H	0.866654	0.405410	0.508573
H315	H	1.199988	0.738743	0.841906
F316	F	0.163951	0.060448	-0.072379
F317	F	0.497284	0.393781	0.260954
F318	F	0.830618	0.727115	0.594287
F319	F	0.147978	0.070148	0.238211
F320	F	0.481311	0.403481	0.571544
F321	F	0.814644	0.736814	0.904878
F322	F	0.538074	0.062830	-0.117273
F323	F	0.871407	0.396163	0.216061
F324	F	1.204740	0.729496	0.549394
F325	F	0.705908	-0.542797	0.050591
F326	F	1.039241	-0.209464	0.383925
F327	F	1.372575	0.123870	0.717258
H328	H	1.128840	-0.478231	0.080959
H329	H	1.462174	-0.144897	0.414292
H330	H	1.795507	0.188436	0.747626
H331	H	1.053340	-0.704517	0.075541
H332	H	1.386673	-0.371184	0.408874
H333	H	1.720007	-0.037851	0.742207
F334	F	1.079809	-0.188576	0.077467
F335	F	1.413142	0.144758	0.410800
F336	F	1.746476	0.478091	0.744134
H337	H	1.131338	-0.326979	0.081157
H338	H	1.464672	0.006355	0.414491
H339	H	1.798005	0.339688	0.747824
F340	F	1.147645	-0.426150	0.082316
F341	F	1.480978	-0.092817	0.415649
F342	F	1.814312	0.240517	0.748983
H343	H	1.036793	0.001141	0.850482
H344	H	1.370127	0.334475	1.183815
H345	H	1.703460	0.667808	1.517149
H346	H	0.321932	0.063014	-0.042172
H347	H	0.655265	0.396347	0.291162
H348	H	0.988599	0.729681	0.624495
H349	H	0.727938	-0.295185	0.052172
H350	H	1.061272	0.038149	0.385506
H351	H	1.394605	0.371482	0.718839
F352	F	0.707628	-0.438735	0.050722
F353	F	1.040962	-0.105401	0.384056
F354	F	1.374295	0.227932	0.717389
F355	F	1.027866	0.006537	0.286732
F356	F	1.361199	0.339871	0.620066
F357	F	1.694532	0.673204	0.953399
F358	F	0.827394	0.128572	0.846352
F359	F	1.160727	0.461906	1.179685
F360	F	1.494060	0.795239	1.513019
