data_functionalizedCrystal
_audit_creation_method	'MofGen! by Chris Wilmer'
_symmetry_space_group_name_H-M	'P1'
_symmetry_Int_Tables_number	1
_symmetry_cell_setting	triclinic
loop_
_symmetry_equiv_pos_as_xyz
  x,y,z
_cell_length_a	16.625547
_cell_length_b	19.120786
_cell_length_c	16.625539
_cell_angle_alpha	92.471374
_cell_angle_beta	90.024822
_cell_angle_gamma	92.464876
loop_
_atom_site_label
_atom_site_type_symbol
_atom_site_fract_x
_atom_site_fract_y
_atom_site_fract_z
Zn1	Zn	1.218969	-0.279630	0.442286
Zn2	Zn	1.213113	-0.397095	0.301692
Zn3	Zn	1.084130	-0.279655	0.307455
Zn4	Zn	1.078344	-0.397052	0.436474
O5	O	1.148639	-0.338358	0.371977
O6	O	1.331024	-0.295220	0.423656
O7	O	1.195973	-0.381544	0.189623
O8	O	1.106889	-0.181361	0.330185
O9	O	1.326721	-0.381520	0.320363
O10	O	1.205955	-0.181343	0.429245
O11	O	1.101210	-0.295262	0.193857
O12	O	0.970530	-0.295220	0.324550
O13	O	1.097027	-0.381448	0.550079
O14	O	0.966279	-0.381471	0.419339
O15	O	1.200344	-0.295179	0.554349
O16	O	1.190363	-0.495379	0.314727
O17	O	1.091349	-0.495348	0.413751
C18	C	0.939149	-0.338344	0.371940
C19	C	0.849527	-0.338355	0.371942
C20	C	0.776744	-0.338357	0.371952
C21	C	0.685436	-0.338361	0.371972
C22	C	0.612659	-0.338367	0.371992
C23	C	0.521345	-0.338372	0.372011
C24	C	1.139614	-0.520849	0.363000
C25	C	1.135827	-0.598920	0.359187
C26	C	1.185588	-0.635528	0.409012
C27	C	1.182026	-0.708884	0.405431
C28	C	1.128708	-0.745630	0.352019
C29	C	1.078941	-0.709017	0.302192
C30	C	1.082499	-0.635663	0.305778
C31	C	1.115383	-0.967116	0.338613
C32	C	1.111830	-1.040475	0.335029
C33	C	1.214914	-1.040337	0.438269
C34	C	1.218471	-0.966981	0.441847
C35	C	1.168702	-0.930375	0.392023
C36	C	1.125068	-0.820611	0.348355
C37	C	1.172338	-0.855395	0.395691
C38	C	1.358947	-0.338372	0.372015
C39	C	1.448568	-0.338378	0.372031
C40	C	1.148694	-0.338306	0.582288
C41	C	1.148717	-0.338283	0.671911
C42	C	1.157721	-0.155154	0.381006
C43	C	1.161591	-0.077083	0.384854
C44	C	1.148633	-0.338359	0.162486
C45	C	1.148775	-0.338184	0.072874
C46	C	1.148758	-0.338205	1.000090
C47	C	1.148744	-0.338229	0.908781
C48	C	1.148738	-0.338245	0.836003
C49	C	1.148724	-0.338268	0.744688
H50	H	1.229009	-0.605614	0.452502
F51	F	1.234980	-0.747841	0.458471
H52	H	1.035525	-0.738942	0.258706
F53	F	1.275219	-0.927879	0.498696
F54	F	1.267876	-1.079302	0.491294
F55	F	1.055081	-1.079582	0.278176
F56	F	1.062407	-0.928166	0.285591
H57	H	1.081658	-0.850538	0.304865
H58	H	1.041978	-0.605857	0.265206
F59	F	1.229078	-0.816285	0.452538
