data_functionalizedCrystal
_audit_creation_method	'MofGen! by Chris Wilmer'
_symmetry_space_group_name_H-M	'P1'
_symmetry_Int_Tables_number	1
_symmetry_cell_setting	triclinic
loop_
_symmetry_equiv_pos_as_xyz
  x,y,z
_cell_length_a	16.704493
_cell_length_b	21.606444
_cell_length_c	21.606444
_cell_angle_alpha	59.997726
_cell_angle_beta	85.835707
_cell_angle_gamma	57.658958
loop_
_atom_site_label
_atom_site_type_symbol
_atom_site_fract_x
_atom_site_fract_y
_atom_site_fract_z
Zr1	Zr	0.773279	0.677440	-0.124625
O2	O	0.645122	0.806561	-0.216259
O3	O	0.812561	0.548321	-0.096533
O4	O	0.812569	0.677442	-0.225656
O5	O	0.645114	0.677437	0.014717
O6	O	0.944659	0.677440	-0.233069
O7	O	0.645115	0.677440	-0.087136
O8	O	0.944645	0.446467	-0.002093
O9	O	0.645127	0.908411	-0.216260
O10	O	0.927897	0.601427	-0.090086
O11	O	0.829320	0.601427	-0.008542
O12	O	0.829328	0.753450	-0.160567
O13	O	0.730750	0.753449	-0.079022
Zr14	Zr	0.983946	0.677434	0.025996
Zr15	Zr	0.983947	0.677438	-0.136448
Zr16	Zr	0.773277	0.677436	0.037819
Zr17	Zr	0.773287	0.839879	-0.124626
Zr18	Zr	0.983938	0.514994	0.025997
O19	O	0.944663	0.806553	-0.002096
O20	O	0.944665	0.806558	-0.233070
O21	O	0.645120	0.806555	0.014716
O22	O	1.112103	0.548313	0.117630
O23	O	1.112104	0.548318	-0.113345
O24	O	0.812560	0.548315	0.134441
O25	O	1.112111	0.677436	-0.113346
O26	O	0.944656	0.677432	0.127027
O27	O	0.812566	0.677433	0.134440
O28	O	1.112110	0.677434	-0.011493
O29	O	0.812580	0.908410	-0.225658
O30	O	0.944644	0.446464	0.127029
O31	O	1.112098	0.446463	0.117630
O32	O	1.112099	0.446466	-0.011491
O33	O	0.645126	0.908408	-0.087138
O34	O	0.812579	0.908406	-0.096536
O35	O	0.927896	0.601424	0.061938
O36	O	1.026474	0.601425	-0.019607
O37	O	0.927905	0.753447	-0.090087
O38	O	0.829327	0.753446	-0.008543
C39	C	0.878602	0.474250	-0.049313
C40	C	0.878599	0.405290	-0.049312
C41	C	0.615098	0.677439	-0.034525
C42	C	0.525664	0.677440	-0.029506
C43	C	0.930083	-0.018018	-0.091881
C44	C	0.930076	0.046782	-0.091883
C45	C	0.878616	0.079179	-0.049318
C46	C	0.827152	0.046778	-0.006752
C47	C	0.827154	-0.018017	-0.006754
C48	C	0.827142	0.308089	-0.006744
C49	C	0.827146	0.372886	-0.006744
C50	C	0.930064	0.372888	-0.091874
C51	C	0.930066	0.308093	-0.091876
C52	C	0.878598	0.275701	-0.049313
C53	C	0.878605	0.205438	-0.049312
C54	C	0.878615	0.149436	-0.049314
C55	C	0.357618	0.677428	-0.132304
C56	C	0.273586	0.677429	-0.127591
C57	C	0.273573	0.677436	-0.015364
C58	C	0.357604	0.677435	-0.020077
C59	C	0.399623	0.677432	-0.078550
C60	C	0.483652	0.677438	-0.083265
C61	C	0.483640	0.677439	0.028964
C62	C	0.399609	0.677439	0.033677
C63	C	1.142126	0.677435	-0.064104
C64	C	1.231560	0.677434	-0.069123
C65	C	0.878614	0.677442	-0.252507
C66	C	0.878614	0.677443	-0.321469
C67	C	0.878622	0.880624	-0.049316
C68	C	0.878625	0.949583	-0.049317
C69	C	0.951384	0.677444	-0.357951
C70	C	0.951387	0.677438	-0.422745
C71	C	0.878615	0.677437	-0.451057
C72	C	0.805842	0.677433	-0.414569
C73	C	0.805844	0.677433	-0.349774
C74	C	0.805834	0.677433	-0.675878
C75	C	0.805836	0.677435	-0.740679
C76	C	0.951376	0.677437	-0.748849
C77	C	0.951378	0.677437	-0.684054
C78	C	0.878609	0.677429	-0.647570
C79	C	0.878607	0.677434	-0.577313
C80	C	0.878612	0.677438	-0.521316
C81	C	0.878611	0.677432	0.153878
C82	C	0.878610	0.677430	0.222840
C83	C	1.142116	0.474248	-0.064102
C84	C	1.231547	0.405287	-0.069121
C85	C	0.878601	0.474245	0.153880
C86	C	0.878597	0.405283	0.222842
C87	C	1.142114	0.474243	0.139090
C88	C	1.231545	0.405281	0.203033
C89	C	0.615110	0.880631	-0.237720
C90	C	0.525680	0.949593	-0.301663
C91	C	0.615108	0.880626	-0.034527
C92	C	0.525678	0.949586	-0.029508
C93	C	0.878624	0.880629	-0.252509
C94	C	0.878628	0.949590	-0.321471
C95	C	1.222088	0.372904	-0.108274
C96	C	1.306110	0.308117	-0.113005
C97	C	1.399589	0.275710	-0.078577
C98	C	1.409046	0.308100	-0.039423
C99	C	1.325025	0.372890	-0.034697
C100	C	0.930051	0.372897	0.292024
C101	C	0.930043	0.308110	0.356828
C102	C	0.878587	0.275705	0.352448
C103	C	0.827127	0.308098	0.283259
C104	C	0.827129	0.372889	0.218457
C105	C	1.325007	0.372896	0.190496
C106	C	1.409045	0.308107	0.250570
C107	C	1.399617	0.275701	0.323182
C108	C	1.306144	0.308092	0.335718
C109	C	1.222109	0.372883	0.275645
C110	C	0.432217	0.981986	-0.289125
C111	C	0.348180	1.046794	-0.349200
C112	C	0.357607	1.079204	-0.421811
C113	C	0.451080	1.046809	-0.434348
C114	C	0.535115	0.982006	-0.374274
C115	C	0.535136	0.981976	0.009638
C116	C	0.451114	1.046781	0.014351
C117	C	0.357635	1.079190	-0.020079
C118	C	0.348179	1.046797	-0.059230
C119	C	0.432199	0.981998	-0.063947
C120	C	0.930094	0.981974	-0.317068
C121	C	0.930117	1.046762	-0.381860
C122	C	0.878667	1.079169	-0.451055
C123	C	0.827199	1.046779	-0.455457
C124	C	0.827183	0.981988	-0.390666
H125	H	0.971993	-0.044395	-0.126539
C126	C	1.031431	0.677438	-0.462875
H127	H	1.021018	0.677426	-0.505514
H128	H	1.028417	0.728204	-0.477474
H129	H	1.094250	0.626666	-0.430392
C130	C	0.353383	0.677450	0.097988
H131	H	0.390439	0.677450	0.129328
H132	H	0.287686	0.728217	0.078617
H133	H	0.353523	0.626678	0.125705
C134	C	0.986724	1.082389	-0.377008
H135	H	0.979380	1.125611	-0.425502
H136	H	0.961303	1.107667	-0.348661
H137	H	1.054421	1.035862	-0.353875
C138	C	0.461534	1.082393	0.057427
H139	H	0.529241	1.053796	0.077265
H140	H	0.430911	1.143565	0.024906
H141	H	0.430890	1.071769	0.096697
H142	H	0.746589	0.677431	-0.320069
H143	H	0.878593	0.222948	0.405220
H144	H	1.467996	0.222953	-0.082430
C145	C	0.461443	1.082454	-0.514220
H146	H	0.529141	1.053887	-0.513091
H147	H	0.430787	1.071835	-0.539417
H148	H	0.430804	1.143631	-0.539426
C149	C	0.986697	0.946334	-0.240962
H150	H	1.017356	0.974901	-0.247631
H151	H	0.942288	0.956955	-0.211540
H152	H	1.035390	0.885156	-0.216771
H153	H	0.424485	0.955628	-0.095822
H154	H	1.485167	0.281705	-0.011394
H155	H	0.971952	0.281743	0.413158
H156	H	1.332740	0.399248	-0.002810
H157	H	0.785232	0.281705	0.279704
C158	C	0.245352	1.082444	-0.097095
H159	H	0.251742	1.053881	-0.121091
H160	H	0.210441	1.071824	-0.060878
H161	H	0.210438	1.143622	-0.132685
C162	C	0.770552	0.946383	-0.395518
H163	H	0.739908	0.974974	-0.446008
H164	H	0.814946	0.885209	-0.374386
H165	H	0.721847	0.957019	-0.369165
H166	H	0.971976	0.073161	-0.126543
C167	C	1.031433	0.677434	-0.788976
H168	H	1.074765	0.677444	-0.762837
H169	H	1.067378	0.626667	-0.790884
H170	H	1.001537	0.728206	-0.837962
C171	C	0.227343	0.677444	0.048947
H172	H	0.264395	0.677444	0.080290
H173	H	0.161645	0.728210	0.029574
H174	H	0.227484	0.626672	0.076660
H175	H	0.391824	0.677435	-0.179918
C176	C	1.335392	0.408537	0.110629
H177	H	1.271963	0.451760	0.076639
H178	H	1.370304	0.433818	0.102987
H179	H	1.370310	0.362017	0.102987
H180	H	0.785232	0.399249	0.162129
H181	H	1.485147	0.281741	0.240350
H182	H	1.468052	0.222943	0.372091
C183	C	0.245373	1.082410	-0.335397
H184	H	0.251801	1.053811	-0.283547
H185	H	0.210449	1.143581	-0.357051
H186	H	0.210450	1.071790	-0.357066
H187	H	0.785250	-0.044393	0.027904
C188	C	1.295691	0.272491	-0.156066
H189	H	1.227983	0.301062	-0.175879
H190	H	1.326317	0.283114	-0.195342
H191	H	1.326330	0.211313	-0.123533
C192	C	0.770600	1.082440	-0.531573
H193	H	0.777977	1.125673	-0.569523
H194	H	0.795993	1.035938	-0.538698
H195	H	0.702897	1.107733	-0.533460
H196	H	1.145981	0.399289	-0.136320
C197	C	0.529877	0.677427	-0.147577
H198	H	0.492828	0.677414	-0.178911
H199	H	0.529745	0.728191	-0.175292
H200	H	0.595576	0.626652	-0.128202
H201	H	0.971953	0.399274	0.295604
C202	C	0.637921	0.946347	-0.388070
H203	H	0.686627	0.903106	-0.341898
H204	H	0.645246	0.921083	-0.415410
H205	H	0.645319	0.992852	-0.415410
H206	H	1.298483	0.281697	0.394847
C207	C	0.878684	1.150445	-0.522318
H208	H	0.916699	1.165092	-0.509778
H209	H	0.906233	1.129218	-0.553184
H210	H	0.813125	1.201009	-0.547950
C211	C	0.227380	0.677429	-0.186722
H212	H	0.264439	0.677434	-0.222222
H213	H	0.227512	0.626665	-0.163680
H214	H	0.161681	0.728203	-0.210757
H215	H	0.971973	0.281715	-0.126534
C216	C	1.119305	0.408490	0.289445
H217	H	1.125736	0.379899	0.341294
H218	H	1.084370	0.469664	0.267782
H219	H	1.084394	0.397854	0.267785
C220	C	0.637952	0.946337	0.047516
H221	H	0.631537	0.974922	0.071497
H222	H	0.672868	0.885165	0.083108
H223	H	0.672874	0.956959	0.011305
H224	H	0.746581	0.677428	-0.646178
C225	C	0.986668	0.408529	-0.138700
H226	H	0.979290	0.451766	-0.132611
H227	H	1.054363	0.362015	-0.122904
H228	H	0.961253	0.433810	-0.189478
C229	C	0.770529	0.408528	0.040074
H230	H	0.739868	0.379964	0.065417
H231	H	0.814937	0.397908	0.075132
H232	H	0.721838	0.469706	0.008549
C233	C	0.770504	0.272485	0.040053
H234	H	0.739857	0.301062	0.065402
H235	H	0.721815	0.283124	0.008520
H236	H	0.814897	0.211306	0.075117
H237	H	0.785248	0.073164	0.027902
H238	H	0.424522	0.955601	-0.230006
C239	C	0.265163	1.150474	-0.487885
H240	H	0.208153	1.165111	-0.470012
H241	H	0.265143	1.201037	-0.517207
H242	H	0.265153	1.129227	-0.517192
C243	C	1.031428	0.677434	-0.652912
H244	H	1.074775	0.677425	-0.683916
H245	H	1.001543	0.728198	-0.651339
H246	H	1.067371	0.626660	-0.604267
C247	C	0.529847	0.677444	0.088095
H248	H	0.585914	0.677440	0.076917
H249	H	0.483153	0.728211	0.088384
H250	H	0.548996	0.626673	0.135464
C251	C	0.265221	1.150465	-0.014883
H252	H	0.284251	1.165103	0.013370
H253	H	0.227204	1.201026	-0.063298
H254	H	0.227205	1.129225	0.008503
H255	H	0.746575	0.677433	-0.763729
C256	C	1.031434	0.677443	-0.326813
H257	H	1.074778	0.677434	-0.357818
H258	H	1.001549	0.728208	-0.325241
H259	H	1.067379	0.626670	-0.278167
H260	H	0.746593	0.677427	-0.437622
