data_functionalizedCrystal
_audit_creation_method	'MofGen! by Chris Wilmer'
_symmetry_space_group_name_H-M	'P1'
_symmetry_Int_Tables_number	1
_symmetry_cell_setting	triclinic
loop_
_symmetry_equiv_pos_as_xyz
  x,y,z
_cell_length_a	10.540539
_cell_length_b	9.065218
_cell_length_c	7.540329
_cell_angle_alpha	90.001757
_cell_angle_beta	90.000905
_cell_angle_gamma	84.770688
loop_
_atom_site_label
_atom_site_type_symbol
_atom_site_fract_x
_atom_site_fract_y
_atom_site_fract_z
O1	O	-1.686653	-0.207930	-0.147391
O2	O	-1.317313	-0.227521	-0.147412
O3	O	-1.509617	-0.003045	-0.147398
O4	O	-1.494349	-0.432406	-0.147406
O5	O	-1.509606	-0.003042	0.147568
O6	O	-1.317301	-0.227519	0.147553
O7	O	-1.686642	-0.207927	0.147574
Cu8	Cu	-1.501970	-0.217723	0.174496
Cu9	Cu	-1.501984	-0.217726	-0.174334
O10	O	-1.494337	-0.432403	0.147559
C11	C	-1.508144	0.051936	0.000082
C12	C	-1.503757	0.215757	0.000073
C13	C	-1.269999	-0.226051	0.000068
C14	C	-1.129034	-0.221655	0.000059
C15	C	-1.733956	-0.209398	0.000090
C16	C	-1.874920	-0.213794	0.000087
C17	C	-0.944985	-0.053221	0.000751
C18	C	-1.091619	-0.057677	0.000068
C19	C	-1.067660	-0.300570	-0.168375
C20	C	-0.921095	-0.294974	-0.168498
C21	C	-0.920606	-0.298306	0.166933
C22	C	-1.067593	-0.299817	0.169141
C23	C	-1.495811	-0.487384	0.000076
C24	C	-1.500198	-0.651205	0.000073
N25	N	-1.501970	-0.217719	0.419845
N26	N	-1.501995	-0.217718	-0.419683
H27	H	-1.133999	0.004416	0.120809
H28	H	-1.110051	-0.245753	-0.293726
N29	N	-0.904679	0.032256	-0.158341
H30	H	-0.864072	0.122988	-0.117202
H31	H	-0.841267	-0.032682	-0.230791
N32	N	-1.146632	0.025151	-0.160132
H33	H	-1.075610	0.064693	-0.230589
H34	H	-1.192682	-0.044175	-0.236764
N35	N	-1.100256	-0.458179	0.182622
H36	H	-1.155588	-0.481607	0.078849
H37	H	-1.019278	-0.526918	0.181186
N38	N	-0.858638	-0.455195	0.168449
H39	H	-0.801247	-0.471512	0.061645
H40	H	-0.806623	-0.472269	0.280271
H41	H	-0.916155	0.011561	0.121545
H42	H	-0.892674	-0.236651	-0.294402
H43	H	-0.873562	-0.412904	-0.176145
N44	N	-1.097867	-0.460076	-0.176713
H45	H	-1.151756	-0.482771	-0.071133
H46	H	-1.146044	-0.476932	-0.289610
N47	N	-0.878562	-0.228018	0.336057
H48	H	-0.829466	-0.140670	0.306226
H49	H	-0.955872	-0.193297	0.409138
H50	H	-1.108337	-0.242166	0.293748
