data_functionalizedCrystal
_audit_creation_method	'MofGen! by Chris Wilmer'
_symmetry_space_group_name_H-M	'P1'
_symmetry_Int_Tables_number	1
_symmetry_cell_setting	triclinic
loop_
_symmetry_equiv_pos_as_xyz
  x,y,z
_cell_length_a	17.077404
_cell_length_b	19.805405
_cell_length_c	17.077396
_cell_angle_alpha	89.970202
_cell_angle_beta	89.983895
_cell_angle_gamma	90.024696
loop_
_atom_site_label
_atom_site_type_symbol
_atom_site_fract_x
_atom_site_fract_y
_atom_site_fract_z
Zn1	Zn	1.200016	-0.269494	-0.443816
Zn2	Zn	1.199920	-0.382689	-0.312549
Zn3	Zn	1.068753	-0.269515	-0.312567
Zn4	Zn	1.068707	-0.382643	-0.443775
O5	O	1.134349	-0.326085	-0.378177
O6	O	1.309850	-0.284520	-0.426413
O7	O	1.182499	-0.367704	-0.202704
O8	O	1.086225	-0.174796	-0.330002
O9	O	1.309779	-0.367684	-0.329972
O10	O	1.182664	-0.174780	-0.426430
O11	O	1.086132	-0.284556	-0.202717
O12	O	0.958900	-0.284511	-0.329962
O13	O	1.086147	-0.367605	-0.553628
O14	O	0.958866	-0.367625	-0.426360
O15	O	1.182619	-0.284476	-0.553658
O16	O	1.182454	-0.477399	-0.329932
O17	O	1.086053	-0.477365	-0.426343
C18	C	0.930401	-0.326066	-0.378159
C19	C	0.843151	-0.326074	-0.378170
C20	C	0.802199	-0.282848	-0.428464
C21	C	0.720218	-0.282852	-0.428468
C22	C	0.679192	-0.326087	-0.378181
C23	C	0.720150	-0.369315	-0.327882
C24	C	0.802129	-0.369307	-0.327875
C25	C	0.549280	-0.369330	-0.327901
C26	C	0.467296	-0.369340	-0.327909
C27	C	0.467369	-0.282876	-0.428494
C28	C	0.549348	-0.282868	-0.428487
C29	C	0.590301	-0.326097	-0.378189
C30	C	1.134260	-0.501941	-0.378148
C31	C	1.134293	-0.577173	-0.378163
C32	C	1.184479	-0.612451	-0.428412
C33	C	1.184507	-0.683140	-0.428427
C34	C	1.134353	-0.718549	-0.378187
C35	C	1.084162	-0.683266	-0.327935
C36	C	1.084130	-0.612579	-0.327925
C37	C	1.084288	-0.968339	-0.327976
C38	C	1.084325	-1.039031	-0.327988
C39	C	1.184665	-1.038900	-0.428477
C40	C	1.184633	-0.968213	-0.428467
C41	C	1.134439	-0.932936	-0.378218
C42	C	1.134408	-0.856288	-0.378204
C43	C	1.134388	-0.795196	-0.378197
C44	C	1.339093	-0.326105	-0.378195
C45	C	1.426343	-0.326113	-0.378203
C46	C	1.134388	-0.326033	-0.582921
C47	C	1.134405	-0.326010	-0.670171
C48	C	1.134460	-0.149543	-0.378223
C49	C	1.134508	-0.074311	-0.378242
C50	C	1.084242	-0.282710	-0.711167
C51	C	1.084255	-0.282695	-0.793148
C52	C	1.134435	-0.325977	-0.834131
C53	C	1.184601	-0.369282	-0.793128
C54	C	1.184584	-0.369300	-0.711149
C55	C	1.184635	-0.369240	-0.963999
C56	C	1.184653	-0.369221	-1.045983
C57	C	1.084306	-0.282634	-1.045997
C58	C	1.084289	-0.282652	-0.964018
C59	C	1.134456	-0.325957	-0.923022
C60	C	1.134355	-0.326089	-0.174229
C61	C	1.134490	-0.325920	-0.086980
H62	H	0.686879	-0.247654	-0.469423
H63	H	1.043322	-0.712102	-0.287033
F64	F	1.238025	-0.415333	-0.920369
H65	H	1.043384	-0.247461	-0.677805
F66	F	1.030941	-1.076715	-0.274514
F67	F	1.030861	-0.930804	-0.274502
F68	F	1.238002	-0.415351	-0.836747
F69	F	1.030715	-0.575034	-0.274444
H70	H	0.582750	-0.247666	-0.469440
F71	F	0.592863	-0.415343	-0.274371
F72	F	1.030835	-0.236633	-0.836776
H73	H	1.225533	-1.067631	-0.469395
F74	F	1.030886	-0.236582	-0.920403
H75	H	0.434022	-0.247676	-0.469447
H76	H	1.043460	-0.247373	-1.079380
F77	F	0.423634	-0.415368	-0.274403
H78	H	1.225438	-0.404555	-0.677771
H79	H	1.225515	-0.404465	-1.079349
H80	H	0.686740	-0.404514	-0.286934
F81	F	0.845855	-0.236834	-0.481991
F82	F	0.845713	-0.415315	-0.274346
H83	H	1.225323	-0.583626	-0.469320
H84	H	1.225380	-0.711860	-0.469339
F85	F	1.238016	-0.930532	-0.481936
