data_functionalizedCrystal
_audit_creation_method	'MofGen! by Chris Wilmer'
_symmetry_space_group_name_H-M	'P1'
_symmetry_Int_Tables_number	1
_symmetry_cell_setting	triclinic
loop_
_symmetry_equiv_pos_as_xyz
  x,y,z
_cell_length_a	8.597187
_cell_length_b	8.559649
_cell_length_c	15.186229
_cell_angle_alpha	89.998040
_cell_angle_beta	82.294848
_cell_angle_gamma	77.625088
loop_
_atom_site_label
_atom_site_type_symbol
_atom_site_fract_x
_atom_site_fract_y
_atom_site_fract_z
O1	O	2.053777	0.238053	-0.229044
O2	O	1.594635	0.256311	-0.194210
O3	O	1.864657	0.015212	-0.214695
O4	O	1.783755	0.479152	-0.208559
O5	O	1.864641	0.015209	-0.068236
O6	O	1.594619	0.256307	-0.047751
O7	O	2.053761	0.238049	-0.082585
Zn8	Zn	1.824188	0.247178	-0.041915
Zn9	Zn	1.824208	0.247183	-0.234880
O10	O	1.783739	0.479148	-0.062100
C11	C	1.536391	0.254348	-0.116562
C12	C	1.362868	0.248484	-0.103398
C13	C	1.870780	-0.044224	-0.141932
C14	C	1.889029	-0.221318	-0.143322
C15	C	2.112005	0.240013	-0.160234
C16	C	2.285528	0.245877	-0.173405
C17	C	1.777616	0.538584	-0.134865
C18	C	1.759367	0.715679	-0.133481
N19	N	1.824185	0.247174	0.089778
N20	N	1.824225	0.247174	-0.366574
C21	C	1.943783	0.140452	0.306428
C22	C	1.943788	0.140449	0.398617
C23	C	1.704615	0.353901	0.416771
C24	C	1.704605	0.353896	0.324583
C25	C	1.824197	0.247173	0.269414
C26	C	1.824213	0.247175	0.453790
C27	C	1.824218	0.247172	0.553746
C28	C	1.824191	0.247174	0.169452
H29	H	1.296327	0.246247	-0.033396
H30	H	2.041160	0.053550	0.261510
H31	H	1.352072	0.248132	-0.243411
H32	H	1.634395	-0.202777	-0.123997
C33	C	2.057868	-0.331476	-0.156132
H34	H	2.048402	-0.440046	-0.155416
H35	H	2.114680	-0.311174	-0.109373
H36	H	2.114672	-0.311180	-0.211525
C37	C	2.075329	0.023058	0.439333
H38	H	2.058202	0.038329	0.502139
H39	H	2.177777	0.042069	0.416447
H40	H	2.071137	-0.083662	0.424544
C41	C	1.573088	0.471300	0.477458
H42	H	1.590229	0.456033	0.537663
H43	H	1.470634	0.452294	0.470134
H44	H	1.577280	0.578019	0.462024
C45	C	1.573057	0.471298	0.283865
H46	H	1.501848	0.534875	0.329922
H47	H	1.514770	0.412869	0.252330
H48	H	1.621409	0.538601	0.244229
