data_functionalizedCrystal
_audit_creation_method	'MofGen! by Chris Wilmer'
_symmetry_space_group_name_H-M	'P1'
_symmetry_Int_Tables_number	1
_symmetry_cell_setting	triclinic
loop_
_symmetry_equiv_pos_as_xyz
  x,y,z
_cell_length_a	11.026607
_cell_length_b	11.026607
_cell_length_c	9.482899
_cell_angle_alpha	101.395157
_cell_angle_beta	101.373676
_cell_angle_gamma	71.413983
loop_
_atom_site_label
_atom_site_type_symbol
_atom_site_fract_x
_atom_site_fract_y
_atom_site_fract_z
O1	O	1.711196	-0.549203	-0.120862
O2	O	1.344615	-0.488441	-0.120871
O3	O	1.497524	-0.335531	-0.120862
O4	O	1.558287	-0.702112	-0.120871
O5	O	1.528590	-0.304353	0.120933
O6	O	1.375681	-0.457263	0.120924
O7	O	1.742262	-0.518025	0.120933
Cu8	Cu	1.561808	-0.484797	0.143006
Cu9	Cu	1.525069	-0.521669	-0.142944
O10	O	1.589352	-0.670935	0.120924
C11	C	1.312488	-0.461642	0.000025
C12	C	1.170474	-0.428226	0.000022
N13	N	1.499228	-0.547593	-0.344066
C14	C	1.501847	-0.272283	0.000033
C15	C	1.468429	-0.130270	0.000027
C16	C	1.774388	-0.544824	0.000033
C17	C	1.916401	-0.578242	0.000027
C18	C	1.970051	-0.485972	0.000028
C19	C	2.116829	-0.520509	0.000021
C20	C	1.585029	-0.734183	0.000025
C21	C	1.618446	-0.876198	0.000022
C22	C	1.560699	-0.076620	0.000028
C23	C	1.526162	0.070157	0.000021
C24	C	1.532690	-0.514004	-0.583677
C25	C	1.554202	-0.492446	-0.416258
N26	N	1.587657	-0.458865	0.344127
H27	H	1.907321	-0.381406	0.000055
Br28	Br	1.734983	-0.181169	0.000017
Br29	Br	2.020949	-0.752526	0.000037
H30	H	1.421591	0.132885	0.000009
H31	H	1.723002	0.061061	-0.000085
Br32	Br	1.294141	-0.025726	0.000002
H33	H	1.469710	-0.577176	-0.645809
H34	H	1.617197	-0.429281	-0.354130
Br35	Br	2.065938	-0.253929	0.000048
H36	H	1.436244	-0.610769	-0.406194
Br37	Br	1.692652	-0.353592	-0.552325
H38	H	2.179558	-0.625078	0.000025
