data_functionalizedCrystal
_audit_creation_method	'MofGen! by Chris Wilmer'
_symmetry_space_group_name_H-M	'P1'
_symmetry_Int_Tables_number	1
_symmetry_cell_setting	triclinic
loop_
_symmetry_equiv_pos_as_xyz
  x,y,z
_cell_length_a	27.731993
_cell_length_b	26.210047
_cell_length_c	27.732048
_cell_angle_alpha	89.999521
_cell_angle_beta	97.368475
_cell_angle_gamma	89.997422
loop_
_atom_site_label
_atom_site_type_symbol
_atom_site_fract_x
_atom_site_fract_y
_atom_site_fract_z
O1	O	0.640948	0.042297	-0.057384
O2	O	0.500151	0.042329	-0.066158
O3	O	0.574923	0.042302	0.008627
O4	O	0.566177	0.042324	-0.132169
O5	O	0.574908	-0.042556	0.008615
O6	O	0.500137	-0.042529	-0.066169
O7	O	0.640934	-0.042561	-0.057396
Cu8	Cu	0.570534	-0.050293	-0.061784
Cu9	Cu	0.570551	0.050061	-0.061770
O10	O	0.566163	-0.042534	-0.132180
C11	C	0.482137	-0.000096	-0.065983
C12	C	0.428480	-0.000084	-0.065441
N13	N	0.570526	-0.120877	-0.061793
C14	C	0.045328	0.046147	-0.061504
C15	C	0.246985	0.046161	-0.063571
O16	O	0.273065	0.085501	-0.063813
N17	N	0.272198	-0.000094	-0.063836
C18	C	0.246993	-0.046356	-0.063581
O19	O	0.273066	-0.085699	-0.063849
C20	C	0.045337	-0.046370	-0.061511
C21	C	0.020127	-0.000112	-0.061251
C22	C	0.020118	0.092401	-0.061243
C23	C	-0.030294	0.092397	-0.060729
C24	C	-0.055495	0.046139	-0.060476
C25	C	-0.030285	-0.000116	-0.060736
C26	C	0.020134	-0.092631	-0.061252
C27	C	-0.030283	-0.092630	-0.060733
C28	C	-0.055493	-0.046372	-0.060473
C29	C	-0.105898	-0.046378	-0.059969
N30	N	-0.131110	-0.000123	-0.059704
C31	C	-0.105909	0.046135	-0.059957
C32	C	0.352865	-0.046346	-0.064669
C33	C	0.403279	-0.046343	-0.065188
C34	C	0.403268	0.046175	-0.065177
C35	C	0.352853	0.046171	-0.064662
C36	C	0.327653	-0.000091	-0.064404
C37	C	-0.211777	0.046123	-0.058878
C38	C	-0.262194	0.046115	-0.058366
C39	C	-0.262178	-0.046402	-0.058375
C40	C	-0.211766	-0.046394	-0.058889
C41	C	-0.186567	-0.000127	-0.059139
O42	O	-0.132008	-0.085698	-0.059721
O43	O	-0.131989	0.085472	-0.059679
C44	C	0.095740	0.046151	-0.062018
C45	C	0.120950	-0.000104	-0.062279
C46	C	0.095749	-0.046362	-0.062025
C47	C	0.171364	-0.000101	-0.062797
C48	C	0.196565	0.046158	-0.063051
C49	C	0.171353	0.092413	-0.062786
C50	C	0.120941	0.092409	-0.062272
C51	C	0.120961	-0.092617	-0.062290
C52	C	0.171373	-0.092609	-0.062805
C53	C	0.196574	-0.046351	-0.063058
C54	C	0.603657	-0.473403	-0.028663
C55	C	0.603667	-0.687062	-0.028656
O56	O	0.631818	-0.714693	-0.000490
N57	N	0.570554	-0.713771	-0.061759
C58	C	0.537433	-0.687063	-0.094864
O59	O	0.509265	-0.714683	-0.123017
C60	C	0.537421	-0.473405	-0.094868
C61	C	0.570540	-0.446698	-0.061766
C62	C	0.636772	-0.446696	0.004437
C63	C	0.636771	-0.393285	0.004433
C64	C	0.603654	-0.366580	-0.028671
C65	C	0.570538	-0.393287	-0.061770
C66	C	0.504298	-0.446697	-0.127971
C67	C	0.504297	-0.393280	-0.127968
C68	C	0.537416	-0.366573	-0.094866
C69	C	0.537420	-0.313171	-0.094877
N70	N	0.570533	-0.286461	-0.061774
C71	C	0.603650	-0.313166	-0.028671
C72	C	0.537443	-0.799236	-0.094861
C73	C	0.537446	-0.852650	-0.094860
C74	C	0.603680	-0.852645	-0.028651
C75	C	0.603678	-0.799230	-0.028654
C76	C	0.570556	-0.772526	-0.061757
C77	C	0.603646	-0.200998	-0.028682
C78	C	0.603643	-0.147582	-0.028690
C79	C	0.537408	-0.147591	-0.094897
C80	C	0.537412	-0.201003	-0.094891
C81	C	0.570533	-0.227705	-0.061779
O82	O	0.509281	-0.285506	-0.123025
O83	O	0.631807	-0.285536	-0.000515
C84	C	0.603658	-0.526814	-0.028659
C85	C	0.570542	-0.553521	-0.061759
C86	C	0.537425	-0.526816	-0.094862
C87	C	0.570546	-0.606935	-0.061759
C88	C	0.603663	-0.633640	-0.028655
C89	C	0.636776	-0.606931	0.004448
C90	C	0.636775	-0.553519	0.004444
C91	C	0.504311	-0.553526	-0.127965
C92	C	0.504316	-0.606937	-0.127959
C93	C	0.537433	-0.633642	-0.094856
C94	C	0.658949	-0.000135	-0.057570
C95	C	0.712605	-0.000143	-0.058113
C96	C	0.574732	-0.000128	0.026628
C97	C	0.574179	-0.000132	0.080282
N98	N	0.570564	0.120645	-0.061757
C99	C	0.566353	-0.000103	-0.150181
C100	C	0.566906	-0.000095	-0.203836
C101	C	0.614884	-0.000115	0.419105
C102	C	0.612833	-0.000108	0.620765
O103	O	0.650055	-0.000094	0.652028
N104	N	0.568497	-0.000098	0.639880
C105	C	0.524670	-0.000087	0.608576
O106	O	0.486912	-0.000073	0.629462
C107	C	0.526721	-0.000091	0.406918
C108	C	0.571061	-0.000106	0.387806
C109	C	0.659220	-0.000129	0.399993
C110	C	0.659732	-0.000134	0.349581
C111	C	0.615909	-0.000124	0.318282
C112	C	0.571573	-0.000110	0.337394
C113	C	0.482895	-0.000076	0.375616
C114	C	0.483412	-0.000076	0.325199
C115	C	0.527751	-0.000091	0.306087
C116	C	0.528262	-0.000105	0.255683
N117	N	0.572598	-0.000115	0.236568
C118	C	0.616422	-0.000124	0.267867
C119	C	0.523596	-0.000086	0.714450
C120	C	0.523083	-0.000086	0.764865
C121	C	0.611246	-0.000105	0.777049
C122	C	0.611759	-0.000109	0.726634
C123	C	0.567932	-0.000095	0.695335
C124	C	0.617494	-0.000135	0.161998
C125	C	0.618003	-0.000142	0.111582
C126	C	0.529839	-0.000119	0.099401
C127	C	0.529331	-0.000115	0.149814
C128	C	0.573162	-0.000121	0.181112
O129	O	0.491060	-0.000114	0.224392
O130	O	0.654174	-0.000127	0.246972
C131	C	0.614372	-0.000110	0.469517
C132	C	0.570036	-0.000096	0.488630
C133	C	0.526213	-0.000087	0.457331
C134	C	0.569523	-0.000096	0.539044
C135	C	0.613346	-0.000106	0.570343
C136	C	0.657683	-0.000115	0.551228
C137	C	0.658195	-0.000120	0.500817
C138	C	0.481876	-0.000077	0.476446
C139	C	0.481368	-0.000073	0.526858
C140	C	0.525191	-0.000083	0.558157
H141	H	-0.282718	0.083786	-0.058156
H142	H	0.647864	-0.000121	0.711077
H143	H	0.694301	-0.000132	0.485261
C144	C	0.467864	-0.476067	-0.164381
C145	C	0.412828	-0.468716	-0.163949
C146	C	0.376390	-0.498085	-0.200360
C147	C	0.394989	-0.534807	-0.237202
C148	C	0.450027	-0.542160	-0.237635
C149	C	0.486465	-0.512791	-0.201224
H150	H	0.399058	-0.441531	-0.136675
H151	H	0.335647	-0.492642	-0.200039
H152	H	0.368015	-0.556548	-0.264155
H153	H	0.463797	-0.569345	-0.264908
H154	H	0.527208	-0.518234	-0.201544
H155	H	0.446189	-0.000068	0.450966
H156	H	0.191894	-0.130281	-0.063021
C157	C	0.474309	-0.000077	0.785885
C158	C	0.461837	0.043990	0.818868
C159	C	0.413062	0.044002	0.839886
C160	C	0.376759	-0.000054	0.827923
C161	C	0.389230	-0.044124	0.794939
C162	C	0.438005	-0.044136	0.773920
H163	H	0.488712	0.076605	0.827725
H164	H	0.403831	0.076626	0.864303
H165	H	0.340653	-0.000045	0.843482
H166	H	0.362356	-0.076740	0.786081
H167	H	0.447237	-0.076760	0.749503
H168	H	0.510483	-0.874391	-0.121820
C169	C	0.673205	-0.636312	0.040863
C170	C	0.728244	-0.628977	0.040446
C171	C	0.764668	-0.658362	0.076861
C172	C	0.746053	-0.695081	0.113694
C173	C	0.691011	-0.702418	0.114113
C174	C	0.654587	-0.673033	0.077698
H175	H	0.742026	-0.601794	0.013178
H176	H	0.805414	-0.652931	0.076550
H177	H	0.773017	-0.716833	0.140651
H178	H	0.677229	-0.729601	0.141380
H179	H	0.613841	-0.678464	0.078008
C180	C	0.705889	-0.000124	0.585664
C181	C	0.717649	-0.044187	0.622004
C182	C	0.765853	-0.044192	0.656442
C183	C	0.802296	-0.000135	0.654540
C184	C	0.790537	0.043931	0.618199
C185	C	0.742334	0.043936	0.583761
H186	H	0.690671	-0.076804	0.623413
H187	H	0.774557	-0.076813	0.683344
H188	H	0.837979	-0.000139	0.680033
H189	H	0.817515	0.076547	0.616789
H190	H	0.733629	0.076557	0.556858
H191	H	0.423795	0.083840	-0.065385
C192	C	0.431009	-0.097226	-0.065478
C193	C	0.471476	-0.109951	-0.023843
C194	C	0.499205	-0.160835	-0.024130
C195	C	0.486467	-0.198995	-0.066051
C196	C	0.445997	-0.186272	-0.107688
C197	C	0.418268	-0.135387	-0.107402
H198	H	0.480908	-0.081702	0.007192
H199	H	0.529163	-0.170254	0.006694
H200	H	0.506993	-0.236663	-0.066263
H201	H	0.436566	-0.214521	-0.138724
H202	H	0.388310	-0.125968	-0.138225
C203	C	0.093246	-0.143506	-0.062013
C204	C	0.094382	-0.181658	-0.104081
C205	C	0.066669	-0.232551	-0.103806
C206	C	0.037820	-0.245292	-0.061464
C207	C	0.036683	-0.207139	-0.019393
C208	C	0.064396	-0.156246	-0.019668
H209	H	0.115738	-0.172227	-0.135428
H210	H	0.067511	-0.260794	-0.134950
H211	H	0.017305	-0.282966	-0.061261
H212	H	0.015326	-0.216569	0.011954
H213	H	0.063554	-0.128002	0.011476
C214	C	-0.289906	-0.097283	-0.058094
C215	C	-0.330375	-0.110001	-0.099728
C216	C	-0.358105	-0.160882	-0.099442
C217	C	-0.345367	-0.199046	-0.057523
C218	C	-0.304896	-0.186329	-0.015886
C219	C	-0.277166	-0.135448	-0.016171
H220	H	-0.339807	-0.081749	-0.130762
H221	H	-0.388065	-0.170296	-0.130265
H222	H	-0.365894	-0.236712	-0.057312
H223	H	-0.295464	-0.214581	0.015148
H224	H	-0.247207	-0.126034	0.014652
H225	H	0.332353	-0.084020	-0.064458
C226	C	0.093215	0.143294	-0.061982
C227	C	0.105957	0.181449	-0.020058
C228	C	0.078235	0.232338	-0.019768
C229	C	0.037771	0.245072	-0.061402
C230	C	0.025026	0.206916	-0.103330
C231	C	0.052748	0.156027	-0.103620
H232	H	0.135913	0.172024	0.010766
H233	H	0.087670	0.260583	0.011270
H234	H	0.017249	0.282743	-0.061187
H235	H	-0.004930	0.216342	-0.134153
H236	H	0.043314	0.127782	-0.134658
H237	H	-0.050799	-0.130303	-0.060528
C238	C	0.673197	-0.363910	0.040850
C239	C	0.672795	-0.371259	0.095890
C240	C	0.709222	-0.341888	0.132311
C241	C	0.746050	-0.305167	0.113692
C242	C	0.746454	-0.297816	0.058649
C243	C	0.710027	-0.327188	0.022228
H244	H	0.645531	-0.398444	0.109675
H245	H	0.708923	-0.347330	0.173057
H246	H	0.773015	-0.283425	0.140652
H247	H	0.773718	-0.270632	0.044863
H248	H	0.710326	-0.321746	-0.018518
C249	C	0.467882	-0.636312	-0.164374
C250	C	0.412846	-0.628960	-0.163946
C251	C	0.376410	-0.658332	-0.200357
C252	C	0.395010	-0.695057	-0.237195
C253	C	0.450049	-0.702411	-0.237624
C254	C	0.486485	-0.673038	-0.201214
H255	H	0.399074	-0.601773	-0.136675
H256	H	0.335666	-0.652889	-0.200039
H257	H	0.368038	-0.716800	-0.264148
H258	H	0.463821	-0.729598	-0.264895
H259	H	0.527229	-0.678482	-0.201532
C260	C	0.640107	-0.882027	0.007766
C261	C	0.640103	-0.940781	0.007763
C262	C	0.676525	-0.970166	0.044181
C263	C	0.712950	-0.940797	0.080600
C264	C	0.712955	-0.882040	0.080604
C265	C	0.676534	-0.852655	0.044187
H266	H	0.613138	-0.962524	-0.019198
H267	H	0.676521	-1.013662	0.044178
H268	H	0.739912	-0.962550	0.107559
H269	H	0.739921	-0.860297	0.107566
H270	H	0.676537	-0.809160	0.044190
H271	H	0.477324	-0.371540	-0.154924
H272	H	0.191880	0.130078	-0.062995
H273	H	-0.191266	0.083798	-0.059083
H274	H	0.477343	-0.531787	-0.154922
C275	C	-0.184026	-0.097272	-0.059196
C276	C	-0.196760	-0.135415	-0.101132
C277	C	-0.169020	-0.186292	-0.101441
C278	C	-0.128547	-0.199024	-0.059815
C279	C	-0.115811	-0.160880	-0.017876
C280	C	-0.143551	-0.110004	-0.017567
H281	H	-0.226722	-0.125990	-0.131949
H282	H	-0.178448	-0.214529	-0.132487
H283	H	-0.108012	-0.236686	-0.060044
H284	H	-0.085849	-0.170305	0.012941
H285	H	-0.134123	-0.081767	0.013480
H286	H	0.487905	-0.000075	0.688970
H287	H	0.445259	-0.000065	0.542414
C288	C	0.480556	-0.000097	0.170837
C289	C	0.468090	0.043981	0.203809
C290	C	0.419314	0.044008	0.224826
C291	C	0.383004	-0.000043	0.212870
C292	C	0.395470	-0.044124	0.179896
C293	C	0.444246	-0.044151	0.158880
H294	H	0.494969	0.076594	0.212661
H295	H	0.410087	0.076641	0.249235
H296	H	0.346898	-0.000023	0.228428
H297	H	0.368591	-0.076736	0.171045
H298	H	0.453473	-0.076783	0.134470
C299	C	0.640074	-0.118205	0.007726
C300	C	0.639676	-0.125547	0.062767
C301	C	0.676105	-0.096172	0.099182
C302	C	0.712932	-0.059455	0.080556
C303	C	0.713332	-0.052111	0.025512
C304	C	0.676903	-0.081486	-0.010903
H305	H	0.612413	-0.152729	0.076558
H306	H	0.675809	-0.101608	0.139929
H307	H	0.739899	-0.037709	0.107512
H308	H	0.740595	-0.024929	0.011721
H309	H	0.677198	-0.076049	-0.051651
H310	H	0.695838	-0.000144	0.334025
C311	C	0.325124	0.097055	-0.064371
C312	C	0.296277	0.109773	-0.022022
C313	C	0.268551	0.160660	-0.021730
C314	C	0.269673	0.198828	-0.063787
C315	C	0.298521	0.186110	-0.106140
C316	C	0.326247	0.135224	-0.106432
H317	H	0.295446	0.081518	0.009115
H318	H	0.247196	0.170074	0.009623
H319	H	0.249149	0.236497	-0.063571
H320	H	0.299353	0.214365	-0.137276
H321	H	0.347602	0.125810	-0.137784
C322	C	-0.058019	0.143283	-0.060439
C323	C	-0.045274	0.181436	-0.018513
C324	C	-0.072994	0.232326	-0.018220
C325	C	-0.113459	0.245063	-0.059854
C326	C	-0.126206	0.206909	-0.101783
C327	C	-0.098486	0.156019	-0.102075
H328	H	-0.015318	0.172008	0.012310
H329	H	-0.063558	0.260570	0.012818
H330	H	-0.133979	0.282734	-0.059637
H331	H	-0.156162	0.216336	-0.132605
H332	H	-0.107922	0.127775	-0.133114
H333	H	0.663743	-0.531778	0.031399
H334	H	0.510445	-0.125840	-0.121851
H335	H	0.663740	-0.468434	0.031396
H336	H	0.040652	-0.130300	-0.061462
C337	C	0.500984	-0.230381	-0.131306
C338	C	0.464156	-0.267096	-0.112676
C339	C	0.427723	-0.296469	-0.149089
C340	C	0.428118	-0.289128	-0.204131
C341	C	0.464947	-0.252412	-0.222763
C342	C	0.501380	-0.223039	-0.186350
H343	H	0.463862	-0.272531	-0.071929
H344	H	0.400459	-0.323649	-0.135296
H345	H	0.401148	-0.310872	-0.231086
H346	H	0.465241	-0.246976	-0.263511
H347	H	0.528644	-0.195859	-0.200143
C348	C	0.665708	-0.000146	0.196421
C349	C	0.702132	-0.044223	0.194512
C350	C	0.750345	-0.044238	0.228935
C351	C	0.762135	-0.000176	0.265267
C352	C	0.725710	0.043905	0.267178
C353	C	0.677497	0.043920	0.232755
H354	H	0.693405	-0.076844	0.167615
H355	H	0.777309	-0.076870	0.227520
H356	H	0.797825	-0.000187	0.290749
H357	H	0.734436	0.076526	0.294074
H358	H	0.650533	0.076552	0.234170
H359	H	0.630615	-0.222733	-0.001719
C360	C	0.707431	-0.000142	0.434417
C361	C	0.743854	-0.044220	0.432501
C362	C	0.792069	-0.044238	0.466921
C363	C	0.803861	-0.000178	0.503256
C364	C	0.767437	0.043902	0.505173
C365	C	0.719222	0.043920	0.470754
H366	H	0.735126	-0.076838	0.405602
H367	H	0.819033	-0.076869	0.465501
H368	H	0.839553	-0.000192	0.528736
H369	H	0.776166	0.076520	0.532072
H370	H	0.692259	0.076551	0.472173
H371	H	0.630646	-0.777489	-0.001700
H372	H	0.510470	-0.777497	-0.121818
H373	H	0.654110	-0.000155	0.096024
H374	H	0.646929	-0.000113	0.802542
C375	C	0.481635	-0.000105	0.064967
C376	C	0.445183	-0.044155	0.066865
C377	C	0.396978	-0.044135	0.032430
C378	C	0.385224	-0.000065	-0.003903
C379	C	0.421676	0.043989	-0.005802
C380	C	0.469882	0.043969	0.028633
H381	H	0.453884	-0.076782	0.093762
H382	H	0.369994	-0.076747	0.033836
H383	H	0.349539	-0.000051	-0.029393
H384	H	0.412976	0.076615	-0.032699
H385	H	0.496866	0.076580	0.027227
C386	C	0.434118	-0.000057	0.396627
C387	C	0.397811	-0.044108	0.384658
C388	C	0.349030	-0.044087	0.405665
C389	C	0.336556	-0.000016	0.438642
C390	C	0.372864	0.044038	0.450612
C391	C	0.421645	0.044018	0.429605
H392	H	0.407044	-0.076735	0.360245
H393	H	0.322153	-0.076699	0.396803
H394	H	0.300446	-0.000001	0.454193
H395	H	0.363631	0.076665	0.475025
H396	H	0.448523	0.076630	0.438466
H397	H	0.447722	-0.000064	0.299717
H398	H	0.040631	0.130072	-0.061448
