data_functionalizedCrystal
_audit_creation_method	'MofGen! by Chris Wilmer'
_symmetry_space_group_name_H-M	'P1'
_symmetry_Int_Tables_number	1
_symmetry_cell_setting	triclinic
loop_
_symmetry_equiv_pos_as_xyz
  x,y,z
_cell_length_a	19.121224
_cell_length_b	12.759399
_cell_length_c	12.759393
_cell_angle_alpha	90.026988
_cell_angle_beta	92.470281
_cell_angle_gamma	92.446920
loop_
_atom_site_label
_atom_site_type_symbol
_atom_site_fract_x
_atom_site_fract_y
_atom_site_fract_z
Zn1	Zn	-1.073826	0.349881	-0.662851
Zn2	Zn	-1.073754	0.525601	-0.487177
Zn3	Zn	-0.956366	0.357407	-0.479660
Zn4	Zn	-0.956361	0.532993	-0.655292
O5	O	-1.015077	0.441470	-0.571245
O6	O	-1.172103	0.366947	-0.645857
O7	O	-1.058154	0.503345	-0.339157
O8	O	-0.971979	0.209385	-0.503978
O9	O	-1.172050	0.496048	-0.516790
O10	O	-1.058277	0.203856	-0.638567
O11	O	-0.971909	0.379774	-0.333634
O12	O	-0.858078	0.386942	-0.496649
O13	O	-0.971971	0.508647	-0.803318
O14	O	-0.858075	0.515945	-0.625685
O15	O	-1.058272	0.374115	-0.808871
O16	O	-1.058149	0.673605	-0.509461
O17	O	-0.971901	0.679036	-0.632974
C18	C	-0.832592	0.453063	-0.559532
C19	C	-0.754524	0.458048	-0.554545
C20	C	-0.312987	0.489606	-0.523003
C21	C	-0.386340	0.484917	-0.527680
C22	C	-0.423046	0.415466	-0.597326
C23	C	-0.386396	0.350693	-0.662292
C24	C	-0.313044	0.355377	-0.657609
C25	C	-0.644522	0.397959	-0.614828
C26	C	-0.717879	0.393282	-0.619509
C27	C	-0.717818	0.527505	-0.484895
C28	C	-0.644465	0.532188	-0.480222
C29	C	-0.607821	0.467411	-0.545184
C30	C	-0.498025	0.410673	-0.602111
C31	C	-0.532844	0.472199	-0.540393
C32	C	-1.015036	0.714440	-0.571237
C33	C	-1.015083	0.831214	-0.571273
C34	C	-0.198274	0.429825	-0.582992
C35	C	-0.276342	0.424840	-0.587966
C36	C	-1.060085	0.992938	-0.507083
C37	C	-1.060043	0.883217	-0.507041
C38	C	-0.970157	0.888939	-0.635544
C39	C	-0.970197	0.998658	-0.635580
C40	C	-1.015129	0.441366	-0.845282
C41	C	-1.015152	0.441322	-0.962060
C42	C	-1.015137	1.167433	-0.571292
C43	C	-1.015165	1.050655	-0.571351
C44	C	-1.060092	0.371260	-1.019815
C45	C	-1.060104	0.371214	-1.129540
C46	C	-0.970233	0.511301	-1.123745
C47	C	-0.970218	0.511341	-1.014022
C48	C	-1.015065	0.441496	-0.298277
C49	C	-1.015178	0.441236	-0.181508
H50	H	-0.614584	0.588741	-0.423508
C51	C	-0.851196	0.862821	-0.678945
C52	C	-0.920738	0.831783	-0.706157
H53	H	-0.820689	0.827532	-0.722541
H54	H	-0.844795	0.936418	-0.688162
H55	H	-0.840939	0.845545	-0.607680
H56	H	-0.930997	0.849066	-0.777420
H57	H	-0.927142	0.758170	-0.696948
H58	H	-0.614695	0.345218	-0.667730
H59	H	-0.416287	0.294140	-0.718995
H60	H	-0.933614	1.045653	-0.687917
H61	H	-0.747662	0.580242	-0.432006
C62	C	-1.148919	0.232778	-1.036569
C63	C	-1.109475	0.294286	-0.962698
H64	H	-1.179402	0.185251	-1.001306
H65	H	-1.175781	0.276830	-1.081083
H66	H	-1.118323	0.194524	-1.077404
H67	H	-1.140071	0.332546	-0.921868
H68	H	-1.082611	0.250228	-0.918165
H69	H	-0.283208	0.302634	-0.710506
C70	C	-1.154593	0.350569	-1.259024
C71	C	-1.109500	0.294200	-1.193032
H72	H	-1.185084	0.303018	-1.298225
H73	H	-1.181445	0.394644	-1.217946
H74	H	-1.127829	0.392261	-1.305668
H75	H	-1.136264	0.252514	-1.146382
H76	H	-1.082646	0.250107	-1.234113
H77	H	-0.933652	0.568310	-1.166065
H78	H	-0.416174	0.537654	-0.474779
C79	C	-0.930289	0.573598	-0.843247
C80	C	-0.920816	0.588358	-0.950527
H81	H	-0.899787	0.621137	-0.804050
H82	H	-0.977469	0.585989	-0.828305
H83	H	-0.920025	0.503661	-0.824628
H84	H	-0.931085	0.658293	-0.969147
H85	H	-0.873626	0.575975	-0.965475
C86	C	-1.148901	0.888589	-0.380039
C87	C	-1.109425	0.819775	-0.436400
H88	H	-1.179390	0.849420	-0.336431
H89	H	-1.118331	0.933396	-0.337866
H90	H	-1.175763	0.929608	-0.427599
H91	H	-1.082558	0.778761	-0.388840
H92	H	-1.139999	0.774949	-0.478577
C93	C	-0.320303	0.621800	-0.390408
C94	C	-0.272643	0.565948	-0.446444
H95	H	-0.295396	0.668926	-0.343138
H96	H	-0.348924	0.660215	-0.437941
H97	H	-0.348903	0.574136	-0.352129
H98	H	-0.244046	0.613613	-0.484729
H99	H	-0.244010	0.527532	-0.398904
H100	H	-0.747763	0.336719	-0.676221
H101	H	-0.527919	0.354129	-0.658820
C102	C	-0.540151	0.604406	-0.407803
C103	C	-0.492499	0.548539	-0.463839
H104	H	-0.515237	0.651533	-0.360541
H105	H	-0.568772	0.642821	-0.455337
H106	H	-0.568751	0.556751	-0.369515
H107	H	-0.463902	0.596194	-0.502134
H108	H	-0.463866	0.510123	-0.416299
C109	C	-1.154631	1.110182	-0.498730
C110	C	-1.109523	1.050081	-0.436490
H111	H	-1.185158	1.145447	-0.455147
H112	H	-1.127886	1.160267	-0.536989
H113	H	-1.181450	1.065584	-0.546252
H114	H	-1.082700	1.094680	-0.388973
H115	H	-1.136272	0.999989	-0.398212
