data_functionalizedCrystal
_audit_creation_method	'MofGen! by Chris Wilmer'
_symmetry_space_group_name_H-M	'P1'
_symmetry_Int_Tables_number	1
_symmetry_cell_setting	triclinic
loop_
_symmetry_equiv_pos_as_xyz
  x,y,z
_cell_length_a	14.519731
_cell_length_b	12.996460
_cell_length_c	16.109304
_cell_angle_alpha	90.003335
_cell_angle_beta	83.575745
_cell_angle_gamma	90.005673
loop_
_atom_site_label
_atom_site_type_symbol
_atom_site_fract_x
_atom_site_fract_y
_atom_site_fract_z
O1	O	1.223626	0.085562	0.109071
O2	O	1.556959	0.418896	0.442405
O3	O	1.890292	0.752229	0.775738
O4	O	0.955124	0.085563	0.121887
O5	O	1.288457	0.418897	0.455221
O6	O	1.621791	0.752230	0.788554
O7	O	1.096749	0.085563	-0.005538
O8	O	1.430083	0.418897	0.327795
O9	O	1.763416	0.752230	0.661128
O10	O	1.082000	0.085562	0.236497
O11	O	1.415334	0.418896	0.569830
O12	O	1.748667	0.752229	0.903163
O13	O	1.096735	-0.085570	-0.005545
O14	O	1.430068	0.247763	0.327788
O15	O	1.763401	0.581096	0.661121
O16	O	0.955109	-0.085571	0.121880
O17	O	1.288443	0.247763	0.455213
O18	O	1.621776	0.581096	0.788547
O19	O	1.223611	-0.085571	0.109064
O20	O	1.556944	0.247762	0.442397
O21	O	1.890277	0.581095	0.775731
Cu22	Cu	1.089359	-0.101197	0.115471
Cu23	Cu	1.422692	0.232136	0.448805
Cu24	Cu	1.756025	0.565470	0.782138
Cu25	Cu	1.089376	0.101189	0.115480
Cu26	Cu	1.422710	0.434522	0.448813
Cu27	Cu	1.756043	0.767855	0.782146
O28	O	1.081986	-0.085572	0.236490
O29	O	1.415319	0.247762	0.569823
O30	O	1.748652	0.581095	0.903156
C31	C	0.920759	-0.000003	0.121283
C32	C	1.254092	0.333330	0.454616
C33	C	1.587425	0.666663	0.787950
C34	C	0.818382	-0.000003	0.119484
C35	C	1.151716	0.333330	0.452817
C36	C	1.485049	0.666664	0.786150
N37	N	1.089353	-0.243544	0.115465
N38	N	1.422687	0.089789	0.448798
N39	N	1.756020	0.423123	0.782132
C40	C	0.735241	0.000001	0.118022
C41	C	1.068574	0.333335	0.451355
C42	C	1.401908	0.666668	0.784688
C43	C	0.630936	0.000002	0.116194
C44	C	0.964270	0.333335	0.449528
C45	C	1.297603	0.666668	0.782861
C46	C	0.547800	0.000002	0.114744
C47	C	0.881134	0.333335	0.448078
C48	C	1.214467	0.666668	0.781411
C49	C	0.443489	0.000004	0.112918
C50	C	0.776822	0.333337	0.446251
C51	C	1.110155	0.666671	0.779584
C52	C	1.089375	-0.663358	0.115481
C53	C	1.422708	-0.330025	0.448814
C54	C	1.756042	0.003308	0.782147
C55	C	1.089366	-0.546553	0.115479
C56	C	1.422699	-0.213220	0.448812
C57	C	1.756033	0.120114	0.782146
C58	C	1.089365	-0.453455	0.115474
C59	C	1.422698	-0.120121	0.448807
C60	C	1.756031	0.213212	0.782140
C61	C	1.089355	-0.336642	0.115471
C62	C	1.422688	-0.003309	0.448804
C63	C	1.756022	0.330024	0.782137
C64	C	1.257976	-0.000002	0.109668
C65	C	1.591310	0.333331	0.443002
C66	C	1.924643	0.666664	0.776335
C67	C	1.360353	0.000004	0.111468
C68	C	1.693686	0.333337	0.444801
C69	C	2.027019	0.666670	0.778134
C70	C	1.096144	-0.000001	-0.036518
C71	C	1.429478	0.333332	0.296816
C72	C	1.762811	0.666665	0.630149
C73	C	1.094352	0.000006	-0.128816
C74	C	1.427685	0.333339	0.204517
C75	C	1.761018	0.666672	0.537850
N76	N	1.089389	0.243536	0.115480
N77	N	1.422722	0.576869	0.448813
N78	N	1.756056	0.910202	0.782146
C79	C	1.090218	0.093287	-0.341157
C80	C	1.423552	0.426620	-0.007824
C81	C	1.756885	0.759954	0.325509
C82	C	1.088525	0.093286	-0.427880
C83	C	1.421859	0.426619	-0.094547
C84	C	1.755192	0.759953	0.238786
C85	C	1.088514	-0.093293	-0.427885
C86	C	1.421847	0.240040	-0.094552
C87	C	1.755181	0.573373	0.238782
C88	C	1.090200	-0.093291	-0.341163
C89	C	1.423534	0.240042	-0.007829
C90	C	1.756867	0.573375	0.325504
C91	C	1.091057	0.000002	-0.297802
C92	C	1.424390	0.333335	0.035532
C93	C	1.757724	0.666669	0.368865
C94	C	1.087678	-0.000001	-0.471247
C95	C	1.421011	0.333332	-0.137914
C96	C	1.754345	0.666666	0.195420
C97	C	1.085843	-0.000003	-0.565276
C98	C	1.419176	0.333331	-0.231943
C99	C	1.752509	0.666664	0.101390
C100	C	1.092891	0.000004	-0.203766
C101	C	1.426224	0.333337	0.129567
C102	C	1.759557	0.666671	0.462900
C103	C	1.082591	-0.000005	0.267469
C104	C	1.415924	0.333329	0.600802
C105	C	1.749257	0.666662	0.934136
C106	C	1.084383	-0.000005	0.359768
C107	C	1.417717	0.333328	0.693101
C108	C	1.751050	0.666662	1.026434
H109	H	1.090913	0.169252	-0.305855
H110	H	1.424247	0.502586	0.027479
H111	H	1.757580	0.835919	0.360812
C112	C	1.087578	-0.195910	-0.475582
C113	C	1.420911	0.137423	-0.142248
C114	C	1.754245	0.470757	0.191085
H115	H	1.088310	-0.251467	-0.437337
H116	H	1.421643	0.081866	-0.104003
H117	H	1.754976	0.415199	0.229330
H118	H	1.140666	-0.199790	-0.515670
H119	H	1.473999	0.133544	-0.182337
H120	H	1.807333	0.466877	0.150997
H121	H	1.033166	-0.199789	-0.503153
H122	H	1.366499	0.133545	-0.169820
H123	H	1.699833	0.466878	0.163514
C124	C	1.091118	-0.195907	-0.293464
C125	C	1.424452	0.137426	0.039869
C126	C	1.757785	0.470759	0.373203
H127	H	1.092233	-0.182542	-0.235604
H128	H	1.425567	0.150791	0.097729
H129	H	1.758900	0.484125	0.431063
H130	H	1.144584	-0.234244	-0.313929
H131	H	1.477917	0.099090	0.019404
H132	H	1.811251	0.432423	0.352738
H133	H	1.037084	-0.234234	-0.301420
H134	H	1.370417	0.099100	0.031913
H135	H	1.703750	0.432433	0.365246
H136	H	1.087841	0.169248	-0.463176
H137	H	1.421174	0.502582	-0.129843
H138	H	1.754507	0.835915	0.203490
