data_functionalizedCrystal
_audit_creation_method	'MofGen! by Chris Wilmer'
_symmetry_space_group_name_H-M	'P1'
_symmetry_Int_Tables_number	1
_symmetry_cell_setting	triclinic
loop_
_symmetry_equiv_pos_as_xyz
  x,y,z
_cell_length_a	14.853569
_cell_length_b	13.930277
_cell_length_c	14.853559
_cell_angle_alpha	89.997639
_cell_angle_beta	96.366362
_cell_angle_gamma	90.004857
loop_
_atom_site_label
_atom_site_type_symbol
_atom_site_fract_x
_atom_site_fract_y
_atom_site_fract_z
O1	O	-1.196364	-0.079774	0.117713
O2	O	-0.933904	-0.079786	0.131733
O3	O	-1.072148	-0.079779	-0.006507
O4	O	-1.058119	-0.079781	0.255953
O5	O	-1.072129	0.079883	-0.006510
O6	O	-0.933885	0.079875	0.131730
O7	O	-1.196344	0.079888	0.117710
Zn8	Zn	-1.065111	0.105232	0.124720
Zn9	Zn	-1.065137	-0.105130	0.124724
O10	O	-1.058100	0.079881	0.255950
C11	C	-0.900306	0.000043	0.131096
C12	C	-0.800222	0.000038	0.129191
N13	N	-1.065101	0.248798	0.124716
N14	N	-1.065155	-0.248696	0.124720
C15	C	-0.763848	0.000035	0.046180
C16	C	-0.742554	0.000044	0.210413
C17	C	-0.648520	0.000044	0.208626
C18	C	-0.612146	0.000041	0.125615
C19	C	-0.669806	0.000038	0.044390
C20	C	-0.590853	0.000057	0.289849
C21	C	-0.496812	0.000059	0.288066
C22	C	-0.460437	0.000049	0.205054
C23	C	-0.518103	0.000045	0.123826
C24	C	-0.481729	0.000042	0.040815
C25	C	-0.539394	0.000031	-0.040414
C26	C	-0.633430	0.000029	-0.038622
C27	C	-0.366400	0.000051	0.203261
C28	C	-0.387687	0.000045	0.039025
C29	C	-0.229943	0.000055	0.118347
C30	C	-0.330026	0.000049	0.120250
C31	C	-1.071505	0.000050	-0.040097
C32	C	-1.069604	0.000045	-0.140182
C33	C	-1.003920	0.701064	0.185912
C34	C	-1.126379	0.701040	0.063528
C35	C	-1.126368	0.600544	0.063525
C36	C	-1.065133	0.550303	0.124718
C37	C	-1.003909	0.600559	0.185913
C38	C	-1.187597	0.550282	0.002337
C39	C	-1.187590	0.449780	0.002332
C40	C	-1.126350	0.399537	0.063521
C41	C	-1.065122	0.449798	0.124718
C42	C	-1.003887	0.399558	0.185911
C43	C	-0.942655	0.449817	0.247104
C44	C	-0.942669	0.550316	0.247102
C45	C	-1.126336	0.299038	0.063524
C46	C	-1.003877	0.299053	0.185912
C47	C	-1.061550	-0.086987	-0.563355
C48	C	-1.061529	0.087082	-0.563353
C49	C	-1.063323	0.087083	-0.469320
C50	C	-1.064229	0.000048	-0.422300
C51	C	-1.063341	-0.086989	-0.469313
C52	C	-1.064201	0.174118	-0.422298
C53	C	-1.065994	0.174123	-0.328259
C54	C	-1.066906	0.087086	-0.281238
C55	C	-1.066020	0.000046	-0.328257
C56	C	-1.066925	-0.086990	-0.281237
C57	C	-1.066045	-0.174031	-0.328255
C58	C	-1.064254	-0.174026	-0.422292
C59	C	-1.068698	0.087081	-0.187202
C60	C	-1.068716	-0.086992	-0.187195
C61	C	-1.058744	0.000049	0.289541
C62	C	-1.060645	0.000048	0.389625
H63	H	-0.358079	0.000038	-0.028573
H64	H	-0.319454	0.000069	0.269396
H65	H	-1.069394	0.157948	-0.148921
H66	H	-1.069458	-0.157868	-0.148918
H67	H	-1.237457	0.591191	-0.047480
H68	H	-0.449869	0.000066	0.354208
H69	H	-1.063536	-0.244890	-0.460582
H70	H	-0.509766	0.000022	-0.108002
H71	H	-1.066776	-0.244895	-0.289958
H72	H	-0.810803	0.000022	-0.019955
H73	H	-1.063459	0.244978	-0.460588
H74	H	-0.680388	0.000021	-0.104754
H75	H	-1.176239	0.741949	0.013711
H76	H	-0.892801	0.408900	0.296932
H77	H	-1.060786	0.157943	-0.601642
H78	H	-0.772175	0.000053	0.277997
H79	H	-1.176194	0.258122	0.013705
H80	H	-1.060837	-0.157854	-0.601642
H81	H	-1.066714	0.244997	-0.289985
H82	H	-1.237447	0.408865	-0.047495
H83	H	-0.620476	0.000066	0.357433
H84	H	-0.954008	0.258153	0.235739
H85	H	-0.892817	0.591243	0.296924
H86	H	-0.954063	0.741987	0.235733
