data_functionalizedCrystal
_audit_creation_method	'MofGen! by Chris Wilmer'
_symmetry_space_group_name_H-M	'P1'
_symmetry_Int_Tables_number	1
_symmetry_cell_setting	triclinic
loop_
_symmetry_equiv_pos_as_xyz
  x,y,z
_cell_length_a	27.732048
_cell_length_b	16.109301
_cell_length_c	14.586319
_cell_angle_alpha	90.005214
_cell_angle_beta	89.998001
_cell_angle_gamma	83.052068
loop_
_atom_site_label
_atom_site_type_symbol
_atom_site_fract_x
_atom_site_fract_y
_atom_site_fract_z
O1	O	-0.641341	-0.098925	-0.076125
O2	O	-0.141341	0.401075	0.423875
O3	O	-0.500610	-0.113967	-0.076153
O4	O	-0.000610	0.386033	0.423847
O5	O	-0.574841	0.014633	-0.076129
O6	O	-0.074841	0.514633	0.423871
O7	O	-0.567109	-0.227525	-0.076149
O8	O	-0.067109	0.272475	0.423851
O9	O	-0.574836	0.014634	0.076352
O10	O	-0.074836	0.514634	0.576352
O11	O	-0.500605	-0.113965	0.076327
O12	O	-0.000605	0.386035	0.576327
O13	O	-0.641335	-0.098923	0.076356
O14	O	-0.141335	0.401077	0.576356
Cu15	Cu	-0.570970	-0.106444	0.090264
Cu16	Cu	-0.070970	0.393556	0.590264
Cu17	Cu	-0.570976	-0.106446	-0.090062
Cu18	Cu	-0.070976	0.393554	0.409938
O19	O	-0.567104	-0.227523	0.076331
O20	O	-0.067104	0.272477	0.576331
C21	C	-0.482599	-0.113650	0.000084
C22	C	0.017401	0.386350	0.500084
C23	C	-0.428940	-0.112700	0.000073
C24	C	0.071060	0.387300	0.500073
C25	C	-0.659346	-0.099240	0.000117
C26	C	-0.159346	0.400760	0.500117
C27	C	-0.713005	-0.100191	0.000121
C28	C	-0.213005	0.399809	0.500121
C29	C	-0.574526	0.045605	0.000112
C30	C	-0.074526	0.545605	0.500112
C31	C	-0.573586	0.137888	0.000113
C32	C	-0.073586	0.637888	0.500113
C33	C	-0.090418	-0.182708	0.000107
C34	C	0.409582	0.317292	0.500107
C35	C	0.111256	-0.179181	0.000115
C36	C	0.611256	0.320819	0.500115
O37	O	0.142244	-0.243198	0.000150
O38	O	0.642244	0.256802	0.500150
N39	N	0.130699	-0.102926	0.000120
N40	N	0.630699	0.397074	0.500120
C41	C	0.099720	-0.027548	0.000129
C42	C	0.599720	0.472452	0.500129
O43	O	0.120885	0.037392	0.000143
O44	O	0.620885	0.537392	0.500143
C45	C	-0.101954	-0.031077	0.000127
C46	C	0.398046	0.468923	0.500127
C47	C	-0.121393	-0.107336	0.000113
C48	C	0.378607	0.392664	0.500113
C49	C	-0.109859	-0.258961	0.000094
C50	C	0.390141	0.241039	0.500094
C51	C	-0.160274	-0.259842	0.000087
C52	C	0.339726	0.240158	0.500087
C53	C	-0.191250	-0.184470	0.000093
C54	C	0.308750	0.315530	0.500093
C55	C	-0.171809	-0.108217	0.000106
C56	C	0.328191	0.391783	0.500106
C57	C	-0.132932	0.044300	0.000142
C58	C	0.367068	0.544300	0.500142
C59	C	-0.183353	0.043411	0.000144
C60	C	0.316647	0.543411	0.500144
C61	C	-0.202793	-0.032848	0.000130
C62	C	0.297207	0.467152	0.500130
C63	C	-0.253200	-0.033726	0.000105
C64	C	0.246800	0.466274	0.500105
N65	N	-0.272643	-0.109981	0.000100
N66	N	0.227357	0.390019	0.500100
C67	C	-0.241668	-0.185353	0.000094
C68	C	0.258332	0.314647	0.500094
C69	C	0.205602	-0.025701	0.000128
C70	C	0.705602	0.474299	0.500128
C71	C	0.256020	-0.024819	0.000127
C72	C	0.756020	0.475181	0.500127
C73	C	0.267553	-0.176451	0.000115
C74	C	0.767553	0.323549	0.500115
C75	C	0.217134	-0.177333	0.000110
C76	C	0.717134	0.322667	0.500110
C77	C	0.186159	-0.101956	0.000123
C78	C	0.686159	0.398044	0.500123
C79	C	-0.347545	-0.187197	0.000078
C80	C	0.152455	0.312803	0.500078
C81	C	-0.397965	-0.188072	0.000067
C82	C	0.102035	0.311928	0.500067
C83	C	-0.409494	-0.036440	0.000084
C84	C	0.090506	0.463560	0.500084
C85	C	-0.359077	-0.035565	0.000090
C86	C	0.140923	0.464435	0.500090
C87	C	-0.328104	-0.110950	0.000090
C88	C	0.171896	0.389050	0.500090
O89	O	-0.284216	0.030257	0.000081
O90	O	0.215784	0.530257	0.500081
O91	O	-0.262842	-0.250283	0.000101
O92	O	0.237158	0.249717	0.500101
C93	C	-0.040003	-0.181827	0.000114
C94	C	0.459997	0.318173	0.500114
C95	C	-0.020562	-0.105574	0.000127
C96	C	0.479438	0.394426	0.500127
C97	C	-0.051537	-0.030202	0.000133
C98	C	0.448463	0.469798	0.500133
C99	C	0.029856	-0.104692	0.000126
C100	C	0.529856	0.395308	0.500126
C101	C	0.060831	-0.180064	0.000120
C102	C	0.560831	0.319936	0.500120
C103	C	0.041388	-0.256318	0.000115
C104	C	0.541388	0.243682	0.500115
C105	C	-0.009027	-0.257199	0.000108
C106	C	0.490973	0.242801	0.500108
C107	C	-0.032095	0.046052	0.000138
C108	C	0.467905	0.546052	0.500138
C109	C	0.018322	0.046927	0.000144
C110	C	0.518322	0.546927	0.500144
C111	C	0.049297	-0.028445	0.000138
C112	C	0.549297	0.471555	0.500138
C113	C	-0.567420	-0.258495	0.000089
C114	C	-0.067420	0.241505	0.500089
C115	C	-0.568359	-0.350779	0.000081
C116	C	-0.068359	0.149221	0.500081
N117	N	-0.570969	-0.106442	0.217096
N118	N	-0.070969	0.393558	0.717096
C119	C	-0.615450	0.360679	0.000107
C120	C	-0.115450	0.860679	0.500107
C121	C	-0.614564	0.447388	0.000099
C122	C	-0.114564	0.947388	0.500099
C123	C	-0.526492	0.426424	0.000085
C124	C	-0.026492	0.926424	0.500085
C125	C	-0.527378	0.339716	0.000086
C126	C	-0.027378	0.839716	0.500086
C127	C	-0.571859	0.306846	0.000102
C128	C	-0.071859	0.806846	0.500102
C129	C	-0.570086	0.480263	0.000093
C130	C	-0.070086	0.980263	0.500093
C131	C	-0.569125	0.574277	0.000084
C132	C	-0.069125	1.074277	0.500084
C133	C	-0.572820	0.212826	0.000108
C134	C	-0.072820	0.712826	0.500108
N135	N	-0.570980	-0.106442	-0.216894
N136	N	-0.070980	0.393558	0.283106
C137	C	-0.603849	-0.049517	0.452113
C138	C	-0.103849	0.450483	0.952113
C139	C	-0.603851	-0.049515	0.548094
C140	C	-0.103851	0.450485	1.048094
C141	C	-0.538096	-0.163370	0.548082
C142	C	-0.038096	0.336630	1.048082
C143	C	-0.538093	-0.163367	0.452103
C144	C	-0.038093	0.336633	0.952103
C145	C	-0.570972	-0.106442	0.404121
C146	C	-0.070972	0.393558	0.904121
C147	C	-0.570977	-0.106442	0.596081
C148	C	-0.070977	0.393558	1.096081
C149	C	-0.570978	-0.106440	0.700149
C150	C	-0.070978	0.393560	1.200149
C151	C	-0.570971	-0.106442	0.300047
C152	C	-0.070971	0.393558	0.800047
H153	H	-0.413790	-0.250174	0.000055
H154	H	0.086210	0.249826	0.500055
H155	H	-0.630621	-0.003164	0.413048
H156	H	-0.130621	0.496836	0.913048
H157	H	-0.490277	0.453197	0.000074
H158	H	0.009723	0.953197	0.500074
N159	N	-0.482843	0.284732	0.000071
N160	N	0.017157	0.784732	0.500071
N161	N	-0.443132	0.314088	0.000062
N162	N	0.056868	0.814088	0.500062
H163	H	-0.411681	0.275257	0.000048
H164	H	0.088319	0.775257	0.500048
N165	N	-0.441146	0.040540	0.000082
N166	N	0.058854	0.540540	0.500082
N167	N	-0.486160	0.039732	0.000078
N168	N	0.013840	0.539732	0.500078
H169	H	-0.508517	0.094099	0.000081
H170	H	-0.008517	0.594099	0.500081
N171	N	-0.504520	-0.221529	0.597094
N172	N	-0.004520	0.278471	1.097094
N173	N	-0.505169	-0.298370	0.586362
N174	N	-0.005169	0.201630	1.086362
H175	H	-0.481455	-0.339448	0.620974
H176	H	0.018545	0.160552	1.120974
N177	N	-0.637435	0.008642	0.597103
N178	N	-0.137435	0.508642	1.097103
N179	N	-0.666785	0.059464	0.554247
N180	N	-0.166785	0.559464	1.054247
H181	H	-0.690505	0.100542	0.588858
H182	H	-0.190505	0.600542	1.088858
H183	H	-0.084643	-0.320342	0.000093
H184	H	0.415357	0.179658	0.500093
N185	N	-0.504508	-0.221531	0.403089
N186	N	-0.004508	0.278469	0.903089
N187	N	-0.505157	-0.298372	0.413797
N188	N	-0.005157	0.201628	0.913797
H189	H	-0.481438	-0.339448	0.379182
H190	H	0.018562	0.160552	0.879182
N191	N	-0.315917	-0.264208	0.000083
N192	N	0.184083	0.235792	0.500083
N193	N	-0.333290	-0.332280	0.000073
N194	N	0.166710	0.167720	0.500073
H195	H	-0.310954	-0.386670	0.000072
H196	H	0.189046	0.113330	0.500072
H197	H	-0.176097	-0.321940	0.000075
H198	H	0.323903	0.178060	0.500075
N199	N	-0.028873	-0.335104	0.000091
N200	N	0.471127	0.164896	0.500091
N201	N	-0.001203	-0.402389	0.000084
N202	N	0.498797	0.097611	0.500084
H203	H	-0.015215	-0.457414	0.000072
H204	H	0.484785	0.042586	0.500072
N205	N	0.197287	-0.255237	0.000114
N206	N	0.697287	0.244763	0.500114
N207	N	0.206786	-0.305897	0.064385
N208	N	0.706786	0.194103	0.564385
H209	H	0.192772	-0.360921	0.064391
H210	H	0.692772	0.139079	0.564391
H211	H	0.292781	-0.237822	0.000111
H212	H	0.792781	0.262178	0.500111
H213	H	-0.651670	0.333920	0.000117
H214	H	-0.151670	0.833920	0.500117
N215	N	-0.113093	0.122208	0.000174
N216	N	0.386907	0.622208	0.500174
N217	N	-0.122599	0.172860	0.064462
N218	N	0.377401	0.672860	0.564462
H219	H	-0.108591	0.227889	0.064488
H220	H	0.391409	0.727889	0.564488
H221	H	0.271843	0.037279	0.000124
H222	H	0.771843	0.537279	0.500124
N223	N	-0.659088	0.502389	0.000121
N224	N	-0.159088	1.002389	0.500121
N225	N	-0.658292	0.579805	0.000121
N226	N	-0.158292	1.079805	0.500121
H227	H	-0.689738	0.618650	0.000137
H228	H	-0.189738	1.118650	0.500137
N229	N	0.038174	0.124832	0.000180
N230	N	0.538174	0.624832	0.500180
N231	N	0.065011	0.142238	0.064471
N232	N	0.565011	0.642238	0.564471
H233	H	0.079031	0.197257	0.064506
H234	H	0.579031	0.697257	0.564506
N235	N	0.173966	0.051301	0.000152
N236	N	0.673966	0.551301	0.500152
N237	N	0.175738	0.102164	0.064431
N238	N	0.675738	0.602164	0.564431
H239	H	0.153397	0.156548	0.064446
H240	H	0.653397	0.656548	0.564446
N241	N	-0.214985	0.120418	0.000167
N242	N	0.285015	0.620418	0.500167
N243	N	-0.197617	0.188494	0.000184
N244	N	0.302383	0.688494	0.500184
H245	H	-0.219956	0.242880	0.000201
H246	H	0.280044	0.742880	0.500201
N247	N	-0.339225	0.042337	0.000089
N248	N	0.160775	0.542337	0.500089
N249	N	-0.366890	0.109628	0.000089
N250	N	0.133110	0.609628	0.500089
H251	H	-0.352872	0.164648	0.000096
H252	H	0.147128	0.664648	0.500096
H253	H	0.066617	-0.317688	0.000107
H254	H	0.566617	0.182312	0.500107
H255	H	-0.057310	0.107431	0.000145
H256	H	0.442690	0.607431	0.500145
