data_functionalizedCrystal
_audit_creation_method	'MofGen! by Chris Wilmer'
_symmetry_space_group_name_H-M	'P1'
_symmetry_Int_Tables_number	1
_symmetry_cell_setting	triclinic
loop_
_symmetry_equiv_pos_as_xyz
  x,y,z
_cell_length_a	10.654550
_cell_length_b	14.853567
_cell_length_c	9.730223
_cell_angle_alpha	90.002458
_cell_angle_beta	89.996251
_cell_angle_gamma	84.059917
loop_
_atom_site_label
_atom_site_type_symbol
_atom_site_fract_x
_atom_site_fract_y
_atom_site_fract_z
O1	O	1.666519	0.126622	-0.114390
O2	O	1.300915	0.138686	-0.114367
O3	O	1.493482	0.001477	-0.114383
O4	O	1.473951	0.263832	-0.114374
O5	O	1.493480	0.001480	0.114197
O6	O	1.300912	0.138690	0.114213
O7	O	1.666516	0.126625	0.114190
Zn8	Zn	1.483714	0.132658	0.150493
Zn9	Zn	1.483717	0.132654	-0.150671
O10	O	1.473949	0.263835	0.114206
C11	C	1.254125	0.137802	-0.000074
C12	C	1.114709	0.135152	-0.000066
C13	C	1.034384	0.215939	-0.000083
C14	C	0.903389	0.213443	-0.000107
C15	C	0.933057	0.049367	-0.000102
C16	C	1.064050	0.051863	-0.000068
C17	C	1.085044	0.299227	-0.000080
C18	C	1.004717	0.380021	-0.000099
C19	C	0.873722	0.377525	-0.000123
C20	C	0.823054	0.294236	-0.000128
C21	C	1.492596	-0.032115	-0.000097
C22	C	1.489944	-0.132213	-0.000109
C23	C	1.364344	-0.545419	-0.000075
C24	C	1.593119	-0.565475	-0.000090
C25	C	1.595613	-0.471428	-0.000098
C26	C	1.482470	-0.414372	-0.000093
C27	C	1.366834	-0.451363	-0.000079
C28	C	1.711247	-0.434430	-0.000097
C29	C	1.713745	-0.340378	-0.000104
C30	C	1.600601	-0.283320	-0.000109
C31	C	1.484961	-0.320316	-0.000097
C32	C	1.371818	-0.263260	-0.000091
C33	C	1.256176	-0.300254	-0.000089
C34	C	1.253691	-0.394305	-0.000084
C35	C	1.603087	-0.189269	-0.000114
C36	C	1.374308	-0.169204	-0.000096
C37	C	1.713306	0.127510	-0.000106
C38	C	1.852722	0.130160	-0.000123
C39	C	1.474835	0.297427	-0.000083
C40	C	1.477487	0.397525	-0.000080
N41	N	1.483721	0.132661	0.356030
N42	N	1.483720	0.132644	-0.356207
C43	C	1.569012	0.071925	0.427949
C44	C	1.569009	0.071914	0.571832
C45	C	1.398420	0.193382	0.571864
C46	C	1.398418	0.193388	0.427984
C47	C	1.654315	0.011198	0.355994
C48	C	1.739614	-0.049542	0.427913
C49	C	1.739610	-0.049553	0.571796
C50	C	1.654309	0.011176	0.643760
H51	H	0.891792	-0.018443	-0.000129
O52	O	1.654449	0.011059	0.216228
C53	C	1.748110	-0.055530	0.009732
C54	C	1.748074	-0.055488	0.168013
H55	H	1.823816	-0.109315	-0.029298
H56	H	1.651815	-0.071037	-0.029408
H57	H	1.768782	0.013787	-0.029278
H58	H	1.727455	-0.124786	0.207141
H59	H	1.844377	-0.039931	0.207059
H60	H	1.328972	0.242826	0.630467
H61	H	1.328965	0.242844	0.369427
H62	H	1.809055	-0.099016	0.630351
O63	O	1.053782	0.460978	-0.000273
C64	C	1.068587	0.601950	-0.118731
C65	C	1.012920	0.510304	-0.118689
H66	H	1.035594	0.641848	-0.214474
H67	H	1.035459	0.641980	-0.023141
H68	H	1.176007	0.589839	-0.118646
H69	H	0.905499	0.522333	-0.118822
H70	H	1.046147	0.470304	-0.214271
H71	H	1.164056	-0.253787	-0.000075
H72	H	1.270191	-0.575545	-0.000079
O73	O	1.264282	-0.113912	-0.000032
C74	C	1.037103	-0.103945	-0.000115
C75	C	1.161611	-0.166665	-0.000153
H76	H	0.954061	-0.146570	-0.000242
H77	H	1.032454	-0.059426	0.095569
H78	H	1.032624	-0.059394	-0.095752
H79	H	1.166173	-0.211272	0.095419
H80	H	1.166208	-0.211123	-0.095900
H81	H	1.159541	-0.424435	-0.000080
H82	H	1.807907	-0.310265	-0.000108
H83	H	0.716388	0.292210	-0.000126
H84	H	1.129453	-0.013920	-0.000058
H85	H	1.809057	-0.098991	0.369313
H86	H	1.191705	0.301268	-0.000067
H87	H	0.808324	0.443311	-0.000124
H88	H	1.685234	-0.611936	-0.000083
H89	H	1.803361	-0.480892	-0.000089
H90	H	1.697240	-0.159152	-0.000107
H91	H	1.654305	0.011155	0.760920
