data_functionalizedCrystal
_audit_creation_method	'MofGen! by Chris Wilmer'
_symmetry_space_group_name_H-M	'P1'
_symmetry_Int_Tables_number	1
_symmetry_cell_setting	triclinic
loop_
_symmetry_equiv_pos_as_xyz
  x,y,z
_cell_length_a	10.654544
_cell_length_b	15.072220
_cell_length_c	15.995350
_cell_angle_alpha	89.998899
_cell_angle_beta	83.988613
_cell_angle_gamma	90.013591
loop_
_atom_site_label
_atom_site_type_symbol
_atom_site_fract_x
_atom_site_fract_y
_atom_site_fract_z
O1	O	1.666321	0.073800	0.117596
O2	O	1.300696	0.073796	0.128801
O3	O	1.493504	0.073797	0.001369
O4	O	1.473514	0.073799	0.245028
O5	O	1.493456	-0.073768	0.001376
O6	O	1.300649	-0.073769	0.128808
O7	O	1.666274	-0.073765	0.117603
Zn8	Zn	1.483454	-0.097196	0.123207
Zn9	Zn	1.483516	0.097227	0.123198
O10	O	1.473467	-0.073766	0.245035
C11	C	1.253885	0.000013	0.127982
C12	C	1.114474	0.000012	0.125520
N13	N	1.483420	-0.229885	0.123212
C14	C	1.114397	-0.160868	0.125538
C15	C	1.048864	-0.241305	0.124392
C16	C	0.917876	-0.241301	0.122078
C17	C	0.852418	-0.160851	0.120907
C18	C	0.917951	-0.080414	0.122052
C19	C	1.048942	-0.080427	0.124369
C20	C	0.918029	0.080464	0.122029
C21	C	1.049016	0.080462	0.124349
C22	C	0.852572	0.160914	0.120858
C23	C	0.918104	0.241353	0.122009
C24	C	1.049100	0.241345	0.124324
C25	C	1.114550	0.160899	0.125495
C26	C	1.483514	-0.589086	0.123194
C27	C	1.380000	-0.551480	0.191148
C28	C	1.380238	-0.448654	0.191400
C29	C	1.483466	-0.410882	0.123203
C30	C	1.614500	-0.448172	0.143046
C31	C	1.613920	-0.551030	0.143530
C32	C	1.457162	-0.551188	0.035202
C33	C	1.454156	-0.448324	0.035770
C34	C	1.483448	-0.310169	0.123207
C35	C	1.483541	-0.689800	0.123193
C36	C	1.713085	0.000020	0.118423
C37	C	1.852496	0.000027	0.120884
C38	C	1.492653	0.000017	-0.029827
C39	C	1.490176	0.000022	-0.122792
N40	N	1.483560	0.229916	0.123185
C41	C	1.481278	0.000019	-0.460591
C42	C	1.343965	0.000348	-0.413954
C43	C	1.346443	0.000016	-0.317250
C44	C	1.485692	0.000021	-0.293005
C45	C	1.553393	-0.084244	-0.333685
C46	C	1.549943	-0.084315	-0.430341
C47	C	1.552834	0.083494	-0.430690
C48	C	1.552802	0.084608	-0.333745
C49	C	1.488193	0.000019	-0.198293
C50	C	1.478781	0.000014	-0.555303
C51	C	1.474317	0.000017	0.276231
C52	C	1.476794	0.000017	0.369196
H53	H	1.221052	-0.160879	0.127433
Cl54	Cl	1.229836	-0.409728	0.173029
Cl55	Cl	0.835814	0.342478	0.120515
Cl56	Cl	1.131159	-0.342436	0.125865
H57	H	0.864517	-0.306800	0.121152
H58	H	1.282286	-0.576242	0.179399
Cl59	Cl	0.687898	0.160919	0.117956
Cl60	Cl	1.480736	-0.181067	-0.290289
Cl61	Cl	1.736302	-0.589439	0.070001
H62	H	1.507960	0.147362	-0.451494
H63	H	1.655694	-0.087374	-0.318965
H64	H	1.693368	-0.423703	0.094900
H65	H	1.102450	0.306847	0.125255
Cl66	Cl	1.705584	-0.090225	-0.479229
H67	H	1.638276	-0.422402	0.206514
Cl68	Cl	1.312818	-0.591285	0.006051
Cl69	Cl	1.305337	-0.410698	0.012544
Cl70	Cl	1.406167	-0.410645	0.292199
H71	H	1.503304	0.146945	-0.306787
H72	H	1.293224	0.060420	-0.289140
Cl73	Cl	1.563010	-0.408646	-0.046054
H74	H	1.221206	0.160885	0.127385
Cl75	Cl	1.573706	-0.588733	-0.042887
Cl76	Cl	0.687747	-0.160849	0.117993
H77	H	1.654075	0.084064	-0.461863
Cl78	Cl	1.473654	-0.181567	-0.459038
H79	H	1.654349	0.089700	-0.317794
H80	H	1.396595	-0.577318	0.256062
H81	H	1.637141	-0.575011	0.207725
Cl82	Cl	1.259252	0.093645	-0.443060
H83	H	1.292827	-0.060493	-0.289693
Cl84	Cl	1.259340	-0.092155	-0.445050
