data_functionalizedCrystal
_audit_creation_method	'MofGen! by Chris Wilmer'
_symmetry_space_group_name_H-M	'P1'
_symmetry_Int_Tables_number	1
_symmetry_cell_setting	triclinic
loop_
_symmetry_equiv_pos_as_xyz
  x,y,z
_cell_length_a	18.215407
_cell_length_b	18.215404
_cell_length_c	18.215399
_cell_angle_alpha	89.970747
_cell_angle_beta	90.014360
_cell_angle_gamma	89.979339
loop_
_atom_site_label
_atom_site_type_symbol
_atom_site_fract_x
_atom_site_fract_y
_atom_site_fract_z
Zn1	Zn	1.125059	0.293025	0.416073
Zn2	Zn	1.375059	0.543025	0.666073
Zn3	Zn	1.625059	0.793025	0.916073
Zn4	Zn	1.875059	1.043025	1.166073
Zn5	Zn	1.124977	0.416101	0.293009
Zn6	Zn	1.374977	0.666101	0.543009
Zn7	Zn	1.624977	0.916101	0.793009
Zn8	Zn	1.874977	1.166101	1.043009
Zn9	Zn	1.001998	0.293047	0.293026
Zn10	Zn	1.251998	0.543047	0.543026
Zn11	Zn	1.501998	0.793047	0.793026
Zn12	Zn	1.751998	1.043047	1.043026
Zn13	Zn	1.001961	0.416048	0.416039
Zn14	Zn	1.251961	0.666048	0.666039
Zn15	Zn	1.501961	0.916048	0.916039
Zn16	Zn	1.751961	1.166048	1.166039
O17	O	1.063498	0.354555	0.354537
O18	O	1.313498	0.604555	0.604537
O19	O	1.563498	0.854555	0.854537
O20	O	1.813498	1.104555	1.104537
O21	O	1.228032	0.309363	0.399756
O22	O	1.478032	0.559363	0.649756
O23	O	1.728032	0.809363	0.899756
O24	O	1.978032	1.059363	1.149756
O25	O	1.108645	0.399809	0.190027
O26	O	1.358645	0.649809	0.440027
O27	O	1.608645	0.899809	0.690027
O28	O	1.858645	1.149809	0.940027
O29	O	1.018372	0.190060	0.309369
O30	O	1.268372	0.440060	0.559369
O31	O	1.518372	0.690060	0.809369
O32	O	1.768372	0.940060	1.059369
O33	O	1.227972	0.399787	0.309341
O34	O	1.477972	0.649787	0.559341
O35	O	1.727972	0.899787	0.809341
O36	O	1.977972	1.149787	1.059341
O37	O	1.108784	0.190043	0.399772
O38	O	1.358784	0.440043	0.649772
O39	O	1.608784	0.690043	0.899772
O40	O	1.858784	0.940043	1.149772
O41	O	1.018292	0.309402	0.190039
O42	O	1.268292	0.559402	0.440039
O43	O	1.518292	0.809402	0.690039
O44	O	1.768292	1.059402	0.940039
O45	O	0.899008	0.309351	0.309337
O46	O	1.149008	0.559351	0.559337
O47	O	1.399008	0.809351	0.809337
O48	O	1.649008	1.059351	1.059337
O49	O	1.018308	0.399697	0.519028
O50	O	1.268308	0.649697	0.769028
O51	O	1.518308	0.899697	1.019028
O52	O	1.768308	1.149697	1.269028
O53	O	0.898981	0.399720	0.399714
O54	O	1.148981	0.649720	0.649714
O55	O	1.398981	0.899720	0.899714
O56	O	1.648981	1.149720	1.149714
O57	O	1.108748	0.309312	0.519053
O58	O	1.358748	0.559312	0.769053
O59	O	1.608748	0.809312	1.019053
O60	O	1.858748	1.059312	1.269053
O61	O	1.108609	0.519078	0.309308
O62	O	1.358609	0.769078	0.559308
O63	O	1.608609	1.019078	0.809308
O64	O	1.858609	1.269078	1.059308
O65	O	1.018229	0.519040	0.399698
O66	O	1.268229	0.769040	0.649698
O67	O	1.518229	1.019040	0.899698
O68	O	1.768229	1.269040	1.149698
C69	C	0.872292	0.354533	0.354524
C70	C	1.122292	0.604533	0.604524
C71	C	1.372292	0.854533	0.854524
C72	C	1.622292	1.104533	1.104524
C73	C	0.790493	0.354541	0.354536
C74	C	1.040493	0.604541	0.604536
C75	C	1.290493	0.854541	0.854536
C76	C	1.540493	1.104541	1.104536
C77	C	1.063426	0.545762	0.354514
C78	C	1.313426	0.795762	0.604514
C79	C	1.563426	1.045762	0.854514
C80	C	1.813426	1.295762	1.104514
C81	C	1.063463	0.627560	0.354529
C82	C	1.313463	0.877560	0.604529
C83	C	1.563463	1.127560	0.854529
C84	C	1.813463	1.377560	1.104529
C85	C	0.602330	0.307554	0.401689
C86	C	0.852330	0.557554	0.651689
C87	C	1.102330	0.807554	0.901689
C88	C	1.352330	1.057554	1.151689
C89	C	0.525471	0.307560	0.401692
C90	C	0.775471	0.557560	0.651692
C91	C	1.025471	0.807560	0.901692
C92	C	1.275471	1.057560	1.151692
C93	C	0.525419	0.401577	0.307398
C94	C	0.775419	0.651577	0.557398
C95	C	1.025419	0.901577	0.807398
C96	C	1.275419	1.151577	1.057398
C97	C	0.602277	0.401567	0.307392
C98	C	0.852277	0.651567	0.557392
C99	C	1.102277	0.901567	0.807392
C100	C	1.352277	1.151567	1.057392
C101	C	0.640730	0.354556	0.354542
C102	C	0.890730	0.604556	0.604542
C103	C	1.140730	0.854556	0.854542
C104	C	1.390730	1.104556	1.104542
C105	C	0.487014	0.354573	0.354550
C106	C	0.737014	0.604573	0.604550
C107	C	0.987014	0.854573	0.854550
C108	C	1.237014	1.104573	1.104550
C109	C	0.403680	0.354580	0.354552
C110	C	0.653680	0.604580	0.604552
C111	C	0.903680	0.854580	0.854552
C112	C	1.153680	1.104580	1.104552
C113	C	0.724069	0.354548	0.354539
C114	C	0.974069	0.604548	0.604539
C115	C	1.224069	0.854548	0.854539
C116	C	1.474069	1.104548	1.104539
C117	C	1.110664	0.892614	0.307574
C118	C	1.360664	1.142614	0.557574
C119	C	1.610664	1.392614	0.807574
C120	C	1.860664	1.642614	1.057574
C121	C	1.110633	0.815755	0.307554
C122	C	1.360633	1.065755	0.557554
C123	C	1.610633	1.315755	0.807554
C124	C	1.860633	1.565755	1.057554
C125	C	1.016434	0.815756	0.401595
C126	C	1.266434	1.065756	0.651595
C127	C	1.516434	1.315756	0.901595
C128	C	1.766434	1.565756	1.151595
C129	C	1.016462	0.892613	0.401611
C130	C	1.266462	1.142613	0.651611
C131	C	1.516462	1.392613	0.901611
C132	C	1.766462	1.642613	1.151611
C133	C	1.063581	0.931040	0.354601
C134	C	1.313581	1.181040	0.604601
C135	C	1.563581	1.431040	0.854601
C136	C	1.813581	1.681040	1.104601
C137	C	1.063522	0.777324	0.354565
C138	C	1.313522	1.027324	0.604565
C139	C	1.563522	1.277324	0.854565
C140	C	1.813522	1.527324	1.104565
C141	C	1.063488	0.693990	0.354543
C142	C	1.313488	0.943990	0.604543
C143	C	1.563488	1.193990	0.854543
C144	C	1.813488	1.443990	1.104543
C145	C	1.063615	1.014379	0.354622
C146	C	1.313615	1.264379	0.604622
C147	C	1.563615	1.514379	0.854622
C148	C	1.813615	1.764379	1.104622
C149	C	1.255451	0.354579	0.354550
C150	C	1.505451	0.604579	0.604550
C151	C	1.755451	0.854579	0.854550
C152	C	2.005451	1.104579	1.104550
C153	C	1.337250	0.354588	0.354556
C154	C	1.587250	0.604588	0.604556
C155	C	1.837250	0.854588	0.854556
C156	C	2.087250	1.104588	1.104556
C157	C	1.063533	0.354497	0.546490
C158	C	1.313533	0.604497	0.796490
C159	C	1.563533	0.854497	1.046490
C160	C	1.813533	1.104497	1.296490
C161	C	1.063548	0.354471	0.628289
C162	C	1.313548	0.604471	0.878289
C163	C	1.563548	0.854471	1.128289
C164	C	1.813548	1.104471	1.378289
C165	C	1.063594	1.162602	0.354587
C166	C	1.313594	1.412602	0.604587
C167	C	1.563594	1.662602	0.854587
C168	C	1.813594	1.912602	1.104587
C169	C	1.063641	1.080803	0.354638
C170	C	1.313641	1.330803	0.604638
C171	C	1.563641	1.580803	0.854638
C172	C	1.813641	1.830803	1.104638
C173	C	1.063506	0.354561	0.163331
C174	C	1.313506	0.604561	0.413331
C175	C	1.563506	0.854561	0.663331
C176	C	1.813506	1.104561	0.913331
C177	C	1.063634	0.354379	0.081532
C178	C	1.313634	0.604379	0.331532
C179	C	1.563634	0.854379	0.581532
C180	C	1.813634	1.104379	0.831532
C181	C	1.016541	0.307365	0.816490
C182	C	1.266541	0.557365	1.066490
C183	C	1.516541	0.807365	1.316490
C184	C	1.766541	1.057365	1.566490
C185	C	1.016554	0.307350	0.893349
C186	C	1.266554	0.557350	1.143349
C187	C	1.516554	0.807350	1.393349
C188	C	1.766554	1.057350	1.643349
C189	C	1.110643	0.401490	0.893325
C190	C	1.360643	0.651490	1.143325
C191	C	1.610643	0.901490	1.393325
C192	C	1.860643	1.151490	1.643325
C193	C	1.110626	0.401508	0.816468
C194	C	1.360626	0.651508	1.066468
C195	C	1.610626	0.901508	1.316468
C196	C	1.860626	1.151508	1.566468
C197	C	1.063576	0.354441	0.778052
C198	C	1.313576	0.604441	1.028052
C199	C	1.563576	0.854441	1.278052
C200	C	1.813576	1.104441	1.528052
C201	C	1.063606	0.354409	0.931769
C202	C	1.313606	0.604409	1.181769
C203	C	1.563606	0.854409	1.431769
C204	C	1.813606	1.104409	1.681769
C205	C	1.063620	0.354393	1.015102
C206	C	1.313620	0.604393	1.265102
C207	C	1.563620	0.854393	1.515102
C208	C	1.813620	1.104393	1.765102
C209	C	1.063561	0.354458	0.694713
C210	C	1.313561	0.604458	0.944713
C211	C	1.563561	0.854458	1.194713
C212	C	1.813561	1.104458	1.444713
H213	H	0.494209	0.269285	0.440082
H214	H	0.744209	0.519285	0.690082
H215	H	0.994209	0.769285	0.940082
H216	H	1.244209	1.019285	1.190082
H217	H	1.148949	0.439810	0.924613
H218	H	1.398949	0.689810	1.174613
H219	H	1.648949	0.939810	1.424613
H220	H	1.898949	1.189810	1.674613
C221	C	1.162484	0.934885	0.255860
C222	C	1.412484	1.184885	0.505860
C223	C	1.662484	1.434885	0.755860
C224	C	1.912484	1.684885	1.005860
H225	H	1.155763	0.986162	0.262608
H226	H	1.405763	1.236162	0.512608
H227	H	1.655763	1.486162	0.762608
H228	H	1.905763	1.736162	1.012608
H229	H	1.151741	0.922331	0.206402
H230	H	1.401741	1.172331	0.456402
H231	H	1.651741	1.422331	0.706402
H232	H	1.901741	1.672331	0.956402
H233	H	1.211922	0.922245	0.266677
H234	H	1.461922	1.172245	0.516677
H235	H	1.711922	1.422245	0.766677
H236	H	1.961922	1.672245	1.016677
H237	H	0.978119	0.923901	0.439907
H238	H	1.228119	1.173901	0.689907
H239	H	1.478119	1.423901	0.939907
H240	H	1.728119	1.673901	1.189907
H241	H	1.148929	0.439847	0.785171
H242	H	1.398929	0.689847	1.035171
H243	H	1.648929	0.939847	1.285171
H244	H	1.898929	1.189847	1.535171
H245	H	0.633543	0.439842	0.268995
H246	H	0.883543	0.689842	0.518995
H247	H	1.133543	0.939842	0.768995
H248	H	1.383543	1.189842	1.018995
H249	H	0.978253	0.269016	0.924641
H250	H	1.228253	0.519016	1.174641
H251	H	1.478253	0.769016	1.424641
H252	H	1.728253	1.019016	1.674641
C253	C	0.483119	0.453291	0.255544
C254	C	0.733119	0.703291	0.505544
C255	C	0.983119	0.953291	0.755544
C256	C	1.233119	1.203291	1.005544
H257	H	0.431845	0.446572	0.262304
H258	H	0.681845	0.696572	0.512304
H259	H	0.931845	0.946572	0.762304
H260	H	1.181845	1.196572	1.012304
H261	H	0.495699	0.442463	0.206114
H262	H	0.745699	0.692463	0.456114
H263	H	0.995699	0.942463	0.706114
H264	H	1.245699	1.192463	0.956114
H265	H	0.495709	0.502751	0.266235
H266	H	0.745709	0.752751	0.516235
H267	H	0.995709	1.002751	0.766235
H268	H	1.245709	1.252751	1.016235
H269	H	1.148971	0.784470	0.269259
H270	H	1.398971	1.034470	0.519259
H271	H	1.648971	1.284470	0.769259
H272	H	1.898971	1.534470	1.019259
C273	C	0.644626	0.255839	0.453546
C274	C	0.894626	0.505839	0.703546
C275	C	1.144626	0.755839	0.953546
C276	C	1.394626	1.005839	1.203546
H277	H	0.610745	0.227843	0.481620
H278	H	0.860745	0.477843	0.731620
H279	H	1.110745	0.727843	0.981620
H280	H	1.360745	0.977843	1.231620
H281	H	0.674613	0.284022	0.485562
H282	H	0.924613	0.534022	0.735562
H283	H	1.174613	0.784022	0.985562
H284	H	1.424613	1.034022	1.235562
H285	H	0.674604	0.223733	0.425441
H286	H	0.924604	0.473733	0.675441
H287	H	1.174604	0.723733	0.925441
H288	H	1.424604	0.973733	1.175441
C289	C	0.964615	0.773484	0.453307
C290	C	1.214615	1.023484	0.703307
C291	C	1.464615	1.273484	0.953307
C292	C	1.714615	1.523484	1.203307
H293	H	0.971346	0.722206	0.446569
H294	H	1.221346	0.972206	0.696569
H295	H	1.471346	1.222206	0.946569
H296	H	1.721346	1.472206	1.196569
H297	H	0.915179	0.786121	0.442496
H298	H	1.165179	1.036121	0.692496
H299	H	1.415179	1.286121	0.942496
H300	H	1.665179	1.536121	1.192496
H301	H	0.975363	0.786038	0.502769
H302	H	1.225363	1.036038	0.752769
H303	H	1.475363	1.286038	1.002769
H304	H	1.725363	1.536038	1.252769
H305	H	0.978230	0.269040	0.785214
H306	H	1.228230	0.519040	1.035214
H307	H	1.478230	0.769040	1.285214
H308	H	1.728230	1.019040	1.535214
