data_functionalizedCrystal
_audit_creation_method	'MofGen! by Chris Wilmer'
_symmetry_space_group_name_H-M	'P1'
_symmetry_Int_Tables_number	1
_symmetry_cell_setting	triclinic
loop_
_symmetry_equiv_pos_as_xyz
  x,y,z
_cell_length_a	19.288864
_cell_length_b	16.109301
_cell_length_c	17.766277
_cell_angle_alpha	89.992214
_cell_angle_beta	89.976791
_cell_angle_gamma	83.298863
loop_
_atom_site_label
_atom_site_type_symbol
_atom_site_fract_x
_atom_site_fract_y
_atom_site_fract_z
O1	O	0.921601	0.103716	-0.062838
O2	O	0.719373	0.117707	-0.062787
O3	O	0.826042	-0.010338	-0.062806
O4	O	0.814932	0.231761	-0.062819
O5	O	0.826024	-0.010345	0.062382
O6	O	0.719355	0.117701	0.062402
O7	O	0.921582	0.103710	0.062351
Cu8	Cu	0.820467	0.110704	0.073807
Cu9	Cu	0.820489	0.110712	-0.074243
O10	O	0.814913	0.231755	0.062370
C11	C	0.693487	0.117254	-0.000186
C12	C	0.616380	0.115902	-0.000166
C13	C	0.571863	0.191034	-0.000182
C14	C	0.499413	0.189764	-0.000190
C15	C	0.471483	0.113359	-0.000198
C16	C	0.516009	0.038218	-0.000178
C17	C	0.588458	0.039489	-0.000162
C18	C	0.363084	0.053298	-0.044079
C19	C	0.290636	0.052029	-0.044100
C20	C	0.248028	0.109433	-0.000243
C21	C	0.277874	0.168120	0.043624
C22	C	0.350323	0.169391	0.043640
C23	C	0.392925	0.111971	-0.000214
C24	C	0.124952	0.183193	-0.000267
C25	C	0.052501	0.181920	-0.000270
C26	C	0.069099	0.030372	-0.000266
C27	C	0.141548	0.031647	-0.000254
C28	C	0.169470	0.108060	-0.000259
C29	C	0.825583	-0.041315	-0.000211
C30	C	0.824234	-0.133606	-0.000210
C31	C	0.884391	-0.356084	-0.000237
C32	C	0.883118	-0.442800	-0.000243
C33	C	0.756559	-0.422493	-0.000208
C34	C	0.757833	-0.335778	-0.000208
C35	C	0.821751	-0.302577	-0.000218
C36	C	0.819204	-0.476007	-0.000225
C37	C	0.817823	-0.570028	-0.000231
C38	C	0.823133	-0.208549	-0.000213
C39	C	0.947469	0.104163	-0.000252
C40	C	1.024576	0.105514	-0.000277
C41	C	0.815372	0.262732	-0.000227
C42	C	0.816722	0.355022	-0.000233
N43	N	0.820456	0.110699	0.177937
N44	N	0.820505	0.110711	-0.178373
C45	C	0.867704	0.054028	0.217315
C46	C	0.867708	0.054024	0.296117
C47	C	0.820471	0.110705	0.335538
C48	C	0.773214	0.167380	0.296150
C49	C	0.773206	0.167377	0.217350
C50	C	0.811353	0.186459	0.460373
C51	C	0.811365	0.186463	0.539172
C52	C	0.820489	0.110715	0.578584
C53	C	0.829616	0.034960	0.539188
C54	C	0.829609	0.034956	0.460387
C55	C	0.820473	0.110715	0.420983
C56	C	0.867745	0.054035	0.703408
C57	C	0.867744	0.054030	0.782212
C58	C	0.773252	0.167394	0.782243
C59	C	0.773250	0.167392	0.703441
C60	C	0.820500	0.110713	0.664028
H61	H	0.147687	0.245413	-0.000259
N62	N	0.687625	-0.458312	-0.000186
H63	H	0.660178	-0.438786	0.046230
H64	H	0.660241	-0.438769	-0.046615
H65	H	0.397771	0.006551	-0.079797
H66	H	0.734788	0.213542	0.814338
H67	H	0.734778	0.213542	0.671377
N68	N	0.690268	-0.278059	-0.000193
H69	H	0.649583	-0.312248	-0.000181
H70	H	0.688035	-0.241643	0.046216
N71	N	0.950679	-0.500515	-0.000254
H72	H	0.952981	-0.536937	-0.046663
H73	H	0.991322	-0.466263	-0.000231
N74	N	0.918662	-0.007104	0.174806
H75	H	0.948594	-0.043006	0.211715
H76	H	0.892080	-0.043783	0.142134
N77	N	0.451386	0.270801	-0.000209
H78	H	0.480068	0.319400	-0.000209
H79	H	0.420994	0.273566	-0.046627
N80	N	0.231928	0.230028	0.090941
H81	H	0.261828	0.267393	0.118734
H82	H	0.197977	0.265154	0.057301
N83	N	0.918669	-0.007104	0.338603
H84	H	0.948599	-0.043010	0.301678
H85	H	0.949364	0.024641	0.371275
N86	N	0.839452	-0.046744	0.417896
H87	H	0.797269	-0.051549	0.385222
H88	H	0.882468	-0.048634	0.385224
N89	N	0.839462	-0.046748	0.581683
H90	H	0.838079	-0.035255	0.637580
H91	H	0.800857	-0.081256	0.567932
N92	N	0.918720	-0.007086	0.824683
H93	H	0.910753	-0.066077	0.810983
H94	H	0.967980	0.002436	0.810915
H95	H	0.906216	0.007882	0.671317
N96	N	0.953329	-0.320274	-0.000250
H97	H	0.980778	-0.339794	-0.046666
H98	H	0.944575	-0.257227	-0.000215
H99	H	0.374621	0.217173	0.079360
H100	H	0.624704	-0.021694	-0.000150
H101	H	0.177795	-0.029534	-0.000246
H102	H	0.803938	0.248147	0.571243
H103	H	0.016255	0.243104	-0.000279
N104	N	0.722260	0.228512	0.338662
H105	H	0.729435	0.219916	0.394558
H106	H	0.730263	0.287469	0.324873
H107	H	0.046359	-0.031839	-0.000318
H108	H	0.803911	0.248146	0.428290
H109	H	0.734730	0.213526	0.185287
H110	H	0.594592	0.253255	-0.000187
H111	H	0.493264	-0.023992	-0.000194
N112	N	0.258447	-0.011262	-0.091412
H113	H	0.296432	-0.047441	-0.119184
H114	H	0.232272	-0.047435	-0.057771
