data_functionalizedCrystal
_audit_creation_method	'MofGen! by Chris Wilmer'
_symmetry_space_group_name_H-M	'P1'
_symmetry_Int_Tables_number	1
_symmetry_cell_setting	triclinic
loop_
_symmetry_equiv_pos_as_xyz
  x,y,z
_cell_length_a	10.654550
_cell_length_b	16.992695
_cell_length_c	16.053810
_cell_angle_alpha	92.752725
_cell_angle_beta	87.403399
_cell_angle_gamma	87.576563
loop_
_atom_site_label
_atom_site_type_symbol
_atom_site_fract_x
_atom_site_fract_y
_atom_site_fract_z
O1	O	-1.682315	-0.106900	0.069499
O2	O	-1.182315	0.393100	0.569499
O3	O	-1.317743	-0.117398	0.069486
O4	O	-0.817743	0.382602	0.569486
O5	O	-1.498567	0.002001	0.069486
O6	O	-0.998567	0.502001	0.569486
O7	O	-1.501491	-0.226299	0.069500
O8	O	-1.001491	0.273701	0.569500
O9	O	-1.488657	-0.004569	-0.069373
O10	O	-0.988657	0.495431	0.430627
O11	O	-1.307833	-0.123969	-0.069373
O12	O	-0.807833	0.376031	0.430627
O13	O	-1.672405	-0.113470	-0.069359
O14	O	-1.172405	0.386530	0.430641
Zn15	Zn	-1.488546	-0.119762	-0.091413
Zn16	Zn	-0.988546	0.380238	0.408587
Zn17	Zn	-1.501602	-0.111106	0.091540
Zn18	Zn	-1.001602	0.388894	0.591540
O19	O	-1.491581	-0.232869	-0.069359
O20	O	-0.991581	0.267131	0.430641
C21	C	-1.265923	-0.119913	0.000055
C22	C	-0.765923	0.380087	0.500055
C23	C	-1.126280	-0.117607	0.000050
C24	C	-0.626280	0.382393	0.500050
C25	C	-1.489852	0.027949	0.000057
C26	C	-0.989852	0.527949	0.500057
C27	C	-1.478632	0.115054	0.000057
C28	C	-0.978632	0.615054	0.500057
C29	C	-1.724225	-0.110955	0.000074
C30	C	-1.224225	0.389045	0.500074
C31	C	-1.863868	-0.113261	0.000084
C32	C	-1.363868	0.386739	0.500084
C33	C	-1.052871	-0.187907	0.000066
C34	C	-0.552871	0.312093	0.500066
C35	C	-0.921663	-0.185734	0.000080
C36	C	-0.421663	0.314266	0.500080
C37	C	-0.937287	-0.042956	0.000066
C38	C	-0.437287	0.457044	0.500066
C39	C	-1.068492	-0.045129	0.000045
C40	C	-0.568492	0.454871	0.500045
C41	C	-1.110659	-0.260384	0.000071
C42	C	-0.610659	0.239616	0.500071
C43	C	-1.037249	-0.330690	0.000088
C44	C	-0.537249	0.169310	0.500088
C45	C	-0.906042	-0.328517	0.000102
C46	C	-0.406042	0.171483	0.500102
C47	C	-0.848244	-0.256039	0.000099
C48	C	-0.348244	0.243961	0.500099
C49	C	-1.500296	-0.258817	0.000072
C50	C	-1.000296	0.241183	0.500072
C51	C	-1.511516	-0.345922	0.000078
C52	C	-1.011516	0.154078	0.500078
N53	N	-1.479644	-0.125670	-0.216273
N54	N	-0.979644	0.374330	0.283727
C55	C	-1.586883	0.164706	0.000060
C56	C	-1.086883	0.664706	0.500060
C57	C	-1.576335	0.246551	0.000067
C58	C	-1.076335	0.746551	0.500067
C59	C	-1.457534	0.278741	0.000066
C60	C	-0.957534	0.778741	0.500066
C61	C	-1.349275	0.229083	0.000065
C62	C	-0.849275	0.729083	0.500065
C63	C	-1.359825	0.147240	0.000064
C64	C	-0.859825	0.647240	0.500064
C65	C	-1.413807	0.522577	0.000076
C66	C	-0.913807	1.022577	0.500076
C67	C	-1.403265	0.604426	0.000075
C68	C	-0.903265	1.104426	0.500075
C69	C	-1.630326	0.621888	0.000078
C70	C	-1.130326	1.121888	0.500078
C71	C	-1.640866	0.540043	0.000072
C72	C	-1.140866	1.040043	0.500072
C73	C	-1.532607	0.490392	0.000076
C74	C	-1.032607	0.990392	0.500076
N75	N	-1.446748	0.362399	0.000071
N76	N	-0.946748	0.862399	0.500071
N77	N	-1.543394	0.406736	0.000076
N78	N	-1.043394	0.906736	0.500076
C79	C	-1.433551	-0.155984	-0.739905
C80	C	-0.933551	0.344016	-0.239905
C81	C	-1.439807	-0.151867	-0.652498
C82	C	-0.939807	0.348133	-0.152498
C83	C	-1.523032	-0.096961	-0.608788
C84	C	-1.023032	0.403039	-0.108788
C85	C	-1.599997	-0.046163	-0.652490
C86	C	-1.099997	0.453837	-0.152490
C87	C	-1.593734	-0.050277	-0.739895
C88	C	-1.093734	0.449723	-0.239895
C89	C	-1.550346	-0.078986	-0.347379
C90	C	-1.050346	0.421014	0.152621
C91	C	-1.556606	-0.074877	-0.259968
C92	C	-1.056606	0.425123	0.240032
C93	C	-1.396413	-0.180581	-0.259983
C94	C	-0.896413	0.319419	0.240017
C95	C	-1.390163	-0.184693	-0.347389
C96	C	-0.890163	0.315307	0.152611
C97	C	-1.467123	-0.133893	-0.391083
C98	C	-0.967123	0.366107	0.108917
N99	N	-1.529431	-0.092753	-0.519445
N100	N	-1.029431	0.407247	-0.019445
N101	N	-1.460717	-0.138098	-0.480425
N102	N	-0.960717	0.361902	0.019575
N103	N	-1.510513	-0.105192	0.216400
N104	N	-1.010513	0.394808	0.716400
H105	H	-1.217494	-0.262161	0.000063
H106	H	-0.717494	0.237839	0.500063
H107	H	-1.084316	-0.389699	0.000083
H108	H	-0.584316	0.110301	0.500083
H109	H	-1.667756	-0.001453	-0.616896
H110	H	-1.167756	0.498547	-0.116896
H111	H	-1.128264	0.012115	0.000034
H112	H	-0.628264	0.512115	0.500034
H113	H	-1.271675	0.106814	0.000061
H114	H	-0.771675	0.606814	0.500061
Br115	Br	-1.654791	-0.010047	-0.406673
Br116	Br	-1.154791	0.489953	0.093327
H117	H	-0.846274	-0.385764	0.000108
H118	H	-0.346274	0.114236	0.500108
Br119	Br	-1.188043	0.272770	0.000077
Br120	Br	-0.688043	0.772770	0.500077
Br121	Br	-1.669570	-0.000358	-0.200653
Br122	Br	-1.169570	0.499642	0.299347
H123	H	-0.741405	-0.254277	0.000098
H124	H	-0.241405	0.245723	0.500098
H125	H	-1.333755	-0.221939	-0.224399
H126	H	-0.833755	0.278061	0.275601
H127	H	-1.325655	0.482161	0.000078
H128	H	-0.825655	0.982161	0.500078
H129	H	-0.890219	0.016053	0.000077
H130	H	-0.390219	0.516053	0.500077
H131	H	-1.365787	-0.200698	-0.775488
H132	H	-0.865787	0.299302	-0.275488
H133	H	-1.718464	0.662322	0.000077
H134	H	-1.218464	1.162322	0.500077
Br135	Br	-1.748121	0.121027	0.000050
Br136	Br	-1.248121	0.621027	0.500050
Br137	Br	-1.335353	-0.220797	-0.593195
Br138	Br	-0.835353	0.279203	-0.093195
H139	H	-1.656403	-0.008916	-0.775471
H140	H	-1.156403	0.491084	-0.275471
H141	H	-1.664484	0.286974	0.000068
H142	H	-1.164484	0.786974	0.500068
Br143	Br	-1.277220	-0.259212	-0.406711
Br144	Br	-0.777220	0.240788	0.093289
H145	H	-1.737606	0.513840	0.000073
H146	H	-1.237606	1.013840	0.500073
Br147	Br	-1.242023	0.648112	0.000064
Br148	Br	-0.742023	1.148112	0.500064
