data_functionalizedCrystal
_audit_creation_method	'MofGen! by Chris Wilmer'
_symmetry_space_group_name_H-M	'P1'
_symmetry_Int_Tables_number	1
_symmetry_cell_setting	triclinic
loop_
_symmetry_equiv_pos_as_xyz
  x,y,z
_cell_length_a	17.019383
_cell_length_b	17.038272
_cell_length_c	9.730217
_cell_angle_alpha	89.996329
_cell_angle_beta	86.122618
_cell_angle_gamma	87.246883
loop_
_atom_site_label
_atom_site_type_symbol
_atom_site_fract_x
_atom_site_fract_y
_atom_site_fract_z
O1	O	1.053347	0.099656	-0.238834
O2	O	1.553347	0.599656	0.261166
O3	O	0.824537	0.112345	-0.211784
O4	O	1.324537	0.612345	0.288216
O5	O	0.937582	-0.007814	-0.225137
O6	O	1.437582	0.492186	0.274863
O7	O	0.940302	0.219815	-0.225481
O8	O	1.440302	0.719815	0.274519
O9	O	0.937578	-0.007815	0.003443
O10	O	1.437578	0.492185	0.503443
O11	O	0.824533	0.112344	0.016797
O12	O	1.324533	0.612344	0.516797
O13	O	1.053343	0.099655	-0.010254
O14	O	1.553343	0.599655	0.489746
Zn15	Zn	0.938938	0.105999	0.039564
Zn16	Zn	1.438938	0.605999	0.539564
Zn17	Zn	0.938943	0.106001	-0.261601
Zn18	Zn	1.438943	0.606001	0.238399
O19	O	0.940298	0.219814	0.003100
O20	O	1.440298	0.719814	0.503100
C21	C	0.795114	0.111861	-0.094015
C22	C	1.295114	0.611861	0.405985
C23	C	0.707448	0.110412	-0.083651
C24	C	1.207448	0.610412	0.416349
C25	C	0.666257	0.109734	-0.203371
C26	C	1.166257	0.609734	0.296629
C27	C	0.583885	0.108385	-0.193612
C28	C	1.083885	0.608385	0.306388
C29	C	0.542705	0.107708	-0.064132
C30	C	1.042705	0.607708	0.435868
C31	C	0.583902	0.108389	0.055597
C32	C	1.083902	0.608389	0.555597
C33	C	0.666272	0.109744	0.045837
C34	C	1.166272	0.609744	0.545837
C35	C	0.293999	0.103623	-0.028430
C36	C	0.793999	0.603623	0.471570
C37	C	0.211623	0.102266	-0.018679
C38	C	0.711623	0.602266	0.481321
C39	C	0.211612	0.102263	-0.267889
C40	C	0.711612	0.602263	0.232111
C41	C	0.293984	0.103613	-0.277637
C42	C	0.793984	0.603613	0.222363
C43	C	0.335173	0.104298	-0.157908
C44	C	0.835173	0.604298	0.342092
C45	C	0.458507	0.106327	-0.054154
C46	C	0.958507	0.606327	0.445846
C47	C	0.419369	0.105685	-0.167888
C48	C	0.919369	0.605685	0.332112
C49	C	0.935107	-0.036941	-0.110555
C50	C	1.435107	0.463059	0.389445
C51	C	0.927726	-0.123728	-0.109683
C52	C	1.427726	0.376272	0.390317
C53	C	0.995486	-0.173896	-0.117692
C54	C	1.495486	0.326104	0.382308
C55	C	0.988546	-0.255441	-0.116885
C56	C	1.488546	0.244559	0.383115
C57	C	0.913847	-0.286816	-0.108058
C58	C	1.413847	0.213184	0.391942
C59	C	0.846083	-0.236641	-0.100052
C60	C	1.346083	0.263359	0.399948
C61	C	0.853023	-0.155097	-0.100870
C62	C	1.353023	0.344903	0.399130
C63	C	0.889330	-0.532554	-0.105178
C64	C	1.389330	-0.032554	0.394822
C65	C	0.882395	-0.614104	-0.104358
C66	C	1.382395	-0.114104	0.395642
C67	C	1.024859	-0.632899	-0.121192
C68	C	1.524859	-0.132899	0.378808
C69	C	1.031792	-0.551353	-0.122001
C70	C	1.531792	-0.051353	0.377999
C71	C	0.964028	-0.501185	-0.114002
C72	C	1.464028	-0.001185	0.385998
C73	C	0.906752	-0.370168	-0.107228
C74	C	1.406752	0.129832	0.392772
C75	C	0.971123	-0.417835	-0.114842
C76	C	1.471123	0.082165	0.385158
C77	C	1.082766	0.100139	-0.128025
C78	C	1.582766	0.600139	0.371975
C79	C	1.170432	0.101588	-0.138399
C80	C	1.670432	0.601588	0.361601
C81	C	0.942774	0.248940	-0.111486
C82	C	1.442774	0.748940	0.388514
C83	C	0.950154	0.335727	-0.112367
C84	C	1.450154	0.835727	0.387633
N85	N	0.938940	0.105998	0.245100
N86	N	1.438940	0.605998	0.745100
N87	N	0.938946	0.105996	-0.467138
N88	N	1.438946	0.605996	0.032862
C89	C	1.039087	-0.000372	0.233261
C90	C	1.539087	0.499628	0.733261
C91	C	1.089166	-0.053555	0.299280
C92	C	1.589166	0.446445	0.799280
C93	C	1.089174	-0.053555	0.443159
C94	C	1.589174	0.446445	0.943159
C95	C	1.039096	-0.000369	0.521022
C96	C	1.539096	0.499631	1.021022
C97	C	0.989017	0.052814	0.455003
C98	C	1.489017	0.552814	0.955003
C99	C	0.989016	0.052810	0.311120
C100	C	1.489016	0.552810	0.811120
C101	C	0.888867	0.159179	0.466842
C102	C	1.388867	0.659179	0.966842
C103	C	0.888862	0.159184	0.322963
C104	C	1.388862	0.659184	0.822963
C105	C	0.838789	0.212365	0.544706
C106	C	1.338789	0.712365	1.044706
C107	C	0.788713	0.265553	0.478686
C108	C	1.288713	0.765553	0.978686
C109	C	0.788708	0.265552	0.334798
C110	C	1.288708	0.765552	0.834798
C111	C	0.838783	0.212367	0.256944
C112	C	1.338783	0.712367	0.756944
H113	H	0.550366	0.107843	0.161022
H114	H	1.050366	0.607843	0.661022
Cl115	Cl	0.838794	0.212362	0.725584
Cl116	Cl	1.338794	0.712362	1.225584
Cl117	Cl	0.718055	0.110600	0.196348
Cl118	Cl	1.218055	0.610600	0.696348
Cl119	Cl	0.406732	0.105475	0.108616
Cl120	Cl	0.906732	0.605475	0.608616
H121	H	0.178095	0.101738	0.086765
H122	H	0.678095	0.601738	0.586765
H123	H	0.845932	-0.395722	-0.100039
H124	H	1.345932	0.104278	0.399961
H125	H	0.747939	0.308850	0.542091
H126	H	1.247939	0.808850	1.042091
Cl127	Cl	0.471139	0.106538	-0.330656
Cl128	Cl	0.971139	0.606538	0.169344
H129	H	0.178067	0.101708	-0.365365
H130	H	0.678067	0.601708	0.134635
Cl131	Cl	1.073734	-0.318508	-0.126950
Cl132	Cl	1.573734	0.181492	0.373050
H133	H	1.056314	-0.148358	-0.124871
H134	H	1.556314	0.351642	0.375129
Cl135	Cl	1.125704	-0.511917	-0.133142
Cl136	Cl	1.625704	-0.011917	0.366858
H137	H	1.080029	-0.673754	-0.127707
H138	H	1.580029	-0.173754	0.372293
H139	H	0.327526	0.104176	0.069062
H140	H	0.827526	0.604176	0.569062
H141	H	0.834151	-0.491717	-0.098665
H142	H	1.334151	0.008283	0.401335
H143	H	1.129949	-0.096864	0.496912
H144	H	1.629949	0.403136	0.996912
Cl145	Cl	1.152116	-0.120418	0.201393
Cl146	Cl	1.652116	0.379582	0.701393
H147	H	1.031943	-0.392286	-0.122059
H148	H	1.531943	0.107714	0.377941
H149	H	0.785261	-0.262192	-0.092874
H150	H	1.285261	0.237808	0.407126
Cl151	Cl	0.532105	0.107533	-0.344125
Cl152	Cl	1.032105	0.607533	0.155875
Cl153	Cl	0.838784	0.212363	0.076065
Cl154	Cl	1.338784	0.712363	0.576065
Cl155	Cl	1.039096	-0.000380	0.701901
Cl156	Cl	1.539096	0.499620	1.201901
H157	H	0.747924	0.308856	0.281053
H158	H	1.247924	0.808856	0.781053
Cl159	Cl	0.345747	0.104459	-0.440419
Cl160	Cl	0.845747	0.604459	0.059581
Cl161	Cl	1.039093	-0.000367	0.052381
Cl162	Cl	1.539093	0.499633	0.552381
Cl163	Cl	0.718018	0.110579	-0.366154
Cl164	Cl	1.218018	0.610579	0.133846
Cl165	Cl	0.788480	-0.653544	-0.093252
Cl166	Cl	1.288480	-0.153544	0.406748
Cl167	Cl	0.767836	-0.092027	-0.090806
Cl168	Cl	1.267836	0.407973	0.409194
