data_functionalizedCrystal
_audit_creation_method	'MofGen! by Chris Wilmer'
_symmetry_space_group_name_H-M	'P1'
_symmetry_Int_Tables_number	1
_symmetry_cell_setting	triclinic
loop_
_symmetry_equiv_pos_as_xyz
  x,y,z
_cell_length_a	10.723024
_cell_length_b	15.995292
_cell_length_c	14.472311
_cell_angle_alpha	89.993534
_cell_angle_beta	89.996221
_cell_angle_gamma	83.968243
loop_
_atom_site_label
_atom_site_type_symbol
_atom_site_fract_x
_atom_site_fract_y
_atom_site_fract_z
O1	O	1.655652	0.117446	-0.076828
O2	O	1.292353	0.128687	-0.076830
O3	O	1.483971	0.001232	-0.076830
O4	O	1.464034	0.244900	-0.076828
O5	O	1.483958	0.001216	0.076852
O6	O	1.292340	0.128670	0.076852
O7	O	1.655639	0.117429	0.076854
Cu8	Cu	1.473988	0.123048	0.090885
Cu9	Cu	1.474004	0.123068	-0.090861
O10	O	1.464020	0.244884	0.076854
C11	C	1.245857	0.127861	0.000010
C12	C	1.107335	0.125413	0.000009
C13	C	0.916571	0.049386	0.000007
C14	C	1.059742	0.051914	0.000008
C15	C	1.483153	-0.029976	0.000008
C16	C	1.480720	-0.122943	0.000001
C17	C	1.471777	-0.460733	0.000010
C18	C	1.610082	-0.436626	0.000354
C19	C	1.612711	-0.339935	0.000004
C20	C	1.476215	-0.293151	0.000006
C21	C	1.407076	-0.322640	-0.087751
C22	C	1.405411	-0.419440	-0.087822
C23	C	1.402572	-0.419332	0.086944
C24	C	1.407697	-0.322810	0.088100
C25	C	1.478716	-0.198441	0.000001
C26	C	1.469272	-0.555443	0.000009
C27	C	1.702134	0.118256	0.000012
C28	C	1.840657	0.120703	0.000007
C29	C	1.464838	0.276092	0.000014
C30	C	1.467271	0.369059	0.000015
N31	N	1.473986	0.123034	0.218716
N32	N	1.474015	0.123075	-0.218692
C33	C	1.474005	0.123061	0.592808
C34	C	1.576869	0.055095	0.553613
C35	C	1.576601	0.054841	0.446525
C36	C	1.473997	0.123048	0.407216
C37	C	1.343816	0.103219	0.446106
C38	C	1.344424	0.102738	0.553228
C39	C	1.500149	0.211053	0.553314
C40	C	1.503105	0.210481	0.446185
C41	C	1.473984	0.123042	0.302328
C42	C	1.474009	0.123066	0.697696
H43	H	1.666858	-0.320606	0.062911
H44	H	1.321377	0.038544	0.578222
H45	H	1.124972	-0.009138	0.000002
H46	H	1.560411	-0.009817	0.580542
H47	H	0.875571	-0.013542	0.000020
H48	H	1.559899	-0.010443	0.420907
H49	H	1.306633	-0.291349	-0.091013
H50	H	1.265582	0.150320	0.579156
H51	H	1.455099	-0.302297	-0.153061
F52	F	0.894239	0.202958	0.000015
H53	H	1.042112	0.186469	0.000006
F54	F	1.683914	-0.315457	-0.082366
F55	F	1.703784	0.070437	0.587270
H56	H	1.446122	-0.447177	0.153464
F57	F	1.468018	-0.454126	-0.173564
F58	F	1.241353	0.166158	0.412829
H59	H	1.663386	-0.464324	0.063289
F60	F	1.473491	-0.298169	0.172961
H61	H	1.663100	-0.465333	-0.062227
F62	F	1.411521	0.279764	0.411210
F63	F	1.272870	-0.439222	-0.093031
H64	H	1.308068	-0.290414	0.093401
H65	H	1.425139	0.261641	0.578665
F66	F	1.269509	-0.438384	0.087720
F67	F	1.312948	0.020261	0.411053
H68	H	1.673371	0.066759	0.420230
F69	F	1.621579	0.235718	0.588609
F70	F	1.628273	0.230132	0.412956
