data_functionalizedCrystal
_audit_creation_method	'MofGen! by Chris Wilmer'
_symmetry_space_group_name_H-M	'P1'
_symmetry_Int_Tables_number	1
_symmetry_cell_setting	triclinic
loop_
_symmetry_equiv_pos_as_xyz
  x,y,z
_cell_length_a	12.645330
_cell_length_b	17.077404
_cell_length_c	17.077396
_cell_angle_alpha	90.019501
_cell_angle_beta	89.975931
_cell_angle_gamma	89.982083
loop_
_atom_site_label
_atom_site_type_symbol
_atom_site_fract_x
_atom_site_fract_y
_atom_site_fract_z
Zn1	Zn	-0.422033	-1.200083	-0.443867
Zn2	Zn	-0.599318	-1.200002	-0.312611
Zn3	Zn	-0.422070	-1.068815	-0.312615
Zn4	Zn	-0.599256	-1.068795	-0.443834
O5	O	-0.510669	-1.134424	-0.378232
O6	O	-0.445561	-1.309919	-0.426467
O7	O	-0.575848	-1.182574	-0.202764
O8	O	-0.273718	-1.086270	-0.330041
O9	O	-0.575812	-1.309860	-0.330034
O10	O	-0.273691	-1.182712	-0.426471
O11	O	-0.445624	-1.086192	-0.202767
O12	O	-0.445563	-0.958965	-0.330009
O13	O	-0.575705	-1.086236	-0.553686
O14	O	-0.575741	-0.958950	-0.426416
O15	O	-0.445500	-1.182693	-0.553709
O16	O	-0.747657	-1.182555	-0.330003
O17	O	-0.747611	-1.086157	-0.426412
C18	C	-0.786099	-1.134366	-0.378221
C19	C	-0.903929	-1.134414	-0.378242
C20	C	-0.510650	-0.930476	-0.378210
C21	C	-0.510667	-0.843226	-0.378219
C22	C	-0.510591	-1.134471	-0.582976
C23	C	-0.510558	-1.134491	-0.670226
C24	C	-1.071508	-1.074020	-0.439080
C25	C	-0.948949	-1.073711	-0.438885
C26	C	-0.948522	-1.112022	-0.295515
C27	C	-1.071120	-1.111653	-0.295885
C28	C	-1.071018	-1.217568	-0.399460
C29	C	-0.948411	-1.217059	-0.401269
C30	C	-0.234164	-1.134502	-0.378260
C31	C	-0.116334	-1.134536	-0.378272
C32	C	-0.510689	-1.339168	-0.378254
C33	C	-0.510698	-1.426418	-0.378263
C34	C	-0.578553	-0.802249	-0.428338
C35	C	-0.578555	-0.720268	-0.428350
C36	C	-0.510677	-0.679267	-0.378240
C37	C	-0.442783	-0.720250	-0.328119
C38	C	-0.442777	-0.802229	-0.328111
C39	C	-0.442804	-0.549380	-0.328138
C40	C	-0.442812	-0.467395	-0.328145
C41	C	-0.578583	-0.467419	-0.428377
C42	C	-0.578576	-0.549398	-0.428369
C43	C	-0.510684	-0.590376	-0.378247
C44	C	-0.442755	-1.184718	-0.711230
C45	C	-0.442719	-1.184728	-0.793210
C46	C	-0.510493	-1.134514	-0.834185
C47	C	-0.578300	-1.084281	-0.793176
C48	C	-0.578329	-1.084268	-0.711197
C49	C	-0.578236	-1.084313	-0.964046
C50	C	-0.578208	-1.084326	-1.046031
C51	C	-0.442627	-1.184772	-1.046059
C52	C	-0.442656	-1.184759	-0.964080
C53	C	-0.510464	-1.134528	-0.923076
C54	C	-0.510671	-1.134421	-0.174284
C55	C	-0.510405	-1.134553	-0.087034
H56	H	-0.918796	-1.087720	-0.500226
H57	H	-0.387492	-0.835591	-0.287304
H58	H	-0.387568	-1.225611	-0.677874
H59	H	-0.633860	-0.434051	-0.469191
H60	H	-0.633831	-0.835626	-0.469141
H61	H	-0.387510	-1.225629	-0.826592
H62	H	-0.387511	-0.686860	-0.287322
H63	H	-0.387413	-1.225671	-1.079449
H64	H	-0.633836	-0.686908	-0.469161
F65	F	-1.111333	-1.244268	-0.476968
H66	H	-0.387474	-1.225653	-0.930721
F67	F	-0.650332	-1.030876	-1.089638
F68	F	-0.910313	-1.239133	-0.480847
H69	H	-0.633479	-1.043393	-0.826544
F70	F	-1.109955	-1.092159	-0.519523
F71	F	-1.111916	-0.994066	-0.420981
H72	H	-0.633855	-0.582779	-0.469169
H73	H	-0.917760	-1.264520	-0.360204
F74	F	-0.910732	-0.993252	-0.420541
H75	H	-0.633436	-1.043396	-0.930663
H76	H	-1.099811	-1.050956	-0.277936
F77	F	-0.370572	-0.423759	-0.274809
H78	H	-1.100776	-1.153818	-0.249033
H79	H	-0.387510	-0.582741	-0.287331
F80	F	-0.650492	-1.030808	-0.667558
H81	H	-0.917910	-1.051958	-0.277242
F82	F	-1.108923	-1.276502	-0.341581
F83	F	-0.910411	-1.167806	-0.234675
