data_functionalizedCrystal
_audit_creation_method	'MofGen! by Chris Wilmer'
_symmetry_space_group_name_H-M	'P1'
_symmetry_Int_Tables_number	1
_symmetry_cell_setting	triclinic
loop_
_symmetry_equiv_pos_as_xyz
  x,y,z
_cell_length_a	18.215407
_cell_length_b	18.215405
_cell_length_c	18.215399
_cell_angle_alpha	89.969449
_cell_angle_beta	89.982632
_cell_angle_gamma	90.022329
loop_
_atom_site_label
_atom_site_type_symbol
_atom_site_fract_x
_atom_site_fract_y
_atom_site_fract_z
Zn1	Zn	1.125072	-0.293042	-0.416054
Zn2	Zn	1.124980	-0.416113	-0.292982
Zn3	Zn	1.002004	-0.293060	-0.293007
Zn4	Zn	1.001970	-0.416066	-0.416012
O5	O	1.063507	-0.354570	-0.354514
O6	O	1.228044	-0.309380	-0.399736
O7	O	1.108643	-0.399817	-0.190001
O8	O	1.018382	-0.190073	-0.309357
O9	O	1.227977	-0.399800	-0.309315
O10	O	1.108799	-0.190060	-0.399759
O11	O	1.018293	-0.309410	-0.190019
O12	O	0.899016	-0.309364	-0.309317
O13	O	1.018324	-0.399719	-0.519002
O14	O	0.898991	-0.399736	-0.399688
O15	O	1.108766	-0.309334	-0.519033
O16	O	1.108610	-0.519091	-0.309275
O17	O	1.018235	-0.519056	-0.399665
C18	C	0.872301	-0.354548	-0.354501
C19	C	0.790502	-0.354556	-0.354513
C20	C	1.063429	-0.545777	-0.354479
C21	C	1.063463	-0.627575	-0.354488
C22	C	1.110632	-0.815763	-0.307509
C23	C	1.110665	-0.892622	-0.307526
C24	C	1.016476	-0.892625	-0.401572
C25	C	1.016447	-0.815768	-0.401557
C26	C	1.063524	-0.777339	-0.354522
C27	C	1.063586	-0.931055	-0.354554
C28	C	1.063621	-1.014389	-0.354574
C29	C	1.063490	-0.694000	-0.354503
C30	C	0.602342	-0.307571	-0.401669
C31	C	0.525483	-0.307577	-0.401672
C32	C	0.525424	-0.401590	-0.307372
C33	C	0.602281	-0.401580	-0.307366
C34	C	0.640738	-0.354571	-0.354519
C35	C	0.487022	-0.354588	-0.354527
C36	C	0.403688	-0.354595	-0.354529
C37	C	0.724077	-0.354563	-0.354516
C38	C	1.255460	-0.354593	-0.354527
C39	C	1.337259	-0.354603	-0.354533
C40	C	1.063552	-0.354520	-0.546467
C41	C	1.063571	-0.354498	-0.628266
C42	C	1.063605	-0.162617	-0.354566
C43	C	1.063647	-0.080818	-0.354588
C44	C	1.110681	-0.307390	-0.816477
C45	C	1.110690	-0.307369	-0.893336
C46	C	1.016513	-0.401492	-0.893293
C47	C	1.016501	-0.401509	-0.816435
C48	C	1.063589	-0.354459	-0.778029
C49	C	1.063610	-0.354421	-0.931746
C50	C	1.063619	-0.354398	-1.015079
C51	C	1.063579	-0.354481	-0.694690
C52	C	1.063504	-0.354568	-0.163308
C53	C	1.063628	-0.354382	-0.081509
H54	H	1.148966	-0.784476	-0.269210
C55	C	0.483118	-0.453302	-0.255511
C56	C	0.493651	-0.447190	-0.171859
C57	C	0.451346	-0.498905	-0.119998
C58	C	0.398509	-0.556731	-0.151790
C59	C	0.387973	-0.562845	-0.235447
C60	C	0.430278	-0.511131	-0.287307
H61	H	0.532767	-0.404382	-0.148320
H62	H	0.459146	-0.494378	-0.058070
H63	H	0.367192	-0.595013	-0.113400
H64	H	0.348857	-0.605653	-0.258985
H65	H	0.422478	-0.515657	-0.349235
C66	C	0.644646	-0.255857	-0.453529
C67	C	0.634107	-0.261963	-0.537181
C68	C	0.676410	-0.210245	-0.589041
C69	C	0.729251	-0.152423	-0.557248
C70	C	0.739792	-0.146315	-0.473592
C71	C	0.697490	-0.198032	-0.421732
H72	H	0.594989	-0.304769	-0.560720
H73	H	0.668606	-0.214767	-0.650969
H74	H	0.760566	-0.114139	-0.595637
H75	H	0.778911	-0.103509	-0.450053
H76	H	0.705293	-0.193511	-0.359804
H77	H	1.149021	-0.269078	-0.785209
H78	H	1.149035	-0.269039	-0.924636
C79	C	0.964697	-0.453289	-0.774137
C80	C	0.912908	-0.505048	-0.816378
C81	C	0.861104	-0.556823	-0.774080
C82	C	0.861090	-0.556838	-0.689539
C83	C	0.912881	-0.505077	-0.647293
C84	C	0.964684	-0.453302	-0.689592
H85	H	0.912917	-0.505039	-0.878964
H86	H	0.822765	-0.595140	-0.805353
H87	H	0.822742	-0.595165	-0.658227
H88	H	0.912872	-0.505087	-0.584707
H89	H	1.003023	-0.414985	-0.658318
H90	H	0.494224	-0.269304	-0.440065
H91	H	1.149026	-0.923903	-0.269245
H92	H	0.978146	-0.923924	-0.439866
H93	H	0.978086	-0.784481	-0.439845
C94	C	0.644523	-0.453285	-0.255499
C95	C	0.602226	-0.505000	-0.203639
C96	C	0.644468	-0.556700	-0.151773
C97	C	0.729008	-0.556686	-0.151766
C98	C	0.771311	-0.504969	-0.203627
C99	C	0.729068	-0.453268	-0.255493
H100	H	0.539640	-0.505012	-0.203643
H101	H	0.613153	-0.594984	-0.113381
H102	H	0.760279	-0.594957	-0.113371
H103	H	0.833896	-0.504956	-0.203623
H104	H	0.760384	-0.414984	-0.293885
C105	C	0.964729	-0.453250	-0.935547
C106	C	0.996610	-0.511016	-0.988368
C107	C	0.944829	-0.562778	-1.030623
C108	C	0.861167	-0.556774	-1.020058
C109	C	0.829281	-0.499006	-0.967234
C110	C	0.881062	-0.447244	-0.924979
H111	H	1.058546	-0.515462	-0.996191
H112	H	0.968434	-0.605542	-1.069727
H113	H	0.822835	-0.595092	-1.051338
H114	H	0.767345	-0.494560	-0.959411
H115	H	0.857457	-0.404481	-0.885876
