data_functionalizedCrystal
_audit_creation_method	'MofGen! by Chris Wilmer'
_symmetry_space_group_name_H-M	'P1'
_symmetry_Int_Tables_number	1
_symmetry_cell_setting	triclinic
loop_
_symmetry_equiv_pos_as_xyz
  x,y,z
_cell_length_a	23.532361
_cell_length_b	22.010155
_cell_length_c	14.971486
_cell_angle_alpha	90.004049
_cell_angle_beta	96.778102
_cell_angle_gamma	90.004127
loop_
_atom_site_label
_atom_site_type_symbol
_atom_site_fract_x
_atom_site_fract_y
_atom_site_fract_z
O1	O	0.755745	0.050465	-0.108368
O2	O	1.005745	0.300465	0.141632
O3	O	1.255745	0.550465	0.391632
O4	O	1.505745	0.800465	0.641632
O5	O	0.589945	0.050479	-0.124122
O6	O	0.839945	0.300479	0.125878
O7	O	1.089945	0.550479	0.375878
O8	O	1.339945	0.800479	0.625878
O9	O	0.677289	0.050467	0.014004
O10	O	0.927289	0.300467	0.264004
O11	O	1.177289	0.550467	0.514004
O12	O	1.427289	0.800467	0.764004
O13	O	0.668401	0.050477	-0.246493
O14	O	0.918401	0.300477	0.003507
O15	O	1.168401	0.550477	0.253507
O16	O	1.418401	0.800477	0.503507
O17	O	0.677273	-0.050583	0.013983
O18	O	0.927273	0.199417	0.263983
O19	O	1.177273	0.449417	0.513983
O20	O	1.427273	0.699417	0.763983
O21	O	0.589930	-0.050571	-0.124142
O22	O	0.839930	0.199429	0.125858
O23	O	1.089930	0.449429	0.375858
O24	O	1.339930	0.699429	0.625858
O25	O	0.755729	-0.050586	-0.108388
O26	O	1.005729	0.199414	0.141612
O27	O	1.255729	0.449414	0.391612
O28	O	1.505729	0.699414	0.641612
Cu29	Cu	0.672828	-0.059805	-0.116267
Cu30	Cu	0.922828	0.190195	0.133733
Cu31	Cu	1.172828	0.440195	0.383733
Cu32	Cu	1.422828	0.690195	0.633733
Cu33	Cu	0.672847	0.059699	-0.116243
Cu34	Cu	0.922847	0.309699	0.133757
Cu35	Cu	1.172847	0.559699	0.383757
Cu36	Cu	1.422847	0.809699	0.633757
O37	O	0.668386	-0.050574	-0.246514
O38	O	0.918386	0.199426	0.003486
O39	O	1.168386	0.449426	0.253486
O40	O	1.418386	0.699426	0.503486
C41	C	0.568719	-0.000044	-0.123737
C42	C	0.818719	0.249956	0.126263
C43	C	1.068719	0.499956	0.376263
C44	C	1.318719	0.749956	0.626263
C45	C	0.505496	-0.000039	-0.122551
C46	C	0.755496	0.249961	0.127449
C47	C	1.005496	0.499961	0.377449
C48	C	1.255496	0.749961	0.627449
N49	N	0.672819	-0.143858	-0.116284
N50	N	0.922819	0.106142	0.133716
N51	N	1.172819	0.356142	0.383716
N52	N	1.422819	0.606142	0.633716
C53	C	0.232238	0.055040	-0.117352
C54	C	0.482238	0.305040	0.132648
C55	C	0.732238	0.555040	0.382648
C56	C	0.982238	0.805040	0.632648
C57	C	0.291643	0.055042	-0.118475
C58	C	0.541643	0.305042	0.131525
C59	C	0.791643	0.555042	0.381525
C60	C	1.041643	0.805042	0.631525
O61	O	0.322379	0.101886	-0.119015
O62	O	0.572379	0.351886	0.130985
O63	O	0.822379	0.601886	0.380985
O64	O	1.072379	0.851886	0.630985
N65	N	0.321342	-0.000041	-0.119053
N66	N	0.571342	0.249959	0.130947
N67	N	0.821342	0.499959	0.380947
N68	N	1.071342	0.749959	0.630947
C69	C	0.291635	-0.055129	-0.118500
C70	C	0.541635	0.194871	0.131500
C71	C	0.791635	0.444871	0.381500
C72	C	1.041635	0.694871	0.631500
O73	O	0.322351	-0.101981	-0.119094
O74	O	0.572351	0.148019	0.130906
O75	O	0.822351	0.398019	0.380906
O76	O	1.072351	0.648019	0.630906
C77	C	0.232232	-0.055130	-0.117370
C78	C	0.482232	0.194870	0.132630
C79	C	0.732232	0.444870	0.382630
C80	C	0.982232	0.694870	0.632630
C81	C	0.202535	-0.000044	-0.116801
C82	C	0.452535	0.249956	0.133199
C83	C	0.702535	0.499956	0.383199
C84	C	0.952535	0.749956	0.633199
C85	C	0.202541	0.110122	-0.116781
C86	C	0.452541	0.360122	0.133219
C87	C	0.702541	0.610122	0.383219
C88	C	0.952541	0.860122	0.633219
C89	C	0.143141	0.110120	-0.115660
C90	C	0.393141	0.360120	0.134340
C91	C	0.643141	0.610120	0.384340
C92	C	0.893141	0.860120	0.634340
C93	C	0.113437	0.055037	-0.115110
C94	C	0.363437	0.305037	0.134890
C95	C	0.613437	0.555037	0.384890
C96	C	0.863437	0.805037	0.634890
C97	C	0.143134	-0.000045	-0.115680
C98	C	0.393134	0.249955	0.134320
C99	C	0.643134	0.499955	0.384320
C100	C	0.893134	0.749955	0.634320
C101	C	0.202526	-0.110217	-0.116810
C102	C	0.452526	0.139783	0.133190
C103	C	0.702526	0.389783	0.383190
C104	C	0.952526	0.639783	0.633190
C105	C	0.143119	-0.110213	-0.115680
C106	C	0.393119	0.139787	0.134320
C107	C	0.643119	0.389787	0.384320
C108	C	0.893119	0.639787	0.634320
C109	C	0.113422	-0.055127	-0.115111
C110	C	0.363422	0.194873	0.134889
C111	C	0.613422	0.444873	0.384889
C112	C	0.863422	0.694873	0.634889
C113	C	0.054030	-0.055131	-0.114008
C114	C	0.304030	0.194869	0.135992
C115	C	0.554030	0.444869	0.385992
C116	C	0.804030	0.694869	0.635992
N117	N	0.024331	-0.000048	-0.113430
N118	N	0.274331	0.249952	0.136570
N119	N	0.524331	0.499952	0.386570
N120	N	0.774331	0.749952	0.636570
C121	C	0.054034	0.055036	-0.113980
C122	C	0.304034	0.305036	0.136020
C123	C	0.554034	0.555036	0.386020
C124	C	0.804034	0.805036	0.636020
C125	C	0.416385	-0.055123	-0.120869
C126	C	0.666385	0.194877	0.129131
C127	C	0.916385	0.444877	0.379131
C128	C	1.166385	0.694877	0.629131
C129	C	0.475787	-0.055123	-0.122005
C130	C	0.725787	0.194877	0.127995
C131	C	0.975787	0.444877	0.377995
C132	C	1.225787	0.694877	0.627995
C133	C	0.475791	0.055048	-0.121978
C134	C	0.725791	0.305048	0.128022
C135	C	0.975791	0.555048	0.378022
C136	C	1.225791	0.805048	0.628022
C137	C	0.416388	0.055047	-0.120849
C138	C	0.666388	0.305047	0.129151
C139	C	0.916388	0.555047	0.379151
C140	C	1.166388	0.805047	0.629151
C141	C	0.386686	-0.000040	-0.120291
C142	C	0.636686	0.249960	0.129709
C143	C	0.886686	0.499960	0.379709
C144	C	1.136686	0.749960	0.629709
C145	C	-0.070711	0.055028	-0.111627
C146	C	0.179289	0.305028	0.138373
C147	C	0.429289	0.555028	0.388373
C148	C	0.679289	0.805028	0.638373
C149	C	-0.130118	0.055021	-0.110509
C150	C	0.119882	0.305021	0.139491
C151	C	0.369882	0.555021	0.389491
C152	C	0.619882	0.805021	0.639491
C153	C	-0.130116	-0.055149	-0.110532
C154	C	0.119884	0.194851	0.139468
C155	C	0.369884	0.444851	0.389468
C156	C	0.619884	0.694851	0.639468
C157	C	-0.070715	-0.055143	-0.111654
C158	C	0.179285	0.194857	0.138346
C159	C	0.429285	0.444857	0.388346
C160	C	0.679285	0.694857	0.638346
C161	C	-0.041014	-0.000050	-0.112198
C162	C	0.208986	0.249950	0.137802
C163	C	0.458986	0.499950	0.387802
C164	C	0.708986	0.749950	0.637802
O165	O	0.023257	-0.101951	-0.113464
O166	O	0.273257	0.148049	0.136536
O167	O	0.523257	0.398049	0.386536
O168	O	0.773257	0.648049	0.636536
O169	O	0.023311	0.101880	-0.113374
O170	O	0.273311	0.351880	0.136626
O171	O	0.523311	0.601880	0.386626
O172	O	0.773311	0.851880	0.636626
C173	C	0.711525	-0.563642	-0.055090
C174	C	0.961525	-0.313642	0.194910
C175	C	1.211525	-0.063642	0.444910
C176	C	1.461525	0.186358	0.694910
C177	C	0.711527	-0.627250	-0.055083
C178	C	0.961527	-0.377250	0.194917
C179	C	1.211527	-0.127250	0.444917
C180	C	1.461527	0.122750	0.694917
O181	O	0.744414	-0.660146	-0.003065
O182	O	0.994414	-0.410146	0.246935
O183	O	1.244414	-0.160146	0.496935
O184	O	1.494414	0.089854	0.746935
N185	N	0.672846	-0.659065	-0.116224
N186	N	0.922846	-0.409065	0.133776
N187	N	1.172846	-0.159065	0.383776
N188	N	1.422846	0.090935	0.633776
C189	C	0.634156	-0.627269	-0.177369
C190	C	0.884156	-0.377269	0.072631
C191	C	1.134156	-0.127269	0.322631
C192	C	1.384156	0.122731	0.572631
O193	O	0.601255	-0.660170	-0.229373
O194	O	0.851255	-0.410170	0.020627
O195	O	1.101255	-0.160170	0.270627
O196	O	1.351255	0.089830	0.520627
C197	C	0.634151	-0.563662	-0.177370
C198	C	0.884151	-0.313662	0.072630
C199	C	1.134151	-0.063662	0.322630
C200	C	1.384151	0.186338	0.572630
C201	C	0.672839	-0.531851	-0.116231
C202	C	0.922839	-0.281851	0.133769
C203	C	1.172839	-0.031851	0.383769
C204	C	1.422839	0.218149	0.633769
C205	C	0.750209	-0.531831	0.006045
C206	C	1.000209	-0.281831	0.256045
C207	C	1.250209	-0.031831	0.506045
C208	C	1.500209	0.218169	0.756045
C209	C	0.750207	-0.468228	0.006037
C210	C	1.000207	-0.218228	0.256037
C211	C	1.250207	0.031772	0.506037
C212	C	1.500207	0.281772	0.756037
C213	C	0.711521	-0.436436	-0.055105
C214	C	0.961521	-0.186436	0.194895
C215	C	1.211521	0.063564	0.444895
C216	C	1.461521	0.313564	0.694895
C217	C	0.672837	-0.468247	-0.116239
C218	C	0.922837	-0.218247	0.133761
C219	C	1.172837	0.031753	0.383761
C220	C	1.422837	0.281753	0.633761
C221	C	0.595459	-0.531867	-0.238510
C222	C	0.845459	-0.281867	0.011490
C223	C	1.095459	-0.031867	0.261490
C224	C	1.345459	0.218133	0.511490
C225	C	0.595457	-0.468256	-0.238505
C226	C	0.845457	-0.218256	0.011495
C227	C	1.095457	0.031744	0.261495
C228	C	1.345457	0.281744	0.511495
C229	C	0.634145	-0.436445	-0.177367
C230	C	0.884145	-0.186445	0.072633
C231	C	1.134145	0.063555	0.322633
C232	C	1.384145	0.313555	0.572633
C233	C	0.634149	-0.372853	-0.177388
C234	C	0.884149	-0.122853	0.072612
C235	C	1.134149	0.127147	0.322612
C236	C	1.384149	0.377147	0.572612
N237	N	0.672830	-0.341038	-0.116248
N238	N	0.922830	-0.091038	0.133752
N239	N	1.172830	0.158962	0.383752
N240	N	1.422830	0.408962	0.633752
C241	C	0.711516	-0.372829	-0.055106
C242	C	0.961516	-0.122829	0.194894
C243	C	1.211516	0.127171	0.444894
C244	C	1.461516	0.377171	0.694894
C245	C	0.634169	-0.760846	-0.177361
C246	C	0.884169	-0.510846	0.072639
C247	C	1.134169	-0.260846	0.322639
C248	C	1.384169	-0.010846	0.572639
C249	C	0.634176	-0.824452	-0.177364
C250	C	0.884176	-0.574452	0.072636
C251	C	1.134176	-0.324452	0.322636
C252	C	1.384176	-0.074452	0.572636
C253	C	0.711547	-0.824429	-0.055078
C254	C	0.961547	-0.574429	0.194922
C255	C	1.211547	-0.324429	0.444922
C256	C	1.461547	-0.074429	0.694922
C257	C	0.711542	-0.760822	-0.055079
C258	C	0.961542	-0.510822	0.194921
C259	C	1.211542	-0.260822	0.444921
C260	C	1.461542	-0.010822	0.694921
C261	C	0.672850	-0.729032	-0.116220
C262	C	0.922850	-0.479032	0.133780
C263	C	1.172850	-0.229032	0.383780
C264	C	1.422850	0.020968	0.633780
C265	C	0.711509	-0.239258	-0.055127
C266	C	0.961509	0.010742	0.194873
C267	C	1.211509	0.260742	0.444873
C268	C	1.461509	0.510742	0.694873
C269	C	0.711505	-0.175649	-0.055142
C270	C	0.961505	0.074351	0.194858
C271	C	1.211505	0.324351	0.444858
C272	C	1.461505	0.574351	0.694858
C273	C	0.634133	-0.175678	-0.177425
C274	C	0.884133	0.074322	0.072575
C275	C	1.134133	0.324322	0.322575
C276	C	1.384133	0.574322	0.572575
C277	C	0.634138	-0.239281	-0.177413
C278	C	0.884138	0.010719	0.072587
C279	C	1.134138	0.260719	0.322587
C280	C	1.384138	0.510719	0.572587
C281	C	0.672828	-0.271070	-0.116257
C282	C	0.922828	-0.021070	0.133743
C283	C	1.172828	0.228930	0.383743
C284	C	1.422828	0.478930	0.633743
O285	O	0.601278	-0.339916	-0.229377
O286	O	0.851278	-0.089916	0.020623
O287	O	1.101278	0.160084	0.270623
O288	O	1.351278	0.410084	0.520623
O289	O	0.744407	-0.339920	-0.003103
O290	O	0.994407	-0.089920	0.246897
O291	O	1.244407	0.160080	0.496897
O292	O	1.494407	0.410080	0.746897
C293	C	0.776955	-0.000061	-0.108772
C294	C	1.026955	0.249939	0.141228
C295	C	1.276955	0.499939	0.391228
C296	C	1.526955	0.749939	0.641228
C297	C	0.840179	-0.000063	-0.109959
C298	C	1.090179	0.249937	0.140041
C299	C	1.340179	0.499937	0.390041
C300	C	1.590179	0.749937	0.640041
C301	C	0.676884	-0.000058	0.047314
C302	C	0.926884	0.249942	0.297314
C303	C	1.176884	0.499942	0.547314
C304	C	1.426884	0.749942	0.797314
C305	C	0.675693	-0.000057	0.146598
C306	C	0.925693	0.249943	0.396598
C307	C	1.175693	0.499943	0.646598
C308	C	1.425693	0.749943	0.896598
N309	N	0.672860	0.143751	-0.116219
N310	N	0.922860	0.393751	0.133781
N311	N	1.172860	0.643751	0.383781
N312	N	1.422860	0.893751	0.633781
C313	C	0.668791	-0.000047	-0.279824
C314	C	0.918791	0.249953	-0.029824
C315	C	1.168791	0.499953	0.220176
C316	C	1.418791	0.749953	0.470176
C317	C	0.669982	-0.000044	-0.379108
C318	C	0.919982	0.249956	-0.129108
C319	C	1.169982	0.499956	0.120892
C320	C	1.419982	0.749956	0.370892
C321	C	0.727005	-0.000062	0.204379
C322	C	0.977005	0.249938	0.454379
C323	C	1.227005	0.499938	0.704379
C324	C	1.477005	0.749938	0.954379
C325	C	0.725882	-0.000056	0.297666
C326	C	0.975882	0.249944	0.547666
C327	C	1.225882	0.499944	0.797666
C328	C	1.475882	0.749944	1.047666
C329	C	0.673447	-0.000049	0.333171
C330	C	0.923447	0.249951	0.583171
C331	C	1.173447	0.499951	0.833171
C332	C	1.423447	0.749951	1.083171
C333	C	0.622131	-0.000042	0.275382
C334	C	0.872131	0.249958	0.525382
C335	C	1.122131	0.499958	0.775382
C336	C	1.372131	0.749958	1.025382
C337	C	0.623254	-0.000044	0.182097
C338	C	0.873254	0.249956	0.432097
C339	C	1.123254	0.499956	0.682097
C340	C	1.373254	0.749956	0.932097
C341	C	0.619793	-0.000040	0.469820
C342	C	0.869793	0.249960	0.719820
C343	C	1.119793	0.499960	0.969820
C344	C	1.369793	0.749960	1.219820
C345	C	0.618670	-0.000039	0.563111
C346	C	0.868670	0.249961	0.813111
C347	C	1.118670	0.499961	1.063111
C348	C	1.368670	0.749961	1.313111
C349	C	0.722421	-0.000052	0.585389
C350	C	0.972421	0.249948	0.835389
C351	C	1.222421	0.499948	1.085389
C352	C	1.472421	0.749948	1.335389
C353	C	0.723545	-0.000053	0.492103
C354	C	0.973545	0.249947	0.742103
C355	C	1.223545	0.499947	0.992103
C356	C	1.473545	0.749947	1.242103
C357	C	0.672228	-0.000048	0.434321
C358	C	0.922228	0.249952	0.684321
C359	C	1.172228	0.499952	0.934321
C360	C	1.422228	0.749952	1.184321
H361	H	-0.154295	0.099881	-0.110049
H362	H	0.095705	0.349881	0.139951
H363	H	0.345705	0.599881	0.389951
H364	H	0.595705	0.849881	0.639951
Cl365	Cl	0.546811	-0.428296	-0.315372
Cl366	Cl	0.796811	-0.178296	-0.065372
Cl367	Cl	1.046811	0.071704	0.184628
Cl368	Cl	1.296811	0.321704	0.434628
H369	H	0.581470	-0.000040	0.135052
H370	H	0.831470	0.249960	0.385052
H371	H	1.081470	0.499960	0.635052
H372	H	1.331470	0.749960	0.885052
Cl373	Cl	0.513111	-0.124377	-0.122739
Cl374	Cl	0.763111	0.125623	0.127261
Cl375	Cl	1.013111	0.375623	0.377261
Cl376	Cl	1.263111	0.625623	0.627261
H377	H	-0.046536	0.099890	-0.112072
H378	H	0.203464	0.349890	0.137928
H379	H	0.453464	0.599890	0.387928
H380	H	0.703464	0.849890	0.637928
H381	H	-0.046536	-0.099999	-0.112135
H382	H	0.203464	0.150001	0.137865
H383	H	0.453464	0.400001	0.387865
H384	H	0.703464	0.650001	0.637865
H385	H	0.743011	-0.149750	-0.005356
H386	H	0.993011	0.100250	0.244644
H387	H	1.243011	0.350250	0.494644
H388	H	1.493011	0.600250	0.744644
H389	H	0.743013	-0.265133	-0.005326
H390	H	0.993013	-0.015133	0.244674
H391	H	1.243013	0.234867	0.494674
H392	H	1.493013	0.484867	0.744674
Cl393	Cl	0.585507	-0.279271	-0.254285
Cl394	Cl	0.835507	-0.029271	-0.004285
Cl395	Cl	1.085507	0.220729	0.245715
Cl396	Cl	1.335507	0.470729	0.495715
H397	H	0.118967	0.154977	-0.115193
H398	H	0.368967	0.404977	0.134807
H399	H	0.618967	0.654977	0.384807
H400	H	0.868967	0.904977	0.634807
H401	H	-0.154312	-0.099997	-0.110087
H402	H	0.095688	0.150003	0.139913
H403	H	0.345688	0.400003	0.389913
H404	H	0.595688	0.650003	0.639913
H405	H	0.781711	-0.557710	0.055838
H406	H	1.031711	-0.307710	0.305838
H407	H	1.281711	-0.057710	0.555838
H408	H	1.531711	0.192290	0.805838
H409	H	0.781708	-0.442330	0.055824
H410	H	1.031708	-0.192330	0.305824
H411	H	1.281708	0.057670	0.555824
H412	H	1.531708	0.307670	0.805824
H413	H	0.743044	-0.734925	-0.005294
H414	H	0.993044	-0.484925	0.244706
H415	H	1.243044	-0.234925	0.494706
H416	H	1.493044	0.015075	0.744706
Cl417	Cl	0.239845	-0.179473	-0.117525
Cl418	Cl	0.489845	0.070527	0.132475
Cl419	Cl	0.739845	0.320527	0.382475
Cl420	Cl	0.989845	0.570527	0.632475
H421	H	0.392205	-0.099985	-0.120427
H422	H	0.642205	0.150015	0.129573
H423	H	0.892205	0.400015	0.379573
H424	H	1.142205	0.650015	0.629573
H425	H	0.118938	-0.155073	-0.115234
H426	H	0.368938	0.094927	0.134766
H427	H	0.618938	0.344927	0.384766
H428	H	0.868938	0.594927	0.634766
H429	H	0.579437	-0.000033	0.304297
H430	H	0.829437	0.249967	0.554297
H431	H	1.079437	0.499967	0.804297
H432	H	1.329437	0.749967	1.054297
Cl433	Cl	0.239872	0.179380	-0.117473
Cl434	Cl	0.489872	0.429380	0.132527
Cl435	Cl	0.739872	0.679380	0.382527
Cl436	Cl	0.989872	0.929380	0.632527
Cl437	Cl	0.760179	-0.864408	0.021788
Cl438	Cl	1.010179	-0.614408	0.271788
Cl439	Cl	1.260179	-0.364408	0.521788
Cl440	Cl	1.510179	-0.114408	0.771788
H441	H	0.392212	0.099903	-0.120386
H442	H	0.642212	0.349903	0.129614
H443	H	0.892212	0.599903	0.379614
H444	H	1.142212	0.849903	0.629614
H445	H	0.499986	0.099900	-0.122426
H446	H	0.749986	0.349900	0.127574
H447	H	0.999986	0.599900	0.377574
H448	H	1.249986	0.849900	0.627574
Cl449	Cl	0.790392	-0.000064	0.370302
Cl450	Cl	1.040392	0.249936	0.620302
Cl451	Cl	1.290392	0.499936	0.870302
Cl452	Cl	1.540392	0.749936	1.120302
Cl453	Cl	0.585546	-0.864436	-0.254239
Cl454	Cl	0.835546	-0.614436	-0.004239
Cl455	Cl	1.085546	-0.364436	0.245761
Cl456	Cl	1.335546	-0.114436	0.495761
Cl457	Cl	0.789464	-0.000059	0.447470
Cl458	Cl	1.039464	0.249941	0.697470
Cl459	Cl	1.289464	0.499941	0.947470
Cl460	Cl	1.539464	0.749941	1.197470
H461	H	0.764205	-0.000054	0.632440
H462	H	1.014205	0.249946	0.882440
H463	H	1.264205	0.499946	1.132440
H464	H	1.514205	0.749946	1.382440
H465	H	0.602663	-0.734966	-0.227156
H466	H	0.852663	-0.484966	0.022844
H467	H	1.102663	-0.234966	0.272844
H468	H	1.352663	0.015034	0.522844
H469	H	0.563956	-0.557759	-0.288294
H470	H	0.813956	-0.307759	-0.038294
H471	H	1.063956	-0.057759	0.211706
H472	H	1.313956	0.192241	0.461706
H473	H	0.602636	-0.149783	-0.227209
H474	H	0.852636	0.100217	0.022791
H475	H	1.102636	0.350217	0.272791
H476	H	1.352636	0.600217	0.522791
H477	H	0.575973	-0.000043	0.592016
H478	H	0.825973	0.249957	0.842016
H479	H	1.075973	0.499957	1.092016
H480	H	1.325973	0.749957	1.342016
Cl481	Cl	0.555280	-0.000032	0.397181
Cl482	Cl	0.805280	0.249968	0.647181
Cl483	Cl	1.055280	0.499968	0.897181
Cl484	Cl	1.305280	0.749968	1.147181
Cl485	Cl	0.792927	-0.000077	0.159754
Cl486	Cl	1.042927	0.249923	0.409754
Cl487	Cl	1.292927	0.499923	0.659754
Cl488	Cl	1.542927	0.749923	0.909754
