data_functionalizedCrystal
_audit_creation_method	'MofGen! by Chris Wilmer'
_symmetry_space_group_name_H-M	'P1'
_symmetry_Int_Tables_number	1
_symmetry_cell_setting	triclinic
loop_
_symmetry_equiv_pos_as_xyz
  x,y,z
_cell_length_a	14.971482
_cell_length_b	8.597304
_cell_length_c	14.048226
_cell_angle_alpha	82.293729
_cell_angle_beta	89.994098
_cell_angle_gamma	84.477641
loop_
_atom_site_label
_atom_site_type_symbol
_atom_site_fract_x
_atom_site_fract_y
_atom_site_fract_z
O1	O	1.188614	0.204505	-0.095917
O2	O	1.688614	0.704505	0.404083
O3	O	0.928413	0.229004	-0.097930
O4	O	1.428413	0.729004	0.402070
O5	O	1.063633	-0.011704	-0.078185
O6	O	1.563633	0.488296	0.421815
O7	O	1.053394	0.445213	-0.115663
O8	O	1.553394	0.945213	0.384337
O9	O	1.063616	-0.011718	0.080138
O10	O	1.563616	0.488282	0.580138
O11	O	0.928396	0.228990	0.060392
O12	O	1.428396	0.728990	0.560392
O13	O	1.188597	0.204491	0.062405
O14	O	1.688597	0.704491	0.562405
Zn15	Zn	1.058494	0.216738	0.086536
Zn16	Zn	1.558494	0.716738	0.586536
Zn17	Zn	1.058516	0.216757	-0.122061
Zn18	Zn	1.558516	0.716757	0.377939
O19	O	1.053377	0.445199	0.042659
O20	O	1.553377	0.945199	0.542659
C21	C	0.895071	0.227902	-0.018680
C22	C	1.395071	0.727902	0.481320
C23	C	0.795747	0.224622	-0.018413
C24	C	1.295747	0.724622	0.481587
C25	C	0.749080	0.223070	0.068017
C26	C	1.249080	0.723070	0.568017
C27	C	0.655757	0.219962	0.068273
C28	C	1.155757	0.719962	0.568273
C29	C	0.609100	0.218419	-0.017903
C30	C	1.109100	0.718419	0.482097
C31	C	0.655773	0.219967	-0.104338
C32	C	1.155773	0.719967	0.395662
C33	C	0.749096	0.223063	-0.104592
C34	C	1.249096	0.723063	0.395408
C35	C	0.461259	0.213518	-0.103803
C36	C	0.961259	0.713518	0.396197
C37	C	0.367929	0.210425	-0.103550
C38	C	0.867929	0.710425	0.396450
C39	C	0.367920	0.210418	0.069062
C40	C	0.867920	0.710418	0.569062
C41	C	0.461242	0.213513	0.068808
C42	C	0.961242	0.713513	0.568808
C43	C	0.507909	0.215064	-0.017629
C44	C	1.007909	0.715064	0.482371
C45	C	1.062524	-0.070185	0.005771
C46	C	1.562524	0.429815	0.505771
C47	C	1.059235	-0.244419	0.020056
C48	C	1.559235	0.255581	0.520056
C49	C	1.221939	0.205592	-0.016847
C50	C	1.721939	0.705592	0.483153
C51	C	1.321263	0.208873	-0.017121
C52	C	1.821263	0.708873	0.482879
C53	C	1.054486	0.503680	-0.041298
C54	C	1.554486	1.003680	0.458702
C55	C	1.057775	0.677914	-0.055590
C56	C	1.557775	1.177914	0.444410
N57	N	1.058486	0.216724	0.228898
N58	N	1.558486	0.716724	0.728898
N59	N	1.058531	0.216758	-0.264422
N60	N	1.558531	0.716758	0.235578
C61	C	1.118381	0.110183	0.287456
C62	C	1.618381	0.610183	0.787456
C63	C	1.118387	0.110182	0.387113
C64	C	1.618387	0.610182	0.887113
C65	C	1.058501	0.216731	0.428211
C66	C	1.558501	0.716731	0.928211
C67	C	0.998600	0.323278	0.369645
C68	C	1.498600	0.823278	0.869645
C69	C	0.998590	0.323270	0.269990
C70	C	1.498590	0.823270	0.769990
C71	C	0.998626	0.323289	0.577359
C72	C	1.498626	0.823289	1.077359
C73	C	0.998636	0.323300	0.677020
C74	C	1.498636	0.823300	1.177020
C75	C	1.118422	0.110201	0.694482
C76	C	1.618422	0.610201	1.194482
C77	C	1.118412	0.110193	0.594827
C78	C	1.618412	0.610193	1.094827
C79	C	1.058512	0.216742	0.536268
C80	C	1.558512	0.716742	1.036268
H81	H	0.329944	0.209170	-0.173722
H82	H	0.829944	0.709170	0.326278
F83	F	0.606094	0.218332	0.160261
F84	F	1.106094	0.718332	0.660261
F85	F	0.510895	0.215172	0.160524
F86	F	1.010895	0.715172	0.660524
H87	H	0.499252	0.214782	-0.174189
H88	H	0.999252	0.714782	0.325811
F89	F	0.606119	0.218277	-0.196049
F90	F	1.106119	0.718277	0.303951
H91	H	1.059038	-0.255286	-0.131288
H92	H	1.559038	0.244714	0.368712
H93	H	0.787090	0.224330	-0.174972
H94	H	1.287090	0.724330	0.325028
H95	H	1.057959	-0.311224	0.095759
H96	H	1.557959	0.188776	0.595759
F97	F	1.182173	-0.003193	0.756808
F98	F	1.682173	0.496807	1.256808
H99	H	1.167150	0.023425	0.254001
H100	H	1.667150	0.523425	0.754001
F101	F	1.182132	-0.003213	0.449436
F102	F	1.682132	0.496787	0.949436
F103	F	0.318253	0.208767	0.161054
F104	F	0.818253	0.708767	0.661054
H105	H	1.167180	0.023441	0.561365
H106	H	1.667180	0.523441	1.061365
F107	F	0.934897	0.436703	0.720752
F108	F	1.434897	0.936703	1.220752
H109	H	0.949845	0.410048	0.529683
H110	H	1.449845	0.910048	1.029683
F111	F	0.934839	0.436662	0.207669
F112	F	1.434839	0.936662	0.707669
F113	F	0.798727	0.224722	0.159737
F114	F	1.298727	0.724722	0.659737
F115	F	0.934860	0.436670	0.413385
F116	F	1.434860	0.936670	0.913385
