data_functionalizedCrystal
_audit_creation_method	'MofGen! by Chris Wilmer'
_symmetry_space_group_name_H-M	'P1'
_symmetry_Int_Tables_number	1
_symmetry_cell_setting	triclinic
loop_
_symmetry_equiv_pos_as_xyz
  x,y,z
_cell_length_a	19.188930
_cell_length_b	10.654550
_cell_length_c	9.130313
_cell_angle_alpha	90.003780
_cell_angle_beta	89.993647
_cell_angle_gamma	96.185159
loop_
_atom_site_label
_atom_site_type_symbol
_atom_site_fract_x
_atom_site_fract_y
_atom_site_fract_z
O1	O	0.098059	-1.665759	-0.121938
O2	O	0.107401	-1.300083	-0.121916
O3	O	0.001143	-1.493474	-0.121899
O4	O	0.204317	-1.472368	-0.121955
O5	O	0.001146	-1.493471	0.121700
O6	O	0.107404	-1.300081	0.121682
O7	O	0.098062	-1.665757	0.121661
Cu8	Cu	0.102733	-1.482918	0.143914
Cu9	Cu	0.102730	-1.482921	-0.144170
O10	O	0.204320	-1.472366	0.121644
C11	C	0.106717	-1.253298	-0.000114
C12	C	0.104664	-1.113898	-0.000104
C13	C	-0.024871	-1.492789	-0.000096
C14	C	-0.102389	-1.490737	-0.000083
C15	C	0.098746	-1.712541	-0.000145
C16	C	0.100798	-1.851941	-0.000164
C17	C	-0.146570	-1.604213	-0.000083
C18	C	-0.219407	-1.602285	-0.000106
C19	C	-0.248058	-1.486876	-0.000100
C20	C	-0.203867	-1.373386	-0.000109
C21	C	-0.131032	-1.375316	-0.000100
N22	N	-0.356639	-1.398658	0.082806
N23	N	-0.425830	-1.396832	0.082801
C24	C	-0.467505	-1.481052	-0.000129
N25	N	-0.437377	-1.567186	-0.083037
N26	N	-0.368180	-1.569016	-0.083025
C27	C	-0.327034	-1.484770	-0.000110
C28	C	-0.590665	-1.592445	-0.000157
C29	C	-0.663502	-1.590513	-0.000189
C30	C	-0.647960	-1.361610	-0.000177
C31	C	-0.575125	-1.363545	-0.000159
C32	C	-0.546481	-1.478966	-0.000142
C33	C	0.230334	-1.473051	-0.000163
C34	C	0.307852	-1.475102	-0.000186
N35	N	0.102735	-1.482926	0.346537
C36	C	0.167227	-1.033089	-0.000143
C37	C	0.165295	-0.902109	-0.000168
C38	C	0.038231	-0.932761	-0.000121
C39	C	0.040164	-1.063738	-0.000086
C40	C	0.240587	-1.015391	-0.000176
C41	C	0.238654	-0.884411	-0.000201
N42	N	0.102722	-1.482924	-0.346792
C43	C	0.055700	-1.568581	0.423196
C44	C	0.055692	-1.568577	0.576533
C45	C	0.149759	-1.397260	0.576537
C46	C	0.149764	-1.397258	0.423203
C47	C	0.001393	-1.667493	0.423195
C48	C	0.001385	-1.667490	0.576532
H49	H	-0.123254	-1.698197	-0.000074
H50	H	-0.014283	-0.891904	-0.000129
C51	C	0.201492	-1.303035	0.660873
C52	C	0.201612	-1.303243	0.829534
C53	C	0.253346	-1.209016	0.913866
C54	C	0.304962	-1.114581	0.829536
C55	C	0.304845	-1.114368	0.660866
C56	C	0.253110	-1.208595	0.576534
H57	H	0.163401	-1.373153	0.891968
H58	H	0.253433	-1.209174	1.038727
H59	H	0.343260	-1.044828	0.891964
H60	H	0.343056	-1.044458	0.598432
H61	H	0.253023	-1.208438	0.451673
H62	H	0.260826	-0.838270	0.104961
C63	C	-0.071098	-1.640051	0.366976
C64	C	-0.136884	-1.728949	0.407720
C65	C	-0.209372	-1.701505	0.351501
C66	C	-0.216074	-1.585162	0.254538
C67	C	-0.150286	-1.496256	0.213788
C68	C	-0.077798	-1.523700	0.270007
H69	H	-0.131925	-1.815080	0.479503
H70	H	-0.258073	-1.767320	0.381667
H71	H	-0.269734	-1.564847	0.212921
H72	H	-0.155245	-1.410125	0.142005
H73	H	-0.029097	-1.457885	0.239841
C74	C	0.275981	-0.827234	-0.137949
C75	C	0.308022	-0.913475	-0.248975
C76	C	0.345343	-0.856298	-0.386721
C77	C	0.350625	-0.712881	-0.413439
C78	C	0.318584	-0.626631	-0.302409
C79	C	0.281262	-0.683807	-0.164664
H80	H	0.304113	-1.019649	-0.229200
H81	H	0.369063	-0.920147	-0.468912
H82	H	0.378253	-0.670555	-0.515406
H83	H	0.322493	-0.520457	-0.322185
H84	H	0.257543	-0.619959	-0.082472
C85	C	0.024365	-1.790186	0.358922
C86	C	-0.017651	-1.917966	0.394305
C87	C	0.005325	-2.040657	0.330033
C88	C	0.070319	-2.035568	0.230379
C89	C	0.112339	-1.907784	0.194991
C90	C	0.089363	-1.785093	0.259262
H91	H	-0.065767	-1.921737	0.468080
H92	H	-0.025782	-2.135252	0.356231
H93	H	0.087327	-2.126392	0.182801
H94	H	0.160455	-1.904012	0.121216
H95	H	0.120469	-1.690498	0.233065
C96	C	0.279346	-1.054208	0.137538
C97	C	0.251272	-1.026024	0.290731
C98	C	0.290029	-1.064841	0.428442
C99	C	0.356860	-1.131843	0.412959
C100	C	0.384937	-1.160030	0.259759
C101	C	0.346180	-1.121213	0.122048
H102	H	0.201797	-0.976422	0.302199
H103	H	0.269244	-1.043974	0.541850
H104	H	0.385550	-1.160578	0.514900
H105	H	0.434412	-1.209632	0.248292
H106	H	0.366965	-1.142080	0.008640
C107	C	-0.067131	-1.627751	0.640784
C108	C	-0.113195	-1.719139	0.740417
C109	C	-0.181712	-1.679410	0.804664
C110	C	-0.204165	-1.548293	0.769277
C111	C	-0.158100	-1.456897	0.669638
C112	C	-0.089583	-1.496626	0.605392
H113	H	-0.096574	-1.816207	0.766618
H114	H	-0.215812	-1.747068	0.878423
H115	H	-0.254885	-1.518883	0.816835
H116	H	-0.174720	-1.359830	0.643438
H117	H	-0.055483	-1.428968	0.531633
H118	H	0.188057	-1.327501	0.360788
H119	H	-0.255386	-1.694693	-0.000112
H120	H	0.013347	-1.763748	0.618139
H121	H	-0.227199	-1.279418	-0.000107
H122	H	-0.095058	-1.282908	-0.000100
H123	H	-0.567342	-1.686428	-0.000149
H124	H	0.263945	-1.050553	-0.105354
H125	H	-0.699475	-1.682922	-0.000197
H126	H	-0.671287	-1.267641	-0.000180
H127	H	-0.539151	-1.271141	-0.000151
H128	H	-0.010781	-1.129530	-0.000034
