data_functionalizedCrystal
_audit_creation_method	'MofGen! by Chris Wilmer'
_symmetry_space_group_name_H-M	'P1'
_symmetry_Int_Tables_number	1
_symmetry_cell_setting	triclinic
loop_
_symmetry_equiv_pos_as_xyz
  x,y,z
_cell_length_a	6.817900
_cell_length_b	11.102289
_cell_length_c	16.788203
_cell_angle_alpha	82.087753
_cell_angle_beta	89.308909
_cell_angle_gamma	108.605707
loop_
_atom_site_label
_atom_site_type_symbol
_atom_site_fract_x
_atom_site_fract_y
_atom_site_fract_z
V1	V	-3.912641	-0.175092	0.248302
O2	O	-3.875460	0.009182	0.243576
O3	O	-3.890779	-0.347918	0.246604
O4	O	-3.802680	-0.172062	0.356596
O5	O	-3.964168	-0.167891	0.132823
V6	V	-4.400807	-0.153091	0.234490
O7	O	-4.163714	-0.223355	0.278601
O8	O	-4.599932	-0.104829	0.204192
O9	O	-4.199464	0.019734	0.236188
O10	O	-4.555386	-0.337366	0.239217
O11	O	-4.466677	-0.160292	0.349970
O12	O	-4.287562	-0.156121	0.126197
C13	C	-3.744227	-0.390059	0.242687
C14	C	-3.807228	-0.531344	0.242020
C15	C	-4.017651	-0.604181	0.245680
C16	C	-4.076836	-0.736935	0.245060
C17	C	-3.715152	-0.724001	0.237118
C18	C	-3.655971	-0.591251	0.237743
C19	C	-4.226467	-0.611649	0.250261
C20	C	-4.285652	-0.744403	0.249642
C21	C	-3.631848	-0.165736	0.382991
C22	C	-3.623401	-0.164402	0.471521
C23	C	-4.121724	-0.162449	0.099797
C24	C	-4.109181	-0.163807	0.009602
V25	V	-3.830104	-0.173172	-0.125086
O26	O	-3.764230	-0.165969	-0.240566
O27	O	-3.943354	-0.170144	-0.016794
O28	O	-4.031442	-0.345999	-0.126786
O29	O	-3.675533	0.011104	-0.129812
V30	V	-3.318252	-0.151162	-0.138897
O31	O	-3.630977	-0.221430	-0.094787
O32	O	-3.067178	-0.102896	-0.169194
O33	O	-3.428210	-0.154193	-0.247191
O34	O	-3.266728	-0.158363	-0.023417
O35	O	-3.355425	-0.335435	-0.134171
O36	O	-3.340123	0.021662	-0.137199
C37	C	-4.009359	0.061869	0.240103
C38	C	-3.925594	0.203153	0.240775
C39	C	-4.221546	-0.388136	-0.130701
C40	C	-4.305306	-0.529420	-0.131373
C41	C	-3.599043	-0.160521	-0.273587
C42	C	-3.607485	-0.161854	-0.362117
C43	C	-3.800191	-0.170102	0.517169
C44	C	-3.792232	-0.168823	0.600350
C45	C	-3.430681	-0.156151	0.592228
C46	C	-3.438638	-0.157420	0.509048
C47	C	-4.008932	-0.177423	0.521859
C48	C	-4.000973	-0.176145	0.605040
C49	C	-3.486675	0.063800	-0.133281
C50	C	-3.423673	0.205084	-0.132611
C51	C	-4.170782	-0.602256	-0.127709
C52	C	-4.249496	-0.735006	-0.128339
C53	C	-4.597267	-0.722075	-0.136296
C54	C	-4.518551	-0.589325	-0.135671
C55	C	-3.970001	-0.609724	-0.123111
C56	C	-4.048714	-0.742474	-0.123742
H57	H	-3.592013	-0.772794	0.233637
H58	H	-3.294679	-0.152781	0.471885
H59	H	-3.280251	-0.150464	0.622793
H60	H	-4.052045	-0.091253	0.492348
C61	C	-4.413822	-0.778361	0.176149
N62	N	-4.510351	-0.803938	0.120795
C63	C	-4.154407	-0.305523	0.501146
N64	N	-4.263980	-0.402008	0.485544
C65	C	-4.399882	-0.822345	0.329344
N66	N	-4.485916	-0.881052	0.389375
H67	H	-4.118144	-0.267938	0.638155
C68	C	-4.831837	-0.787986	-0.141012
N69	N	-5.008520	-0.837630	-0.144560
H70	H	-4.291941	-0.592254	0.308179
H71	H	-4.022827	-0.085851	0.623276
H72	H	-4.628098	-0.530025	-0.138664
C73	C	-3.814999	-0.546328	-0.196139
N74	N	-3.698258	-0.498579	-0.251144
C75	C	-3.875528	-0.576404	-0.042887
N76	N	-3.804366	-0.551308	0.017538
H77	H	-4.009271	-0.795133	-0.066160
C78	C	-3.974807	-0.782049	-0.200118
N79	N	-3.919143	-0.811858	-0.257643
H80	H	-3.484630	-0.531954	0.234773
H81	H	-4.271512	-0.558591	0.194111
