data_functionalizedCrystal
_audit_creation_method	'MofGen! by Chris Wilmer'
_symmetry_space_group_name_H-M	'P1'
_symmetry_Int_Tables_number	1
_symmetry_cell_setting	triclinic
loop_
_symmetry_equiv_pos_as_xyz
  x,y,z
_cell_length_a	10.654550
_cell_length_b	10.868271
_cell_length_c	11.792241
_cell_angle_alpha	90.005281
_cell_angle_beta	84.339159
_cell_angle_gamma	90.007832
loop_
_atom_site_label
_atom_site_type_symbol
_atom_site_fract_x
_atom_site_fract_y
_atom_site_fract_z
O1	O	1.667390	0.102424	0.159420
O2	O	1.301868	0.102404	0.174609
O3	O	1.493499	0.102406	0.001865
O4	O	1.475759	0.102422	0.332165
O5	O	1.493484	-0.102239	0.001858
O6	O	1.301853	-0.102240	0.174602
O7	O	1.667374	-0.102221	0.159414
Zn8	Zn	1.484611	-0.134722	0.167007
Zn9	Zn	1.484632	0.134906	0.167016
O10	O	1.475743	-0.102222	0.332158
C11	C	1.255066	0.000079	0.173490
C12	C	1.115632	0.000072	0.170154
N13	N	1.484606	-0.318736	0.167000
C14	C	1.035858	0.000095	0.271863
C15	C	0.904847	0.000116	0.268721
C16	C	0.933394	0.000096	0.062152
C17	C	1.064404	0.000066	0.065295
C18	C	1.019376	0.000111	0.391124
C19	C	0.888364	0.000133	0.387982
C20	C	1.484625	-0.569742	0.167013
C21	C	1.484610	-0.430065	0.167009
C22	C	1.714177	0.000107	0.160532
C23	C	1.853611	0.000123	0.163869
C24	C	1.492377	0.000084	-0.040432
C25	C	1.489042	0.000085	-0.166454
N26	N	1.484647	0.318920	0.167014
C27	C	1.482908	0.000105	-0.397180
C28	C	1.486316	0.000094	-0.268787
C29	C	1.476865	0.000102	0.374455
C30	C	1.480201	0.000109	0.500476
H31	H	1.048568	-0.085535	0.437764
C32	C	1.152153	0.000030	-0.046588
C33	C	1.145867	-0.106246	-0.132221
C34	C	1.233615	-0.106283	-0.244110
C35	C	1.327649	-0.000044	-0.270367
C36	C	1.333939	0.106240	-0.184732
C37	C	1.246191	0.106277	-0.072843
H38	H	1.076254	-0.184898	-0.112786
H39	H	1.228959	-0.184962	-0.307502
H40	H	1.392606	-0.000071	-0.353194
H41	H	1.403552	0.184892	-0.204167
H42	H	1.250847	0.184956	-0.009451
C43	C	0.877038	0.000098	-0.053188
C44	C	0.790861	-0.106153	-0.083754
C45	C	0.734508	-0.106150	-0.199097
C46	C	0.764333	0.000105	-0.283873
C47	C	0.850514	0.106364	-0.253308
C48	C	0.906867	0.106361	-0.137966
H49	H	0.768779	-0.184817	-0.020996
H50	H	0.670711	-0.184810	-0.221722
H51	H	0.722617	0.000107	-0.369256
H52	H	0.872596	0.185027	-0.316066
H53	H	0.970665	0.185021	-0.115340
H54	H	1.054931	0.088467	0.429101
H55	H	0.842584	-0.088216	0.424021
C56	C	0.831812	0.115847	0.448671
C57	C	0.918590	0.209115	0.500764
C58	C	0.862039	0.324828	0.561445
C59	C	0.718711	0.347273	0.570033
C60	C	0.631924	0.254002	0.517938
C61	C	0.688475	0.138290	0.457257
H62	H	1.024698	0.192502	0.494409
H63	H	0.926285	0.393872	0.600010
H64	H	0.676848	0.432930	0.614953
H65	H	0.525816	0.270615	0.524293
H66	H	0.624229	0.069245	0.418693
