data_functionalizedCrystal
_audit_creation_method	'MofGen! by Chris Wilmer'
_symmetry_space_group_name_H-M	'P1'
_symmetry_Int_Tables_number	1
_symmetry_cell_setting	triclinic
loop_
_symmetry_equiv_pos_as_xyz
  x,y,z
_cell_length_a	16.992695
_cell_length_b	14.971486
_cell_length_c	14.048226
_cell_angle_alpha	90.001501
_cell_angle_beta	89.993436
_cell_angle_gamma	92.858824
loop_
_atom_site_label
_atom_site_type_symbol
_atom_site_fract_x
_atom_site_fract_y
_atom_site_fract_z
O1	O	0.102190	-1.194127	-0.079052
O2	O	0.114427	-0.934587	-0.079078
O3	O	-0.005835	-1.063316	-0.079057
O4	O	0.222452	-1.065397	-0.079072
O5	O	-0.005842	-1.063299	0.079264
O6	O	0.114420	-0.934570	0.079244
O7	O	0.102183	-1.194110	0.079270
Zn8	Zn	0.108300	-1.064337	0.104394
Zn9	Zn	0.108310	-1.064359	-0.104201
O10	O	0.222445	-1.065380	0.079249
C11	C	0.113876	-0.901215	0.000080
C12	C	0.112236	-0.801803	0.000070
C13	C	-0.035054	-1.060631	0.000103
C14	C	-0.122105	-1.052644	0.000102
C15	C	0.102733	-1.227482	0.000110
C16	C	0.104373	-1.326894	0.000114
C17	C	-0.172274	-1.129708	0.000111
C18	C	-0.254067	-1.122198	0.000101
C19	C	-0.285691	-1.037623	0.000089
C20	C	-0.235517	-0.960553	0.000078
C21	C	-0.153724	-0.968064	0.000081
C22	C	-0.529318	-1.006493	0.000073
C23	C	-0.611117	-0.998988	0.000073
C24	C	-0.629662	-1.160634	0.000094
C25	C	-0.547867	-1.168138	0.000103
C26	C	-0.497700	-1.091068	0.000087
N27	N	-0.369297	-1.029945	0.000082
N28	N	-0.414095	-1.098747	0.000087
C29	C	0.251664	-1.068066	0.000087
C30	C	0.338715	-1.076053	0.000082
N31	N	0.108293	-1.064328	0.246754
C32	C	0.182887	-0.749541	0.000067
C33	C	0.181341	-0.656133	0.000081
C34	C	0.109144	-0.614988	0.000092
C35	C	0.038488	-0.667257	0.000098
C36	C	0.040034	-0.760663	0.000091
C37	C	0.035269	-0.472568	0.000111
C38	C	0.033723	-0.379155	0.000117
C39	C	0.176577	-0.368038	0.000102
C40	C	0.178123	-0.461445	0.000094
C41	C	0.107466	-0.513707	0.000099
N42	N	0.108310	-1.064375	-0.246562
C43	C	0.055063	-1.121350	0.296581
C44	C	0.055063	-1.121356	0.396239
C45	C	0.108297	-1.064344	0.446068
C46	C	0.161529	-1.007316	0.396234
C47	C	0.161526	-1.007306	0.296578
C48	C	0.161535	-1.007342	0.603948
C49	C	0.161540	-1.007353	0.703611
C50	C	0.055072	-1.121393	0.703609
C51	C	0.055068	-1.121383	0.603953
C52	C	0.108302	-1.064355	0.554126
H53	H	-0.294912	-1.184952	0.000110
C54	C	-0.003497	-1.184066	0.241775
C55	C	-0.062052	-1.246785	0.296590
C56	C	-0.120616	-1.309500	0.241787
C57	C	-0.120624	-1.309497	0.132169
C58	C	-0.062067	-1.246776	0.077348
C59	C	-0.003503	-1.184061	0.132151
H60	H	-0.062048	-1.246789	0.377741
H61	H	-0.163964	-1.355931	0.282369
H62	H	-0.163976	-1.355923	0.091601
H63	H	-0.062071	-1.246771	-0.003803
H64	H	0.039845	-1.137630	0.091569
H65	H	-0.488481	-0.943737	0.000060
H66	H	-0.670517	-1.223380	0.000106
H67	H	-0.522126	-1.237008	0.000113
H68	H	0.011718	-1.167788	0.436808
H69	H	0.011728	-1.167826	0.744184
C70	C	-0.042452	-0.530060	0.000114
C71	C	-0.101597	-0.521811	0.082328
C72	C	-0.179316	-0.579303	0.082326
C73	C	-0.197889	-0.645045	0.000110
C74	C	-0.138742	-0.653296	-0.082110
C75	C	-0.061023	-0.595804	-0.082108
H76	H	-0.087850	-0.473143	0.143195
H77	H	-0.223100	-0.573195	0.143191
H78	H	-0.255420	-0.687604	0.000108
H79	H	-0.152489	-0.701965	-0.142977
H80	H	-0.017239	-0.601912	-0.142973
H81	H	-0.146533	-1.198578	0.000126
C82	C	0.220081	-0.944582	0.241765
C83	C	0.278666	-0.881902	0.296571
C84	C	0.337221	-0.819173	0.241760
C85	C	0.337191	-0.819123	0.132143
C86	C	0.278605	-0.881805	0.077330
C87	C	0.220050	-0.944534	0.132141
H88	H	0.278690	-0.881937	0.377722
H89	H	0.380590	-0.772771	0.282336
H90	H	0.380537	-0.772687	0.091568
H91	H	0.278581	-0.881770	-0.003821
H92	H	0.176680	-0.990936	0.091565
C93	C	0.220094	-0.944632	0.758420
C94	C	0.218617	-0.842676	0.744736
C95	C	0.277171	-0.779953	0.799543
C96	C	0.337203	-0.819185	0.868033
C97	C	0.338683	-0.921146	0.881720
C98	C	0.280128	-0.983869	0.826913
H99	H	0.174176	-0.813630	0.694033
H100	H	0.276076	-0.704475	0.789411
H101	H	0.380549	-0.772754	0.908604
H102	H	0.383124	-0.950192	0.932423
H103	H	0.281224	-1.059347	0.837045
H104	H	0.011725	-1.167811	0.563383
H105	H	0.204881	-0.960901	0.563382
H106	H	-0.636861	-0.930114	0.000079
H107	H	0.204871	-0.960891	0.436810
H108	H	-0.261271	-0.891690	0.000062
H109	H	-0.112878	-0.905310	0.000073
C110	C	0.259061	-0.598650	0.000072
C111	C	0.277645	-0.532900	-0.082135
C112	C	0.355369	-0.475419	-0.082144
C113	C	0.414510	-0.483687	0.000055
C114	C	0.395928	-0.549440	0.082268
C115	C	0.318204	-0.606921	0.082276
H116	H	0.233864	-0.526777	-0.142989
H117	H	0.369125	-0.426744	-0.143004
H118	H	0.472047	-0.441136	0.000048
H119	H	0.439709	-0.555563	0.143122
H120	H	0.304448	-0.655596	0.143137
H121	H	0.241679	-0.783034	0.000057
H122	H	-0.020297	-0.633749	0.000120
H123	H	0.236912	-0.494942	0.000077
H124	H	0.234108	-0.325482	0.000103
H125	H	-0.025067	-0.345658	0.000127
H126	H	-0.017497	-0.803213	0.000093
