data_functionalizedCrystal
_audit_creation_method	'MofGen! by Chris Wilmer'
_symmetry_space_group_name_H-M	'P1'
_symmetry_Int_Tables_number	1
_symmetry_cell_setting	triclinic
loop_
_symmetry_equiv_pos_as_xyz
  x,y,z
_cell_length_a	12.759401
_cell_length_b	16.625546
_cell_length_c	12.759393
_cell_angle_alpha	89.964856
_cell_angle_beta	89.981287
_cell_angle_gamma	90.023993
loop_
_atom_site_label
_atom_site_type_symbol
_atom_site_fract_x
_atom_site_fract_y
_atom_site_fract_z
Zn1	Zn	1.606187	-0.320930	-0.593986
Zn2	Zn	1.606061	-0.455784	-0.418292
Zn3	Zn	1.430492	-0.320973	-0.418322
Zn4	Zn	1.430453	-0.455728	-0.593930
O5	O	1.518298	-0.388353	-0.506132
O6	O	1.753191	-0.338824	-0.570692
O7	O	1.582735	-0.437942	-0.271275
O8	O	1.453867	-0.208134	-0.441660
O9	O	1.753098	-0.437901	-0.441610
O10	O	1.582949	-0.208103	-0.570720
O11	O	1.453745	-0.338897	-0.271297
O12	O	1.283466	-0.338842	-0.441605
O13	O	1.453801	-0.437805	-0.740958
O14	O	1.283438	-0.437846	-0.570623
O15	O	1.582912	-0.338769	-0.741000
O16	O	1.582697	-0.568609	-0.441555
O17	O	1.453679	-0.568567	-0.570595
C18	C	1.245331	-0.388344	-0.506112
C19	C	1.128554	-0.388359	-0.506128
C20	C	1.518199	-0.597844	-0.506088
C21	C	1.518252	-0.687465	-0.506105
C22	C	1.073705	-0.439989	-0.573202
C23	C	0.963981	-0.439992	-0.573223
C24	C	0.963965	-0.336733	-0.439086
C25	C	1.073687	-0.336726	-0.439071
C26	C	0.814075	-0.468924	-0.697080
C27	C	0.759222	-0.520566	-0.764145
C28	C	0.794805	-0.599254	-0.780084
C29	C	0.885240	-0.626316	-0.728944
C30	C	0.940087	-0.574678	-0.661871
C31	C	0.904505	-0.495978	-0.645952
C32	C	1.223595	-0.307803	-0.315212
C33	C	1.278444	-0.256168	-0.248134
C34	C	1.242863	-0.177479	-0.232183
C35	C	1.152425	-0.150420	-0.283306
C36	C	1.097576	-0.202054	-0.350384
C37	C	1.133165	-0.280743	-0.366336
C38	C	1.518436	-1.015641	-0.506214
C39	C	1.518381	-0.924332	-0.506187
C40	C	1.518343	-0.851556	-0.506159
C41	C	1.518290	-0.760242	-0.506132
C42	C	1.792331	-0.388364	-0.506154
C43	C	1.909108	-0.388368	-0.506163
C44	C	1.518366	-0.388276	-0.780166
C45	C	1.518395	-0.388243	-0.896943
C46	C	1.518427	-0.178044	-0.506200
C47	C	1.518481	-0.088423	-0.506228
C48	C	1.451190	-0.439787	-0.951785
C49	C	1.451227	-0.439757	-1.061509
C50	C	1.585678	-0.336632	-1.061539
C51	C	1.585645	-0.336667	-0.951817
C52	C	1.413674	-0.534799	-1.211433
C53	C	1.346452	-0.586336	-1.266279
C54	C	1.243920	-0.598721	-1.230662
C55	C	1.208587	-0.559558	-1.140201
C56	C	1.275803	-0.508016	-1.085361
C57	C	1.378351	-0.495646	-1.120976
C58	C	1.623188	-0.241623	-0.801891
C59	C	1.690399	-0.190076	-0.747049
C60	C	1.792934	-0.177682	-0.782664
C61	C	1.828262	-0.216831	-0.873128
C62	C	1.761051	-0.268379	-0.927970
C63	C	1.658517	-0.280773	-0.892348
C64	C	1.518291	-0.388372	-0.233165
C65	C	1.518466	-0.388178	-0.116389
H66	H	1.118375	-0.482029	-0.627806
O67	O	0.919979	-0.702708	-0.744446
C68	C	1.022003	-0.700540	-0.786837
H69	H	1.060683	-0.640775	-0.766300
H70	H	1.017622	-0.707064	-0.875667
C71	C	1.039607	-0.843500	-0.766115
C72	C	1.087119	-0.770097	-0.740883
H73	H	1.079774	-0.886408	-0.737773
H74	H	0.970870	-0.844961	-0.737559
H75	H	1.035959	-0.848925	-0.840140
H76	H	1.090754	-0.764668	-0.666860
H77	H	1.155858	-0.768637	-0.769426
H78	H	1.013716	-0.596711	-0.620233
O79	O	1.513348	-0.522860	-1.245884
C80	C	1.584683	-0.547128	-1.167657
H81	H	1.545109	-0.592312	-1.113276
H82	H	1.610707	-0.492423	-1.120522
C83	C	1.729515	-0.531002	-1.286129
C84	C	1.680912	-0.586504	-1.219342
H85	H	1.788876	-0.555288	-1.318010
H86	H	1.681456	-0.514649	-1.338832
H87	H	1.751192	-0.485419	-1.246840
H88	H	1.659224	-0.632081	-1.258634
H89	H	1.728969	-0.602865	-1.166647
H90	H	1.396424	-0.481778	-0.907109
H91	H	0.750136	-0.641301	-0.834692
H92	H	1.287527	-0.135441	-0.177553
O93	O	1.117710	-0.074032	-0.267708
C94	C	1.015670	-0.076207	-0.225357
H95	H	1.002307	-0.136523	-0.184956
H96	H	0.955913	-0.068297	-0.290961
C97	C	1.019394	0.066290	-0.194672
C98	C	1.002984	-0.007789	-0.145043
H99	H	1.011565	0.108495	-0.145134
H100	H	1.088139	0.067757	-0.223209
H101	H	0.969594	0.072870	-0.249341
H102	H	1.052791	-0.014373	-0.090384
H103	H	0.934247	-0.009256	-0.116495
H104	H	1.640429	-0.294640	-1.106232
H105	H	1.352083	-0.278207	-0.206507
H106	H	1.247035	-0.476127	-1.011712
O107	O	0.910503	-0.286657	-0.373983
C108	C	0.801897	-0.297718	-0.388396
H109	H	0.786898	-0.359978	-0.422653
H110	H	0.770809	-0.249948	-0.444467
C111	C	0.763939	-0.213759	-0.240045
C112	C	0.745517	-0.290230	-0.282112
H113	H	0.729159	-0.209136	-0.174486
H114	H	0.837109	-0.206304	-0.230336
H115	H	0.738032	-0.173959	-0.286781
H116	H	0.771435	-0.330028	-0.235383
H117	H	0.672350	-0.297691	-0.291811
H118	H	0.685591	-0.498525	-0.805785
O119	O	1.009790	-0.175829	-0.400217
C120	C	1.024601	-0.180789	-0.509532
H121	H	1.087864	-0.227187	-0.527465
H122	H	1.049861	-0.119584	-0.541002
C123	C	0.843500	-0.149225	-0.540178
C124	C	0.921194	-0.206216	-0.562205
H125	H	0.779714	-0.164905	-0.572671
H126	H	0.833522	-0.145880	-0.466531
H127	H	0.864564	-0.098225	-0.566404
H128	H	0.900136	-0.257211	-0.535967
H129	H	0.931167	-0.209570	-0.635849
H130	H	1.125090	-0.569639	-1.111216
H131	H	1.911752	-0.206735	-0.902131
O132	O	1.523598	-0.253547	-0.767175
C133	C	1.506835	-0.207948	-0.675562
H134	H	1.564593	-0.155645	-0.673326
H135	H	1.519035	-0.247715	-0.603778
C136	C	1.323081	-0.239310	-0.678224
C137	C	1.394015	-0.175067	-0.675482
H138	H	1.253487	-0.219030	-0.678171
H139	H	1.334375	-0.270034	-0.739943
H140	H	1.333260	-0.272444	-0.618402
H141	H	1.383843	-0.141941	-0.735309
H142	H	1.382717	-0.144337	-0.613773
O143	O	1.178769	-0.648836	-1.284035
C144	C	1.231928	-0.680724	-1.371529
H145	H	1.320052	-0.678087	-1.357243
H146	H	1.211691	-0.643980	-1.444220
C147	C	1.090053	-0.771993	-1.405754
C148	C	1.198289	-0.768761	-1.388204
H149	H	1.069301	-0.826297	-1.416044
H150	H	1.054237	-0.750508	-1.346811
H151	H	1.073203	-0.741368	-1.466328
H152	H	1.215136	-0.799376	-1.327623
H153	H	1.234107	-0.790253	-1.447138
H154	H	1.375229	-0.618222	-1.339932
O155	O	1.795546	-0.306370	-1.015807
C156	C	1.900449	-0.284360	-1.035507
H157	H	1.938518	-0.263183	-0.959558
H158	H	1.902535	-0.233620	-1.095614
C159	C	1.914040	-0.383477	-1.171707
C160	C	1.960800	-0.357473	-1.078423
H161	H	1.951268	-0.428575	-1.198184
H162	H	1.843364	-0.398304	-1.158438
H163	H	1.915781	-0.341187	-1.221784
H164	H	1.959047	-0.399760	-1.028344
H165	H	2.031478	-0.342655	-1.091685
H166	H	1.252581	-0.371876	-0.328203
O167	O	1.858201	-0.127505	-0.729524
C168	C	1.890158	-0.064344	-0.796056
H169	H	1.830411	-0.056563	-0.861689
H170	H	1.969995	-0.079187	-0.831198
C171	C	1.971313	0.004634	-0.651990
C172	C	1.897925	0.014195	-0.732596
H173	H	1.976109	0.053081	-0.612845
H174	H	1.949786	-0.037920	-0.607166
H175	H	2.037836	-0.007738	-0.681287
H176	H	1.831401	0.026557	-0.703297
H177	H	1.919440	0.056754	-0.777413
H178	H	0.785101	-0.404847	-0.684119
H179	H	1.661623	-0.158193	-0.673394
