data_functionalizedCrystal
_audit_creation_method	'MofGen! by Chris Wilmer'
_symmetry_space_group_name_H-M	'P1'
_symmetry_Int_Tables_number	1
_symmetry_cell_setting	triclinic
loop_
_symmetry_equiv_pos_as_xyz
  x,y,z
_cell_length_a	17.639617
_cell_length_b	16.625545
_cell_length_c	17.640968
_cell_angle_alpha	78.769372
_cell_angle_beta	70.333968
_cell_angle_gamma	101.210670
loop_
_atom_site_label
_atom_site_type_symbol
_atom_site_fract_x
_atom_site_fract_y
_atom_site_fract_z
Zn1	Zn	1.354393	0.106653	-0.721249
Zn2	Zn	1.326413	-0.062383	-0.583398
Zn3	Zn	1.188678	0.038319	-0.555517
Zn4	Zn	1.216502	-0.062304	-0.693281
O5	O	1.271497	0.005071	-0.638361
O6	O	1.466032	0.112795	-0.726336
O7	O	1.284788	-0.077655	-0.464354
O8	O	1.210725	0.160237	-0.577537
O9	O	1.445475	-0.011395	-0.625058
O10	O	1.332476	0.210442	-0.699300
O11	O	1.183594	-0.003670	-0.443869
O12	O	1.077018	-0.003594	-0.550418
O13	O	1.258148	-0.011261	-0.812337
O14	O	1.097461	-0.077521	-0.651633
O15	O	1.359456	0.112872	-0.832884
O16	O	1.311768	-0.175225	-0.597939
O17	O	1.231017	-0.175168	-0.678669
C18	C	1.057331	-0.047965	-0.594966
C19	C	0.965714	-0.070668	-0.576421
C20	C	0.717958	0.177616	-0.779451
C21	C	0.631866	0.156258	-0.762008
C22	C	0.610451	0.027073	-0.656396
C23	C	0.696543	0.048418	-0.673832
C24	C	0.750290	0.123691	-0.735360
C25	C	0.728876	-0.005507	-0.629742
C26	C	0.814960	0.015838	-0.647174
C27	C	0.868711	0.091109	-0.708697
C28	C	0.836374	0.145037	-0.752793
C29	C	0.675127	-0.080777	-0.568210
C30	C	0.707459	-0.134702	-0.524119
C31	C	0.793546	-0.113360	-0.541556
C32	C	0.847297	-0.038089	-0.603079
C33	C	0.825883	-0.167287	-0.497460
C34	C	0.911967	-0.145942	-0.514893
C35	C	0.933381	-0.016743	-0.620511
C36	C	1.271402	-0.204448	-0.638317
C37	C	1.271442	-0.294056	-0.638341
C38	C	1.271478	-0.366826	-0.638364
C39	C	1.271529	-0.458118	-0.638392
C40	C	1.271574	-0.530882	-0.638411
C41	C	1.271625	-0.622180	-0.638437
C42	C	1.486499	0.058314	-0.681926
C43	C	1.578120	0.081003	-0.700491
C44	C	1.315027	0.058437	-0.853355
C45	C	1.333577	0.081178	-0.944972
C46	C	1.271618	0.215419	-0.638428
C47	C	1.271670	0.305057	-0.638456
C48	C	1.130890	-0.167173	-1.192806
C49	C	1.148338	-0.145790	-1.278898
C50	C	1.253821	-0.016542	-1.300282
C51	C	1.236379	-0.037913	-1.214190
C52	C	1.174913	-0.113230	-1.160458
C53	C	1.280402	0.016031	-1.181842
C54	C	1.262964	-0.005340	-1.095757
C55	C	1.201503	-0.080655	-1.042021
C56	C	1.157475	-0.134601	-1.074374
C57	C	1.341871	0.091345	-1.235575
C58	C	1.385894	0.145288	-1.203227
C59	C	1.368453	0.123920	-1.117141
C60	C	1.306992	0.048605	-1.063404
C61	C	1.412480	0.177866	-1.084788
C62	C	1.395043	0.156495	-0.998703
C63	C	1.289554	0.027234	-0.977320
C64	C	1.228183	-0.048016	-0.424214
C65	C	1.209793	-0.070491	-0.332629
H66	H	0.605545	0.200180	-0.797913
H67	H	0.566679	-0.034213	-0.606297
Br68	Br	1.454794	0.229700	-0.954798
Br69	Br	1.206126	-0.074976	-0.904389
Br70	Br	0.985540	0.120089	-0.732349
Br71	Br	1.074047	-0.236811	-1.001442
H72	H	0.782109	-0.228570	-0.447359
Br73	Br	1.365543	0.120345	-1.352407
Br74	Br	1.047462	-0.269384	-1.119875
Br75	Br	0.558295	-0.109742	-0.544543
H76	H	0.977146	0.044550	-0.670616
Br77	Br	0.634510	-0.236852	-0.440616
H78	H	0.880139	0.206330	-0.802898
Br79	Br	0.955854	-0.219130	-0.455062
H80	H	0.761722	0.238909	-0.829556
H81	H	1.187310	-0.098057	-0.971927
H82	H	1.112485	-0.189723	-1.305231
H83	H	1.303868	0.044779	-1.344042
Br84	Br	1.495906	0.280069	-1.157720
Br85	Br	1.469313	0.247498	-1.276156
