data_functionalizedCrystal
_audit_creation_method	'MofGen! by Chris Wilmer'
_symmetry_space_group_name_H-M	'P1'
_symmetry_Int_Tables_number	1
_symmetry_cell_setting	triclinic
loop_
_symmetry_equiv_pos_as_xyz
  x,y,z
_cell_length_a	16.120530
_cell_length_b	12.645330
_cell_length_c	16.120297
_cell_angle_alpha	92.874885
_cell_angle_beta	90.128140
_cell_angle_gamma	87.108294
loop_
_atom_site_label
_atom_site_type_symbol
_atom_site_fract_x
_atom_site_fract_y
_atom_site_fract_z
Zn1	Zn	1.247519	-0.537082	-0.534581
Zn2	Zn	1.747519	-0.037082	-0.034581
Zn3	Zn	1.254495	-0.705845	-0.395529
Zn4	Zn	1.754495	-0.205845	0.104471
Zn5	Zn	1.115507	-0.519169	-0.388499
Zn6	Zn	1.615507	-0.019169	0.111501
Zn7	Zn	1.108451	-0.704868	-0.527498
Zn8	Zn	1.608451	-0.204868	-0.027498
O9	O	1.181493	-0.616741	-0.461527
O10	O	1.681493	-0.116741	0.038473
O11	O	1.364812	-0.567375	-0.522042
O12	O	1.864812	-0.067375	-0.022042
O13	O	1.241930	-0.673993	-0.278231
O14	O	1.741930	-0.173993	0.221769
O15	O	1.133052	-0.373201	-0.407899
O16	O	1.633052	0.126799	0.092101
O17	O	1.369937	-0.691364	-0.419881
O18	O	1.869937	-0.191364	0.080119
O19	O	1.230041	-0.386362	-0.515225
O20	O	1.730041	0.113638	-0.015225
O21	O	1.139816	-0.536843	-0.273066
O22	O	1.639816	-0.036843	0.226934
O23	O	0.998204	-0.535896	-0.401031
O24	O	1.498204	-0.035896	0.098969
O25	O	1.121027	-0.689700	-0.644804
O26	O	1.621027	-0.189700	-0.144804
O27	O	0.993020	-0.672329	-0.503153
O28	O	1.493020	-0.172329	-0.003153
O29	O	1.223200	-0.566428	-0.650008
O30	O	1.723200	-0.066428	-0.150008
O31	O	1.235089	-0.854059	-0.413013
O32	O	1.735089	-0.354059	0.086987
O33	O	1.127791	-0.853342	-0.509970
O34	O	1.627791	-0.353342	-0.009970
C35	C	0.965439	-0.602064	-0.450561
C36	C	1.465439	-0.102064	0.049439
C37	C	0.873009	-0.595812	-0.445890
C38	C	1.373009	-0.095812	0.054110
C39	C	1.181453	-0.892167	-0.461505
C40	C	1.681453	-0.392167	0.038495
C41	C	1.181510	-1.010002	-0.461528
C42	C	1.681510	-0.510002	0.038472
C43	C	0.703778	-0.584372	-0.437368
C44	C	1.203778	-0.084372	0.062632
C45	C	0.660046	-0.649192	-0.485747
C46	C	1.160046	-0.149192	0.014253
C47	C	0.565880	-0.642827	-0.481005
C48	C	1.065880	-0.142827	0.018995
C49	C	0.797952	-0.590736	-0.442108
C50	C	1.297952	-0.090736	0.057892
C51	C	1.248914	-1.177958	-0.400396
C52	C	1.748914	-0.677958	0.099604
C53	C	1.249115	-1.055422	-0.400564
C54	C	1.749115	-0.555422	0.099436
C55	C	1.200830	-1.061367	-0.550384
C56	C	1.700830	-0.561367	-0.050384
C57	C	1.201356	-1.183979	-0.550068
C58	C	1.701356	-0.683979	-0.050068
C59	C	1.094716	-1.169992	-0.434665
C60	C	1.594716	-0.669992	0.065335
C61	C	1.095237	-1.047295	-0.432721
C62	C	1.595237	-0.547295	0.067279
C63	C	1.398391	-0.631476	-0.472536
C64	C	1.898391	-0.131476	0.027464
C65	C	1.490820	-0.637756	-0.477228
C66	C	1.990820	-0.137756	0.022772
C67	C	1.170548	-0.629953	-0.678422
C68	C	1.670548	-0.129953	-0.178422
C69	C	1.165884	-0.635584	-0.770849
C70	C	1.665884	-0.135584	-0.270849
C71	C	1.181556	-0.340242	-0.461568
C72	C	1.681556	0.159758	0.038432
C73	C	1.181582	-0.222415	-0.461586
C74	C	1.681582	0.277585	0.038414
C75	C	1.157338	-0.645837	-0.940074
C76	C	1.657338	-0.145837	-0.440074
C77	C	1.205813	-0.587338	-0.983840
C78	C	1.705813	-0.087338	-0.483840
C79	C	1.201058	-0.593044	-1.078003
C80	C	1.701058	-0.093044	-0.578003
C81	C	1.162092	-0.640133	-0.845903
C82	C	1.662092	-0.140133	-0.345903
C83	C	1.192444	-0.603507	-0.245479
C84	C	1.692444	-0.103507	0.254521
C85	C	1.197269	-0.597589	-0.153060
C86	C	1.697269	-0.097589	0.346940
H87	H	0.693327	-0.709464	-0.530727
H88	H	1.193327	-0.209464	-0.030727
Br89	Br	1.280956	-0.496746	-0.928428
Br90	Br	1.780956	0.003254	-0.428428
Br91	Br	1.082221	-0.736452	-0.995489
Br92	Br	1.582221	-0.236452	-0.495489
Br93	Br	1.070815	-0.990347	-0.323696
Br94	Br	1.570815	-0.490347	0.176304
H95	H	1.237542	-1.020427	-0.334818
H96	H	1.737542	-0.520427	0.165182
Br97	Br	0.648310	-0.483917	-0.362403
Br98	Br	1.148310	0.016083	0.137597
Br99	Br	1.229959	-1.218900	-0.290509
Br100	Br	1.729959	-0.718900	0.209491
H101	H	1.313002	-1.213986	-0.418372
H102	H	1.813002	-0.713986	0.081628
H103	H	1.313544	-1.031346	-0.418724
H104	H	1.813544	-0.531346	0.081276
Br105	Br	1.122757	-1.233456	-0.629034
Br106	Br	1.622757	-0.733456	-0.129034
Br107	Br	1.306964	-1.240724	-0.587213
Br108	Br	1.806964	-0.740724	-0.087213
H109	H	1.153089	-1.032173	-0.597388
H110	H	1.653089	-0.532173	-0.097388
H111	H	1.263450	-1.036079	-0.572950
H112	H	1.763450	-0.536079	-0.072950
H113	H	1.076289	-1.195686	-0.370767
H114	H	1.576289	-0.695686	0.129233
H115	H	1.044603	-1.198637	-0.479177
H116	H	1.544603	-0.698637	0.020823
Br117	Br	1.007707	-0.995025	-0.500958
Br118	Br	1.507707	-0.495025	-0.000958
