data_functionalizedCrystal
_audit_creation_method	'MofGen! by Chris Wilmer'
_symmetry_space_group_name_H-M	'P1'
_symmetry_Int_Tables_number	1
_symmetry_cell_setting	triclinic
loop_
_symmetry_equiv_pos_as_xyz
  x,y,z
_cell_length_a	11.026660
_cell_length_b	10.489746
_cell_length_c	9.482900
_cell_angle_alpha	99.430023
_cell_angle_beta	78.636107
_cell_angle_gamma	96.563068
loop_
_atom_site_label
_atom_site_type_symbol
_atom_site_fract_x
_atom_site_fract_y
_atom_site_fract_z
O1	O	1.633619	0.519507	-0.120913
O2	O	1.279782	0.458570	-0.120912
O3	O	1.464747	0.305213	-0.120902
O4	O	1.448654	0.672864	-0.120923
O5	O	1.427178	0.336523	0.120889
O6	O	1.242212	0.489880	0.120878
O7	O	1.596050	0.550818	0.120878
Cu8	Cu	1.415701	0.523208	0.142955
Cu9	Cu	1.460131	0.486180	-0.142990
O10	O	1.411085	0.704175	0.120867
C11	C	1.215688	0.462983	-0.000017
C12	C	1.080681	0.429469	-0.000016
C13	C	0.868150	0.487379	-0.000024
C14	C	1.007686	0.522020	-0.000023
C15	C	1.444745	0.273069	-0.000007
C16	C	1.441104	0.130638	-0.000008
C17	C	1.321263	-0.048583	-0.000025
C18	C	1.399703	0.026552	-0.119238
C19	C	1.362691	0.057386	0.119148
C20	C	1.513138	-0.048007	-0.119351
C21	C	1.476093	-0.017168	0.119143
C22	C	1.554621	0.057932	-0.000099
C23	C	1.660144	0.546404	-0.000021
C24	C	1.795152	0.579916	-0.000031
C25	C	1.431087	0.736318	-0.000031
C26	C	1.434729	0.878747	-0.000040
N27	N	1.384460	0.549252	0.344074
N28	N	1.491381	0.460127	-0.344108
C29	C	1.450908	0.493853	0.416277
C30	C	1.424924	0.515535	0.583693
H31	H	0.827339	0.382513	0.000003
Br32	Br	1.156852	-0.125985	-0.000214
Br33	Br	1.075678	0.696825	-0.000014
H34	H	1.348789	0.579014	0.645813
Br35	Br	1.012687	0.254668	0.000011
H36	H	1.567507	0.396636	0.593772
H37	H	1.308330	0.612728	0.406199
H38	H	0.835958	0.684787	-0.000028
H39	H	1.576682	-0.093825	-0.220251
Br40	Br	1.345978	0.059694	-0.287231
H41	H	1.527029	0.430366	0.354153
H42	H	1.653367	0.104117	-0.000164
Br43	Br	1.529756	-0.050375	0.287137
H44	H	1.299110	0.103341	0.219934
