data_functionalizedCrystal
_audit_creation_method	'MofGen! by Chris Wilmer'
_symmetry_space_group_name_H-M	'P1'
_symmetry_Int_Tables_number	1
_symmetry_cell_setting	triclinic
loop_
_symmetry_equiv_pos_as_xyz
  x,y,z
_cell_length_a	10.686285
_cell_length_b	12.759401
_cell_length_c	12.759393
_cell_angle_alpha	90.022497
_cell_angle_beta	85.602987
_cell_angle_gamma	94.367583
loop_
_atom_site_label
_atom_site_type_symbol
_atom_site_fract_x
_atom_site_fract_y
_atom_site_fract_z
Zn1	Zn	-0.502261	-1.638402	-0.562049
Zn2	Zn	-0.713300	-1.651796	-0.372917
Zn3	Zn	-0.502325	-1.462705	-0.386375
Zn4	Zn	-0.713209	-1.476190	-0.548555
O5	O	-0.607774	-1.557273	-0.467474
O6	O	-0.530266	-1.787200	-0.536975
O7	O	-0.685379	-1.626674	-0.227677
O8	O	-0.325740	-1.474763	-0.420958
O9	O	-0.685316	-1.797041	-0.398020
O10	O	-0.325693	-1.603847	-0.550025
O11	O	-0.530376	-1.487750	-0.237564
O12	O	-0.530288	-1.317472	-0.407874
O13	O	-0.685161	-1.497745	-0.697370
O14	O	-0.685224	-1.327379	-0.527027
O15	O	-0.530178	-1.616922	-0.707284
O16	O	-0.889864	-1.639750	-0.384936
O17	O	-0.889798	-1.510733	-0.513977
C18	C	-0.607754	-1.284304	-0.467447
C19	C	-0.607776	-1.167529	-0.467458
C20	C	-0.935615	-1.578187	-0.446555
C21	C	-1.075867	-1.587230	-0.437640
C22	C	-0.688573	-1.117861	-0.529386
C23	C	-0.688576	-1.008137	-0.529404
C24	C	-0.526982	-0.997759	-0.405557
C25	C	-0.526974	-1.107480	-0.405546
C26	C	-0.278652	-1.536306	-0.488498
C27	C	-0.138400	-1.527372	-0.497457
C28	C	-0.607653	-1.557344	-0.741515
C29	C	-0.607601	-1.557374	-0.858295
C30	C	-0.607790	-0.831307	-0.467495
C31	C	-0.607788	-0.948084	-0.467487
C32	C	-0.526888	-1.619434	-0.918322
C33	C	-0.526834	-1.619448	-1.028049
C34	C	-0.688216	-1.495341	-1.017713
C35	C	-0.688263	-1.495322	-0.907988
C36	C	-0.607803	-1.557257	-0.194505
C37	C	-0.607500	-1.557408	-0.077748
H38	H	-0.754365	-1.166750	-0.579802
N39	N	-0.439893	-1.686362	-0.864727
H40	H	-0.491205	-1.738310	-0.815944
H41	H	-0.388778	-1.725607	-0.919478
H42	H	-0.461171	-1.147920	-0.355117
N43	N	-1.147076	-1.664282	-0.360764
H44	H	-1.085421	-1.702942	-0.322116
H45	H	-1.201839	-1.625031	-0.308659
N46	N	-0.775192	-1.428412	-1.071330
H47	H	-0.833653	-1.474834	-1.113132
H48	H	-0.826246	-1.389090	-1.016600
N49	N	-1.067197	-1.450335	-0.574340
H50	H	-1.128849	-1.411674	-0.612990
H51	H	-1.012599	-1.398259	-0.534961
H52	H	-0.461108	-1.669981	-1.076919
H53	H	-0.753988	-1.444778	-0.859113
H54	H	-0.461198	-0.948854	-0.355148
N55	N	-0.775727	-0.954566	-0.596192
H56	H	-0.826912	-1.009259	-0.635407
H57	H	-0.834057	-0.912743	-0.549622
