data_functionalizedCrystal
_audit_creation_method	'MofGen! by Chris Wilmer'
_symmetry_space_group_name_H-M	'P1'
_symmetry_Int_Tables_number	1
_symmetry_cell_setting	triclinic
loop_
_symmetry_equiv_pos_as_xyz
  x,y,z
_cell_length_a	15.944499
_cell_length_b	15.944499
_cell_length_c	16.176319
_cell_angle_alpha	89.996444
_cell_angle_beta	89.989994
_cell_angle_gamma	83.477610
loop_
_atom_site_label
_atom_site_type_symbol
_atom_site_fract_x
_atom_site_fract_y
_atom_site_fract_z
O1	O	1.114534	0.108130	-0.068790
O2	O	1.614534	0.608130	0.431210
O3	O	0.869976	0.121532	-0.068780
O4	O	1.369976	0.621532	0.431220
O5	O	0.998956	-0.007448	-0.068787
O6	O	1.498956	0.492552	0.431213
O7	O	0.985554	0.237110	-0.068783
O8	O	1.485554	0.737110	0.431217
O9	O	0.998939	-0.007456	0.068706
O10	O	1.498939	0.492544	0.568706
O11	O	0.869959	0.121524	0.068713
O12	O	1.369959	0.621524	0.568713
O13	O	1.114517	0.108122	0.068703
O14	O	1.614517	0.608122	0.568703
Cu15	Cu	0.992236	0.114822	0.081262
Cu16	Cu	1.492236	0.614822	0.581262
Cu17	Cu	0.992257	0.114832	-0.081339
Cu18	Cu	1.492257	0.614832	0.418661
O19	O	0.985537	0.237102	0.068710
O20	O	1.485537	0.737102	0.568710
C21	C	0.838673	0.120979	-0.000032
C22	C	1.338673	0.620979	0.499968
C23	C	0.745425	0.119334	-0.000029
C24	C	1.245425	0.619334	0.499971
C25	C	0.453875	0.194268	-0.000040
C26	C	0.953875	0.694268	0.499960
C27	C	0.514920	0.155320	-0.067833
C28	C	1.014920	0.655320	0.432167
C29	C	0.409789	0.113358	-0.000048
C30	C	0.909789	0.613358	0.499952
C31	C	0.514889	0.155290	0.067724
C32	C	1.014889	0.655290	0.567724
C33	C	0.574698	0.116298	-0.000037
C34	C	1.074698	0.616298	0.499963
C35	C	0.469607	0.074387	-0.067897
C36	C	0.969607	0.574387	0.432103
C37	C	0.469569	0.074368	0.067721
C38	C	0.969569	0.574368	0.567721
C39	C	0.530596	0.035361	-0.000089
C40	C	1.030596	0.535361	0.499911
C41	C	0.314790	0.111666	-0.000055
C42	C	0.814790	0.611666	0.499945
C43	C	0.669696	0.117984	-0.000036
C44	C	1.169696	0.617984	0.499964
C45	C	0.998399	-0.038747	-0.000042
C46	C	1.498399	0.461253	0.499958
C47	C	0.996754	-0.131995	-0.000048
C48	C	1.496754	0.368005	0.499952
C49	C	1.071688	-0.423545	-0.000047
C50	C	1.571688	0.076455	0.499953
C51	C	1.032726	-0.362516	0.067749
C52	C	1.532726	0.137484	0.567749
C53	C	0.990778	-0.467630	-0.000039
C54	C	1.490778	0.032370	0.499961
C55	C	1.032722	-0.362514	-0.067809
C56	C	1.532722	0.137486	0.432191
C57	C	0.993718	-0.302722	-0.000045
C58	C	1.493718	0.197278	0.499955
C59	C	0.951794	-0.407830	0.067813
C60	C	1.451794	0.092170	0.567813
C61	C	0.951801	-0.407834	-0.067805
C62	C	1.451801	0.092166	0.432195
C63	C	0.912781	-0.346824	0.000007
C64	C	1.412781	0.153176	0.500007
C65	C	0.989086	-0.562630	-0.000034
C66	C	1.489086	-0.062630	0.499966
C67	C	0.995404	-0.207723	-0.000043
C68	C	1.495404	0.292277	0.499957
C69	C	1.145820	0.108675	-0.000046
C70	C	1.645820	0.608675	0.499954
C71	C	1.239068	0.110320	-0.000055
C72	C	1.739068	0.610320	0.499945
C73	C	0.986094	0.268400	-0.000037
C74	C	1.486094	0.768400	0.499963
C75	C	0.987739	0.361648	-0.000036
C76	C	1.487739	0.861648	0.499964
N77	N	0.992227	0.114815	0.195628
N78	N	1.492227	0.614815	0.695628
N79	N	0.992272	0.114832	-0.195705
N80	N	1.492272	0.614832	0.304295
C81	C	1.049357	0.057726	0.238889
C82	C	1.549357	0.557726	0.738889
C83	C	1.049361	0.057725	0.325436
C84	C	1.549361	0.557725	0.825436
C85	C	0.992239	0.114817	0.368720
C86	C	1.492239	0.614817	0.868720
C87	C	0.935104	0.171909	0.325453
C88	C	1.435104	0.671909	0.825453
C89	C	0.935096	0.171905	0.238907
C90	C	1.435096	0.671905	0.738907
C91	C	0.935132	0.171925	0.674481
C92	C	1.435132	0.671925	1.174481
C93	C	0.935146	0.171926	0.761033
C94	C	1.435146	0.671926	1.261033
C95	C	1.049398	0.057744	0.761010
C96	C	1.549398	0.557744	1.261010
C97	C	1.049390	0.057741	0.674464
C98	C	1.549390	0.557741	1.174464
C99	C	0.992252	0.114829	0.631204
C100	C	1.492252	0.614829	1.131204
C101	C	0.992247	0.114828	0.537360
C102	C	1.492247	0.614828	1.037360
C103	C	0.992248	0.114823	0.462563
C104	C	1.492248	0.614823	0.962563
H105	H	0.534950	0.189522	0.125036
H106	H	1.034950	0.689522	0.625036
N107	N	1.155913	-0.465395	0.000019
N108	N	1.655913	0.034605	0.500019
N109	N	1.180676	-0.513494	-0.058209
N110	N	1.680676	-0.013494	0.441791
H111	H	1.240158	-0.543054	-0.058160
H112	H	1.740158	-0.043054	0.441840
H113	H	0.449451	0.040171	0.125036
H114	H	0.949451	0.540171	0.625036
N115	N	1.075655	-0.337333	0.139645
N116	N	1.575655	0.162667	0.639645
N117	N	1.151147	-0.365142	0.151721
N118	N	1.651147	0.134858	0.651721
H119	H	1.181470	-0.347360	0.202496
H120	H	1.681470	0.152640	0.702496
H121	H	0.420532	0.261416	-0.000105
H122	H	0.920532	0.761416	0.499895
N123	N	0.908910	-0.433079	-0.139693
N124	N	1.408910	0.066921	0.360307
N125	N	0.843856	-0.469400	-0.132188
N126	N	1.343856	0.030600	0.367812
H127	H	0.813570	-0.487235	-0.182965
H128	H	1.313570	0.012765	0.317035
N129	N	0.908886	-0.432899	0.139786
N130	N	1.408886	0.067101	0.639786
N131	N	0.900699	-0.509044	0.151418
N132	N	1.400699	-0.009044	0.651418
H133	H	0.870397	-0.526752	0.202248
H134	H	1.370397	-0.026752	0.702248
H135	H	0.563786	-0.031847	-0.000126
H136	H	1.063786	0.468153	0.499874
H137	H	0.845575	-0.313629	0.000050
H138	H	1.345575	0.186371	0.500050
H139	H	1.066966	-0.342437	-0.125119
H140	H	1.566966	0.157563	0.374881
H141	H	1.095876	0.011238	0.203652
H142	H	1.595876	0.511238	0.703652
H143	H	1.095880	0.011238	0.360659
H144	H	1.595880	0.511238	0.860659
H145	H	0.888627	0.218420	0.796273
H146	H	1.388627	0.718420	1.296273
H147	H	1.095907	0.011253	0.639225
H148	H	1.595907	0.511253	1.139225
H149	H	0.888610	0.218410	0.639266
H150	H	1.388610	0.718410	1.139266
H151	H	0.535019	0.189548	-0.125143
H152	H	1.035019	0.689548	0.374857
N153	N	0.444573	0.031482	-0.139871
N154	N	0.944573	0.531482	0.360129
N155	N	0.407729	-0.033251	-0.132472
N156	N	0.907729	0.466749	0.367528
H157	H	0.390048	-0.063552	-0.183303
H158	H	0.890048	0.436448	0.316697
H159	H	0.888590	0.218392	0.360700
H160	H	1.388590	0.718392	0.860700
H161	H	1.095920	0.011257	0.796241
H162	H	1.595920	0.511257	1.296241
H163	H	0.888574	0.218392	0.203685
H164	H	1.388574	0.718392	0.703685
