data_functionalizedCrystal
_audit_creation_method	'MofGen! by Chris Wilmer'
_symmetry_space_group_name_H-M	'P1'
_symmetry_Int_Tables_number	1
_symmetry_cell_setting	triclinic
loop_
_symmetry_equiv_pos_as_xyz
  x,y,z
_cell_length_a	14.971486
_cell_length_b	19.188930
_cell_length_c	13.448316
_cell_angle_alpha	89.988273
_cell_angle_beta	89.998199
_cell_angle_gamma	83.379455
loop_
_atom_site_label
_atom_site_type_symbol
_atom_site_fract_x
_atom_site_fract_y
_atom_site_fract_z
O1	O	1.186467	0.090988	-0.082589
O2	O	0.926009	0.101884	-0.082618
O3	O	1.063754	-0.005195	-0.082583
O4	O	1.048722	0.198067	-0.082624
O5	O	1.063737	-0.005202	0.082801
O6	O	0.925992	0.101877	0.082766
O7	O	1.186450	0.090981	0.082795
Cu8	Cu	1.056219	0.096429	0.097881
Cu9	Cu	1.056239	0.096437	-0.097704
O10	O	1.048704	0.198061	0.082760
C11	C	0.892678	0.101393	0.000071
C12	C	0.793389	0.099933	0.000061
C13	C	0.735831	0.162839	0.000050
C14	C	0.642539	0.161463	0.000065
C15	C	0.606806	0.097180	0.000084
C16	C	0.664371	0.034269	0.000098
C17	C	0.757662	0.035646	0.000090
C18	C	0.469924	0.031403	0.000112
C19	C	0.376627	0.030026	0.000119
C20	C	0.354801	0.157221	0.000087
C21	C	0.448092	0.158598	0.000079
C22	C	0.505650	0.095686	0.000091
C23	C	1.063259	-0.031211	0.000112
C24	C	1.061797	-0.108721	0.000120
C25	C	1.142622	-0.153384	0.000134
C26	C	1.141249	-0.226213	0.000118
C27	C	1.059047	-0.254374	0.000108
C28	C	0.978212	-0.209700	0.000089
C29	C	0.979587	-0.136874	0.000095
N30	N	0.996208	-0.362583	0.056384
N31	N	0.994907	-0.431766	0.056381
C32	C	1.054899	-0.473796	0.000087
N33	N	1.116254	-0.444030	-0.056190
N34	N	1.117558	-0.374842	-0.056182
C35	C	1.057547	-0.333341	0.000101
C36	C	1.134240	-0.597429	0.000082
C37	C	1.132864	-0.670258	0.000060
C38	C	0.969825	-0.653744	0.000041
C39	C	0.971203	-0.580916	0.000053
C40	C	1.053413	-0.552763	0.000078
C41	C	1.219780	0.091472	0.000104
C42	C	1.319070	0.092932	0.000107
C43	C	1.049200	0.224077	0.000063
C44	C	1.050661	0.301586	0.000048
N45	N	1.056211	0.096423	0.235446
N46	N	1.056254	0.096437	-0.235268
C47	C	1.117224	0.049028	0.287501
C48	C	1.117229	0.049027	0.391604
C49	C	1.056226	0.096426	0.443650
C50	C	0.995207	0.143823	0.391587
C51	C	0.995198	0.143820	0.287486
C52	C	0.995232	0.143828	0.608567
C53	C	0.995242	0.143832	0.712676
C54	C	1.117263	0.049035	0.712686
C55	C	1.117254	0.049032	0.608585
C56	C	1.056236	0.096430	0.556529
H57	H	0.635271	-0.018072	0.000128
H58	H	1.209564	-0.130467	0.000151
C59	C	1.230369	-0.525082	-0.084913
C60	C	1.224599	-0.566472	0.000095
H61	H	1.286150	-0.505969	-0.084900
H62	H	1.226454	-0.553138	-0.142580
H63	H	1.182420	-0.488061	-0.084900
H64	H	1.272544	-0.603497	0.000079
H65	H	1.228523	-0.538414	0.057777
H66	H	0.347537	-0.022319	0.000135
C67	C	1.272268	0.008245	0.744732
C68	C	1.184336	-0.003065	0.769906
H69	H	1.313675	-0.023913	0.780067
H70	H	1.280990	0.001457	0.675294
H71	H	1.281777	0.054861	0.761779
H72	H	1.174825	-0.049679	0.752853
H73	H	1.175610	0.003718	0.839359
C74	C	0.874598	0.237513	0.702215
C75	C	0.928170	0.195920	0.769887
H76	H	0.833185	0.269663	0.737538
H77	H	0.911712	0.262688	0.661605
H78	H	0.842554	0.208393	0.661620
H79	H	0.960220	0.225039	0.810478
H80	H	0.891052	0.170743	0.810515
H81	H	1.166931	0.010440	0.566209
H82	H	0.945542	0.182423	0.566187
H83	H	0.911283	-0.232634	0.000079
C84	C	0.307472	0.265213	-0.084957
C85	C	0.291538	0.226376	0.000077
H86	H	0.268410	0.307903	-0.084968
H87	H	0.368140	0.275229	-0.084960
H88	H	0.296658	0.238849	-0.142612
H89	H	0.302359	0.252738	0.057733
H90	H	0.230856	0.216362	0.000090
H91	H	0.905387	-0.544550	0.000048
H92	H	0.945533	0.182414	0.433969
C93	C	0.874596	0.237529	0.297926
C94	C	0.928136	0.195922	0.230262
H95	H	0.833196	0.269696	0.262597
H96	H	0.842544	0.208426	0.338542
H97	H	0.911739	0.262692	0.338516
H98	H	0.890992	0.170754	0.189677
H99	H	0.960189	0.225029	0.189629
H100	H	0.764917	0.215186	0.000034
C101	C	0.830452	-0.662072	-0.084998
C102	C	0.879465	-0.684690	0.000026
H103	H	0.774668	-0.681183	-0.085011
H104	H	0.819706	-0.612313	-0.084985
H105	H	0.863737	-0.677393	-0.142661
H106	H	0.846182	-0.669364	0.057689
H107	H	0.890208	-0.734459	0.000022
C108	C	1.234259	-0.317710	0.085156
C109	C	1.230096	-0.275320	0.000140
H110	H	1.289108	-0.348027	0.085166
H111	H	1.231400	-0.288964	0.142817
H112	H	1.185099	-0.344897	0.085131
H113	H	1.279253	-0.248129	0.000168
H114	H	1.232964	-0.304069	-0.057537
C115	C	1.225920	-0.761710	-0.084960
C116	C	1.221715	-0.719354	0.000067
H117	H	1.280778	-0.792016	-0.084957
H118	H	1.176775	-0.788902	-0.084968
H119	H	1.223074	-0.732935	-0.142620
H120	H	1.224555	-0.748129	0.057728
H121	H	1.270874	-0.692159	0.000084
H122	H	1.166903	0.010433	0.245132
H123	H	0.913768	-0.100507	0.000084
H124	H	0.804525	-0.015579	0.000099
C125	C	0.524962	0.233702	-0.084970
C126	C	0.579273	0.230613	0.000042
H127	H	0.485902	0.276393	-0.084980
H128	H	0.561808	0.231593	-0.142634
H129	H	0.490331	0.195219	-0.084940
H130	H	0.613909	0.269093	0.000008
H131	H	0.542422	0.232729	0.057721
C132	C	0.482132	-0.094465	0.000123
C133	C	0.533194	-0.037750	0.000115
H134	H	0.521195	-0.137155	0.000113
H135	H	0.445301	-0.092364	0.057798
H136	H	0.445282	-0.092344	-0.057549
H137	H	0.570040	-0.039868	0.057791
H138	H	0.570042	-0.039851	-0.057566
C139	C	1.237863	-0.044656	0.381158
C140	C	1.184310	-0.003061	0.448824
H141	H	1.279282	-0.076808	0.416485
H142	H	1.200737	-0.069828	0.340577
H143	H	1.269900	-0.015537	0.340533
H144	H	1.152268	-0.032179	0.489444
H145	H	1.221441	0.022114	0.489422
H146	H	0.477182	0.210943	0.000054
