data_functionalizedCrystal
_audit_creation_method	'MofGen! by Chris Wilmer'
_symmetry_space_group_name_H-M	'P1'
_symmetry_Int_Tables_number	1
_symmetry_cell_setting	triclinic
loop_
_symmetry_equiv_pos_as_xyz
  x,y,z
_cell_length_a	19.077267
_cell_length_b	19.077068
_cell_length_c	19.076919
_cell_angle_alpha	85.529249
_cell_angle_beta	85.333063
_cell_angle_gamma	89.936033
loop_
_atom_site_label
_atom_site_type_symbol
_atom_site_fract_x
_atom_site_fract_y
_atom_site_fract_z
Zn1	Zn	-1.047524	0.337166	-0.369401
Zn2	Zn	-0.547524	0.837166	0.130599
Zn3	Zn	-1.047437	0.450316	-0.256249
Zn4	Zn	-0.547437	0.950316	0.243751
Zn5	Zn	-0.934761	0.328092	-0.255885
Zn6	Zn	-0.434761	0.828092	0.244115
Zn7	Zn	-0.924869	0.450276	-0.378825
Zn8	Zn	-0.424869	0.950276	0.121175
O9	O	-0.988648	0.391462	-0.315090
O10	O	-0.488648	0.891462	0.184910
O11	O	-1.145999	0.355990	-0.350599
O12	O	-0.645999	0.855990	0.149401
O13	O	-1.036593	0.430322	-0.157395
O14	O	-0.536593	0.930322	0.342605
O15	O	-0.953896	0.230808	-0.266847
O16	O	-0.453896	0.730808	0.233153
O17	O	-1.145935	0.439120	-0.267467
O18	O	-0.645935	0.939120	0.232533
O19	O	-1.036742	0.237474	-0.350246
O20	O	-0.536742	0.737474	0.149754
O21	O	-0.953811	0.340525	-0.157128
O22	O	-0.453811	0.840525	0.342872
O23	O	-0.834963	0.340486	-0.275985
O24	O	-0.334963	0.840486	0.224015
O25	O	-0.937037	0.439052	-0.476380
O26	O	-0.437037	0.939052	0.023620
O27	O	-0.827695	0.430254	-0.366309
O28	O	-0.327695	0.930254	0.133691
O29	O	-1.027150	0.355951	-0.469456
O30	O	-0.527150	0.855951	0.030544
O31	O	-1.027002	0.548798	-0.276605
O32	O	-0.527002	1.048798	0.223395
O33	O	-0.936952	0.548769	-0.366662
O34	O	-0.436952	1.048769	0.133338
C35	C	-0.805793	0.384381	-0.322130
C36	C	-0.305793	0.884381	0.177870
C37	C	-0.727565	0.381370	-0.325160
C38	C	-0.227565	0.881370	0.174840
C39	C	-0.690783	0.423161	-0.283230
C40	C	-0.190783	0.923161	0.216770
C41	C	-0.617280	0.420332	-0.286086
C42	C	-0.117280	0.920332	0.213914
C43	C	-0.580559	0.375707	-0.330868
C44	C	-0.080559	0.875707	0.169132
C45	C	-0.617346	0.333914	-0.372803
C46	C	-0.117346	0.833914	0.127197
C47	C	-0.690848	0.336748	-0.369950
C48	C	-0.190848	0.836748	0.130050
C49	C	-0.360735	0.362603	-0.344052
C50	C	0.139265	0.862603	0.155948
C51	C	-0.287228	0.359772	-0.346900
C52	C	0.212772	0.859772	0.153100
C53	C	-0.287166	0.446190	-0.260184
C54	C	0.212834	0.946190	0.239816
C55	C	-0.360670	0.449016	-0.257332
C56	C	0.139330	0.949016	0.242668
C57	C	-0.397450	0.407226	-0.299269
C58	C	0.102550	0.907226	0.200731
N59	N	-0.505427	0.372813	-0.333787
N60	N	-0.005427	0.872813	0.166213
N61	N	-0.472581	0.410125	-0.296354
N62	N	0.027419	0.910125	0.203646
C63	C	-0.980913	0.574322	-0.322710
C64	C	-0.480913	1.074322	0.177290
C65	C	-0.977667	0.652553	-0.325991
C66	C	-0.477667	1.152553	0.174009
C67	C	-0.981000	0.398509	-0.499254
C68	C	-0.481000	0.898509	0.000746
C69	C	-0.977740	0.401512	-0.577734
C70	C	-0.477740	0.901512	-0.077734
C71	C	-0.172218	0.398562	-0.308012
C72	C	0.327782	0.898562	0.191988
C73	C	-0.250446	0.401563	-0.304970
C74	C	0.249554	0.901563	0.195030
C75	C	-0.996432	0.207890	-0.307455
C76	C	-0.496432	0.707890	0.192545
C77	C	-0.999749	0.129663	-0.304201
C78	C	-0.499749	0.629663	0.195799
C79	C	-1.023059	0.689301	-0.280681
C80	C	-0.523059	1.189301	0.219319
C81	C	-1.020010	0.762808	-0.283771
C82	C	-0.520010	1.262808	0.216229
C83	C	-0.971565	0.799566	-0.332168
C84	C	-0.471565	1.299566	0.167832
C85	C	-0.926171	0.762813	-0.377483
C86	C	-0.426171	1.262813	0.122517
C87	C	-0.929223	0.689307	-0.374396
C88	C	-0.429223	1.189307	0.125604
C89	C	-0.957407	1.019404	-0.346429
C90	C	-0.457407	1.519404	0.153571
C91	C	-0.954356	1.092915	-0.349511
C92	C	-0.454356	1.592915	0.150489
C93	C	-1.048197	1.092905	-0.255799
C94	C	-0.548197	1.592905	0.244201
C95	C	-1.051243	1.019398	-0.252714
C96	C	-0.551243	1.519398	0.247286
C97	C	-1.005851	0.982652	-0.298031
C98	C	-0.505851	1.482652	0.201969
N99	N	-0.968446	0.874702	-0.335327
N100	N	-0.468446	1.374702	0.164673
N101	N	-1.008974	0.907518	-0.294876
N102	N	-0.508974	1.407518	0.205124
C103	C	-1.023124	0.359658	-0.611000
C104	C	-0.523124	0.859658	-0.111000
C105	C	-1.020053	0.362477	-0.684740
C106	C	-0.520053	0.862477	-0.184740
C107	C	-0.971602	0.407153	-0.725213
C108	C	-0.471602	0.907153	-0.225213
C109	C	-0.926213	0.449008	-0.691942
C110	C	-0.426213	0.949008	-0.191942
C111	C	-0.929281	0.446186	-0.618203
C112	C	-0.429281	0.946186	-0.118203
C113	C	-0.957392	0.420231	-0.946136
C114	C	-0.457392	0.920231	-0.446136
C115	C	-0.954329	0.423052	-1.019879
C116	C	-0.454329	0.923052	-0.519879
C117	C	-1.048169	0.336519	-1.012673
C118	C	-0.548169	0.836519	-0.512673
C119	C	-1.051235	0.333703	-0.938933
C120	C	-0.551235	0.833703	-0.438933
C121	C	-1.005844	0.375556	-0.905668
C122	C	-0.505844	0.875556	-0.405668
N123	N	-0.968463	0.410037	-0.800587
N124	N	-0.468463	0.910037	-0.300587
N125	N	-1.008980	0.372668	-0.830295
N126	N	-0.508980	0.872668	-0.330295
C127	C	-0.996309	0.384394	-0.131639
C128	C	-0.496309	0.884394	0.368361
C129	C	-0.999713	0.381198	-0.053146
C130	C	-0.499713	0.881198	0.446854
H131	H	-0.390673	0.328576	-0.378201
H132	H	0.109327	0.828576	0.121799
H133	H	-1.057011	0.328397	-0.711822
H134	H	-0.557011	0.828397	-0.211822
H135	H	-0.886728	0.792747	-0.416892
H136	H	-0.386728	1.292747	0.083108
H137	H	-0.892261	0.659388	-0.411293
H138	H	-0.392261	1.159388	0.088707
H139	H	-0.257333	0.323427	-0.383365
H140	H	0.242667	0.823427	0.116635
H141	H	-0.914914	1.122841	-0.388934
H142	H	-0.414914	1.622841	0.111066
H143	H	-0.920446	0.989491	-0.383326
H144	H	-0.420446	1.489491	0.116674
H145	H	-0.720795	0.302716	-0.404093
H146	H	-0.220795	0.802716	0.095907
H147	H	-1.062581	0.323280	-0.578052
H148	H	-0.562581	0.823280	-0.078052
H149	H	-1.090692	0.297325	-0.905985
H150	H	-0.590692	0.797325	-0.405985
Cl151	Cl	-1.105225	0.283905	-1.054496
Cl152	Cl	-0.605225	0.783905	-0.554496
H153	H	-0.257212	0.480214	-0.226043
H154	H	0.242788	0.980214	0.273957
H155	H	-1.085154	1.122832	-0.218906
H156	H	-0.585154	1.622832	0.281094
Cl157	Cl	-1.083961	0.643099	-0.219832
Cl158	Cl	-0.583961	1.143099	0.280168
H159	H	-0.886760	0.485382	-0.724901
H160	H	-0.386760	0.985382	-0.224901
Cl161	Cl	-0.893410	0.479217	-1.070759
Cl162	Cl	-0.393410	0.979217	-0.570759
H163	H	-0.587443	0.297584	-0.409268
H164	H	-0.087443	0.797584	0.090732
H165	H	-0.390563	0.485354	-0.220865
H166	H	0.109437	0.985354	0.279135
Cl167	Cl	-1.077080	0.809003	-0.226810
Cl168	Cl	-0.577080	1.309003	0.273190
Cl169	Cl	-0.736938	0.479262	-0.226928
Cl170	Cl	-0.236938	0.979262	0.273072
H171	H	-0.920441	0.454321	-0.919061
H172	H	-0.420441	0.954321	-0.419061
H173	H	-0.892318	0.480260	-0.591119
H174	H	-0.392318	0.980260	-0.091119
H175	H	-0.587335	0.454362	-0.251943
H176	H	-0.087335	0.954362	0.248057
H177	H	-1.090691	0.989472	-0.213305
H178	H	-0.590691	1.489472	0.286695
