data_functionalizedCrystal
_audit_creation_method	'MofGen! by Chris Wilmer'
_symmetry_space_group_name_H-M	'P1'
_symmetry_Int_Tables_number	1
_symmetry_cell_setting	triclinic
loop_
_symmetry_equiv_pos_as_xyz
  x,y,z
_cell_length_a	15.995350
_cell_length_b	15.995350
_cell_length_c	15.072220
_cell_angle_alpha	89.998899
_cell_angle_beta	89.991149
_cell_angle_gamma	96.507625
loop_
_atom_site_label
_atom_site_type_symbol
_atom_site_fract_x
_atom_site_fract_y
_atom_site_fract_z
O1	O	1.110996	-0.107921	-0.073703
O2	O	1.610996	0.392079	0.426297
O3	O	0.867221	-0.121249	-0.073721
O4	O	1.367221	0.378751	0.426279
O5	O	0.995772	0.007303	-0.073710
O6	O	1.495772	0.507303	0.426290
O7	O	0.982444	-0.236472	-0.073713
O8	O	1.482444	0.263528	0.426287
O9	O	0.995740	0.007296	0.073855
O10	O	1.495740	0.507296	0.573855
O11	O	0.867189	-0.121256	0.073844
O12	O	1.367189	0.378744	0.573844
O13	O	1.110964	-0.107928	0.073862
O14	O	1.610964	0.392072	0.573862
Zn15	Zn	0.989071	-0.114593	0.097283
Zn16	Zn	1.489071	0.385407	0.597283
Zn17	Zn	0.989113	-0.114584	-0.097141
Zn18	Zn	1.489113	0.385416	0.402859
O19	O	0.982413	-0.236480	0.073852
O20	O	1.482413	0.263520	0.573852
C21	C	0.836010	-0.120701	0.000060
C22	C	1.336010	0.379299	0.500060
C23	C	0.743060	-0.119049	0.000053
C24	C	1.243060	0.380951	0.500053
C25	C	0.405312	-0.113117	0.000071
C26	C	0.905312	0.386883	0.500071
C27	C	0.452746	-0.021565	0.000401
C28	C	0.952746	0.478435	0.500401
C29	C	0.549436	-0.023217	0.000063
C30	C	1.049436	0.476783	0.500063
C31	C	0.572873	-0.116060	0.000063
C32	C	1.072873	0.383940	0.500063
C33	C	0.531804	-0.161212	-0.084201
C34	C	1.031804	0.338788	0.415799
C35	C	0.435168	-0.158912	-0.084266
C36	C	0.935168	0.341088	0.415734
C37	C	0.434793	-0.160812	0.083543
C38	C	0.934793	0.339188	0.583543
C39	C	0.531738	-0.160790	0.084651
C40	C	1.031738	0.339210	0.584651
C41	C	0.667570	-0.117727	0.000055
C42	C	1.167570	0.382273	0.500055
C43	C	0.310614	-0.111452	0.000073
C44	C	0.810614	0.388548	0.500073
C45	C	0.995205	0.038494	0.000070
C46	C	1.495205	0.538494	0.500070
C47	C	0.993553	0.131444	0.000065
C48	C	1.493553	0.631444	0.500065
C49	C	1.142175	-0.108476	0.000080
C50	C	1.642175	0.391524	0.500080
C51	C	1.235125	-0.110127	0.000081
C52	C	1.735125	0.389873	0.500081
C53	C	0.982980	-0.267671	0.000069
C54	C	1.482980	0.232329	0.500069
C55	C	0.984631	-0.360621	0.000069
C56	C	1.484631	0.139379	0.500069
N57	N	0.989049	-0.114599	0.229971
N58	N	1.489049	0.385401	0.729971
C59	C	0.987621	0.469192	0.000068
C60	C	1.487621	0.969192	0.500068
C61	C	0.896069	0.421758	-0.000270
C62	C	1.396069	0.921758	0.499730
C63	C	0.897721	0.325068	0.000063
C64	C	1.397721	0.825068	0.500063
C65	C	0.990564	0.301631	0.000066
C66	C	1.490564	0.801631	0.500066
C67	C	1.035702	0.342705	0.084335
C68	C	1.535702	0.842705	0.584335
C69	C	1.033402	0.439341	0.084405
C70	C	1.533402	0.939341	0.584405
C71	C	1.035330	0.439707	-0.083404
C72	C	1.535330	0.939707	0.416596
C73	C	1.035308	0.342761	-0.084518
C74	C	1.535308	0.842761	0.415482
C75	C	0.992231	0.206934	0.000068
C76	C	1.492231	0.706934	0.500068
C77	C	0.985956	0.563890	0.000072
C78	C	1.485956	1.063890	0.500072
N79	N	0.989142	-0.114571	-0.229830
N80	N	1.489142	0.385429	0.270170
C81	C	0.989112	-0.114580	0.589173
C82	C	1.489112	0.385420	1.089173
C83	C	0.920095	-0.183135	0.551560
C84	C	1.420095	0.316865	1.051560
C85	C	0.920254	-0.183385	0.448735
C86	C	1.420254	0.316615	0.948735
C87	C	0.989080	-0.114590	0.410969
C88	C	1.489080	0.385410	0.910969
C89	C	1.076445	-0.133671	0.448266
C90	C	1.576445	0.366329	0.948266
C91	C	1.076058	-0.134159	0.551124
C92	C	1.576058	0.365841	1.051124
C93	C	0.971542	-0.026741	0.551272
C94	C	1.471542	0.473259	1.051272
C95	C	0.969537	-0.027327	0.448409
C96	C	1.469537	0.472673	0.948409
C97	C	0.989067	-0.114593	0.310255
C98	C	1.489067	0.385407	0.810255
C99	C	0.989130	-0.114579	0.689886
C100	C	1.489130	0.385421	1.189886
H101	H	0.433165	0.014865	-0.059694
H102	H	0.933165	0.514865	0.440306
H103	H	0.855314	-0.172016	0.423519
H104	H	1.355314	0.327984	0.923519
Cl105	Cl	0.385376	-0.262685	-0.090172
Cl106	Cl	0.885376	0.237315	0.409828
Cl107	Cl	0.424124	0.034933	0.093699
Cl108	Cl	0.924124	0.534933	0.593699
H109	H	0.403031	-0.228312	0.084113
H110	H	0.903031	0.271688	0.584113
H111	H	0.854945	-0.171953	0.576317
H112	H	1.354945	0.328047	1.076317
H113	H	1.004325	0.314320	0.147042
H114	H	1.504325	0.814320	0.647042
H115	H	1.091540	-0.198219	0.575106
H116	H	1.591540	0.301781	1.075106
Cl117	Cl	0.593312	0.031583	0.093320
Cl118	Cl	1.093312	0.531583	0.593320
H119	H	0.931160	-0.247952	0.577399
H120	H	1.431160	0.252048	1.077399
Cl121	Cl	0.555450	-0.265324	0.092508
Cl122	Cl	1.055450	0.234676	0.592508
H123	H	0.931473	-0.248570	0.424121
H124	H	1.431473	0.251430	0.924121
Cl125	Cl	0.842937	0.281187	-0.093200
Cl126	Cl	1.342937	0.781187	0.406800
H127	H	0.577307	0.012521	-0.060446
H128	H	1.077307	0.512521	0.439554
Cl129	Cl	1.042115	0.055129	0.408737
Cl130	Cl	1.542115	0.555129	0.908737
H131	H	1.100617	0.471588	0.088231
H132	H	1.600617	0.971588	0.588231
H133	H	1.129019	-0.086195	0.576003
H134	H	1.629019	0.413805	1.076003
H135	H	1.102831	0.471468	-0.083968
H136	H	1.602831	0.971468	0.416032
H137	H	1.129029	-0.085068	0.423801
H138	H	1.629029	0.414932	0.923801
Cl139	Cl	0.870315	-0.004965	0.410775
Cl140	Cl	1.370315	0.495035	0.910775
H141	H	0.560191	-0.129845	-0.146912
H142	H	1.060191	0.370155	0.353088
H143	H	1.103910	0.328579	0.087471
H144	H	1.603910	0.828579	0.587471
Cl145	Cl	0.406918	-0.108065	-0.181515
Cl146	Cl	0.906918	0.391935	0.318485
H147	H	0.859626	0.441349	0.059819
H148	H	1.359626	0.941349	0.559819
Cl149	Cl	1.100923	-0.231449	0.408485
Cl150	Cl	1.600923	0.268551	0.908485
Cl151	Cl	0.839588	0.450372	-0.093571
Cl152	Cl	1.339588	0.950372	0.406429
H153	H	1.005411	0.460250	-0.147274
H154	H	1.505411	0.960250	0.352726
H155	H	1.002306	0.315516	-0.146857
H156	H	1.502306	0.815516	0.353143
Cl157	Cl	1.139841	0.319041	-0.092376
Cl158	Cl	1.639841	0.819041	0.407624
Cl159	Cl	0.875303	0.001572	0.591361
Cl160	Cl	1.375303	0.501572	1.091361
H161	H	1.021872	0.024275	0.575595
H162	H	1.521872	0.524275	1.075595
H163	H	0.545929	-0.229421	-0.087335
H164	H	1.045929	0.270579	0.412665
Cl165	Cl	0.982538	0.467595	0.181653
Cl166	Cl	1.482538	0.967595	0.681653
Cl167	Cl	0.842527	0.282035	0.093477
Cl168	Cl	1.342527	0.782035	0.593477
H169	H	0.559041	-0.127829	0.146989
H170	H	1.059041	0.372171	0.646989
Cl171	Cl	0.403073	-0.114603	0.182155
Cl172	Cl	0.903073	0.385397	0.682155
