data_functionalizedCrystal
_audit_creation_method	'MofGen! by Chris Wilmer'
_symmetry_space_group_name_H-M	'P1'
_symmetry_Int_Tables_number	1
_symmetry_cell_setting	triclinic
loop_
_symmetry_equiv_pos_as_xyz
  x,y,z
_cell_length_a	15.944493
_cell_length_b	9.482900
_cell_length_c	11.026607
_cell_angle_alpha	101.400185
_cell_angle_beta	96.030530
_cell_angle_gamma	80.712558
loop_
_atom_site_label
_atom_site_type_symbol
_atom_site_fract_x
_atom_site_fract_y
_atom_site_fract_z
O1	O	1.148379	-0.120872	0.137170
O2	O	0.906752	-0.120878	0.156538
O3	O	1.007539	-0.120870	-0.029794
O4	O	1.047592	-0.120880	0.323502
O5	O	0.987090	0.120921	0.008206
O6	O	0.886302	0.120913	0.194538
O7	O	1.127930	0.120919	0.175170
Cu8	Cu	1.005249	0.142993	0.188323
Cu9	Cu	1.029433	-0.142952	0.143384
O10	O	1.027143	0.120911	0.361502
C11	C	0.865113	0.000016	0.174746
C12	C	0.771505	0.000014	0.172372
C13	C	0.552326	0.000010	0.282051
C14	C	0.482744	0.119233	0.241643
C15	C	0.600119	0.000017	0.167975
C16	C	0.502905	-0.119154	0.204150
C17	C	0.434569	0.000013	0.163735
C18	C	0.531761	0.119338	0.127612
C19	C	0.551938	-0.119155	0.090120
C20	C	0.482373	0.000097	0.049632
C21	C	0.695489	0.000020	0.170421
C22	C	0.339200	0.000020	0.161281
C23	C	0.989926	0.000023	-0.056004
C24	C	0.967900	0.000018	-0.190714
C25	C	1.169569	0.000021	0.156961
C26	C	1.263177	0.000015	0.159333
N27	N	0.988246	0.344112	0.219931
N28	N	1.046441	-0.344071	0.111767
C29	C	1.024411	0.416314	0.152700
C30	C	1.010271	0.583731	0.179007
C31	C	1.028719	0.000017	-0.264533
C32	C	1.005955	0.000011	-0.403763
C33	C	1.044756	0.000015	0.387711
C34	C	1.066783	0.000011	0.522419
H35	H	0.452565	0.220023	0.305659
O36	O	1.095638	0.581822	0.019587
C37	C	1.102212	0.410346	-0.173378
C38	C	1.046490	0.494056	-0.068926
H39	H	1.062493	0.339390	-0.244981
H40	H	1.158247	0.338819	-0.132726
H41	H	1.127138	0.490950	-0.219796
H42	H	1.021502	0.413557	-0.022467
H43	H	0.990500	0.565604	-0.109650
H44	H	1.135719	-0.000097	-0.437729
H45	H	0.946812	0.406239	0.296961
O46	O	1.110929	-0.000173	-0.216857
C47	C	1.231084	-0.125478	-0.110317
C48	C	1.137972	-0.125426	-0.164228
H49	H	1.252983	-0.226749	-0.067777
H50	H	1.235911	-0.024357	-0.035797
H51	H	1.273315	-0.125408	-0.187557
H52	H	1.095685	-0.125547	-0.087075
H53	H	1.133214	-0.226538	-0.238780
O54	O	0.446309	0.000249	-0.067731
C55	C	0.468819	0.001518	-0.280192
C56	C	0.509766	0.001368	-0.147335
H57	H	0.520108	0.002392	-0.344594
H58	H	0.419058	0.102265	-0.281061
H59	H	0.436977	-0.100107	-0.313294
H60	H	0.541655	0.102925	-0.114152
H61	H	0.559483	-0.099446	-0.146543
H62	H	0.898979	0.000006	-0.230592
H63	H	0.937030	-0.000000	-0.443636
H64	H	0.582131	-0.219951	0.026139
O65	O	0.960711	0.657765	0.270785
C66	C	0.821646	0.704601	0.349736
C67	C	0.877670	0.620691	0.245707
H68	H	0.754501	0.674634	0.329512
H69	H	0.818974	0.826436	0.354581
H70	H	0.850014	0.674775	0.442189
H71	H	0.849345	0.650394	0.153199
H72	H	0.880342	0.498876	0.240972
H73	H	0.544777	0.220232	0.095321
O74	O	0.588630	0.000396	0.399353
C75	C	0.594252	0.126482	0.611758
C76	C	0.553083	0.126234	0.478971
H77	H	0.565517	0.228196	0.676171
H78	H	0.665888	0.125531	0.612427
H79	H	0.581789	0.025830	0.644996
H80	H	0.565480	0.226870	0.445651
H81	H	0.481459	0.127111	0.478378
O82	O	0.487364	-0.239360	0.242914
C83	C	0.505457	-0.375139	0.409227
C84	C	0.523124	-0.238966	0.365468
H85	H	0.534345	-0.374850	0.508325
H86	H	0.535175	-0.476773	0.345689
H87	H	0.433709	-0.374552	0.406085
H88	H	0.594857	-0.239411	0.368613
H89	H	0.493348	-0.137392	0.429015
H90	H	1.065837	0.354189	0.075661
