data_functionalizedCrystal
_audit_creation_method	'MofGen! by Chris Wilmer'
_symmetry_space_group_name_H-M	'P1'
_symmetry_Int_Tables_number	1
_symmetry_cell_setting	triclinic
loop_
_symmetry_equiv_pos_as_xyz
  x,y,z
_cell_length_a	12.837943
_cell_length_b	14.185569
_cell_length_c	12.811434
_cell_angle_alpha	97.970830
_cell_angle_beta	89.411196
_cell_angle_gamma	75.423762
loop_
_atom_site_label
_atom_site_type_symbol
_atom_site_fract_x
_atom_site_fract_y
_atom_site_fract_z
O1	O	1.360559	0.057220	0.287691
O2	O	1.058358	0.058425	0.274516
O3	O	1.213262	0.071335	0.132548
O4	O	1.205655	0.044310	0.429660
O5	O	1.259022	-0.091686	0.090614
O6	O	1.104118	-0.104596	0.232583
O7	O	1.406319	-0.105801	0.245757
Cu8	Cu	1.259397	-0.120084	0.235341
Cu9	Cu	1.205280	0.072708	0.284933
O10	O	1.251415	-0.118711	0.387726
C11	C	1.042484	-0.022680	0.249098
C12	C	0.927008	-0.021470	0.235824
C13	C	0.690831	-0.036000	0.395415
C14	C	0.582332	-0.034865	0.382947
C15	C	0.601510	-0.018069	0.198418
C16	C	0.710009	-0.019205	0.210886
C17	C	0.754665	-0.028170	0.309388
C18	C	0.863165	-0.029298	0.321857
C19	C	0.882343	-0.012510	0.137328
C20	C	0.773843	-0.011374	0.124860
N21	N	1.297467	-0.255683	0.200461
C22	C	1.055366	-0.643501	0.422238
C23	C	1.084211	-0.746120	0.395824
C24	C	1.221409	-0.734654	0.270166
C25	C	1.192571	-0.632031	0.296565
C26	C	1.109550	-0.586463	0.372602
C27	C	1.246756	-0.574993	0.246930
C28	C	1.217924	-0.472380	0.273331
C29	C	1.134908	-0.426804	0.349368
C30	C	1.080719	-0.483849	0.399004
C31	C	1.329782	-0.620564	0.170898
C32	C	1.383966	-0.563527	0.121262
C33	C	1.355130	-0.460911	0.147658
C34	C	1.272114	-0.415335	0.223695
C35	C	1.409320	-0.403865	0.098022
C36	C	1.380488	-0.301252	0.124424
C37	C	1.243283	-0.312721	0.250096
C38	C	1.422193	-0.024694	0.271176
C39	C	1.537666	-0.025898	0.284452
C40	C	1.234313	-0.006690	0.073288
C41	C	1.228850	0.003695	-0.040813
N42	N	1.167218	0.208307	0.319805
C43	C	1.196207	0.107180	-0.178778
C44	C	1.201340	0.097433	-0.071568
C45	C	1.251232	-0.080303	-0.117278
C46	C	1.246098	-0.070556	-0.224488
C47	C	1.218584	0.023189	-0.255234
C48	C	1.213443	0.032935	-0.362446
C49	C	1.263341	-0.144800	-0.408155
C50	C	1.268475	-0.154547	-0.300944
C51	C	1.230364	-0.040684	0.446986
C52	C	1.235824	-0.051062	0.561088
H53	H	0.934327	-0.006127	0.067280
H54	H	1.476924	-0.440981	0.036119
H55	H	1.013107	-0.446745	0.460913
H56	H	1.040081	-0.792557	0.436251
H57	H	1.175671	-0.275617	0.312006
H58	H	1.290881	-0.230871	-0.275895
H59	H	1.424613	-0.254811	0.084006
H60	H	1.281555	-0.213192	-0.470418
H61	H	0.727190	-0.043298	0.475620
H62	H	1.183120	0.165827	-0.009319
H63	H	1.191032	0.109266	-0.387476
H64	H	1.353257	-0.704120	0.149408
H65	H	1.111438	-0.343249	0.370866
H66	H	0.899522	-0.036599	0.402062
H67	H	0.987754	-0.606397	0.484147
H68	H	0.530362	-0.041244	0.452998
H69	H	0.737472	-0.004087	0.044659
H70	H	1.289008	-0.771768	0.208258
H71	H	1.451566	-0.600641	0.059354
H72	H	1.273644	-0.156625	-0.092225
H73	H	0.565154	-0.010852	0.118201
H74	H	1.173788	0.183510	-0.203811
