data_functionalizedCrystal
_audit_creation_method	'MofGen! by Chris Wilmer'
_symmetry_space_group_name_H-M	'P1'
_symmetry_Int_Tables_number	1
_symmetry_cell_setting	triclinic
loop_
_symmetry_equiv_pos_as_xyz
  x,y,z
_cell_length_a	21.395364
_cell_length_b	29.839131
_cell_length_c	29.839109
_cell_angle_alpha	89.879167
_cell_angle_beta	89.927972
_cell_angle_gamma	90.037185
loop_
_atom_site_label
_atom_site_type_symbol
_atom_site_fract_x
_atom_site_fract_y
_atom_site_fract_z
Zn1	Zn	0.958106	-0.178510	-0.254009
Zn2	Zn	1.208106	0.071490	-0.004009
Zn3	Zn	1.458106	0.321490	0.245991
Zn4	Zn	1.708106	0.571490	0.495991
Zn5	Zn	0.957902	-0.253757	-0.178879
Zn6	Zn	1.207902	-0.003757	0.071121
Zn7	Zn	1.457902	0.246243	0.321121
Zn8	Zn	1.707902	0.496243	0.571121
Zn9	Zn	0.853235	-0.178636	-0.178891
Zn10	Zn	1.103235	0.071364	0.071109
Zn11	Zn	1.353235	0.321364	0.321109
Zn12	Zn	1.603235	0.571364	0.571109
Zn13	Zn	0.853271	-0.253608	-0.253980
Zn14	Zn	1.103271	-0.003608	-0.003980
Zn15	Zn	1.353271	0.246392	0.246020
Zn16	Zn	1.603271	0.496392	0.496020
O17	O	0.905629	-0.216128	-0.216440
O18	O	1.155629	0.033872	0.033560
O19	O	1.405629	0.283872	0.283560
O20	O	1.655629	0.533872	0.533560
O21	O	1.045757	-0.188501	-0.244050
O22	O	1.295757	0.061499	0.005950
O23	O	1.545757	0.311499	0.255950
O24	O	1.795757	0.561499	0.505950
O25	O	0.943917	-0.243907	-0.116013
O26	O	1.193917	0.006093	0.133987
O27	O	1.443917	0.256093	0.383987
O28	O	1.693917	0.506093	0.633987
O29	O	0.867216	-0.115752	-0.188873
O30	O	1.117216	0.134248	0.061127
O31	O	1.367216	0.384248	0.311127
O32	O	1.617216	0.634248	0.561127
O33	O	1.045607	-0.243785	-0.188852
O34	O	1.295607	0.006215	0.061148
O35	O	1.545607	0.256215	0.311148
O36	O	1.795607	0.506215	0.561148
O37	O	0.944265	-0.115659	-0.244062
O38	O	1.194265	0.134341	0.005938
O39	O	1.444265	0.384341	0.255938
O40	O	1.694265	0.634341	0.505938
O41	O	0.867018	-0.188717	-0.116022
O42	O	1.117018	0.061283	0.133978
O43	O	1.367018	0.311283	0.383978
O44	O	1.617018	0.561283	0.633978
O45	O	0.765561	-0.188572	-0.188845
O46	O	1.015561	0.061428	0.061155
O47	O	1.265561	0.311428	0.311155
O48	O	1.515561	0.561428	0.561155
O49	O	0.867278	-0.243531	-0.316851
O50	O	1.117278	0.006469	-0.066851
O51	O	1.367278	0.256469	0.183149
O52	O	1.617278	0.506469	0.433149
O53	O	0.765588	-0.243653	-0.244013
O54	O	1.015588	0.006347	0.005987
O55	O	1.265588	0.256347	0.255987
O56	O	1.515588	0.506347	0.505987
O57	O	0.944301	-0.188356	-0.316873
O58	O	1.194301	0.061644	-0.066873
O59	O	1.444301	0.311644	0.183127
O60	O	1.694301	0.561644	0.433127
O61	O	0.943953	-0.316604	-0.188824
O62	O	1.193953	-0.066604	0.061176
O63	O	1.443953	0.183396	0.311176
O64	O	1.693953	0.433396	0.561176
O65	O	0.867081	-0.316495	-0.244000
O66	O	1.117081	-0.066495	0.006000
O67	O	1.367081	0.183505	0.256000
O68	O	1.617081	0.433505	0.506000
C69	C	0.742841	-0.216111	-0.216427
C70	C	0.992841	0.033889	0.033573
C71	C	1.242841	0.283889	0.283573
C72	C	1.492841	0.533889	0.533573
C73	C	0.673200	-0.216114	-0.216432
C74	C	0.923200	0.033886	0.033568
C75	C	1.173200	0.283886	0.283568
C76	C	1.423200	0.533886	0.533568
C77	C	0.171481	-0.187409	-0.245234
C78	C	0.421481	0.062591	0.004766
C79	C	0.671481	0.312591	0.254766
C80	C	0.921481	0.562591	0.504766
C81	C	0.236916	-0.187406	-0.245234
C82	C	0.486916	0.062594	0.004766
C83	C	0.736916	0.312594	0.254766
C84	C	0.986916	0.562594	0.504766
C85	C	0.269561	-0.216141	-0.216450
C86	C	0.519561	0.033859	0.033550
C87	C	0.769561	0.283859	0.283550
C88	C	1.019561	0.533859	0.533550
C89	C	0.236766	-0.244891	-0.187671
C90	C	0.486766	0.005109	0.062329
C91	C	0.736766	0.255109	0.312329
C92	C	0.986766	0.505109	0.562329
C93	C	0.171331	-0.244896	-0.187675
C94	C	0.421331	0.005104	0.062325
C95	C	0.671331	0.255104	0.312325
C96	C	0.921331	0.505104	0.562325
C97	C	0.373150	-0.219691	-0.175961
C98	C	0.623150	0.030309	0.074039
C99	C	0.873150	0.280309	0.324039
C100	C	1.123150	0.530309	0.574039
C101	C	0.438583	-0.219683	-0.175956
C102	C	0.688583	0.030317	0.074044
C103	C	0.938583	0.280317	0.324044
C104	C	1.188583	0.530317	0.574044
C105	C	0.471382	-0.216127	-0.216437
C106	C	0.721382	0.033873	0.033563
C107	C	0.971382	0.283873	0.283563
C108	C	1.221382	0.533873	0.533563
C109	C	0.438740	-0.212570	-0.256925
C110	C	0.688740	0.037430	-0.006925
C111	C	0.938740	0.287430	0.243075
C112	C	1.188740	0.537430	0.493075
C113	C	0.373306	-0.212576	-0.256929
C114	C	0.623306	0.037424	-0.006929
C115	C	0.873306	0.287424	0.243071
C116	C	1.123306	0.537424	0.493071
C117	C	0.340514	-0.216139	-0.216442
C118	C	0.590514	0.033861	0.033558
C119	C	0.840514	0.283861	0.283558
C120	C	1.090514	0.533861	0.533558
C121	C	0.575123	-0.187378	-0.245216
C122	C	0.825123	0.062622	0.004784
C123	C	1.075123	0.312622	0.254784
C124	C	1.325123	0.562622	0.504784
C125	C	0.640559	-0.187378	-0.245217
C126	C	0.890559	0.062622	0.004783
C127	C	1.140559	0.312622	0.254783
C128	C	1.390559	0.562622	0.504783
C129	C	0.640407	-0.244860	-0.187650
C130	C	0.890407	0.005140	0.062350
C131	C	1.140407	0.255140	0.312350
C132	C	1.390407	0.505140	0.562350
C133	C	0.574972	-0.244863	-0.187653
C134	C	0.824972	0.005137	0.062347
C135	C	1.074972	0.255137	0.312347
C136	C	1.324972	0.505137	0.562347
C137	C	0.542334	-0.216119	-0.216436
C138	C	0.792334	0.033881	0.033564
C139	C	1.042334	0.283881	0.283564
C140	C	1.292334	0.533881	0.533564
C141	C	0.905515	-0.332850	-0.216417
C142	C	1.155515	-0.082850	0.033583
C143	C	1.405515	0.167150	0.283583
C144	C	1.655515	0.417150	0.533583
C145	C	0.905524	-0.382785	-0.216423
C146	C	1.155524	-0.132785	0.033577
C147	C	1.405524	0.117215	0.283577
C148	C	1.655524	0.367215	0.533577
C149	C	0.945729	-0.692472	-0.187751
C150	C	1.195729	-0.442472	0.062249
C151	C	1.445729	-0.192472	0.312249
C152	C	1.695729	0.057528	0.562249
C153	C	0.945806	-0.880145	-0.187769
C154	C	1.195806	-0.630145	0.062231
C155	C	1.445806	-0.380145	0.312231
C156	C	1.695806	-0.130145	0.562231
O157	O	0.979900	-0.904448	-0.163374
O158	O	1.229900	-0.654448	0.086626
O159	O	1.479900	-0.404448	0.336626
O160	O	1.729900	-0.154448	0.586626
N161	N	0.905759	-0.903570	-0.216474
N162	N	1.155759	-0.653570	0.033526
N163	N	1.405759	-0.403570	0.283526
N164	N	1.655759	-0.153570	0.533526
C165	C	0.865692	-0.880073	-0.245178
C166	C	1.115692	-0.630073	0.004822
C167	C	1.365692	-0.380073	0.254822
C168	C	1.615692	-0.130073	0.504822
O169	O	0.831635	-0.904303	-0.269597
O170	O	1.081635	-0.654303	-0.019597
O171	O	1.331635	-0.404303	0.230403
O172	O	1.581635	-0.154303	0.480403
C173	C	0.865618	-0.692401	-0.245163
C174	C	1.115618	-0.442401	0.004837
C175	C	1.365618	-0.192401	0.254837
C176	C	1.615618	0.057599	0.504837
C177	C	0.905664	-0.668979	-0.216453
C178	C	1.155664	-0.418979	0.033547
C179	C	1.405664	-0.168979	0.283547
C180	C	1.655664	0.081021	0.533547
C181	C	0.985772	-0.669051	-0.159044
C182	C	1.235772	-0.419051	0.090956
C183	C	1.485772	-0.169051	0.340956
C184	C	1.735772	0.080949	0.590956
C185	C	0.985750	-0.622135	-0.159038
C186	C	1.235750	-0.372135	0.090962
C187	C	1.485750	-0.122135	0.340962
C188	C	1.735750	0.127865	0.590962
C189	C	0.945685	-0.598642	-0.187740
C190	C	1.195685	-0.348642	0.062260
C191	C	1.445685	-0.098642	0.312260
C192	C	1.695685	0.151358	0.562260
C193	C	0.905642	-0.622063	-0.216447
C194	C	1.155642	-0.372063	0.033553
C195	C	1.405642	-0.122063	0.283553
C196	C	1.655642	0.127937	0.533553
C197	C	0.825555	-0.668905	-0.273870
C198	C	1.075555	-0.418905	-0.023870
C199	C	1.325555	-0.168905	0.226130
C200	C	1.575555	0.081095	0.476130
C201	C	0.825541	-0.621984	-0.273864
C202	C	1.075541	-0.371984	-0.023864
C203	C	1.325541	-0.121984	0.226136
C204	C	1.575541	0.128016	0.476136
C205	C	0.865587	-0.598562	-0.245154
C206	C	1.115587	-0.348562	0.004846
C207	C	1.365587	-0.098562	0.254846
C208	C	1.615587	0.151438	0.504846
C209	C	0.865554	-0.551654	-0.245143
C210	C	1.115554	-0.301654	0.004857
C211	C	1.365554	-0.051654	0.254857
C212	C	1.615554	0.198346	0.504857
N213	N	0.905602	-0.528230	-0.216438
N214	N	1.155602	-0.278230	0.033562
N215	N	1.405602	-0.028230	0.283562
N216	N	1.655602	0.221770	0.533562
C217	C	0.945667	-0.551724	-0.187736
C218	C	1.195667	-0.301724	0.062264
C219	C	1.445667	-0.051724	0.312264
C220	C	1.695667	0.198276	0.562264
C221	C	0.865732	-0.978603	-0.245184
C222	C	1.115732	-0.728603	0.004816
C223	C	1.365732	-0.478603	0.254816
C224	C	1.615732	-0.228603	0.504816
C225	C	0.865750	-1.025521	-0.245187
C226	C	1.115750	-0.775521	0.004813
C227	C	1.365750	-0.525521	0.254813
C228	C	1.615750	-0.275521	0.504813
C229	C	0.945865	-1.025591	-0.187778
C230	C	1.195865	-0.775591	0.062222
C231	C	1.445865	-0.525591	0.312222
C232	C	1.695865	-0.275591	0.562222
C233	C	0.945844	-0.978672	-0.187773
C234	C	1.195844	-0.728672	0.062227
C235	C	1.445844	-0.478672	0.312227
C236	C	1.695844	-0.228672	0.562227
C237	C	0.905780	-0.955179	-0.216479
C238	C	1.155780	-0.705179	0.033521
C239	C	1.405780	-0.455179	0.283521
C240	C	1.655780	-0.205179	0.533521
C241	C	0.945617	-0.453198	-0.187726
C242	C	1.195617	-0.203198	0.062274
C243	C	1.445617	0.046802	0.312274
C244	C	1.695617	0.296802	0.562274
C245	C	0.945590	-0.406278	-0.187721
C246	C	1.195590	-0.156278	0.062279
C247	C	1.445590	0.093722	0.312279
C248	C	1.695590	0.343722	0.562279
C249	C	0.865477	-0.406213	-0.245132
C250	C	1.115477	-0.156213	0.004868
C251	C	1.365477	0.093787	0.254868
C252	C	1.615477	0.343787	0.504868
C253	C	0.865502	-0.453129	-0.245135
C254	C	1.115502	-0.203129	0.004865
C255	C	1.365502	0.046871	0.254865
C256	C	1.615502	0.296871	0.504865
C257	C	0.905577	-0.476620	-0.216431
C258	C	1.155577	-0.226620	0.033569
C259	C	1.405577	0.023380	0.283569
C260	C	1.655577	0.273380	0.533569
O261	O	0.831484	-0.527323	-0.269528
O262	O	1.081484	-0.277323	-0.019528
O263	O	1.331484	-0.027323	0.230472
O264	O	1.581484	0.222677	0.480472
O265	O	0.979728	-0.527486	-0.163328
O266	O	1.229728	-0.277486	0.086672
O267	O	1.479728	-0.027486	0.336672
O268	O	1.729728	0.222514	0.586672
C269	C	0.945751	-0.739388	-0.187757
C270	C	1.195751	-0.489388	0.062243
C271	C	1.445751	-0.239388	0.312243
C272	C	1.695751	0.010612	0.562243
C273	C	0.905708	-0.762810	-0.216464
C274	C	1.155708	-0.512810	0.033536
C275	C	1.405708	-0.262810	0.283536
C276	C	1.655708	-0.012810	0.533536
C277	C	0.865643	-0.739316	-0.245166
C278	C	1.115643	-0.489316	0.004834
C279	C	1.365643	-0.239316	0.254834
C280	C	1.615643	0.010684	0.504834
C281	C	0.905726	-0.809728	-0.216468
C282	C	1.155726	-0.559728	0.033532
C283	C	1.405726	-0.309728	0.283532
C284	C	1.655726	-0.059728	0.533532
C285	C	0.945791	-0.833221	-0.187766
C286	C	1.195791	-0.583221	0.062234
C287	C	1.445791	-0.333221	0.312234
C288	C	1.695791	-0.083221	0.562234
C289	C	0.985838	-0.809797	-0.159061
C290	C	1.235838	-0.559797	0.090939
C291	C	1.485838	-0.309797	0.340939
C292	C	1.735838	-0.059797	0.590939
C293	C	0.985816	-0.762881	-0.159055
C294	C	1.235816	-0.512881	0.090945
C295	C	1.485816	-0.262881	0.340945
C296	C	1.735816	-0.012881	0.590945
C297	C	0.825595	-0.762740	-0.273871
C298	C	1.075595	-0.512740	-0.023871
C299	C	1.325595	-0.262740	0.226129
C300	C	1.575595	-0.012740	0.476129
C301	C	0.825620	-0.809656	-0.273874
C302	C	1.075620	-0.559656	-0.023874
C303	C	1.325620	-0.309656	0.226126
C304	C	1.575620	-0.059656	0.476126
C305	C	0.865685	-0.833150	-0.245172
C306	C	1.115685	-0.583150	0.004828
C307	C	1.365685	-0.333150	0.254828
C308	C	1.615685	-0.083150	0.504828
C309	C	1.069052	-0.216145	-0.216453
C310	C	1.319052	0.033855	0.033547
C311	C	1.569052	0.283855	0.283547
C312	C	1.819052	0.533855	0.533547
C313	C	1.138693	-0.216153	-0.216458
C314	C	1.388693	0.033847	0.033542
C315	C	1.638693	0.283847	0.283542
C316	C	1.888693	0.533847	0.533542
C317	C	0.905816	-0.215913	-0.333618
C318	C	1.155816	0.034087	-0.083618
C319	C	1.405816	0.284087	0.166382
C320	C	1.655816	0.534087	0.416382
C321	C	0.905896	-0.215821	-0.383553
C322	C	1.155896	0.034179	-0.133553
C323	C	1.405896	0.284179	0.116447
C324	C	1.655896	0.534179	0.366447
C325	C	0.905759	-0.098949	-0.216472
C326	C	1.155759	0.151051	0.033528
C327	C	1.405759	0.401051	0.283528
C328	C	1.655759	0.651051	0.533528
C329	C	0.905815	-0.049015	-0.216486
C330	C	1.155815	0.200985	0.033514
C331	C	1.405815	0.450985	0.283514
C332	C	1.655815	0.700985	0.533514
C333	C	0.905478	-0.216310	-0.099717
C334	C	1.155478	0.033690	0.150283
C335	C	1.405478	0.283690	0.400283
C336	C	1.655478	0.533690	0.650283
C337	C	0.905519	-0.216275	-0.049782
C338	C	1.155519	0.033725	0.200218
C339	C	1.405519	0.283725	0.450218
C340	C	1.655519	0.533725	0.700218
C341	C	0.865871	-0.244995	0.259997
C342	C	1.115871	0.005005	0.509997
C343	C	1.365871	0.255005	0.759997
C344	C	1.615871	0.505005	1.009997
C345	C	0.865982	-0.244867	0.447670
C346	C	1.115982	0.005133	0.697670
C347	C	1.365982	0.255133	0.947670
C348	C	1.615982	0.505133	1.197670
O349	O	0.832122	-0.269444	0.472051
O350	O	1.082122	-0.019444	0.722051
O351	O	1.332122	0.230556	0.972051
O352	O	1.582122	0.480556	1.222051
N353	N	0.905807	-0.215919	0.471002
N354	N	1.155807	0.034081	0.721002
N355	N	1.405807	0.284081	0.971002
N356	N	1.655807	0.534081	1.221002
C357	C	0.945604	-0.186997	0.447413
C358	C	1.195604	0.063003	0.697413
C359	C	1.445604	0.313003	0.947413
C360	C	1.695604	0.563003	1.197413
O361	O	0.979475	-0.162368	0.471564
O362	O	1.229475	0.087632	0.721564
O363	O	1.479475	0.337632	0.971564
O364	O	1.729475	0.587632	1.221564
C365	C	0.945490	-0.187123	0.259741
C366	C	1.195490	0.062877	0.509741
C367	C	1.445490	0.312877	0.759741
C368	C	1.695490	0.562877	1.009741
C369	C	0.905667	-0.216077	0.236411
C370	C	1.155667	0.033923	0.486411
C371	C	1.405667	0.283923	0.736411
C372	C	1.655667	0.533923	0.986411
C373	C	0.826051	-0.273946	0.236668
C374	C	1.076051	-0.023946	0.486668
C375	C	1.326051	0.226054	0.736668
C376	C	1.576051	0.476054	0.986668
C377	C	0.826026	-0.273980	0.189753
C378	C	1.076026	-0.023980	0.439753
C379	C	1.326026	0.226020	0.689753
C380	C	1.576026	0.476020	0.939753
C381	C	0.865822	-0.245062	0.166167
C382	C	1.115822	0.004938	0.416167
C383	C	1.365822	0.254938	0.666167
C384	C	1.615822	0.504938	0.916167
C385	C	0.905642	-0.216110	0.189496
C386	C	1.155642	0.033890	0.439496
C387	C	1.405642	0.283890	0.689496
C388	C	1.655642	0.533890	0.939496
C389	C	0.985283	-0.158200	0.236152
C390	C	1.235283	0.091800	0.486152
C391	C	1.485283	0.341800	0.736152
C392	C	1.735283	0.591800	0.986152
C393	C	0.985250	-0.158233	0.189231
C394	C	1.235250	0.091767	0.439231
C395	C	1.485250	0.341767	0.689231
C396	C	1.735250	0.591767	0.939231
C397	C	0.945427	-0.187187	0.165902
C398	C	1.195427	0.062813	0.415902
C399	C	1.445427	0.312813	0.665902
C400	C	1.695427	0.562813	0.915902
C401	C	0.945412	-0.187226	0.118994
C402	C	1.195412	0.062774	0.368994
C403	C	1.445412	0.312774	0.618994
C404	C	1.695412	0.562774	0.868994
N405	N	0.905587	-0.216175	0.095663
N406	N	1.155587	0.033825	0.345663
N407	N	1.405587	0.283825	0.595663
N408	N	1.655587	0.533825	0.845663
C409	C	0.865792	-0.245093	0.119249
C410	C	1.115792	0.004907	0.369249
C411	C	1.365792	0.254907	0.619249
C412	C	1.615792	0.504907	0.869249
C413	C	0.945662	-0.186934	0.545943
C414	C	1.195662	0.063066	0.795943
C415	C	1.445662	0.313066	1.045943
C416	C	1.695662	0.563066	1.295943
C417	C	0.945692	-0.186903	0.592861
C418	C	1.195692	0.063097	0.842861
C419	C	1.445692	0.313097	1.092861
C420	C	1.695692	0.563097	1.342861
C421	C	0.866069	-0.244773	0.593115
C422	C	1.116069	0.005227	0.843115
C423	C	1.366069	0.255227	1.093115
C424	C	1.616069	0.505227	1.343115
C425	C	0.866043	-0.244806	0.546197
C426	C	1.116043	0.005194	0.796197
C427	C	1.366043	0.255194	1.046197
C428	C	1.616043	0.505194	1.296197
C429	C	0.905837	-0.215883	0.522611
C430	C	1.155837	0.034117	0.772611
C431	C	1.405837	0.284117	1.022611
C432	C	1.655837	0.534117	1.272611
C433	C	0.865743	-0.245161	0.020723
C434	C	1.115743	0.004839	0.270723
C435	C	1.365743	0.254839	0.520723
C436	C	1.615743	0.504839	0.770723
C437	C	0.865724	-0.245193	-0.026196
C438	C	1.115724	0.004807	0.223804
C439	C	1.365724	0.254807	0.473804
C440	C	1.615724	0.504807	0.723804
C441	C	0.945344	-0.187322	-0.026447
C442	C	1.195344	0.062678	0.223553
C443	C	1.445344	0.312678	0.473553
C444	C	1.695344	0.562678	0.723553
C445	C	0.945366	-0.187291	0.020469
C446	C	1.195366	0.062709	0.270469
C447	C	1.445366	0.312709	0.520469
C448	C	1.695366	0.562709	0.770469
C449	C	0.905561	-0.216212	0.044053
C450	C	1.155561	0.033788	0.294053
C451	C	1.405561	0.283788	0.544053
C452	C	1.655561	0.533788	0.794053
O453	O	0.979249	-0.162659	0.094584
O454	O	1.229249	0.087341	0.344584
O455	O	1.479249	0.337341	0.594584
O456	O	1.729249	0.587341	0.844584
O457	O	0.831916	-0.269711	0.095090
O458	O	1.081916	-0.019711	0.345090
O459	O	1.331916	0.230289	0.595090
O460	O	1.581916	0.480289	0.845090
C461	C	0.865896	-0.244962	0.306913
C462	C	1.115896	0.005038	0.556913
C463	C	1.365896	0.255038	0.806913
C464	C	1.615896	0.505038	1.056913
C465	C	0.905716	-0.216010	0.330242
C466	C	1.155716	0.033990	0.580242
C467	C	1.405716	0.283990	0.830242
C468	C	1.655716	0.533990	1.080242
C469	C	0.945512	-0.187092	0.306656
C470	C	1.195512	0.062908	0.556656
C471	C	1.445512	0.312908	0.806656
C472	C	1.695512	0.562908	1.056656
C473	C	0.905746	-0.215979	0.377160
C474	C	1.155746	0.034021	0.627160
C475	C	1.405746	0.284021	0.877160
C476	C	1.655746	0.534021	1.127160
C477	C	0.865951	-0.244897	0.400746
C478	C	1.115951	0.005103	0.650746
C479	C	1.365951	0.255103	0.900746
C480	C	1.615951	0.505103	1.150746
C481	C	0.826126	-0.273846	0.377414
C482	C	1.076126	-0.023846	0.627414
C483	C	1.326126	0.226154	0.877414
C484	C	1.576126	0.476154	1.127414
C485	C	0.826101	-0.273880	0.330499
C486	C	1.076101	-0.023880	0.580499
C487	C	1.326101	0.226120	0.830499
C488	C	1.576101	0.476120	1.080499
C489	C	0.985337	-0.158143	0.329988
C490	C	1.235337	0.091857	0.579988
C491	C	1.485337	0.341857	0.829988
C492	C	1.735337	0.591857	1.079988
C493	C	0.985359	-0.158113	0.376903
C494	C	1.235359	0.091887	0.626903
C495	C	1.485359	0.341887	0.876903
C496	C	1.735359	0.591887	1.126903
C497	C	0.945563	-0.187031	0.400489
C498	C	1.195563	0.062969	0.650489
C499	C	1.445563	0.312969	0.900489
C500	C	1.695563	0.562969	1.150489
H501	H	0.666986	-0.268261	-0.164216
H502	H	0.916986	-0.018261	0.085784
H503	H	1.166986	0.231739	0.335784
H504	H	1.416986	0.481739	0.585784
H505	H	0.667254	-0.163972	-0.268653
H506	H	0.917254	0.086028	-0.018653
H507	H	1.167254	0.336028	0.231347
H508	H	1.417254	0.586028	0.481347
H509	H	0.978453	-0.959605	-0.164395
H510	H	1.228453	-0.709605	0.085605
H511	H	1.478453	-0.459605	0.335605
H512	H	1.728453	-0.209605	0.585605
N513	N	0.822304	-0.478394	-0.276095
N514	N	1.072304	-0.228394	-0.026095
N515	N	1.322304	0.021606	0.223905
N516	N	1.572304	0.271606	0.473905
H517	H	0.796918	-0.456390	-0.294275
H518	H	1.046918	-0.206390	-0.044275
H519	H	1.296918	0.043610	0.205725
H520	H	1.546918	0.293610	0.455725
H521	H	0.847828	-0.497794	-0.296906
H522	H	1.097828	-0.247794	-0.046906
H523	H	1.347828	0.002206	0.203094
H524	H	1.597828	0.252206	0.453094
H525	H	1.017653	-0.134678	0.170030
H526	H	1.267653	0.115322	0.420030
H527	H	1.517653	0.365322	0.670030
H528	H	1.767653	0.615322	0.920030
H529	H	0.548276	-0.268267	-0.164218
H530	H	0.798276	-0.018267	0.085782
H531	H	1.048276	0.231733	0.335782
H532	H	1.298276	0.481733	0.585782
N533	N	0.473787	-0.223511	-0.132290
N534	N	0.723787	0.026489	0.117710
N535	N	0.973787	0.276489	0.367710
N536	N	1.223787	0.526489	0.617710
H537	H	0.443082	-0.225769	-0.106647
H538	H	0.693082	0.024231	0.143353
H539	H	0.943082	0.274231	0.393353
H540	H	1.193082	0.524231	0.643353
H541	H	0.500921	-0.251188	-0.132885
H542	H	0.750921	-0.001188	0.117115
H543	H	1.000921	0.248812	0.367115
H544	H	1.250921	0.498812	0.617115
H545	H	0.978200	-0.387210	-0.164341
H546	H	1.228200	-0.137210	0.085659
H547	H	1.478200	0.112790	0.335659
H548	H	1.728200	0.362790	0.585659
N549	N	1.028951	-0.596876	-0.128079
N550	N	1.278951	-0.346876	0.121921
N551	N	1.528951	-0.096876	0.371921
N552	N	1.778951	0.153124	0.621921
H553	H	1.054336	-0.618885	-0.109902
H554	H	1.304336	-0.368885	0.140098
H555	H	1.554336	-0.118885	0.390098
H556	H	1.804336	0.131115	0.640098
H557	H	1.057947	-0.577354	-0.146388
H558	H	1.307947	-0.327354	0.103612
H559	H	1.557947	-0.077354	0.353612
H560	H	1.807947	0.172646	0.603612
N561	N	1.028989	-0.694386	-0.128085
N562	N	1.278989	-0.444386	0.121915
N563	N	1.528989	-0.194386	0.371915
N564	N	1.778989	0.055614	0.621915
H565	H	1.054350	-0.672422	-0.109902
H566	H	1.304350	-0.422422	0.140098
H567	H	1.554350	-0.172422	0.390098
H568	H	1.804350	0.077578	0.640098
H569	H	1.003483	-0.713913	-0.107277
H570	H	1.253483	-0.463913	0.142723
H571	H	1.503483	-0.213913	0.392723
H572	H	1.753483	0.036087	0.642723
H573	H	0.346732	-0.209681	-0.289895
H574	H	0.596732	0.040319	-0.039895
H575	H	0.846732	0.290319	0.210105
H576	H	1.096732	0.540319	0.460105
N577	N	0.823130	-0.275951	0.618560
N578	N	1.073130	-0.025951	0.868560
N579	N	1.323130	0.224049	1.118560
N580	N	1.573130	0.474049	1.368560
H581	H	0.797887	-0.294293	0.596665
H582	H	1.047887	-0.044293	0.846665
H583	H	1.297887	0.205707	1.096665
H584	H	1.547887	0.455707	1.346665
H585	H	0.848819	-0.296601	0.638059
H586	H	1.098819	-0.046601	0.888059
H587	H	1.348819	0.203399	1.138059
H588	H	1.598819	0.453399	1.388059
H589	H	0.465444	-0.209672	-0.289888
H590	H	0.715444	0.040328	-0.039888
H591	H	0.965444	0.290328	0.210112
H592	H	1.215444	0.540328	0.460112
N593	N	0.822812	-0.276358	0.046150
N594	N	1.072812	-0.026358	0.296150
N595	N	1.322812	0.223642	0.546150
N596	N	1.572812	0.473642	0.796150
H597	H	0.848469	-0.297035	0.065644
H598	H	1.098469	-0.047035	0.315644
H599	H	1.348469	0.202965	0.565644
H600	H	1.598469	0.452965	0.815644
H601	H	0.793624	-0.258209	0.065574
H602	H	1.043624	-0.008209	0.315574
H603	H	1.293624	0.241791	0.565574
H604	H	1.543624	0.491791	0.815574
N605	N	0.539914	-0.156380	-0.276260
N606	N	0.789914	0.093620	-0.026260
N607	N	1.039914	0.343620	0.223740
N608	N	1.289914	0.593620	0.473740
H609	H	0.570617	-0.138172	-0.294493
H610	H	0.820617	0.111828	-0.044493
H611	H	1.070617	0.361828	0.205507
H612	H	1.320617	0.611828	0.455507
H613	H	0.512788	-0.174662	-0.297018
H614	H	0.762788	0.075338	-0.047018
H615	H	1.012788	0.325338	0.202982
H616	H	1.262788	0.575338	0.452982
H617	H	0.978488	-1.044727	-0.164408
H618	H	1.228488	-0.794727	0.085592
H619	H	1.478488	-0.544727	0.335592
H620	H	1.728488	-0.294727	0.585592
N621	N	0.988324	-0.156069	0.045634
N622	N	1.238324	0.093931	0.295634
N623	N	1.488324	0.343931	0.545634
N624	N	1.738324	0.593931	0.795634
H625	H	1.013532	-0.137756	0.023571
H626	H	1.263532	0.112244	0.273571
H627	H	1.513532	0.362244	0.523571
H628	H	1.763532	0.612244	0.773571
H629	H	0.962643	-0.135393	0.065071
H630	H	1.212643	0.114607	0.315071
H631	H	1.462643	0.364607	0.565071
H632	H	1.712643	0.614607	0.815071
N633	N	1.028313	-0.126880	0.402061
N634	N	1.278313	0.123120	0.652061
N635	N	1.528313	0.373120	0.902061
N636	N	1.778313	0.623120	1.152061
H637	H	1.022295	-0.131243	0.435363
H638	H	1.272295	0.118757	0.685363
H639	H	1.522295	0.368757	0.935363
H640	H	1.772295	0.618757	1.185363
H641	H	1.073118	-0.133649	0.393825
H642	H	1.323118	0.116351	0.643825
H643	H	1.573118	0.366351	0.893825
H644	H	1.823118	0.616351	1.143825
N645	N	0.337777	-0.223531	-0.132297
N646	N	0.587777	0.026469	0.117703
N647	N	0.837777	0.276469	0.367703
N648	N	1.087777	0.526469	0.617703
H649	H	0.368382	-0.225779	-0.106649
H650	H	0.618382	0.024221	0.143351
H651	H	0.868382	0.274221	0.393351
H652	H	1.118382	0.524221	0.643351
H653	H	0.310639	-0.196162	-0.128176
H654	H	0.560639	0.053838	0.121824
H655	H	0.810639	0.303838	0.371824
H656	H	1.060639	0.553838	0.621824
H657	H	0.263349	-0.268289	-0.164236
H658	H	0.513349	-0.018289	0.085764
H659	H	0.763349	0.231711	0.335764
H660	H	1.013349	0.481711	0.585764
N661	N	0.135963	-0.275899	-0.156636
N662	N	0.385963	-0.025899	0.093364
N663	N	0.635963	0.224101	0.343364
N664	N	0.885963	0.474101	0.593364
H665	H	0.166569	-0.294105	-0.138401
H666	H	0.416569	-0.044105	0.111599
H667	H	0.666569	0.205895	0.361599
H668	H	0.916569	0.455895	0.611599
H669	H	0.108790	-0.257620	-0.135880
H670	H	0.358790	-0.007620	0.114120
H671	H	0.608790	0.242380	0.364120
H672	H	0.858790	0.492380	0.614120
H673	H	0.792970	-0.743616	-0.297244
H674	H	1.042970	-0.493616	-0.047244
H675	H	1.292970	-0.243616	0.202756
H676	H	1.542970	0.006384	0.452756
N677	N	0.823078	-0.276030	0.521043
N678	N	1.073078	-0.026030	0.771043
N679	N	1.323078	0.223970	1.021043
N680	N	1.573078	0.473970	1.271043
H681	H	0.793864	-0.257932	0.501565
H682	H	1.043864	-0.007932	0.751565
H683	H	1.293864	0.242068	1.001565
H684	H	1.543864	0.492068	1.251565
H685	H	0.848749	-0.296730	0.501625
H686	H	1.098749	-0.046730	0.751625
H687	H	1.348749	0.203270	1.001625
H688	H	1.598749	0.453270	1.251625
N689	N	0.988594	-0.155737	0.520515
N690	N	1.238594	0.094263	0.770515
N691	N	1.488594	0.344263	1.020515
N692	N	1.738594	0.594263	1.270515
H693	H	1.017785	-0.173856	0.501063
H694	H	1.267785	0.076144	0.751063
H695	H	1.517785	0.326144	1.001063
H696	H	1.767785	0.576144	1.251063
H697	H	0.962896	-0.135062	0.501049
H698	H	1.212896	0.114938	0.751049
H699	H	1.462896	0.364938	1.001049
H700	H	1.712896	0.614938	1.251049
N701	N	0.782428	-0.834918	-0.304843
N702	N	1.032428	-0.584918	-0.054843
N703	N	1.282428	-0.334918	0.195157
N704	N	1.532428	-0.084918	0.445157
H705	H	0.753390	-0.854447	-0.286573
H706	H	1.003390	-0.604447	-0.036573
H707	H	1.253390	-0.354447	0.213427
H708	H	1.503390	-0.104447	0.463427
H709	H	0.757088	-0.812885	-0.323018
H710	H	1.007088	-0.562885	-0.073018
H711	H	1.257088	-0.312885	0.176982
H712	H	1.507088	-0.062885	0.426982
N713	N	0.988840	-0.478531	-0.156767
N714	N	1.238840	-0.228531	0.093233
N715	N	1.488840	0.021469	0.343233
N716	N	1.738840	0.271469	0.593233
H717	H	1.014200	-0.456568	-0.138582
H718	H	1.264200	-0.206568	0.111418
H719	H	1.514200	0.043432	0.361418
H720	H	1.764200	0.293432	0.611418
H721	H	0.963336	-0.498061	-0.135961
H722	H	1.213336	-0.248061	0.114039
H723	H	1.463336	0.001939	0.364039
H724	H	1.713336	0.251939	0.614039
H725	H	0.833295	-0.268772	-0.045189
H726	H	1.083295	-0.018772	0.204811
H727	H	1.333295	0.231228	0.454811
H728	H	1.583295	0.481228	0.704811
N729	N	0.822547	-1.050781	-0.276145
N730	N	1.072547	-0.800781	-0.026145
N731	N	1.322547	-0.550781	0.223855
N732	N	1.572547	-0.300781	0.473855
H733	H	0.797166	-1.028774	-0.294325
H734	H	1.047166	-0.778774	-0.044325
H735	H	1.297166	-0.528774	0.205675
H736	H	1.547166	-0.278774	0.455675
H737	H	0.848064	-1.070186	-0.296956
H738	H	1.098064	-0.820186	-0.046956
H739	H	1.348064	-0.570186	0.203044
H740	H	1.598064	-0.320186	0.453044
H741	H	0.793597	-0.297556	0.170762
H742	H	1.043597	-0.047556	0.420762
H743	H	1.293597	0.202444	0.670762
H744	H	1.543597	0.452444	0.920762
N745	N	1.029047	-0.835141	-0.128100
N746	N	1.279047	-0.585141	0.121900
N747	N	1.529047	-0.335141	0.371900
N748	N	1.779047	-0.085141	0.621900
H749	H	1.022978	-0.868416	-0.132462
H750	H	1.272978	-0.618416	0.117538
H751	H	1.522978	-0.368416	0.367538
H752	H	1.772978	-0.118416	0.617538
H753	H	1.073796	-0.826897	-0.135119
H754	H	1.323796	-0.576897	0.114881
H755	H	1.573796	-0.326897	0.364881
H756	H	1.823796	-0.076897	0.614881
N757	N	0.822514	-0.953268	-0.276145
N758	N	1.072514	-0.703268	-0.026145
N759	N	1.322514	-0.453268	0.223855
N760	N	1.572514	-0.203268	0.473855
H761	H	0.797149	-0.975230	-0.294326
H762	H	1.047149	-0.725230	-0.044326
H763	H	1.297149	-0.475230	0.205674
H764	H	1.547149	-0.225230	0.455674
H765	H	0.793502	-0.933862	-0.257837
H766	H	1.043502	-0.683862	-0.007837
H767	H	1.293502	-0.433862	0.242163
H768	H	1.543502	-0.183862	0.492163
H769	H	0.792942	-0.687967	-0.297246
H770	H	1.042942	-0.437967	-0.047246
H771	H	1.292942	-0.187967	0.202754
H772	H	1.542942	0.062033	0.452754
N773	N	0.782329	-0.596645	-0.304827
N774	N	1.032329	-0.346645	-0.054827
N775	N	1.282329	-0.096645	0.195173
N776	N	1.532329	0.153355	0.445173
H777	H	0.756966	-0.618605	-0.323013
H778	H	1.006966	-0.368605	-0.073013
H779	H	1.256966	-0.118605	0.176987
H780	H	1.506966	0.131395	0.426987
H781	H	0.753314	-0.577240	-0.286521
H782	H	1.003314	-0.327240	-0.036521
H783	H	1.253314	-0.077240	0.213479
H784	H	1.503314	0.172760	0.463479
N785	N	0.783114	-0.305131	0.262103
N786	N	1.033114	-0.055131	0.512103
N787	N	1.283114	0.194869	0.762103
N788	N	1.533114	0.444869	1.012103
H789	H	0.757884	-0.323470	0.240198
H790	H	1.007884	-0.073470	0.490198
H791	H	1.257884	0.176530	0.740198
H792	H	1.507884	0.426530	0.990198
H793	H	0.808805	-0.325783	0.281598
H794	H	1.058805	-0.075783	0.531598
H795	H	1.308805	0.174217	0.781598
H796	H	1.558805	0.424217	1.031598
H797	H	0.832854	-0.387077	-0.268499
H798	H	1.082854	-0.137077	-0.018499
H799	H	1.332854	0.112923	0.231501
H800	H	1.582854	0.362923	0.481501
H801	H	1.017743	-0.134594	0.310789
H802	H	1.267743	0.115406	0.560789
H803	H	1.517743	0.365406	0.810789
H804	H	1.767743	0.615406	1.060789
H805	H	0.144911	-0.164006	-0.268673
H806	H	0.394911	0.085994	-0.018673
H807	H	0.644911	0.335994	0.231327
H808	H	0.894911	0.585994	0.481327
N809	N	1.029012	-0.737623	-0.128092
N810	N	1.279012	-0.487623	0.121908
N811	N	1.529012	-0.237623	0.371908
N812	N	1.779012	0.012377	0.621908
H813	H	1.054395	-0.759631	-0.109914
H814	H	1.304395	-0.509631	0.140086
H815	H	1.554395	-0.259631	0.390086
H816	H	1.804395	-0.009631	0.640086
H817	H	1.058010	-0.718098	-0.146397
H818	H	1.308010	-0.468098	0.103603
H819	H	1.558010	-0.218098	0.353603
H820	H	1.808010	0.031902	0.603603
N821	N	0.988653	-0.155681	0.618021
N822	N	1.238653	0.094319	0.868021
N823	N	1.488653	0.344319	1.118021
N824	N	1.738653	0.594319	1.368021
H825	H	1.013855	-0.137367	0.595955
H826	H	1.263855	0.112633	0.845955
H827	H	1.513855	0.362633	1.095955
H828	H	1.763855	0.612633	1.345955
H829	H	0.962976	-0.135007	0.637461
H830	H	1.212976	0.114993	0.887461
H831	H	1.462976	0.364993	1.137461
H832	H	1.712976	0.614993	1.387461
N833	N	1.028236	-0.126971	0.261307
N834	N	1.278236	0.123029	0.511307
N835	N	1.528236	0.373029	0.761307
N836	N	1.778236	0.623029	1.011307
H837	H	1.053435	-0.108657	0.239239
H838	H	1.303435	0.141343	0.489239
H839	H	1.553435	0.391343	0.739239
H840	H	1.803435	0.641343	0.989239
H841	H	1.002556	-0.106297	0.280745
H842	H	1.252556	0.143703	0.530745
H843	H	1.502556	0.393703	0.780745
H844	H	1.752556	0.643703	1.030745
H845	H	0.977746	-0.163779	-0.045659
H846	H	1.227746	0.086221	0.204341
H847	H	1.477746	0.336221	0.454341
H848	H	1.727746	0.586221	0.704341
H849	H	0.793673	-0.297457	0.311508
H850	H	1.043673	-0.047457	0.561508
H851	H	1.293673	0.202543	0.811508
H852	H	1.543673	0.452543	1.061508
H853	H	0.793725	-0.297394	0.396626
H854	H	1.043725	-0.047394	0.646626
H855	H	1.293725	0.202606	0.896626
H856	H	1.543725	0.452606	1.146626
H857	H	0.263618	-0.163997	-0.268667
H858	H	0.513618	0.086003	-0.018667
H859	H	0.763618	0.336003	0.231333
H860	H	1.013618	0.586003	0.481333
