data_functionalizedCrystal
_audit_creation_method	'MofGen! by Chris Wilmer'
_symmetry_space_group_name_H-M	'P1'
_symmetry_Int_Tables_number	1
_symmetry_cell_setting	triclinic
loop_
_symmetry_equiv_pos_as_xyz
  x,y,z
_cell_length_a	14.971486
_cell_length_b	27.732048
_cell_length_c	13.448316
_cell_angle_alpha	89.988441
_cell_angle_beta	89.998199
_cell_angle_gamma	83.128392
loop_
_atom_site_label
_atom_site_type_symbol
_atom_site_fract_x
_atom_site_fract_y
_atom_site_fract_z
O1	O	1.185952	0.062991	-0.082589
O2	O	0.925433	0.070534	-0.082617
O3	O	1.063784	-0.003597	-0.082583
O4	O	1.047601	0.137122	-0.082623
O5	O	1.063766	-0.003601	0.082801
O6	O	0.925416	0.070530	0.082767
O7	O	1.185935	0.062986	0.082795
Cu8	Cu	1.055674	0.066758	0.097882
Cu9	Cu	1.055694	0.066763	-0.097704
O10	O	1.047584	0.137117	0.082761
C11	C	0.892105	0.070195	0.000071
C12	C	0.792824	0.069184	0.000061
C13	C	1.063435	-0.021608	0.000111
C14	C	1.062412	-0.075267	0.000120
C15	C	0.734910	0.112734	0.000051
C16	C	0.641626	0.111781	0.000066
C17	C	0.606257	0.067278	0.000084
C18	C	0.664177	0.023724	0.000098
C19	C	0.757460	0.024678	0.000090
C20	C	0.469746	0.021740	0.000113
C21	C	0.376457	0.020787	0.000119
C22	C	0.353912	0.108844	0.000088
C23	C	0.447195	0.109797	0.000080
C24	C	0.505109	0.066243	0.000092
C25	C	1.137729	-0.413735	0.000077
C26	C	1.133934	-0.615412	0.000062
O27	O	1.202806	-0.646350	0.000026
N28	N	1.051898	-0.634914	0.000054
C29	C	0.970804	-0.603994	0.000043
O30	O	0.900940	-0.625209	0.000026
C31	C	0.974601	-0.402318	0.000051
C32	C	1.056642	-0.382818	0.000069
C33	C	1.219764	-0.394235	0.000094
C34	C	1.220712	-0.343819	0.000103
C35	C	1.139625	-0.312902	0.000095
C36	C	1.057590	-0.332402	0.000078
C37	C	0.893508	-0.371398	0.000033
C38	C	0.894464	-0.320976	0.000032
C39	C	0.976506	-0.301477	0.000050
C40	C	0.977451	-0.251069	0.000079
N41	N	1.059487	-0.231567	0.000087
C42	C	1.140574	-0.262483	0.000095
C43	C	0.968817	-0.709877	0.000042
C44	C	0.967868	-0.760296	0.000042
C45	C	1.130998	-0.771710	0.000059
C46	C	1.131946	-0.721291	0.000066
C47	C	1.050854	-0.690375	0.000050
C48	C	1.142559	-0.156605	0.000114
C49	C	1.143500	-0.106184	0.000128
C50	C	0.980370	-0.094773	0.000105
C51	C	0.979429	-0.145190	0.000097
C52	C	1.060530	-0.176105	0.000099
O53	O	0.908616	-0.220103	0.000104
O54	O	1.210428	-0.241258	0.000090
C55	C	1.136781	-0.464151	0.000068
C56	C	1.054746	-0.483651	0.000051
C57	C	0.973659	-0.452734	0.000043
C58	C	1.053797	-0.534070	0.000051
C59	C	1.134884	-0.564986	0.000059
C60	C	1.216921	-0.545484	0.000067
C61	C	1.217868	-0.495067	0.000076
C62	C	0.891623	-0.472237	0.000035
C63	C	0.890682	-0.522654	0.000027
C64	C	0.971769	-0.553570	0.000035
C65	C	1.219263	0.063326	0.000104
C66	C	1.318544	0.064337	0.000108
C67	C	1.047932	0.155128	0.000064
C68	C	1.048955	0.208788	0.000050
N69	N	1.055666	0.066753	0.235446
N70	N	1.055709	0.066763	-0.235268
C71	C	1.116946	0.033942	0.287501
C72	C	1.116952	0.033941	0.391605
C73	C	1.055681	0.066755	0.443651
C74	C	0.994394	0.099569	0.391588
C75	C	0.994385	0.099566	0.287487
C76	C	0.994418	0.099572	0.608568
C77	C	0.994428	0.099575	0.712676
C78	C	1.116986	0.033947	0.712686
C79	C	1.116977	0.033945	0.608585
C80	C	1.055691	0.066759	0.556529
H81	H	0.763700	0.148973	0.000034
Cl82	Cl	0.792512	-0.282113	0.000010
Cl83	Cl	1.193982	-0.007311	0.222083
H84	H	1.166850	0.007223	0.433988
Cl85	Cl	0.491657	0.165745	0.000045
H86	H	1.282944	-0.570665	0.000078
Cl87	Cl	0.789674	-0.433377	0.000023
H88	H	0.914351	-0.069592	0.000102
Cl89	Cl	0.281106	0.163597	0.000075
Cl90	Cl	1.321012	-0.470562	0.000090
Cl91	Cl	0.787533	-0.547160	0.000009
Cl92	Cl	0.830266	-0.030073	0.000108
H93	H	0.635373	-0.012511	0.000128
H94	H	0.347663	-0.015451	0.000135
Cl95	Cl	0.917339	0.140816	0.222046
Cl96	Cl	0.542552	-0.033014	0.000129
Cl97	Cl	1.246645	-0.081674	0.000148
H98	H	1.166872	0.007227	0.566209
H99	H	0.594476	0.147244	0.000056
H100	H	1.166887	0.007229	0.755076
Cl101	Cl	1.244517	-0.195462	0.000118
Cl102	Cl	0.917369	0.140824	0.543131
H103	H	0.944534	0.126295	0.755047
H104	H	1.287519	-0.327947	0.000113
H105	H	1.285799	-0.419403	0.000097
Cl106	Cl	1.235088	-0.696783	0.000087
Cl107	Cl	0.864726	-0.784803	0.000038
Cl108	Cl	0.866861	-0.671017	0.000022
Cl109	Cl	0.790363	-0.395899	0.000003
H110	H	1.197022	-0.796891	0.000066
Cl111	Cl	0.876290	-0.169704	0.000093
H112	H	0.944501	0.126285	0.433970
