data_functionalizedCrystal
_audit_creation_method	'MofGen! by Chris Wilmer'
_symmetry_space_group_name_H-M	'P1'
_symmetry_Int_Tables_number	1
_symmetry_cell_setting	triclinic
loop_
_symmetry_equiv_pos_as_xyz
  x,y,z
_cell_length_a	30.700809
_cell_length_b	30.711276
_cell_length_c	30.700862
_cell_angle_alpha	59.998386
_cell_angle_beta	89.999414
_cell_angle_gamma	60.000191
loop_
_atom_site_label
_atom_site_type_symbol
_atom_site_fract_x
_atom_site_fract_y
_atom_site_fract_z
O1	O	-0.371254	-0.311651	0.012944
O2	O	-0.307913	-0.222487	-0.012907
O3	O	-0.307911	-0.311650	0.076286
O4	O	-0.371257	-0.222488	-0.076249
O5	O	-0.235466	-0.384070	0.076286
O6	O	-0.235468	-0.294907	-0.012907
O7	O	-0.298809	-0.384071	0.012944
Cu8	Cu	-0.260524	-0.346102	0.000018
Cu9	Cu	-0.346199	-0.260456	0.000019
O10	O	-0.298812	-0.294908	-0.076249
C11	C	-0.234796	-0.137097	-0.018777
C12	C	-0.261674	-0.083360	-0.015076
C13	C	-0.182374	-0.163176	-0.019143
C14	C	-0.234798	-0.215942	-0.018783
C15	C	-0.261678	-0.246507	-0.015089
C16	C	-0.182376	-0.241901	-0.019150
C17	C	-0.155920	-0.215947	-0.018777
C18	C	-0.098463	-0.246515	-0.015075
C19	C	-0.261132	-0.163172	-0.019150
C20	C	-0.574961	-0.535511	0.039265
C21	C	-0.548506	-0.588283	0.039634
C22	C	-0.496086	-0.535509	0.039262
C23	C	-0.469751	-0.588281	0.039632
C24	C	-0.496085	-0.614360	0.039265
C25	C	-0.548507	-0.509552	0.039632
C26	C	-0.765169	-0.393516	0.024987
C27	C	-0.819034	-0.364488	0.020950
C28	C	-0.846055	-0.389406	0.018925
C29	C	-0.904462	-0.357927	0.014538
C30	C	-0.819206	-0.443357	0.020941
C31	C	-0.765344	-0.472385	0.024984
C32	C	-0.738325	-0.447463	0.027007
C33	C	-0.447920	-0.790230	0.024988
C34	C	-0.423094	-0.840041	0.020951
C35	C	-0.371150	-0.865027	0.018921
C36	C	-0.344230	-0.919028	0.014536
C37	C	-0.344030	-0.840201	0.020935
C38	C	-0.368852	-0.790399	0.024981
C39	C	-0.420803	-0.765414	0.027004
C40	C	-0.447922	-0.393510	0.024977
C41	C	-0.423099	-0.364475	0.020931
C42	C	-0.371152	-0.389391	0.018903
C43	C	-0.344235	-0.357911	0.014513
C44	C	-0.344034	-0.443338	0.020916
C45	C	-0.368860	-0.472368	0.024960
C46	C	-0.420804	-0.447452	0.026995
C47	C	-0.679920	-0.478941	0.031387
C48	C	-0.633366	-0.504032	0.034880
C49	C	-0.469171	-0.504029	0.034875
C50	C	-0.447717	-0.478936	0.031380
C51	C	-0.469170	-0.668361	0.034880
C52	C	-0.447716	-0.711408	0.031386
C53	C	-0.496432	-0.071057	-0.503890
C54	C	-0.548853	-0.018285	-0.530226
C55	C	-0.496432	-0.071056	-0.425015
C56	C	-0.548854	-0.018284	-0.451470
C57	C	-0.575308	0.007793	-0.503892
C58	C	-0.470097	-0.097014	-0.451469
C59	C	-0.368666	-0.213054	-0.552051
C60	C	-0.343664	-0.242084	-0.576877
C61	C	-0.370616	-0.217167	-0.628824
C62	C	-0.343513	-0.248647	-0.655741
C63	C	-0.422570	-0.163216	-0.655945
C64	C	-0.447565	-0.134187	-0.631122
C65	C	-0.420611	-0.159108	-0.579173
C66	C	-0.765518	0.183662	-0.631659
C67	C	-0.819384	0.233473	-0.656662
C68	C	-0.846408	0.258459	-0.629712
C69	C	-0.904813	0.312461	-0.656813
C70	C	-0.819559	0.233635	-0.577758
C71	C	-0.765694	0.183833	-0.552761
C72	C	-0.738677	0.158847	-0.579717
C73	C	-0.368668	-0.213052	-0.234803
C74	C	-0.343669	-0.242086	-0.180935
C75	C	-0.370621	-0.217169	-0.153914
C76	C	-0.343519	-0.248648	-0.095506
C77	C	-0.422573	-0.163222	-0.180762
C78	C	-0.447570	-0.134193	-0.234627
C79	C	-0.420610	-0.159111	-0.261646
C80	C	-0.447720	-0.127629	-0.552258
C81	C	-0.469327	-0.102536	-0.530805
C82	C	-0.469328	-0.102535	-0.366609
C83	C	-0.447721	-0.127627	-0.320054
C84	C	-0.633714	0.061794	-0.530997
C85	C	-0.680269	0.104841	-0.552605
O86	O	0.076277	-0.384081	0.012960
O87	O	-0.076257	-0.294916	-0.012894
O88	O	0.012931	-0.384083	0.076300
O89	O	-0.012910	-0.294914	-0.076234
O90	O	0.012933	-0.311666	0.076306
O91	O	-0.076254	-0.222499	-0.012888
O92	O	0.076280	-0.311664	0.012966
Cu93	Cu	0.000013	-0.260469	0.000040
Cu94	Cu	0.000010	-0.346111	0.000033
O95	O	-0.012908	-0.222497	-0.076228
O96	O	-0.298805	0.063292	0.012964
O97	O	-0.235462	-0.063346	-0.012888
O98	O	-0.235465	-0.063353	0.076305
O99	O	-0.298803	0.063300	-0.076229
O100	O	-0.307912	-0.063350	0.076299
O101	O	-0.307909	-0.063342	-0.012895
O102	O	-0.371252	0.063295	0.012958
Cu103	Cu	-0.346196	-0.000023	0.000031
Cu104	Cu	-0.260519	-0.000027	0.000039
O105	O	-0.371250	0.063303	-0.076236
O106	O	-1.076607	0.456783	-0.692421
O107	O	-0.924074	0.330140	-0.629074
O108	O	-1.013262	0.330138	-0.629073
O109	O	-0.987418	0.456785	-0.692422
O110	O	-1.013261	0.330136	-0.701518
O111	O	-0.924072	0.330138	-0.701518
O112	O	-1.076605	0.456781	-0.764865
Cu113	Cu	-1.000338	0.393460	-0.739807
Cu114	Cu	-1.000340	0.393461	-0.654133
O115	O	-0.987417	0.456783	-0.764866
O116	O	-0.307911	-0.311650	-0.764507
O117	O	-0.371254	-0.222491	-0.701165
O118	O	-0.371252	-0.311652	-0.701162
O119	O	-0.307912	-0.222489	-0.764510
O120	O	-0.298806	-0.384074	-0.628716
O121	O	-0.298807	-0.294912	-0.628719
O122	O	-0.235464	-0.384072	-0.692061
Cu123	Cu	-0.260521	-0.346105	-0.653775
Cu124	Cu	-0.346197	-0.260458	-0.739451
O125	O	-0.235466	-0.294910	-0.692064
C126	C	-0.155920	-0.469469	0.234827
C127	C	-0.098464	-0.523208	0.261706
C128	C	-0.182375	-0.443392	0.261162
C129	C	-0.234797	-0.390619	0.155950
C130	C	-0.261676	-0.360052	0.098494
C131	C	-0.261132	-0.364662	0.182405
C132	C	-0.234797	-0.390620	0.234826
C133	C	-0.261675	-0.360052	0.261704
C134	C	-0.182375	-0.443391	0.182406
C135	C	0.018810	-0.390643	0.234846
C136	C	0.015111	-0.360079	0.261727
C137	C	0.019176	-0.443414	0.261179
C138	C	0.018812	-0.390637	0.155967
C139	C	0.015115	-0.360067	0.098511
C140	C	0.019178	-0.443408	0.182420
C141	C	0.018807	-0.469488	0.234841
C142	C	0.015106	-0.523226	0.261717
C143	C	0.019180	-0.364683	0.182425
C144	C	-0.234799	-0.215977	0.234834
C145	C	-0.261678	-0.246545	0.261708
C146	C	-0.182376	-0.241940	0.261172
C147	C	-0.234798	-0.137119	0.155964
C148	C	-0.261676	-0.083372	0.098509
C149	C	-0.182375	-0.163202	0.182421
C150	C	-0.155921	-0.215981	0.234841
C151	C	-0.098464	-0.246554	0.261721
C152	C	-0.261134	-0.163198	0.182415
C153	C	-0.039199	0.007461	-0.503869
C154	C	-0.039568	-0.018614	-0.530207
C155	C	-0.039203	-0.071390	-0.424995
C156	C	-0.039572	-0.097344	-0.451452
C157	C	-0.039201	-0.071385	-0.503874
C158	C	-0.039570	-0.018618	-0.451448
C159	C	-0.024912	0.183325	-0.552025
C160	C	-0.020873	0.233135	-0.576849
C161	C	-0.018844	0.258123	-0.628796
C162	C	-0.014454	0.312124	-0.655711
C163	C	-0.020859	0.233301	-0.655918
C164	C	-0.024906	0.183500	-0.631097
C165	C	-0.026932	0.158512	-0.579148
C166	C	-0.024920	-0.133799	-0.631644
C167	C	-0.020882	-0.162650	-0.656647
C168	C	-0.018855	-0.216605	-0.629699
C169	C	-0.014470	-0.247897	-0.656801
C170	C	-0.020872	-0.241704	-0.577746
C171	C	-0.024919	-0.212847	-0.552747
C172	C	-0.026939	-0.158893	-0.579702
C173	C	-0.024929	-0.133823	-0.234783
C174	C	-0.020887	-0.162684	-0.180915
C175	C	-0.018862	-0.216639	-0.153896
C176	C	-0.014477	-0.247936	-0.095488
C177	C	-0.020875	-0.241733	-0.180745
C178	C	-0.024915	-0.212872	-0.234610
C179	C	-0.026947	-0.158912	-0.261627
C180	C	-0.031316	0.104507	-0.552235
C181	C	-0.034811	0.061462	-0.530782
C182	C	-0.034820	-0.102682	-0.366590
C183	C	-0.031328	-0.127624	-0.320035
C184	C	-0.034816	-0.102672	-0.530980
C185	C	-0.031322	-0.127610	-0.552588
O186	O	-0.012940	-0.294936	0.371303
O187	O	0.012923	-0.384099	0.307961
O188	O	-0.076273	-0.294935	0.307950
O189	O	0.076257	-0.384100	0.371315
O190	O	-0.076265	-0.222515	0.235508
O191	O	0.012932	-0.311679	0.235520
O192	O	-0.012931	-0.222517	0.298862
Cu193	Cu	0.000001	-0.260485	0.260576
Cu194	Cu	-0.000009	-0.346130	0.346247
O195	O	0.076266	-0.311681	0.298873
C196	C	-0.574962	0.464558	-0.503864
C197	C	-0.548506	0.490518	-0.530195
C198	C	-0.496085	0.385697	-0.424987
C199	C	-0.469749	0.411776	-0.451438
C200	C	-0.496084	0.464555	-0.503857
C201	C	-0.548507	0.411779	-0.451444
C202	C	-0.765173	0.526994	-0.552039
C203	C	-0.819039	0.555852	-0.576867
C204	C	-0.846061	0.609814	-0.628812
C205	C	-0.904469	0.641114	-0.655732
C206	C	-0.819211	0.634913	-0.655928
C207	C	-0.765348	0.606050	-0.631102
C208	C	-0.738329	0.552088	-0.579155
C209	C	-0.447916	0.606561	-0.631604
C210	C	-0.423088	0.635592	-0.656601
C211	C	-0.371143	0.610674	-0.629648
C212	C	-0.344222	0.642150	-0.656742
C213	C	-0.344023	0.556716	-0.577696
C214	C	-0.368845	0.527681	-0.552704
C215	C	-0.420798	0.552613	-0.579664
C216	C	-0.447920	0.209802	-0.234786
C217	C	-0.423096	0.159988	-0.180919
C218	C	-0.371148	0.134996	-0.153895
C219	C	-0.344230	0.080987	-0.095489
C220	C	-0.344029	0.159823	-0.180737
C221	C	-0.368856	0.209637	-0.234602
C222	C	-0.420801	0.234620	-0.261624
C223	C	-0.679923	0.520797	-0.552238
C224	C	-0.633367	0.495853	-0.530781
C225	C	-0.469169	0.331687	-0.366583
C226	C	-0.447714	0.288634	-0.320030
C227	C	-0.469167	0.496035	-0.530956
C228	C	-0.447712	0.521128	-0.552558
H229	H	-0.304205	-0.141343	-0.019747
H230	H	0.019779	-0.465234	0.161179
C231	C	-0.154135	-0.133951	-0.020071
C232	C	-0.182542	-0.073440	-0.065972
C233	C	-0.156545	-0.046493	-0.066867
H234	H	-0.119075	-0.156989	-0.020284
H235	H	-0.152299	-0.133671	0.010671
H236	H	-0.184372	-0.073723	-0.096706
H237	H	-0.217601	-0.050386	-0.065768
H238	H	-0.154709	-0.046213	-0.036125
H239	H	-0.121486	-0.069536	-0.067079
H240	H	-0.175818	-0.005432	-0.098008
C241	C	-0.504286	-0.763107	0.027278
C242	C	-0.504118	-0.767947	0.075120
C243	C	-0.556033	-0.742957	0.077243
H244	H	-0.516936	-0.784989	0.025534
H245	H	-0.526967	-0.720981	-0.001989
H246	H	-0.481445	-0.810065	0.104379
H247	H	-0.491478	-0.746063	0.076875
H248	H	-0.578714	-0.700831	0.047976
H249	H	-0.568678	-0.764841	0.075497
H250	H	-0.555926	-0.746232	0.109701
H251	H	-0.427024	-0.139478	-0.430231
C252	C	-0.018699	0.260183	-0.547500
C253	C	-0.014735	0.309157	-0.580361
C254	C	-0.012737	0.334093	-0.553344
H255	H	0.011494	0.229370	-0.515845
H256	H	-0.050233	0.274702	-0.538543
H257	H	0.016795	0.294637	-0.589310
H258	H	-0.044924	0.339983	-0.612015
H259	H	-0.044271	0.348611	-0.544388
H260	H	0.017455	0.303275	-0.521691
H261	H	-0.010053	0.367327	-0.575639
H262	H	-0.026563	0.162985	-0.509727
C263	C	-0.018619	0.260493	-0.712300
C264	C	-0.014629	0.309409	-0.728230
C265	C	-0.012554	0.334465	-0.780163
H266	H	-0.050124	0.275096	-0.735880
H267	H	0.011597	0.229702	-0.713141
H268	H	-0.044841	0.340194	-0.727393
H269	H	0.016876	0.294822	-0.704664
H270	H	0.017662	0.303674	-0.781004
H271	H	-0.044060	0.349064	-0.803738
H272	H	-0.009841	0.367653	-0.790976
H273	H	-0.161141	-0.284407	0.304244
H274	H	0.019760	-0.465234	0.304248
C275	C	-0.504348	0.237053	-0.264168
C276	C	-0.537637	0.299111	-0.283044
C277	C	-0.589619	0.324240	-0.310122
H278	H	-0.517020	0.215213	-0.240521
H279	H	-0.504357	0.233853	-0.293388
H280	H	-0.537630	0.302307	-0.253828
H281	H	-0.524981	0.320967	-0.306698
H282	H	-0.589628	0.321040	-0.339342
H283	H	-0.602286	0.302396	-0.286471
H284	H	-0.612211	0.366350	-0.322936
H285	H	-0.019230	-0.285631	-0.555806
C286	C	-0.318525	-0.307962	0.154084
C287	C	-0.321355	-0.259739	0.151483
C288	C	-0.374212	-0.207496	0.125398
H289	H	-0.340473	-0.317080	0.173241
H290	H	-0.330511	-0.296110	0.118990
H291	H	-0.309375	-0.271590	0.186571
H292	H	-0.299418	-0.250603	0.132323
H293	H	-0.386198	-0.195644	0.090304
H294	H	-0.396155	-0.216620	0.144557
H295	H	-0.376138	-0.174769	0.123626
C296	C	-0.318600	-0.134040	0.154149
C297	C	-0.350760	-0.116540	0.182527
C298	C	-0.403699	-0.089669	0.156500
H299	H	-0.320712	-0.162930	0.152308
H300	H	-0.330588	-0.098783	0.119084
H301	H	-0.338776	-0.151792	0.217583
H302	H	-0.348664	-0.087643	0.184370
H303	H	-0.415686	-0.054411	0.121434
H304	H	-0.405805	-0.118562	0.154660
H305	H	-0.425526	-0.077786	0.175747
C306	C	0.019888	-0.308005	0.154138
C307	C	-0.025513	-0.259771	0.151534
C308	C	-0.024878	-0.207554	0.125484
H309	H	0.020031	-0.296133	0.119048
H310	H	0.050972	-0.317174	0.173332
H311	H	-0.056590	-0.250602	0.132339
H312	H	-0.025666	-0.271623	0.186616
H313	H	0.006207	-0.216723	0.144679
H314	H	-0.024733	-0.195688	0.090397
H315	H	-0.055679	-0.174823	0.123718
H316	H	-0.570092	0.003538	-0.430229
C317	C	-0.452462	-0.305885	0.018711
C318	C	-0.419609	-0.285785	0.014720
C319	C	-0.446644	-0.231810	0.012669
H320	H	-0.461435	-0.313884	0.050225
H321	H	-0.484113	-0.274900	-0.011497
H322	H	-0.387969	-0.316762	0.044925
H323	H	-0.410636	-0.277772	-0.016793
H324	H	-0.478294	-0.200826	-0.017539
H325	H	-0.455615	-0.239815	0.044185
H326	H	-0.424359	-0.218162	0.009957
H327	H	-0.161136	-0.141377	0.161182
H328	H	-0.161134	-0.465220	0.304234
C329	C	-0.412308	-0.617319	0.040461
C330	C	-0.394799	-0.583175	0.040713
C331	C	-0.341885	-0.609915	0.041490
H332	H	-0.410199	-0.617554	0.009703
H333	H	-0.390396	-0.658386	0.071584
H334	H	-0.416706	-0.542120	0.009593
H335	H	-0.396895	-0.582938	0.071469
H336	H	-0.319972	-0.650981	0.072613
H337	H	-0.339781	-0.610149	0.010732
H338	H	-0.329997	-0.586755	0.041666
C339	C	-0.040410	-0.153933	-0.423062
C340	C	-0.040668	-0.171183	-0.371399
C341	C	-0.041456	-0.223297	-0.345238
H342	H	-0.009655	-0.186793	-0.421186
H343	H	-0.071535	-0.144718	-0.442235
H344	H	-0.009547	-0.180402	-0.352231
H345	H	-0.071422	-0.138340	-0.373258
H346	H	-0.072580	-0.214082	-0.364410
H347	H	-0.010700	-0.256152	-0.343366
H348	H	-0.041636	-0.235005	-0.310183
H349	H	-0.026547	0.163294	-0.653183
H350	H	-0.743523	0.163324	-0.653612
C351	C	-0.287253	-0.300633	-0.151888
C352	C	-0.268992	-0.316230	-0.187083
C353	C	-0.217021	-0.370153	-0.160347
H354	H	-0.287136	-0.333168	-0.122703
H355	H	-0.264500	-0.294091	-0.139070
H356	H	-0.291739	-0.322775	-0.199893
H357	H	-0.269097	-0.283710	-0.216269
H358	H	-0.194268	-0.363611	-0.147529
H359	H	-0.216908	-0.402683	-0.131163
H360	H	-0.204622	-0.380739	-0.184225
H361	H	-0.346709	-0.233340	-0.256801
C362	C	-0.154130	-0.472489	0.154060
C363	C	-0.182498	-0.489993	0.139396
C364	C	-0.156491	-0.516794	0.113283
H365	H	-0.119057	-0.507735	0.177297
H366	H	-0.152328	-0.443542	0.123048
H367	H	-0.184294	-0.518938	0.170404
H368	H	-0.217570	-0.454758	0.116153
H369	H	-0.154689	-0.487847	0.082271
H370	H	-0.121419	-0.552037	0.136523
H371	H	-0.175738	-0.528668	0.103326
H372	H	-0.490220	-0.373215	0.026628
H373	H	-0.569746	0.532985	-0.573266
H374	H	-0.040160	0.003216	-0.573279
H375	H	-0.040120	0.003178	-0.430195
H376	H	-0.026568	-0.089866	-0.653596
H377	H	-0.445183	0.139782	-0.159066
H378	H	-0.569747	-0.610106	0.040228
C379	C	-0.018737	-0.135326	-0.151868
C380	C	-0.021395	-0.081887	-0.187062
C381	C	-0.019427	-0.056660	-0.160326
H382	H	0.013689	-0.164384	-0.122681
H383	H	-0.048036	-0.125394	-0.139051
H384	H	0.007901	-0.091820	-0.199871
H385	H	-0.053819	-0.052815	-0.216249
H386	H	-0.048726	-0.046729	-0.147509
H387	H	0.013000	-0.085723	-0.131140
H388	H	-0.021235	-0.020396	-0.184202
H389	H	-0.026581	-0.089888	-0.256777
C390	C	-0.735916	-0.366395	0.027230
C391	C	-0.770947	-0.312955	0.024626
C392	C	-0.744012	-0.287968	0.026707
H393	H	-0.723062	-0.356508	-0.002039
H394	H	-0.706737	-0.395583	0.059684
H395	H	-0.800117	-0.283774	-0.007825
H396	H	-0.783802	-0.322826	0.053892
H397	H	-0.714833	-0.317156	0.059161
H398	H	-0.731160	-0.278085	-0.002563
H399	H	-0.767776	-0.251710	0.024945
C400	C	-0.848181	-0.305980	0.018861
C401	C	-0.867030	-0.315793	0.062075
C402	C	-0.893877	-0.261911	0.060170
H403	H	-0.877397	-0.273468	-0.013545
H404	H	-0.824385	-0.295292	0.020670
H405	H	-0.890824	-0.326474	0.060261
H406	H	-0.837824	-0.348296	0.094487
H407	H	-0.870081	-0.251223	0.061979
H408	H	-0.923090	-0.229403	0.027763
H409	H	-0.906664	-0.268564	0.089492
H410	H	-0.445174	0.679524	-0.698898
C411	C	-0.576741	-0.452914	0.040397
C412	C	-0.542333	-0.435659	0.040630
C413	C	-0.568324	-0.383486	0.041328
H414	H	-0.586731	-0.462047	0.071491
H415	H	-0.607721	-0.420088	0.009608
H416	H	-0.511363	-0.468479	0.071415
H417	H	-0.532341	-0.426514	0.009538
H418	H	-0.599304	-0.350659	0.010540
H419	H	-0.578313	-0.392624	0.072423
H420	H	-0.544984	-0.371768	0.041482
H421	H	-0.019237	-0.142213	-0.698946
C422	C	-0.154021	-0.298463	-0.020027
C423	C	-0.139361	-0.284734	-0.065909
C424	C	-0.113234	-0.336823	-0.066732
H425	H	-0.177248	-0.310305	-0.020219
H426	H	-0.123006	-0.331267	0.010729
H427	H	-0.170371	-0.251940	-0.096657
H428	H	-0.116128	-0.272899	-0.065727
H429	H	-0.082219	-0.369627	-0.035976
H430	H	-0.136464	-0.348661	-0.066922
H431	H	-0.103279	-0.327517	-0.097860
H432	H	-0.026564	-0.233284	-0.510448
C433	C	-0.287624	-0.470321	0.018743
C434	C	-0.271677	-0.433366	0.014789
C435	C	-0.219714	-0.458209	0.012796
H436	H	-0.286722	-0.471777	-0.011451
H437	H	-0.264091	-0.510786	0.050277
H438	H	-0.295204	-0.392912	-0.016741
H439	H	-0.272566	-0.431907	0.044980
H440	H	-0.196181	-0.498674	0.044329
H441	H	-0.218817	-0.459664	-0.017399
H442	H	-0.208886	-0.433143	0.010117
C443	C	-0.027117	-0.240196	-0.263672
C444	C	-0.024491	-0.293616	-0.228486
C445	C	-0.026521	-0.318803	-0.255239
H446	H	0.002161	-0.250148	-0.276505
H447	H	-0.059563	-0.211093	-0.292852
H448	H	0.007951	-0.322713	-0.199315
H449	H	-0.053767	-0.283680	-0.215651
H450	H	-0.058966	-0.289699	-0.284419
H451	H	0.002758	-0.328751	-0.268071
H452	H	-0.024744	-0.355047	-0.231371
H453	H	-0.743179	0.483055	-0.509743
H454	H	-0.569753	0.389964	-0.430206
C455	C	-0.287594	0.132691	-0.151487
C456	C	-0.253055	0.111324	-0.176612
C457	C	-0.201068	0.086334	-0.149688
H458	H	-0.276616	0.099440	-0.115564
H459	H	-0.286736	0.163491	-0.152113
H460	H	-0.253912	0.080526	-0.175981
H461	H	-0.264017	0.144563	-0.212534
H462	H	-0.200209	0.117135	-0.150313
H463	H	-0.190095	0.053086	-0.113765
H464	H	-0.177628	0.071839	-0.166734
C465	C	-0.018709	-0.300293	-0.151330
C466	C	-0.014759	-0.320188	-0.098416
C467	C	-0.012773	-0.374122	-0.071308
H468	H	0.011484	-0.331381	-0.151883
H469	H	-0.050243	-0.292290	-0.168279
H470	H	0.016772	-0.328194	-0.081471
H471	H	-0.044949	-0.289116	-0.097847
H472	H	-0.044308	-0.366119	-0.088257
H473	H	0.017420	-0.405205	-0.071865
H474	H	-0.010098	-0.387625	-0.035404
H475	H	-0.426677	0.389946	-0.430194
H476	H	-0.840896	0.535415	-0.554785
H477	H	-0.841210	-0.463642	0.019294
C478	C	-0.339300	-0.240187	-0.495660
C479	C	-0.288448	-0.293633	-0.477230
C480	C	-0.261382	-0.318638	-0.425288
H481	H	-0.358688	-0.250071	-0.472929
H482	H	-0.336038	-0.211011	-0.495663
H483	H	-0.291712	-0.322804	-0.477223
H484	H	-0.269046	-0.283766	-0.499947
H485	H	-0.258120	-0.289461	-0.425291
H486	H	-0.280774	-0.328518	-0.402561
H487	H	-0.226874	-0.354900	-0.412778
H488	H	-0.346767	-0.770191	0.026621
H489	H	-0.743490	0.626486	-0.653184
C490	C	-0.736296	-0.530934	0.027139
C491	C	-0.771489	-0.546536	0.024487
C492	C	-0.744752	-0.600461	0.026461
H493	H	-0.707110	-0.563466	0.059567
H494	H	-0.723479	-0.524392	-0.002160
H495	H	-0.784298	-0.553081	0.053783
H496	H	-0.800675	-0.514019	-0.007938
H497	H	-0.731935	-0.593920	-0.002837
H498	H	-0.715567	-0.632989	0.058890
H499	H	-0.768628	-0.611051	0.024657
C500	C	-0.287223	-0.300588	-0.547503
C501	C	-0.253834	-0.290764	-0.576177
C502	C	-0.201836	-0.344642	-0.549133
H503	H	-0.287103	-0.333101	-0.544196
H504	H	-0.274715	-0.311281	-0.513015
H505	H	-0.266339	-0.280080	-0.610656
H506	H	-0.253938	-0.258261	-0.579485
H507	H	-0.189328	-0.355334	-0.514645
H508	H	-0.201721	-0.377151	-0.545827
H509	H	-0.179174	-0.337982	-0.568582
C510	C	-0.848993	0.260830	-0.548576
C511	C	-0.901915	0.309750	-0.581581
C512	C	-0.929047	0.334810	-0.554713
H513	H	-0.832090	0.275430	-0.539608
H514	H	-0.848409	0.230042	-0.516931
H515	H	-0.902496	0.340531	-0.613216
H516	H	-0.918832	0.295165	-0.590550
H517	H	-0.928464	0.304023	-0.523068
H518	H	-0.912141	0.349407	-0.545747
H519	H	-0.964959	0.368001	-0.577101
C520	C	-0.339317	-0.530953	0.027174
C521	C	-0.288507	-0.546571	0.024549
C522	C	-0.261273	-0.600542	0.026594
H523	H	-0.358635	-0.524477	-0.002100
H524	H	-0.335984	-0.563451	0.059624
H525	H	-0.291842	-0.514081	-0.007898
H526	H	-0.269175	-0.553060	0.053820
H527	H	-0.257940	-0.633040	0.059044
H528	H	-0.280595	-0.594060	-0.002680
H529	H	-0.226794	-0.611148	0.024818
C530	C	-0.848649	0.693523	-0.712307
C531	C	-0.901573	0.713440	-0.728241
C532	C	-0.928708	0.767438	-0.780171
H533	H	-0.831751	0.685606	-0.735889
H534	H	-0.848061	0.724564	-0.713140
H535	H	-0.902158	0.682406	-0.727412
H536	H	-0.918485	0.721370	-0.704673
H537	H	-0.928121	0.798479	-0.781004
H538	H	-0.911807	0.759515	-0.803748
H539	H	-0.964621	0.780962	-0.790987
H540	H	-0.490215	0.626864	-0.653559
H541	H	-0.301723	0.536422	-0.555753
C542	C	-0.451752	-0.136279	-0.712329
C543	C	-0.418749	-0.173257	-0.728260
C544	C	-0.445619	-0.148465	-0.780195
H545	H	-0.460723	-0.095815	-0.735906
H546	H	-0.483395	-0.134852	-0.713172
H547	H	-0.387116	-0.174677	-0.727421
H548	H	-0.409776	-0.213722	-0.704697
H549	H	-0.477262	-0.147038	-0.781038
H550	H	-0.454589	-0.108001	-0.803768
H551	H	-0.423232	-0.173554	-0.791009
H552	H	-0.346761	0.483749	-0.510407
H553	H	-0.346770	0.229846	-0.256454
H554	H	-0.301733	-0.860548	0.019286
C555	C	-0.452568	-0.866992	0.018850
C556	C	-0.465736	-0.888272	0.065359
C557	C	-0.492893	-0.913096	0.063440
H558	H	-0.430389	-0.900260	0.016180
H559	H	-0.484244	-0.836121	-0.011329
H560	H	-0.434065	-0.919141	0.095530
H561	H	-0.487920	-0.855016	0.068038
H562	H	-0.524570	-0.882225	0.033260
H563	H	-0.470712	-0.946362	0.060768
H564	H	-0.501836	-0.927533	0.094993
C565	C	-0.577077	0.010743	-0.587665
C566	C	-0.542671	-0.023406	-0.605170
C567	C	-0.568646	0.003326	-0.658082
H568	H	-0.587038	0.051804	-0.609593
H569	H	-0.608073	0.010970	-0.589752
H570	H	-0.511684	-0.023627	-0.603087
H571	H	-0.532707	-0.064466	-0.583257
H572	H	-0.599642	0.003553	-0.660169
H573	H	-0.578607	0.044386	-0.680005
H574	H	-0.545307	-0.019843	-0.669964
H575	H	-0.489864	-0.090259	-0.653209
C576	C	-0.848447	0.260309	-0.713052
C577	C	-0.813261	0.227755	-0.731298
C578	C	-0.840018	0.252450	-0.783239
H579	H	-0.861290	0.302409	-0.735853
H580	H	-0.877621	0.257032	-0.713105
H581	H	-0.784097	0.231037	-0.731249
H582	H	-0.800417	0.185655	-0.708512
H583	H	-0.869191	0.249173	-0.783292
H584	H	-0.852859	0.294549	-0.806035
H585	H	-0.816150	0.230362	-0.795624
H586	H	-0.743837	0.163627	-0.510462
H587	H	-0.444519	-0.142934	-0.158758
C588	C	-0.503963	-0.075609	-0.263690
C589	C	-0.522212	-0.059990	-0.228504
C590	C	-0.574156	-0.006021	-0.255260
H591	H	-0.526758	-0.082087	-0.276528
H592	H	-0.504024	-0.043110	-0.292868
H593	H	-0.522155	-0.092481	-0.199337
H594	H	-0.499432	-0.053500	-0.215665
H595	H	-0.574217	0.026478	-0.284437
H596	H	-0.596946	-0.012504	-0.268096
H597	H	-0.586543	0.004587	-0.231391
