data_functionalizedCrystal
_audit_creation_method	'MofGen! by Chris Wilmer'
_symmetry_space_group_name_H-M	'P1'
_symmetry_Int_Tables_number	1
_symmetry_cell_setting	triclinic
loop_
_symmetry_equiv_pos_as_xyz
  x,y,z
_cell_length_a	10.654550
_cell_length_b	16.992695
_cell_length_c	9.130313
_cell_angle_alpha	89.995176
_cell_angle_beta	89.999724
_cell_angle_gamma	87.576577
loop_
_atom_site_label
_atom_site_type_symbol
_atom_site_fract_x
_atom_site_fract_y
_atom_site_fract_z
O1	O	1.677362	0.110190	-0.121691
O2	O	1.312790	0.120688	-0.121718
O3	O	1.493615	0.001288	-0.121693
O4	O	1.496538	0.229590	-0.121716
O5	O	1.493601	0.001285	0.121906
O6	O	1.312777	0.120685	0.121881
O7	O	1.677348	0.110186	0.121908
Cu8	Cu	1.495061	0.115435	0.144137
Cu9	Cu	1.495077	0.115439	-0.143947
O10	O	1.496524	0.229586	0.121883
C11	C	1.265919	0.119916	0.000078
C12	C	1.126277	0.117609	0.000068
C13	C	1.052866	0.187910	0.000065
C14	C	0.921658	0.185738	0.000091
C15	C	0.937282	0.042959	0.000116
C16	C	1.068488	0.045132	0.000101
C17	C	1.489848	-0.027946	0.000106
C18	C	1.478628	-0.115051	0.000105
C19	C	1.586879	-0.164703	0.000114
C20	C	1.576330	-0.246547	0.000099
C21	C	1.457529	-0.278738	0.000086
C22	C	1.349270	-0.229080	0.000072
C23	C	1.359820	-0.147237	0.000076
C24	C	1.413802	-0.522573	0.000062
C25	C	1.403260	-0.604422	0.000062
C26	C	1.630321	-0.621884	0.000087
C27	C	1.640861	-0.540039	0.000100
C28	C	1.532602	-0.490388	0.000079
N29	N	1.446743	-0.362395	0.000075
N30	N	1.543389	-0.406733	0.000079
C31	C	1.724220	0.110959	0.000108
C32	C	1.863862	0.113265	0.000109
C33	C	1.500291	0.258821	0.000080
C34	C	1.511510	0.345926	0.000072
N35	N	1.495059	0.115432	0.346759
N36	N	1.495089	0.115437	-0.346570
C37	C	1.575159	0.062584	0.423422
C38	C	1.575171	0.062584	0.576759
C39	C	1.414980	0.168287	0.576756
C40	C	1.414963	0.168282	0.423422
H41	H	0.890215	-0.016050	0.000152
C42	C	1.149245	-0.032203	0.000097
H43	H	1.096039	-0.075679	0.000097
H44	H	1.200762	-0.034323	0.085039
H45	H	1.200744	-0.034319	-0.084868
C46	C	1.717558	-0.129297	0.000134
H47	H	1.708342	-0.073443	0.000150
H48	H	1.762484	-0.146293	-0.084809
H49	H	1.762466	-0.146304	0.085098
C50	C	1.116436	0.267629	0.000040
H51	H	1.205092	0.258857	0.000018
H52	H	1.091731	0.296606	0.084986
H53	H	1.091714	0.296603	-0.084921
C54	C	1.695406	-0.301161	0.000125
H55	H	1.767670	-0.270268	0.000155
H56	H	1.696028	-0.333448	-0.084823
H57	H	1.695995	-0.333453	0.085084
H58	H	1.349730	0.211318	0.360999
H59	H	1.737601	-0.513836	0.000112
H60	H	1.718458	-0.662318	0.000102
C61	C	1.272573	-0.639830	0.000022
H62	H	1.209608	-0.598539	-0.000008
H63	H	1.263720	-0.671400	0.084965
H64	H	1.263764	-0.671389	-0.084942
H65	H	1.325649	-0.482157	0.000045
H66	H	0.861892	0.242984	0.000091
C67	C	1.218592	-0.264487	0.000061
H68	H	1.227810	-0.320341	0.000076
H69	H	1.173675	-0.247483	-0.084889
H70	H	1.173674	-0.247489	0.085018
C71	C	1.663286	0.004455	0.661082
H72	H	1.710989	-0.027015	0.593459
H73	H	1.614825	-0.028468	0.720914
H74	H	1.718428	0.032989	0.720881
H75	H	1.271671	-0.106811	0.000068
C76	C	1.663249	0.004445	0.339097
H77	H	1.710945	-0.027034	0.406722
H78	H	1.718378	0.032965	0.279262
H79	H	1.614758	-0.028481	0.279302
C80	C	1.326894	0.226425	0.661090
H81	H	1.338385	0.218865	0.763391
H82	H	1.242178	0.217419	0.635982
H83	H	1.345797	0.278865	0.635939
