data_functionalizedCrystal
_audit_creation_method	'MofGen! by Chris Wilmer'
_symmetry_space_group_name_H-M	'P1'
_symmetry_Int_Tables_number	1
_symmetry_cell_setting	triclinic
loop_
_symmetry_equiv_pos_as_xyz
  x,y,z
_cell_length_a	13.339070
_cell_length_b	14.971486
_cell_length_c	14.048226
_cell_angle_alpha	90.000107
_cell_angle_beta	90.000732
_cell_angle_gamma	80.378288
loop_
_atom_site_label
_atom_site_type_symbol
_atom_site_fract_x
_atom_site_fract_y
_atom_site_fract_z
O1	O	0.131869	-1.219547	0.079045
O2	O	0.147661	-0.963051	0.079070
O3	O	-0.007534	-1.061862	0.079057
O4	O	0.287064	-1.120737	0.079057
O5	O	-0.007535	-1.061849	-0.079264
O6	O	0.147660	-0.963038	-0.079251
O7	O	0.131868	-1.219534	-0.079276
Zn8	Zn	0.139763	-1.091284	-0.104401
Zn9	Zn	0.139765	-1.091302	0.104194
O10	O	0.287063	-1.120723	-0.079264
C11	C	0.146954	-0.929545	-0.000087
C12	C	0.144838	-0.829725	-0.000077
C13	C	-0.045236	-1.051910	-0.000101
C14	C	-0.157574	-1.022266	-0.000094
C15	C	0.132575	-1.253040	-0.000117
C16	C	0.134691	-1.352860	-0.000121
C17	C	-0.522088	-1.252762	-0.000117
C18	C	-0.416541	-1.280617	-0.000129
C19	C	-0.351794	-1.216032	-0.000120
C20	C	-0.392604	-1.123587	-0.000100
C21	C	-0.498161	-1.095729	-0.000096
C22	C	-0.327867	-1.058999	-0.000098
C23	C	-0.368677	-0.966554	-0.000078
C24	C	-0.474224	-0.938701	-0.000073
C25	C	-0.538970	-1.003286	-0.000082
C26	C	-0.222311	-1.086856	-0.000102
C27	C	-0.198383	-0.929823	-0.000081
C28	C	-0.303930	-0.901968	-0.000069
C29	C	0.324765	-1.130675	-0.000103
C30	C	0.437102	-1.160319	-0.000104
N31	N	0.139762	-1.091278	-0.246761
C32	C	0.236011	-0.795041	-0.000079
C33	C	0.234016	-0.701248	-0.000093
C34	C	0.140847	-0.642141	-0.000099
C35	C	0.049667	-0.676832	-0.000101
C36	C	0.051663	-0.770623	-0.000093
C37	C	0.045514	-0.481342	-0.000114
C38	C	0.043518	-0.387545	-0.000119
C39	C	0.227867	-0.411968	-0.000114
C40	C	0.229863	-0.505759	-0.000106
C41	C	0.138682	-0.540442	-0.000106
C42	C	0.201239	-1.160780	-0.296581
C43	C	0.201235	-1.160790	-0.396239
C44	C	0.139758	-1.091295	-0.446075
C45	C	0.078273	-1.021789	-0.396249
C46	C	0.078273	-1.021783	-0.296593
C47	C	0.078280	-1.021806	-0.603963
C48	C	0.078281	-1.021811	-0.703625
C49	C	0.201242	-1.160813	-0.703609
C50	C	0.201242	-1.160807	-0.603953
C51	C	0.139758	-1.091300	-0.554133
N52	N	0.139759	-1.091312	0.246555
H53	H	-0.189094	-1.162125	-0.000119
Br54	Br	-0.005179	-0.927465	-0.228979
H55	H	-0.507447	-0.863426	-0.000064
H56	H	0.251294	-1.217387	-0.436797
H57	H	-0.265854	-1.238717	-0.000130
Br58	Br	-0.609960	-1.340403	-0.000152
H59	H	0.251308	-1.217367	-0.256011
H60	H	-0.383322	-1.355886	-0.000147
Br61	Br	-0.682219	-0.965486	0.000062
H62	H	0.302110	-0.383724	-0.000118
H63	H	0.251307	-1.217393	-0.563379
Br64	Br	-0.359327	-0.776510	-0.000036
Br65	Br	0.284683	-1.255145	-0.771219
H66	H	0.311879	-0.843160	-0.000073
Br67	Br	0.356307	-0.585975	-0.000084
Br68	Br	-0.005157	-0.927497	-0.771261
Br69	Br	-0.005183	-0.927487	-0.536351
H70	H	-0.028735	-0.509578	-0.000115
H71	H	0.028212	-0.965208	-0.436833
Br72	Br	-0.082926	-0.307329	-0.000159
H73	H	-0.145666	-0.877232	-0.000078
Br74	Br	0.357756	-0.654180	-0.000092
Br75	Br	-0.076778	-0.596617	-0.000118
Br76	Br	-0.072076	-0.817695	-0.000100
