data_functionalizedCrystal
_audit_creation_method	'MofGen! by Chris Wilmer'
_symmetry_space_group_name_H-M	'P1'
_symmetry_Int_Tables_number	1
_symmetry_cell_setting	triclinic
loop_
_symmetry_equiv_pos_as_xyz
  x,y,z
_cell_length_a	21.395362
_cell_length_b	15.297327
_cell_length_c	21.395355
_cell_angle_alpha	99.659679
_cell_angle_beta	89.956060
_cell_angle_gamma	99.725883
loop_
_atom_site_label
_atom_site_type_symbol
_atom_site_fract_x
_atom_site_fract_y
_atom_site_fract_z
Zn1	Zn	0.914743	-0.358918	-0.397693
Zn2	Zn	1.414743	0.141082	0.102307
Zn3	Zn	0.896524	-0.509774	-0.311034
Zn4	Zn	1.396524	-0.009774	0.188966
Zn5	Zn	0.809953	-0.358960	-0.292899
Zn6	Zn	1.309953	0.141040	0.207101
Zn7	Zn	0.791803	-0.509792	-0.415741
Zn8	Zn	1.291803	-0.009792	0.084259
O9	O	0.853256	-0.434361	-0.354342
O10	O	1.353256	0.065639	0.145658
O11	O	1.000007	-0.378904	-0.386234
O12	O	1.500007	0.121096	0.113766
O13	O	0.885011	-0.489778	-0.220951
O14	O	1.385011	0.010222	0.279049
O15	O	0.839075	-0.232697	-0.291658
O16	O	1.339075	0.267303	0.208342
O17	O	0.986621	-0.489737	-0.322566
O18	O	1.486621	0.010263	0.177434
O19	O	0.916063	-0.232666	-0.368649
O20	O	1.416063	0.267334	0.131351
O21	O	0.821408	-0.378975	-0.207628
O22	O	1.321408	0.121025	0.292372
O23	O	0.719864	-0.378993	-0.309158
O24	O	1.219864	0.121007	0.190842
O25	O	0.808140	-0.489769	-0.501023
O26	O	1.308140	0.010231	-0.001023
O27	O	0.706530	-0.489810	-0.399409
O28	O	1.206530	0.010190	0.100591
O29	O	0.898464	-0.378922	-0.487764
O30	O	1.398464	0.121078	0.012236
O31	O	0.867411	-0.636034	-0.340066
O32	O	1.367411	-0.136034	0.159934
O33	O	0.790473	-0.636048	-0.416993
O34	O	1.290473	-0.136048	0.083007
C35	C	0.690462	-0.434409	-0.354275
C36	C	1.190462	0.065591	0.145725
C37	C	0.620816	-0.434451	-0.354263
C38	C	1.120816	0.065549	0.145737
C39	C	0.581167	-0.492229	-0.401206
C40	C	1.081167	0.007771	0.098794
C41	C	0.515734	-0.492207	-0.401232
C42	C	1.015734	0.007793	0.098768
C43	C	0.489952	-0.434416	-0.354304
C44	C	0.989952	0.065584	0.145696
C45	C	0.529610	-0.376627	-0.307357
C46	C	1.029610	0.123373	0.192643
C47	C	0.595042	-0.376644	-0.307337
C48	C	1.095042	0.123356	0.192663
C49	C	0.387100	-0.427148	-0.297026
C50	C	0.887100	0.072852	0.202974
C51	C	0.321669	-0.427137	-0.297046
C52	C	0.821669	0.072863	0.202954
C53	C	0.288138	-0.434357	-0.354366
C54	C	0.788138	0.065643	0.145634
C55	C	0.320045	-0.441608	-0.411670
C56	C	0.820045	0.058392	0.088330
C57	C	0.385477	-0.441625	-0.411650
C58	C	0.885477	0.058375	0.088350
C59	C	0.419003	-0.434390	-0.354321
C60	C	0.919003	0.065610	0.145679
C61	C	0.177539	-0.492115	-0.401340
C62	C	0.677539	0.007885	0.098660
C63	C	0.112106	-0.492086	-0.401366
C64	C	0.612106	0.007914	0.098634
C65	C	0.125983	-0.376510	-0.307486
C66	C	0.625983	0.123490	0.192514
C67	C	0.191415	-0.376534	-0.307465
C68	C	0.691415	0.123466	0.192535
C69	C	0.217189	-0.434341	-0.354392
C70	C	0.717189	0.065659	0.145608
C71	C	0.825013	-0.668778	-0.382470
C72	C	1.325013	-0.168778	0.117530
C73	C	0.812988	-0.769063	-0.394524
C74	C	1.312988	-0.269063	0.105476
C75	C	0.939459	-1.051594	-0.268402
C76	C	1.439459	-0.551594	0.231598
C77	C	0.950757	-0.957372	-0.257073
C78	C	1.450757	-0.457372	0.242927
C79	C	0.916316	-0.910290	-0.291435
C80	C	1.416316	-0.410290	0.208565
C81	C	0.870575	-0.957440	-0.337127
C82	C	1.370575	-0.457440	0.162873
C83	C	0.859272	-1.051671	-0.348454
C84	C	1.359272	-0.551671	0.151546
C85	C	0.836129	-0.910367	-0.371487
C86	C	1.336129	-0.410367	0.128513
C87	C	0.790387	-0.957517	-0.417179
C88	C	1.290387	-0.457517	0.082821
C89	C	0.779087	-1.051739	-0.428503
C90	C	1.279087	-0.551739	0.071497
C91	C	0.813528	-1.098821	-0.394142
C92	C	1.313528	-0.598821	0.105858
C93	C	0.847431	-0.816135	-0.360160
C94	C	1.347431	-0.316135	0.139840
C95	C	0.767244	-0.816212	-0.440212
C96	C	1.267244	-0.316212	0.059788
C97	C	0.755946	-0.910435	-0.451540
C98	C	1.255946	-0.410435	0.048460
C99	C	1.016685	-0.434314	-0.354409
C100	C	1.516685	0.065686	0.145591
C101	C	1.086328	-0.434294	-0.354438
C102	C	1.586328	0.065706	0.145562
C103	C	0.853310	-0.434343	-0.517763
C104	C	1.353310	0.065657	-0.017763
C105	C	0.853333	-0.434335	-0.587403
C106	C	1.353333	0.065665	-0.087403
C107	C	0.881626	-0.199029	-0.326118
C108	C	1.381626	0.300971	0.173882
C109	C	0.893716	-0.098744	-0.314090
C110	C	1.393716	0.401256	0.185910
C111	C	0.900363	-0.376615	-0.613213
C112	C	1.400363	0.123385	-0.113213
C113	C	0.900367	-0.376576	-0.678643
C114	C	1.400367	0.123424	-0.178643
C115	C	0.853345	-0.434273	-0.718264
C116	C	1.353345	0.065727	-0.218264
C117	C	0.806307	-0.491998	-0.692447
C118	C	1.306307	0.008002	-0.192447
C119	C	0.806301	-0.492029	-0.627017
C120	C	1.306301	0.007971	-0.127017
C121	C	0.838610	-0.515514	-0.831685
C122	C	1.338610	-0.015514	-0.331685
C123	C	0.838620	-0.515485	-0.897115
C124	C	1.338620	-0.015485	-0.397115
C125	C	0.853361	-0.434178	-0.920074
C126	C	1.353361	0.065822	-0.420074
C127	C	0.868104	-0.352898	-0.877594
C128	C	1.368104	0.147102	-0.377594
C129	C	0.868098	-0.352928	-0.812164
C130	C	1.368098	0.147072	-0.312164
C131	C	0.853346	-0.434246	-0.789213
C132	C	1.353346	0.065754	-0.289213
C133	C	0.900398	-0.376411	-1.016830
C134	C	1.400398	0.123589	-0.516830
C135	C	0.900397	-0.376370	-1.082262
C136	C	1.400397	0.123630	-0.582262
C137	C	0.806339	-0.491801	-1.096065
C138	C	1.306339	0.008199	-0.596065
C139	C	0.806338	-0.491833	-1.030634
C140	C	1.306338	0.008167	-0.530634
C141	C	0.853370	-0.434139	-0.991020
C142	C	1.353370	0.065861	-0.491020
C143	C	0.853246	-0.434314	-0.191548
C144	C	1.353246	0.065686	0.308452
C145	C	0.853374	-0.434068	-0.121878
C146	C	1.353374	0.065932	0.378122
H147	H	0.223698	-0.329489	-0.269237
H148	H	0.723698	0.170511	0.230763
H149	H	0.718703	-0.948837	-0.488743
H150	H	1.218703	-0.448837	0.011257
O151	O	0.946069	-0.320169	-1.107248
O152	O	1.446069	0.179831	-0.607248
C153	C	0.943209	-0.230256	-1.080455
C154	C	1.443209	0.269744	-0.580455
H155	H	0.919344	-0.228420	-1.032707
H156	H	1.419344	0.271580	-0.532707
H157	H	0.993308	-0.189793	-1.073386
H158	H	1.493308	0.310207	-0.573386
H159	H	0.914665	-0.199850	-1.113604
H160	H	1.414665	0.300150	-0.613604
H161	H	0.768000	-0.539030	-0.606004
H162	H	1.268000	-0.039030	-0.106004
H163	H	0.967493	-1.089937	-0.240426
H164	H	1.467493	-0.589937	0.259574
H165	H	0.925517	-0.833570	-0.282208
H166	H	1.425517	-0.333570	0.217792
O167	O	0.073577	-0.548087	-0.447021
O168	O	0.573577	-0.048087	0.052979
C169	C	0.041959	-0.496801	-0.481402
C170	C	0.541959	0.003199	0.018598
H171	H	0.070268	-0.425755	-0.476826
H172	H	0.570268	0.074245	0.023174
H173	H	0.037317	-0.529543	-0.533509
H174	H	0.537317	-0.029543	-0.033509
H175	H	-0.007272	-0.493635	-0.461673
H176	H	0.492728	0.006365	0.038327
O177	O	0.419566	-0.420176	-0.241287
O178	O	0.919566	0.079824	0.258713
C179	C	0.377377	-0.413765	-0.190715
C180	C	0.877377	0.086235	0.309285
H181	H	0.327084	-0.444093	-0.209173
H182	H	0.827084	0.055907	0.290827
H183	H	0.391613	-0.452014	-0.153146
H184	H	0.891613	0.047986	0.346854
H185	H	0.379320	-0.340008	-0.168932
H186	H	0.879320	0.159992	0.331068
H187	H	0.483445	-0.539257	-0.439461
H188	H	0.983445	-0.039257	0.060539
O189	O	0.760586	-0.547752	-1.134508
O190	O	1.260586	-0.047752	-0.634508
C191	C	0.700510	-0.528079	-1.116101
C192	C	1.200510	-0.028079	-0.616101
H193	H	0.706032	-0.456012	-1.089452
H194	H	1.206032	0.043988	-0.589452
H195	H	0.668624	-0.535837	-1.160044
H196	H	1.168624	-0.035837	-0.660044
H197	H	0.678296	-0.576479	-1.083923
H198	H	1.178296	-0.076479	-0.583923
H199	H	0.295694	-0.421238	-0.250386
H200	H	0.795694	0.078762	0.249614
H201	H	0.880101	-0.286747	-0.777580
H202	H	1.380101	0.213253	-0.277580
O203	O	0.882464	-0.273832	-0.899781
O204	O	1.382464	0.226168	-0.399781
C205	C	0.895457	-0.202102	-0.848258
C206	C	1.395457	0.297898	-0.348258
H207	H	0.910443	-0.228423	-0.804791
H208	H	1.410443	0.271577	-0.304791
H209	H	0.935377	-0.149016	-0.860814
H210	H	1.435377	0.350984	-0.360814
H211	H	0.851060	-0.170863	-0.837508
H212	H	1.351060	0.329137	-0.337508
H213	H	0.104993	-0.329452	-0.269279
H214	H	0.604993	0.170548	0.230721
O215	O	0.946132	-0.320494	-0.978334
O216	O	1.446132	0.179506	-0.478334
C217	C	0.980397	-0.371871	-0.946678
C218	C	1.480397	0.128129	-0.446678
H219	H	0.975699	-0.442920	-0.974935
H220	H	1.475699	0.057080	-0.474935
H221	H	1.032551	-0.339227	-0.942055
H222	H	1.532551	0.160773	-0.442055
H223	H	0.960650	-0.375008	-0.897448
H224	H	1.460650	0.124992	-0.397448
H225	H	0.739198	-0.777879	-0.468191
H226	H	1.239198	-0.277879	0.031809
O227	O	0.802439	-1.190351	-0.405149
O228	O	1.302439	-0.690351	0.094851
C229	C	0.738614	-1.221949	-0.392768
C230	C	1.238614	-0.721949	0.107232
H231	H	0.709022	-1.167700	-0.396900
H232	H	1.209022	-0.667700	0.103100
H233	H	0.719907	-1.284981	-0.428598
H234	H	1.219907	-0.784981	0.071402
H235	H	0.735303	-1.238716	-0.342797
H236	H	1.235303	-0.738716	0.157203
O237	O	0.946075	-0.320481	-0.574819
O238	O	1.446075	0.179519	-0.074819
C239	C	0.987595	-0.269542	-0.611638
C240	C	1.487595	0.230458	-0.111638
H241	H	0.962312	-0.266407	-0.657886
H242	H	1.462312	0.233593	-0.157886
H243	H	1.002848	-0.198461	-0.584202
H244	H	1.502848	0.301539	-0.084202
H245	H	1.031199	-0.302567	-0.622597
H246	H	1.531199	0.197433	-0.122597
H247	H	0.292746	-0.447486	-0.458346
H248	H	0.792746	0.052514	0.041654
H249	H	0.508615	-0.329571	-0.269149
H250	H	1.008615	0.170429	0.230851
O251	O	0.760606	-0.547781	-1.005515
O252	O	1.260606	-0.047781	-0.505515
C253	C	0.726337	-0.496444	-0.961457
C254	C	1.226337	0.003556	-0.461457
H255	H	0.731033	-0.425376	-0.972638
H256	H	1.231033	0.074624	-0.472638
H257	H	0.674183	-0.529091	-0.964598
H258	H	1.174183	-0.029091	-0.464598
H259	H	0.746082	-0.493352	-0.911509
H260	H	1.246082	0.006648	-0.411509
H261	H	0.987999	-0.918986	-0.219871
H262	H	1.487999	-0.418986	0.280129
O263	O	0.734723	-1.097499	-0.472970
O264	O	1.234723	-0.597499	0.027030
C265	C	0.751148	-1.074394	-0.532655
C266	C	1.251148	-0.574394	-0.032655
H267	H	0.804317	-1.048412	-0.532757
H268	H	1.304317	-0.548412	-0.032757
H269	H	0.738305	-1.136348	-0.571050
H270	H	1.238305	-0.636348	-0.071050
H271	H	0.724105	-1.019740	-0.542422
H272	H	1.224105	-0.519740	-0.042422
O273	O	0.633600	-0.320424	-0.261809
O274	O	1.133600	0.179576	0.238191
C275	C	0.678534	-0.262254	-0.290552
C276	C	1.178534	0.237746	0.209448
H277	H	0.659533	-0.256777	-0.339255
H278	H	1.159533	0.243223	0.160745
H279	H	0.687649	-0.192772	-0.259631
H280	H	1.187649	0.307228	0.240369
H281	H	0.724753	-0.290173	-0.296010
H282	H	1.224753	0.209827	0.203990
H283	H	0.938664	-0.329568	-0.699661
H284	H	1.438664	0.170432	-0.199661
H285	H	0.884674	-0.777754	-0.322957
H286	H	1.384674	-0.277754	0.177043
H287	H	0.826619	-0.581669	-0.931697
H288	H	1.326619	-0.081669	-0.431697
H289	H	0.768020	-0.538973	-0.724710
H290	H	1.268020	-0.038973	-0.224710
O291	O	0.606102	-0.548404	-0.446855
O292	O	1.106102	-0.048404	0.053145
C293	C	0.557068	-0.599413	-0.488285
C294	C	1.057068	-0.099413	0.011715
H295	H	0.514893	-0.562449	-0.486076
H296	H	1.014893	-0.062449	0.013924
H297	H	0.574850	-0.609149	-0.538802
H298	H	1.074850	-0.109149	-0.038802
H299	H	0.541811	-0.667885	-0.473480
H300	H	1.041811	-0.167885	0.026520
H301	H	0.826441	-0.581708	-0.812997
H302	H	1.326441	-0.081708	-0.312997
H303	H	0.198525	-0.539180	-0.439553
H304	H	0.698525	-0.039180	0.060447
O305	O	0.416380	-0.448626	-0.467364
O306	O	0.916380	0.051374	0.032636
C307	C	0.372758	-0.455020	-0.517967
C308	C	0.872758	0.044980	-0.017967
H309	H	0.329764	-0.424662	-0.499543
H310	H	0.829764	0.075338	0.000457
H311	H	0.396332	-0.416791	-0.555526
H312	H	0.896332	0.083209	-0.055526
H313	H	0.356906	-0.528776	-0.539748
H314	H	0.856906	-0.028776	-0.039748
