data_functionalizedCrystal
_audit_creation_method	'MofGen! by Chris Wilmer'
_symmetry_space_group_name_H-M	'P1'
_symmetry_Int_Tables_number	1
_symmetry_cell_setting	triclinic
loop_
_symmetry_equiv_pos_as_xyz
  x,y,z
_cell_length_a	13.897449
_cell_length_b	16.120484
_cell_length_c	16.120297
_cell_angle_alpha	95.614431
_cell_angle_beta	92.879352
_cell_angle_gamma	92.926780
loop_
_atom_site_label
_atom_site_type_symbol
_atom_site_fract_x
_atom_site_fract_y
_atom_site_fract_z
Zn1	Zn	1.424987	-0.356719	-0.489429
Zn2	Zn	1.924987	0.143281	0.010571
Zn3	Zn	1.424865	-0.489409	-0.356740
Zn4	Zn	1.924865	0.010591	0.143260
Zn5	Zn	1.272296	-0.349658	-0.349678
Zn6	Zn	1.772296	0.150342	0.150322
Zn7	Zn	1.255025	-0.496454	-0.496465
Zn8	Zn	1.755025	0.003546	0.003535
O9	O	1.344293	-0.423060	-0.423078
O10	O	1.844293	0.076940	0.076922
O11	O	1.559951	-0.374328	-0.471839
O12	O	2.059951	0.125672	0.028161
O13	O	1.411804	-0.464968	-0.238841
O14	O	1.911804	0.035032	0.261159
O15	O	1.299829	-0.233630	-0.362316
O16	O	1.799829	0.266370	0.137684
O17	O	1.559862	-0.471814	-0.374352
O18	O	2.059862	0.028186	0.125648
O19	O	1.412011	-0.238817	-0.464991
O20	O	1.912011	0.261183	0.035009
O21	O	1.299711	-0.362293	-0.233653
O22	O	1.799711	0.137707	0.266347
O23	O	1.135024	-0.369124	-0.369139
O24	O	1.635024	0.130876	0.130861
O25	O	1.270394	-0.483821	-0.612494
O26	O	1.770394	0.016179	-0.112494
O27	O	1.122336	-0.476974	-0.476983
O28	O	1.622336	0.023026	0.023017
O29	O	1.395264	-0.381159	-0.607325
O30	O	1.895264	0.118841	-0.107325
O31	O	1.395057	-0.607309	-0.381175
O32	O	1.895057	-0.107309	0.118825
O33	O	1.270276	-0.612484	-0.483830
O34	O	1.770276	-0.112484	0.016170
C35	C	1.093681	-0.423048	-0.423059
C36	C	1.593681	0.076952	0.076941
C37	C	0.986465	-0.423064	-0.423071
C38	C	1.486465	0.076936	0.076929
C39	C	1.330804	-0.640225	-0.434051
C40	C	1.830804	-0.140225	0.065949
C41	C	1.325120	-0.733131	-0.438773
C42	C	1.825120	-0.233131	0.061227
C43	C	0.790169	-0.423068	-0.423093
C44	C	1.290169	0.076932	0.076907
C45	C	0.899402	-0.423063	-0.423078
C46	C	1.399402	0.076937	0.076922
C47	C	1.314747	-0.903231	-0.447411
C48	C	1.814747	-0.403231	0.052589
C49	C	1.374011	-0.942049	-0.398759
C50	C	1.874011	-0.442049	0.101241
C51	C	1.368240	-1.036699	-0.403566
C52	C	1.868240	-0.536699	0.096434
C53	C	1.320518	-0.808573	-0.442606
C54	C	1.820518	-0.308573	0.057394
C55	C	1.595884	-0.423073	-0.423098
C56	C	2.095884	0.076927	0.076902
C57	C	1.703097	-0.423078	-0.423107
C58	C	2.203097	0.076922	0.076893
C59	C	1.330916	-0.434063	-0.641084
C60	C	1.830916	0.065937	-0.141084
C61	C	1.325216	-0.438752	-0.733985
C62	C	1.825216	0.061248	-0.233985
C63	C	1.357860	-0.205048	-0.412081
C64	C	1.857860	0.294952	0.087919
C65	C	1.363641	-0.112144	-0.407395
C66	C	1.863641	0.387856	0.092605
C67	C	1.314774	-0.447294	-0.904076
C68	C	1.814774	0.052706	-0.404076
C69	C	1.374018	-0.398576	-0.942920
C70	C	1.874018	0.101424	-0.442920
C71	C	1.368208	-0.403329	-1.037564
C72	C	1.868208	0.096671	-0.537564
C73	C	1.320583	-0.442542	-0.809423
C74	C	1.820583	0.057458	-0.309423
C75	C	1.357678	-0.412040	-0.205917
C76	C	1.857678	0.087960	0.294083
C77	C	1.363579	-0.407115	-0.113005
C78	C	1.863579	0.092885	0.386995
H79	H	1.429083	-0.904197	-0.353497
H80	H	1.929083	-0.404197	0.146503
H81	H	1.429101	-0.353296	-0.905095
H82	H	1.929101	0.146704	-0.405095
C83	C	1.241344	-0.953840	-0.507670
C84	C	1.741344	-0.453840	-0.007670
C85	C	1.250121	-1.039014	-0.500488
C86	C	1.750121	-0.539014	-0.000488
C87	C	1.182508	-1.085670	-0.555973
C88	C	1.682508	-0.585670	-0.055973
H89	H	1.252736	-0.942490	-0.563170
H90	H	1.752736	-0.442490	-0.063170
H91	H	1.178126	-0.939069	-0.494668
H92	H	1.678126	-0.439069	0.005332
H93	H	1.313324	-1.053780	-0.513496
H94	H	1.813324	-0.553780	-0.013496
H95	H	1.238720	-1.050390	-0.445000
H96	H	1.738720	-0.550390	0.055000
H97	H	1.119290	-1.070899	-0.542971
H98	H	1.619290	-0.570899	-0.042971
H99	H	1.193906	-1.074313	-0.611470
H100	H	1.693906	-0.574313	-0.111470
H101	H	1.188448	-1.143465	-0.551102
H102	H	1.688448	-0.643465	-0.051102
H103	H	1.259695	-0.492569	-0.941898
H104	H	1.759695	0.007431	-0.441898
