data_functionalizedCrystal
_audit_creation_method	'MofGen! by Chris Wilmer'
_symmetry_space_group_name_H-M	'P1'
_symmetry_Int_Tables_number	1
_symmetry_cell_setting	triclinic
loop_
_symmetry_equiv_pos_as_xyz
  x,y,z
_cell_length_a	17.019282
_cell_length_b	17.038272
_cell_length_c	13.448316
_cell_angle_alpha	89.993314
_cell_angle_beta	93.874461
_cell_angle_gamma	87.241387
loop_
_atom_site_label
_atom_site_type_symbol
_atom_site_fract_x
_atom_site_fract_y
_atom_site_fract_z
O1	O	1.053361	0.099546	0.007540
O2	O	0.824549	0.112259	-0.012063
O3	O	0.937595	-0.007912	-0.002370
O4	O	0.940315	0.219716	-0.002153
O5	O	0.937580	-0.007919	0.163013
O6	O	0.824534	0.112251	0.153320
O7	O	1.053345	0.099538	0.172923
Cu8	Cu	0.938938	0.105894	0.178222
Cu9	Cu	0.938957	0.105903	-0.017362
O10	O	0.940299	0.219709	0.163230
C11	C	0.795120	0.111775	0.068108
C12	C	0.707453	0.110336	0.060598
C13	C	0.666264	0.109653	0.147222
C14	C	0.583892	0.108288	0.140168
C15	C	0.542712	0.107611	0.046489
C16	C	0.583908	0.108291	-0.040141
C17	C	0.666278	0.109650	-0.033086
C18	C	0.294007	0.103501	0.020678
C19	C	0.211631	0.102144	0.013629
C20	C	0.211621	0.102140	0.193940
C21	C	0.293993	0.103504	0.200986
C22	C	0.335182	0.104180	0.114356
C23	C	0.458515	0.106218	0.039277
C24	C	0.419378	0.105567	0.121569
C25	C	0.935114	-0.037042	0.080109
C26	C	0.927733	-0.123828	0.079477
C27	C	0.995493	-0.174004	0.085283
C28	C	0.988554	-0.255548	0.084679
C29	C	0.913854	-0.286915	0.078276
C30	C	0.846089	-0.236732	0.072466
C31	C	0.853029	-0.155190	0.073063
C32	C	0.889336	-0.532650	0.076162
C33	C	0.882401	-0.614199	0.075568
C34	C	1.024867	-0.633009	0.087779
C35	C	1.031800	-0.551464	0.088381
C36	C	0.964035	-0.501289	0.082567
C37	C	0.906759	-0.370266	0.077662
C38	C	0.971131	-0.417940	0.083174
C39	C	1.082774	0.100022	0.092750
C40	C	1.170441	0.101461	0.100253
C41	C	0.942781	0.248839	0.080748
C42	C	0.950161	0.335625	0.081375
N43	N	0.938931	0.105888	0.315786
N44	N	0.938970	0.105903	-0.154925
C45	C	0.989006	0.052698	0.372119
C46	C	0.989010	0.052697	0.476223
C47	C	0.938944	0.105891	0.523991
C48	C	0.888864	0.159083	0.467650
C49	C	0.888855	0.159079	0.363548
C50	C	0.888886	0.159088	0.684632
C51	C	0.888895	0.159093	0.788741
C52	C	0.989041	0.052706	0.797307
C53	C	0.989033	0.052702	0.693205
C54	C	0.938953	0.105896	0.636871
H55	H	0.327534	0.104049	-0.049863
O56	O	0.171637	0.101615	0.278115
C57	C	0.187379	0.169609	0.334318
H58	H	0.206950	0.217290	0.283244
H59	H	0.131730	0.191426	0.370449
H60	H	0.236183	0.155094	0.394709
H61	H	0.797852	-0.114336	0.068335
O62	O	1.090770	-0.681638	0.093467
C63	C	1.158188	-0.636467	0.099216
H64	H	1.142250	-0.575587	0.129167
H65	H	1.206001	-0.666611	0.151322
H66	H	1.180832	-0.630676	0.021812
O67	O	0.809878	-0.644765	0.069215
C68	C	0.801613	-0.691351	-0.017157
H69	H	0.862425	-0.711725	-0.040497
H70	H	0.766591	-0.744717	-0.000893
H71	H	0.769140	-0.655284	-0.079922
O72	O	0.823432	-0.484029	0.070564
C73	C	0.756015	-0.529203	0.064768
H74	H	0.771954	-0.590090	0.097440
H75	H	0.708197	-0.499072	0.108692
H76	H	0.733378	-0.534975	-0.016513
H77	H	0.699786	0.110211	0.223505
H78	H	0.550360	0.107720	0.210707
H79	H	0.845938	-0.395813	0.072450
O80	O	0.706373	0.110423	-0.117162
C81	C	0.749609	0.178894	-0.118869
H82	H	0.760474	0.201658	-0.039665
H83	H	0.808525	0.164629	-0.151975
H84	H	0.714791	0.225761	-0.166347
H85	H	0.848125	0.202408	0.827628
O86	O	0.773569	-0.267293	0.066117
C87	C	0.765294	-0.313875	-0.020257
H88	H	0.826103	-0.334256	-0.043603
H89	H	0.730266	-0.367237	-0.003994
H90	H	0.732822	-0.277803	-0.083018
H91	H	0.452911	0.106115	0.197842
O92	O	0.171551	0.101377	-0.077322
C93	C	0.128313	0.032908	-0.086421
H94	H	0.117431	0.010143	-0.009076
H95	H	0.069405	0.047177	-0.129625
H96	H	0.163138	-0.013959	-0.127922
H97	H	1.029804	0.009392	0.654313
O98	O	0.418587	0.105678	-0.051776
C99	C	0.434300	0.173704	-0.105262
H100	H	0.492642	0.197249	-0.074642
H101	H	0.438101	0.158543	-0.187413
H102	H	0.384863	0.220327	-0.096982
O103	O	1.037666	0.000949	0.325878
C104	C	1.081877	-0.045985	0.397930
H105	H	1.049484	-0.046845	0.469371
H106	H	1.089721	-0.108429	0.368536
H107	H	1.142175	-0.020634	0.414145
O108	O	0.543985	0.107742	-0.131197
C109	C	0.559708	0.175764	-0.184686
H110	H	0.618048	0.199307	-0.154058
H111	H	0.563518	0.160596	-0.266834
H112	H	0.510272	0.222390	-0.176420
H113	H	1.029817	0.009394	0.843181
H114	H	1.056322	-0.148472	0.090503
O115	O	1.043649	-0.387381	0.089257
C116	C	1.051941	-0.340783	0.004303
H117	H	0.991137	-0.320405	-0.029470
H118	H	1.086957	-0.287420	0.026570
H119	H	1.084433	-0.376842	-0.052888
O120	O	1.037695	0.001141	0.531064
C121	C	1.089174	0.042991	0.595650
H122	H	1.061855	0.104184	0.608896
H123	H	1.099469	0.010357	0.669743
H124	H	1.147823	0.048271	0.560541
H125	H	1.043731	-0.296399	0.089409
H126	H	0.848103	0.202402	0.638767
O127	O	1.104345	-0.520956	0.094769
C128	C	1.112602	-0.474343	0.181118
H129	H	1.070087	-0.493589	0.237343
H130	H	1.175679	-0.481734	0.215271
H131	H	1.098719	-0.410015	0.160565
H132	H	0.848094	0.202392	0.506548
H133	H	0.848078	0.202391	0.317681
H134	H	0.327517	0.104052	0.277269
