data_functionalizedCrystal
_audit_creation_method	'MofGen! by Chris Wilmer'
_symmetry_space_group_name_H-M	'P1'
_symmetry_Int_Tables_number	1
_symmetry_cell_setting	triclinic
loop_
_symmetry_equiv_pos_as_xyz
  x,y,z
_cell_length_a	12.837932
_cell_length_b	12.811415
_cell_length_c	11.295483
_cell_angle_alpha	88.701575
_cell_angle_beta	85.460332
_cell_angle_gamma	89.412215
loop_
_atom_site_label
_atom_site_type_symbol
_atom_site_fract_x
_atom_site_fract_y
_atom_site_fract_z
O1	O	1.385596	0.264774	-0.127616
O2	O	1.083631	0.251381	-0.126172
O3	O	1.241062	0.107094	-0.110584
O4	O	1.228165	0.409061	-0.143204
O5	O	1.227234	0.119745	0.086100
O6	O	1.069803	0.264032	0.070512
O7	O	1.371769	0.277426	0.069068
Cu8	Cu	1.219523	0.271884	0.087749
Cu9	Cu	1.235876	0.256922	-0.144853
O10	O	1.214337	0.421712	0.053481
C11	C	1.038042	0.253182	-0.027341
C12	C	0.922804	0.239689	-0.025885
C13	C	0.771615	0.126912	-0.013700
C14	C	0.879893	0.139583	-0.015069
C15	C	0.857430	0.327130	-0.035328
C16	C	0.749152	0.314459	-0.033959
C17	C	0.706249	0.214346	-0.023146
C18	C	0.597971	0.201675	-0.021786
C19	C	0.575509	0.389222	-0.042036
C20	C	0.683786	0.401893	-0.043405
C21	C	1.233002	0.074501	-0.008040
C22	C	1.229573	-0.041467	0.004479
C23	C	1.238189	-0.273167	-0.186445
C24	C	1.234968	-0.382129	-0.174687
C25	C	1.219903	-0.368356	0.039751
C26	C	1.223124	-0.259393	0.027993
C27	C	1.232269	-0.211803	-0.085108
C28	C	1.235497	-0.102839	-0.096865
C29	C	1.220425	-0.089067	0.117572
C30	C	1.217204	-0.198030	0.129330
C31	C	1.417357	0.275624	-0.029765
C32	C	1.532596	0.289117	-0.031229
C33	C	1.222398	0.454305	-0.049066
C34	C	1.225827	0.570272	-0.061593
N35	N	1.208029	0.282407	0.251349
N36	N	1.247378	0.246391	-0.308451
C37	C	1.330120	0.170580	0.512719
C38	C	1.321441	0.178541	0.636523
C39	C	1.181988	0.306283	0.622762
C40	C	1.190667	0.298323	0.498959
C41	C	1.264736	0.230470	0.443941
C42	C	1.273419	0.222515	0.320135
C43	C	1.133962	0.350252	0.306378
C44	C	1.125284	0.358212	0.430181
H45	H	0.892380	0.408638	-0.044121
F46	F	0.552312	0.095129	-0.010280
F47	F	1.103153	0.378483	0.681331
F48	F	0.725953	0.020366	-0.002200
F49	F	1.210146	-0.419022	0.160111
H50	H	1.209754	-0.236793	0.221414
H51	H	0.718732	0.483403	-0.052204
H52	H	0.933111	0.068384	-0.007377
H53	H	0.522275	0.460418	-0.049728
F54	F	1.245233	-0.052192	-0.217235
F55	F	1.241266	-0.447434	-0.282543
H56	H	1.333733	0.167270	0.275341
F57	F	1.046455	0.430420	0.488746
H58	H	1.245644	-0.234419	-0.278536
F59	F	1.214132	-0.023752	0.225429
F60	F	1.408958	0.098377	0.454164
F61	F	1.391029	0.114796	0.709717
F62	F	1.064379	0.413999	0.233167
