data_functionalizedCrystal
_audit_creation_method	'MofGen! by Chris Wilmer'
_symmetry_space_group_name_H-M	'P1'
_symmetry_Int_Tables_number	1
_symmetry_cell_setting	triclinic
loop_
_symmetry_equiv_pos_as_xyz
  x,y,z
_cell_length_a	12.811438
_cell_length_b	14.044220
_cell_length_c	11.295483
_cell_angle_alpha	85.531368
_cell_angle_beta	88.710055
_cell_angle_gamma	88.596945
loop_
_atom_site_label
_atom_site_type_symbol
_atom_site_fract_x
_atom_site_fract_y
_atom_site_fract_z
O1	O	1.401198	0.131094	-0.052310
O2	O	1.901198	0.631094	0.447690
O3	O	1.099051	0.142883	-0.019674
O4	O	1.599051	0.642883	0.480326
O5	O	1.245588	-0.001045	-0.035514
O6	O	1.745588	0.498955	0.464486
O7	O	1.254660	0.275022	-0.036470
O8	O	1.754660	0.775022	0.463530
O9	O	1.232716	0.011577	-0.232173
O10	O	1.732716	0.511577	0.267827
O11	O	1.086178	0.155505	-0.216333
O12	O	1.586178	0.655505	0.283667
O13	O	1.388325	0.143716	-0.248970
O14	O	1.888325	0.643716	0.251030
Cu15	Cu	1.236076	0.150763	-0.250608
Cu16	Cu	1.736076	0.650763	0.249392
Cu17	Cu	1.251300	0.135836	-0.018035
Cu18	Cu	1.751300	0.635836	0.481965
O19	O	1.241788	0.287644	-0.233129
O20	O	1.741788	0.787644	0.266871
C21	C	1.053713	0.148145	-0.113801
C22	C	1.553713	0.648145	0.386199
C23	C	0.937796	0.145010	-0.101281
C24	C	1.437796	0.645010	0.398719
C25	C	0.781431	0.133711	0.023551
C26	C	1.281431	0.633711	0.523551
C27	C	0.890345	0.136656	0.011797
C28	C	1.390345	0.636656	0.511797
C29	C	0.876326	0.150416	-0.202613
C30	C	1.376326	0.650416	0.297387
C31	C	0.767411	0.147472	-0.190859
C32	C	1.267411	0.647472	0.309141
C33	C	0.719968	0.139120	-0.077773
C34	C	1.219968	0.639120	0.422227
C35	C	0.611051	0.136182	-0.066020
C36	C	1.111051	0.636182	0.433980
C37	C	0.597034	0.149936	-0.280429
C38	C	1.097034	0.649936	0.219571
C39	C	0.705948	0.152881	-0.292183
C40	C	1.205948	0.652881	0.207817
C41	C	1.235182	-0.030092	-0.133415
C42	C	1.735182	0.469908	0.366585
C43	C	1.223338	-0.135447	-0.132137
C44	C	1.723338	0.364553	0.367863
C45	C	1.201688	-0.328345	-0.129782
C46	C	1.701688	0.171655	0.370218
C47	C	1.285684	-0.385062	-0.138851
C48	C	1.785684	0.114938	0.361149
C49	C	1.273638	-0.492397	-0.137540
C50	C	1.773638	0.007603	0.362460
C51	C	1.213733	-0.221000	-0.131092
C52	C	1.713733	0.279000	0.368908
C53	C	1.433664	0.138454	-0.154839
C54	C	1.933664	0.638454	0.345161
C55	C	1.549580	0.141589	-0.167352
C56	C	2.049580	0.641589	0.332648
C57	C	1.252195	0.316690	-0.135226
C58	C	1.752195	0.816690	0.364774
C59	C	1.264038	0.422045	-0.136496
C60	C	1.764038	0.922045	0.363504
N61	N	1.225377	0.161261	-0.414188
N62	N	1.725377	0.661261	0.085812
C63	C	1.339024	0.049706	-0.675762
C64	C	1.839024	0.549706	-0.175762
C65	C	1.330946	0.057646	-0.799552
C66	C	1.830946	0.557646	-0.299552
C67	C	1.201138	0.185077	-0.785561
C68	C	1.701138	0.685077	-0.285561
C69	C	1.209216	0.177137	-0.661770
C70	C	1.709216	0.677137	-0.161770
C71	C	1.278163	0.109450	-0.606876
C72	C	1.778163	0.609450	-0.106876
C73	C	1.286245	0.101515	-0.483083
C74	C	1.786245	0.601515	0.016917
C75	C	1.156432	0.228940	-0.469093
C76	C	1.656432	0.728940	0.030907
C77	C	1.148355	0.236880	-0.592884
C78	C	1.648355	0.736880	-0.092884
N79	N	1.262007	0.125331	0.145543
N80	N	1.762007	0.625331	0.645543
H81	H	0.742801	0.126921	0.115630
H82	H	1.242801	0.626921	0.615630
H83	H	1.366649	-0.353012	-0.147516
H84	H	1.866649	0.146988	0.352484
H85	H	1.092217	0.291987	-0.637593
H86	H	1.592217	0.791987	-0.137593
C87	C	1.092321	-0.371648	-0.117984
C88	C	1.592321	0.128352	0.382016
N89	N	1.009946	-0.404273	-0.109107
N90	N	1.509946	0.095727	0.390893
C91	C	1.362084	0.027056	-0.422701
C92	C	1.862084	0.527056	0.077299
N93	N	1.419204	-0.029031	-0.377224
N94	N	1.919204	0.470969	0.122776
C95	C	1.397896	-0.008080	-0.875323
C96	C	1.897896	0.491920	-0.375323
N97	N	1.448323	-0.057589	-0.932394
N98	N	1.948323	0.442411	-0.432394
H99	H	1.395170	-0.005401	-0.631067
H100	H	1.895170	0.494599	-0.131067
H101	H	1.106878	0.277590	-0.412992
H102	H	1.606878	0.777590	0.087008
C103	C	0.558865	0.126991	0.058376
C104	C	1.058865	0.626991	0.558376
N105	N	0.519563	0.120063	0.152074
N106	N	1.019563	0.620063	0.652074
C107	C	1.125277	0.259503	-0.845964
C108	C	1.625277	0.759503	-0.345964
N109	N	1.068129	0.315556	-0.891461
N110	N	1.568129	0.815556	-0.391461
H111	H	0.914974	0.157205	-0.294682
H112	H	1.414974	0.657205	0.205318
C113	C	0.957951	0.130705	0.123263
C114	C	1.457951	0.630705	0.623263
N115	N	1.008872	0.126222	0.207223
N116	N	1.508872	0.626222	0.707223
H117	H	0.744592	0.159677	-0.384255
H118	H	1.244592	0.659677	0.115745
H119	H	0.546979	0.154345	-0.362935
H120	H	1.046979	0.654345	0.137065
