data_functionalizedCrystal
_audit_creation_method	'MofGen! by Chris Wilmer'
_symmetry_space_group_name_H-M	'P1'
_symmetry_Int_Tables_number	1
_symmetry_cell_setting	triclinic
loop_
_symmetry_equiv_pos_as_xyz
  x,y,z
_cell_length_a	15.995292
_cell_length_b	23.532407
_cell_length_c	22.010155
_cell_angle_alpha	90.009202
_cell_angle_beta	90.016880
_cell_angle_gamma	83.158647
loop_
_atom_site_label
_atom_site_type_symbol
_atom_site_fract_x
_atom_site_fract_y
_atom_site_fract_z
O1	O	1.110420	0.073249	0.050548
O2	O	0.866563	0.082348	0.050546
O3	O	0.995845	-0.005106	0.050536
O4	O	0.981138	0.160703	0.050558
O5	O	0.995806	-0.005106	-0.050514
O6	O	0.866524	0.082348	-0.050504
O7	O	1.110382	0.073249	-0.050502
Cu8	Cu	0.988449	0.077798	-0.059730
Cu9	Cu	0.988495	0.077798	0.059774
O10	O	0.981099	0.160703	-0.050492
C11	C	0.835351	0.081978	0.000021
C12	C	0.742407	0.080867	0.000020
C13	C	0.404703	0.076786	0.000026
C14	C	0.427490	0.139908	0.000260
C15	C	0.524156	0.141108	0.000030
C16	C	0.572242	0.078811	0.000023
C17	C	0.543380	0.047253	-0.057684
C18	C	0.446596	0.046493	-0.057730
C19	C	0.446795	0.045204	0.057183
C20	C	0.543269	0.047543	0.057944
C21	C	0.666928	0.079952	0.000020
C22	C	0.310016	0.075642	0.000025
C23	C	0.995451	-0.026323	0.000009
C24	C	0.994325	-0.089545	0.000005
C25	C	1.063769	-0.488390	0.000038
C26	C	1.062723	-0.547795	0.000043
O27	O	1.127099	-0.584300	0.000066
N28	N	0.985865	-0.570706	0.000042
C29	C	0.910048	-0.534209	0.000043
O30	O	0.844578	-0.559151	0.000043
C31	C	0.911095	-0.474806	0.000042
C32	C	0.987958	-0.451898	0.000037
C33	C	1.140626	-0.465482	0.000034
C34	C	1.141672	-0.406082	0.000028
C35	C	1.065861	-0.369590	0.000027
C36	C	0.989004	-0.392498	0.000031
C37	C	0.835278	-0.438310	0.000047
C38	C	0.836332	-0.378904	0.000048
C39	C	0.913195	-0.355997	0.000042
C40	C	0.914238	-0.296606	0.000024
N41	N	0.991096	-0.273695	0.000025
C42	C	1.066908	-0.310187	0.000027
C43	C	0.907855	-0.658960	0.000044
C44	C	0.906807	-0.718361	0.000040
C45	C	1.059483	-0.731943	0.000042
C46	C	1.060530	-0.672540	0.000041
C47	C	0.984713	-0.636049	0.000045
C48	C	1.069098	-0.185443	0.000014
C49	C	1.070137	-0.126037	0.000006
C50	C	0.917461	-0.112460	0.000008
C51	C	0.916422	-0.171861	0.000013
C52	C	0.992247	-0.208351	0.000018
O53	O	0.849896	-0.260066	0.000004
O54	O	1.132367	-0.285237	0.000034
C55	C	1.141594	0.073619	0.000024
C56	C	1.234537	0.074729	0.000030
C57	C	0.981493	0.181920	0.000036
C58	C	0.982619	0.245141	0.000045
N59	N	0.988423	0.077798	-0.143782
C60	C	1.038991	0.112346	-0.563557
C61	C	1.039001	0.112345	-0.627164
O62	O	1.081965	0.141715	-0.660051
N63	N	0.988512	0.077792	-0.658990
C64	C	0.938015	0.043234	-0.627204
O65	O	0.895072	0.013844	-0.660114
C66	C	0.938011	0.043233	-0.563597
C67	C	0.988497	0.077792	-0.531775
C68	C	1.089474	0.146902	-0.531735
C69	C	1.089463	0.146904	-0.468131
C70	C	1.038969	0.112350	-0.436350
C71	C	0.988486	0.077794	-0.468172
C72	C	0.887520	0.008672	-0.531813
C73	C	0.887520	0.008674	-0.468202
C74	C	0.938006	0.043233	-0.436380
C75	C	0.937980	0.043242	-0.372788
N76	N	0.988470	0.077795	-0.340963
C77	C	1.038964	0.112349	-0.372744
C78	C	0.938030	0.043239	-0.760782
C79	C	0.938030	0.043242	-0.824387
C80	C	1.039017	0.112352	-0.824343
C81	C	1.039012	0.112351	-0.760737
C82	C	0.988520	0.077791	-0.728956
C83	C	1.038936	0.112351	-0.239172
C84	C	1.038917	0.112352	-0.175564
C85	C	0.937934	0.043240	-0.175613
C86	C	0.937949	0.043241	-0.239216
C87	C	0.988456	0.077798	-0.270995
O88	O	0.895040	0.013885	-0.339860
O89	O	1.081908	0.141729	-0.339825
N90	N	0.988528	0.077794	0.143826
H91	H	1.132731	-0.107389	-0.000000
H92	H	0.844218	-0.737007	0.000034
N93	N	0.883555	0.005966	-0.726511
H94	H	0.842361	0.030749	-0.700127
H95	H	0.920294	-0.021899	-0.700152
H96	H	0.774591	-0.349195	0.000052
N97	N	0.833057	-0.028603	-0.433928
H98	H	0.840709	-0.023362	-0.388804
H99	H	0.849958	-0.070017	-0.445051
N100	N	1.143431	-0.647834	0.000040
H101	H	1.147256	-0.623497	-0.037420
H102	H	1.191245	-0.680003	0.000061
N103	N	1.093474	0.149617	-0.726414
H104	H	1.056790	0.177484	-0.700026
H105	H	1.125453	0.171468	-0.756242
N106	N	0.835704	-0.073087	-0.000005
H107	H	0.832756	-0.048129	0.037451
H108	H	0.786890	-0.096643	-0.000028
N109	N	1.143931	0.184170	-0.433816
H110	H	1.136274	0.178932	-0.388697
H111	H	1.127046	0.225586	-0.444933
N112	N	1.143961	0.184160	-0.566007
H113	H	1.175942	0.206042	-0.536187
H114	H	1.107242	0.211999	-0.592407
H115	H	1.080131	0.140489	-0.850231
N116	N	0.410799	0.075448	-0.114856
H117	H	0.381213	0.047566	-0.139404
H118	H	0.457956	0.088584	-0.139727
N119	N	1.093373	0.149627	-0.141241
H120	H	1.125364	0.171514	-0.171030
H121	H	1.134508	0.124807	-0.114843
N122	N	0.883574	0.005969	-0.858704
H123	H	0.920268	-0.021897	-0.885086
H124	H	0.842392	0.030790	-0.885068
H125	H	0.432430	0.000212	-0.060356
N126	N	0.390161	0.172142	0.055076
H127	H	0.358113	0.146143	0.080291
H128	H	0.350613	0.206372	0.041263
N129	N	0.883481	0.005980	-0.273543
H130	H	0.851487	-0.015906	-0.243756
H131	H	0.920220	-0.021856	-0.299927
N132	N	0.428781	-0.016341	0.057697
H133	H	0.393532	-0.023754	0.021105
H134	H	0.397188	-0.023937	0.096003
N135	N	1.222399	-0.504839	0.000031
H136	H	1.255973	-0.497463	0.037488
H137	H	1.255863	-0.497449	-0.037456
N138	N	0.752369	-0.463000	0.000049
H139	H	0.719200	-0.449681	0.037509
H140	H	0.763257	-0.506166	0.000026
H141	H	0.846409	-0.019470	-0.557712
N142	N	1.224575	-0.381379	0.000025
H143	H	1.272435	-0.413517	0.000028
H144	H	1.228353	-0.357024	0.037485
H145	H	1.080064	0.140491	-0.265039
N146	N	1.150883	-0.224789	0.000012
H147	H	1.153838	-0.249744	-0.037447
H148	H	1.153833	-0.249697	0.037497
H149	H	1.121213	-0.761666	0.000045
N150	N	0.409180	0.071398	0.115122
H151	H	0.437094	0.050496	0.151218
H152	H	0.346787	0.068179	0.115879
H153	H	0.896821	0.015108	-0.149725
H154	H	0.853834	-0.190513	-0.000000
N155	N	0.549116	0.173840	0.054825
H156	H	0.497278	0.187618	0.079346
H157	H	0.577283	0.207796	0.041002
H158	H	0.398254	0.164103	-0.040886
H159	H	0.575629	0.001411	-0.059834
H160	H	0.542336	0.165972	-0.041401
H161	H	0.563241	0.069168	-0.100624
H162	H	0.576618	0.002073	0.061424
N163	N	0.567648	0.077967	0.114497
H164	H	0.597336	0.111864	0.102655
H165	H	0.606522	0.050715	0.140085
N166	N	0.826076	-0.619602	0.000043
H167	H	0.777234	-0.643135	0.000042
H168	H	0.823168	-0.594665	-0.037418
