data_functionalizedCrystal
_audit_creation_method	'MofGen! by Chris Wilmer'
_symmetry_space_group_name_H-M	'P1'
_symmetry_Int_Tables_number	1
_symmetry_cell_setting	triclinic
loop_
_symmetry_equiv_pos_as_xyz
  x,y,z
_cell_length_a	14.519731
_cell_length_b	12.996460
_cell_length_c	16.992695
_cell_angle_alpha	89.993670
_cell_angle_beta	92.821462
_cell_angle_gamma	90.005673
loop_
_atom_site_label
_atom_site_type_symbol
_atom_site_fract_x
_atom_site_fract_y
_atom_site_fract_z
O1	O	1.231239	0.085570	-0.102876
O2	O	1.564572	0.418904	0.230457
O3	O	1.897906	0.752237	0.563790
O4	O	0.963632	0.085572	-0.114964
O5	O	1.296966	0.418905	0.218369
O6	O	1.630299	0.752239	0.551702
O7	O	1.096363	0.085563	0.005224
O8	O	1.429696	0.418896	0.338557
O9	O	1.763030	0.752230	0.671890
O10	O	1.098508	0.085579	-0.223065
O11	O	1.431842	0.418913	0.110269
O12	O	1.765175	0.752246	0.443602
O13	O	1.096348	-0.085571	0.005230
O14	O	1.429681	0.247763	0.338564
O15	O	1.763014	0.581096	0.671897
O16	O	0.963617	-0.085562	-0.114958
O17	O	1.296950	0.247772	0.218376
O18	O	1.630284	0.581105	0.551709
O19	O	1.231224	-0.085564	-0.102870
O20	O	1.564557	0.247770	0.230464
O21	O	1.897891	0.581103	0.563797
Cu22	Cu	1.097419	-0.101189	-0.108913
Cu23	Cu	1.430752	0.232145	0.224420
Cu24	Cu	1.764086	0.565478	0.557754
Cu25	Cu	1.097437	0.101197	-0.108921
Cu26	Cu	1.430770	0.434530	0.224412
Cu27	Cu	1.764104	0.767864	0.557746
O28	O	1.098493	-0.085555	-0.223058
O29	O	1.431827	0.247779	0.110275
O30	O	1.765160	0.581112	0.443609
C31	C	0.929225	0.000005	-0.114395
C32	C	1.262558	0.333339	0.218939
C33	C	1.595891	0.666672	0.552272
C34	C	0.826723	0.000006	-0.112697
C35	C	1.160056	0.333339	0.220636
C36	C	1.493389	0.666672	0.553969
C37	C	0.743479	0.000010	-0.111318
C38	C	1.076813	0.333343	0.222015
C39	C	1.410146	0.666676	0.555348
C40	C	0.639047	0.000010	-0.109595
C41	C	0.972380	0.333343	0.223738
C42	C	1.305714	0.666677	0.557072
C43	C	0.555810	0.000010	-0.108227
C44	C	0.889143	0.333343	0.225106
C45	C	1.222477	0.666676	0.558439
C46	C	0.451371	0.000012	-0.106504
C47	C	0.784704	0.333345	0.226829
C48	C	1.118037	0.666679	0.560162
N49	N	1.097413	-0.243536	-0.108907
N50	N	1.430746	0.089798	0.224426
N51	N	1.764080	0.423131	0.557760
C52	C	1.097436	-0.663350	-0.108922
C53	C	1.430769	-0.330017	0.224412
C54	C	1.764102	0.003317	0.557745
C55	C	1.097427	-0.546545	-0.108920
C56	C	1.430760	-0.213211	0.224413
C57	C	1.764094	0.120122	0.557746
C58	C	1.097425	-0.453447	-0.108915
C59	C	1.430758	-0.120113	0.224418
C60	C	1.764092	0.213220	0.557752
C61	C	1.097415	-0.336634	-0.108912
C62	C	1.430748	-0.003301	0.224421
C63	C	1.764082	0.330033	0.557754
C64	C	1.265632	0.000005	-0.103439
C65	C	1.598965	0.333339	0.229894
C66	C	1.932298	0.666672	0.563227
C67	C	1.368134	0.000012	-0.105137
C68	C	1.701467	0.333345	0.228197
C69	C	2.034800	0.666678	0.561530
C70	C	1.093595	-0.000004	0.034444
C71	C	1.426928	0.333330	0.367777
C72	C	1.760262	0.666663	0.701110
C73	C	1.085360	-0.000003	0.121500
C74	C	1.418693	0.333330	0.454833
C75	C	1.752027	0.666663	0.788167
N76	N	1.097450	0.243544	-0.108921
N77	N	1.430783	0.576877	0.224412
N78	N	1.764117	0.910211	0.557746
C79	C	1.101261	0.000015	-0.252278
C80	C	1.434594	0.333348	0.081055
C81	C	1.767928	0.666681	0.414389
C82	C	1.109496	0.000021	-0.339334
C83	C	1.442830	0.333354	-0.006001
C84	C	1.776163	0.666688	0.327333
C85	C	1.164819	-0.000005	0.171624
C86	C	1.498153	0.333328	0.504957
C87	C	1.831486	0.666662	0.838291
C88	C	1.157076	0.000005	0.253422
C89	C	1.490409	0.333338	0.586755
C90	C	1.823743	0.666671	0.920089
C91	C	1.069872	0.000009	0.285094
C92	C	1.403205	0.333342	0.618428
C93	C	1.736539	0.666675	0.951761
C94	C	0.990407	0.000013	0.234964
C95	C	1.323740	0.333347	0.568297
C96	C	1.657073	0.666680	0.901631
C97	C	0.998151	0.000011	0.153168
C98	C	1.331484	0.333344	0.486501
C99	C	1.664818	0.666678	0.819834
C100	C	1.037775	0.000023	0.528739
C101	C	1.371108	0.333356	0.862072
C102	C	1.704442	0.666690	1.195406
C103	C	1.030037	0.000023	0.610542
C104	C	1.363370	0.333356	0.943875
C105	C	1.696703	0.666689	1.277209
C106	C	1.196707	0.000016	0.628994
C107	C	1.530040	0.333349	0.962328
C108	C	1.863373	0.666682	1.295661
C109	C	1.204443	0.000007	0.547195
C110	C	1.537777	0.333340	0.880529
C111	C	1.871110	0.666674	1.213862
C112	C	1.124978	0.000017	0.497072
C113	C	1.458311	0.333351	0.830406
C114	C	1.791645	0.666684	1.163739
N115	N	1.061955	0.000016	0.368705
N116	N	1.395288	0.333349	0.702038
N117	N	1.728622	0.666682	1.035371
N118	N	1.132896	0.000018	0.413463
N119	N	1.466229	0.333351	0.746797
N120	N	1.799563	0.666684	1.080130
H121	H	1.235830	-0.000015	0.145843
H122	H	1.569163	0.333319	0.479176
H123	H	1.902497	0.666652	0.812510
H124	H	1.221781	0.000001	0.294230
H125	H	1.555114	0.333335	0.627563
H126	H	1.888447	0.666668	0.960897
H127	H	1.275454	0.000004	0.521414
H128	H	1.608787	0.333337	0.854748
H129	H	1.942120	0.666670	1.188081
H130	H	1.261403	0.000009	0.669813
H131	H	1.594736	0.333343	1.003146
H132	H	1.928069	0.666676	1.336479
H133	H	0.973068	0.000031	0.487938
H134	H	1.306402	0.333364	0.821272
H135	H	1.639735	0.666698	1.154605
H136	H	0.959022	0.000009	0.636326
H137	H	1.292355	0.333343	0.969659
H138	H	1.625688	0.666676	1.302993
O139	O	0.905767	-0.000028	0.265858
O140	O	1.239100	0.333305	0.599192
O141	O	1.572434	0.666639	0.932525
C142	C	0.915968	-0.000004	0.348802
C143	C	1.249301	0.333330	0.682136
C144	C	1.582635	0.666663	1.015469
H145	H	0.986525	-0.032404	0.367908
H146	H	1.319858	0.300929	0.701241
H147	H	1.653192	0.634263	1.034575
H148	H	0.909828	0.082097	0.371571
H149	H	1.243161	0.415431	0.704905
H150	H	1.576494	0.748764	1.038238
C151	C	0.753435	-0.027322	0.359375
C152	C	1.086768	0.306012	0.692708
C153	C	1.420102	0.639345	1.026041
C154	C	0.840092	-0.067124	0.382841
C155	C	1.173425	0.266209	0.716174
C156	C	1.506758	0.599542	1.049507
H157	H	0.706629	-0.068720	0.380372
H158	H	1.039963	0.264613	0.713706
H159	H	1.373296	0.597946	1.047039
H160	H	0.746561	-0.027334	0.303494
H161	H	1.079895	0.305999	0.636827
H162	H	1.413228	0.639333	0.970160
H163	H	0.748331	0.041095	0.378350
H164	H	1.081665	0.374429	0.711684
H165	H	1.414998	0.707762	1.045017
H166	H	0.845199	-0.135535	0.363857
H167	H	1.178532	0.197798	0.697190
H168	H	1.511865	0.531132	1.030523
H169	H	0.846965	-0.067125	0.438719
H170	H	1.180298	0.266208	0.772053
H171	H	1.513631	0.599542	1.105386
O172	O	0.920870	-0.000033	0.104587
O173	O	1.254204	0.333300	0.437920
O174	O	1.587537	0.666634	0.771253
C175	C	0.842241	-0.000003	0.150079
C176	C	1.175574	0.333331	0.483413
C177	C	1.508907	0.666664	0.816746
H178	H	0.861145	-0.032406	0.211094
H179	H	1.194478	0.300927	0.544427
H180	H	1.527812	0.634260	0.877761
H181	H	0.815807	0.082101	0.155936
H182	H	1.149140	0.415434	0.489270
H183	H	1.482473	0.748768	0.822603
C184	C	0.743303	-0.027309	0.034501
C185	C	1.076636	0.306025	0.367834
C186	C	1.409970	0.639358	0.701167
C187	C	0.766520	-0.067115	0.109438
C188	C	1.099853	0.266218	0.442771
C189	C	1.433186	0.599551	0.776105
H190	H	0.696592	-0.068702	0.009430
H191	H	1.029926	0.264631	0.342764
H192	H	1.363259	0.597964	0.676097
H193	H	0.796276	-0.027325	0.003850
H194	H	1.129610	0.306008	0.337184
H195	H	1.462943	0.639342	0.670517
H196	H	0.721280	0.041110	0.039392
H197	H	1.054613	0.374444	0.372725
H198	H	1.387947	0.707777	0.706059
H199	H	0.788553	-0.135528	0.104545
H200	H	1.121886	0.197806	0.437878
H201	H	1.455219	0.531139	0.771212
H202	H	0.713548	-0.067112	0.140086
H203	H	1.046881	0.266222	0.473420
H204	H	1.380214	0.599555	0.806753
