data_functionalizedCrystal
_audit_creation_method	'MofGen! by Chris Wilmer'
_symmetry_space_group_name_H-M	'P1'
_symmetry_Int_Tables_number	1
_symmetry_cell_setting	triclinic
loop_
_symmetry_equiv_pos_as_xyz
  x,y,z
_cell_length_a	15.995350
_cell_length_b	19.188930
_cell_length_c	14.472310
_cell_angle_alpha	89.993787
_cell_angle_beta	89.990621
_cell_angle_gamma	83.318578
loop_
_atom_site_label
_atom_site_type_symbol
_atom_site_fract_x
_atom_site_fract_y
_atom_site_fract_z
O1	O	1.110667	0.089991	-0.076773
O2	O	0.866851	0.101105	-0.076794
O3	O	0.995795	-0.006090	-0.076765
O4	O	0.981723	0.197186	-0.076802
O5	O	0.995762	-0.006083	0.076917
O6	O	0.866818	0.101111	0.076888
O7	O	1.110634	0.089998	0.076909
Cu8	Cu	0.988723	0.095555	0.090931
Cu9	Cu	0.988762	0.095547	-0.090816
O10	O	0.981690	0.197192	0.076880
C11	C	0.835641	0.100648	0.000045
C12	C	0.742696	0.099271	0.000038
C13	C	0.995323	-0.032099	0.000079
C14	C	0.993955	-0.109607	0.000087
C15	C	0.404967	0.094324	0.000058
C16	C	0.452680	0.017982	0.000415
C17	C	0.549365	0.019360	0.000062
C18	C	0.572518	0.096778	0.000049
C19	C	0.531312	0.134429	-0.087714
C20	C	0.434683	0.132511	-0.087781
C21	C	0.434301	0.134095	0.086984
C22	C	0.531246	0.134077	0.088137
C23	C	0.667211	0.098169	0.000040
C24	C	0.310274	0.092936	0.000060
C25	C	1.069615	-0.154338	0.000097
C26	C	1.068330	-0.227165	0.000082
C27	C	0.991380	-0.255258	0.000075
C28	C	0.915710	-0.210517	0.000059
C29	C	0.916997	-0.137691	0.000065
N30	N	0.932550	-0.363410	0.052371
N31	N	0.931332	-0.432592	0.052368
C32	C	0.987497	-0.474676	0.000056
N33	N	1.044938	-0.444967	-0.052240
N34	N	1.046158	-0.375779	-0.052233
C35	C	0.989976	-0.334224	0.000069
C36	C	1.061769	-0.598375	0.000050
C37	C	1.060480	-0.671204	0.000029
C38	C	0.907859	-0.654553	0.000015
C39	C	0.909149	-0.581727	0.000027
C40	C	0.986106	-0.553643	0.000048
C41	C	1.141843	0.090454	0.000068
C42	C	1.234789	0.091831	0.000069
C43	C	0.982162	0.223201	0.000034
C44	C	0.983530	0.300709	0.000020
N45	N	0.988701	0.095560	0.218762
N46	N	0.988790	0.095537	-0.218647
C47	C	0.988761	0.095545	0.592853
C48	C	0.919535	0.152710	0.553672
C49	C	0.919694	0.152918	0.446584
C50	C	0.988731	0.095552	0.407262
C51	C	1.076037	0.111464	0.446103
C52	C	1.075648	0.111870	0.553224
C53	C	0.971460	0.022298	0.553394
C54	C	0.969454	0.022787	0.446266
C55	C	0.988719	0.095555	0.302374
C56	C	0.988778	0.095543	0.697741
H57	H	0.434256	-0.012531	0.063354
H58	H	0.577346	-0.010441	-0.062950
H59	H	0.905232	0.010711	0.420881
H60	H	0.416490	0.105049	-0.153377
H61	H	1.090934	0.165288	0.578192
N62	N	0.827546	-0.533472	0.000026
H63	H	0.793972	-0.542500	-0.056947
H64	H	0.794016	-0.542534	0.057031
N65	N	1.031934	-0.036206	0.410833
H66	H	1.073809	-0.016511	0.368807
H67	H	1.062603	-0.060922	0.464734
N68	N	0.551317	0.208861	0.095147
H69	H	0.497297	0.241847	0.094366
H70	H	0.582513	0.215108	0.154690
N71	N	1.145887	0.057782	0.412356
H72	H	1.187971	0.082055	0.375974
H73	H	1.174876	0.032789	0.467058
N74	N	1.038329	-0.034055	0.586952
H75	H	1.079636	-0.012285	0.627516
H76	H	1.011053	-0.070105	0.623584
N77	N	0.549756	0.209765	-0.092067
H78	H	0.495127	0.241978	-0.091205
H79	H	0.585105	0.220173	-0.037050
H80	H	0.433211	-0.012395	-0.062166
H81	H	0.402333	0.190382	0.087568
N82	N	1.096777	0.181417	0.410549
H83	H	1.103493	0.213780	0.464393
H84	H	1.150968	0.174385	0.374129
N85	N	0.888968	0.002038	0.589214
H86	H	0.861974	0.040139	0.631390
H87	H	0.850209	-0.004145	0.535500
N88	N	0.569036	0.099788	-0.174225
H89	H	0.612807	0.059714	-0.156767
H90	H	0.523237	0.081256	-0.211825
H91	H	1.129943	-0.263592	0.000087
H92	H	0.402230	0.188560	-0.091773
N93	N	1.152615	-0.124047	0.000119
H94	H	1.200351	-0.163439	0.000123
H95	H	1.156489	-0.094189	-0.056851
H96	H	0.413843	0.109140	0.153506
N97	N	0.832713	-0.240811	0.000047
H98	H	0.843378	-0.293734	0.000048
H99	H	0.799602	-0.224451	0.057015
N100	N	0.934302	0.224913	0.412609
H101	H	0.934465	0.225349	0.342823
H102	H	0.887893	0.260709	0.436126
N103	N	0.567539	0.097676	0.174146
H104	H	0.610536	0.057192	0.156135
H105	H	0.595406	0.132066	0.213063
N106	N	1.145888	0.058809	0.587589
H107	H	1.136958	0.010622	0.564272
H108	H	1.201567	0.071648	0.564135
N109	N	0.835390	-0.089440	0.000053
H110	H	0.786445	-0.118284	0.000043
H111	H	0.832587	-0.058869	0.057029
N112	N	0.587156	-0.019837	0.083397
H113	H	0.541013	-0.038170	0.120693
H114	H	0.628666	-0.060439	0.062376
H115	H	1.124432	-0.575508	0.000063
H116	H	1.122095	-0.707624	0.000033
N117	N	0.824861	-0.684842	-0.000003
H118	H	0.835524	-0.737765	-0.000008
H119	H	0.791748	-0.668485	0.056966
H120	H	0.854420	0.143386	0.579456
N121	N	0.833722	0.140364	0.411791
H122	H	0.795380	0.134645	0.466041
H123	H	0.809512	0.181672	0.373121
N124	N	0.933949	0.224312	0.589256
H125	H	0.985122	0.219880	0.630652
H126	H	0.943274	0.255959	0.535376
