data_functionalizedCrystal
_audit_creation_method	'MofGen! by Chris Wilmer'
_symmetry_space_group_name_H-M	'P1'
_symmetry_Int_Tables_number	1
_symmetry_cell_setting	triclinic
loop_
_symmetry_equiv_pos_as_xyz
  x,y,z
_cell_length_a	16.625547
_cell_length_b	16.959454
_cell_length_c	16.959447
_cell_angle_alpha	90.026818
_cell_angle_beta	89.977696
_cell_angle_gamma	89.979987
loop_
_atom_site_label
_atom_site_type_symbol
_atom_site_fract_x
_atom_site_fract_y
_atom_site_fract_z
Zn1	Zn	1.232674	0.314667	-0.447041
Zn2	Zn	1.232589	0.446859	-0.314871
Zn3	Zn	1.097842	0.314698	-0.314867
Zn4	Zn	1.097812	0.446807	-0.446997
O5	O	1.165229	0.380758	-0.380944
O6	O	1.345495	0.332211	-0.429529
O7	O	1.214691	0.429363	-0.204260
O8	O	1.115776	0.204083	-0.332416
O9	O	1.345432	0.429332	-0.332424
O10	O	1.214836	0.204060	-0.429525
O11	O	1.115693	0.332265	-0.204256
O12	O	0.985005	0.332214	-0.332374
O13	O	1.115725	0.429243	-0.557614
O14	O	0.984983	0.429274	-0.429450
O15	O	1.214807	0.332160	-0.557647
O16	O	1.214662	0.557463	-0.332381
O17	O	1.115642	0.557425	-0.429454
C18	C	1.165161	0.586124	-0.380931
C19	C	1.165206	0.673981	-0.380951
C20	C	0.955738	0.380742	-0.380907
C21	C	0.866117	0.380755	-0.380910
C22	C	1.165272	0.380692	-0.587112
C23	C	1.165291	0.380664	-0.674969
C24	C	0.793335	0.380756	-0.380919
C25	C	0.702026	0.380761	-0.380939
C26	C	0.629250	0.380768	-0.380959
C27	C	0.537935	0.380773	-0.380978
C28	C	1.375538	0.380774	-0.380982
C29	C	1.465159	0.380781	-0.380998
C30	C	1.165319	0.174590	-0.380975
C31	C	1.165357	0.086733	-0.380988
C32	C	1.113744	1.045466	-0.431484
C33	C	1.216938	1.045446	-0.330484
C34	C	1.216910	0.962900	-0.330477
C35	C	1.165297	0.921634	-0.380973
C36	C	1.113713	0.962913	-0.431477
C37	C	1.268488	0.921615	-0.279969
C38	C	1.268462	0.839064	-0.279959
C39	C	1.216852	0.797796	-0.330460
C40	C	1.165266	0.839080	-0.380966
C41	C	1.113653	0.797813	-0.431462
C42	C	1.062070	0.839096	-0.481973
C43	C	1.062103	0.921644	-0.481978
C44	C	1.216819	0.715247	-0.330455
C45	C	1.113622	0.715260	-0.431455
C46	C	1.113818	0.330026	-1.046449
C47	C	1.216905	0.431135	-1.046440
C48	C	1.216891	0.431154	-0.963895
C49	C	1.165339	0.380609	-0.922622
C50	C	1.113801	0.330045	-0.963896
C51	C	1.268423	0.481722	-0.922615
C52	C	1.268410	0.481743	-0.840064
C53	C	1.216862	0.431193	-0.798790
C54	C	1.165322	0.380627	-0.840069
C55	C	1.113769	0.330082	-0.798796
C56	C	1.062233	0.279511	-0.840074
C57	C	1.062252	0.279495	-0.922622
C58	C	1.216843	0.431209	-0.716241
C59	C	1.113752	0.330100	-0.716243
C60	C	1.165232	0.380766	-0.175578
C61	C	1.165370	0.380572	-0.087722
H62	H	1.020043	0.805487	-0.523084
O63	O	1.012274	0.230266	-0.962681
C64	C	1.029909	0.151491	-0.942522
H65	H	1.094321	0.147505	-0.919845
H66	H	0.986680	0.130836	-0.894603
C67	C	0.941447	0.103620	-1.043720
C68	C	1.020561	0.098725	-1.015873
H69	H	0.935677	0.071070	-1.088964
H70	H	0.929563	0.156692	-1.057299
H71	H	0.905431	0.086410	-1.003780
H72	H	1.056574	0.115945	-1.055809
H73	H	1.032451	0.045654	-1.002302
H74	H	1.020106	0.955264	-0.523100
H75	H	1.258813	0.681639	-0.289326
H76	H	1.310503	0.955221	-0.238852
H77	H	1.071749	1.079082	-0.472611
O78	O	1.267016	1.085652	-0.281479
C79	C	1.255948	1.167363	-0.292283
H80	H	1.229545	1.178632	-0.353272
H81	H	1.213008	1.190817	-0.245379
C82	C	1.369960	1.195877	-0.210148
C83	C	1.337537	1.209718	-0.285059
H84	H	1.420286	1.222004	-0.205689
H85	H	1.377415	1.140826	-0.202867
H86	H	1.334168	1.215421	-0.171070
H87	H	1.373324	1.190164	-0.324135
H88	H	1.330090	1.264766	-0.292347
H89	H	1.310463	0.805457	-0.238831
H90	H	1.071775	0.288936	-0.682645
H91	H	1.020256	0.238360	-0.806459
H92	H	1.071860	0.288851	-1.080061
O93	O	1.267061	0.480122	-1.086567
C94	C	1.319151	0.435116	-1.134358
H95	H	1.324159	0.372868	-1.109498
H96	H	1.294227	0.432377	-1.196914
C97	C	1.396802	0.550197	-1.166176
C98	C	1.402959	0.473744	-1.135639
H99	H	1.448498	0.574025	-1.166969
H100	H	1.361707	0.580519	-1.133980
H101	H	1.376029	0.547904	-1.218303
H102	H	1.423722	0.476039	-1.083510
H103	H	1.438060	0.443423	-1.167826
H104	H	1.310385	0.522882	-0.956225
H105	H	1.258808	0.472378	-0.682637
H106	H	1.310374	0.522922	-0.806463
H107	H	1.071595	0.681665	-0.472578
