data_functionalizedCrystal
_audit_creation_method	'MofGen! by Chris Wilmer'
_symmetry_space_group_name_H-M	'P1'
_symmetry_Int_Tables_number	1
_symmetry_cell_setting	triclinic
loop_
_symmetry_equiv_pos_as_xyz
  x,y,z
_cell_length_a	14.519731
_cell_length_b	14.519731
_cell_length_c	10.868271
_cell_angle_alpha	89.993880
_cell_angle_beta	89.995592
_cell_angle_gamma	83.688853
loop_
_atom_site_label
_atom_site_type_symbol
_atom_site_fract_x
_atom_site_fract_y
_atom_site_fract_z
O1	O	1.223864	0.120984	-0.102328
O2	O	1.557198	0.454317	0.231006
O3	O	1.890531	0.787651	0.564339
O4	O	0.955391	0.135200	-0.102330
O5	O	1.288725	0.468533	0.231003
O6	O	1.622058	0.801867	0.564337
O7	O	1.096736	-0.006145	-0.102318
O8	O	1.430069	0.327189	0.231016
O9	O	1.763402	0.660522	0.564349
O10	O	1.082520	0.262329	-0.102340
O11	O	1.415853	0.595662	0.230993
O12	O	1.749186	0.928995	0.564327
O13	O	1.096724	-0.006150	0.102327
O14	O	1.430057	0.327183	0.435660
O15	O	1.763391	0.660517	0.768994
O16	O	0.955380	0.135195	0.102315
O17	O	1.288713	0.468528	0.435648
O18	O	1.622046	0.801861	0.768981
O19	O	1.223853	0.120979	0.102317
O20	O	1.557186	0.454312	0.435650
O21	O	1.890519	0.787645	0.768984
Zn22	Zn	1.089614	0.128086	0.134808
Zn23	Zn	1.422948	0.461419	0.468141
Zn24	Zn	1.756281	0.794752	0.801474
Zn25	Zn	1.089630	0.128093	-0.134821
Zn26	Zn	1.422963	0.461426	0.198513
Zn27	Zn	1.756296	0.794760	0.531846
O28	O	1.082508	0.262323	0.102305
O29	O	1.415842	0.595656	0.435638
O30	O	1.749175	0.928990	0.768971
C31	C	0.921026	0.134531	-0.000008
C32	C	1.254359	0.467864	0.333326
C33	C	1.587693	0.801198	0.666659
C34	C	0.818645	0.132535	-0.000008
C35	C	1.151979	0.465868	0.333325
C36	C	1.485312	0.799202	0.666658
C37	C	0.735501	0.130913	-0.000013
C38	C	1.068835	0.464247	0.333320
C39	C	1.402168	0.797580	0.666654
C40	C	0.631192	0.128887	-0.000013
C41	C	0.964526	0.462220	0.333320
C42	C	1.297859	0.795553	0.666653
C43	C	0.548053	0.127278	-0.000013
C44	C	0.881386	0.460612	0.333320
C45	C	1.214720	0.793945	0.666654
C46	C	0.443738	0.125252	-0.000016
C47	C	0.777071	0.458585	0.333318
C48	C	1.110404	0.791919	0.666651
C49	C	1.096064	-0.040507	0.000005
C50	C	1.429397	0.292827	0.333338
C51	C	1.762730	0.626160	0.666672
C52	C	1.094068	-0.142887	0.000006
C53	C	1.427401	0.190446	0.333339
C54	C	1.760734	0.523780	0.666672
C55	C	1.092446	-0.226031	0.000003
C56	C	1.425779	0.107302	0.333336
C57	C	1.759113	0.440635	0.666670
C58	C	1.090419	-0.330340	-0.000007
C59	C	1.423753	0.002993	0.333327
C60	C	1.757086	0.336326	0.666660
C61	C	1.088811	-0.413479	-0.000014
C62	C	1.422144	-0.080146	0.333319
C63	C	1.755478	0.253187	0.666652
C64	C	1.086785	-0.517795	-0.000022
C65	C	1.420118	-0.184462	0.333312
C66	C	1.753451	0.148872	0.666645
C67	C	1.258218	0.121648	-0.000008
C68	C	1.591551	0.454981	0.333325
C69	C	1.924885	0.788314	0.666659
C70	C	1.360598	0.123644	-0.000015
C71	C	1.693932	0.456977	0.333318
C72	C	2.027265	0.790310	0.666651
C73	C	1.083180	0.296685	-0.000021
C74	C	1.416513	0.630019	0.333313
C75	C	1.749847	0.963352	0.666646
C76	C	1.085176	0.399066	-0.000030
C77	C	1.418509	0.732399	0.333304
C78	C	1.751843	1.065732	0.666637
N79	N	1.089611	0.128080	0.318822
N80	N	1.422944	0.461414	0.652155
N81	N	1.756277	0.794747	0.985488
N82	N	1.089641	0.128091	-0.318835
N83	N	1.422974	0.461424	0.014499
N84	N	1.756307	0.794758	0.347832
C85	C	1.089625	0.128091	0.569828
C86	C	1.422958	0.461424	0.903161
C87	C	1.756291	0.794758	1.236494
C88	C	1.089614	0.128088	0.430150
C89	C	1.422947	0.461421	0.763484
C90	C	1.756281	0.794754	1.096817
