data_functionalizedCrystal
_audit_creation_method	'MofGen! by Chris Wilmer'
_symmetry_space_group_name_H-M	'P1'
_symmetry_Int_Tables_number	1
_symmetry_cell_setting	triclinic
loop_
_symmetry_equiv_pos_as_xyz
  x,y,z
_cell_length_a	19.121414
_cell_length_b	19.121063
_cell_length_c	19.121242
_cell_angle_alpha	94.950219
_cell_angle_beta	89.878138
_cell_angle_gamma	94.802198
loop_
_atom_site_label
_atom_site_type_symbol
_atom_site_fract_x
_atom_site_fract_y
_atom_site_fract_z
Zn1	Zn	1.078469	-0.249046	-0.361819
Zn2	Zn	1.578469	0.250954	0.138181
Zn3	Zn	1.068778	-0.362129	-0.249601
Zn4	Zn	1.568778	0.137871	0.250399
Zn5	Zn	0.956227	-0.249498	-0.249607
Zn6	Zn	1.456227	0.250502	0.250393
Zn7	Zn	0.956173	-0.372122	-0.372228
Zn8	Zn	1.456173	0.127878	0.127772
O9	O	1.014912	-0.308199	-0.308314
O10	O	1.514912	0.191801	0.191686
O11	O	1.175468	-0.259676	-0.342574
O12	O	1.675468	0.240324	0.157426
O13	O	1.049815	-0.343195	-0.151320
O14	O	1.549815	0.156805	0.348680
O15	O	0.976520	-0.150793	-0.260139
O16	O	1.476520	0.349207	0.239861
O17	O	1.168348	-0.342757	-0.260128
O18	O	1.668348	0.157243	0.239872
O19	O	1.066331	-0.150462	-0.342581
O20	O	1.566331	0.349538	0.157419
O21	O	0.967124	-0.260445	-0.151325
O22	O	1.467124	0.239555	0.348675
O23	O	0.857935	-0.270135	-0.270232
O24	O	1.357935	0.229865	0.229768
O25	O	0.976429	-0.359789	-0.469129
O26	O	1.476429	0.140211	0.030871
O27	O	0.857896	-0.360226	-0.360321
O28	O	1.357896	0.139774	0.139679
O29	O	1.066279	-0.269366	-0.461481
O30	O	1.566279	0.230634	0.038519
O31	O	1.049763	-0.462099	-0.270221
O32	O	1.549763	0.037901	0.229779
O33	O	0.967033	-0.469440	-0.360315
O34	O	1.467033	0.030560	0.139685
C35	C	0.832431	-0.316314	-0.316407
C36	C	1.332431	0.183686	0.183593
C37	C	0.754366	-0.319804	-0.319887
C38	C	1.254366	0.180196	0.180113
C39	C	0.717696	-0.274473	-0.274688
C40	C	1.217696	0.225527	0.225312
C41	C	0.644344	-0.277758	-0.277958
C42	C	1.144344	0.222242	0.222042
C43	C	0.607664	-0.326371	-0.326430
C44	C	1.107664	0.173629	0.173570
C45	C	0.644339	-0.371707	-0.371631
C46	C	1.144339	0.128293	0.128369
C47	C	0.717689	-0.368425	-0.368358
C48	C	1.217689	0.131575	0.131642
C49	C	0.386195	-0.338634	-0.338654
C50	C	0.886195	0.161366	0.161346
C51	C	0.312840	-0.341911	-0.341926
C52	C	0.812840	0.158089	0.158074
C53	C	0.312850	-0.247962	-0.248251
C54	C	0.812850	0.252038	0.251749
C55	C	0.386201	-0.244681	-0.244985
C56	C	0.886201	0.255319	0.255015
C57	C	0.422870	-0.290020	-0.290183
C58	C	0.922870	0.209980	0.209817
C59	C	0.532688	-0.329729	-0.329775
C60	C	1.032688	0.170271	0.170225
C61	C	0.497845	-0.286666	-0.286835
C62	C	0.997845	0.213334	0.213165
C63	C	1.007360	-0.491347	-0.316411
C64	C	1.507360	0.008653	0.183589
C65	C	1.004195	-0.569696	-0.319896
C66	C	1.504195	-0.069696	0.180104
C67	C	1.045817	-0.602659	-0.274662
C68	C	1.545817	-0.102659	0.225338
C69	C	1.042845	-0.676278	-0.277943
C70	C	1.542845	-0.176278	0.222057
C71	C	0.998245	-0.716931	-0.326456
C72	C	1.498245	-0.216931	0.173544
C73	C	0.956621	-0.683963	-0.371695
C74	C	1.456621	-0.183963	0.128305
C75	C	0.959598	-0.610347	-0.368416
C76	C	1.459598	-0.110347	0.131584
C77	C	0.987104	-0.939399	-0.338702
C78	C	1.487104	-0.439399	0.161298
C79	C	0.984129	-1.013020	-0.341976
C80	C	1.484129	-0.513020	0.158024
C81	C	1.070354	-1.005329	-0.248225
C82	C	1.570354	-0.505329	0.251775
C83	C	1.073323	-0.931712	-0.244948
C84	C	1.573323	-0.431712	0.255052
C85	C	1.031702	-0.898750	-0.290189
C86	C	1.531702	-0.398750	0.209811
C87	C	0.995204	-0.792181	-0.329809
C88	C	1.495204	-0.292181	0.170191
C89	C	1.034747	-0.823502	-0.286838
C90	C	1.534747	-0.323502	0.213162
C91	C	1.198104	-0.300052	-0.300189
C92	C	1.698104	0.199948	0.199811
C93	C	1.276170	-0.296580	-0.296727
C94	C	1.776170	0.203420	0.203273
C95	C	1.022429	-0.315641	-0.491501
C96	C	1.522429	0.184359	0.008499
C97	C	1.025633	-0.318813	-0.569564
C98	C	1.525633	0.181187	-0.069564
C99	C	1.022512	-0.124335	-0.300199
C100	C	1.522512	0.375665	0.199801
C101	C	1.025751	-0.045983	-0.296742
C102	C	1.525751	0.454017	0.203258
C103	C	1.045948	-0.338946	-1.011075
C104	C	1.545948	0.161054	-0.511075
C105	C	1.042928	-0.335962	-0.937726
C106	C	1.542928	0.164038	-0.437726
C107	C	0.998369	-0.291384	-0.901062
C108	C	1.498369	0.208616	-0.401062
C109	C	0.956823	-0.249791	-0.937750
C110	C	1.456823	0.250209	-0.437750
C111	C	0.959840	-0.252779	-1.011098
C112	C	1.459840	0.247221	-0.511098
C113	C	0.987103	-0.280209	-0.679600
C114	C	1.487103	0.219791	-0.179600
C115	C	0.984091	-0.277222	-0.606247
C116	C	1.484091	0.222778	-0.106247
C117	C	1.070195	-0.363395	-0.606228
C118	C	1.570195	0.136605	-0.106228
C119	C	1.073211	-0.366376	-0.679577
C120	C	1.573211	0.133624	-0.179577
C121	C	1.031662	-0.324787	-0.716259
C122	C	1.531662	0.175213	-0.216259
C123	C	0.995283	-0.288331	-0.826087
C124	C	1.495283	0.211669	-0.326087
C125	C	1.034746	-0.327844	-0.791233
C126	C	1.534746	0.172156	-0.291233
C127	C	1.007466	-0.300732	-0.125836
C128	C	1.507466	0.199268	0.374164
C129	C	1.004407	-0.297356	-0.047758
C130	C	1.504407	0.202644	0.452242
H131	H	0.282978	-0.381498	-0.381403
H132	H	0.782978	0.118502	0.118597
C133	C	0.758041	-0.220998	-0.221370
C134	C	1.258041	0.279002	0.278630
H135	H	0.806978	-0.225529	-0.225897
H136	H	1.306978	0.274471	0.274103
H137	H	0.743649	-0.229860	-0.175154
H138	H	1.243649	0.270140	0.324846
H139	H	0.748391	-0.174608	-0.230175
H140	H	1.248391	0.325392	0.269825
H141	H	0.416041	-0.375552	-0.375458
H142	H	0.916041	0.124448	0.124542
H143	H	0.527713	-0.247087	-0.247366
H144	H	1.027713	0.252913	0.252634
C145	C	1.115889	-0.409148	-0.565881
C146	C	1.615889	0.090852	-0.065881
H147	H	1.142860	-0.436122	-0.598222
H148	H	1.642860	0.063878	-0.098222
H149	H	1.086572	-0.439889	-0.539815
H150	H	1.586572	0.060111	-0.039815
H151	H	1.146436	-0.379657	-0.534720
H152	H	1.646436	0.120343	-0.034720
C153	C	0.907811	-0.200754	-0.897421
C154	C	1.407811	0.299246	-0.397421
H155	H	0.911969	-0.204925	-0.848483
H156	H	1.411969	0.295075	-0.348483
H157	H	0.860688	-0.213654	-0.911991
H158	H	1.360688	0.286346	-0.411991
H159	H	0.920551	-0.153423	-0.906902
H160	H	1.420551	0.346577	-0.406902
H161	H	1.076747	-0.369839	-0.907863
H162	H	1.576747	0.130161	-0.407863
H163	H	0.614469	-0.411293	-0.411096
H164	H	1.114469	0.088707	0.088904
H165	H	0.502815	-0.369309	-0.369242
H166	H	1.002815	0.130691	0.130758
H167	H	0.953270	-0.246345	-0.709458
H168	H	1.453270	0.253655	-0.209458
C169	C	1.083805	-0.778789	-0.233476
C170	C	1.583805	-0.278789	0.266524
H171	H	1.108173	-0.808961	-0.207005
H172	H	1.608173	-0.308961	0.292995
H173	H	1.056863	-0.750056	-0.202772
H174	H	1.556863	-0.250056	0.297228
H175	H	1.116654	-0.749766	-0.257736
H176	H	1.616654	-0.249766	0.242264
H177	H	0.958890	-0.825289	-0.369307
H178	H	1.458890	-0.325289	0.130693
H179	H	1.082236	-0.375244	-1.040921
H180	H	1.582236	0.124756	-0.540921
C181	C	0.941309	-0.903150	-0.388454
C182	C	1.441309	-0.403150	0.111546
H183	H	0.914314	-0.937907	-0.417807
H184	H	1.414314	-0.437907	0.082193
H185	H	0.970562	-0.874442	-0.416611
H186	H	1.470562	-0.374442	0.083389
H187	H	0.910784	-0.874743	-0.361633
H188	H	1.410784	-0.374743	0.138367
C189	C	0.907561	-0.728680	-0.425056
C190	C	1.407561	-0.228680	0.074944
H191	H	0.911743	-0.777245	-0.420526
H192	H	1.411743	-0.277245	0.079474
H193	H	0.920225	-0.718050	-0.471261
H194	H	1.420225	-0.218050	0.028739
H195	H	0.860440	-0.718339	-0.416290
H196	H	1.360440	-0.218339	0.083710
C197	C	1.122215	-0.415424	-0.719904
C198	C	1.622215	0.084576	-0.219904
H199	H	1.146517	-0.439774	-0.687552
H200	H	1.646517	0.060226	-0.187552
H201	H	1.155112	-0.388273	-0.745975
H202	H	1.655112	0.111727	-0.245975
H203	H	1.095240	-0.448497	-0.751058
H204	H	1.595240	0.051503	-0.251058
C205	C	1.116138	-1.041589	-0.198469
C206	C	1.616138	-0.541589	0.301531
H207	H	1.107984	-1.091254	-0.207371
H208	H	1.607984	-0.591254	0.292629
H209	H	1.104450	-1.028091	-0.151190
H210	H	1.604450	-0.528091	0.348810
H211	H	1.164235	-1.027797	-0.206161
H212	H	1.664235	-0.527797	0.293839
C213	C	0.758026	-0.418287	-0.418079
C214	C	1.258026	0.081713	0.081921
H215	H	0.725677	-0.447706	-0.447421
H216	H	1.225677	0.052294	0.052579
H217	H	0.784269	-0.446585	-0.391242
H218	H	1.284269	0.053415	0.108758
H219	H	0.789011	-0.391330	-0.446259
H220	H	1.289011	0.108670	0.053741
C221	C	0.935067	-1.057742	-0.395340
C222	C	1.435067	-0.557742	0.104660
H223	H	0.939250	-1.106306	-0.390804
H224	H	1.439250	-0.606306	0.109196
H225	H	0.947731	-1.047116	-0.441546
H226	H	1.447731	-0.547116	0.058454
H227	H	0.887945	-1.047401	-0.386576
H228	H	1.387945	-0.547401	0.113424
H229	H	1.109640	-0.898613	-0.205445
H230	H	1.609640	-0.398613	0.294555
H231	H	0.947807	-0.240916	-0.576397
H232	H	1.447807	0.259084	-0.076397
C233	C	0.914147	-0.207027	-1.051449
C234	C	1.414147	0.292973	-0.551449
H235	H	0.887182	-0.180045	-1.019109
H236	H	1.387182	0.319955	-0.519109
H237	H	0.883606	-0.236517	-1.082609
H238	H	1.383606	0.263483	-0.582609
H239	H	0.943466	-0.176283	-1.077514
H240	H	1.443466	0.323717	-0.577514
C241	C	1.083762	-0.376875	-0.831557
C242	C	1.583762	0.123125	-0.331557
H243	H	1.108072	-0.401221	-0.799208
H244	H	1.608072	0.098779	-0.299208
H245	H	1.116651	-0.349710	-0.857623
H246	H	1.616651	0.150290	-0.357623
H247	H	1.056797	-0.409952	-0.862716
H248	H	1.556797	0.090048	-0.362716
H249	H	0.416061	-0.205100	-0.205509
H250	H	0.916061	0.294900	0.294491
H251	H	0.959004	-0.252034	-0.796227
H252	H	1.459004	0.247966	-0.296227
H253	H	1.082132	-0.569564	-0.235154
H254	H	1.582132	-0.069564	0.264846
C255	C	0.604010	-0.227890	-0.228242
C256	C	1.104010	0.272110	0.271758
H257	H	0.636362	-0.198461	-0.198912
H258	H	1.136362	0.301539	0.301088
H259	H	0.573026	-0.254839	-0.200061
H260	H	1.073026	0.245161	0.299939
H261	H	0.577769	-0.199591	-0.255086
H262	H	1.077769	0.300409	0.244914
H263	H	0.282987	-0.211051	-0.211453
H264	H	0.782987	0.288949	0.288547
C265	C	0.913814	-0.574087	-0.418175
C266	C	1.413814	-0.074087	0.081825
H267	H	0.886822	-0.608841	-0.447534
H268	H	1.386822	-0.108841	0.052466
H269	H	0.943079	-0.545384	-0.446325
H270	H	1.443079	-0.045384	0.053675
H271	H	0.883286	-0.545675	-0.391362
H272	H	1.383286	-0.045675	0.108638
H273	H	1.076738	-0.703112	-0.241108
H274	H	1.576738	-0.203112	0.258892
