data_functionalizedCrystal
_audit_creation_method	'MofGen! by Chris Wilmer'
_symmetry_space_group_name_H-M	'P1'
_symmetry_Int_Tables_number	1
_symmetry_cell_setting	triclinic
loop_
_symmetry_equiv_pos_as_xyz
  x,y,z
_cell_length_a	18.050591
_cell_length_b	18.050589
_cell_length_c	18.050582
_cell_angle_alpha	90.018205
_cell_angle_beta	90.010544
_cell_angle_gamma	90.027061
loop_
_atom_site_label
_atom_site_type_symbol
_atom_site_fract_x
_atom_site_fract_y
_atom_site_fract_z
Zn1	Zn	1.135292	-0.295730	0.419848
Zn2	Zn	1.385292	-0.045730	0.669848
Zn3	Zn	1.635292	0.204270	0.919848
Zn4	Zn	1.885292	0.454270	1.169848
Zn5	Zn	1.135203	-0.419913	0.295668
Zn6	Zn	1.385203	-0.169913	0.545668
Zn7	Zn	1.635203	0.080087	0.795668
Zn8	Zn	1.885203	0.330087	1.045668
Zn9	Zn	1.011112	-0.295739	0.295682
Zn10	Zn	1.261112	-0.045739	0.545682
Zn11	Zn	1.511112	0.204261	0.795682
Zn12	Zn	1.761112	0.454261	1.045682
Zn13	Zn	1.011060	-0.419880	0.419826
Zn14	Zn	1.261060	-0.169880	0.669826
Zn15	Zn	1.511060	0.080120	0.919826
Zn16	Zn	1.761060	0.330120	1.169826
O17	O	1.073167	-0.357815	0.357756
O18	O	1.323167	-0.107815	0.607756
O19	O	1.573167	0.142185	0.857756
O20	O	1.823167	0.392185	1.107756
O21	O	1.239205	-0.312213	0.403379
O22	O	1.489205	-0.062213	0.653379
O23	O	1.739205	0.187787	0.903379
O24	O	1.989205	0.437787	1.153379
O25	O	1.118727	-0.403459	0.191745
O26	O	1.368727	-0.153459	0.441745
O27	O	1.618727	0.096541	0.691745
O28	O	1.868727	0.346541	0.941745
O29	O	1.027644	-0.191813	0.312168
O30	O	1.277644	0.058187	0.562168
O31	O	1.527644	0.308187	0.812168
O32	O	1.777644	0.558187	1.062168
O33	O	1.239140	-0.403450	0.312144
O34	O	1.489140	-0.153450	0.562144
O35	O	1.739140	0.096550	0.812144
O36	O	1.989140	0.346550	1.062144
O37	O	1.118879	-0.191806	0.403393
O38	O	1.368879	0.058194	0.653393
O39	O	1.618879	0.308194	0.903393
O40	O	1.868879	0.558194	1.153393
O41	O	1.027557	-0.312228	0.191755
O42	O	1.277557	-0.062228	0.441755
O43	O	1.527557	0.187772	0.691755
O44	O	1.777557	0.437772	0.941755
O45	O	0.907180	-0.312196	0.312146
O46	O	1.157180	-0.062196	0.562146
O47	O	1.407180	0.187804	0.812146
O48	O	1.657180	0.437804	1.062146
O49	O	1.027555	-0.403393	0.523753
O50	O	1.277555	-0.153393	0.773753
O51	O	1.527555	0.096607	1.023753
O52	O	1.777555	0.346607	1.273753
O53	O	0.907142	-0.403402	0.403354
O54	O	1.157142	-0.153402	0.653354
O55	O	1.407142	0.096598	0.903354
O56	O	1.657142	0.346598	1.153354
O57	O	1.118828	-0.312181	0.523770
O58	O	1.368828	-0.062181	0.773770
O59	O	1.618828	0.187819	1.023770
O60	O	1.868828	0.437819	1.273770
O61	O	1.118676	-0.523833	0.312122
O62	O	1.368676	-0.273833	0.562122
O63	O	1.618676	-0.023833	0.812122
O64	O	1.868676	0.226167	1.062122
O65	O	1.027468	-0.523809	0.403341
O66	O	1.277468	-0.273809	0.653341
O67	O	1.527468	-0.023809	0.903341
O68	O	1.777468	0.226191	1.153341
C69	C	0.880215	-0.357797	0.357750
C70	C	1.130215	-0.107797	0.607750
C71	C	1.380215	0.142203	0.857750
C72	C	1.630215	0.392203	1.107750
C73	C	0.797669	-0.357807	0.357765
C74	C	1.047669	-0.107807	0.607765
C75	C	1.297669	0.142193	0.857765
C76	C	1.547669	0.392193	1.107765
C77	C	0.548844	-0.407508	0.407296
C78	C	0.798844	-0.157508	0.657296
C79	C	1.048844	0.092492	0.907296
C80	C	1.298844	0.342492	1.157296
C81	C	0.598214	-0.425579	0.339512
C82	C	0.848214	-0.175579	0.589512
C83	C	1.098214	0.074421	0.839512
C84	C	1.348214	0.324421	1.089512
C85	C	0.500548	-0.357831	0.357764
C86	C	0.750548	-0.107831	0.607764
C87	C	1.000548	0.142169	0.857764
C88	C	1.250548	0.392169	1.107764
C89	C	0.598260	-0.339783	0.425545
C90	C	0.848260	-0.089783	0.675545
C91	C	1.098260	0.160217	0.925545
C92	C	1.348260	0.410217	1.175545
C93	C	0.646534	-0.357821	0.357768
C94	C	0.896534	-0.107821	0.607768
C95	C	1.146534	0.142179	0.857768
C96	C	1.396534	0.392179	1.107768
C97	C	0.548831	-0.375937	0.289943
C98	C	0.798831	-0.125937	0.539943
C99	C	1.048831	0.124063	0.789943
C100	C	1.298831	0.374063	1.039943
C101	C	0.548873	-0.290110	0.376022
C102	C	0.798873	-0.040110	0.626022
C103	C	1.048873	0.209890	0.876022
C104	C	1.298873	0.459890	1.126022
C105	C	0.598221	-0.308155	0.308191
C106	C	0.848221	-0.058155	0.558191
C107	C	1.098221	0.191845	0.808191
C108	C	1.348221	0.441845	1.058191
C109	C	0.416450	-0.357838	0.357762
C110	C	0.666450	-0.107838	0.607762
C111	C	0.916450	0.142162	0.857762
C112	C	1.166450	0.392162	1.107762
C113	C	0.730630	-0.357813	0.357762
C114	C	0.980630	-0.107813	0.607762
C115	C	1.230630	0.142187	0.857762
C116	C	1.480630	0.392187	1.107762
C117	C	1.073077	-0.550767	0.357744
C118	C	1.323077	-0.300767	0.607744
C119	C	1.573077	-0.050767	0.857744
C120	C	1.823077	0.199233	1.107744
C121	C	1.073107	-0.633313	0.357763
C122	C	1.323107	-0.383313	0.607763
C123	C	1.573107	-0.133313	0.857763
C124	C	1.823107	0.116687	1.107763
C125	C	1.023557	-0.832778	0.407350
C126	C	1.273557	-0.582778	0.657350
C127	C	1.523557	-0.332778	0.907350
C128	C	1.773557	-0.082778	1.157350
C129	C	1.005459	-0.882211	0.339584
C130	C	1.255459	-0.632211	0.589584
C131	C	1.505459	-0.382211	0.839584
C132	C	1.755459	-0.132211	1.089584
C133	C	1.073180	-0.784444	0.357773
C134	C	1.323180	-0.534444	0.607773
C135	C	1.573180	-0.284444	0.857773
C136	C	1.823180	-0.034444	1.107773
C137	C	1.091314	-0.882092	0.425547
C138	C	1.341314	-0.632092	0.675547
C139	C	1.591314	-0.382092	0.925547
C140	C	1.841314	-0.132092	1.175547
C141	C	1.073249	-0.930429	0.357788
C142	C	1.323249	-0.680429	0.607788
C143	C	1.573249	-0.430429	0.857788
C144	C	1.823249	-0.180429	1.107788
C145	C	1.055046	-0.832790	0.289971
C146	C	1.305046	-0.582790	0.539971
C147	C	1.555046	-0.332790	0.789971
C148	C	1.805046	-0.082790	1.039971
C149	C	1.140933	-0.832666	0.375979
C150	C	1.390933	-0.582666	0.625979
C151	C	1.640933	-0.332666	0.875979
C152	C	1.890933	-0.082666	1.125979
C153	C	1.122861	-0.882077	0.308166
C154	C	1.372861	-0.632077	0.558166
C155	C	1.622861	-0.382077	0.808166
C156	C	1.872861	-0.132077	1.058166
C157	C	1.073138	-0.700345	0.357765
C158	C	1.323138	-0.450345	0.607765
C159	C	1.573138	-0.200345	0.857765
C160	C	1.823138	0.049655	1.107765
C161	C	1.073291	-1.014525	0.357788
C162	C	1.323291	-0.764525	0.607788
C163	C	1.573291	-0.514525	0.857788
C164	C	1.823291	-0.264525	1.107788
C165	C	1.266872	-0.357834	0.357763
C166	C	1.516872	-0.107834	0.607763
C167	C	1.766872	0.142166	0.857763
C168	C	2.016872	0.392166	1.107763
C169	C	1.349418	-0.357842	0.357765
C170	C	1.599418	-0.107842	0.607765
C171	C	1.849418	0.142158	0.857765
C172	C	2.099418	0.392158	1.107765
C173	C	1.073196	-0.357782	0.551462
C174	C	1.323196	-0.107782	0.801462
C175	C	1.573196	0.142218	1.051462
C176	C	1.823196	0.392218	1.301462
C177	C	1.073208	-0.357768	0.634007
C178	C	1.323208	-0.107768	0.884007
C179	C	1.573208	0.142232	1.134007
C180	C	1.823208	0.392232	1.384007
C181	C	1.073277	-0.164110	0.357785
C182	C	1.323277	0.085890	0.607785
C183	C	1.573277	0.335890	0.857785
C184	C	1.823277	0.585890	1.107785
C185	C	1.073324	-0.081564	0.357797
C186	C	1.323324	0.168436	0.607797
C187	C	1.573324	0.418436	0.857797
C188	C	1.823324	0.668436	1.107797
C189	C	1.073181	-0.357795	0.164804
C190	C	1.323181	-0.107795	0.414804
C191	C	1.573181	0.142205	0.664804
C192	C	1.823181	0.392205	0.914804
C193	C	1.073312	-0.357599	0.082258
C194	C	1.323312	-0.107599	0.332258
C195	C	1.573312	0.142401	0.582258
C196	C	1.823312	0.392401	0.832258
C197	C	1.023612	-0.407302	0.833449
C198	C	1.273612	-0.157302	1.083449
C199	C	1.523612	0.092698	1.333449
C200	C	1.773612	0.342698	1.583449
C201	C	1.091367	-0.425457	0.882837
C202	C	1.341367	-0.175457	1.132837
C203	C	1.591367	0.074543	1.382837
C204	C	1.841367	0.324543	1.632837
C205	C	1.073245	-0.357712	0.785138
C206	C	1.323245	-0.107712	1.035138
C207	C	1.573245	0.142288	1.285138
C208	C	1.823245	0.392288	1.535138
C209	C	1.005527	-0.339536	0.882832
C210	C	1.255527	-0.089536	1.132832
C211	C	1.505527	0.160464	1.382832
C212	C	1.755527	0.410464	1.632832
C213	C	1.073274	-0.357658	0.931123
C214	C	1.323274	-0.107658	1.181123
C215	C	1.573274	0.142342	1.431123
C216	C	1.823274	0.392342	1.681123
C217	C	1.141036	-0.375902	0.833438
C218	C	1.391036	-0.125902	1.083438
C219	C	1.641036	0.124098	1.333438
C220	C	1.891036	0.374098	1.583438
C221	C	1.055150	-0.289950	0.833429
C222	C	1.305150	-0.039950	1.083429
C223	C	1.555150	0.210050	1.333429
C224	C	1.805150	0.460050	1.583429
C225	C	1.122952	-0.308079	0.882794
C226	C	1.372952	-0.058079	1.132794
C227	C	1.622952	0.191921	1.382794
C228	C	1.872952	0.441921	1.632794
C229	C	1.073227	-0.357744	0.701040
C230	C	1.323227	-0.107744	0.951040
C231	C	1.573227	0.142256	1.201040
C232	C	1.823227	0.392256	1.451040
C233	C	1.073300	-0.357626	1.015220
C234	C	1.323300	-0.107626	1.265220
C235	C	1.573300	0.142374	1.515220
C236	C	1.823300	0.392374	1.765220
H237	H	0.527183	-0.232860	0.391488
H238	H	0.777183	0.017140	0.641488
H239	H	1.027183	0.267140	0.891488
H240	H	1.277183	0.517140	1.141488
F241	F	0.626547	-0.500428	0.319322
F242	F	0.876547	-0.250428	0.569322
F243	F	1.126547	-0.000428	0.819322
F244	F	1.376547	0.249572	1.069322
H245	H	1.039807	-0.232684	0.811711
H246	H	1.289807	0.017316	1.061711
H247	H	1.539807	0.267316	1.311711
H248	H	1.789807	0.517316	1.561711
H249	H	1.198184	-0.810889	0.391396
H250	H	1.448184	-0.560889	0.641396
H251	H	1.698184	-0.310889	0.891396
H252	H	1.948184	-0.060889	1.141396
F253	F	0.626641	-0.319836	0.500465
F254	F	0.876641	-0.069836	0.750465
F255	F	1.126641	0.180164	1.000465
F256	F	1.376641	0.430164	1.250465
H257	H	1.106690	-0.482739	0.904539
H258	H	1.356690	-0.232739	1.154539
H259	H	1.606690	0.017261	1.404539
H260	H	1.856690	0.267261	1.654539
F261	F	1.215926	-0.396058	0.805201
F262	F	1.465926	-0.146058	1.055201
F263	F	1.715926	0.103942	1.305201
F264	F	1.965926	0.353942	1.555201
H265	H	1.106625	-0.903748	0.482856
H266	H	1.356625	-0.653748	0.732856
H267	H	1.606625	-0.403748	0.982856
H268	H	1.856625	-0.153748	1.232856
F269	F	1.034949	-0.804604	0.215042
F270	F	1.284949	-0.554604	0.465042
F271	F	1.534949	-0.304604	0.715042
F272	F	1.784949	-0.054604	0.965042
H273	H	0.527211	-0.391267	0.232607
H274	H	0.777211	-0.141267	0.482607
H275	H	1.027211	0.108733	0.732607
H276	H	1.277211	0.358733	0.982607
H277	H	0.619764	-0.266140	0.266256
H278	H	0.869764	-0.016140	0.516256
H279	H	1.119764	0.233860	0.766256
H280	H	1.369764	0.483860	1.016256
H281	H	0.981530	-0.811130	0.449217
H282	H	1.231530	-0.561130	0.699217
H283	H	1.481530	-0.311130	0.949217
H284	H	1.731530	-0.061130	1.199217
F285	F	1.177752	-0.910194	0.253314
F286	F	1.427752	-0.660194	0.503314
F287	F	1.677752	-0.410194	0.753314
F288	F	1.927752	-0.160194	1.003314
F289	F	0.930607	-0.910655	0.319458
F290	F	1.180607	-0.660655	0.569458
F291	F	1.430607	-0.410655	0.819458
F292	F	1.680607	-0.160655	1.069458
H293	H	0.981678	-0.449294	0.811783
H294	H	1.231678	-0.199294	1.061783
H295	H	1.481678	0.050706	1.311783
H296	H	1.731678	0.300706	1.561783
F297	F	0.520504	-0.462463	0.461977
F298	F	0.770504	-0.212463	0.711977
F299	F	1.020504	0.037537	0.961977
F300	F	1.270504	0.287537	1.211977
F301	F	1.177891	-0.253235	0.910940
F302	F	1.427891	-0.003235	1.160940
F303	F	1.677891	0.246765	1.410940
F304	F	1.927891	0.496765	1.660940
H305	H	0.948246	-0.324186	0.904529
H306	H	1.198246	-0.074186	1.154529
H307	H	1.448246	0.175814	1.404529
H308	H	1.698246	0.425814	1.654529
