data_functionalizedCrystal
_audit_creation_method	'MofGen! by Chris Wilmer'
_symmetry_space_group_name_H-M	'P1'
_symmetry_Int_Tables_number	1
_symmetry_cell_setting	triclinic
loop_
_symmetry_equiv_pos_as_xyz
  x,y,z
_cell_length_a	12.827893
_cell_length_b	12.827892
_cell_length_c	19.805407
_cell_angle_alpha	90.008454
_cell_angle_beta	90.006291
_cell_angle_gamma	90.015362
loop_
_atom_site_label
_atom_site_type_symbol
_atom_site_fract_x
_atom_site_fract_y
_atom_site_fract_z
Zn1	Zn	1.597536	-0.416205	0.382689
Zn2	Zn	1.597469	-0.590917	0.269511
Zn3	Zn	1.422817	-0.416190	0.269520
Zn4	Zn	1.422762	-0.590905	0.382663
O5	O	1.510146	-0.503554	0.326096
O6	O	1.743763	-0.439392	0.367683
O7	O	1.574296	-0.567738	0.174795
O8	O	1.446044	-0.269956	0.284547
O9	O	1.743714	-0.567752	0.284531
O10	O	1.574409	-0.269967	0.367692
O11	O	1.445980	-0.439367	0.174802
O12	O	1.276573	-0.439355	0.284521
O13	O	1.445951	-0.567732	0.477383
O14	O	1.276534	-0.567717	0.367647
O15	O	1.574357	-0.439381	0.477403
O16	O	1.574244	-0.737151	0.284506
O17	O	1.445887	-0.737142	0.367639
C18	C	1.238636	-0.503534	0.326083
C19	C	1.122483	-0.503551	0.326094
C20	C	1.070706	-0.567167	0.367163
C21	C	0.950656	-0.567186	0.367175
C22	C	1.510081	-0.775064	0.326083
C23	C	1.510148	-0.891217	0.326101
C24	C	1.573639	-0.942924	0.367280
C25	C	1.573711	-1.062974	0.367299
C26	C	1.782716	-0.503575	0.326109
C27	C	1.898869	-0.503584	0.326115
C28	C	1.510155	-0.503556	0.502639
C29	C	1.510159	-0.503557	0.577871
C30	C	1.510240	-0.230984	0.326123
C31	C	1.510280	-0.114831	0.326135
C32	C	1.577012	-0.436735	0.613226
C33	C	1.577003	-0.436732	0.683914
C34	C	1.510146	-0.503557	0.719246
C35	C	1.443286	-0.570382	0.683886
C36	C	1.443291	-0.570379	0.613199
C37	C	1.443266	-0.570394	0.968959
C38	C	1.443269	-0.570394	1.039651
C39	C	1.576977	-0.436747	1.039675
C40	C	1.576982	-0.436744	0.968987
C41	C	1.510119	-0.503565	0.933633
C42	C	1.510128	-0.503566	0.856985
C43	C	1.510141	-0.503562	0.795893
C44	C	1.510127	-0.503574	1.150240
C45	C	1.510116	-0.503566	1.075008
H46	H	1.627940	-0.898318	0.402525
H47	H	1.455839	-0.935826	0.290862
H48	H	1.628071	-1.107441	0.402552
H49	H	1.077934	-0.449096	0.290944
H50	H	1.455924	-1.070372	0.290875
H51	H	1.631457	-0.382322	0.584464
H52	H	1.631443	-0.382321	0.712697
H53	H	1.631427	-0.382332	0.940224
H54	H	1.631417	-0.382335	1.068468
H55	H	1.388847	-0.624788	0.712659
H56	H	1.388821	-0.624813	1.068417
H57	H	1.388842	-0.624782	0.584413
H58	H	1.115255	-0.621615	0.402319
H59	H	0.906129	-0.621654	0.402335
H60	H	0.943389	-0.449121	0.290949
H61	H	1.388837	-0.624819	0.940183
