data_functionalizedCrystal
_audit_creation_method	'MofGen! by Chris Wilmer'
_symmetry_space_group_name_H-M	'P1'
_symmetry_Int_Tables_number	1
_symmetry_cell_setting	triclinic
loop_
_symmetry_equiv_pos_as_xyz
  x,y,z
_cell_length_a	19.288840
_cell_length_b	16.109304
_cell_length_c	17.766277
_cell_angle_alpha	89.996447
_cell_angle_beta	89.983415
_cell_angle_gamma	83.294327
loop_
_atom_site_label
_atom_site_type_symbol
_atom_site_fract_x
_atom_site_fract_y
_atom_site_fract_z
O1	O	0.921612	0.103617	-0.062715
O2	O	0.719383	0.117629	-0.062689
O3	O	0.826052	-0.010427	-0.062703
O4	O	0.814943	0.231673	-0.062701
O5	O	0.826033	-0.010434	0.062485
O6	O	0.719364	0.117623	0.062500
O7	O	0.921594	0.103610	0.062473
Cu8	Cu	0.820477	0.110616	0.073917
Cu9	Cu	0.820499	0.110624	-0.074133
O10	O	0.814924	0.231667	0.062488
C11	C	0.693496	0.117179	-0.000091
C12	C	0.616388	0.115836	-0.000081
C13	C	0.580193	0.115194	-0.068323
C14	C	0.507743	0.113923	-0.068332
C15	C	0.471493	0.113277	-0.000096
C16	C	0.507696	0.113923	0.068156
C17	C	0.580143	0.115203	0.068163
C18	C	0.362036	0.062549	0.052172
C19	C	0.289590	0.061264	0.052162
C20	C	0.248040	0.109334	-0.000115
C21	C	0.278945	0.158677	-0.052395
C22	C	0.351393	0.159957	-0.052388
C23	C	0.392935	0.111890	-0.000096
C24	C	0.133286	0.107315	-0.068372
C25	C	0.060834	0.106049	-0.068379
C26	C	0.060789	0.106041	0.068111
C27	C	0.133239	0.107315	0.068116
C28	C	0.169483	0.107948	-0.000128
C29	C	0.825592	-0.041404	-0.000111
C30	C	0.824242	-0.133694	-0.000115
C31	C	0.821133	-0.346017	-0.068353
C32	C	0.819858	-0.432733	-0.068352
C33	C	0.819841	-0.432737	0.068136
C34	C	0.821111	-0.346022	0.068134
C35	C	0.821761	-0.302665	-0.000112
C36	C	0.819216	-0.476095	-0.000110
C37	C	0.817833	-0.570116	-0.000108
C38	C	0.823142	-0.208638	-0.000114
C39	C	0.947481	0.104061	-0.000126
C40	C	1.024589	0.105404	-0.000141
C41	C	0.815384	0.262643	-0.000107
C42	C	0.816734	0.354934	-0.000107
N43	N	0.820467	0.110610	0.178048
N44	N	0.820515	0.110623	-0.178263
C45	C	0.867715	0.053934	0.217428
C46	C	0.867719	0.053930	0.296230
C47	C	0.820481	0.110617	0.335648
C48	C	0.773224	0.167297	0.296258
C49	C	0.773217	0.167294	0.217458
C50	C	0.811364	0.186371	0.460488
C51	C	0.811376	0.186375	0.539286
C52	C	0.820500	0.110627	0.578694
C53	C	0.829626	0.034870	0.539294
C54	C	0.829619	0.034867	0.460494
C55	C	0.820484	0.110626	0.421094
C56	C	0.867755	0.053942	0.703521
C57	C	0.867754	0.053937	0.782324
C58	C	0.773263	0.167311	0.782351
C59	C	0.773260	0.167308	0.703549
C60	C	0.820510	0.110625	0.664139
H61	H	0.478176	0.113399	0.123714
H62	H	0.821660	-0.310718	-0.123923
O63	O	0.819283	-0.474721	-0.134708
C64	C	0.820108	-0.417852	-0.194939
H65	H	0.842991	-0.359569	-0.174936
H66	H	0.764556	-0.399687	-0.215913
C67	C	0.837038	-0.530584	-0.283989
C68	C	0.865148	-0.459002	-0.259423
H69	H	0.864818	-0.555968	-0.323767
H70	H	0.836479	-0.568899	-0.243411
H71	H	0.790744	-0.515436	-0.301462
H72	H	0.911437	-0.474152	-0.241941
H73	H	0.865716	-0.420691	-0.300000
O74	O	0.727437	0.222487	0.665326
C75	C	0.738699	0.304754	0.684586
H76	H	0.794309	0.304983	0.706224
H77	H	0.700200	0.329296	0.730342
C78	C	0.659584	0.360875	0.588011
C79	C	0.727887	0.361157	0.614581
H80	H	0.652912	0.395668	0.544830
H81	H	0.651994	0.305450	0.575036
H82	H	0.627509	0.381325	0.626147
H83	H	0.759960	0.340698	0.576448
H84	H	0.735482	0.416579	0.627547
O85	O	0.615322	0.115967	0.134437
C86	C	0.649354	0.188683	0.138518
H87	H	0.622019	0.238619	0.099793
H88	H	0.706050	0.173372	0.120186
C89	C	0.680438	0.160005	0.267612
C90	C	0.646861	0.221341	0.220054
H91	H	0.678904	0.180149	0.317908
H92	H	0.657513	0.111013	0.264863
H93	H	0.727682	0.147252	0.252327
H94	H	0.599616	0.234085	0.235335
H95	H	0.669778	0.270335	0.222809
H96	H	0.395861	0.023403	0.094747
H97	H	0.162709	0.107832	0.123686
H98	H	0.819314	-0.468049	0.123699
O99	O	0.259681	0.013317	0.103017
C100	C	0.311887	-0.028841	0.149156
H101	H	0.359754	0.006510	0.149067
H102	H	0.326846	-0.094768	0.126634
C103	C	0.225259	-0.077009	0.230210
C104	C	0.284047	-0.033586	0.230106
H105	H	0.208086	-0.079940	0.280143
H106	H	0.190086	-0.048609	0.199124
H107	H	0.237732	-0.131944	0.211438
H108	H	0.271571	0.021350	0.248869
H109	H	0.319217	-0.061977	0.261197
O110	O	0.727365	0.222476	0.334461
C111	C	0.738639	0.304744	0.315205
H112	H	0.765407	0.304556	0.257980
H113	H	0.773207	0.330352	0.359537
C114	C	0.635223	0.360505	0.381873
C115	C	0.668094	0.360274	0.311584
H116	H	0.591709	0.394759	0.379642
H117	H	0.627629	0.305079	0.394849
H118	H	0.664037	0.381843	0.418809
H119	H	0.639284	0.338926	0.274652
H120	H	0.675682	0.415697	0.298602
O121	O	0.025572	0.105260	0.134380
C122	C	-0.008455	0.032539	0.138449
H123	H	0.018906	-0.017387	0.099720
H124	H	-0.065142	0.047847	0.120115
C125	C	-0.039616	0.061187	0.267545
C126	C	-0.006007	-0.000136	0.219982
H127	H	-0.038109	0.041032	0.317838
H128	H	-0.016693	0.110182	0.264803
H129	H	-0.086852	0.073938	0.252257
H130	H	0.041230	-0.012878	0.235264
H131	H	-0.028922	-0.049134	0.222728
O132	O	0.821693	-0.303771	0.134360
C133	C	0.822968	-0.217940	0.119721
H134	H	0.801172	-0.202572	0.061075
H135	H	0.879019	-0.202268	0.122946
C136	C	0.804859	-0.184987	0.250628
C137	C	0.778082	-0.166111	0.178600
H138	H	0.777174	-0.153016	0.286948
H139	H	0.804002	-0.242814	0.260491
H140	H	0.851567	-0.171927	0.253304
H141	H	0.731378	-0.179181	0.175922
H142	H	0.778930	-0.108286	0.168738
O143	O	0.913416	-0.001388	0.179178
C144	C	0.876056	-0.052557	0.133799
H145	H	0.821790	-0.019070	0.121902
H146	H	0.871131	-0.113812	0.164377
C147	C	0.981852	-0.112068	0.073604
C148	C	0.915204	-0.070936	0.058987
H149	H	1.006001	-0.123409	0.027458
H150	H	1.007024	-0.077597	0.104179
H151	H	0.977739	-0.163110	0.099088
H152	H	0.919318	-0.019891	0.033512
H153	H	0.890034	-0.105399	0.028406
O154	O	0.802531	0.260035	0.422327
C155	C	0.794472	0.326897	0.473997
H156	H	0.818895	0.305414	0.530163
H157	H	0.736551	0.348360	0.482394
C158	C	0.800924	0.426345	0.374241
C159	C	0.830925	0.399961	0.443223
H160	H	0.823407	0.471417	0.355257
H161	H	0.806350	0.381300	0.339429
H162	H	0.752658	0.444225	0.381248
H163	H	0.879188	0.382072	0.436213
H164	H	0.825508	0.445005	0.478033
O165	O	0.913587	-0.001241	0.334416
C166	C	0.902309	-0.083512	0.315193
H167	H	0.875538	-0.083335	0.257987
H168	H	0.867742	-0.109108	0.359558
C169	C	1.005727	-0.139263	0.381802
C170	C	0.972852	-0.139046	0.311538
H171	H	1.049240	-0.173520	0.379551
H172	H	1.013324	-0.083835	0.394756
H173	H	0.976914	-0.160591	0.418766
H174	H	1.001660	-0.117708	0.274578
H175	H	0.965261	-0.194472	0.298578
O176	O	0.838455	-0.038792	0.422337
C177	C	0.846529	-0.105654	0.474008
H178	H	0.822112	-0.084175	0.530191
H179	H	0.904452	-0.127108	0.482362
C180	C	0.840075	-0.205104	0.374269
C181	C	0.810080	-0.178725	0.443272
H182	H	0.817595	-0.250180	0.355309
H183	H	0.834638	-0.160059	0.339456
H184	H	0.888343	-0.222977	0.381240
H185	H	0.761815	-0.160844	0.436298
H186	H	0.815508	-0.223770	0.478083
H187	H	0.837055	-0.026812	0.571378
O188	O	0.238556	0.205477	-0.103085
C189	C	0.190260	0.262793	-0.064549
H190	H	0.210872	0.274084	-0.005751
H191	H	0.138149	0.236279	-0.059937
C192	C	0.154737	0.332101	-0.180331
C193	C	0.180056	0.345973	-0.108115
H194	H	0.148439	0.383409	-0.207205
H195	H	0.187273	0.293484	-0.206294
H196	H	0.111314	0.310003	-0.176477
H197	H	0.223482	0.368060	-0.111970
H198	H	0.147527	0.384595	-0.082153
O199	O	0.913755	-0.000985	0.665224
C200	C	0.956576	0.043449	0.619645
H201	H	0.957668	0.109025	0.643387
H202	H	0.934876	0.047846	0.559913
C203	C	1.029846	-0.083075	0.589311
C204	C	1.031192	-0.002536	0.618476
H205	H	1.075872	-0.111443	0.588586
H206	H	1.000996	-0.113013	0.620016
H207	H	1.011760	-0.079400	0.539537
H208	H	1.049270	-0.006213	0.668252
H209	H	1.060047	0.027399	0.587779
H210	H	0.734741	0.213447	0.185393
O211	O	0.168543	0.107794	-0.134642
C212	C	0.218354	0.036553	-0.138722
H213	H	0.202026	-0.014153	-0.100001
H214	H	0.271472	0.053794	-0.120384
C215	C	0.243124	0.066219	-0.267812
C216	C	0.223066	0.003938	-0.220260
H217	H	0.246033	0.046102	-0.318109
H218	H	0.209567	0.114217	-0.265064
H219	H	0.287387	0.080581	-0.252522
H220	H	0.178800	-0.010415	-0.235545
H221	H	0.256616	-0.044064	-0.223013
H222	H	0.906228	0.007780	0.814388
H223	H	0.609699	0.115710	-0.123893
H224	H	0.803949	0.248061	0.571360
H225	H	0.734798	0.213463	0.814445
H226	H	0.478267	0.113402	-0.123905
H227	H	0.376553	0.200136	-0.094955
H228	H	0.031365	0.105531	-0.123952
