data_functionalizedCrystal
_audit_creation_method	'MofGen! by Chris Wilmer'
_symmetry_space_group_name_H-M	'P1'
_symmetry_Int_Tables_number	1
_symmetry_cell_setting	triclinic
loop_
_symmetry_equiv_pos_as_xyz
  x,y,z
_cell_length_a	10.654541
_cell_length_b	16.109301
_cell_length_c	14.586319
_cell_angle_alpha	89.998390
_cell_angle_beta	90.004543
_cell_angle_gamma	96.027295
loop_
_atom_site_label
_atom_site_type_symbol
_atom_site_fract_x
_atom_site_fract_y
_atom_site_fract_z
O1	O	1.666263	-0.116759	0.076216
O2	O	1.300633	-0.127886	0.076224
O3	O	1.493492	-0.001351	0.076210
O4	O	1.473404	-0.243294	0.076229
O5	O	1.493469	-0.001359	-0.076271
O6	O	1.300610	-0.127894	-0.076257
O7	O	1.666240	-0.116766	-0.076265
Cu8	Cu	1.483423	-0.122331	-0.090184
Cu9	Cu	1.483450	-0.122322	0.090142
O10	O	1.473381	-0.243301	-0.076252
C11	C	1.253835	-0.127073	-0.000016
C12	C	1.114424	-0.124630	-0.000013
C13	C	1.492667	0.029625	-0.000031
C14	C	1.490227	0.121935	-0.000032
N15	N	1.483412	-0.122336	-0.217016
C16	C	1.084401	-0.275937	0.000011
C17	C	1.003896	-0.350439	0.000026
C18	C	0.872909	-0.348139	0.000027
C19	C	0.822426	-0.271327	0.000009
C20	C	0.902931	-0.196825	-0.000006
C21	C	1.033919	-0.199134	-0.000004
C22	C	0.932954	-0.045520	-0.000036
C23	C	1.063941	-0.047819	-0.000030
C24	C	0.882471	0.031291	-0.000053
C25	C	0.962976	0.105795	-0.000062
C26	C	1.093970	0.103491	-0.000062
C27	C	1.144446	0.026683	-0.000045
C28	C	1.713038	-0.117579	-0.000024
C29	C	1.852449	-0.120022	-0.000021
C30	C	1.474206	-0.274277	-0.000009
C31	C	1.476646	-0.366587	-0.000001
C32	C	1.598994	0.343561	-0.000020
C33	C	1.596692	0.430295	-0.000012
C34	C	1.367871	0.411780	-0.000011
C35	C	1.370174	0.325047	-0.000012
C36	C	1.485739	0.290941	-0.000021
C37	C	1.481134	0.464407	-0.000012
C38	C	1.478637	0.558448	-0.000004
C39	C	1.488237	0.196894	-0.000028
C40	C	1.559575	-0.173217	-0.452020
C41	C	1.559588	-0.173212	-0.548001
C42	C	1.407305	-0.071423	-0.548015
C43	C	1.407300	-0.071425	-0.452036
C44	C	1.483432	-0.122327	-0.404040
C45	C	1.483451	-0.122319	-0.596001
C46	C	1.483464	-0.122313	-0.700068
C47	C	1.483421	-0.122332	-0.299967
N48	N	1.483471	-0.122310	0.216974
H49	H	1.191055	-0.277818	0.000030
Cl50	Cl	1.311591	-0.007442	-0.608359
H51	H	1.273781	0.439561	-0.000005
Cl52	Cl	1.655295	-0.237201	-0.391686
H53	H	1.159511	0.164161	-0.000078
Cl54	Cl	1.655317	-0.237190	-0.608314
Cl55	Cl	1.227785	0.258891	-0.000005
H56	H	1.045014	-0.412978	0.000038
Cl57	Cl	0.771699	-0.441799	0.000037
H58	H	1.345294	-0.029979	-0.412970
H59	H	0.715768	-0.269461	-0.000001
Cl60	Cl	1.309114	0.023781	-0.000040
H61	H	0.775813	0.033159	-0.000058
H62	H	0.921861	0.168329	-0.000076
H63	H	1.688915	0.473136	-0.000009
Cl64	Cl	1.744275	0.300687	-0.000029
