data_functionalizedCrystal
_audit_creation_method	'MofGen! by Chris Wilmer'
_symmetry_space_group_name_H-M	'P1'
_symmetry_Int_Tables_number	1
_symmetry_cell_setting	triclinic
loop_
_symmetry_equiv_pos_as_xyz
  x,y,z
_cell_length_a	19.077236
_cell_length_b	17.637651
_cell_length_c	19.076919
_cell_angle_alpha	80.566536
_cell_angle_beta	89.887323
_cell_angle_gamma	102.996166
loop_
_atom_site_label
_atom_site_type_symbol
_atom_site_fract_x
_atom_site_fract_y
_atom_site_fract_z
Zn1	Zn	1.008868	-0.286804	-0.386873
Zn2	Zn	1.508868	0.213196	0.113127
Zn3	Zn	0.991689	-0.413421	-0.245673
Zn4	Zn	1.491689	0.086579	0.254327
Zn5	Zn	0.896155	-0.286390	-0.264730
Zn6	Zn	1.396155	0.213610	0.235270
Zn7	Zn	0.867692	-0.423962	-0.356438
Zn8	Zn	1.367692	0.076038	0.143562
O9	O	0.941101	-0.352644	-0.313429
O10	O	1.441101	0.147356	0.186571
O11	O	1.105653	-0.299362	-0.372904
O12	O	1.605653	0.200638	0.127096
O13	O	0.983739	-0.391985	-0.150728
O14	O	1.483739	0.108015	0.349272
O15	O	0.930208	-0.175881	-0.301646
O16	O	1.430208	0.324119	0.198354
O17	O	1.093032	-0.392387	-0.269164
O18	O	1.593032	0.107613	0.230836
O19	O	1.013018	-0.176185	-0.391383
O20	O	1.513018	0.323815	0.108617
O21	O	0.913550	-0.298656	-0.164730
O22	O	1.413550	0.201344	0.335270
O23	O	0.793315	-0.308877	-0.272135
O24	O	1.293315	0.191123	0.227865
O25	O	0.881697	-0.410352	-0.457949
O26	O	1.381697	0.089648	0.042051
O27	O	0.772404	-0.409950	-0.339512
O28	O	1.272404	0.090050	0.160488
O29	O	0.985418	-0.309583	-0.480309
O30	O	1.485418	0.190417	0.019691
O31	O	0.956139	-0.525383	-0.239653
O32	O	1.456139	-0.025383	0.260347
O33	O	0.865039	-0.533127	-0.321033
O34	O	1.365039	-0.033127	0.178967
C35	C	0.757173	-0.360513	-0.304589
C36	C	1.257173	0.139487	0.195411
C37	C	0.678484	-0.363899	-0.300820
C38	C	1.178484	0.136101	0.199180
C39	C	0.648070	-0.317140	-0.353114
C40	C	1.148070	0.182860	0.146886
C41	C	0.574134	-0.320318	-0.349568
C42	C	1.074134	0.179682	0.150432
C43	C	0.530612	-0.370259	-0.293730
C44	C	1.030612	0.129741	0.206270
C45	C	0.561031	-0.417020	-0.241431
C46	C	1.061031	0.082980	0.258569
C47	C	0.634966	-0.413837	-0.244975
C48	C	1.134966	0.086163	0.255025
C49	C	0.308786	-0.384957	-0.277330
C50	C	0.808786	0.115043	0.222670
C51	C	0.234846	-0.388138	-0.273791
C52	C	0.734846	0.111862	0.226209
C53	C	0.247954	-0.291434	-0.381928
C54	C	0.747954	0.208566	0.118072
C55	C	0.321890	-0.288260	-0.385469
C56	C	0.821890	0.211740	0.114531
C57	C	0.352303	-0.335018	-0.333168
C58	C	0.852303	0.164982	0.166832
N59	N	0.455037	-0.373510	-0.290105
N60	N	0.955037	0.126490	0.209895
N61	N	0.427877	-0.331762	-0.336791
N62	N	0.927877	0.168238	0.163209
C63	C	0.905655	-0.557923	-0.274989
C64	C	1.405655	-0.057923	0.225011
C65	C	0.890554	-0.645741	-0.258570
C66	C	1.390554	-0.145741	0.241430
C67	C	1.056267	-0.935079	-0.438399
C68	C	1.556267	-0.435079	0.061601
C69	C	1.042056	-1.017597	-0.422959
C70	C	1.542056	-0.517597	0.077041
C71	C	0.955891	-1.017381	-0.329432
C72	C	1.455891	-0.517381	0.170568
C73	C	0.970097	-0.934861	-0.344862
C74	C	1.470097	-0.434861	0.155138
C75	C	1.020286	-0.893716	-0.399348
C76	C	1.520286	-0.393716	0.100652
C77	C	0.934116	-0.893498	-0.305811
C78	C	1.434116	-0.393498	0.194189
C79	C	0.948318	-0.810985	-0.321243
C80	C	1.448318	-0.310985	0.178757
C81	C	0.998503	-0.769835	-0.375727
C82	C	1.498503	-0.269835	0.124273
C83	C	1.034488	-0.811203	-0.414780
C84	C	1.534488	-0.311203	0.085220
C85	C	0.883924	-0.934644	-0.251329
C86	C	1.383924	-0.434644	0.248671
C87	C	0.847942	-0.893281	-0.212277
C88	C	1.347942	-0.393281	0.287723
C89	C	0.862148	-0.810767	-0.227706
C90	C	1.362148	-0.310767	0.272294
C91	C	0.912333	-0.769617	-0.282190
C92	C	1.412333	-0.269617	0.217810
C93	C	0.826163	-0.769398	-0.188653
C94	C	1.326163	-0.269398	0.311347
C95	C	0.840366	-0.686885	-0.204085
C96	C	1.340366	-0.186885	0.295915
C97	C	0.926536	-0.687104	-0.297622
C98	C	1.426536	-0.187104	0.202378
C99	C	1.125747	-0.344745	-0.322303
C100	C	1.625747	0.155255	0.177697
C101	C	1.204432	-0.341379	-0.326085
C102	C	1.704432	0.158621	0.173915
C103	C	0.932299	-0.361189	-0.495109
C104	C	1.432299	0.138811	0.004891
C105	C	0.928548	-0.364831	-0.572530
C106	C	1.428548	0.135169	-0.072530
C107	C	0.976704	-0.146563	-0.352035
C108	C	1.476704	0.353437	0.147965
C109	C	0.991876	-0.058744	-0.368487
C110	C	1.491876	0.441256	0.131513
C111	C	0.980785	-0.314079	-0.620545
C112	C	1.480785	0.185921	-0.120545
C113	C	0.977253	-0.317498	-0.693291
C114	C	1.477253	0.182502	-0.193291
C115	C	0.921485	-0.371673	-0.718019
C116	C	1.421485	0.128327	-0.218019
C117	C	0.869243	-0.422427	-0.669999
C118	C	1.369243	0.077573	-0.169999
C119	C	0.872773	-0.419004	-0.597255
C120	C	1.372773	0.080996	-0.097255
C121	C	0.905134	-0.387534	-0.934331
C122	C	1.405134	0.112466	-0.434331
C123	C	0.901609	-0.390955	-1.007080
C124	C	1.401609	0.109045	-0.507080
C125	C	1.009618	-0.286024	-1.030368
C126	C	1.509618	0.213976	-0.530368
C127	C	1.013146	-0.282609	-0.957621
C128	C	1.513146	0.217391	-0.457621
C129	C	0.960902	-0.333360	-0.909607
C130	C	1.460902	0.166640	-0.409607
N131	N	0.917874	-0.375171	-0.792377
N132	N	1.417874	0.124829	-0.292377
N133	N	0.964510	-0.329858	-0.835252
N134	N	1.464510	0.170142	-0.335252
C135	C	0.949919	-0.344073	-0.132468
C136	C	1.449919	0.155927	0.367532
C137	C	0.953846	-0.340203	-0.055095
C138	C	1.453846	0.159797	0.444905
H139	H	0.549375	-0.282243	-0.392152
H140	H	1.049375	0.217757	0.107848
Br141	Br	0.834229	-0.456410	-0.869178
Br142	Br	1.334229	0.043590	-0.369178
Br143	Br	0.994661	-0.631256	-0.371557
Br144	Br	1.494661	-0.131256	0.128443
H145	H	0.823833	-0.466535	-0.690139
H146	H	1.323833	0.033465	-0.190139
Br147	Br	0.801873	-0.487880	-0.532091
Br148	Br	1.301873	0.012120	-0.032091
Br149	Br	0.887773	-1.073227	-0.255497
Br150	Br	1.387773	-0.573227	0.244503
H151	H	1.026199	-0.269966	-0.600417
H152	H	1.526199	0.230034	-0.100417
H153	H	0.785295	-0.802911	-0.144296
H154	H	1.285295	-0.302911	0.355704
Br155	Br	0.825917	-0.464481	-1.040640
Br156	Br	1.325917	0.035519	-0.540640
H157	H	0.872355	-1.001832	-0.238772
H158	H	1.372355	-0.501832	0.261228
Br159	Br	0.206676	-0.227981	-0.452903
Br160	Br	0.706676	0.272019	0.047097
Br161	Br	0.380949	-0.220488	-0.461258
Br162	Br	0.880949	0.279512	0.038742
Br163	Br	0.707128	-0.249365	-0.428902
Br164	Br	1.207128	0.250635	0.071098
H165	H	1.058560	-0.238496	-0.937493
H166	H	1.558560	0.261504	-0.437493
Br167	Br	0.175774	-0.455943	-0.198021
Br168	Br	0.675774	0.044057	0.301979
H169	H	1.052152	-0.244705	-1.069468
H170	H	1.552152	0.255295	-0.569468
H171	H	0.333539	-0.423031	-0.234743
H172	H	0.833539	0.076969	0.265257
Br173	Br	0.501967	-0.484791	-0.165645
Br174	Br	1.001967	0.015209	0.334355
H175	H	0.811065	-0.653208	-0.172285
H176	H	1.311065	-0.153208	0.327715
H177	H	1.010066	-0.702647	-0.388290
H178	H	1.510066	-0.202647	0.111710
H179	H	0.807077	-0.926793	-0.167917
H180	H	1.307077	-0.426793	0.332083
Br181	Br	1.102614	-0.755355	-0.488714
Br182	Br	1.602614	-0.255355	0.011286
Br183	Br	0.676243	-0.477297	-0.174001
Br184	Br	1.176243	0.022703	0.325999
H185	H	1.097141	-0.901577	-0.482762
H186	H	1.597141	-0.401577	0.017238
H187	H	1.071350	-1.051273	-0.454773
H188	H	1.571350	-0.551273	0.045227
H189	H	1.019791	-0.276172	-0.732382
H190	H	1.519791	0.223828	-0.232382
