data_functionalizedCrystal
_audit_creation_method	'MofGen! by Chris Wilmer'
_symmetry_space_group_name_H-M	'P1'
_symmetry_Int_Tables_number	1
_symmetry_cell_setting	triclinic
loop_
_symmetry_equiv_pos_as_xyz
  x,y,z
_cell_length_a	18.101398
_cell_length_b	18.101395
_cell_length_c	16.625539
_cell_angle_alpha	89.972352
_cell_angle_beta	89.974087
_cell_angle_gamma	90.026371
loop_
_atom_site_label
_atom_site_type_symbol
_atom_site_fract_x
_atom_site_fract_y
_atom_site_fract_z
Zn1	Zn	1.132133	-0.294922	-0.456028
Zn2	Zn	1.132025	-0.418771	-0.321197
Zn3	Zn	1.008288	-0.294937	-0.321196
Zn4	Zn	1.008242	-0.418716	-0.455974
O5	O	1.070172	-0.356836	-0.388599
O6	O	1.235751	-0.311367	-0.438165
O7	O	1.115585	-0.402374	-0.208364
O8	O	1.024781	-0.191302	-0.339104
O9	O	1.235672	-0.402358	-0.339105
O10	O	1.115769	-0.191291	-0.438164
O11	O	1.024676	-0.311394	-0.208364
O12	O	0.904649	-0.311340	-0.339052
O13	O	1.024702	-0.402265	-0.568814
O14	O	0.904615	-0.402280	-0.438072
O15	O	1.115724	-0.311314	-0.568853
O16	O	1.115541	-0.522396	-0.339053
O17	O	1.024598	-0.522356	-0.438073
C18	C	0.877761	-0.356806	-0.388557
C19	C	0.795447	-0.356811	-0.388558
C20	C	0.496356	-0.356858	-0.388625
C21	C	0.527678	-0.299355	-0.326628
C22	C	0.613296	-0.299509	-0.326364
C23	C	0.644739	-0.356834	-0.388592
C24	C	0.613620	-0.434846	-0.365377
C25	C	0.527975	-0.434526	-0.364946
C26	C	0.527973	-0.337026	-0.473984
C27	C	0.613624	-0.335289	-0.473518
C28	C	0.728598	-0.356825	-0.388574
C29	C	0.412497	-0.356871	-0.388641
C30	C	1.070073	-0.549247	-0.388575
C31	C	1.070098	-0.631561	-0.388592
C32	C	1.070261	-0.930652	-0.388635
C33	C	1.013175	-0.899332	-0.451091
C34	C	1.012904	-0.813714	-0.450895
C35	C	1.070180	-0.782270	-0.388614
C36	C	1.049049	-0.813420	-0.303634
C37	C	1.048681	-0.899065	-0.304008
C38	C	1.148603	-0.899002	-0.410412
C39	C	1.148142	-0.813351	-0.412275
C40	C	1.070136	-0.698410	-0.388597
C41	C	1.070303	-1.014511	-0.388646
C42	C	1.263334	-0.356867	-0.388641
C43	C	1.345648	-0.356880	-0.388660
C44	C	1.070220	-0.356781	-0.598908
C45	C	1.070241	-0.356758	-0.688529
C46	C	1.070292	-0.163675	-0.388640
C47	C	1.070343	-0.081360	-0.388658
C48	C	1.070275	-0.356675	-1.016705
C49	C	1.070263	-0.356700	-0.925396
C50	C	1.070258	-0.356717	-0.852620
C51	C	1.070246	-0.356741	-0.761305
C52	C	1.070167	-0.356838	-0.179108
C53	C	1.070290	-0.356653	-0.089487
H54	H	0.507108	-0.241329	-0.341019
C55	C	1.208643	-0.784432	-0.355299
N56	N	1.254210	-0.762652	-0.312377
C57	C	0.971313	-0.926137	-0.279094
N58	N	0.913037	-0.946525	-0.260331
C59	C	1.030762	-0.785257	-0.536022
N60	N	1.044210	-0.763826	-0.600144
H61	H	1.088456	-0.919786	-0.255886
C62	C	0.935200	-0.928478	-0.431843
N63	N	0.876469	-0.950429	-0.417340
H64	H	1.164078	-0.792989	-0.474816
H65	H	1.026265	-0.919881	-0.514306
H66	H	0.506127	-0.312317	-0.263746
C67	C	0.934442	-0.786114	-0.431466
N68	N	0.875337	-0.765326	-0.416852
H69	H	1.191134	-0.919256	-0.364923
H70	H	0.634337	-0.241660	-0.340915
C71	C	0.640929	-0.317225	-0.240916
N72	N	0.661741	-0.330571	-0.176554
H73	H	0.633986	-0.478838	-0.409119
H74	H	0.507962	-0.451344	-0.302545
H75	H	0.507254	-0.478821	-0.408133
H76	H	0.992388	-0.792030	-0.284858
C77	C	0.642541	-0.457958	-0.281982
N78	N	0.664321	-0.475362	-0.219166
C79	C	0.498838	-0.261509	-0.502495
N80	N	0.476896	-0.204624	-0.523960
H81	H	0.633968	-0.277881	-0.491023
H82	H	0.635030	-0.374119	-0.522186
C83	C	0.500605	-0.393605	-0.536391
N84	N	0.479987	-0.436221	-0.583390
C85	C	1.103447	-0.785901	-0.239050
N86	N	1.144420	-0.765170	-0.190406
C87	C	1.174627	-0.928109	-0.492704
N88	N	1.194220	-0.950032	-0.554691
