data_functionalizedCrystal
_audit_creation_method	'MofGen! by Chris Wilmer'
_symmetry_space_group_name_H-M	'P1'
_symmetry_Int_Tables_number	1
_symmetry_cell_setting	triclinic
loop_
_symmetry_equiv_pos_as_xyz
  x,y,z
_cell_length_a	17.019383
_cell_length_b	17.019294
_cell_length_c	15.500227
_cell_angle_alpha	88.951630
_cell_angle_beta	83.288908
_cell_angle_gamma	83.133350
loop_
_atom_site_label
_atom_site_type_symbol
_atom_site_fract_x
_atom_site_fract_y
_atom_site_fract_z
O1	O	1.054586	0.092540	-0.157327
O2	O	0.824086	0.106165	-0.141188
O3	O	0.945330	-0.015075	-0.141175
O4	O	0.933342	0.213780	-0.157340
O5	O	0.937973	-0.007747	0.002715
O6	O	0.816728	0.113493	0.002702
O7	O	1.047229	0.099868	-0.013437
Cu8	Cu	0.931307	0.107350	0.007771
Cu9	Cu	0.940008	0.098683	-0.162396
O10	O	0.925984	0.221109	-0.013450
C11	C	0.790905	0.109455	-0.067020
C12	C	0.702999	0.108330	-0.060394
C13	C	0.665704	0.103809	-0.135709
C14	C	0.583105	0.102766	-0.129472
C15	C	0.537803	0.106238	-0.047918
C16	C	0.575104	0.110761	0.027403
C17	C	0.657701	0.111810	0.021164
C18	C	0.288213	0.103275	-0.025157
C19	C	0.205611	0.102224	-0.018924
C20	C	0.213617	0.094230	-0.175800
C21	C	0.296216	0.095274	-0.182031
C22	C	0.333509	0.099802	-0.106710
C23	C	0.453374	0.105169	-0.041540
C24	C	0.417936	0.100877	-0.113089
C25	C	0.941052	-0.040686	-0.067005
C26	C	0.939256	-0.127918	-0.060375
C27	C	0.942424	-0.172889	-0.135695
C28	C	0.940731	-0.254851	-0.129462
C29	C	0.935876	-0.291841	-0.047910
C30	C	0.932705	-0.246863	0.027415
C31	C	0.934392	-0.164902	0.021182
C32	C	0.930575	-0.539110	-0.025166
C33	C	0.928890	-0.621078	-0.018938
C34	C	0.936916	-0.629060	-0.175817
C35	C	0.938608	-0.547098	-0.182043
C36	C	0.935432	-0.502127	-0.106717
C37	C	0.934148	-0.375619	-0.041537
C38	C	0.937155	-0.418349	-0.113090
C39	C	1.080409	0.096578	-0.087608
C40	C	1.168316	0.097703	-0.094239
C41	C	0.930263	0.246720	-0.087622
C42	C	0.932059	0.333950	-0.094258
N43	N	0.925193	0.113445	0.127456
N44	N	0.946128	0.092582	-0.282082
C45	C	0.976586	0.062090	0.172736
C46	C	0.971969	0.066707	0.263308
C47	C	0.915962	0.122683	0.308599
C48	C	0.864563	0.174041	0.263313
C49	C	0.869177	0.169419	0.172743
C50	C	0.899343	0.139318	0.582063
C51	C	0.894735	0.143937	0.672639
C52	C	1.002140	0.036602	0.672628
C53	C	1.006752	0.031989	0.582055
C54	C	0.955350	0.083343	0.536778
C55	C	0.911244	0.127406	0.401178
C56	C	0.960066	0.078617	0.444201
H57	H	0.454824	0.098054	-0.179491
H58	H	0.849125	0.189523	0.709510
C59	C	0.403544	0.108982	0.048167
H60	H	0.437582	0.111827	0.092134
H61	H	0.377065	0.062913	0.056832
H62	H	0.365248	0.154573	0.050882
H63	H	1.005664	0.033038	0.407323
C64	C	0.346044	0.091472	-0.271739
H65	H	0.400577	0.092741	-0.264667
H66	H	0.328236	0.135489	-0.305914
H67	H	0.340068	0.043829	-0.299976
H68	H	1.043988	-0.005209	0.709501
H69	H	0.942563	-0.516987	-0.248451
H70	H	0.183244	0.090545	-0.237121
H71	H	0.928746	-0.276986	0.093817
H72	H	0.702583	0.100980	-0.202119
C73	C	0.930906	-0.115429	0.104031
H74	H	0.932598	-0.061318	0.088640
H75	H	0.975109	-0.133433	0.134316
H76	H	0.882845	-0.121006	0.140246
C77	C	0.842810	0.195812	0.532268
H78	H	0.808801	0.229816	0.572214
H79	H	0.811571	0.165885	0.501503
H80	H	0.873183	0.226604	0.492370
C81	C	1.068355	-0.029590	0.532243
H82	H	1.098298	-0.059519	0.572183
H83	H	1.103189	-0.003266	0.492342
H84	H	1.041578	-0.063986	0.501481
H85	H	0.939500	-0.665685	-0.237142
H86	H	0.924932	-0.651192	0.047475
C87	C	0.947765	-0.132208	-0.225403
H88	H	0.949403	-0.170732	-0.269366
H89	H	0.994720	-0.106615	-0.234068
H90	H	0.902454	-0.094186	-0.228124
H91	H	0.941103	-0.388228	-0.179489
H92	H	0.818957	0.219615	0.300194
H93	H	0.538212	0.113593	0.093806
C94	C	0.698730	0.116783	0.104009
H95	H	0.754408	0.116919	0.088613
H96	H	0.689462	0.072427	0.140239
H97	H	0.677636	0.164086	0.134278
C98	C	0.927096	-0.489654	0.057688
H99	H	0.923974	-0.523426	0.107147
H100	H	0.881459	-0.451298	0.061496
H101	H	0.973725	-0.463735	0.055544
H102	H	0.943315	-0.291464	-0.190795
H103	H	0.930197	-0.405746	0.024863
H104	H	0.318567	0.106957	0.036175
H105	H	1.022196	0.016512	0.135866
C106	C	1.028510	0.010224	0.313111
H107	H	1.062534	-0.023767	0.273165
H108	H	0.998150	-0.020571	0.353011
H109	H	1.059743	0.040166	0.343871
C110	C	0.542086	0.097774	-0.212318
H111	H	0.580897	0.095842	-0.261780
H112	H	0.504116	0.143020	-0.216136
H113	H	0.515948	0.051362	-0.210154
H114	H	0.827326	0.211237	0.135877
C115	C	0.155779	0.106049	0.070789
H116	H	0.189818	0.108903	0.114754
H117	H	0.129304	0.059978	0.079462
H118	H	0.117480	0.151637	0.073498
H119	H	0.865643	0.172984	0.438061
