data_functionalizedCrystal
_audit_creation_method	'MofGen! by Chris Wilmer'
_symmetry_space_group_name_H-M	'P1'
_symmetry_Int_Tables_number	1
_symmetry_cell_setting	triclinic
loop_
_symmetry_equiv_pos_as_xyz
  x,y,z
_cell_length_a	8.597187
_cell_length_b	7.681481
_cell_length_c	8.634740
_cell_angle_alpha	83.366800
_cell_angle_beta	87.119854
_cell_angle_gamma	91.833072
loop_
_atom_site_label
_atom_site_type_symbol
_atom_site_fract_x
_atom_site_fract_y
_atom_site_fract_z
O1	O	2.077453	0.461593	-0.276122
O2	O	1.629067	0.393571	-0.287121
O3	O	1.832036	0.424358	-0.056504
O4	O	1.874485	0.430806	-0.506739
O5	O	1.857008	0.135288	-0.028053
O6	O	1.654040	0.104501	-0.258670
O7	O	2.102425	0.172523	-0.247670
Zn8	Zn	1.882197	0.092616	-0.248653
Zn9	Zn	1.849295	0.473478	-0.286139
O10	O	1.899457	0.141737	-0.478288
C11	C	1.583554	0.240238	-0.270129
C12	C	1.410732	0.214020	-0.261866
N13	N	1.904663	-0.167310	-0.223069
C14	C	2.147938	0.325861	-0.264663
C15	C	2.320760	0.352090	-0.272927
C16	C	1.834905	0.278367	0.015462
C17	C	1.806232	0.274025	0.187511
N18	N	1.826840	0.733407	-0.311711
C19	C	1.896587	0.287731	-0.550254
C20	C	1.925260	0.292085	-0.722304
H21	H	1.355545	0.075765	-0.246092
H22	H	1.984124	-0.230463	-0.132598
F23	F	2.087132	0.316651	0.206579
H24	H	1.747397	-0.203447	-0.402187
H25	H	1.682381	0.255248	0.241928
H26	H	1.375954	0.490354	-0.288720
