data_functionalizedCrystal
_audit_creation_method	'MofGen! by Chris Wilmer'
_symmetry_space_group_name_H-M	'P1'
_symmetry_Int_Tables_number	1
_symmetry_cell_setting	triclinic
loop_
_symmetry_equiv_pos_as_xyz
  x,y,z
_cell_length_a	25.639242
_cell_length_b	25.639240
_cell_length_c	13.032268
_cell_angle_alpha	97.135339
_cell_angle_beta	97.154830
_cell_angle_gamma	90.027658
loop_
_atom_site_label
_atom_site_type_symbol
_atom_site_fract_x
_atom_site_fract_y
_atom_site_fract_z
Zn1	Zn	0.761703	-0.245750	-0.590985
Zn2	Zn	1.261703	0.254250	-0.090985
Zn3	Zn	0.772738	-0.322090	-0.416219
Zn4	Zn	1.272738	0.177910	0.083781
Zn5	Zn	0.685380	-0.234664	-0.416242
Zn6	Zn	1.185380	0.265336	0.083758
Zn7	Zn	0.674240	-0.333142	-0.590873
Zn8	Zn	1.174240	0.166858	-0.090873
O9	O	0.723515	-0.283912	-0.503580
O10	O	1.223515	0.216088	-0.003580
O11	O	0.836329	-0.255892	-0.567839
O12	O	1.336329	0.244108	-0.067839
O13	O	0.770430	-0.301228	-0.269999
O14	O	1.270430	0.198772	0.230001
O15	O	0.695548	-0.162973	-0.439479
O16	O	1.195548	0.337027	0.060521
O17	O	0.844437	-0.311978	-0.439439
O18	O	1.344437	0.188022	0.060561
O19	O	0.751622	-0.171118	-0.567861
O20	O	1.251622	0.328882	-0.067861
O21	O	0.706248	-0.236997	-0.270016
O22	O	1.206248	0.263003	0.229984
O23	O	0.610739	-0.247713	-0.439371
O24	O	1.110739	0.252287	0.060629
O25	O	0.676562	-0.330814	-0.737112
O26	O	1.176562	0.169186	-0.237112
O27	O	0.602555	-0.320064	-0.567671
O28	O	1.102555	0.179936	-0.067671
O29	O	0.740820	-0.266608	-0.737194
O30	O	1.240820	0.233392	-0.237194
O31	O	0.759628	-0.396718	-0.439331
O32	O	1.259628	0.103282	0.060669
O33	O	0.687262	-0.404837	-0.567649
O34	O	1.187262	0.095163	-0.067649
C35	C	0.587677	-0.283885	-0.503512
C36	C	1.087677	0.216115	-0.003512
C37	C	0.529563	-0.283888	-0.503508
C38	C	1.029563	0.216112	-0.003508
C39	C	0.282611	-0.246190	-0.436889
C40	C	0.782611	0.253810	0.063111
C41	C	0.337216	-0.246184	-0.436876
C42	C	0.837216	0.253816	0.063124
O43	O	0.369062	-0.214097	-0.380176
O44	O	0.869062	0.285903	0.119824
N45	N	0.360286	-0.283898	-0.503560
N46	N	0.860286	0.216102	-0.003560
C47	C	0.328747	-0.321616	-0.570270
C48	C	0.828747	0.178384	-0.070270
O49	O	0.353384	-0.353694	-0.626989
O50	O	0.853384	0.146306	-0.126989
C51	C	0.274143	-0.321619	-0.570287
C52	C	0.774143	0.178381	-0.070287
C53	C	0.251076	-0.283907	-0.503591
C54	C	0.751076	0.216093	-0.003591
C55	C	0.259544	-0.208480	-0.370200
C56	C	0.759544	0.291520	0.129800
C57	C	0.204942	-0.208486	-0.370212
C58	C	0.704942	0.291514	0.129788
C59	C	0.173408	-0.246203	-0.436914
C60	C	0.673408	0.253797	0.063086
C61	C	0.196475	-0.283913	-0.503603
C62	C	0.696475	0.216087	-0.003603
C63	C	0.242605	-0.359335	-0.637001
C64	C	0.742605	0.140665	-0.137001
C65	C	0.187997	-0.359335	-0.637014
C66	C	0.687997	0.140665	-0.137014
C67	C	0.164931	-0.321622	-0.570318
C68	C	0.664931	0.178378	-0.070318
C69	C	0.110339	-0.321636	-0.570318
C70	C	0.610339	0.178364	-0.070318
N71	N	0.087269	-0.283922	-0.503633
N72	N	0.587269	0.216078	-0.003633
C73	C	0.118804	-0.246206	-0.436932
C74	C	0.618804	0.253794	0.063068
C75	C	0.443421	-0.321607	-0.570228
C76	C	0.943421	0.178393	-0.070228
C77	C	0.498024	-0.321607	-0.570206
C78	C	0.998024	0.178393	-0.070206
C79	C	0.506489	-0.246174	-0.436814
C80	C	1.006489	0.253826	0.063186
C81	C	0.451884	-0.246177	-0.436832
C82	C	0.951884	0.253823	0.063168
C83	C	0.420350	-0.283893	-0.503544
C84	C	0.920350	0.216107	-0.003544
C85	C	0.004137	-0.246222	-0.436961
C86	C	0.504137	0.253778	0.063039
C87	C	-0.050470	-0.246233	-0.436976
C88	C	0.449530	0.253767	0.063024
C89	C	-0.058930	-0.321664	-0.570372
C90	C	0.441070	0.178336	-0.070372
C91	C	-0.004328	-0.321655	-0.570354
C92	C	0.495672	0.178345	-0.070354
C93	C	0.027204	-0.283930	-0.503645
C94	C	0.527204	0.216070	-0.003645
O95	O	0.078460	-0.353705	-0.626992
O96	O	0.578460	0.146295	-0.126992
O97	O	0.094159	-0.214129	-0.380231
O98	O	0.594159	0.285871	0.119769
C99	C	0.723446	-0.419749	-0.503498
C100	C	1.223446	0.080251	-0.003498
C101	C	0.723463	-0.477863	-0.503498
C102	C	1.223463	0.022137	-0.003498
C103	C	0.752722	-0.842442	-0.570549
C104	C	1.252722	-0.342442	-0.070549
C105	C	0.752736	-0.897047	-0.570571
C106	C	1.252736	-0.397047	-0.070571
O107	O	0.777530	-0.928863	-0.627496
O108	O	1.277530	-0.428863	-0.127496
N109	N	0.723581	-0.920157	-0.503681
N110	N	1.223581	-0.420157	-0.003681
C111	C	0.694406	-0.888659	-0.436773
C112	C	1.194406	-0.388659	0.063227
O113	O	0.669609	-0.913330	-0.379881
O114	O	1.169609	-0.413330	0.120119
C115	C	0.694390	-0.834054	-0.436758
C116	C	1.194390	-0.334054	0.063242
C117	C	0.723551	-0.810947	-0.503645
C118	C	1.223551	-0.310947	-0.003645
C119	C	0.781880	-0.819334	-0.637431
C120	C	1.281880	-0.319334	-0.137431
C121	C	0.781866	-0.764732	-0.637409
C122	C	1.281866	-0.264732	-0.137409
C123	C	0.752695	-0.733238	-0.570504
C124	C	1.252695	-0.233238	-0.070504
C125	C	0.723537	-0.756345	-0.503622
C126	C	1.223537	-0.256345	-0.003622
C127	C	0.665212	-0.802557	-0.369856
C128	C	1.165212	-0.302557	0.130144
C129	C	0.665198	-0.747950	-0.369848
C130	C	1.165198	-0.247950	0.130152
C131	C	0.694359	-0.724843	-0.436734
C132	C	1.194359	-0.224843	0.063266
C133	C	0.694352	-0.670249	-0.436694
C134	C	1.194352	-0.170249	0.063306
N135	N	0.723507	-0.647139	-0.503584
N136	N	1.223507	-0.147139	-0.003584
C137	C	0.752678	-0.678633	-0.570489
C138	C	1.252678	-0.178633	-0.070489
C139	C	0.694443	-1.003332	-0.436812
C140	C	1.194443	-0.503332	0.063188
C141	C	0.694462	-1.057935	-0.436821
C142	C	1.194462	-0.557935	0.063179
C143	C	0.752791	-1.066319	-0.570620
C144	C	1.252791	-0.566319	-0.070620
C145	C	0.752774	-1.011715	-0.570605
C146	C	1.252774	-0.511715	-0.070605
C147	C	0.723598	-0.980222	-0.503701
C148	C	1.223598	-0.480222	-0.003701
C149	C	0.752648	-0.563965	-0.570435
C150	C	1.252648	-0.063965	-0.070435
C151	C	0.752634	-0.509357	-0.570403
C152	C	1.252634	-0.009357	-0.070403
C153	C	0.694303	-0.500978	-0.436608
C154	C	1.194303	-0.000978	0.063392
C155	C	0.694320	-0.555580	-0.436636
C156	C	1.194320	-0.055580	0.063364
C157	C	0.723493	-0.587073	-0.503557
C158	C	1.223493	-0.087073	-0.003557
O159	O	0.669569	-0.638401	-0.379801
O160	O	1.169569	-0.138401	0.120199
O161	O	0.777466	-0.653956	-0.627381
O162	O	1.277466	-0.153956	-0.127381
C163	C	0.859884	-0.283939	-0.503649
C164	C	1.359884	0.216061	-0.003649
C165	C	0.917996	-0.283950	-0.503678
C166	C	1.417996	0.216050	-0.003678
C167	C	0.706218	-0.301180	-0.776127
C168	C	1.206218	0.198820	-0.276127
C169	C	0.698847	-0.308539	-0.892271
C170	C	1.198847	0.191461	-0.392271
C171	C	0.723597	-0.147545	-0.503685
C172	C	1.223597	0.352455	-0.003685
C173	C	0.723632	-0.089434	-0.503730
C174	C	1.223632	0.410566	-0.003730
C175	C	0.727354	-0.280052	-0.944092
C176	C	1.227354	0.219948	-0.444092
C177	C	0.719736	-0.287657	-1.064132
C178	C	1.219736	0.212343	-0.564132
C179	C	0.740775	-0.266672	-0.232093
C180	C	1.240775	0.233328	0.267907
C181	C	0.748248	-0.259166	-0.115950
C182	C	1.248248	0.240834	0.384050
H183	H	0.285213	-0.177763	-0.315883
H184	H	0.785213	0.322237	0.184117
H185	H	0.670723	-1.076743	-0.382344
H186	H	1.170723	-0.576743	0.117656
C187	C	0.021047	-0.363140	-0.643711
C188	C	0.521047	0.136860	-0.143711
H189	H	-0.005557	-0.385602	-0.683440
H190	H	0.494443	0.114398	-0.183440
H191	H	0.044878	-0.383349	-0.603653
H192	H	0.544878	0.116651	-0.103653
H193	H	0.039465	-0.346058	-0.689320
H194	H	0.539465	0.153942	-0.189320
C195	C	0.784876	-1.100971	-0.644221
C196	C	1.284876	-0.600971	-0.144221
H197	H	0.780703	-1.136800	-0.634652
H198	H	1.280703	-0.636800	-0.134652
H199	H	0.820976	-1.091038	-0.629007
H200	H	1.320976	-0.591038	-0.129007
H201	H	0.772734	-1.096458	-0.714413
H202	H	1.272734	-0.596458	-0.214413
C203	C	0.658259	-0.349096	-0.952381
C204	C	1.158259	0.150904	-0.452381
H205	H	0.658467	-0.348890	-1.025176
H206	H	1.158467	0.151110	-0.525176
H207	H	0.624258	-0.340319	-0.934537
H208	H	1.124258	0.159681	-0.434537
H209	H	0.667020	-0.383104	-0.934523
H210	H	1.167020	0.116896	-0.434523
H211	H	0.776400	-0.589601	-0.624936
H212	H	1.276400	-0.089601	-0.124936
H213	H	-0.084614	-0.352374	-0.624675
H214	H	0.415386	0.147626	-0.124675
H215	H	-0.069248	-0.215522	-0.382662
H216	H	0.430752	0.284478	0.117338
C217	C	0.523396	-0.363100	-0.643546
C218	C	1.023396	0.136900	-0.143546
H219	H	0.560434	-0.357703	-0.633983
H220	H	1.060434	0.142297	-0.133983
H221	H	0.510007	-0.359962	-0.713789
H222	H	1.010007	0.140038	-0.213789
H223	H	0.515405	-0.397238	-0.628095
H224	H	1.015405	0.102762	-0.128095
H225	H	0.757398	-0.250031	-0.899588
H226	H	1.257398	0.249969	-0.399588
H227	H	0.261376	-0.390045	-0.691312
H228	H	0.761376	0.109955	-0.191312
C229	C	0.038814	-0.204727	-0.363581
C230	C	0.538814	0.295273	0.136419
H231	H	0.017250	-0.182274	-0.323864
H232	H	0.517250	0.317726	0.176136
H233	H	0.057590	-0.184509	-0.403628
H234	H	0.557590	0.315491	0.096372
H235	H	0.062992	-0.221801	-0.317962
H236	H	0.562992	0.278199	0.182038
H237	H	0.186167	-0.177776	-0.315901
H238	H	0.686167	0.322224	0.184099
H239	H	0.433107	-0.215466	-0.382526
H240	H	0.933107	0.284534	0.117474
H241	H	0.776519	-0.992905	-0.625070
H242	H	1.276519	-0.492905	-0.125070
C243	C	0.813973	-0.853972	-0.711026
C244	C	1.313973	-0.353972	-0.211026
H245	H	0.809811	-0.889804	-0.701471
H246	H	1.309811	-0.389804	-0.201471
H247	H	0.850070	-0.844028	-0.695797
H248	H	1.350070	-0.344028	-0.195797
H249	H	0.801834	-0.849456	-0.781218
H250	H	1.301834	-0.349456	-0.281218
H251	H	0.532174	-0.215462	-0.382504
H252	H	1.032174	0.284538	0.117496
C253	C	0.788840	-0.218610	-1.055846
C254	C	1.288840	0.281390	-0.555846
H255	H	0.788638	-0.218820	-0.983051
H256	H	1.288638	0.281180	-0.483051
H257	H	0.780087	-0.184603	-1.073706
H258	H	1.280087	0.315397	-0.573706
H259	H	0.822842	-0.227394	-1.073692
H260	H	1.322842	0.272606	-0.573692
H261	H	0.417749	-0.352324	-0.624552
H262	H	0.917749	0.147676	-0.124552
C263	C	0.662354	-0.968692	-0.363199
C264	C	1.162354	-0.468692	0.136801
H265	H	0.644999	-0.990280	-0.323363
H266	H	1.144999	-0.490280	0.176637
H267	H	0.637015	-0.949926	-0.403105
H268	H	1.137015	-0.449926	0.096895
H269	H	0.685258	-0.944507	-0.317701
H270	H	1.185258	-0.444507	0.182299
H271	H	0.162324	-0.390047	-0.691344
H272	H	0.662324	0.109953	-0.191344
C273	C	0.679146	-0.328216	-1.124238
C274	C	1.179146	0.171784	-0.624238
H275	H	0.679355	-0.328010	-1.197034
H276	H	1.179355	0.171990	-0.697034
H277	H	0.645145	-0.319440	-1.106394
H278	H	1.145145	0.180560	-0.606394
H279	H	0.687907	-0.362224	-1.106380
H280	H	1.187907	0.137776	-0.606380
H281	H	0.776382	-0.490546	-0.624870
H282	H	1.276382	0.009454	-0.124870
H283	H	0.670554	-0.475326	-0.382132
H284	H	1.170554	0.024674	0.117868
C285	C	0.813941	-0.739321	-0.710988
C286	C	1.313941	-0.239321	-0.210988
H287	H	0.831311	-0.765905	-0.750837
H288	H	1.331311	-0.265905	-0.250837
H289	H	0.839268	-0.715484	-0.671064
H290	H	1.339268	-0.215484	-0.171064
H291	H	0.791028	-0.720907	-0.756477
H292	H	1.291028	-0.220907	-0.256477
C293	C	0.633131	-0.827964	-0.296288
C294	C	1.133131	-0.327964	0.203712
H295	H	0.615752	-0.801380	-0.256456
H296	H	1.115752	-0.301380	0.243544
H297	H	0.656034	-0.846382	-0.250798
H298	H	1.156034	-0.346382	0.249202
H299	H	0.607802	-0.851799	-0.336228
H300	H	1.107802	-0.351799	0.163772
H301	H	0.641437	-0.722310	-0.315368
H302	H	1.141437	-0.222310	0.184632
H303	H	0.670579	-0.574394	-0.382163
H304	H	1.170579	-0.074394	0.117837
