data_functionalizedCrystal
_audit_creation_method	'MofGen! by Chris Wilmer'
_symmetry_space_group_name_H-M	'P1'
_symmetry_Int_Tables_number	1
_symmetry_cell_setting	triclinic
loop_
_symmetry_equiv_pos_as_xyz
  x,y,z
_cell_length_a	12.759401
_cell_length_b	14.908506
_cell_length_c	12.759386
_cell_angle_alpha	93.232694
_cell_angle_beta	89.959540
_cell_angle_gamma	93.318774
loop_
_atom_site_label
_atom_site_type_symbol
_atom_site_fract_x
_atom_site_fract_y
_atom_site_fract_z
Zn1	Zn	1.582328	-0.358827	-0.618076
Zn2	Zn	1.571993	-0.509794	-0.452532
Zn3	Zn	1.406554	-0.358957	-0.442424
Zn4	Zn	1.396467	-0.509636	-0.628163
O5	O	1.489335	-0.434304	-0.535299
O6	O	1.727977	-0.378865	-0.596125
O7	O	1.549943	-0.489905	-0.304178
O8	O	1.438418	-0.232700	-0.457273
O9	O	1.720384	-0.489780	-0.474501
O10	O	1.567558	-0.232604	-0.586324
O11	O	1.428396	-0.379086	-0.296752
O12	O	1.258196	-0.378933	-0.467054
O13	O	1.421225	-0.489511	-0.773838
O14	O	1.250785	-0.489637	-0.603515
O15	O	1.557777	-0.378712	-0.766428
O16	O	1.540162	-0.636013	-0.484282
O17	O	1.411204	-0.635897	-0.613317
C18	C	1.216369	-0.434282	-0.535283
C19	C	1.099592	-0.434295	-0.535302
C20	C	1.048669	-0.376651	-0.598744
C21	C	0.938944	-0.376668	-0.598751
C22	C	0.931073	-0.491982	-0.471874
C23	C	1.040797	-0.491959	-0.471862
C24	C	1.053213	-0.310078	-0.671999
C25	C	0.943487	-0.310095	-0.672006
C26	C	1.473495	-0.668688	-0.551014
C27	C	1.466815	-0.768959	-0.557772
C28	C	1.390206	-0.910258	-0.634416
C29	C	1.396480	-0.816045	-0.628073
C30	C	1.530882	-0.816092	-0.493811
C31	C	1.524608	-0.910305	-0.500153
C32	C	1.454266	-0.957385	-0.570457
C33	C	1.447987	-1.051600	-0.576794
C34	C	1.582394	-1.051646	-0.442537
C35	C	1.588668	-0.957433	-0.436195
C36	C	1.763367	-0.434326	-0.535316
C37	C	1.880143	-0.434335	-0.535323
C38	C	1.489529	-0.434080	-0.809318
C39	C	1.489611	-0.433984	-0.926088
C40	C	1.505266	-0.199004	-0.519546
C41	C	1.512055	-0.098733	-0.512832
C42	C	1.489208	-0.434462	-0.262342
C43	C	1.489346	-0.434303	-0.145555
C44	C	1.553213	-0.491497	-0.094473
C45	C	1.553343	-0.491340	0.015261
C46	C	1.425737	-0.376788	0.022823
C47	C	1.425602	-0.376950	-0.086910
C48	C	1.626888	-0.557631	-0.098838
C49	C	1.627018	-0.557474	0.010897
H50	H	1.087676	-0.240191	-0.645653
H51	H	1.332932	-0.948590	-0.691661
H52	H	1.600915	-0.627676	-0.133046
H53	H	1.373839	-0.330093	0.070585
H54	H	1.085620	-0.335141	-0.750920
H55	H	1.082254	-0.538890	-0.420191
C56	C	0.866395	-0.555414	-0.402103
H57	H	0.793754	-0.547176	-0.411200
H58	H	0.885213	-0.542174	-0.330649
H59	H	0.880307	-0.616034	-0.421435
C60	C	0.903513	-0.220423	-0.626811
H61	H	0.961638	-0.180474	-0.606684
H62	H	0.860841	-0.231114	-0.567253
H63	H	0.863409	-0.194351	-0.678626
H64	H	1.705651	-0.532177	-0.131387
H65	H	1.593998	-0.623982	0.040733
C66	C	1.738521	-0.531441	0.052595
H67	H	1.784287	-0.520833	-0.004721
H68	H	1.762795	-0.579024	0.090868
H69	H	1.737266	-0.478387	0.097352
H70	H	0.912511	-0.328856	-0.754602
C71	C	1.370621	-1.103386	-0.654128
H72	H	1.333377	-1.061822	-0.691319
H73	H	1.322395	-1.140218	-0.616386
H74	H	1.408373	-1.140056	-0.702411
H75	H	1.344317	-0.777676	-0.680156
H76	H	1.588160	-0.777748	-0.436579
C77	C	1.666038	-0.905645	-0.358864
H78	H	1.703295	-0.947208	-0.321685
H79	H	1.628299	-0.868969	-0.310587
H80	H	1.714268	-0.868818	-0.396620
C81	C	1.652848	-1.103487	-0.372165
H82	H	1.639038	-1.166340	-0.386007
H83	H	1.638493	-1.088125	-0.300533
H84	H	1.724479	-1.087988	-0.386551
H85	H	1.373584	-0.330386	-0.128497
