data_functionalizedCrystal
_audit_creation_method	'MofGen! by Chris Wilmer'
_symmetry_space_group_name_H-M	'P1'
_symmetry_Int_Tables_number	1
_symmetry_cell_setting	triclinic
loop_
_symmetry_equiv_pos_as_xyz
  x,y,z
_cell_length_a	23.532407
_cell_length_b	23.532407
_cell_length_c	9.730217
_cell_angle_alpha	89.992119
_cell_angle_beta	90.001277
_cell_angle_gamma	82.848712
loop_
_atom_site_label
_atom_site_type_symbol
_atom_site_fract_x
_atom_site_fract_y
_atom_site_fract_z
O1	O	0.755257	0.069134	-0.114217
O2	O	1.255257	0.569134	0.385783
O3	O	0.589394	0.079137	-0.114241
O4	O	1.089394	0.579137	0.385759
O5	O	0.677327	-0.008796	-0.114203
O6	O	1.177327	0.491204	0.385797
O7	O	0.667324	0.157068	-0.114255
O8	O	1.167324	0.657068	0.385745
O9	O	0.677324	-0.008797	0.114377
O10	O	1.177324	0.491203	0.614377
O11	O	0.589391	0.079137	0.114339
O12	O	1.089391	0.579137	0.614339
O13	O	0.755254	0.069134	0.114363
O14	O	1.255254	0.569134	0.614363
Zn15	Zn	0.672322	0.074135	0.150643
Zn16	Zn	1.172322	0.574135	0.650643
Zn17	Zn	0.672326	0.074136	-0.150521
Zn18	Zn	1.172326	0.574136	0.349479
O19	O	0.667321	0.157067	0.114325
O20	O	1.167321	0.657067	0.614325
C21	C	0.568176	0.078882	0.000047
C22	C	1.068176	0.578882	0.500047
C23	C	0.504959	0.078116	0.000039
C24	C	1.004959	0.578116	0.500039
C25	C	0.238792	0.022921	0.000093
C26	C	0.738792	0.522921	0.500093
C27	C	0.298192	0.023632	0.000093
C28	C	0.798192	0.523632	0.500093
O29	O	0.334937	-0.020153	0.000154
O30	O	0.834937	0.479847	0.500154
N31	N	0.320818	0.075909	0.000067
N32	N	0.820818	0.575909	0.500067
C33	C	0.284041	0.127477	0.000056
C34	C	0.784041	0.627477	0.500056
O35	O	0.308740	0.172007	0.000035
O36	O	0.808740	0.672007	0.500035
C37	C	0.224642	0.126765	0.000066
C38	C	0.724642	0.626765	0.500066
C39	C	0.202019	0.074485	0.000078
C40	C	0.702019	0.574485	0.500078
C41	C	0.216169	-0.029354	0.000107
C42	C	0.716169	0.470646	0.500107
C43	C	0.156772	-0.030066	0.000105
C44	C	0.656772	0.469934	0.500105
C45	C	0.119999	0.021499	0.000089
C46	C	0.619999	0.521499	0.500089
C47	C	0.142623	0.073774	0.000076
C48	C	0.642623	0.573774	0.500076
C49	C	0.187865	0.178333	0.000065
C50	C	0.687865	0.678333	0.500065
C51	C	0.128463	0.177616	0.000077
C52	C	0.628463	0.677616	0.500077
C53	C	0.105840	0.125336	0.000088
C54	C	0.605840	0.625336	0.500088
C55	C	0.046454	0.124627	0.000059
C56	C	0.546454	0.624627	0.500059
N57	N	0.023828	0.072351	0.000085
N58	N	0.523828	0.572351	0.500085
C59	C	0.060600	0.020787	0.000100
C60	C	0.560600	0.520787	0.500100
C61	C	0.408783	0.128968	0.000036
C62	C	0.908783	0.628968	0.500036
C63	C	0.468181	0.129681	0.000016
C64	C	0.968181	0.629681	0.500016
C65	C	0.482328	0.025836	0.000056
C66	C	0.982328	0.525836	0.500056
C67	C	0.422929	0.025124	0.000066
C68	C	0.922929	0.525124	0.500066
C69	C	0.386157	0.076692	0.000062
C70	C	0.886157	0.576692	0.500062
C71	C	-0.064136	0.019297	0.000094
C72	C	0.435864	0.519297	0.500094
C73	C	-0.123538	0.018590	0.000087
C74	C	0.376462	0.518590	0.500087
C75	C	-0.137680	0.122435	0.000055
C76	C	0.362320	0.622435	0.500055
C77	C	-0.078284	0.123142	0.000055
C78	C	0.421716	0.623142	0.500055
C79	C	-0.041512	0.071568	0.000080
C80	C	0.458488	0.571568	0.500080
O81	O	0.009675	0.168390	0.000003
O82	O	0.509675	0.668390	0.500003
O83	O	0.035892	-0.023737	0.000138
O84	O	0.535892	0.476263	0.500138
C85	C	0.677071	-0.030012	0.000091
C86	C	1.177071	0.469988	0.500091
C87	C	0.676305	-0.093229	0.000101
C88	C	1.176305	0.406771	0.500101
C89	C	0.723538	-0.492332	0.000032
C90	C	1.223538	0.007668	0.500032
C91	C	0.722827	-0.551733	0.000022
C92	C	1.222827	-0.051733	0.500022
O93	O	0.766613	-0.588477	-0.000023
O94	O	1.266613	-0.088477	0.499977
N95	N	0.670551	-0.574359	0.000015
N96	N	1.170551	-0.074359	0.500015
C97	C	0.618982	-0.537581	0.000005
C98	C	1.118982	-0.037581	0.500005
O99	O	0.574452	-0.562281	-0.000002
O100	O	1.074452	-0.062281	0.499998
C101	C	0.619695	-0.478182	0.000006
C102	C	1.119695	0.021818	0.500006
C103	C	0.671974	-0.455559	0.000027
C104	C	1.171974	0.044441	0.500027
C105	C	0.775814	-0.469709	0.000051
C106	C	1.275814	0.030291	0.500051
C107	C	0.776525	-0.410313	0.000064
C108	C	1.276525	0.089687	0.500064
C109	C	0.724961	-0.373540	0.000059
C110	C	1.224961	0.126460	0.500059
C111	C	0.672685	-0.396163	0.000040
C112	C	1.172685	0.103837	0.500040
C113	C	0.568127	-0.441406	-0.000014
C114	C	1.068127	0.058594	0.499986
C115	C	0.568843	-0.382003	-0.000014
C116	C	1.068843	0.117997	0.499986
C117	C	0.621123	-0.359381	0.000006
C118	C	1.121123	0.140619	0.500006
C119	C	0.621832	-0.299994	0.000047
C120	C	1.121832	0.200006	0.500047
N121	N	0.674109	-0.277368	0.000053
N122	N	1.174109	0.222632	0.500053
C123	C	0.725673	-0.314141	0.000059
C124	C	1.225673	0.185859	0.500059
C125	C	0.617491	-0.662324	0.000002
C126	C	1.117491	-0.162324	0.500002
C127	C	0.616778	-0.721722	0.000011
C128	C	1.116778	-0.221722	0.500011
C129	C	0.720623	-0.735869	0.000025
C130	C	1.220623	-0.235869	0.500025
C131	C	0.721335	-0.676470	0.000025
C132	C	1.221335	-0.176470	0.500025
C133	C	0.669767	-0.639698	0.000008
C134	C	1.169767	-0.139698	0.500008
C135	C	0.727163	-0.189404	0.000088
C136	C	1.227163	0.310596	0.500088
C137	C	0.727869	-0.130002	0.000107
C138	C	1.227869	0.369998	0.500107
C139	C	0.624025	-0.115860	0.000086
C140	C	1.124025	0.384140	0.500086
C141	C	0.623318	-0.175257	0.000074
C142	C	1.123318	0.324743	0.500074
C143	C	0.674891	-0.212028	0.000071
C144	C	1.174891	0.287972	0.500071
O145	O	0.578069	-0.263215	0.000086
O146	O	1.078069	0.236785	0.500086
O147	O	0.770196	-0.289433	0.000049
O148	O	1.270196	0.210567	0.500049
C149	C	0.776472	0.069389	0.000073
C150	C	1.276472	0.569389	0.500073
C151	C	0.839689	0.070155	0.000072
C152	C	1.339689	0.570155	0.500072
C153	C	0.667577	0.178283	0.000029
C154	C	1.167577	0.678283	0.500029
C155	C	0.668343	0.241500	0.000009
C156	C	1.168343	0.741500	0.500009
N157	N	0.672324	0.074134	0.356180
N158	N	1.172324	0.574134	0.856180
N159	N	0.672329	0.074133	-0.356057
N160	N	1.172329	0.574133	0.143943
C161	C	0.750220	-0.003709	0.356204
C162	C	1.250220	0.496291	0.856204
C163	C	0.789172	-0.042629	0.428156
C164	C	1.289172	0.457371	0.928156
C165	C	0.789178	-0.042629	0.572035
C166	C	1.289178	0.457371	1.072035
C167	C	0.750227	-0.003707	0.643967
C168	C	1.250227	0.496293	1.143967
C169	C	0.711275	0.035213	0.572015
C170	C	1.211275	0.535213	1.072015
C171	C	0.711274	0.035210	0.428132
C172	C	1.211274	0.535210	0.928132
C173	C	0.633377	0.113052	0.571991
C174	C	1.133377	0.613052	1.071991
C175	C	0.633373	0.113056	0.428111
C176	C	1.133373	0.613056	0.928111
C177	C	0.594425	0.151975	0.643922
C178	C	1.094425	0.651975	1.143922
C179	C	0.555475	0.190898	0.571970
C180	C	1.055475	0.690898	1.071970
C181	C	0.555471	0.190897	0.428081
C182	C	1.055471	0.690897	0.928081
C183	C	0.594421	0.151976	0.356159
C184	C	1.094421	0.651976	0.856159
H185	H	-0.141954	-0.023984	0.000093
H186	H	0.358046	0.476016	0.500093
Br187	Br	0.842030	-0.095454	0.330535
Br188	Br	1.342030	0.404546	0.830535
H189	H	0.750224	-0.003708	0.239049
H190	H	1.250224	0.496292	0.739049
Br191	Br	0.750225	-0.003716	0.839233
Br192	Br	1.250225	0.496284	1.339233
Br193	Br	-0.014242	-0.050696	0.000127
Br194	Br	0.485758	0.449304	0.500127
H195	H	0.526850	-0.352065	-0.000030
H196	H	1.026850	0.147935	0.499970
Br197	Br	0.842037	-0.095454	0.669689
Br198	Br	1.342037	0.404546	1.169689
Br199	Br	0.126080	-0.101020	0.000102
Br200	Br	0.626080	0.398980	0.500102
Br201	Br	0.392234	-0.045829	0.000085
Br202	Br	0.892234	0.454171	0.500085
H203	H	0.594429	0.151970	0.761076
H204	H	1.094429	0.651970	1.261076
H205	H	0.769159	-0.219337	0.000080
H206	H	1.269159	0.280663	0.500080
Br207	Br	0.792288	-0.645774	0.000056
Br208	Br	1.292288	-0.145774	0.500056
H209	H	0.523761	0.222584	0.630545
H210	H	1.023761	0.722584	1.130545
Br211	Br	-0.047580	0.194093	0.000017
Br212	Br	0.452420	0.694093	0.500017
Br213	Br	0.498876	0.200635	-0.000035
Br214	Br	0.998876	0.700635	0.499965
Br215	Br	0.845804	-0.519605	0.000058
Br216	Br	1.345804	-0.019605	0.500058
Br217	Br	0.798825	-0.099304	0.000136
Br218	Br	1.298825	0.400696	0.500136
Br219	Br	0.847480	-0.379620	0.000053
Br220	Br	1.347480	0.120380	0.500053
H221	H	0.575496	-0.632386	-0.000001
H222	H	1.075496	-0.132386	0.499999
H223	H	0.762610	-0.765821	0.000024
H224	H	1.262610	-0.265821	0.500024
Br225	Br	0.358883	0.198960	0.000017
Br226	Br	0.858883	0.698960	0.500017
Br227	Br	0.218552	0.249288	0.000046
Br228	Br	0.718552	0.749288	0.500046
Br229	Br	0.552367	-0.205960	0.000078
Br230	Br	1.052367	0.294040	0.500078
H231	H	0.574207	-0.740135	0.000018
H232	H	1.074207	-0.240135	0.500018
Br233	Br	0.502600	0.243716	0.330445
Br234	Br	1.002600	0.743716	0.830445
Br235	Br	0.497171	-0.472092	-0.000047
Br236	Br	0.997171	0.027908	0.499953
H237	H	0.594423	0.151974	0.239004
H238	H	1.094423	0.651974	0.739004
Br239	Br	0.554048	-0.065943	0.000078
Br240	Br	1.054048	0.434057	0.500078
Br241	Br	0.266065	-0.099344	0.000132
Br242	Br	0.766065	0.400656	0.500132
H243	H	0.512280	-0.016150	0.000068
H244	H	1.012280	0.483850	0.500068
Br245	Br	-0.187597	0.192411	0.000023
Br246	Br	0.312403	0.692411	0.500023
H247	H	0.098525	0.219610	0.000080
H248	H	0.598525	0.719610	0.500080
