data_functionalizedCrystal
_audit_creation_method	'MofGen! by Chris Wilmer'
_symmetry_space_group_name_H-M	'P1'
_symmetry_Int_Tables_number	1
_symmetry_cell_setting	triclinic
loop_
_symmetry_equiv_pos_as_xyz
  x,y,z
_cell_length_a	15.944545
_cell_length_b	15.021413
_cell_length_c	15.944545
_cell_angle_alpha	89.999293
_cell_angle_beta	96.503827
_cell_angle_gamma	89.990408
loop_
_atom_site_label
_atom_site_type_symbol
_atom_site_fract_x
_atom_site_fract_y
_atom_site_fract_z
O1	O	1.114512	0.073979	-0.108301
O2	O	0.869961	0.073994	-0.121663
O3	O	0.998917	0.073975	0.007293
O4	O	0.985556	0.073997	-0.237257
O5	O	0.998933	-0.074089	0.007285
O6	O	0.869976	-0.074071	-0.121671
O7	O	1.114527	-0.074086	-0.108309
Zn8	Zn	0.992254	-0.097586	-0.114991
Zn9	Zn	0.992234	0.097495	-0.114981
O10	O	0.985571	-0.074067	-0.237265
C11	C	0.838675	-0.000037	-0.121113
C12	C	0.745428	-0.000031	-0.119453
C13	C	0.474798	-0.000048	-0.034559
C14	C	0.525386	-0.073050	-0.075492
C15	C	0.409785	-0.000047	-0.113532
C16	C	0.525352	0.072929	-0.075505
C17	C	0.574698	-0.000038	-0.116437
C18	C	0.459145	-0.073109	-0.154444
C19	C	0.459107	0.072936	-0.154446
C20	C	0.509662	-0.000084	-0.195437
C21	C	0.314783	-0.000053	-0.111857
C22	C	0.669698	-0.000038	-0.118119
N23	N	0.992274	-0.230724	-0.114998
C24	C	1.051915	-0.470392	-0.055355
C25	C	0.976015	-0.529718	-0.039039
C26	C	0.992254	-0.412331	-0.114988
C27	C	1.068135	-0.529747	-0.131254
C28	C	0.992242	-0.587755	-0.114975
C29	C	0.916316	-0.470351	-0.098634
C30	C	1.008486	-0.470374	-0.190882
C31	C	0.932532	-0.529673	-0.174598
C32	C	0.992262	-0.311274	-0.114992
C33	C	0.992225	-0.688810	-0.114971
C34	C	1.145813	-0.000053	-0.108859
C35	C	1.239060	-0.000053	-0.110519
C36	C	0.998371	-0.000058	0.038583
C37	C	0.996711	-0.000060	0.131829
N38	N	0.992221	0.230632	-0.114968
C39	C	0.986117	-0.000032	-0.268556
C40	C	0.987777	-0.000024	-0.361802
C41	C	0.911817	-0.000037	0.402460
C42	C	0.952739	0.072964	0.351880
C43	C	0.990790	-0.000035	0.467473
C44	C	0.952775	-0.073015	0.351899
C45	C	0.993695	-0.000049	0.302560
C46	C	1.031691	0.073027	0.418121
C47	C	1.031715	-0.073018	0.418144
C48	C	1.072695	0.000001	0.367596
C49	C	0.989115	-0.000026	0.562475
C50	C	0.995377	-0.000051	0.207560
H51	H	0.554263	0.134643	-0.042136
Br52	Br	0.848345	-0.572786	-0.258650
H53	H	1.102315	-0.444362	-0.004898
Br54	Br	0.953103	-0.573155	0.067942
Br55	Br	0.448707	-0.000171	0.078797
H56	H	0.554324	-0.134774	-0.042143
Br57	Br	0.798461	0.000083	0.428551
Br58	Br	1.087231	0.176007	0.466133
H59	H	0.919415	-0.134731	0.322981
H60	H	0.852125	-0.444370	-0.084798
H61	H	1.022250	-0.444287	-0.255048
H62	H	0.525153	-0.000120	-0.263502
H63	H	1.132312	-0.555837	-0.145017
H64	H	0.430341	-0.134893	-0.187775
Br65	Br	0.410846	0.175817	-0.209983
H66	H	1.140760	0.000038	0.352106
H67	H	0.919380	0.134686	0.322948
H68	H	1.065045	-0.134742	0.447090
