data_functionalizedCrystal
_audit_creation_method	'MofGen! by Chris Wilmer'
_symmetry_space_group_name_H-M	'P1'
_symmetry_Int_Tables_number	1
_symmetry_cell_setting	triclinic
loop_
_symmetry_equiv_pos_as_xyz
  x,y,z
_cell_length_a	29.839133
_cell_length_b	29.839134
_cell_length_c	29.839126
_cell_angle_alpha	89.970362
_cell_angle_beta	90.013855
_cell_angle_gamma	89.975535
loop_
_atom_site_label
_atom_site_type_symbol
_atom_site_fract_x
_atom_site_fract_y
_atom_site_fract_z
Zn1	Zn	-0.178949	-0.686790	0.254157
Zn2	Zn	0.154384	-0.353457	0.587491
Zn3	Zn	0.487717	-0.020124	0.920824
Zn4	Zn	-0.254070	-0.686728	0.179041
Zn5	Zn	0.079264	-0.353395	0.512374
Zn6	Zn	0.412597	-0.020061	0.845707
Zn7	Zn	-0.178948	-0.611663	0.179027
Zn8	Zn	0.154386	-0.278330	0.512360
Zn9	Zn	0.487719	0.055003	0.845693
Zn10	Zn	-0.254046	-0.611637	0.254129
Zn11	Zn	0.079287	-0.278303	0.587462
Zn12	Zn	0.412620	0.055030	0.920796
O13	O	-0.216503	-0.649205	0.216588
O14	O	0.116830	-0.315871	0.549922
O15	O	0.450163	0.017462	0.883255
O16	O	-0.188925	-0.749649	0.244210
O17	O	0.144409	-0.416316	0.577544
O18	O	0.477742	-0.082983	0.910877
O19	O	-0.244114	-0.676756	0.116172
O20	O	0.089219	-0.343422	0.449505
O21	O	0.422553	-0.010089	0.782838
O22	O	-0.116081	-0.621666	0.188999
O23	O	0.217252	-0.288333	0.522332
O24	O	0.550586	0.045000	0.855666
O25	O	-0.244115	-0.749603	0.189023
O26	O	0.089218	-0.416270	0.522356
O27	O	0.422551	-0.082937	0.855689
O28	O	-0.116082	-0.676862	0.244197
O29	O	0.217251	-0.343529	0.577530
O30	O	0.550585	-0.010195	0.910864
O31	O	-0.188922	-0.621606	0.116161
O32	O	0.144411	-0.288272	0.449495
O33	O	0.477745	0.045061	0.782828
O34	O	-0.188899	-0.548793	0.188972
O35	O	0.144434	-0.215459	0.522305
O36	O	0.477767	0.117874	0.855638
O37	O	-0.244075	-0.621621	0.317000
O38	O	0.089258	-0.288287	0.650333
O39	O	0.422591	0.045046	0.983667
O40	O	-0.244074	-0.548773	0.244149
O41	O	0.089260	-0.215440	0.577482
O42	O	0.422593	0.117894	0.910816
O43	O	-0.188902	-0.676836	0.317021
O44	O	0.144432	-0.343503	0.650354
O45	O	0.477765	-0.010169	0.983687
O46	O	-0.316934	-0.676730	0.188995
O47	O	0.016400	-0.343396	0.522329
O48	O	0.349733	-0.010063	0.855662
O49	O	-0.316916	-0.621560	0.244162
O50	O	0.016417	-0.288227	0.577496
O51	O	0.349750	0.045106	0.910829
C52	C	-0.216484	-0.532482	0.216556
C53	C	0.116849	-0.199149	0.549889
C54	C	0.450182	0.134185	0.883223
C55	C	-0.216487	-0.482548	0.216553
C56	C	0.116846	-0.149214	0.549886
C57	C	0.450180	0.184119	0.883219
C58	C	-0.333226	-0.649148	0.216587
C59	C	0.000108	-0.315814	0.549920
C60	C	0.333441	0.017519	0.883254
C61	C	-0.383160	-0.649164	0.216602
C62	C	-0.049827	-0.315831	0.549935
C63	C	0.283506	0.017502	0.883268
C64	C	-0.216486	-0.649232	0.333767
C65	C	0.116847	-0.315899	0.667100
C66	C	0.450181	0.017434	1.000433
C67	C	-0.216479	-0.649244	0.383701
C68	C	0.116855	-0.315911	0.717035
C69	C	0.450188	0.017422	1.050368
C70	C	-0.739713	-0.677961	0.245363
C71	C	-0.406380	-0.344628	0.578696
C72	C	-0.073046	-0.011295	0.912030
C73	C	-0.552040	-0.677919	0.245362
C74	C	-0.218707	-0.344586	0.578696
C75	C	0.114627	-0.011252	0.912029
O76	O	-0.527746	-0.702345	0.269810
O77	O	-0.194413	-0.369012	0.603143
O78	O	0.138921	-0.035679	0.936476
N79	N	-0.528605	-0.649200	0.216601
N80	N	-0.195272	-0.315866	0.549934
N81	N	0.138061	0.017467	0.883267
C82	C	-0.552092	-0.620491	0.187835
C83	C	-0.218759	-0.287158	0.521168
C84	C	0.114575	0.046175	0.854501
O85	O	-0.527853	-0.596066	0.163368
O86	O	-0.194520	-0.262733	0.496701
O87	O	0.138813	0.070601	0.830034
C88	C	-0.739764	-0.620536	0.187833
C89	C	-0.406431	-0.287203	0.521167
C90	C	-0.073098	0.046130	0.854500
C91	C	-0.763196	-0.649254	0.216600
C92	C	-0.429863	-0.315921	0.549934
C93	C	-0.096530	0.017412	0.883267
C94	C	-0.763145	-0.706677	0.274127
C95	C	-0.429812	-0.373344	0.607461
C96	C	-0.096478	-0.040011	0.940794
C97	C	-0.810061	-0.706686	0.274129
C98	C	-0.476727	-0.373353	0.607462
C99	C	-0.143394	-0.040019	0.940796
C100	C	-0.833544	-0.677979	0.245366
C101	C	-0.500211	-0.344645	0.578699
C102	C	-0.166877	-0.011312	0.912033
C103	C	-0.810112	-0.649263	0.216602
C104	C	-0.476778	-0.315929	0.549935
C105	C	-0.143445	0.017404	0.883269
C106	C	-0.763250	-0.591830	0.159065
C107	C	-0.429917	-0.258497	0.492399
C108	C	-0.096583	0.074836	0.825732
C109	C	-0.810171	-0.591845	0.159067
C110	C	-0.476838	-0.258512	0.492400
C111	C	-0.143504	0.074822	0.825734
C112	C	-0.833603	-0.620563	0.187834
C113	C	-0.500270	-0.287230	0.521167
C114	C	-0.166936	0.046104	0.854501
C115	C	-0.880510	-0.620564	0.187841
C116	C	-0.547177	-0.287231	0.521174
C117	C	-0.213844	0.046103	0.854507
N118	N	-0.903945	-0.649283	0.216603
N119	N	-0.570612	-0.315950	0.549936
N120	N	-0.237278	0.017383	0.883269
C121	C	-0.880462	-0.677991	0.245365
C122	C	-0.547128	-0.344657	0.578699
C123	C	-0.213795	-0.011324	0.912032
C124	C	-0.453561	-0.620469	0.187838
C125	C	-0.120228	-0.287136	0.521171
C126	C	0.213105	0.046198	0.854505
C127	C	-0.406644	-0.620457	0.187839
C128	C	-0.073310	-0.287124	0.521172
C129	C	0.260023	0.046210	0.854506
C130	C	-0.406595	-0.677885	0.245366
C131	C	-0.073261	-0.344552	0.578700
C132	C	0.260072	-0.011219	0.912033
C133	C	-0.453513	-0.677895	0.245367
C134	C	-0.120180	-0.344561	0.578701
C135	C	0.213153	-0.011228	0.912034
C136	C	-0.476996	-0.649188	0.216600
C137	C	-0.143663	-0.315855	0.549933
C138	C	0.189671	0.017479	0.883267
C139	C	-0.978988	-0.678006	0.245367
C140	C	-0.645654	-0.344673	0.578700
C141	C	-0.312321	-0.011340	0.912033
C142	C	-1.025907	-0.678011	0.245367
C143	C	-0.692574	-0.344678	0.578700
C144	C	-0.359240	-0.011344	0.912034
C145	C	-1.025952	-0.620584	0.187838
C146	C	-0.692619	-0.287251	0.521172
C147	C	-0.359285	0.046082	0.854505
C148	C	-0.979036	-0.620578	0.187839
C149	C	-0.645703	-0.287244	0.521173
C150	C	-0.312370	0.046089	0.854506
C151	C	-0.955555	-0.649292	0.216605
C152	C	-0.622222	-0.315959	0.549938
C153	C	-0.288889	0.017374	0.883272
O154	O	-0.904833	-0.596154	0.163403
O155	O	-0.571500	-0.262821	0.496736
O156	O	-0.238167	0.070512	0.830069
O157	O	-0.904709	-0.702419	0.269822
O158	O	-0.571375	-0.369086	0.603155
O159	O	-0.238042	-0.035753	0.936488
C160	C	-0.692798	-0.677953	0.245361
C161	C	-0.359464	-0.344620	0.578695
C162	C	-0.026131	-0.011286	0.912028
C163	C	-0.669365	-0.649237	0.216597
C164	C	-0.336032	-0.315904	0.549930
C165	C	-0.002699	0.017430	0.883264
C166	C	-0.692849	-0.620530	0.187834
C167	C	-0.359515	-0.287196	0.521168
C168	C	-0.026182	0.046137	0.854501
C169	C	-0.622448	-0.649225	0.216598
C170	C	-0.289114	-0.315892	0.549931
C171	C	0.044219	0.017442	0.883265
C172	C	-0.598964	-0.677932	0.245361
C173	C	-0.265631	-0.344599	0.578694
C174	C	0.067702	-0.011266	0.912027
C175	C	-0.622399	-0.706652	0.274123
C176	C	-0.289065	-0.373318	0.607456
C177	C	0.044268	-0.039985	0.940789
C178	C	-0.669314	-0.706660	0.274124
C179	C	-0.335981	-0.373327	0.607458
C180	C	-0.002648	-0.039993	0.940791
C181	C	-0.669414	-0.591810	0.159072
C182	C	-0.336081	-0.258477	0.492406
C183	C	-0.002747	0.074856	0.825739
C184	C	-0.622499	-0.591804	0.159074
C185	C	-0.289165	-0.258471	0.492407
C186	C	0.044168	0.074863	0.825740
C187	C	-0.599015	-0.620511	0.187836
C188	C	-0.265682	-0.287178	0.521170
C189	C	0.067651	0.046156	0.854503
C190	C	-0.099325	-0.649274	0.216600
C191	C	0.234008	-0.315941	0.549933
C192	C	0.567342	0.017393	0.883266
C193	C	-0.049390	-0.649304	0.216604
C194	C	0.283943	-0.315970	0.549938
C195	C	0.617276	0.017363	0.883271
C196	C	-0.216523	-0.766383	0.216621
C197	C	0.116811	-0.433050	0.549955
C198	C	0.450144	-0.099716	0.883288
C199	C	-0.216531	-0.816317	0.216635
C200	C	0.116802	-0.482984	0.549969
C201	C	0.450136	-0.149651	0.883302
C202	C	-0.245275	-0.172903	0.245284
C203	C	0.088058	0.160430	0.578617
C204	C	0.421392	0.493763	0.911951
C205	C	-0.245288	0.014770	0.245304
C206	C	0.088046	0.348103	0.578637
C207	C	0.421379	0.681436	0.911971
O208	O	-0.269743	0.039035	0.269713
O209	O	0.063590	0.372368	0.603047
O210	O	0.396923	0.705702	0.936380
N211	N	-0.216520	0.038237	0.216622
N212	N	0.116814	0.371571	0.549956
N213	N	0.450147	0.704904	0.883289
C214	C	-0.187744	0.014784	0.187936
C215	C	0.145589	0.348118	0.521269
C216	C	0.478922	0.681451	0.854602
O217	O	-0.163272	0.039051	0.163544
O218	O	0.170061	0.372385	0.496877
O219	O	0.503394	0.705718	0.830210
C220	C	-0.187730	-0.172888	0.187918
C221	C	0.145603	0.160445	0.521251
C222	C	0.478937	0.493779	0.854585
C223	C	-0.216503	-0.196353	0.216599
C224	C	0.116830	0.136980	0.549932
C225	C	0.450164	0.470313	0.883265
C226	C	-0.274045	-0.196369	0.273963
C227	C	0.059288	0.136964	0.607296
C228	C	0.392621	0.470298	0.940629
C229	C	-0.274044	-0.243284	0.273956
C230	C	0.059290	0.090049	0.607289
C231	C	0.392623	0.423382	0.940622
C232	C	-0.245272	-0.266734	0.245270
C233	C	0.088062	0.066599	0.578603
C234	C	0.421395	0.399932	0.911937
C235	C	-0.216501	-0.243269	0.216592
C236	C	0.116832	0.090064	0.549925
C237	C	0.450165	0.423398	0.883258
C238	C	-0.158953	-0.196340	0.159234
C239	C	0.174381	0.136993	0.492567
C240	C	0.507714	0.470326	0.825901
C241	C	-0.158951	-0.243261	0.159233
C242	C	0.174383	0.090072	0.492566
C243	C	0.507716	0.423405	0.825900
C244	C	-0.187724	-0.266727	0.187913
C245	C	0.145610	0.066606	0.521247
C246	C	0.478943	0.399940	0.854580
C247	C	-0.187727	-0.313634	0.187899
C248	C	0.145606	0.019699	0.521232
C249	C	0.478939	0.353032	0.854566
N250	N	-0.216495	-0.337102	0.216581
N251	N	0.116838	-0.003769	0.549914
N252	N	0.450171	0.329564	0.883248
C253	C	-0.245267	-0.313652	0.245266
C254	C	0.088066	0.019681	0.578600
C255	C	0.421399	0.353014	0.911933
C256	C	-0.187755	0.113315	0.187946
C257	C	0.145579	0.446648	0.521279
C258	C	0.478912	0.779982	0.854613
C259	C	-0.187759	0.160233	0.187950
C260	C	0.145574	0.493566	0.521283
C261	C	0.478908	0.826899	0.854616
C262	C	-0.245302	0.160215	0.245319
C263	C	0.088032	0.493548	0.578652
C264	C	0.421365	0.826881	0.911986
C265	C	-0.245300	0.113296	0.245313
C266	C	0.088034	0.446629	0.578646
C267	C	0.421367	0.779963	0.911979
C268	C	-0.216523	0.089847	0.216628
C269	C	0.116811	0.423180	0.549961
C270	C	0.450144	0.756514	0.883294
C271	C	-0.245262	-0.412178	0.245249
C272	C	0.088071	-0.078845	0.578583
C273	C	0.421405	0.254489	0.911916
C274	C	-0.245259	-0.459098	0.245238
C275	C	0.088074	-0.125764	0.578572
C276	C	0.421408	0.207569	0.911905
C277	C	-0.187715	-0.459076	0.187871
C278	C	0.145619	-0.125742	0.521204
C279	C	0.478952	0.207591	0.854538
C280	C	-0.187719	-0.412160	0.187880
C281	C	0.145614	-0.078827	0.521213
C282	C	0.478948	0.254506	0.854547
C283	C	-0.216494	-0.388713	0.216573
C284	C	0.116839	-0.055379	0.549906
C285	C	0.450172	0.277954	0.883239
O286	O	-0.163281	-0.337929	0.163506
O287	O	0.170052	-0.004595	0.496840
O288	O	0.503386	0.328738	0.830173
O289	O	-0.269729	-0.337927	0.269662
O290	O	0.063605	-0.004594	0.602995
O291	O	0.396938	0.328739	0.936328
C292	C	-0.245277	-0.125988	0.245291
C293	C	0.088057	0.207345	0.578624
C294	C	0.421390	0.540679	0.911958
C295	C	-0.216506	-0.102523	0.216613
C296	C	0.116827	0.230811	0.549946
C297	C	0.450160	0.564144	0.883279
C298	C	-0.187734	-0.125972	0.187927
C299	C	0.145599	0.207361	0.521260
C300	C	0.478932	0.540694	0.854594
C301	C	-0.216511	-0.055605	0.216616
C302	C	0.116823	0.277729	0.549950
C303	C	0.450156	0.611062	0.883283
C304	C	-0.245283	-0.032155	0.245302
C305	C	0.088051	0.301179	0.578635
C306	C	0.421384	0.634512	0.911968
C307	C	-0.274051	-0.055623	0.273984
C308	C	0.059283	0.277711	0.607317
C309	C	0.392616	0.611044	0.940650
C310	C	-0.274049	-0.102538	0.273977
C311	C	0.059284	0.230795	0.607310
C312	C	0.392618	0.564129	0.940643
C313	C	-0.158966	-0.102505	0.159245
C314	C	0.174367	0.230829	0.492579
C315	C	0.507700	0.564162	0.825912
C316	C	-0.158971	-0.055589	0.159254
C317	C	0.174363	0.277744	0.492588
C318	C	0.507696	0.611078	0.825921
C319	C	-0.187743	-0.032139	0.187940
C320	C	0.145591	0.301194	0.521273
C321	C	0.478924	0.634528	0.854606
C322	C	-0.216488	-0.649203	0.099866
C323	C	0.116845	-0.315869	0.433199
C324	C	0.450179	0.017464	0.766533
C325	C	-0.216369	-0.649278	0.049932
C326	C	0.116965	-0.315945	0.383265
C327	C	0.450298	0.017389	0.716598
C328	C	-0.187695	-0.620537	0.693342
C329	C	0.145638	-0.287203	1.026676
C330	C	0.478971	0.046130	1.360009
C331	C	-0.187664	-0.620549	0.881015
C332	C	0.145669	-0.287216	1.214349
C333	C	0.479002	0.046117	1.547682
O334	O	-0.163236	-0.596119	0.905278
O335	O	0.170097	-0.262785	1.238612
O336	O	0.503430	0.070548	1.571945
N337	N	-0.216394	-0.649266	0.904487
N338	N	0.116939	-0.315932	1.237820
N339	N	0.450272	0.017401	1.571153
C340	C	-0.245137	-0.677978	0.881036
C341	C	0.088197	-0.344645	1.214370
C342	C	0.421530	-0.011312	1.547703
O343	O	-0.269576	-0.702400	0.905306
O344	O	0.063757	-0.369067	1.238640
O345	O	0.397091	-0.035734	1.571973
C346	C	-0.245170	-0.677963	0.693364
C347	C	0.088164	-0.344630	1.026698
C348	C	0.421497	-0.011296	1.360031
C349	C	-0.216434	-0.649248	0.669896
C350	C	0.116899	-0.315915	1.003229
C351	C	0.450232	0.017418	1.336562
C352	C	-0.158963	-0.591824	0.669874
C353	C	0.174370	-0.258491	1.003207
C354	C	0.507704	0.074843	1.336540
C355	C	-0.158969	-0.591823	0.622958
C356	C	0.174364	-0.258489	0.956291
C357	C	0.507697	0.074844	1.289625
C358	C	-0.187708	-0.620534	0.599511
C359	C	0.145625	-0.287201	0.932845
C360	C	0.478959	0.046132	1.266178
C361	C	-0.216441	-0.649247	0.622980
C362	C	0.116893	-0.315914	0.956313
C363	C	0.450226	0.017419	1.289647
C364	C	-0.273914	-0.706673	0.669915
C365	C	0.059420	-0.373340	1.003248
C366	C	0.392753	-0.040007	1.336582
C367	C	-0.273920	-0.706666	0.622994
C368	C	0.059413	-0.373333	0.956327
C369	C	0.392746	-0.040000	1.289661
C370	C	-0.245185	-0.677951	0.599525
C371	C	0.088148	-0.344618	0.932859
C372	C	0.421482	-0.011285	1.266192
C373	C	-0.245186	-0.677958	0.552618
C374	C	0.088147	-0.344624	0.885951
C375	C	0.421481	-0.011291	1.219284
N376	N	-0.216456	-0.649242	0.529147
N377	N	0.116877	-0.315908	0.862480
N378	N	0.450211	0.017425	1.195813
C379	C	-0.187717	-0.620530	0.552594
C380	C	0.145616	-0.287197	0.885927
C381	C	0.478950	0.046137	1.219260
C382	C	-0.245116	-0.677985	0.979567
C383	C	0.088217	-0.344652	1.312900
C384	C	0.421550	-0.011318	1.646234
C385	C	-0.245108	-0.677990	1.026485
C386	C	0.088226	-0.344656	1.359818
C387	C	0.421559	-0.011323	1.693152
C388	C	-0.187636	-0.620560	1.026461
C389	C	0.145697	-0.287226	1.359794
C390	C	0.479031	0.046107	1.693127
C391	C	-0.187643	-0.620558	0.979542
C392	C	0.145691	-0.287225	1.312875
C393	C	0.479024	0.046109	1.646209
C394	C	-0.216386	-0.649269	0.956096
C395	C	0.116947	-0.315936	1.289429
C396	C	0.450280	0.017398	1.622763
C397	C	-0.187732	-0.620530	0.454068
C398	C	0.145601	-0.287197	0.787401
C399	C	0.478935	0.046137	1.120734
C400	C	-0.187740	-0.620533	0.407148
C401	C	0.145594	-0.287199	0.740481
C402	C	0.478927	0.046134	1.073815
C403	C	-0.245213	-0.677960	0.407176
C404	C	0.088120	-0.344627	0.740510
C405	C	0.421454	-0.011294	1.073843
C406	C	-0.245204	-0.677960	0.454092
C407	C	0.088129	-0.344626	0.787425
C408	C	0.421463	-0.011293	1.120759
C409	C	-0.216462	-0.649241	0.477536
C410	C	0.116871	-0.315907	0.810870
C411	C	0.450205	0.017426	1.144203
O412	O	-0.269605	-0.702372	0.528326
O413	O	0.063729	-0.369039	0.861659
O414	O	0.397062	-0.035705	1.194993
O415	O	-0.163288	-0.596105	0.528316
O416	O	0.170045	-0.262771	0.861649
O417	O	0.503378	0.070562	1.194982
C418	C	-0.187689	-0.620538	0.740258
C419	C	0.145644	-0.287205	1.073591
C420	C	0.478978	0.046129	1.406924
C421	C	-0.216422	-0.649251	0.763726
C422	C	0.116912	-0.315917	1.097060
C423	C	0.450245	0.017416	1.430393
C424	C	-0.245161	-0.677962	0.740280
C425	C	0.088173	-0.344629	1.073613
C426	C	0.421506	-0.011296	1.406946
C427	C	-0.216413	-0.649255	0.810644
C428	C	0.116920	-0.315922	1.143978
C429	C	0.450254	0.017412	1.477311
C430	C	-0.187674	-0.620544	0.834091
C431	C	0.145659	-0.287210	1.167424
C432	C	0.478993	0.046123	1.500758
C433	C	-0.158944	-0.591827	0.810620
C434	C	0.174390	-0.258494	1.143953
C435	C	0.507723	0.074839	1.477287
C436	C	-0.158950	-0.591826	0.763705
C437	C	0.174383	-0.258493	1.097038
C438	C	0.507717	0.074840	1.430371
C439	C	-0.273891	-0.706678	0.763751
C440	C	0.059443	-0.373345	1.097084
C441	C	0.392776	-0.040012	1.430417
C442	C	-0.273882	-0.706678	0.810666
C443	C	0.059452	-0.373344	1.144000
C444	C	0.392785	-0.040011	1.477333
C445	C	-0.245143	-0.677966	0.834113
C446	C	0.088191	-0.344633	1.167446
C447	C	0.421524	-0.011299	1.500780
H448	H	-1.044983	-0.701396	0.268795
H449	H	-0.711650	-0.368062	0.602129
H450	H	-0.378317	-0.034729	0.935462
N451	N	-0.129627	-0.562486	0.598982
N452	N	0.203707	-0.229153	0.932316
N453	N	0.537040	0.104180	1.265649
N454	N	-0.129634	-0.562480	0.557092
N455	N	0.203699	-0.229146	0.890425
N456	N	0.537033	0.104187	1.223758
H457	H	-0.108911	-0.541758	0.540160
H458	H	0.224422	-0.208425	0.873494
H459	H	0.557756	0.124909	1.206827
N460	N	-0.303442	-0.031657	0.303279
N461	N	0.029892	0.301676	0.636612
N462	N	0.363225	0.635010	0.969946
N463	N	-0.303436	0.010233	0.303275
N464	N	0.029897	0.343567	0.636609
N465	N	0.363231	0.676900	0.969942
H466	H	-0.324191	0.027162	0.323965
H467	H	0.009142	0.360495	0.657298
H468	H	0.342475	0.693828	0.990631
N469	N	-0.129562	-0.267220	0.129929
N470	N	0.203771	0.066113	0.463262
N471	N	0.537104	0.399447	0.796596
N472	N	-0.129563	-0.309111	0.129924
N473	N	0.203770	0.024223	0.463257
N474	N	0.537104	0.357556	0.796590
H475	H	-0.108809	-0.326032	0.109227
H476	H	0.224524	0.007302	0.442560
H477	H	0.557858	0.340635	0.775894
H478	H	-0.164327	-0.597145	0.473151
H479	H	0.169006	-0.263811	0.806484
H480	H	0.502339	0.069522	1.139817
N481	N	-0.739161	-0.736014	0.303500
N482	N	-0.405828	-0.402680	0.636833
N483	N	-0.072494	-0.069347	0.970166
N484	N	-0.712973	-0.764651	0.287724
N485	N	-0.379639	-0.431317	0.621057
N486	N	-0.046306	-0.097984	0.954391
H487	H	-0.696038	-0.785373	0.308470
H488	H	-0.362705	-0.452040	0.641803
H489	H	-0.029371	-0.118707	0.975136
H490	H	-0.829288	-0.568468	0.135640
H491	H	-0.495955	-0.235135	0.468973
H492	H	-0.162621	0.098198	0.802307
N493	N	-0.598559	-0.562468	0.129691
N494	N	-0.265226	-0.229135	0.463024
N495	N	0.068107	0.104199	0.796358
N496	N	-0.556669	-0.562459	0.129690
N497	N	-0.223336	-0.229126	0.463023
N498	N	0.109998	0.104207	0.796356
H499	H	-0.539762	-0.541743	0.108938
H500	H	-0.206429	-0.208409	0.442271
H501	H	0.126904	0.124924	0.775605
H502	H	-0.688530	-0.568434	0.135649
H503	H	-0.355196	-0.235100	0.468983
H504	H	-0.021863	0.098233	0.802316
N505	N	-0.129608	-0.562496	0.693827
N506	N	0.203726	-0.229163	1.027161
N507	N	0.537059	0.104171	1.360494
N508	N	-0.145396	-0.533858	0.719996
N509	N	0.187937	-0.200525	1.053330
N510	N	0.521271	0.132809	1.386663
H511	H	-0.124660	-0.513146	0.736912
H512	H	0.208673	-0.179813	1.070245
H513	H	0.542006	0.153521	1.403579
N514	N	-0.129593	-0.562493	0.739743
N515	N	0.203740	-0.229160	1.073076
N516	N	0.537073	0.104174	1.406409
N517	N	-0.103938	-0.536862	0.760691
N518	N	0.229396	-0.203529	1.094024
N519	N	0.562729	0.129804	1.427357
H520	H	-0.083203	-0.516144	0.743770
H521	H	0.250131	-0.182810	1.077104
H522	H	0.583464	0.150523	1.410437
N523	N	-0.382609	-0.707218	0.274744
N524	N	-0.049276	-0.373885	0.608078
N525	N	0.284057	-0.040552	0.941411
N526	N	-0.403532	-0.732865	0.300421
N527	N	-0.070198	-0.399531	0.633754
N528	N	0.263135	-0.066198	0.967088
H529	H	-0.386591	-0.753583	0.321166
H530	H	-0.053258	-0.420249	0.654499
H531	H	0.280076	-0.086916	0.987833
H532	H	-0.164338	-0.597150	0.388042
H533	H	0.168995	-0.263816	0.721375
H534	H	0.502329	0.069517	1.054709
H535	H	-0.268598	-0.701347	0.473201
H536	H	0.064736	-0.368013	0.806534
H537	H	0.398069	-0.034680	1.139868
N538	N	-0.274694	0.089336	0.274610
N539	N	0.058639	0.422669	0.607944
N540	N	0.391972	0.756002	0.941277
N541	N	-0.300382	0.110285	0.300217
N542	N	0.032951	0.443618	0.633550
N543	N	0.366284	0.776951	0.966883
H544	H	-0.321144	0.093365	0.320910
H545	H	0.012189	0.426698	0.654243
H546	H	0.345523	0.760032	0.987577
H547	H	-0.268729	0.179316	0.268676
H548	H	0.064604	0.512649	0.602009
H549	H	0.397938	0.845982	0.935343
H550	H	-0.829135	-0.730074	0.297551
H551	H	-0.495802	-0.396741	0.630884
H552	H	-0.162468	-0.063408	0.964217
N553	N	-0.303267	-0.736007	0.693878
N554	N	0.030067	-0.402674	1.027211
N555	N	0.363400	-0.069341	1.360544
N556	N	-0.300303	-0.777463	0.688653
N557	N	0.033031	-0.444130	1.021986
N558	N	0.366364	-0.110797	1.355320
H559	H	-0.321037	-0.798181	0.705575
H560	H	0.012297	-0.464848	1.038909
H561	H	0.345630	-0.131515	1.372242
H562	H	-0.268691	-0.478201	0.268594
H563	H	0.064642	-0.144868	0.601927
H564	H	0.397975	0.188466	0.935260
H565	H	-0.297479	-0.121639	0.297331
H566	H	0.035855	0.211694	0.630665
H567	H	0.369188	0.545027	0.963998
H568	H	-0.135536	-0.121593	0.135886
H569	H	0.197797	0.211741	0.469219
H570	H	0.531131	0.545074	0.802552
H571	H	-0.164291	-0.393054	0.164525
H572	H	0.169043	-0.059720	0.497858
H573	H	0.502376	0.273613	0.831192
N574	N	-0.955105	-0.591235	0.158459
N575	N	-0.621772	-0.257901	0.491793
N576	N	-0.288439	0.075432	0.825126
N577	N	-0.976081	-0.565602	0.132783
N578	N	-0.642747	-0.232269	0.466117
N579	N	-0.309414	0.101064	0.799450
H580	H	-0.959182	-0.544880	0.112031
H581	H	-0.625849	-0.211547	0.445364
H582	H	-0.292516	0.121787	0.778697
H583	H	-0.135524	-0.177243	0.135878
H584	H	0.197810	0.156091	0.469211
H585	H	0.531143	0.489424	0.802545
H586	H	-0.164291	-0.478177	0.164515
H587	H	0.169043	-0.144844	0.497848
H588	H	0.502376	0.188490	0.831181
H589	H	-0.297281	-0.730065	0.829770
H590	H	0.036053	-0.396732	1.163104
H591	H	0.369386	-0.063398	1.496437
N592	N	-1.049951	-0.591262	0.158464
N593	N	-0.716618	-0.257929	0.491798
N594	N	-0.383285	0.075404	0.825131
N595	N	-1.091842	-0.591279	0.158473
N596	N	-0.758509	-0.257946	0.491806
N597	N	-0.425175	0.075388	0.825139
H598	H	-1.108793	-0.570572	0.137726
H599	H	-0.775460	-0.237238	0.471059
H600	H	-0.442127	0.096095	0.804392
N601	N	-0.129578	-0.031630	0.129949
N602	N	0.203755	0.301704	0.463282
N603	N	0.537088	0.635037	0.796616
N604	N	-0.103892	-0.052578	0.104341
N605	N	0.229441	0.280755	0.437674
N606	N	0.562774	0.614088	0.771007
H607	H	-0.083132	-0.035659	0.083646
H608	H	0.250201	0.297674	0.416979
H609	H	0.583535	0.631008	0.750313
N610	N	-0.158285	-0.591227	0.955578
N611	N	0.175048	-0.257893	1.288912
N612	N	0.508381	0.075440	1.622245
N613	N	-0.132626	-0.565598	0.976524
N614	N	0.200707	-0.232265	1.309858
N615	N	0.534041	0.101069	1.643191
H616	H	-0.111890	-0.544881	0.959603
H617	H	0.221443	-0.211548	1.292936
H618	H	0.554776	0.121785	1.626269
N619	N	-0.158279	-0.591237	1.050423
N620	N	0.175054	-0.257904	1.383756
N621	N	0.508388	0.075430	1.717089
N622	N	-0.158279	-0.591249	1.092313
N623	N	0.175055	-0.257916	1.425646
N624	N	0.508388	0.075417	1.758980
H625	H	-0.137548	-0.570540	1.109239
H626	H	0.195786	-0.237207	1.442572
H627	H	0.529119	0.096126	1.775905
H628	H	-0.472589	-0.701277	0.268794
H629	H	-0.139255	-0.367944	0.602127
H630	H	0.194078	-0.034611	0.935461
N631	N	-0.477546	-0.591134	0.158462
N632	N	-0.144213	-0.257800	0.491795
N633	N	0.189121	0.075533	0.825128
N634	N	-0.503739	-0.562501	0.174238
N635	N	-0.170405	-0.229168	0.507571
N636	N	0.162928	0.104166	0.840905
H637	H	-0.520677	-0.541781	0.153493
H638	H	-0.187344	-0.208447	0.486827
H639	H	0.145990	0.124886	0.820160
N640	N	-0.382718	-0.591112	0.158458
N641	N	-0.049385	-0.257779	0.491792
N642	N	0.283949	0.075554	0.825125
N643	N	-0.403697	-0.565484	0.132781
N644	N	-0.070363	-0.232151	0.466114
N645	N	0.262970	0.101182	0.799448
H646	H	-0.386801	-0.544759	0.112029
H647	H	-0.053468	-0.211426	0.445362
H648	H	0.279865	0.121907	0.778695
H649	H	-0.164321	0.094227	0.164585
H650	H	0.169013	0.427560	0.497919
H651	H	0.502346	0.760893	0.831252
H652	H	-0.268502	-0.701377	1.045589
H653	H	0.064831	-0.368044	1.378923
H654	H	0.398165	-0.034710	1.712256
H655	H	-0.268525	-0.701365	0.960482
H656	H	0.064808	-0.368032	1.293815
H657	H	0.398141	-0.034699	1.627148
N658	N	-0.693239	-0.735997	0.303513
N659	N	-0.359906	-0.402663	0.636847
N660	N	-0.026572	-0.069330	0.970180
N661	N	-0.672258	-0.761623	0.329190
N662	N	-0.338925	-0.428290	0.662524
N663	N	-0.005592	-0.094957	0.995857
H664	H	-0.689152	-0.782344	0.349948
H665	H	-0.355819	-0.449011	0.683281
H666	H	-0.022485	-0.115678	1.016615
N667	N	-0.274656	-0.388238	0.274562
N668	N	0.058677	-0.054905	0.607895
N669	N	0.392011	0.278428	0.941228
N670	N	-0.300340	-0.409203	0.300163
N671	N	0.032994	-0.075869	0.633496
N672	N	0.366327	0.257464	0.966830
H673	H	-0.321101	-0.392296	0.320864
H674	H	0.012232	-0.058963	0.654197
H675	H	0.345565	0.274371	0.987530
N676	N	-0.955008	-0.707343	0.274745
N677	N	-0.621674	-0.374009	0.608078
N678	N	-0.288341	-0.040676	0.941411
N679	N	-0.960228	-0.748799	0.271812
N680	N	-0.626895	-0.415466	0.605145
N681	N	-0.293561	-0.082133	0.938478
H682	H	-0.943293	-0.769517	0.292561
H683	H	-0.609959	-0.436184	0.625894
H684	H	-0.276626	-0.102851	0.959228
H685	H	-0.744178	-0.568446	0.135641
H686	H	-0.410845	-0.235113	0.468974
H687	H	-0.077511	0.098221	0.802307
H688	H	-0.135542	-0.568451	0.829719
H689	H	0.197792	-0.235118	1.163052
H690	H	0.531125	0.098216	1.496385
N691	N	-0.303287	-0.735995	0.599052
N692	N	0.030046	-0.402662	0.932386
N693	N	0.363379	-0.069329	1.265719
N694	N	-0.328940	-0.761628	0.620016
N695	N	0.004394	-0.428295	0.953349
N696	N	0.337727	-0.094961	1.286682
H697	H	-0.349680	-0.782342	0.603108
H698	H	-0.016347	-0.449009	0.936442
H699	H	0.316987	-0.115676	1.269775
H700	H	-0.268610	-0.701338	0.388078
H701	H	0.064723	-0.368005	0.721411
H702	H	0.398056	-0.034671	1.054744
H703	H	-0.297296	-0.730058	0.744665
H704	H	0.036038	-0.396724	1.077998
H705	H	0.369371	-0.063391	1.411332
H706	H	-0.603271	-0.730025	0.297544
H707	H	-0.269938	-0.396691	0.630877
H708	H	0.063396	-0.063358	0.964211
H709	H	-0.297473	-0.262386	0.297311
H710	H	0.035860	0.070947	0.630644
H711	H	0.369194	0.404281	0.963978
N712	N	-0.303447	-0.172428	0.303265
N713	N	0.029887	0.160905	0.636598
N714	N	0.363220	0.494238	0.969932
N715	N	-0.344895	-0.177663	0.300211
N716	N	-0.011561	0.155670	0.633544
N717	N	0.321772	0.489003	0.966877
H718	H	-0.365664	-0.160759	0.320905
H719	H	-0.032331	0.172574	0.654239
H720	H	0.301003	0.505908	0.987572
N721	N	-0.158372	0.184192	0.158643
N722	N	0.174961	0.517525	0.491977
N723	N	0.508295	0.850859	0.825310
N724	N	-0.132686	0.163243	0.133035
N725	N	0.200647	0.496577	0.466368
N726	N	0.533980	0.829910	0.799702
H727	H	-0.111929	0.180163	0.112337
H728	H	0.221404	0.513496	0.445670
H729	H	0.554737	0.846830	0.779004
