data_functionalizedCrystal
_audit_creation_method	'MofGen! by Chris Wilmer'
_symmetry_space_group_name_H-M	'P1'
_symmetry_Int_Tables_number	1
_symmetry_cell_setting	triclinic
loop_
_symmetry_equiv_pos_as_xyz
  x,y,z
_cell_length_a	13.897449
_cell_length_b	16.625539
_cell_length_c	13.897447
_cell_angle_alpha	89.973723
_cell_angle_beta	90.020810
_cell_angle_gamma	89.980569
loop_
_atom_site_label
_atom_site_type_symbol
_atom_site_fract_x
_atom_site_fract_y
_atom_site_fract_z
Zn1	Zn	1.474678	-0.455896	-0.383980
Zn2	Zn	1.808011	-0.122563	-0.050647
Zn3	Zn	2.141345	0.210770	0.282686
Zn4	Zn	1.474570	-0.321068	-0.545293
Zn5	Zn	1.807904	0.012265	-0.211960
Zn6	Zn	2.141237	0.345598	0.121373
Zn7	Zn	1.313371	-0.321079	-0.384018
Zn8	Zn	1.646704	0.012254	-0.050684
Zn9	Zn	1.980037	0.345587	0.282649
Zn10	Zn	1.313344	-0.455861	-0.545239
Zn11	Zn	1.646677	-0.122527	-0.211905
Zn12	Zn	1.980010	0.210806	0.121428
O13	O	1.393991	-0.388476	-0.464632
O14	O	1.727324	-0.055143	-0.131299
O15	O	2.060657	0.278190	0.202034
O16	O	1.609645	-0.438021	-0.405386
O17	O	1.942979	-0.104688	-0.072053
O18	O	2.276312	0.228645	0.261281
O19	O	1.453153	-0.208237	-0.523938
O20	O	1.786487	0.125096	-0.190605
O21	O	2.119820	0.458429	0.142728
O22	O	1.334825	-0.338983	-0.249031
O23	O	1.668158	-0.005649	0.084302
O24	O	2.001491	0.327684	0.417636
O25	O	1.609566	-0.338964	-0.523902
O26	O	1.942900	-0.005630	-0.190569
O27	O	2.276233	0.327703	0.142765
O28	O	1.453336	-0.438032	-0.249004
O29	O	1.786670	-0.104699	0.084330
O30	O	2.120003	0.228635	0.417663
O31	O	1.334721	-0.208246	-0.405450
O32	O	1.668054	0.125088	-0.072116
O33	O	2.001387	0.458421	0.261217
O34	O	1.178385	-0.338948	-0.405397
O35	O	1.511719	-0.005615	-0.072063
O36	O	1.845052	0.327718	0.261270
O37	O	1.334779	-0.568698	-0.523809
O38	O	1.668112	-0.235365	-0.190475
O39	O	2.001445	0.097969	0.142858
O40	O	1.178366	-0.437972	-0.523845
O41	O	1.511699	-0.104638	-0.190512
O42	O	1.845032	0.228695	0.142822
O43	O	1.453310	-0.568724	-0.405333
O44	O	1.786644	-0.235391	-0.072000
O45	O	2.119977	0.097943	0.261334
O46	O	1.453127	-0.338929	-0.680268
O47	O	1.786460	-0.005596	-0.346934
O48	O	2.119794	0.327737	-0.013601
O49	O	1.334674	-0.437961	-0.680227
O50	O	1.668008	-0.104627	-0.346894
O51	O	2.001341	0.228706	-0.013561
C52	C	1.143376	-0.388458	-0.464620
C53	C	1.476710	-0.055124	-0.131286
C54	C	1.810043	0.278209	0.202047
C55	C	1.036162	-0.388469	-0.464637
C56	C	1.369496	-0.055136	-0.131304
C57	C	1.702829	0.278198	0.202029
C58	C	0.839867	-0.388490	-0.464641
C59	C	1.173201	-0.055157	-0.131307
C60	C	1.506534	0.278176	0.202026
C61	C	0.949100	-0.388476	-0.464636
C62	C	1.282433	-0.055143	-0.131303
C63	C	1.615766	0.278190	0.202031
C64	C	1.394053	-0.598785	-0.464561
C65	C	1.727387	-0.265452	-0.131227
C66	C	2.060720	0.067881	0.202106
C67	C	1.394080	-0.688406	-0.464530
C68	C	1.727413	-0.355073	-0.131197
C69	C	2.060747	-0.021740	0.202137
C70	C	1.394125	-1.016582	-0.464422
C71	C	1.727458	-0.683249	-0.131089
C72	C	2.060791	-0.349916	0.202245
C73	C	1.394109	-0.925274	-0.464455
C74	C	1.727443	-0.591940	-0.131122
C75	C	2.060776	-0.258607	0.202212
C76	C	1.394103	-0.852497	-0.464477
C77	C	1.727436	-0.519164	-0.131143
C78	C	2.060769	-0.185831	0.202190
C79	C	1.394087	-0.761183	-0.464508
C80	C	1.727420	-0.427850	-0.131175
C81	C	2.060753	-0.094516	0.202158
C82	C	1.645584	-0.388495	-0.464646
C83	C	1.978917	-0.055162	-0.131313
C84	C	2.312250	0.278172	0.202021
C85	C	1.752797	-0.388503	-0.464652
C86	C	2.086131	-0.055170	-0.131319
C87	C	2.419464	0.278163	0.202015
C88	C	1.393912	-0.388458	-0.715247
C89	C	1.727246	-0.055124	-0.381913
C90	C	2.060579	0.278209	-0.048580
C91	C	1.393967	-0.388476	-0.822461
C92	C	1.727300	-0.055143	-0.489127
C93	C	2.060634	0.278190	-0.155794
C94	C	1.393984	-0.178985	-0.464634
C95	C	1.727317	0.154348	-0.131301
C96	C	2.060650	0.487681	0.202032
C97	C	1.394144	-0.089365	-0.464393
C98	C	1.727477	0.243969	-0.131060
C99	C	2.060811	0.577302	0.202273
C100	C	1.394014	-0.388495	-0.909530
C101	C	1.727347	-0.055162	-0.576197
C102	C	2.060680	0.278172	-0.242864
C103	C	1.394081	-0.388516	-1.018763
C104	C	1.727415	-0.055182	-0.685430
C105	C	2.060748	0.278151	-0.352096
C106	C	1.394096	-0.388513	-0.213039
C107	C	1.727429	-0.055179	0.120294
C108	C	2.060762	0.278154	0.453627
C109	C	1.394140	-0.388528	-0.105825
C110	C	1.727474	-0.055195	0.227508
C111	C	2.060807	0.278139	0.560841
