data_functionalizedCrystal
_audit_creation_method	'MofGen! by Chris Wilmer'
_symmetry_space_group_name_H-M	'P1'
_symmetry_Int_Tables_number	1
_symmetry_cell_setting	triclinic
loop_
_symmetry_equiv_pos_as_xyz
  x,y,z
_cell_length_a	30.700830
_cell_length_b	30.711256
_cell_length_c	30.700862
_cell_angle_alpha	59.996453
_cell_angle_beta	89.996499
_cell_angle_gamma	59.999927
loop_
_atom_site_label
_atom_site_type_symbol
_atom_site_fract_x
_atom_site_fract_y
_atom_site_fract_z
O1	O	0.298799	0.384092	-0.012980
O2	O	0.235460	0.294925	0.012879
O3	O	0.235458	0.384088	-0.076318
O4	O	0.298800	0.294929	0.076216
O5	O	0.307904	0.311667	-0.076317
O6	O	0.307905	0.222504	0.012879
O7	O	0.371245	0.311671	-0.012980
Cu8	Cu	0.346190	0.260475	-0.000050
Cu9	Cu	0.260515	0.346121	-0.000051
O10	O	0.371246	0.222508	0.076217
C11	C	0.371907	0.469499	-0.018876
C12	C	0.345028	0.523239	-0.015179
C13	C	0.424328	0.443423	-0.019246
C14	C	0.371910	0.390645	-0.018869
C15	C	0.345033	0.360074	-0.015165
C16	C	0.424331	0.364689	-0.019240
C17	C	0.450784	0.390649	-0.018876
C18	C	0.508239	0.360084	-0.015179
C19	C	0.345574	0.443418	-0.019240
C20	C	0.031743	0.071080	0.039174
C21	C	0.058198	0.018309	0.039542
C22	C	0.110620	0.071079	0.039177
C23	C	0.136955	0.018307	0.039544
C24	C	0.110619	-0.007769	0.039174
C25	C	0.058199	0.097037	0.039545
C26	C	-0.158465	0.213078	0.024893
C27	C	-0.212331	0.242108	0.020855
C28	C	-0.239353	0.217193	0.018826
C29	C	-0.297760	0.248672	0.014438
C30	C	-0.212505	0.163242	0.020841
C31	C	-0.158641	0.134212	0.024886
C32	C	-0.131622	0.159133	0.026912
C33	C	0.158783	-0.183634	0.024890
C34	C	0.183609	-0.233444	0.020851
C35	C	0.235554	-0.258431	0.018822
C36	C	0.262474	-0.312431	0.014436
C37	C	0.262675	-0.233607	0.020839
C38	C	0.237853	-0.183806	0.024887
C39	C	0.185902	-0.158820	0.026909
C40	C	0.158788	0.213071	0.024902
C41	C	0.183613	0.242104	0.020859
C42	C	0.235560	0.217187	0.018833
C43	C	0.262479	0.248664	0.014447
C44	C	0.262678	0.163241	0.020845
C45	C	0.237850	0.134213	0.024886
C46	C	0.185906	0.159130	0.026919
C47	C	-0.073217	0.127653	0.031294
C48	C	-0.026662	0.102560	0.034788
C49	C	0.137536	0.102557	0.034793
C50	C	0.158992	0.127648	0.031300
C51	C	0.137534	-0.061769	0.034788
C52	C	0.158989	-0.104815	0.031293
C53	C	0.110282	0.535521	-0.503956
C54	C	0.057861	0.588293	-0.530291
C55	C	0.110283	0.535521	-0.425080
C56	C	0.057862	0.588292	-0.451534
C57	C	0.031407	0.614370	-0.503955
C58	C	0.136617	0.509563	-0.451535
C59	C	0.238046	0.393525	-0.552121
C60	C	0.263047	0.364496	-0.576948
C61	C	0.236095	0.389413	-0.628894
C62	C	0.263197	0.357934	-0.655812
C63	C	0.184142	0.443363	-0.656014
C64	C	0.159147	0.472393	-0.631190
C65	C	0.186102	0.447471	-0.579241
C66	C	-0.158801	0.790238	-0.631716
C67	C	-0.212666	0.840049	-0.656717
C68	C	-0.239689	0.865034	-0.629766
C69	C	-0.298094	0.919035	-0.656865
C70	C	-0.212841	0.840210	-0.577813
C71	C	-0.158976	0.790408	-0.552817
C72	C	-0.131959	0.765422	-0.579775
C73	C	0.238047	0.393524	-0.234872
C74	C	0.263046	0.364490	-0.181004
C75	C	0.236094	0.389407	-0.153982
C76	C	0.263196	0.357928	-0.095575
C77	C	0.184143	0.443353	-0.180828
C78	C	0.159146	0.472382	-0.234693
C79	C	0.186105	0.447466	-0.261713
C80	C	0.158993	0.478950	-0.552326
C81	C	0.137387	0.504042	-0.530872
C82	C	0.137387	0.504042	-0.366675
C83	C	0.158994	0.478949	-0.320120
C84	C	-0.026998	0.668371	-0.531059
C85	C	-0.073552	0.711417	-0.552664
O86	O	0.682982	0.222515	0.012866
O87	O	0.530448	0.311680	-0.012993
O88	O	0.619630	0.222522	0.076204
O89	O	0.593800	0.311673	-0.076331
O90	O	0.619627	0.294947	0.076197
O91	O	0.530445	0.384106	-0.012999
O92	O	0.682979	0.294940	0.012859
Cu93	Cu	0.606712	0.346136	-0.000071
Cu94	Cu	0.606715	0.260484	-0.000063
O95	O	0.593797	0.384098	-0.076338
O96	O	0.307899	0.669889	0.012863
O97	O	0.371239	0.543255	-0.012994
O98	O	0.371236	0.543242	0.076202
O99	O	0.307902	0.669901	-0.076333
O100	O	0.298788	0.543247	0.076196
O101	O	0.298792	0.543260	-0.013000
O102	O	0.235451	0.669893	0.012857
Cu103	Cu	0.260506	0.606577	-0.000072
Cu104	Cu	0.346184	0.606571	-0.000065
O105	O	0.235455	0.669906	-0.076338
O106	O	-0.469884	1.063354	-0.692461
O107	O	-0.317352	0.936712	-0.629124
O108	O	-0.406540	0.936708	-0.629115
O109	O	-0.380697	1.063359	-0.692470
O110	O	-0.406542	0.936710	-0.701561
O111	O	-0.317354	0.936714	-0.701571
O112	O	-0.469886	1.063356	-0.764907
Cu113	Cu	-0.393620	1.000035	-0.739854
Cu114	Cu	-0.393618	1.000033	-0.654178
O115	O	-0.380699	1.063360	-0.764916
O116	O	0.298803	0.294926	-0.764575
O117	O	0.235457	0.384089	-0.701236
O118	O	0.235461	0.294924	-0.701228
O119	O	0.298800	0.384091	-0.764583
O120	O	0.307905	0.222504	-0.628782
O121	O	0.307902	0.311669	-0.628790
O122	O	0.371248	0.222506	-0.692129
Cu123	Cu	0.346190	0.260475	-0.653845
Cu124	Cu	0.260516	0.346120	-0.739520
O125	O	0.371245	0.311671	-0.692138
C126	C	0.450791	0.137109	0.234755
C127	C	0.508246	0.083371	0.261632
C128	C	0.424336	0.163186	0.261091
C129	C	0.371914	0.215959	0.155880
C130	C	0.345035	0.246527	0.098424
C131	C	0.345580	0.241916	0.182336
C132	C	0.371915	0.215958	0.234757
C133	C	0.345037	0.246525	0.261636
C134	C	0.424336	0.163187	0.182334
C135	C	0.625476	0.215999	0.234731
C136	C	0.621772	0.246572	0.261605
C137	C	0.625838	0.163230	0.261069
C138	C	0.625493	0.215987	0.155862
C139	C	0.621807	0.246546	0.098407
C140	C	0.625855	0.163217	0.182319
C141	C	0.625475	0.137148	0.234738
C142	C	0.621769	0.083412	0.261618
C143	C	0.625857	0.241949	0.182312
C144	C	0.371894	0.390626	0.234737
C145	C	0.345013	0.360058	0.261613
C146	C	0.424315	0.364664	0.261074
C147	C	0.371899	0.469481	0.155863
C148	C	0.345023	0.523225	0.098407
C149	C	0.424319	0.443399	0.182320
C150	C	0.450772	0.390623	0.234741
C151	C	0.508227	0.360052	0.261622
C152	C	0.345562	0.443403	0.182316
C153	C	0.567583	0.613983	-0.503964
C154	C	0.567223	0.587898	-0.530294
C155	C	0.567568	0.535141	-0.425087
C156	C	0.567208	0.509176	-0.451537
C157	C	0.567589	0.535126	-0.503956
C158	C	0.567203	0.587912	-0.451545
C159	C	0.581864	0.789858	-0.552141
C160	C	0.585904	0.839668	-0.576969
C161	C	0.587943	0.864647	-0.628914
C162	C	0.592334	0.918648	-0.655834
C163	C	0.585936	0.839815	-0.656029
C164	C	0.581889	0.790014	-0.631203
C165	C	0.579852	0.765035	-0.579256
C166	C	0.581907	0.472673	-0.631700
C167	C	0.585953	0.443812	-0.656696
C168	C	0.587979	0.389857	-0.629742
C169	C	0.592374	0.358554	-0.656836
C170	C	0.585952	0.364768	-0.577791
C171	C	0.581897	0.393634	-0.552800
C172	C	0.579878	0.447589	-0.579760
C173	C	0.581803	0.472746	-0.234887
C174	C	0.585836	0.443894	-0.181021
C175	C	0.587859	0.389939	-0.153997
C176	C	0.592234	0.358652	-0.095591
C177	C	0.585855	0.364835	-0.180838
C178	C	0.581825	0.393687	-0.234702
C179	C	0.579794	0.447647	-0.261724
C180	C	0.575468	0.711029	-0.552338
C181	C	0.571972	0.667983	-0.530882
C182	C	0.571941	0.503858	-0.366684
C183	C	0.575424	0.478924	-0.320130
C184	C	0.571984	0.503828	-0.531054
C185	C	0.575485	0.478882	-0.552655
O186	O	0.593717	0.311733	0.371167
O187	O	0.619578	0.222560	0.307837
O188	O	0.530383	0.311734	0.307818
O189	O	0.682911	0.222559	0.371186
O190	O	0.530400	0.384146	0.235373
O191	O	0.619594	0.294972	0.235392
O192	O	0.593733	0.384146	0.298722
Cu193	Cu	0.606665	0.346171	0.260442
Cu194	Cu	0.606646	0.260535	0.346116
O195	O	0.682928	0.294972	0.298741
C196	C	0.031769	1.071141	-0.503978
C197	C	0.058226	1.097099	-0.530310
C198	C	0.110641	0.992283	-0.425100
C199	C	0.136978	1.018361	-0.451552
C200	C	0.110646	1.071137	-0.503973
C201	C	0.058220	1.018364	-0.451557
C202	C	-0.158441	1.133577	-0.552152
C203	C	-0.212306	1.162435	-0.576981
C204	C	-0.239324	1.216395	-0.628927
C205	C	-0.297731	1.247694	-0.655847
C206	C	-0.212473	1.241492	-0.656045
C207	C	-0.158611	1.212629	-0.631219
C208	C	-0.131595	1.158669	-0.579270
C209	C	0.158822	1.213138	-0.631728
C210	C	0.183651	1.242168	-0.656727
C211	C	0.235595	1.217251	-0.629774
C212	C	0.262518	1.248725	-0.656871
C213	C	0.262712	1.163295	-0.577821
C214	C	0.237888	1.134261	-0.552827
C215	C	0.185937	1.159192	-0.579786
C216	C	0.158794	0.816397	-0.234892
C217	C	0.183615	0.766586	-0.181024
C218	C	0.235562	0.741595	-0.154000
C219	C	0.262476	0.687588	-0.095593
C220	C	0.262682	0.766420	-0.180844
C221	C	0.237859	0.816232	-0.234710
C222	C	0.185915	0.841213	-0.261732
C223	C	-0.073190	1.127379	-0.552352
C224	C	-0.026636	1.102436	-0.530896
C225	C	0.137553	0.938276	-0.366694
C226	C	0.159005	0.895225	-0.320139
C227	C	0.137565	1.102616	-0.531074
C228	C	0.159021	1.127708	-0.552678
H229	H	0.180026	-0.003515	0.040137
H230	H	0.259945	0.836441	-0.256563
N231	N	0.318709	0.739473	-0.151701
H232	H	0.330322	0.704150	-0.113504
H233	H	0.343690	0.724040	-0.169771
N234	N	0.030071	-0.010609	0.040336
H235	H	-0.007223	0.013934	0.040510
H236	H	0.028172	-0.010854	0.007625
N237	N	0.566455	0.616788	-0.587342
H238	H	0.533395	0.629461	-0.610644
H239	H	0.566307	0.654220	-0.600044
H240	H	0.179684	0.467088	-0.430293
N241	N	0.452468	0.134282	0.318142
H242	H	0.485416	0.134052	0.320318
H243	H	0.427698	0.158846	0.330844
N244	N	0.626652	0.298192	0.154169
H245	H	0.593947	0.333071	0.121208
H246	H	0.626838	0.310715	0.178924
N247	N	0.267137	1.076073	-0.496796
H248	H	0.246541	1.083011	-0.472609
H249	H	0.270651	1.041560	-0.496773
H250	H	0.302504	0.465201	0.161062
H251	H	0.445549	0.322197	0.304146
N252	N	0.588139	0.306573	-0.548721
H253	H	0.620238	0.273578	-0.515063
H254	H	0.554608	0.315109	-0.539223
H255	H	0.626451	0.141392	0.161080
N256	N	0.566411	0.452935	-0.423407
H257	H	0.566227	0.440376	-0.386116
H258	H	0.533344	0.462750	-0.443843
H259	H	0.626426	0.141411	0.304140
N260	N	0.452466	0.134285	0.154195
H261	H	0.489761	0.096832	0.178918
H262	H	0.432040	0.121647	0.143579
H263	H	0.305346	0.320569	-0.554863
N264	N	0.030091	0.989444	-0.423429
H265	H	0.054821	0.951980	-0.386139
H266	H	-0.002862	1.020235	-0.421516
N267	N	0.030069	0.153285	0.040329
H268	H	-0.007227	0.165853	0.040499
H269	H	0.050494	0.143477	0.073397
N270	N	0.452459	0.472305	0.154192
H271	H	0.427737	0.509762	0.116897
H272	H	0.463076	0.484937	0.174623
N273	N	0.288543	0.298193	0.154190
H274	H	0.275809	0.310759	0.178917
H275	H	0.286441	0.333017	0.121250
N276	N	0.566413	0.616822	-0.423412
H277	H	0.566246	0.654274	-0.448137
H278	H	0.533342	0.629463	-0.412800
H279	H	0.587471	0.464336	-0.159169
H280	H	0.445570	0.322221	-0.019828
H281	H	-0.136752	1.233065	-0.653302
H282	H	0.302504	0.465241	-0.019828
N283	N	0.452463	0.472331	-0.020037
H284	H	0.427739	0.509785	-0.020208
H285	H	0.485418	0.441525	0.012677
N286	N	0.154364	0.300289	0.018684
H287	H	0.117691	0.311668	0.020584
H288	H	0.175001	0.293307	0.049814
H289	H	0.580146	0.516684	-0.256888
N290	N	0.579661	0.762922	-0.496117
H291	H	0.581542	0.786212	-0.482710
H292	H	0.545176	0.766364	-0.496161
H293	H	0.161567	1.286100	-0.699025
N294	N	0.102762	0.239945	0.027093
H295	H	0.089348	0.278525	0.025202
H296	H	0.078684	0.250359	-0.004035
H297	H	0.587547	0.859875	-0.554885
N298	N	0.588132	0.866756	-0.712052
H299	H	0.591001	0.902073	-0.723666
H300	H	0.620237	0.833973	-0.712910
H301	H	0.580196	0.373241	-0.256552
H302	H	0.587605	0.464243	-0.698993
H303	H	-0.136470	0.233374	0.026544
N304	N	0.579722	0.763234	-0.660446
H305	H	0.581627	0.786613	-0.697119
H306	H	0.610851	0.718465	-0.639802
H307	H	0.580260	0.516606	-0.653656
N308	N	0.579706	0.366580	-0.496774
H309	H	0.581602	0.328021	-0.483489
H310	H	0.610830	0.356092	-0.472624
N311	N	0.588039	0.306639	-0.151694
H312	H	0.590895	0.292170	-0.113499
H313	H	0.554532	0.315167	-0.169768
N314	N	0.194028	0.989454	-0.423418
H315	H	0.206768	0.951999	-0.386123
H316	H	0.217289	0.976820	-0.443844
H317	H	0.036984	1.139573	-0.573380
H318	H	0.161523	-0.253650	0.019208
H319	H	0.161528	0.746378	-0.159171
H320	H	0.116504	0.836724	-0.256895
N321	N	0.029726	0.617209	-0.587344
H322	H	0.054450	0.592665	-0.600087
H323	H	-0.003229	0.617451	-0.589484
H324	H	-0.136449	1.089640	-0.509854
H325	H	0.305342	0.320560	-0.159147
N326	N	-0.241287	0.300294	0.018679
H327	H	-0.215997	0.311675	0.020575
H328	H	-0.272320	0.334795	-0.015806
H329	H	-0.234509	0.142959	0.019192
N330	N	0.102755	-0.156692	0.027073
H331	H	0.101848	-0.189431	0.059179
H332	H	0.091172	-0.121366	0.029917
H333	H	-0.136785	0.090286	0.026529
N334	N	-0.241264	1.135369	-0.547735
H335	H	-0.215977	1.096808	-0.511060
H336	H	-0.272300	1.166363	-0.544257
H337	H	-0.234475	1.285425	-0.698340
H338	H	0.305010	1.143002	-0.555878
N339	N	0.318704	-0.260559	0.018663
H340	H	0.330317	-0.295876	0.015796
H341	H	0.319575	-0.227782	-0.013437
N342	N	0.267102	-0.157036	0.027066
H343	H	0.303777	-0.180420	0.025169
H344	H	0.246467	-0.112267	-0.004064
N345	N	0.267097	0.076030	0.027057
H346	H	0.303772	0.064648	0.025162
H347	H	0.270573	0.041526	0.061540
H348	H	0.304977	0.142952	0.019195
H349	H	0.036622	0.610110	-0.430290
N350	N	0.267120	0.366651	-0.264015
H351	H	0.303822	0.328070	-0.238835
H352	H	0.246409	0.356238	-0.277676
N353	N	0.102796	1.240016	-0.660803
H354	H	0.077777	1.283048	-0.670344
H355	H	0.101942	1.241525	-0.694437
N356	N	0.267112	0.366637	-0.496088
H357	H	0.303814	0.328056	-0.482675
H358	H	0.270519	0.397699	-0.496112
H359	H	0.162203	0.463648	-0.698309
H360	H	-0.234843	0.860559	-0.555872
N361	N	0.103119	0.530579	-0.660438
H362	H	0.089836	0.541960	-0.697112
H363	H	0.078973	0.523597	-0.639799
H364	H	-0.136807	0.769901	-0.653670
H365	H	-0.137119	0.770202	-0.510519
N366	N	-0.241622	0.866820	-0.712746
H367	H	-0.216333	0.843434	-0.726027
H368	H	-0.272656	0.863371	-0.712771
N369	N	0.103120	0.530574	-0.263652
H370	H	0.089841	0.541958	-0.238363
H371	H	0.103100	0.565070	-0.294687
N372	N	0.155071	0.470237	-0.151689
H373	H	0.178788	0.443666	-0.113494
H374	H	0.145535	0.513271	-0.169766
