data_functionalizedCrystal
_audit_creation_method	'MofGen! by Chris Wilmer'
_symmetry_space_group_name_H-M	'P1'
_symmetry_Int_Tables_number	1
_symmetry_cell_setting	triclinic
loop_
_symmetry_equiv_pos_as_xyz
  x,y,z
_cell_length_a	13.032891
_cell_length_b	13.032721
_cell_length_c	19.805398
_cell_angle_alpha	97.154074
_cell_angle_beta	82.816630
_cell_angle_gamma	90.903621
loop_
_atom_site_label
_atom_site_type_symbol
_atom_site_fract_x
_atom_site_fract_y
_atom_site_fract_z
Zn1	Zn	1.520133	-0.609392	-0.557643
Zn2	Zn	1.498194	-0.781364	-0.456799
Zn3	Zn	1.348176	-0.587554	-0.428554
Zn4	Zn	1.326283	-0.759441	-0.554029
O5	O	1.423197	-0.684438	-0.499256
O6	O	1.661133	-0.650519	-0.557598
O7	O	1.478274	-0.755690	-0.358337
O8	O	1.389331	-0.446544	-0.435369
O9	O	1.645014	-0.776866	-0.483509
O10	O	1.515667	-0.462589	-0.530210
O11	O	1.368057	-0.613299	-0.337585
O12	O	1.201362	-0.592041	-0.431866
O13	O	1.352017	-0.739501	-0.649224
O14	O	1.185277	-0.718326	-0.524052
O15	O	1.494438	-0.629261	-0.651879
O16	O	1.457046	-0.922362	-0.480005
O17	O	1.330744	-0.906256	-0.551440
C18	C	1.156005	-0.650435	-0.474502
C19	C	1.041696	-0.635914	-0.463930
C20	C	0.864646	-0.677014	-0.493854
C21	C	0.982789	-0.692028	-0.504779
C22	C	1.389166	-0.951626	-0.518413
C23	C	1.374702	-1.065942	-0.526639
C24	C	1.430800	-1.124849	-0.494998
C25	C	1.415852	-1.243001	-0.503500
C26	C	1.691431	-0.718574	-0.524107
C27	C	1.805737	-0.733120	-0.534698
C28	C	1.423233	-0.684372	-0.675796
C29	C	1.423248	-0.684343	-0.751027
C30	C	1.457388	-0.416210	-0.480042
C31	C	1.471958	-0.301907	-0.471855
C32	C	1.480822	-0.758344	-1.223625
C33	C	1.480790	-0.758368	-1.152936
C34	C	1.423391	-0.684244	-1.106793
C35	C	1.366012	-0.610097	-1.131342
C36	C	1.366039	-0.610078	-1.202030
C37	C	1.365902	-0.610172	-0.846266
C38	C	1.365882	-0.610195	-0.775574
C39	C	1.480652	-0.758462	-0.797172
C40	C	1.480679	-0.758444	-0.867859
C41	C	1.423296	-0.684300	-0.892402
C42	C	1.423330	-0.684276	-0.969052
C43	C	1.423362	-0.684263	-1.030145
C44	C	1.423229	-0.684437	-0.323403
C45	C	1.423450	-0.684201	-0.248170
H46	H	0.842769	-0.792265	-0.577757
H47	H	0.827615	-0.617860	-0.450799
C48	C	1.551799	-1.251894	-0.426754
H49	H	1.585061	-1.304176	-0.408010
H50	H	1.517752	-1.205043	-0.390611
H51	H	1.601857	-1.215620	-0.453826
H52	H	1.019817	-0.751177	-0.547842
H53	H	1.319322	-0.549702	-1.222012
C54	C	0.991689	-0.555990	-0.405766
H55	H	0.918844	-0.556381	-0.406052
H56	H	1.018050	-0.489133	-0.412412
H57	H	1.007310	-0.573160	-0.362950
C58	C	1.336015	-1.293022	-0.548601
H59	H	1.336437	-1.365871	-0.548395
H60	H	1.353226	-1.277316	-0.594217
H61	H	1.269121	-1.266750	-0.531003
H62	H	1.489899	-1.087814	-0.461618
C63	C	1.543896	-0.839924	-1.125936
H64	H	1.535651	-0.829330	-1.077228
H65	H	1.614916	-0.833664	-1.142836
H66	H	1.520036	-0.907103	-1.141077
H67	H	1.315611	-1.102981	-0.560025
H68	H	1.527568	-0.818700	-1.261191
C69	C	1.543814	-0.839982	-0.918613
H70	H	1.577971	-0.884151	-0.893870
H71	H	1.593647	-0.806343	-0.947522
H72	H	1.498762	-0.879776	-0.945751
C73	C	1.302727	-0.528665	-0.724817
H74	H	1.268545	-0.484512	-0.749557
H75	H	1.347759	-0.488866	-0.697672
H76	H	1.252897	-0.562328	-0.695914
H77	H	1.319175	-0.549801	-0.866239
C78	C	1.543761	-0.840030	-0.770172
H79	H	1.535518	-0.829436	-0.721465
H80	H	1.614781	-0.833769	-0.787075
H81	H	1.519901	-0.907208	-0.785314
C82	C	1.302877	-0.528560	-1.080587
H83	H	1.311086	-0.539182	-1.034972
H84	H	1.231865	-0.534810	-1.086851
H85	H	1.326748	-0.461375	-1.088621
