data_functionalizedCrystal
_audit_creation_method	'MofGen! by Chris Wilmer'
_symmetry_space_group_name_H-M	'P1'
_symmetry_Int_Tables_number	1
_symmetry_cell_setting	triclinic
loop_
_symmetry_equiv_pos_as_xyz
  x,y,z
_cell_length_a	10.686220
_cell_length_b	25.639240
_cell_length_c	25.639234
_cell_angle_alpha	89.968234
_cell_angle_beta	94.352151
_cell_angle_gamma	94.415314
loop_
_atom_site_label
_atom_site_type_symbol
_atom_site_fract_x
_atom_site_fract_y
_atom_site_fract_z
Zn1	Zn	1.928974	-0.146780	-0.234363
Zn2	Zn	1.928793	-0.234214	-0.146922
Zn3	Zn	1.717966	-0.153505	-0.153638
Zn4	Zn	1.717873	-0.240906	-0.241020
O5	O	1.823402	-0.193852	-0.193986
O6	O	2.105528	-0.152763	-0.217166
O7	O	1.900790	-0.223521	-0.074649
O8	O	1.746071	-0.079444	-0.164371
O9	O	2.105395	-0.217000	-0.152924
O10	O	1.901098	-0.074504	-0.223679
O11	O	1.745896	-0.164225	-0.079583
O12	O	1.541376	-0.170715	-0.170826
O13	O	1.745913	-0.228407	-0.313301
O14	O	1.541308	-0.234928	-0.235026
O15	O	1.901008	-0.159253	-0.308410
O16	O	1.900700	-0.308270	-0.159379
O17	O	1.745738	-0.313188	-0.228513
C18	C	1.495557	-0.204278	-0.204378
C19	C	1.355304	-0.208750	-0.208836
C20	C	1.823223	-0.329700	-0.193950
C21	C	1.823262	-0.387813	-0.193949
C22	C	1.904164	-0.745559	-0.224926
C23	C	1.904201	-0.800162	-0.224936
O24	O	1.972774	-0.826180	-0.251238
N25	N	1.823577	-0.830085	-0.194031
C26	C	1.742901	-0.805403	-0.163118
O27	O	1.674326	-0.835868	-0.136832
C28	C	1.742858	-0.750801	-0.163112
C29	C	1.823497	-0.720880	-0.194015
C30	C	1.984795	-0.715638	-0.255827
C31	C	1.984759	-0.661039	-0.255817
C32	C	1.904092	-0.636360	-0.224906
C33	C	1.823461	-0.666280	-0.194005
C34	C	1.662177	-0.726119	-0.132202
C35	C	1.662140	-0.671514	-0.132199
C36	C	1.742779	-0.641593	-0.163102
C37	C	1.742758	-0.587002	-0.163083
N38	N	1.823382	-0.557079	-0.193988
C39	C	1.904050	-0.581758	-0.224899
C40	C	1.742995	-0.920070	-0.163134
C41	C	1.743043	-0.974671	-0.163137
C42	C	1.904342	-0.969426	-0.224956
C43	C	1.904299	-0.914825	-0.224950
C44	C	1.823619	-0.890147	-0.194039
C45	C	1.903969	-0.467095	-0.224875
C46	C	1.903929	-0.412491	-0.224860
C47	C	1.742626	-0.417741	-0.163044
C48	C	1.742670	-0.472340	-0.163056
C49	C	1.823345	-0.497016	-0.193976
O50	O	1.674216	-0.560948	-0.136795
O51	O	1.972601	-0.551286	-0.251186
C52	C	2.152526	-0.183385	-0.183553
C53	C	2.292779	-0.178925	-0.179108
C54	C	1.823470	-0.193826	-0.330356
C55	C	1.823499	-0.193815	-0.388470
C56	C	1.823615	-0.057472	-0.194031
C57	C	1.823706	0.000645	-0.194051
C58	C	1.904185	-0.224647	-0.637085
C59	C	1.904172	-0.224658	-0.582481
O60	O	1.972716	-0.250932	-0.552055
N61	N	1.823527	-0.193789	-0.557743
C62	C	1.742880	-0.162911	-0.587611
O63	O	1.674283	-0.136656	-0.561555
C64	C	1.742888	-0.162903	-0.642214
C65	C	1.823548	-0.193770	-0.666950
C66	C	1.984838	-0.255512	-0.661821
C67	C	1.984852	-0.255500	-0.716421
C68	C	1.904215	-0.224623	-0.746285
C69	C	1.823562	-0.193758	-0.721550
C70	C	1.662236	-0.132028	-0.672082
C71	C	1.662250	-0.132022	-0.726689
C72	C	1.742910	-0.162889	-0.751424
C73	C	1.742939	-0.162868	-0.806014
N74	N	1.823585	-0.193737	-0.830753
C75	C	1.904223	-0.224614	-0.800888
C76	C	1.742868	-0.162931	-0.472941
C77	C	1.742866	-0.162936	-0.418339
C78	C	1.904157	-0.224684	-0.413212
C79	C	1.904164	-0.224676	-0.467816
C80	C	1.823514	-0.193800	-0.497680
C81	C	1.904248	-0.224586	-0.915553
C82	C	1.904259	-0.224570	-0.970158
C83	C	1.742964	-0.162823	-0.975279
C84	C	1.742957	-0.162838	-0.920679
C85	C	1.823603	-0.193723	-0.890817
O86	O	1.674427	-0.136609	-0.836475
O87	O	1.972797	-0.250870	-0.826952
C88	C	1.823406	-0.193837	-0.058143
C89	C	1.823621	-0.193692	-0.000022
H90	H	1.301529	-0.237712	-0.237697
O91	O	1.664704	-0.132901	-0.502002
C92	C	1.647841	-0.062812	-0.564183
C93	C	1.736504	-0.096789	-0.531312
H94	H	1.705856	-0.033600	-0.587880
H95	H	1.581842	-0.088881	-0.591860
H96	H	1.590176	-0.040778	-0.537111
H97	H	1.794250	-0.118829	-0.558345
H98	H	1.802420	-0.070693	-0.503630
H99	H	1.346548	-0.149969	-0.150245
O100	O	1.982302	-0.383506	-0.254931
C101	C	2.142342	-0.384076	-0.316225
C102	C	2.053636	-0.416962	-0.282204
H103	H	2.200058	-0.411110	-0.338275
H104	H	2.084414	-0.360370	-0.345411
H105	H	2.208290	-0.356393	-0.290141
H106	H	1.987671	-0.444673	-0.308247
H107	H	2.111643	-0.440632	-0.253014
O108	O	1.583651	-0.755156	-0.102247
C109	C	1.369041	-0.778739	-0.083593
C110	C	1.457839	-0.745839	-0.117563
H111	H	1.267305	-0.771209	-0.095956
H112	H	1.382789	-0.822017	-0.088906
H113	H	1.391307	-0.767318	-0.040737
H114	H	1.435628	-0.757214	-0.160432
H115	H	1.444074	-0.702569	-0.112206
H116	H	1.596573	-0.106879	-0.751002
O117	O	1.982156	-0.491092	-0.254969
C118	C	1.999095	-0.552161	-0.325023
C119	C	1.910401	-0.525012	-0.290991
H120	H	1.941118	-0.579600	-0.354147
H121	H	2.056693	-0.521416	-0.347144
H122	H	2.065154	-0.575593	-0.298941
H123	H	1.844266	-0.501582	-0.317035
H124	H	1.852891	-0.555782	-0.268865
H125	H	2.050530	-0.280637	-0.736555
H126	H	1.596437	-0.651424	-0.107029
H127	H	1.969815	-0.249827	-0.388887
O128	O	2.063126	-0.632057	-0.285888
C129	C	2.223165	-0.632637	-0.347181
C130	C	2.134456	-0.665517	-0.313157
H131	H	2.280877	-0.659675	-0.369228
H132	H	2.165239	-0.608934	-0.376370
H133	H	2.289116	-0.604953	-0.321100
H134	H	2.068488	-0.693230	-0.339196
H135	H	2.192460	-0.689185	-0.283964
H136	H	1.596552	-0.106893	-0.651952
H137	H	2.050484	-0.735726	-0.281002
H138	H	1.969961	-0.890466	-0.250114
O139	O	2.063298	-0.285520	-0.632892
C140	C	2.223239	-0.346780	-0.633590
C141	C	2.134451	-0.312813	-0.666409
H142	H	2.280770	-0.368864	-0.660675
H143	H	2.289344	-0.320703	-0.605961
H144	H	2.165257	-0.375949	-0.609834
H145	H	2.192331	-0.283640	-0.690197
H146	H	2.068343	-0.338923	-0.694005
H147	H	1.970023	-0.989530	-0.250127
H148	H	1.677199	-0.137794	-0.398204
O149	O	1.664602	-1.003655	-0.133100
C150	C	1.504666	-1.003077	-0.071761
C151	C	1.593425	-0.970193	-0.105760
H152	H	1.447115	-0.976036	-0.049639
H153	H	1.438577	-1.030736	-0.097815
H154	H	1.562671	-1.026809	-0.042629
H155	H	1.535521	-0.946430	-0.134896
H156	H	1.659517	-0.942568	-0.079673
H157	H	1.677299	-0.899981	-0.137959
H158	H	1.677017	-0.496703	-0.137888
H159	H	1.676952	-0.397639	-0.137875
H160	H	1.969947	-0.249705	-0.990294
O161	O	1.982706	-0.254600	-0.886627
C162	C	2.142635	-0.315866	-0.887321
C163	C	2.053864	-0.281893	-0.920142
H164	H	2.200171	-0.337949	-0.914405
H165	H	2.208738	-0.289793	-0.859688
H166	H	2.084641	-0.345035	-0.863570
H167	H	2.111756	-0.252720	-0.943925
H168	H	1.987758	-0.307999	-0.947742
O169	O	1.982550	-0.254711	-0.491759
C170	C	2.142584	-0.315931	-0.480895
C171	C	2.053854	-0.281948	-0.453716
H172	H	2.200275	-0.337953	-0.450149
H173	H	2.084677	-0.345146	-0.508263
H174	H	2.208554	-0.289819	-0.504397
H175	H	1.987867	-0.308019	-0.430186
H176	H	2.111840	-0.252730	-0.426378
H177	H	1.677294	-0.137696	-0.900538
H178	H	1.677315	-0.137682	-0.999605
