data_functionalizedCrystal
_audit_creation_method	'MofGen! by Chris Wilmer'
_symmetry_space_group_name_H-M	'P1'
_symmetry_Int_Tables_number	1
_symmetry_cell_setting	triclinic
loop_
_symmetry_equiv_pos_as_xyz
  x,y,z
_cell_length_a	18.101398
_cell_length_b	18.101395
_cell_length_c	15.299448
_cell_angle_alpha	99.699061
_cell_angle_beta	99.704834
_cell_angle_gamma	90.028835
loop_
_atom_site_label
_atom_site_type_symbol
_atom_site_fract_x
_atom_site_fract_y
_atom_site_fract_z
Zn1	Zn	1.204680	-0.222378	0.510277
Zn2	Zn	1.538013	0.110955	0.843610
Zn3	Zn	1.871347	0.444289	1.176943
Zn4	Zn	1.183123	-0.367661	0.359409
Zn5	Zn	1.516457	-0.034327	0.692743
Zn6	Zn	1.849790	0.299006	1.026076
Zn7	Zn	1.059386	-0.243833	0.359407
Zn8	Zn	1.392719	0.089500	0.692741
Zn9	Zn	1.726053	0.422834	1.026074
Zn10	Zn	1.080781	-0.346186	0.510215
Zn11	Zn	1.414114	-0.012853	0.843548
Zn12	Zn	1.747447	0.320481	1.176882
O13	O	1.131992	-0.295014	0.434827
O14	O	1.465326	0.038319	0.768160
O15	O	1.798659	0.371652	1.101494
O16	O	1.305457	-0.241658	0.490291
O17	O	1.638790	0.091675	0.823624
O18	O	1.972124	0.425009	1.156957
O19	O	1.148734	-0.369201	0.233157
O20	O	1.482067	-0.035868	0.566490
O21	O	1.815400	0.297466	0.899824
O22	O	1.078727	-0.137350	0.379445
O23	O	1.412061	0.195983	0.712779
O24	O	1.745394	0.529316	1.046112
O25	O	1.289619	-0.348397	0.379449
O26	O	1.622953	-0.015063	0.712782
O27	O	1.956286	0.318270	1.046116
O28	O	1.185474	-0.121587	0.490288
O29	O	1.518807	0.211746	0.823622
O30	O	1.852141	0.545079	1.156955
O31	O	1.057825	-0.278225	0.233155
O32	O	1.391158	0.055108	0.566489
O33	O	1.724491	0.388441	0.899822
O34	O	0.958587	-0.257402	0.379386
O35	O	1.291921	0.075931	0.712719
O36	O	1.625254	0.409265	1.046052
O37	O	1.115192	-0.311796	0.636475
O38	O	1.448525	0.021537	0.969809
O39	O	1.781858	0.354870	1.303142
O40	O	0.974306	-0.332600	0.490183
O41	O	1.307639	0.000733	0.823517
O42	O	1.640973	0.334066	1.156850
O43	O	1.206220	-0.220835	0.636521
O44	O	1.539553	0.112498	0.969854
O45	O	1.872886	0.445832	1.303187
O46	O	1.169479	-0.468448	0.379389
O47	O	1.502813	-0.135115	0.712723
O48	O	1.836146	0.198218	1.046056
O49	O	1.094289	-0.452671	0.490185
O50	O	1.427622	-0.119338	0.823519
O51	O	1.760956	0.213996	1.156852
C52	C	0.939575	-0.295000	0.434778
C53	C	1.272908	0.038334	0.768111
C54	C	1.606242	0.371667	1.101445
C55	C	0.857261	-0.295008	0.434779
C56	C	1.190594	0.038325	0.768112
C57	C	1.523928	0.371659	1.101445
C58	C	1.131890	-0.487429	0.434801
C59	C	1.465223	-0.154095	0.768134
C60	C	1.798556	0.179238	1.101467
C61	C	1.131918	-0.569740	0.434819
C62	C	1.465251	-0.236407	0.768153
C63	C	1.798584	0.096927	1.101486
C64	C	0.706558	-0.295017	0.434819
C65	C	1.039892	0.038316	0.768152
C66	C	1.373225	0.371649	1.101486
C67	C	0.665306	-0.247606	0.365224
C68	C	0.998640	0.085727	0.698557
C69	C	1.331973	0.419061	1.031891
C70	C	0.579721	-0.247358	0.365453
C71	C	0.913054	0.085975	0.698786
C72	C	1.246387	0.419309	1.032119
C73	C	0.558181	-0.295027	0.434857
C74	C	0.891514	0.038307	0.768191
C75	C	1.224848	0.371640	1.101524
C76	C	0.602856	-0.260669	0.530046
C77	C	0.936190	0.072664	0.863379
C78	C	1.269523	0.405997	1.196713
C79	C	0.688441	-0.260305	0.529621
C80	C	1.021774	0.073028	0.862955
C81	C	1.355108	0.406361	1.196288
C82	C	0.671435	-0.376815	0.410065
C83	C	1.004768	-0.043482	0.743398
C84	C	1.338101	0.289852	1.076732
C85	C	0.585488	-0.376697	0.407991
C86	C	0.918822	-0.043364	0.741324
C87	C	1.252155	0.289969	1.074657
C88	C	0.474326	-0.295033	0.434885
C89	C	0.807659	0.038301	0.768218
C90	C	1.140992	0.371634	1.101552
C91	C	0.790415	-0.295009	0.434798
C92	C	1.123748	0.038324	0.768131
C93	C	1.457081	0.371658	1.101465
C94	C	1.132087	-0.868824	0.434868
C95	C	1.465420	-0.535491	0.768201
C96	C	1.798754	-0.202157	1.101535
C97	C	1.084937	-0.827578	0.504751
C98	C	1.418270	-0.494245	0.838084
C99	C	1.751603	-0.160912	1.171418
C100	C	1.084634	-0.741992	0.504532
C101	C	1.417967	-0.408658	0.837866
C102	C	1.751301	-0.075325	1.171199
C103	C	1.132003	-0.720445	0.434845
C104	C	1.465336	-0.387112	0.768178
C105	C	1.798670	-0.053778	1.101511
C106	C	1.097353	-0.765105	0.339757
C107	C	1.430686	-0.431772	0.673091
C108	C	1.764020	-0.098438	1.006424
C109	C	1.097044	-0.850691	0.340175
C110	C	1.430378	-0.517357	0.673509
C111	C	1.763711	-0.184024	1.006842
C112	C	1.213894	-0.833709	0.459235
C113	C	1.547227	-0.500376	0.792569
C114	C	1.880560	-0.167042	1.125902
C115	C	1.213729	-0.747762	0.461321
C116	C	1.547063	-0.414428	0.794654
C117	C	1.880396	-0.081095	1.127987
C118	C	1.131956	-0.636588	0.434826
C119	C	1.465289	-0.303255	0.768159
C120	C	1.798623	0.030079	1.101492
C121	C	1.132131	-0.952682	0.434881
C122	C	1.465465	-0.619348	0.768214
C123	C	1.798798	-0.286015	1.101547
C124	C	1.325161	-0.295030	0.434877
C125	C	1.658495	0.038304	0.768210
C126	C	1.991828	0.371637	1.101544
C127	C	1.407478	-0.295036	0.434898
C128	C	1.740812	0.038297	0.768231
C129	C	2.074145	0.371630	1.101565
C130	C	1.165497	-0.261527	0.670149
C131	C	1.498830	0.071806	1.003482
C132	C	1.832164	0.405140	1.336816
C133	C	1.179774	-0.247257	0.770429
C134	C	1.513108	0.086077	1.103763
C135	C	1.846441	0.419410	1.437096
C136	C	1.132119	-0.101846	0.434874
C137	C	1.465452	0.231488	0.768207
C138	C	1.798785	0.564821	1.101540
C139	C	1.132172	-0.019529	0.434893
C140	C	1.465506	0.313804	0.768227
C141	C	1.798839	0.647138	1.101560
C142	C	1.098661	-0.328318	0.200421
C143	C	1.431994	0.005015	0.533754
C144	C	1.765328	0.338349	0.867087
C145	C	1.084527	-0.342380	0.100141
C146	C	1.417860	-0.009046	0.433474
C147	C	1.751194	0.324287	0.766808
C148	C	1.233876	-0.193192	0.817562
C149	C	1.567209	0.140142	1.150895
C150	C	1.900543	0.473475	1.484229
C151	C	1.247284	-0.179774	0.911780
C152	C	1.580618	0.153559	1.245113
C153	C	1.913951	0.486892	1.578447
C154	C	1.206597	-0.220425	0.958875
C155	C	1.539930	0.112909	1.292208
C156	C	1.873263	0.446242	1.625542
C157	C	1.152497	-0.274494	0.911742
C158	C	1.485831	0.058839	1.245076
C159	C	1.819164	0.392172	1.578409
C160	C	1.139084	-0.287909	0.817515
C161	C	1.472417	0.045424	1.150848
C162	C	1.805750	0.378758	1.484182
C163	C	1.111804	-0.315142	0.958828
C164	C	1.445137	0.018191	1.292161
C165	C	1.778471	0.351525	1.625495
C166	C	1.057705	-0.369212	0.911695
C167	C	1.391038	-0.035878	1.245029
C168	C	1.724372	0.297455	1.578362
C169	C	1.044294	-0.382624	0.817477
C170	C	1.377627	-0.049291	1.150811
C171	C	1.710961	0.284043	1.484144
C172	C	1.084982	-0.341974	0.770382
C173	C	1.418315	-0.008640	1.103716
C174	C	1.751649	0.324693	1.437049
C175	C	1.125218	-0.301727	1.053055
C176	C	1.458551	0.031606	1.386389
C177	C	1.791884	0.364939	1.719722
C178	C	1.030425	-0.396445	1.053008
C179	C	1.363759	-0.063111	1.386342
C180	C	1.697092	0.270222	1.719675
C181	C	1.017017	-0.409862	0.958790
C182	C	1.350350	-0.076529	1.292124
C183	C	1.683684	0.256805	1.625457
H184	H	0.548629	-0.270382	0.294883
H185	H	0.881962	0.062951	0.628217
H186	H	1.215296	0.396284	0.961550
H187	H	1.217516	-0.209496	1.035592
H188	H	1.550849	0.123837	1.368925
H189	H	1.884183	0.457170	1.702258
Br190	Br	0.682791	-0.285763	0.247214
Br191	Br	1.016124	0.047570	0.580547
Br192	Br	1.349458	0.380903	0.913881
Br193	Br	0.943599	-0.483240	0.894814
Br194	Br	1.276932	-0.149906	1.228148
Br195	Br	1.610265	0.183427	1.561481
H196	H	1.107879	-0.710911	0.575038
H197	H	1.441212	-0.377577	0.908372
H198	H	1.774546	-0.044244	1.241705
H199	H	0.584464	-0.201066	0.551339
H200	H	0.917797	0.132267	0.884672
H201	H	1.251131	0.465601	1.218005
H202	H	1.037705	-0.746703	0.318747
H203	H	1.371038	-0.413370	0.652081
H204	H	1.704371	-0.080036	0.985414
H205	H	0.683290	-0.405537	0.341812
H206	H	1.016624	-0.072203	0.675146
H207	H	1.349957	0.261130	1.008479
H208	H	0.590093	-0.293561	0.583335
H209	H	0.923426	0.039772	0.916669
H210	H	1.256760	0.373106	1.250002
H211	H	0.555171	-0.402365	0.337936
H212	H	0.888504	-0.069032	0.671269
H213	H	1.221837	0.264301	1.004602
H214	H	0.570778	-0.414980	0.454951
H215	H	0.904111	-0.081647	0.788284
H216	H	1.237445	0.251687	1.121617
Br217	Br	1.066791	-0.360185	0.642509
Br218	Br	1.400124	-0.026852	0.975842
Br219	Br	1.733457	0.306481	1.309176
H220	H	1.036842	-0.873664	0.319535
H221	H	1.370175	-0.540331	0.652868
H222	H	1.703509	-0.206997	0.986202
H223	H	0.997289	-0.429541	1.091353
H224	H	1.330622	-0.096207	1.424686
H225	H	1.663956	0.237126	1.758019
H226	H	1.242849	-0.845574	0.527392
H227	H	1.576182	-0.512241	0.860725
H228	H	1.909516	-0.178908	1.194058
Br229	Br	1.289060	-0.138001	0.753645
Br230	Br	1.622393	0.195332	1.086978
Br231	Br	1.955726	0.528666	1.420311
Br232	Br	0.705062	-0.147632	0.392259
Br233	Br	1.038395	0.185702	0.725592
Br234	Br	1.371729	0.519035	1.058926
H235	H	0.698916	-0.412300	0.460754
H236	H	1.032250	-0.078966	0.794088
H237	H	1.365583	0.254367	1.127421
H238	H	0.711421	-0.200121	0.550545
H239	H	1.044754	0.133212	0.883878
H240	H	1.378087	0.466545	1.217211
H241	H	0.561595	-0.187022	0.381887
H242	H	0.894929	0.146311	0.715221
H243	H	1.228262	0.479645	1.048554
Br244	Br	0.735738	-0.314164	0.619036
Br245	Br	1.069072	0.019169	0.952369
Br246	Br	1.402405	0.352503	1.285703
H247	H	1.108083	-0.838077	0.575485
H248	H	1.441416	-0.504744	0.908819
H249	H	1.774749	-0.171410	1.242152
Br250	Br	1.320730	-0.106426	0.975740
Br251	Br	1.654063	0.226907	1.309073
Br252	Br	1.987397	0.560240	1.642406
H253	H	1.024954	-0.851427	0.488813
H254	H	1.358288	-0.518094	0.822146
H255	H	1.691621	-0.184760	1.155479
Br256	Br	0.984023	-0.711762	0.477636
Br257	Br	1.317356	-0.378429	0.810969
Br258	Br	1.650689	-0.045095	1.144303
H259	H	1.129164	-0.879060	0.286331
H260	H	1.462498	-0.545726	0.619664
H261	H	1.795831	-0.212393	0.952998
Br262	Br	0.970861	-0.455991	0.753513
Br263	Br	1.304194	-0.122658	1.086846
Br264	Br	1.637528	0.210675	1.420179
H265	H	1.130019	-0.752336	0.286269
H266	H	1.463352	-0.419002	0.619602
H267	H	1.796686	-0.085669	0.952936
H268	H	1.239614	-0.717457	0.531300
H269	H	1.572947	-0.384123	0.864633
H270	H	1.906280	-0.050790	1.197966
H271	H	1.251803	-0.733055	0.414132
H272	H	1.585136	-0.399722	0.747465
H273	H	1.918469	-0.066389	1.080799
Br274	Br	1.272727	-0.879528	0.374417
Br275	Br	1.606060	-0.546195	0.707750
Br276	Br	1.939394	-0.212861	1.041084
H277	H	1.169264	-0.257702	1.091422
H278	H	1.502598	0.075632	1.424755
H279	H	1.835931	0.408965	1.758088
