data_functionalizedCrystal
_audit_creation_method	'MofGen! by Chris Wilmer'
_symmetry_space_group_name_H-M	'P1'
_symmetry_Int_Tables_number	1
_symmetry_cell_setting	triclinic
loop_
_symmetry_equiv_pos_as_xyz
  x,y,z
_cell_length_a	15.538191
_cell_length_b	16.992694
_cell_length_c	16.053833
_cell_angle_alpha	92.723321
_cell_angle_beta	86.458157
_cell_angle_gamma	111.029842
loop_
_atom_site_label
_atom_site_type_symbol
_atom_site_fract_x
_atom_site_fract_y
_atom_site_fract_z
O1	O	0.191874	-0.982833	0.069317
O2	O	0.189728	-0.755157	0.069342
O3	O	0.057008	-0.913314	0.069329
O4	O	0.324594	-0.824676	0.069330
O5	O	0.064374	-0.917116	-0.069530
O6	O	0.197094	-0.758960	-0.069517
O7	O	0.199241	-0.986635	-0.069542
Zn8	Zn	0.199337	-0.873401	-0.091576
Zn9	Zn	0.189631	-0.868391	0.091376
O10	O	0.331960	-0.828479	-0.069528
C11	C	0.026294	-0.924489	-0.000099
C12	C	-0.076201	-0.952112	-0.000094
C13	C	0.190651	-0.728631	-0.000084
C14	C	0.182416	-0.643931	-0.000075
C15	C	0.198317	-1.013161	-0.000114
C16	C	0.206552	-1.097862	-0.000118
C17	C	-0.384652	-0.677678	-0.000082
C18	C	-0.480962	-0.703654	-0.000086
C19	C	-0.492405	-0.849764	-0.000102
C20	C	-0.396094	-0.823800	-0.000093
C21	C	-0.342225	-0.737756	-0.000084
C22	C	-0.353667	-0.883877	-0.000095
C23	C	-0.257364	-0.857915	-0.000091
C24	C	-0.203488	-0.771875	-0.000084
C25	C	-0.245922	-0.711794	-0.000080
C26	C	-0.407537	-0.969921	-0.000110
C27	C	-0.365110	-1.029998	-0.000113
C28	C	-0.268806	-1.004037	-0.000102
C29	C	-0.214931	-0.917997	-0.000096
C30	C	-0.226373	-1.064118	-0.000107
C31	C	-0.130070	-1.038156	-0.000103
C32	C	-0.118628	-0.892035	-0.000091
C33	C	0.362675	-0.817304	-0.000099
C34	C	0.465169	-0.789680	-0.000099
N35	N	0.205961	-0.876826	-0.216436
C36	C	0.261869	-0.571077	-0.000075
C37	C	0.254127	-0.491494	-0.000086
C38	C	0.166930	-0.484767	-0.000092
C39	C	0.087471	-0.557629	-0.000094
C40	C	0.095214	-0.637210	-0.000089
C41	C	0.134837	-0.250304	-0.000114
C42	C	0.127099	-0.170715	-0.000117
C43	C	0.293756	-0.104586	-0.000111
C44	C	0.301491	-0.184172	-0.000101
C45	C	0.222032	-0.257026	-0.000107
N46	N	0.159014	-0.403421	-0.000101
N47	N	0.229949	-0.338370	-0.000104
C48	C	0.240154	-0.894403	-0.740068
C49	C	0.235514	-0.892013	-0.652662
C50	C	0.173716	-0.860199	-0.608952
C51	C	0.116560	-0.830766	-0.652653
C52	C	0.121206	-0.833151	-0.740058
C53	C	0.153450	-0.849778	-0.347543
C54	C	0.148807	-0.847398	-0.260131
C55	C	0.267763	-0.908643	-0.260146
C56	C	0.272399	-0.911030	-0.347553
C57	C	0.215247	-0.881593	-0.391246
N58	N	0.168970	-0.857758	-0.519608
N59	N	0.219998	-0.884029	-0.480588
N60	N	0.183001	-0.864974	0.216237
H61	H	-0.074764	-0.821969	-0.000078
H62	H	0.056089	-0.165245	-0.000121
F63	F	-0.100993	-0.744244	-0.000087
F64	F	-0.188585	-0.620215	-0.000062
H65	H	0.066247	-0.804859	-0.617058
F66	F	0.060378	-0.801827	-0.786562
F67	F	-0.526112	-0.639704	-0.000089
H68	H	0.030514	-0.696529	-0.000088
F69	F	-0.283715	-1.155689	-0.000131
F70	F	-0.084913	-1.102098	-0.000117
F71	F	-0.549745	-0.941335	-0.000118
F72	F	0.296368	-0.923307	-0.606162
H73	H	0.098484	-0.821487	-0.224545
H74	H	-0.340788	-0.607613	-0.000068
F75	F	0.378316	-0.027046	-0.000106
F76	F	0.394298	-0.191324	-0.000090
F77	F	0.050268	-0.327832	-0.000121
F78	F	-0.005331	-0.550467	-0.000105
H79	H	0.332874	-0.576545	-0.000070
H80	H	0.290473	-0.920313	-0.775650
H81	H	0.106910	-0.825812	-0.383108
F82	F	0.338692	-0.413960	-0.000083
F83	F	-0.510032	-0.997550	-0.000121
F84	F	0.338175	-0.944888	-0.394066
H85	H	0.314294	-0.932607	-0.224561
F86	F	-0.422451	-1.121570	-0.000129
