data_functionalizedCrystal
_audit_creation_method	'MofGen! by Chris Wilmer'
_symmetry_space_group_name_H-M	'P1'
_symmetry_Int_Tables_number	1
_symmetry_cell_setting	triclinic
loop_
_symmetry_equiv_pos_as_xyz
  x,y,z
_cell_length_a	10.489689
_cell_length_b	9.565339
_cell_length_c	10.654550
_cell_angle_alpha	90.001711
_cell_angle_beta	95.498624
_cell_angle_gamma	90.008184
loop_
_atom_site_label
_atom_site_type_symbol
_atom_site_fract_x
_atom_site_fract_y
_atom_site_fract_z
O1	O	-1.694009	-0.116363	0.176868
O2	O	-1.322797	-0.116343	0.193569
O3	O	-1.516938	-0.116345	0.002482
O4	O	-1.499868	-0.116362	0.367955
O5	O	-1.516917	0.116175	0.002499
O6	O	-1.322776	0.116177	0.193586
O7	O	-1.693988	0.116157	0.176886
Zn8	Zn	-1.508378	0.153084	0.185239
Zn9	Zn	-1.508406	-0.153271	0.185216
O10	O	-1.499847	0.116158	0.367973
C11	C	-1.275254	-0.000081	0.192330
C12	C	-1.133623	-0.000073	0.188598
C13	C	-0.951179	-0.000089	0.303517
C14	C	-1.043364	-0.114731	0.246105
C15	C	-1.043316	0.114515	0.246091
C16	C	-0.973471	-0.114832	0.124473
C17	C	-0.973414	0.114518	0.124476
C18	C	-1.065571	-0.000153	0.066976
N19	N	-1.508369	0.362164	0.185253
C20	C	-1.418555	0.453367	0.273597
C21	C	-1.534040	0.546539	0.298990
C22	C	-1.392927	0.546548	0.159877
C23	C	-1.623912	0.453283	0.210704
C24	C	-1.482723	0.453284	0.071540
C25	C	-1.598291	0.546413	0.096886
C26	C	-0.741528	-0.000101	0.178144
C27	C	-0.883152	-0.000095	0.181936
C28	C	-1.515674	-0.000086	-0.044308
C29	C	-1.511924	-0.000088	-0.183752
N30	N	-1.508401	0.637650	0.185214
C31	C	-1.626231	-0.000094	-0.263205
C32	C	-1.622700	-0.000111	-0.394227
C33	C	-1.390545	-0.000109	-0.366330
C34	C	-1.394077	-0.000102	-0.235311
C35	C	-1.501111	-0.000104	0.414762
C36	C	-1.504861	-0.000111	0.554207
H37	H	-0.942696	-0.211864	0.073070
O38	O	-1.688840	0.594923	0.007597
C39	C	-1.629749	0.676059	-0.080920
H40	H	-1.524833	0.644575	-0.079787
H41	H	-1.680347	0.657773	-0.179077
H42	H	-1.636285	0.791434	-0.055476
H43	H	-1.715781	-0.000120	-0.458914
H44	H	-1.294598	-0.000118	-0.408325
O45	O	-1.282912	-0.000033	-0.158301
C46	C	-1.178140	-0.000070	-0.231899
H47	H	-1.209639	0.043949	-0.329384
H48	H	-1.097971	0.067437	-0.184282
H49	H	-1.142089	-0.111622	-0.241545
H50	H	-0.901440	-0.000206	0.403457
O51	O	-1.559982	0.595658	0.413597
C52	C	-1.560751	0.743041	0.411627
H53	H	-1.580651	0.781046	0.310235
H54	H	-1.638611	0.783332	0.469987
H55	H	-1.463616	0.783922	0.453064
O56	O	-1.080356	-0.230177	0.307708
C57	C	-1.021602	-0.229752	0.432399
H58	H	-0.993996	-0.118201	0.461225
H59	H	-1.091267	-0.272871	0.498556
H60	H	-0.932036	-0.297839	0.438247
O61	O	-1.276552	0.595585	0.134123
C62	C	-1.290828	0.676578	0.023104
H63	H	-1.393418	0.716730	0.007135
H64	H	-1.221952	0.768987	0.032954
H65	H	-1.268658	0.609513	-0.060548
O66	O	-1.124711	0.000029	-0.052328
C67	C	-1.200999	0.120992	-0.070780
H68	H	-1.163548	0.205185	-0.000998
H69	H	-1.196834	0.160901	-0.171124
H70	H	-1.304300	0.094707	-0.055141
H71	H	-1.074239	0.211434	0.297563
O72	O	-1.740812	-0.000160	-0.213328
C73	C	-1.840943	-0.000139	-0.311557
H74	H	-1.804396	-0.044159	-0.400863
H75	H	-1.923150	-0.067654	-0.283460
H76	H	-1.876254	0.111408	-0.329781
O77	O	-1.456553	0.404431	-0.043078
C78	C	-1.334689	0.451896	-0.069458
H79	H	-1.274962	0.478110	0.022597
H80	H	-1.284751	0.366587	-0.121199
H81	H	-1.345810	0.549369	-0.131104
H82	H	-0.942407	0.211448	0.073082
O83	O	-1.740327	0.404599	0.236709
C84	C	-1.725826	0.322626	0.347133
H85	H	-1.633734	0.353634	0.406108
H86	H	-1.810984	0.340516	0.404102
H87	H	-1.721035	0.207447	0.320482
O88	O	-1.328171	0.404677	0.362963
C89	C	-1.355706	0.452225	0.482682
H90	H	-1.461959	0.478341	0.480079
H91	H	-1.330763	0.367004	0.555720
H92	H	-1.296663	0.549776	0.509055
