data_functionalizedCrystal
_audit_creation_method	'MofGen! by Chris Wilmer'
_symmetry_space_group_name_H-M	'P1'
_symmetry_Int_Tables_number	1
_symmetry_cell_setting	triclinic
loop_
_symmetry_equiv_pos_as_xyz
  x,y,z
_cell_length_a	16.109301
_cell_length_b	16.109301
_cell_length_c	14.586319
_cell_angle_alpha	90.005214
_cell_angle_beta	89.996501
_cell_angle_gamma	96.538519
loop_
_atom_site_label
_atom_site_type_symbol
_atom_site_fract_x
_atom_site_fract_y
_atom_site_fract_z
O1	O	1.103131	-0.106866	-0.076243
O2	O	1.603131	0.393134	0.423757
O3	O	0.861069	-0.120165	-0.076245
O4	O	1.361069	0.379835	0.423755
O5	O	0.988749	0.007515	-0.076235
O6	O	1.488749	0.507515	0.423765
O7	O	0.975450	-0.234547	-0.076254
O8	O	1.475450	0.265453	0.423746
O9	O	0.988741	0.007517	0.076246
O10	O	1.488741	0.507517	0.576246
O11	O	0.861060	-0.120164	0.076236
O12	O	1.361060	0.379836	0.576236
O13	O	1.103122	-0.106864	0.076238
O14	O	1.603122	0.393136	0.576238
Cu15	Cu	0.982090	-0.113514	0.090159
Cu16	Cu	1.482090	0.386486	0.590159
Cu17	Cu	0.982101	-0.113516	-0.090167
Cu18	Cu	1.482101	0.386484	0.409833
O19	O	0.975441	-0.234545	0.076227
O20	O	1.475441	0.265455	0.576227
C21	C	0.830090	-0.119626	-0.000005
C22	C	1.330090	0.380374	0.499995
C23	C	0.737794	-0.118011	-0.000006
C24	C	1.237794	0.381989	0.499994
C25	C	1.134101	-0.107404	-0.000004
C26	C	1.634101	0.392596	0.499996
C27	C	1.226397	-0.109019	-0.000010
C28	C	1.726397	0.390981	0.499990
C29	C	0.988206	0.038491	0.000006
C30	C	1.488206	0.538491	0.500006
C31	C	0.986591	0.130786	0.000007
C32	C	1.486591	0.630786	0.500007
C33	C	0.975984	-0.265521	-0.000016
C34	C	1.475984	0.234479	0.499984
C35	C	0.977600	-0.357816	-0.000023
C36	C	1.477600	0.142184	0.499977
C37	C	1.448669	-0.037011	0.000000
C38	C	1.948669	0.462989	0.500000
C39	C	1.535389	-0.038535	0.000003
C40	C	2.035389	0.461465	0.500003
C41	C	1.515515	-0.190024	-0.000013
C42	C	2.015515	0.309976	0.499987
C43	C	1.428796	-0.188499	-0.000010
C44	C	1.928796	0.311501	0.499990
C45	C	1.395376	-0.111990	-0.000008
C46	C	1.895376	0.388010	0.499992
C47	C	1.568815	-0.115039	-0.000008
C48	C	2.068815	0.384961	0.499992
C49	C	1.662841	-0.116692	-0.000005
C50	C	2.162841	0.383308	0.499995
C51	C	1.301344	-0.110337	-0.000009
C52	C	1.801344	0.389663	0.499991
N53	N	0.982089	-0.113512	0.216991
N54	N	1.482089	0.386488	0.716991
C55	C	1.058599	0.353059	-0.000006
C56	C	1.558599	0.853059	0.499994
C57	C	1.057075	0.439779	-0.000014
C58	C	1.557075	0.939779	0.499986
C59	C	0.905586	0.419905	-0.000012
C60	C	1.405586	0.919905	0.499988
C61	C	0.907111	0.333186	-0.000011
C62	C	1.407111	0.833186	0.499989
C63	C	0.983620	0.299766	-0.000003
C64	C	1.483620	0.799766	0.499997
C65	C	0.980571	0.473205	-0.000012
C66	C	1.480571	0.973205	0.499988
C67	C	0.978918	0.567231	-0.000020
C68	C	1.478918	1.067231	0.499980
C69	C	0.985273	0.205734	0.000003
C70	C	1.485273	0.705734	0.500003
N71	N	0.982109	-0.113511	-0.216999
N72	N	1.482109	0.386489	0.283001
C73	C	1.038645	-0.056994	0.452002
C74	C	1.538645	0.443006	0.952002
C75	C	1.038647	-0.056992	0.547983
C76	C	1.538647	0.443008	1.047983
C77	C	0.925547	-0.170032	0.547984
C78	C	1.425547	0.329968	1.047984
C79	C	0.925541	-0.170030	0.452004
C80	C	1.425541	0.329970	0.952004
C81	C	0.982095	-0.113511	0.404016
C82	C	1.482095	0.386489	0.904016
C83	C	0.982103	-0.113512	0.595977
C84	C	1.482103	0.386488	1.095977
C85	C	0.982105	-0.113510	0.700044
C86	C	1.482105	0.386490	1.200044
C87	C	0.982092	-0.113512	0.299942
C88	C	1.482092	0.386488	0.799942
H89	H	1.421461	0.025287	0.000004
H90	H	1.921461	0.525287	0.500004
H91	H	1.542737	-0.252315	-0.000017
H92	H	2.042737	0.247685	0.499983
O93	O	0.834327	0.281326	0.000114
O94	O	1.334327	0.781326	0.500114
C95	C	0.830665	0.230588	0.079095
C96	C	1.330665	0.730588	0.579095
H97	H	0.896656	0.226231	0.105424
H98	H	1.396656	0.726231	0.605424
H99	H	0.799687	0.165399	0.061331
H100	H	1.299687	0.665399	0.561331
H101	H	0.792693	0.259105	0.134394
H102	H	1.292693	0.759105	0.634394
O103	O	1.587242	0.034245	-0.000116
O104	O	2.087242	0.534245	0.499884
C105	C	1.637988	0.037905	-0.079099
C106	C	2.137988	0.537905	0.420901
H107	H	1.642355	-0.028087	-0.105431
H108	H	2.142355	0.471913	0.394569
H109	H	1.703172	0.068892	-0.061336
H110	H	2.203172	0.568892	0.438664
H111	H	1.609472	0.075867	-0.134395
H112	H	2.109472	0.575867	0.365605
O113	O	1.129854	0.491633	0.000106
O114	O	1.629854	0.991633	0.500106
C115	C	1.133512	0.542387	0.079085
C116	C	1.633512	1.042387	0.579085
H117	H	1.067520	0.546755	0.105413
H118	H	1.567520	1.046755	0.605413
H119	H	1.164498	0.607570	0.061318
H120	H	1.664498	1.107570	0.561318
H121	H	1.171476	0.513877	0.134385
H122	H	1.671476	1.013877	0.634385
O123	O	0.831342	0.452510	0.000030
O124	O	1.331342	0.952510	0.500030
C125	C	0.846072	0.540478	0.000009
C126	C	1.346072	1.040478	0.500009
H127	H	0.910958	0.560864	0.028874
H128	H	1.410958	1.060864	0.528874
H129	H	0.797119	0.567092	0.044282
H130	H	1.297119	1.067092	0.544282
H131	H	0.842049	0.564612	-0.073143
H132	H	1.342049	1.064612	0.426857
O133	O	1.093604	-0.002009	0.405528
O134	O	1.593604	0.497991	0.905528
C135	C	1.143529	0.047862	0.468469
C136	C	1.643529	0.547862	0.968469
H137	H	1.109447	0.048806	0.536891
H138	H	1.609447	0.548806	1.036891
H139	H	1.156228	0.114257	0.440746
H140	H	1.656228	0.614257	0.940746
H141	H	1.205282	0.020851	0.478664
H142	H	1.705282	0.520851	0.978664
O143	O	0.870721	-0.224972	0.405285
O144	O	1.370721	0.275028	0.905285
C145	C	0.915229	-0.276287	0.349770
C146	C	1.415229	0.223713	0.849770
H147	H	0.980292	-0.243190	0.335389
H148	H	1.480292	0.256810	0.835389
H149	H	0.880522	-0.289428	0.282279
H150	H	1.380522	0.210572	0.782279
H151	H	0.920862	-0.337738	0.386749
H152	H	1.420862	0.162262	0.886749
H153	H	1.084694	-0.010969	0.587051
H154	H	1.584694	0.489031	1.087051
H155	H	0.879503	-0.216049	0.587065
H156	H	1.379503	0.283951	1.087065
O157	O	1.377140	-0.261415	-0.000059
O158	O	1.877140	0.238585	0.499941
C159	C	1.425231	-0.329271	-0.000046
C160	C	1.925231	0.170729	0.499954
H161	H	1.489961	-0.308157	-0.028916
H162	H	1.989961	0.191843	0.471084
H163	H	1.393222	-0.381803	-0.044319
H164	H	1.893222	0.118197	0.455681
H165	H	1.431396	-0.352723	0.073104
H166	H	1.931396	0.147277	0.573104
O167	O	1.132989	0.320731	-0.000051
O168	O	1.632989	0.820731	0.499949
C169	C	1.198839	0.386369	-0.000036
C170	C	1.698839	0.886369	0.499964
H171	H	1.175544	0.445269	-0.028900
H172	H	1.675544	0.945269	0.471100
H173	H	1.252252	0.368261	-0.044311
H174	H	1.752252	0.868261	0.455689
H175	H	1.221970	0.398654	0.073114
H176	H	1.721970	0.898654	0.573114
