data_functionalizedCrystal
_audit_creation_method	'MofGen! by Chris Wilmer'
_symmetry_space_group_name_H-M	'P1'
_symmetry_Int_Tables_number	1
_symmetry_cell_setting	triclinic
loop_
_symmetry_equiv_pos_as_xyz
  x,y,z
_cell_length_a	19.288859
_cell_length_b	17.766277
_cell_length_c	10.654550
_cell_angle_alpha	90.006164
_cell_angle_beta	83.809328
_cell_angle_gamma	90.010232
loop_
_atom_site_label
_atom_site_type_symbol
_atom_site_fract_x
_atom_site_fract_y
_atom_site_fract_z
O1	O	0.922381	0.062609	0.156620
O2	O	0.720258	0.062607	0.177761
O3	O	0.825967	0.062603	-0.015649
O4	O	0.816673	0.062613	0.350029
O5	O	0.825948	-0.062585	-0.015659
O6	O	0.720240	-0.062581	0.177751
O7	O	0.922362	-0.062580	0.156610
Cu8	Cu	0.821299	-0.074011	0.167179
Cu9	Cu	0.821322	0.074039	0.167191
O10	O	0.816654	-0.062576	0.350019
C11	C	0.694368	0.000013	0.177077
C12	C	0.617251	0.000012	0.175039
N13	N	0.821289	-0.178142	0.167171
C14	C	0.868112	-0.217530	0.081571
C15	C	0.868116	-0.296332	0.081565
C16	C	0.821303	-0.335742	0.167181
C17	C	0.774471	-0.296344	0.252787
C18	C	0.774464	-0.217544	0.252782
C19	C	0.812754	-0.460577	0.281602
C20	C	0.812766	-0.539376	0.281608
C21	C	0.821322	-0.578788	0.167196
C22	C	0.829881	-0.539392	0.052771
C23	C	0.829873	-0.460592	0.052766
C24	C	0.821306	-0.421188	0.167195
C25	C	0.868152	-0.703623	0.081582
C26	C	0.868151	-0.782426	0.081575
C27	C	0.774510	-0.782437	0.252808
C28	C	0.774508	-0.703635	0.252804
C29	C	0.821332	-0.664233	0.167193
C30	C	0.053863	0.000015	0.274735
C31	C	0.126322	0.000019	0.276661
C32	C	0.170286	0.000015	0.163177
C33	C	0.141785	0.000026	0.047759
C34	C	0.069327	0.000030	0.045836
C35	C	0.290995	-0.043849	0.078538
C36	C	0.363452	-0.043857	0.080466
C37	C	0.393770	0.000008	0.169103
C38	C	0.351623	0.043871	0.255834
C39	C	0.279165	0.043874	0.253911
C40	C	0.248855	0.000012	0.165249
C41	C	0.500831	0.000006	0.286602
C42	C	0.573292	0.000015	0.288524
C43	C	0.588754	0.000014	0.059618
C44	C	0.516294	0.000013	0.057700
C45	C	0.472337	0.000005	0.171196
C46	C	0.948253	0.000017	0.157294
C47	C	1.025370	0.000022	0.159332
C48	C	0.825275	0.000009	-0.062437
C49	C	0.823233	0.000011	-0.201836
N50	N	0.821338	0.178169	0.167190
C51	C	0.885473	0.000011	-0.282657
C52	C	0.883550	0.000021	-0.413636
C53	C	0.757143	0.000025	-0.382962
C54	C	0.759067	0.000021	-0.251985
C55	C	0.817346	0.000020	0.396807
C56	C	0.819387	0.000023	0.536207
H57	H	0.906238	-0.185451	0.011858
H58	H	0.934232	0.000023	-0.479436
H59	H	0.397763	-0.079577	0.009850
H60	H	0.708380	0.000023	-0.186177
C61	C	0.037980	0.000036	-0.081109
H62	H	-0.011469	0.000042	-0.066000
H63	H	0.053024	-0.043618	-0.127834
H64	H	0.053038	0.043700	-0.127805
C65	C	0.919625	-0.339669	-0.012596
H66	H	0.947512	-0.304916	-0.063579
H67	H	0.894396	-0.370423	-0.064755
H68	H	0.948754	-0.370393	0.032464
C69	C	0.803337	-0.417228	0.407461
H70	H	0.804550	-0.364655	0.391071
H71	H	0.839895	-0.430124	0.456506
H72	H	0.759743	-0.430153	0.452439
C73	C	0.005514	0.000017	0.399575
H74	H	0.032866	0.000020	0.468582
H75	H	-0.023084	-0.043636	0.403579
H76	H	-0.023061	0.043681	0.403590
H77	H	0.836840	-0.428519	-0.040402
H78	H	0.465039	0.000002	0.379017
H79	H	0.704901	0.000032	-0.423810
H80	H	0.937722	0.000004	-0.241830
H81	H	0.596489	0.000016	0.382502
C82	C	0.157673	0.000009	0.403609
H83	H	0.121116	0.000001	0.470926
H84	H	0.185628	0.043661	0.409129
H85	H	0.185607	-0.043656	0.409098
H86	H	0.736334	-0.185473	0.322489
C87	C	0.839287	-0.582735	-0.073090
H88	H	0.838057	-0.635308	-0.056705
H89	H	0.882875	-0.569816	-0.118081
H90	H	0.802721	-0.569831	-0.122122
H91	H	0.906278	-0.671540	0.011868
H92	H	0.624549	0.000016	-0.032783
H93	H	0.906278	-0.814497	0.011863
C94	C	0.384960	0.092126	0.353341
H95	H	0.349481	0.118244	0.404721
H96	H	0.416164	0.127394	0.310683
H97	H	0.409795	0.060501	0.404795
C98	C	0.484950	0.000008	-0.069245
H99	H	0.521509	-0.000001	-0.136558
H100	H	0.457012	0.043663	-0.074751
H101	H	0.457000	-0.043654	-0.074753
H102	H	0.736392	-0.814524	0.322513
H103	H	0.805802	-0.571446	0.374780
C104	C	0.723009	-0.660305	0.346979
H105	H	0.695133	-0.695061	0.397976
H106	H	0.693878	-0.629576	0.301941
H107	H	0.748247	-0.629556	0.399141
C108	C	0.722981	-0.339692	0.346965
H109	H	0.729696	-0.392264	0.334718
H110	H	0.676561	-0.326796	0.333542
H111	H	0.730928	-0.326765	0.430745
C112	C	0.232803	0.092124	0.349294
H113	H	0.185309	0.085838	0.335454
H114	H	0.245432	0.143590	0.338580
H115	H	0.239058	0.076701	0.432698
C116	C	0.257652	-0.092104	-0.018967
H117	H	0.293128	-0.118236	-0.070330
H118	H	0.232816	-0.060486	-0.070420
H119	H	0.226447	-0.127372	0.023705
H120	H	0.177585	0.000025	-0.044640
