data_functionalizedCrystal
_audit_creation_method	'MofGen! by Chris Wilmer'
_symmetry_space_group_name_H-M	'P1'
_symmetry_Int_Tables_number	1
_symmetry_cell_setting	triclinic
loop_
_symmetry_equiv_pos_as_xyz
  x,y,z
_cell_length_a	11.792254
_cell_length_b	14.044190
_cell_length_c	10.268362
_cell_angle_alpha	89.989939
_cell_angle_beta	89.995475
_cell_angle_gamma	88.695187
loop_
_atom_site_label
_atom_site_type_symbol
_atom_site_fract_x
_atom_site_fract_y
_atom_site_fract_z
O1	O	1.519112	0.130045	-0.108315
O2	O	2.019112	0.630045	0.391685
O3	O	1.190030	0.143429	-0.108320
O4	O	1.690030	0.643429	0.391680
O5	O	1.349627	-0.001273	-0.108292
O6	O	1.849627	0.498727	0.391708
O7	O	1.359515	0.274747	-0.108343
O8	O	1.859515	0.774747	0.391657
O9	O	1.349612	-0.001279	0.108309
O10	O	1.849612	0.498721	0.608309
O11	O	1.190014	0.143423	0.108281
O12	O	1.690014	0.643423	0.608281
O13	O	1.519097	0.130039	0.108286
O14	O	2.019097	0.630039	0.608286
Cu15	Cu	1.354554	0.136730	0.128061
Cu16	Cu	1.854554	0.636730	0.628061
Cu17	Cu	1.354573	0.136738	-0.128095
Cu18	Cu	1.854573	0.636738	0.371905
O19	O	1.359499	0.274741	0.108258
O20	O	1.859499	0.774741	0.608258
C21	C	1.147652	0.142583	-0.000019
C22	C	1.647652	0.642583	0.499981
C23	C	1.021402	0.140059	-0.000020
C24	C	1.521402	0.640059	0.499980
C25	C	0.918873	0.138009	-0.000025
C26	C	1.418873	0.638009	0.499975
C27	C	0.790246	0.135445	-0.000026
C28	C	1.290246	0.635445	0.499974
C29	C	1.345294	-0.036613	0.000012
C30	C	1.845294	0.463387	0.500012
C31	C	1.332392	-0.141906	0.000023
C32	C	1.832392	0.358094	0.500023
C33	C	1.400309	-0.391841	-0.000027
C34	C	1.900309	0.108159	0.499973
C35	C	1.308822	-0.334686	-0.000019
C36	C	1.808822	0.165314	0.499981
C37	C	1.321940	-0.227413	0.000005
C38	C	1.821940	0.272587	0.500005
C39	C	1.387194	-0.499123	-0.000050
C40	C	1.887194	0.000877	0.499950
C41	C	1.561474	0.130885	-0.000017
C42	C	2.061474	0.630885	0.499983
C43	C	1.687724	0.133409	-0.000025
C44	C	2.187724	0.633409	0.499975
C45	C	1.363832	0.310081	-0.000049
C46	C	1.863832	0.810081	0.499951
C47	C	1.376735	0.415374	-0.000069
C48	C	1.876735	0.915374	0.499931
N49	N	1.354549	0.136725	0.308227
N50	N	1.854549	0.636725	0.808227
N51	N	1.354586	0.136736	-0.308261
N52	N	1.854586	0.636736	0.191739
C53	C	1.354567	0.136736	0.573897
C54	C	1.854567	0.636736	1.073897
C55	C	1.354554	0.136732	0.426059
C56	C	1.854554	0.636732	0.926059
H57	H	1.220647	-0.366317	-0.000028
H58	H	1.720647	0.133683	0.499972
H59	H	1.488478	-0.360211	-0.000012
H60	H	1.988478	0.139789	0.499988
