data_functionalizedCrystal
_audit_creation_method	'MofGen! by Chris Wilmer'
_symmetry_space_group_name_H-M	'P1'
_symmetry_Int_Tables_number	1
_symmetry_cell_setting	triclinic
loop_
_symmetry_equiv_pos_as_xyz
  x,y,z
_cell_length_a	19.288864
_cell_length_b	9.130313
_cell_length_c	19.288865
_cell_angle_alpha	90.006464
_cell_angle_beta	83.136245
_cell_angle_gamma	90.014070
loop_
_atom_site_label
_atom_site_type_symbol
_atom_site_fract_x
_atom_site_fract_y
_atom_site_fract_z
O1	O	0.921344	0.122286	0.086645
O2	O	0.719084	0.122188	0.098333
O3	O	0.826058	0.122211	-0.008641
O4	O	0.814370	0.122263	0.193619
O5	O	0.826057	-0.121388	-0.008638
O6	O	0.719082	-0.121411	0.098336
O7	O	0.921343	-0.121313	0.086647
Cu8	Cu	0.820213	-0.143605	0.092492
Cu9	Cu	0.820214	0.144479	0.092489
O10	O	0.814368	-0.121336	0.193622
C11	C	0.693207	0.000375	0.097959
C12	C	0.616103	0.000337	0.096830
N13	N	0.820217	-0.346227	0.092494
C14	C	0.571407	0.000376	0.159598
C15	C	0.498960	0.000392	0.158537
C16	C	0.471212	0.000398	0.094705
C17	C	0.515918	0.000350	0.031929
C18	C	0.588364	0.000320	0.032991
C19	C	0.362951	0.085778	0.044525
C20	C	0.290506	0.085817	0.043465
C21	C	0.247767	0.000486	0.091425
C22	C	0.277479	-0.084866	0.140457
C23	C	0.349924	-0.084897	0.141520
C24	C	0.392658	0.000430	0.093546
C25	C	0.124514	0.000540	0.153047
C26	C	0.052066	0.000547	0.151984
C27	C	0.069026	0.000520	0.025374
C28	C	0.141473	0.000499	0.026439
C29	C	0.169212	0.000516	0.090278
C30	C	0.867597	-0.422869	0.045142
C31	C	0.867595	-0.576206	0.045133
C32	C	0.772830	-0.576246	0.139836
C33	C	0.772829	-0.422911	0.139840
C34	C	0.914984	-0.346185	-0.002205
C35	C	0.962369	-0.422827	-0.049561
C36	C	0.962367	-0.576164	-0.049569
C37	C	0.914980	-0.652859	-0.002222
C38	C	0.947220	0.000502	0.087022
C39	C	1.024324	0.000551	0.088151
C40	C	0.825682	0.000407	-0.034516
C41	C	0.824553	0.000393	-0.111620
N42	N	0.820216	0.347102	0.092481
C43	C	0.887321	0.000416	-0.156316
C44	C	0.886260	0.000439	-0.228763
C45	C	0.822428	0.000409	-0.256511
C46	C	0.759652	0.000394	-0.211805
C47	C	0.760714	0.000386	-0.139359
C48	C	0.772248	-0.084943	-0.364797
C49	C	0.771188	-0.084944	-0.437242
C50	C	0.819148	0.000440	-0.479956
C51	C	0.868180	0.085806	-0.450219
C52	C	0.869242	0.085798	-0.377774
C53	C	0.821269	0.000419	-0.335065
C54	C	0.880770	0.000490	-0.603209
C55	C	0.879707	0.000522	-0.675657
C56	C	0.753097	0.000462	-0.658697
C57	C	0.754162	0.000445	-0.586250
C58	C	0.818000	0.000452	-0.558511
C59	C	0.814745	0.000471	0.219497
C60	C	0.815874	0.000494	0.296601
H61	H	0.593987	0.000393	0.211580
H62	H	1.000946	-0.360374	-0.088113
C63	C	0.685118	0.000410	-0.537079
H64	H	0.694893	0.000423	-0.489960
H65	H	0.658930	-0.084545	-0.545473
H66	H	0.658939	0.085362	-0.545463
H67	H	0.734251	-0.638700	0.178385
H68	H	0.914991	-0.221330	-0.002201
H69	H	1.000945	-0.638564	-0.088132
H70	H	0.462561	0.000420	0.209652
C71	C	0.957540	0.000450	-0.125806
H72	H	0.994771	0.000482	-0.162806
H73	H	0.960589	-0.084494	-0.097901
H74	H	0.960585	0.085413	-0.097895
C75	C	0.914974	-0.821526	-0.002231
H76	H	0.879966	-0.856221	0.032747
H77	H	0.959334	-0.856198	0.007159
H78	H	0.905604	-0.856213	-0.046607
C79	C	0.691666	0.000347	-0.090191
H80	H	0.653497	0.000325	-0.117090
H81	H	0.689450	0.085285	-0.061567
H82	H	0.689451	-0.084622	-0.061589
H83	H	0.731260	-0.154445	-0.461447
C84	C	0.719487	-0.178870	-0.317817
H85	H	0.690142	-0.229723	-0.345903
H86	H	0.691856	-0.117361	-0.285795
H87	H	0.743920	-0.247492	-0.292780
C88	C	0.637535	0.000288	-0.036055
H89	H	0.684654	0.000264	-0.026279
H90	H	0.629162	0.085232	-0.062241
H91	H	0.629131	-0.084676	-0.062236
C92	C	0.720712	-0.338593	0.191924
H93	H	0.727494	-0.236291	0.185139
H94	H	0.728101	-0.363704	0.238265
H95	H	0.674381	-0.363749	0.184488
C96	C	0.382607	-0.178790	0.195444
H97	H	0.346782	-0.229617	0.223854
H98	H	0.407127	-0.117273	0.223903
H99	H	0.414068	-0.247434	0.171836
C100	C	0.230475	-0.178727	0.193220
H101	H	0.183074	-0.166498	0.185563
H102	H	0.236199	-0.148707	0.239347
H103	H	0.243145	-0.278887	0.187291
H104	H	0.493322	0.000375	-0.020044
C105	C	0.955307	0.000454	-0.277938
H106	H	0.993478	0.000448	-0.251041
H107	H	0.957529	0.085402	-0.306548
H108	H	0.957515	-0.084506	-0.306554
C109	C	0.923168	0.179696	-0.345061
H110	H	0.916933	0.167450	-0.295799
H111	H	0.916893	0.279842	-0.356106
H112	H	0.968951	0.149703	-0.363090
H113	H	0.701123	0.000445	-0.681288
H114	H	0.930822	0.000549	-0.712049
C115	C	0.155034	0.000541	0.223263
H116	H	0.204582	0.000537	0.214907
H117	H	0.139663	-0.084398	0.249100
H118	H	0.139694	0.085509	0.249098
C119	C	0.920935	0.179743	-0.497195
H120	H	0.913276	0.167541	-0.544599
H121	H	0.967066	0.149764	-0.491484
H122	H	0.914998	0.279888	-0.484491
H123	H	0.932751	0.000503	-0.580622
C124	C	0.689438	0.000356	-0.242324
H125	H	0.697795	0.000348	-0.291872
H126	H	0.663602	0.085291	-0.226963
H127	H	0.663603	-0.084616	-0.226973
H128	H	0.015674	0.000571	0.203099
H129	H	0.177866	0.000475	-0.024674
C130	C	0.038516	0.000520	-0.044842
H131	H	0.075515	0.000486	-0.082074
H132	H	0.010623	0.085475	-0.047892
H133	H	0.010593	-0.084433	-0.047885
C134	C	0.257829	0.179693	-0.010469
H135	H	0.293659	0.230486	-0.038890
H136	H	0.226366	0.248343	0.013122
H137	H	0.233313	0.118151	-0.038927
C138	C	0.409961	0.179643	-0.008235
H139	H	0.457362	0.167390	-0.000586
H140	H	0.397293	0.279796	-0.002307
H141	H	0.404237	0.149621	-0.054366
