data_functionalizedCrystal
_audit_creation_method	'MofGen! by Chris Wilmer'
_symmetry_space_group_name_H-M	'P1'
_symmetry_Int_Tables_number	1
_symmetry_cell_setting	triclinic
loop_
_symmetry_equiv_pos_as_xyz
  x,y,z
_cell_length_a	10.654550
_cell_length_b	15.944551
_cell_length_c	9.730223
_cell_angle_alpha	89.997716
_cell_angle_beta	89.996251
_cell_angle_gamma	83.991820
loop_
_atom_site_label
_atom_site_type_symbol
_atom_site_fract_x
_atom_site_fract_y
_atom_site_fract_z
O1	O	1.666308	0.117973	-0.114406
O2	O	1.300684	0.129213	-0.114384
O3	O	1.493480	0.001376	-0.114384
O4	O	1.473511	0.245810	-0.114407
O5	O	1.493478	0.001379	0.114196
O6	O	1.300681	0.129216	0.114196
O7	O	1.666305	0.117976	0.114174
Zn8	Zn	1.483493	0.123597	0.150477
Zn9	Zn	1.483496	0.123592	-0.150687
O10	O	1.473509	0.245813	0.114173
C11	C	1.253895	0.128389	-0.000092
C12	C	1.114484	0.125920	-0.000083
C13	C	1.492650	-0.029921	-0.000093
C14	C	1.490165	-0.123182	-0.000092
C15	C	1.034024	0.201188	-0.000110
C16	C	0.903034	0.198863	-0.000134
C17	C	0.932975	0.045995	-0.000108
C18	C	1.063963	0.048321	-0.000075
C19	C	1.016737	0.289446	-0.000131
C20	C	0.885746	0.287121	-0.000154
C21	C	1.364720	-0.338765	-0.000104
C22	C	1.422971	-0.399443	0.112596
C23	C	1.485668	-0.293934	-0.000103
C24	C	1.423002	-0.399430	-0.112765
C25	C	1.481317	-0.458872	-0.000119
C26	C	1.543953	-0.353384	0.112691
C27	C	1.543967	-0.353364	-0.112772
C28	C	1.602306	-0.414024	-0.000045
C29	C	1.488172	-0.198917	-0.000092
C30	C	1.478822	-0.553887	-0.000119
C31	C	1.713094	0.118800	-0.000122
C32	C	1.852505	0.121269	-0.000140
C33	C	1.474339	0.277110	-0.000120
C34	C	1.476824	0.370371	-0.000130
N35	N	1.483500	0.123599	0.356013
N36	N	1.483499	0.123583	-0.356224
C37	C	1.568892	0.067012	0.427939
C38	C	1.568889	0.067002	0.571822
C39	C	1.398098	0.180173	0.571840
C40	C	1.398096	0.180178	0.427959
C41	C	1.667501	0.001676	0.427931
C42	C	1.667498	0.001666	0.571814
H43	H	1.129470	-0.012970	-0.000033
H44	H	1.758420	0.022134	0.383297
H45	H	0.839729	0.313795	0.098527
H46	H	1.052030	0.317547	-0.098821
H47	H	1.371831	-0.419804	-0.208051
F48	F	1.233500	-0.295989	0.000044
F49	F	1.733640	-0.456607	0.000027
H50	H	1.595065	-0.333096	0.208074
F51	F	1.793401	0.020470	0.622853
F52	F	1.610777	-0.326665	-0.237324
H53	H	1.328552	0.226248	0.369398
H54	H	0.891824	-0.017184	-0.000123
H55	H	1.045621	0.323965	0.095532
H56	H	1.637774	-0.059344	0.616437
H57	H	1.371814	-0.419846	0.207881
F58	F	0.830632	0.330583	-0.125200
F59	F	1.307208	0.240385	0.648421
H60	H	1.646893	-0.062885	0.388884
