data_functionalizedCrystal
_audit_creation_method	'MofGen! by Chris Wilmer'
_symmetry_space_group_name_H-M	'P1'
_symmetry_Int_Tables_number	1
_symmetry_cell_setting	triclinic
loop_
_symmetry_equiv_pos_as_xyz
  x,y,z
_cell_length_a	6.817900
_cell_length_b	19.453114
_cell_length_c	10.992723
_cell_angle_alpha	94.462512
_cell_angle_beta	108.770285
_cell_angle_gamma	101.709288
loop_
_atom_site_label
_atom_site_type_symbol
_atom_site_fract_x
_atom_site_fract_y
_atom_site_fract_z
V1	V	-4.034025	-0.218993	-0.179100
O2	O	-3.993644	-0.214830	0.007230
O3	O	-4.012187	-0.217489	-0.353802
O4	O	-3.976613	-0.314506	-0.176949
O5	O	-4.029464	-0.117142	-0.170847
V6	V	-4.515379	-0.206811	-0.156742
O7	O	-4.300042	-0.245714	-0.228146
O8	O	-4.699559	-0.180090	-0.107696
O9	O	-4.314010	-0.208315	0.017960
O10	O	-4.673157	-0.210974	-0.343072
O11	O	-4.637336	-0.308662	-0.164995
O12	O	-4.349584	-0.111298	-0.158893
C13	C	-3.863942	-0.214033	-0.396372
C14	C	-3.927314	-0.213440	-0.539196
C15	C	-4.238101	-0.216562	-0.750156
C16	C	-4.172498	-0.217450	-0.601682
C17	C	-3.880545	-0.278496	-0.608806
C18	C	-3.947906	-0.277960	-0.757476
C19	C	-3.865739	-0.143683	-0.718381
C20	C	-3.803455	-0.143491	-0.569659
C21	C	-3.818562	-0.337786	-0.170777
C22	C	-3.853081	-0.415869	-0.170174
C23	C	-4.052060	-0.456126	-0.176340
C24	C	-4.084494	-0.529493	-0.175774
C25	C	-3.917950	-0.562602	-0.169068
C26	C	-3.718939	-0.522335	-0.162894
C27	C	-3.686504	-0.448968	-0.163447
N28	N	-3.868524	-0.681389	-0.236919
N29	N	-3.899349	-0.751084	-0.236397
C30	C	-4.015663	-0.783650	-0.167398
N31	N	-4.100025	-0.743890	-0.098958
N32	N	-4.069205	-0.674188	-0.099487
C33	C	-3.953100	-0.642155	-0.168466
C34	C	-4.249823	-0.903460	-0.172948
C35	C	-4.282246	-0.976827	-0.172374
C36	C	-3.916692	-0.969669	-0.159506
C37	C	-3.884268	-0.896302	-0.160068
C38	C	-4.050844	-0.863202	-0.166795
C39	C	-4.125599	-0.211770	0.060523
C40	C	-4.041465	-0.212367	0.203346
C41	C	-4.170978	-0.088014	-0.165069
C42	C	-4.115697	-0.009931	-0.165665
H43	H	-3.703838	-0.278033	-0.568365
H44	H	-4.312793	-0.169786	-0.775037
H45	H	-3.722245	-0.863525	-0.155061
H46	H	-4.214441	-0.170952	-0.554248
H47	H	-3.583338	-0.549297	-0.157429
H48	H	-3.838949	-0.095322	-0.522770
H49	H	-3.969264	-0.330257	-0.588937
H50	H	-3.803567	-0.277780	-0.788506
H51	H	-3.923488	-0.093809	-0.743533
H52	H	-3.623403	-0.136480	-0.525537
H53	H	-4.070408	-0.329680	-0.809613
H54	H	-3.781082	-0.996624	-0.154035
H55	H	-4.368759	-0.266115	-0.804596
H56	H	-4.187700	-0.429181	-0.181813
H57	H	-3.718333	-0.139963	-0.747553
H58	H	-4.246536	-0.562277	-0.180802
H59	H	-3.524464	-0.416190	-0.158416
H60	H	-4.385457	-0.876508	-0.178421
H61	H	-4.444278	-1.009603	-0.177386
H62	H	-4.271351	-0.267647	-0.583343
