data_functionalizedCrystal
_audit_creation_method	'MofGen! by Chris Wilmer'
_symmetry_space_group_name_H-M	'P1'
_symmetry_Int_Tables_number	1
_symmetry_cell_setting	triclinic
loop_
_symmetry_equiv_pos_as_xyz
  x,y,z
_cell_length_a	15.995350
_cell_length_b	16.109301
_cell_length_c	15.186229
_cell_angle_alpha	89.997109
_cell_angle_beta	89.998050
_cell_angle_gamma	96.523072
loop_
_atom_site_label
_atom_site_type_symbol
_atom_site_fract_x
_atom_site_fract_y
_atom_site_fract_z
O1	O	0.107619	-1.103163	0.073168
O2	O	0.121013	-0.861104	0.073182
O3	O	-0.007573	-0.988750	0.073174
O4	O	0.236206	-0.975517	0.073176
O5	O	-0.007566	-0.988736	-0.073283
O6	O	0.121020	-0.861090	-0.073275
O7	O	0.107627	-1.103148	-0.073289
Zn8	Zn	0.114325	-0.982116	-0.096535
Zn9	Zn	0.114315	-0.982136	0.096428
O10	O	0.236213	-0.975502	-0.073281
C11	C	0.120474	-0.830122	-0.000045
C12	C	0.118848	-0.737826	-0.000040
C13	C	-0.038764	-0.988196	-0.000053
C14	C	-0.131714	-0.986556	-0.000048
C15	C	0.108166	-1.134130	-0.000060
C16	C	0.109792	-1.226426	-0.000059
C17	C	-0.469460	-0.980665	-0.000050
C18	C	-0.422001	-0.889758	0.000283
C19	C	-0.325311	-0.891399	-0.000047
C20	C	-0.301900	-0.983587	-0.000049
C21	C	-0.342986	-1.028417	-0.083684
C22	C	-0.439621	-1.026133	-0.083754
C23	C	-0.439988	-1.028028	0.082795
C24	C	-0.343042	-1.028007	0.083901
C25	C	-0.207203	-0.985243	-0.000051
C26	C	-0.564157	-0.979012	-0.000054
C27	C	0.267404	-0.976056	-0.000052
C28	C	0.360354	-0.977697	-0.000051
N29	N	0.114331	-0.982109	-0.228228
C30	C	0.191366	-0.515573	-0.000049
C31	C	0.189831	-0.428853	-0.000055
C32	C	0.037268	-0.448686	-0.000053
C33	C	0.038804	-0.535405	-0.000053
C34	C	0.115855	-0.568846	-0.000047
C35	C	0.112785	-0.395406	-0.000052
C36	C	0.111120	-0.301380	-0.000058
C37	C	0.117520	-0.662879	-0.000043
C38	C	0.165117	-1.032546	-0.453953
C39	C	0.165111	-1.032555	-0.546143
C40	C	0.063511	-0.931711	-0.546147
C41	C	0.063513	-0.931706	-0.453959
C42	C	0.114321	-0.982123	-0.407865
C43	C	0.114313	-0.982136	-0.592242
C44	C	0.114306	-0.982145	-0.692198
C45	C	0.114327	-0.982115	-0.307902
N46	N	0.114302	-0.982150	0.228121
H47	H	-0.296883	-0.856159	0.059906
Br48	Br	-0.297078	-0.973836	0.187042
H49	H	0.022146	-0.890662	-0.583689
Br50	Br	0.295935	-0.560956	-0.000044
H51	H	-0.460523	-0.998313	0.146186
H52	H	-0.327699	-1.095235	0.088949
Br53	Br	-0.063683	-0.607710	-0.000062
H54	H	0.206487	-1.073599	-0.416426
Br55	Br	0.292315	-0.356556	-0.000062
Br56	Br	-0.067297	-0.403296	-0.000058
Br57	Br	0.234047	-1.100994	-0.608689
H58	H	-0.471767	-1.095054	0.083356
H59	H	0.022144	-0.890645	-0.416433
Br60	Br	-0.455036	-0.829281	-0.098814
H61	H	-0.440526	-0.853430	0.060260
H62	H	-0.297434	-0.855909	-0.060099
H63	H	-0.471887	-1.092876	-0.087550
Br64	Br	-0.470109	-0.971624	-0.187951
Br65	Br	-0.295666	-0.976503	-0.187421
Br66	Br	-0.319478	-1.141304	-0.088875
