data_functionalizedCrystal
_audit_creation_method	'MofGen! by Chris Wilmer'
_symmetry_space_group_name_H-M	'P1'
_symmetry_Int_Tables_number	1
_symmetry_cell_setting	triclinic
loop_
_symmetry_equiv_pos_as_xyz
  x,y,z
_cell_length_a	14.908783
_cell_length_b	12.594516
_cell_length_c	14.908858
_cell_angle_alpha	86.674923
_cell_angle_beta	90.167034
_cell_angle_gamma	93.302904
loop_
_atom_site_label
_atom_site_type_symbol
_atom_site_fract_x
_atom_site_fract_y
_atom_site_fract_z
Zn1	Zn	1.345376	-0.292220	-0.587861
Zn2	Zn	1.353973	-0.479880	-0.437507
Zn3	Zn	1.203685	-0.312725	-0.428829
Zn4	Zn	1.195005	-0.480975	-0.579132
O5	O	1.274510	-0.391450	-0.508332
O6	O	1.472343	-0.308074	-0.575200
O7	O	1.341268	-0.465830	-0.310530
O8	O	1.222515	-0.161056	-0.449946
O9	O	1.478660	-0.445947	-0.464736
O10	O	1.326615	-0.145990	-0.566786
O11	O	1.230852	-0.343022	-0.304154
O12	O	1.076707	-0.344083	-0.441482
O13	O	1.207721	-0.447813	-0.706116
O14	O	1.070330	-0.467696	-0.551910
O15	O	1.318198	-0.309135	-0.712529
O16	O	1.332851	-0.628975	-0.456273
O17	O	1.216058	-0.629779	-0.560324
C18	C	1.040893	-0.408234	-0.494808
C19	C	0.940949	-0.415439	-0.489043
C20	C	0.746554	-0.285585	-0.593413
C21	C	0.652648	-0.292350	-0.588000
C22	C	0.659229	-0.435729	-0.472799
C23	C	0.753135	-0.428964	-0.478213
C24	C	0.796794	-0.353890	-0.538523
C25	C	0.890702	-0.347130	-0.543940
C26	C	0.897281	-0.490504	-0.428735
C27	C	0.803375	-0.497269	-0.423322
C28	C	1.274469	-0.667995	-0.508314
C29	C	1.274532	-0.786294	-0.508341
C30	C	1.338122	-0.855062	-0.451816
C31	C	1.355358	-0.918914	-0.535154
C32	C	1.257405	-0.933230	-0.425062
C33	C	1.291808	-0.848582	-0.591725
C34	C	1.193820	-0.862898	-0.481575
C35	C	1.211022	-0.926716	-0.564968
C36	C	1.509039	-0.374601	-0.521910
C37	C	1.608982	-0.367421	-0.527696
C38	C	1.261033	-0.376309	-0.742860
C39	C	1.255289	-0.369856	-0.842802
C40	C	1.274574	-0.113822	-0.508371
C41	C	1.274601	0.004486	-0.508388
C42	C	1.189713	-0.296824	-0.980345
C43	C	1.195106	-0.302885	-0.886441
C44	C	1.310086	-0.430768	-0.893074
C45	C	1.304693	-0.424707	-0.986978
C46	C	1.244504	-0.357734	-1.030611
C47	C	1.239107	-0.351680	-1.124516
C48	C	1.354091	-0.479557	-1.131148
C49	C	1.359484	-0.485617	-1.037244
C50	C	1.287986	-0.406452	-0.274720
C51	C	1.293904	-0.412592	-0.174789
H52	H	0.767814	-0.558389	-0.374217
H53	H	1.398710	-0.529149	-1.172084
F54	F	1.125660	-0.225544	-1.026784
H55	H	1.150492	-0.253284	-0.845518
F56	F	0.599182	-0.219648	-0.646420
H57	H	0.623665	-0.496840	-0.423688
H58	H	1.242890	-0.970182	-0.354614
H59	H	1.359095	-0.485287	-0.857532
F60	F	0.937166	-0.267234	-0.608128
H61	H	0.938196	-0.546131	-0.384046
F62	F	1.423542	-0.556885	-0.990797
H63	H	0.782102	-0.224461	-0.642524
F64	F	1.408415	-0.813944	-0.389394
F65	F	1.140767	-0.967566	-0.627549
F66	F	1.444614	-0.951373	-0.564791
F67	F	1.310894	-0.800449	-0.683836
F68	F	1.104589	-0.830393	-0.451925
H69	H	1.190097	-0.297148	-1.160040
