data_functionalizedCrystal
_audit_creation_method	'MofGen! by Chris Wilmer'
_symmetry_space_group_name_H-M	'P1'
_symmetry_Int_Tables_number	1
_symmetry_cell_setting	triclinic
loop_
_symmetry_equiv_pos_as_xyz
  x,y,z
_cell_length_a	16.956995
_cell_length_b	12.996460
_cell_length_c	16.974755
_cell_angle_alpha	86.336968
_cell_angle_beta	100.271738
_cell_angle_gamma	90.008872
loop_
_atom_site_label
_atom_site_type_symbol
_atom_site_fract_x
_atom_site_fract_y
_atom_site_fract_z
O1	O	1.058000	0.088368	-0.032775
O2	O	1.558000	0.588368	0.467225
O3	O	0.825810	0.090667	-0.060536
O4	O	1.325810	0.590667	0.439464
O5	O	0.948386	0.079887	0.068873
O6	O	1.448386	0.579887	0.568873
O7	O	0.935424	0.099148	-0.162184
O8	O	1.435424	0.599148	0.337816
O9	O	0.948373	-0.091247	0.068879
O10	O	1.448373	0.408753	0.568879
O11	O	0.825798	-0.080467	-0.060530
O12	O	1.325798	0.419533	0.439470
O13	O	1.057987	-0.082766	-0.032769
O14	O	1.557987	0.417234	0.467231
Cu15	Cu	0.941891	-0.097243	-0.046649
Cu16	Cu	1.441891	0.402757	0.453351
Cu17	Cu	0.941906	0.105143	-0.046656
Cu18	Cu	1.441906	0.605143	0.453344
O19	O	0.935411	-0.071986	-0.162179
O20	O	1.435411	0.428014	0.337821
C21	C	0.796094	0.005217	-0.061955
C22	C	1.296094	0.505217	0.438045
C23	C	0.707569	0.005563	-0.066180
C24	C	1.207569	0.505563	0.433820
C25	C	0.208232	0.008237	-0.097794
C26	C	0.708232	0.508237	0.402206
C27	C	0.291411	0.007905	-0.093818
C28	C	0.791411	0.507905	0.406182
C29	C	0.342587	0.001674	-0.019170
C30	C	0.842587	0.501674	0.480830
C31	C	0.310579	-0.004214	0.051504
C32	C	0.810579	0.495786	0.551504
C33	C	0.227400	-0.003874	0.047527
C34	C	0.727400	0.496126	0.547527
C35	C	0.592382	0.000015	0.000517
C36	C	1.092382	0.500015	0.500517
C37	C	0.675566	-0.000327	0.004489
C38	C	1.175566	0.499673	0.504489
C39	C	0.656393	0.011793	-0.140833
C40	C	1.156393	0.511793	0.359167
C41	C	0.573214	0.012126	-0.144804
C42	C	1.073214	0.512126	0.355196
C43	C	0.541213	0.006243	-0.074130
C44	C	1.041213	0.506243	0.425870
N45	N	0.427610	0.001331	-0.015104
N46	N	0.927610	0.501331	0.484896
N47	N	0.456191	0.006594	-0.078197
N48	N	0.956191	0.506594	0.421803
N49	N	0.941886	-0.239590	-0.046643
N50	N	1.441886	0.260410	0.453357
C51	C	0.941905	-0.659403	-0.046657
C52	C	1.441905	-0.159403	0.453343
C53	C	0.941898	-0.542598	-0.046656
C54	C	1.441898	-0.042598	0.453344
C55	C	0.941896	-0.449501	-0.046651
C56	C	1.441896	0.050499	0.453349
C57	C	0.941888	-0.332688	-0.046649
C58	C	1.441888	0.167312	0.453351
C59	C	1.087703	0.002686	-0.031351
C60	C	1.587703	0.502686	0.468649
C61	C	1.176229	0.002346	-0.027125
C62	C	1.676229	0.502346	0.472875
C63	C	0.947889	-0.008131	0.098303
C64	C	1.447889	0.491869	0.598303
C65	C	0.946418	-0.015434	0.185985
C66	C	1.446418	0.484566	0.685985
N67	N	0.941917	0.247490	-0.046655
N68	N	1.441917	0.747490	0.453345
C69	C	0.935908	0.016034	-0.191608
C70	C	1.435908	0.516034	0.308392
C71	C	0.937379	0.023344	-0.279291
C72	C	1.437379	0.523344	0.220709
C73	C	0.938066	-0.066514	0.679530
C74	C	1.438066	0.433486	1.179530
C75	C	0.939456	-0.059657	0.597145
C76	C	1.439456	0.440343	1.097145
C77	C	0.940164	0.037059	0.555942
C78	C	1.440164	0.537059	1.055942
C79	C	0.939474	0.126924	0.597126
C80	C	1.439474	0.626924	1.097126
C81	C	0.938079	0.120066	0.679509
C82	C	1.438079	0.620066	1.179509
C83	C	0.944333	0.067573	0.309552
C84	C	1.444333	0.567573	0.809552
C85	C	0.945731	0.074424	0.227164
C86	C	1.445731	0.574424	0.727164
C87	C	0.945711	-0.112158	0.227189
C88	C	1.445711	0.387842	0.727189
C89	C	0.944321	-0.119007	0.309574
C90	C	1.444321	0.380993	0.809574
C91	C	0.943627	-0.029143	0.350750
C92	C	1.443627	0.470857	0.850750
N93	N	0.941587	0.044070	0.471731
N94	N	1.441587	0.544070	0.971731
N95	N	0.942198	-0.036155	0.434958
N96	N	1.442198	0.463845	0.934958
H97	H	0.682457	0.016584	-0.198373
H98	H	1.182457	0.516584	0.301627
H99	H	0.943775	0.140747	0.343070
H100	H	1.443775	0.640747	0.843070
H101	H	0.940046	0.205672	0.563571
H102	H	1.440046	0.705672	1.063571
C103	C	0.937342	0.218909	0.724810
C104	C	1.437342	0.718909	1.224810
H105	H	0.937976	0.277493	0.688476
H106	H	1.437976	0.777493	1.188476
H107	H	0.890323	0.220883	0.747880
H108	H	1.390323	0.720883	1.247880
H109	H	0.983291	0.219341	0.766017
H110	H	1.483291	0.719341	1.266017
H111	H	0.946307	0.153186	0.193619
H112	H	1.446307	0.653186	0.693619
H113	H	0.946275	-0.185321	0.193653
H114	H	1.446275	0.314679	0.693653
H115	H	0.566338	-0.004778	0.058065
H116	H	1.066338	0.495222	0.558065
H117	H	0.940028	-0.132830	0.563623
H118	H	1.440028	0.367170	1.063623
H119	H	0.317464	0.012711	-0.151364
H120	H	0.817464	0.512711	0.348636
C121	C	0.151946	0.015096	-0.179907
C122	C	0.651946	0.515096	0.320093
H123	H	0.182922	0.018568	-0.221425
H124	H	0.682922	0.518568	0.278575
H125	H	0.119086	-0.044194	-0.184486
H126	H	0.619086	0.455806	0.315514
H127	H	0.119114	0.075169	-0.184474
H128	H	0.619114	0.575169	0.315526
C129	C	0.366869	-0.011070	0.133615
C130	C	0.866869	0.488930	0.633615
H131	H	0.420991	-0.010440	0.125863
H132	H	0.920991	0.489560	0.625863
H133	H	0.357188	0.046171	0.162821
H134	H	0.857188	0.546171	0.662821
H135	H	0.357161	-0.073192	0.162813
H136	H	0.857161	0.426808	0.662813
C137	C	0.516926	0.018981	-0.226916
C138	C	1.016926	0.518981	0.273084
H139	H	0.547900	0.022449	-0.268436
H140	H	1.047900	0.522449	0.231564
H141	H	0.484070	-0.040313	-0.231487
H142	H	0.984070	0.459687	0.268513
H143	H	0.484091	0.079051	-0.231488
H144	H	0.984091	0.579051	0.268512
C145	C	0.731858	-0.007162	0.086604
C146	C	1.231858	0.492838	0.586604
H147	H	0.700887	-0.010603	0.128127
H148	H	1.200887	0.489397	0.628127
H149	H	0.764697	-0.067222	0.091184
H150	H	1.264697	0.432778	0.591184
H151	H	0.764710	0.052144	0.091163
H152	H	1.264710	0.552144	0.591163
H153	H	0.937493	-0.145271	0.713073
H154	H	1.437493	0.354729	1.213073
C155	C	0.192197	-0.010357	0.125263
C156	C	0.692197	0.489643	0.625263
H157	H	0.234586	-0.014125	0.170290
H158	H	0.734586	0.485875	0.670290
H159	H	0.160158	0.049202	0.126732
H160	H	0.660158	0.549202	0.626732
H161	H	0.160137	-0.070161	0.126731
H162	H	0.660137	0.429839	0.626731
C163	C	0.943538	-0.225395	0.354891
C164	C	1.443538	0.274605	0.854891
H165	H	0.944140	-0.277931	0.318565
H166	H	1.444140	0.222069	0.818565
H167	H	0.989474	-0.232705	0.396104
H168	H	1.489474	0.267295	0.896104
H169	H	0.896506	-0.231189	0.377952
H170	H	1.396506	0.268811	0.877952
