data_functionalizedCrystal
_audit_creation_method	'MofGen! by Chris Wilmer'
_symmetry_space_group_name_H-M	'P1'
_symmetry_Int_Tables_number	1
_symmetry_cell_setting	triclinic
loop_
_symmetry_equiv_pos_as_xyz
  x,y,z
_cell_length_a	16.992695
_cell_length_b	16.992694
_cell_length_c	15.455313
_cell_angle_alpha	92.857794
_cell_angle_beta	87.152573
_cell_angle_gamma	90.668223
loop_
_atom_site_label
_atom_site_type_symbol
_atom_site_fract_x
_atom_site_fract_y
_atom_site_fract_z
O1	O	-0.163694	-1.054080	-0.072023
O2	O	0.336306	-0.554080	0.427977
O3	O	-0.161862	-0.825681	-0.072048
O4	O	0.338138	-0.325681	0.427952
O5	O	-0.048579	-0.938965	-0.072029
O6	O	0.451421	-0.438965	0.427971
O7	O	-0.276978	-0.940797	-0.072042
O8	O	0.223022	-0.440797	0.427958
O9	O	-0.055028	-0.932485	0.072232
O10	O	0.444972	-0.432485	0.572232
O11	O	-0.168312	-0.819202	0.072213
O12	O	0.331688	-0.319202	0.572213
O13	O	-0.170144	-1.047601	0.072238
O14	O	0.329856	-0.547601	0.572238
Cu15	Cu	-0.169817	-0.932809	0.085398
Cu16	Cu	0.330183	-0.432809	0.585398
Cu17	Cu	-0.162189	-0.940473	-0.085207
Cu18	Cu	0.337811	-0.440473	0.414793
O19	O	-0.283428	-0.934317	0.072219
O20	O	0.216572	-0.434317	0.572219
C21	C	-0.022443	-0.933369	0.000102
C22	C	0.477557	-0.433369	0.500102
C23	C	0.065041	-0.926341	0.000101
C24	C	0.565041	-0.426341	0.500101
C25	C	-0.162731	-0.793081	0.000079
C26	C	0.337269	-0.293081	0.500079
C27	C	-0.155702	-0.705597	0.000070
C28	C	0.344298	-0.205597	0.500070
C29	C	-0.169275	-1.080201	0.000109
C30	C	0.330725	-0.580201	0.500109
C31	C	-0.176304	-1.167685	0.000113
C32	C	0.323696	-0.667685	0.500113
C33	C	-0.309563	-0.939913	0.000087
C34	C	0.190437	-0.439913	0.500087
C35	C	-0.397047	-0.946942	0.000082
C36	C	0.102953	-0.446942	0.500082
C37	C	0.111032	-0.994158	0.000109
C38	C	0.611032	-0.494158	0.500109
C39	C	0.193233	-0.987550	0.000100
C40	C	0.693233	-0.487550	0.500100
C41	C	0.229442	-0.913123	0.000089
C42	C	0.729442	-0.413123	0.500089
C43	C	0.183445	-0.845300	0.000078
C44	C	0.683445	-0.345300	0.500078
C45	C	0.101246	-0.851910	0.000081
C46	C	0.601246	-0.351910	0.500081
C47	C	0.474757	-0.885729	0.000074
C48	C	0.974757	-0.385729	0.500074
C49	C	0.556962	-0.879124	0.000074
C50	C	1.056962	-0.379124	0.500074
C51	C	0.566744	-1.021375	0.000094
C52	C	1.066744	-0.521375	0.500094
C53	C	0.484543	-1.027977	0.000102
C54	C	0.984543	-0.527977	0.500102
C55	C	0.438554	-0.960155	0.000087
C56	C	0.938554	-0.460155	0.500087
N57	N	0.313464	-0.906366	0.000082
N58	N	0.813464	-0.406366	0.500082
N59	N	0.354533	-0.966913	0.000087
N60	N	0.854533	-0.466913	0.500087
C61	C	-0.223520	-0.659607	0.000066
C62	C	0.276480	-0.159607	0.500066
C63	C	-0.216911	-0.577405	0.000079
C64	C	0.283089	-0.077405	0.500079
C65	C	-0.142484	-0.541197	0.000088
C66	C	0.357516	-0.041197	0.500088
C67	C	-0.074661	-0.587193	0.000094
C68	C	0.425339	-0.087193	0.500094
C69	C	-0.081271	-0.669393	0.000088
C70	C	0.418729	-0.169393	0.500088
C71	C	-0.115091	-0.295881	0.000113
C72	C	0.384909	0.204119	0.500113
C73	C	-0.108486	-0.213676	0.000116
C74	C	0.391514	0.286324	0.500116
C75	C	-0.250737	-0.203893	0.000103
C76	C	0.249263	0.296107	0.500103
C77	C	-0.257340	-0.286095	0.000091
C78	C	0.242660	0.213905	0.500091
C79	C	-0.189517	-0.332084	0.000102
C80	C	0.310483	0.167916	0.500102
N81	N	-0.135727	-0.457174	0.000098
N82	N	0.364273	0.042826	0.500098
N83	N	-0.196275	-0.416105	0.000098
N84	N	0.303725	0.083895	0.500098
N85	N	-0.175181	-0.927425	0.205392
N86	N	0.324819	-0.427425	0.705392
N87	N	-0.156819	-0.945863	-0.205202
N88	N	0.343181	-0.445863	0.294798
C89	C	-0.127074	-0.975571	0.250795
C90	C	0.372926	-0.475571	0.750795
C91	C	-0.131139	-0.971507	0.341602
C92	C	0.368861	-0.471507	0.841602
C93	C	-0.183315	-0.919301	0.387005
C94	C	0.316685	-0.419301	0.887005
C95	C	-0.231424	-0.871149	0.341596
C96	C	0.268576	-0.371149	0.841596
C97	C	-0.227355	-0.875210	0.250791
C98	C	0.272645	-0.375210	0.750791
C99	C	-0.200858	-0.901772	0.658584
C100	C	0.299142	-0.401772	1.158584
C101	C	-0.204926	-0.897717	0.749395
C102	C	0.295074	-0.397717	1.249395
C103	C	-0.104639	-0.998074	0.749395
C104	C	0.395361	-0.498074	1.249395
C105	C	-0.100578	-1.002133	0.658588
C106	C	0.399422	-0.502133	1.158588
C107	C	-0.148684	-0.953979	0.613187
C108	C	0.351316	-0.453979	1.113187
N109	N	-0.187473	-0.915147	0.479825
N110	N	0.312527	-0.415147	0.979825
N111	N	-0.144522	-0.958129	0.520369
N112	N	0.355478	-0.458129	1.020369
H113	H	0.230675	-1.042774	0.000109
H114	H	0.730675	-0.542774	0.500109
N115	N	-0.261195	-0.841402	0.798377
N116	N	0.238805	-0.341402	1.298377
H117	H	-0.299640	-0.871984	0.836038
H118	H	0.200360	-0.371984	1.336038
H119	H	-0.291000	-0.811520	0.755789
H120	H	0.209000	-0.311520	1.255789
N121	N	-0.052755	-1.050002	0.798368
N122	N	0.447245	-0.550002	1.298368
H123	H	0.004397	-1.038146	0.782575
H124	H	0.504397	-0.538146	1.282575
H125	H	-0.064713	-1.107124	0.782535
H126	H	0.435287	-0.607124	1.282535
N127	N	-0.279243	-0.823287	0.201813
N128	N	0.220757	-0.323287	0.701813
H129	H	-0.245266	-0.788235	0.164151
H130	H	0.254734	-0.288235	0.664151
H131	H	-0.312909	-0.789648	0.244406
H132	H	0.187091	-0.289648	0.744406
N133	N	0.222490	-0.765022	0.000065
N134	N	0.722490	-0.265022	0.500065
H135	H	0.258766	-0.761510	-0.053412
H136	H	0.758766	-0.261510	0.446588
H137	H	0.253943	-0.756753	0.053579
H138	H	0.753943	-0.256753	0.553579
H139	H	-0.284126	-0.689081	0.000058
H140	H	0.215874	-0.189081	0.500058
H141	H	-0.305954	-0.166440	0.000096
H142	H	0.194046	0.333560	0.500096
H143	H	-0.240030	-0.862564	0.621625
H144	H	0.259970	-0.362564	1.121625
N145	N	0.616354	-1.094517	0.000101
N146	N	1.116354	-0.594517	0.500101
H147	H	0.606574	-1.129163	-0.053373
H148	H	1.106574	-0.629163	0.446627
H149	H	0.601779	-1.124298	0.053618
H150	H	1.101779	-0.624298	0.553618
N151	N	0.425162	-0.812579	0.000062
N152	N	0.925162	-0.312579	0.500062
H153	H	0.393232	-0.814551	-0.053419
H154	H	0.893232	-0.314551	0.446581
H155	H	0.460629	-0.764471	0.000090
H156	H	0.960629	-0.264471	0.500090
N157	N	-0.287695	-0.814834	0.390562
N158	N	0.212305	-0.314834	0.890562
H159	H	-0.282975	-0.819568	0.454977
H160	H	0.217025	-0.319568	0.954977
H161	H	-0.343403	-0.828131	0.374676
H162	H	0.156597	-0.328131	0.874676
N163	N	0.051640	-0.778761	0.000095
N164	N	0.551640	-0.278761	0.500095
H165	H	-0.005927	-0.794241	0.000101
H166	H	0.494073	-0.294241	0.500101
H167	H	0.066253	-0.748942	-0.053384
H168	H	0.566253	-0.248942	0.446616
H169	H	-0.272136	-0.539963	0.000075
H170	H	0.227864	-0.039963	0.500075
H171	H	0.081557	-1.054764	0.000124
H172	H	0.581557	-0.554764	0.500124
N173	N	-0.337614	-0.325148	0.000065
N174	N	0.162386	0.174852	0.500065
H175	H	-0.379575	-0.283539	0.000060
H176	H	0.120425	0.216461	0.500060
H177	H	-0.345855	-0.356652	0.053536
H178	H	0.154145	0.143348	0.553536
H179	H	-0.091966	-1.010711	0.378568
H180	H	0.408034	-0.510711	0.878568
N181	N	-0.008125	-0.719001	0.000098
N182	N	0.491875	-0.219001	0.500098
H183	H	0.040027	-0.683591	0.000104
H184	H	0.540027	-0.183591	0.500104
H185	H	-0.005375	-0.755716	-0.053381
H186	H	0.494625	-0.255716	0.446619
H187	H	0.455068	-1.088584	0.000112
H188	H	0.955068	-0.588584	0.500112
N189	N	0.596015	-0.798844	0.000060
N190	N	1.096015	-0.298844	0.500060
H191	H	0.581965	-0.771305	-0.053425
H192	H	1.081965	-0.271305	0.446575
H193	H	0.655055	-0.805016	0.000098
H194	H	1.155055	-0.305016	0.500098
H195	H	-0.047876	-0.184198	0.000123
H196	H	0.452124	0.315802	0.500123
N197	N	-0.041943	-0.345478	0.000130
N198	N	0.458057	0.154522	0.500130
H199	H	0.006207	-0.310064	0.000135
H200	H	0.506207	0.189936	0.500135
H201	H	-0.039188	-0.382195	-0.053348
H202	H	0.460812	0.117805	0.446652
H203	H	-0.058092	-1.044644	0.621622
H204	H	0.441908	-0.544644	1.121622
H205	H	-0.014061	-0.557705	0.000114
H206	H	0.485939	-0.057705	0.500114
N207	N	-0.070803	-1.031885	0.201827
N208	N	0.429197	-0.531885	0.701827
H209	H	-0.040944	-1.061767	0.244372
H210	H	0.459056	-0.561767	0.744372
H211	H	-0.032408	-1.001255	0.164162
H212	H	0.467592	-0.501255	0.664162
