data_functionalizedCrystal
_audit_creation_method	'MofGen! by Chris Wilmer'
_symmetry_space_group_name_H-M	'P1'
_symmetry_Int_Tables_number	1
_symmetry_cell_setting	triclinic
loop_
_symmetry_equiv_pos_as_xyz
  x,y,z
_cell_length_a	25.639243
_cell_length_b	25.639240
_cell_length_c	25.639233
_cell_angle_alpha	90.020815
_cell_angle_beta	89.984038
_cell_angle_gamma	89.954114
loop_
_atom_site_label
_atom_site_type_symbol
_atom_site_fract_x
_atom_site_fract_y
_atom_site_fract_z
Zn1	Zn	0.799209	0.208176	-0.295648
Zn2	Zn	1.299209	0.708176	0.204352
Zn3	Zn	0.799125	0.295595	-0.208209
Zn4	Zn	1.299125	0.795595	0.291791
Zn5	Zn	0.711785	0.208180	-0.208222
Zn6	Zn	1.211785	0.708180	0.291778
Zn7	Zn	0.711723	0.295587	-0.295609
Zn8	Zn	1.211723	0.795587	0.204391
O9	O	0.755461	0.251885	-0.251922
O10	O	1.255461	0.751885	0.248078
O11	O	0.872363	0.219775	-0.284061
O12	O	1.372363	0.719775	0.215939
O13	O	0.787531	0.284004	-0.135046
O14	O	1.287531	0.784004	0.364954
O15	O	0.723443	0.135014	-0.219841
O16	O	1.223443	0.635014	0.280159
O17	O	0.872302	0.284001	-0.219820
O18	O	1.372302	0.784001	0.280180
O19	O	0.787673	0.135012	-0.284073
O20	O	1.287673	0.635012	0.215927
O21	O	0.723362	0.219781	-0.135055
O22	O	1.223362	0.719781	0.364945
O23	O	0.638612	0.219772	-0.219802
O24	O	1.138612	0.719772	0.280198
O25	O	0.723338	0.283987	-0.368779
O26	O	1.223338	0.783987	0.131221
O27	O	0.638566	0.283990	-0.284005
O28	O	1.138566	0.783990	0.215995
O29	O	0.787613	0.219767	-0.368808
O30	O	1.287613	0.719767	0.131192
O31	O	0.787471	0.368759	-0.219781
O32	O	1.287471	0.868759	0.280219
O33	O	0.723257	0.368753	-0.283993
O34	O	1.223257	0.868753	0.216007
C35	C	0.619618	0.251881	-0.251901
C36	C	1.119618	0.751881	0.248099
C37	C	0.561504	0.251892	-0.251905
C38	C	1.061504	0.751892	0.248095
C39	C	0.201167	0.218495	-0.285428
C40	C	0.701167	0.718495	0.214572
C41	C	0.146563	0.218494	-0.285431
C42	C	0.646563	0.718494	0.214569
O43	O	0.118349	0.190088	-0.313908
O44	O	0.618349	0.690088	0.186092
N45	N	0.119222	0.251883	-0.251936
N46	N	0.619222	0.751883	0.248064
C47	C	0.146487	0.285271	-0.218432
C48	C	0.646487	0.785271	0.281568
O49	O	0.118217	0.313670	-0.189942
O50	O	0.618217	0.813670	0.310058
C51	C	0.201091	0.285268	-0.218427
C52	C	0.701091	0.785268	0.281573
C53	C	0.228429	0.251881	-0.251928
C54	C	0.728429	0.751881	0.248072
C55	C	0.228506	0.185109	-0.318926
C56	C	0.728506	0.685109	0.181074
C57	C	0.283106	0.185111	-0.318923
C58	C	0.783106	0.685111	0.181077
C59	C	0.310368	0.218497	-0.285423
C60	C	0.810368	0.718497	0.214577
C61	C	0.283030	0.251882	-0.251925
C62	C	0.783030	0.751882	0.248075
C63	C	0.228355	0.318653	-0.184921
C64	C	0.728355	0.818653	0.315079
C65	C	0.282962	0.318647	-0.184918
C66	C	0.782962	0.818647	0.315082
C67	C	0.310301	0.285260	-0.218418
C68	C	0.810301	0.785260	0.281582
C69	C	0.364892	0.285270	-0.218422
C70	C	0.864892	0.785270	0.281578
N71	N	0.392234	0.251881	-0.251917
N72	N	0.892234	0.751881	0.248083
C73	C	0.364972	0.218494	-0.285417
C74	C	0.864972	0.718494	0.214583
C75	C	0.031817	0.285273	-0.218446
C76	C	0.531817	0.785273	0.281554
C77	C	-0.022786	0.285279	-0.218453
C78	C	0.477214	0.785279	0.281547
C79	C	-0.022706	0.218501	-0.285452
C80	C	0.477294	0.718501	0.214548
C81	C	0.031897	0.218499	-0.285446
C82	C	0.531897	0.718499	0.214554
C83	C	0.059158	0.251884	-0.251941
C84	C	0.559158	0.751884	0.248059
C85	C	0.479637	0.218500	-0.285409
C86	C	0.979637	0.718500	0.214591
C87	C	0.534242	0.218506	-0.285405
C88	C	1.034242	0.718506	0.214595
C89	C	0.534158	0.285281	-0.218405
C90	C	1.034158	0.785281	0.281595
C91	C	0.479557	0.285278	-0.218411
C92	C	0.979557	0.785278	0.281589
C93	C	0.452298	0.251883	-0.251915
C94	C	0.952298	0.751883	0.248085
O95	O	0.393141	0.313659	-0.189958
O96	O	0.893141	0.813659	0.310042
O97	O	0.393248	0.190095	-0.313898
O98	O	0.893248	0.690095	0.186102
C99	C	0.755362	0.387727	-0.251893
C100	C	1.255362	0.887727	0.248107
C101	C	0.755368	0.445841	-0.251898
C102	C	1.255368	0.945841	0.248102
C103	C	0.788941	0.806195	-0.218524
C104	C	1.288941	1.306195	0.281476
C105	C	0.788957	0.860799	-0.218529
C106	C	1.288957	1.360799	0.281471
O107	O	0.817432	0.889028	-0.190136
O108	O	1.317432	1.389028	0.309864
N109	N	0.755503	0.888124	-0.251934
N110	N	1.255503	1.388124	0.248066
C111	C	0.722034	0.860841	-0.285339
C112	C	1.222034	1.360841	0.214661
O113	O	0.693581	0.889096	-0.313754
O114	O	1.193581	1.389096	0.186246
C115	C	0.722022	0.806238	-0.285337
C116	C	1.222022	1.306238	0.214663
C117	C	0.755474	0.778916	-0.251926
C118	C	1.255474	1.278916	0.248074
C119	C	0.822391	0.778873	-0.185116
C120	C	1.322391	1.278873	0.314884
C121	C	0.822374	0.724273	-0.185111
C122	C	1.322374	1.224273	0.314889
C123	C	0.788907	0.696994	-0.218513
C124	C	1.288907	1.196994	0.281487
C125	C	0.755457	0.724315	-0.251920
C126	C	1.255457	1.224315	0.248080
C127	C	0.688556	0.778956	-0.318745
C128	C	1.188556	1.278956	0.181255
C129	C	0.688546	0.724349	-0.318739
C130	C	1.188546	1.224349	0.181261
C131	C	0.721999	0.697027	-0.285329
C132	C	1.221999	1.197027	0.214671
C133	C	0.721973	0.642436	-0.285317
C134	C	1.221973	1.142436	0.214683
N135	N	0.755427	0.615112	-0.251912
N136	N	1.255427	1.115112	0.248088
C137	C	0.788894	0.642390	-0.218510
C138	C	1.288894	1.142390	0.281490
C139	C	0.722065	0.975512	-0.285343
C140	C	1.222065	1.475512	0.214657
C141	C	0.722075	1.030114	-0.285344
C142	C	1.222075	1.530114	0.214656
C143	C	0.788998	1.030068	-0.218534
C144	C	1.288998	1.530068	0.281466
C145	C	0.788985	0.975465	-0.218531
C146	C	1.288985	1.475465	0.281469
C147	C	0.755519	0.948187	-0.251939
C148	C	1.255519	1.448187	0.248061
C149	C	0.788856	0.527725	-0.218500
C150	C	1.288856	1.027725	0.281500
C151	C	0.788835	0.473120	-0.218496
C152	C	1.288835	0.973120	0.281504
C153	C	0.721914	0.473170	-0.285308
C154	C	1.221914	0.973170	0.214692
C155	C	0.721933	0.527771	-0.285310
C156	C	1.221933	1.027771	0.214690
C157	C	0.755408	0.555047	-0.251905
C158	C	1.255408	1.055047	0.248095
O159	O	0.693514	0.614173	-0.313696
O160	O	1.193514	1.114173	0.186304
O161	O	0.817348	0.614128	-0.190105
O162	O	1.317348	1.114128	0.309895
C163	C	0.891834	0.251889	-0.251943
C164	C	1.391834	0.751889	0.248057
C165	C	0.949948	0.251890	-0.251952
C166	C	1.449948	0.751890	0.248048
C167	C	0.755478	0.251875	-0.388295
C168	C	1.255478	0.751875	0.111705
C169	C	0.755485	0.251871	-0.446409
C170	C	1.255485	0.751871	0.053591
C171	C	0.755554	1.115512	-0.251953
C172	C	1.255554	1.615512	0.248047
C173	C	0.755544	1.057397	-0.251944
C174	C	1.255544	1.557397	0.248056
C175	C	0.788995	0.218333	-0.806793
C176	C	1.288995	0.718333	-0.306793
C177	C	0.789002	0.218318	-0.861397
C178	C	1.289002	0.718318	-0.361397
O179	O	0.817451	0.189864	-0.889652
O180	O	1.317451	0.689864	-0.389652
N181	N	0.755542	0.251749	-0.888692
N182	N	1.255542	0.751749	-0.388692
C183	C	0.722071	0.285192	-0.861379
C184	C	1.222071	0.785192	-0.361379
O185	O	0.693611	0.313626	-0.889609
O186	O	1.193611	0.813626	-0.389609
C187	C	0.722062	0.285204	-0.806776
C188	C	1.222062	0.785204	-0.306776
C189	C	0.755527	0.251775	-0.779484
C190	C	1.255527	0.751775	-0.279484
C191	C	0.822457	0.184906	-0.779501
C192	C	1.322457	0.684906	-0.279501
C193	C	0.822451	0.184921	-0.724901
C194	C	1.322451	0.684921	-0.224901
C195	C	0.788983	0.218363	-0.697592
C196	C	1.288983	0.718363	-0.197592
C197	C	0.755521	0.251790	-0.724884
C198	C	1.255521	0.751790	-0.224884
C199	C	0.688588	0.318644	-0.779464
C200	C	1.188588	0.818644	-0.279464
C201	C	0.688582	0.318653	-0.724857
C202	C	1.188582	0.818653	-0.224857
C203	C	0.722047	0.285224	-0.697565
C204	C	1.222047	0.785224	-0.197565
C205	C	0.722047	0.285247	-0.642974
C206	C	1.222047	0.785247	-0.142974
N207	N	0.755507	0.251817	-0.615680
N208	N	1.255507	0.751817	-0.115680
C209	C	0.788975	0.218375	-0.642989
C210	C	1.288975	0.718375	-0.142989
C211	C	0.722091	0.285165	-0.976050
C212	C	1.222091	0.785165	-0.476050
C213	C	0.722102	0.285157	-1.030652
C214	C	1.222102	0.785157	-0.530652
C215	C	0.789032	0.218282	-1.030667
C216	C	1.289032	0.718282	-0.530667
C217	C	0.789024	0.218293	-0.976063
C218	C	1.289024	0.718293	-0.476063
C219	C	0.755550	0.251735	-0.948755
C220	C	1.255550	0.751735	-0.448755
C221	C	0.788960	0.218410	-0.528323
C222	C	1.288960	0.718410	-0.028323
C223	C	0.788953	0.218429	-0.473718
C224	C	1.288953	0.718429	0.026282
C225	C	0.722021	0.285302	-0.473708
C226	C	1.222021	0.785302	0.026292
C227	C	0.722030	0.285285	-0.528309
C228	C	1.222030	0.785285	-0.028309
C229	C	0.755501	0.251834	-0.555615
C230	C	1.255501	0.751834	-0.055615
O231	O	0.693611	0.313686	-0.614685
O232	O	1.193611	0.813686	-0.114685
O233	O	0.817425	0.189941	-0.614752
O234	O	1.317425	0.689941	-0.114752
C235	C	0.755474	0.251856	-0.116080
C236	C	1.255474	0.751856	0.383920
C237	C	0.755568	0.251713	-0.057966
C238	C	1.255568	0.751713	0.442034
H239	H	0.457449	0.191305	-0.312690
H240	H	0.957449	0.691305	0.187310
H241	H	0.849646	0.801078	-0.157916
H242	H	1.349646	1.301078	0.342084
H243	H	0.661337	0.345866	-0.801675
H244	H	1.161337	0.845866	-0.301675
N245	N	0.654393	0.806863	-0.352875
N246	N	1.154393	1.306863	0.147125
N247	N	0.654404	0.855616	-0.352884
N248	N	1.154404	1.355616	0.147116
H249	H	0.630275	0.875325	-0.376990
H250	H	1.130275	1.375325	0.123010
N251	N	0.823004	0.445204	-0.184369
N252	N	1.323004	0.945204	0.315631
N253	N	0.822984	0.396452	-0.184363
N254	N	1.322984	0.896452	0.315637
H255	H	0.847114	0.376737	-0.160261
H256	H	1.347114	0.876737	0.339739
H257	H	0.816225	0.953223	-0.191325
H258	H	1.316225	1.453223	0.308675
N259	N	0.200429	0.352753	-0.150703
N260	N	0.700429	0.852753	0.349297
N261	N	0.169938	0.386102	-0.169028
N262	N	0.669938	0.886102	0.330972
H263	H	0.150213	0.410185	-0.144858
H264	H	0.650213	0.910185	0.355142
N265	N	0.562167	0.184390	-0.319618
N266	N	1.062167	0.684390	0.180382
N267	N	0.592654	0.151044	-0.301281
N268	N	1.092654	0.651044	0.198719
H269	H	0.612374	0.126949	-0.325441
H270	H	1.112374	0.626949	0.174559
H271	H	0.694832	0.312400	-0.953819
H272	H	1.194832	0.812400	-0.453819
N273	N	0.823137	0.184272	-0.445850
N274	N	1.323137	0.684272	0.054150
N275	N	0.819707	0.136026	-0.451957
N276	N	1.319707	0.636026	0.048043
H277	H	0.843849	0.111901	-0.432277
H278	H	1.343849	0.611901	0.067723
H279	H	0.556365	0.312465	-0.191131
H280	H	1.056365	0.812465	0.308869
N281	N	0.311026	0.150992	-0.353131
N282	N	0.811026	0.650992	0.146869
N283	N	0.341508	0.117642	-0.334793
N284	N	0.841508	0.617642	0.165207
H285	H	0.361223	0.093542	-0.358953
H286	H	0.861223	0.593542	0.141047
N287	N	0.654382	0.352813	-0.696972
N288	N	1.154382	0.852813	-0.196972
N289	N	0.624507	0.382654	-0.721350
N290	N	1.124507	0.882654	-0.221350
H291	H	0.600353	0.406780	-0.701657
H292	H	1.100353	0.906780	-0.201657
H293	H	0.816250	1.052289	-0.191338
H294	H	1.316250	1.552289	0.308662
H295	H	0.457297	0.312470	-0.191138
H296	H	0.957297	0.812470	0.308862
H297	H	0.694857	0.312384	-1.052868
H298	H	1.194857	0.812384	-0.552868
H299	H	0.849711	0.157671	-0.801731
H300	H	1.349711	0.657671	-0.301731
N301	N	0.310816	0.352753	-0.150700
N302	N	0.810816	0.852753	0.349300
N303	N	0.359568	0.352754	-0.150700
N304	N	0.859568	0.852754	0.349300
H305	H	0.379240	0.376842	-0.126535
H306	H	0.879240	0.876842	0.373465
H307	H	0.849701	0.157699	-0.702685
H308	H	1.349701	0.657699	-0.202685
N309	N	0.687849	0.319433	-0.556189
N310	N	1.187849	0.819433	-0.056189
N311	N	0.706206	0.352747	-0.586662
N312	N	1.206206	0.852747	-0.086662
H313	H	0.682060	0.376863	-0.606347
H314	H	1.182060	0.876863	-0.106347
H315	H	0.816214	0.191169	-0.550550
H316	H	1.316214	0.691169	-0.050550
H317	H	0.694773	0.312531	-0.451463
H318	H	1.194773	0.812531	0.048537
H319	H	0.206315	0.157919	-0.346206
H320	H	0.706315	0.657919	0.153794
N321	N	0.823211	0.184144	-0.948196
N322	N	1.323211	0.684144	-0.448196
N323	N	0.853091	0.154291	-0.972592
N324	N	1.353091	0.654291	-0.472592
H325	H	0.877237	0.130170	-0.952914
H326	H	1.377237	0.630170	-0.452914
H327	H	0.054153	0.191310	-0.312725
H328	H	0.554153	0.691310	0.187275
N329	N	0.856549	0.696377	-0.150979
N330	N	1.356549	1.196377	0.349021
N331	N	0.886426	0.720748	-0.121162
N332	N	1.386426	1.220748	0.378838
H333	H	0.910566	0.701050	-0.097056
H334	H	1.410566	1.201050	0.402944
H335	H	0.694830	1.052355	-0.312545
H336	H	1.194830	1.552355	0.187455
N337	N	-0.050567	0.184401	-0.319671
N338	N	0.449433	0.684401	0.180329
N339	N	-0.099320	0.184411	-0.319666
N340	N	0.400680	0.684411	0.180334
H341	H	-0.118999	0.160330	-0.343831
H342	H	0.381001	0.660330	0.156169
H343	H	-0.045040	0.312472	-0.191180
H344	H	0.454960	0.812472	0.308820
N345	N	0.654358	0.696478	-0.352857
N346	N	1.154358	1.196478	0.147143
N347	N	0.654344	0.647726	-0.352850
N348	N	1.154344	1.147726	0.147150
H349	H	0.630199	0.628042	-0.376944
H350	H	1.130199	1.128042	0.123056
N351	N	0.823052	0.555574	-0.184374
N352	N	1.323052	1.055574	0.315626
N353	N	0.852911	0.531164	-0.154549
N354	N	1.352911	1.031164	0.345451
H355	H	0.877060	0.550832	-0.130444
H356	H	1.377060	1.050832	0.369556
H357	H	0.694808	0.953304	-0.312546
H358	H	1.194808	1.453304	0.187454
N359	N	0.059653	0.319383	-0.184216
N360	N	0.559653	0.819383	0.315784
N361	N	0.035230	0.349189	-0.154314
N362	N	0.535230	0.849189	0.345686
H363	H	0.054886	0.373279	-0.130139
H364	H	0.554886	0.873279	0.369861
H365	H	0.694695	0.550017	-0.312518
H366	H	1.194695	1.050017	0.187482
N367	N	0.687729	0.445292	-0.319418
N368	N	1.187729	0.945292	0.180582
N369	N	0.687723	0.396539	-0.319404
N370	N	1.187723	0.896539	0.180596
H371	H	0.663581	0.376848	-0.343496
H372	H	1.163581	0.876848	0.156504
N373	N	0.823217	0.184124	-1.058576
N374	N	1.323217	0.684124	-0.558576
N375	N	0.823214	0.184121	-1.107328
N376	N	1.323214	0.684121	-0.607328
H377	H	0.847356	0.159999	-1.127042
H378	H	1.347356	0.659999	-0.627042
