data_functionalizedCrystal
_audit_creation_method	'MofGen! by Chris Wilmer'
_symmetry_space_group_name_H-M	'P1'
_symmetry_Int_Tables_number	1
_symmetry_cell_setting	triclinic
loop_
_symmetry_equiv_pos_as_xyz
  x,y,z
_cell_length_a	27.732048
_cell_length_b	27.732048
_cell_length_c	13.448316
_cell_angle_alpha	89.988441
_cell_angle_beta	89.998727
_cell_angle_gamma	82.642655
loop_
_atom_site_label
_atom_site_type_symbol
_atom_site_fract_x
_atom_site_fract_y
_atom_site_fract_z
O1	O	0.640929	0.057518	-0.082574
O2	O	0.500135	0.066264	-0.082606
O3	O	0.574905	-0.008506	-0.082570
O4	O	0.566159	0.132288	-0.082610
O5	O	0.574895	-0.008510	0.082814
O6	O	0.500126	0.066259	0.082778
O7	O	0.640919	0.057514	0.082810
Cu8	Cu	0.570522	0.061886	0.097895
Cu9	Cu	0.570533	0.061891	-0.097691
O10	O	0.566150	0.132283	0.082774
C11	C	0.482124	0.066078	0.000082
C12	C	0.428469	0.065525	0.000071
C13	C	0.089654	0.106229	0.000103
C14	C	-0.112006	0.104178	0.000112
O15	O	-0.143262	0.141398	0.000145
N16	N	-0.131130	0.059843	0.000123
C17	C	-0.099835	0.016017	0.000138
O18	O	-0.120728	-0.021740	0.000157
C19	C	0.101824	0.018068	0.000135
C20	C	0.120944	0.062407	0.000115
C21	C	0.108775	0.150563	0.000083
C22	C	0.159187	0.151075	0.000075
C23	C	0.190477	0.107253	0.000087
C24	C	0.171356	0.062919	0.000107
C25	C	0.133117	-0.025757	0.000157
C26	C	0.183535	-0.025240	0.000159
C27	C	0.202655	0.019098	0.000139
C28	C	0.253059	0.019609	0.000111
N29	N	0.272183	0.063944	0.000100
C30	C	0.240892	0.107766	0.000088
C31	C	-0.205709	0.014943	0.000137
C32	C	-0.256124	0.014430	0.000136
C33	C	-0.268291	0.102591	0.000112
C34	C	-0.217876	0.103104	0.000106
C35	C	-0.186585	0.059278	0.000126
C36	C	0.346761	0.108839	0.000071
C37	C	0.397178	0.109347	0.000059
C38	C	0.409341	0.021186	0.000088
C39	C	0.358929	0.020678	0.000095
C40	C	0.327639	0.064508	0.000090
O41	O	0.284343	-0.017592	0.000090
O42	O	0.261794	0.145518	0.000091
C43	C	0.039242	0.105716	0.000110
C44	C	0.020120	0.061382	0.000130
C45	C	0.051411	0.017560	0.000142
C46	C	-0.030294	0.060869	0.000129
C47	C	-0.061585	0.104691	0.000117
C48	C	-0.042461	0.149026	0.000106
C49	C	0.007951	0.149539	0.000098
C50	C	0.032287	-0.026775	0.000153
C51	C	-0.018125	-0.027284	0.000159
C52	C	-0.049416	0.016538	0.000148
C53	C	0.574716	-0.026515	0.000124
C54	C	0.574164	-0.080170	0.000132
C55	C	0.614867	-0.418985	0.000091
C56	C	0.612816	-0.620645	0.000076
O57	O	0.650037	-0.651900	0.000041
N58	N	0.568481	-0.639768	0.000067
C59	C	0.524656	-0.608474	0.000055
O60	O	0.486899	-0.629367	0.000037
C61	C	0.526707	-0.406815	0.000062
C62	C	0.571045	-0.387694	0.000082
C63	C	0.659202	-0.399864	0.000109
C64	C	0.659714	-0.349452	0.000118
C65	C	0.615892	-0.318161	0.000109
C66	C	0.571557	-0.337282	0.000091
C67	C	0.482882	-0.375521	0.000043
C68	C	0.483399	-0.325104	0.000043
C69	C	0.527737	-0.305983	0.000062
C70	C	0.528247	-0.255580	0.000091
N71	N	0.572583	-0.236456	0.000100
C72	C	0.616405	-0.267747	0.000109
C73	C	0.523582	-0.714348	0.000053
C74	C	0.523069	-0.764762	0.000053
C75	C	0.611230	-0.776930	0.000073
C76	C	0.611742	-0.726514	0.000080
C77	C	0.567917	-0.695224	0.000062
C78	C	0.617477	-0.161878	0.000128
C79	C	0.617986	-0.111461	0.000141
C80	C	0.529825	-0.099298	0.000117
C81	C	0.529316	-0.149710	0.000109
C82	C	0.573147	-0.180999	0.000111
O83	O	0.491047	-0.224296	0.000115
O84	O	0.654156	-0.246844	0.000105
C85	C	0.614355	-0.469397	0.000082
C86	C	0.570021	-0.488518	0.000064
C87	C	0.526198	-0.457228	0.000055
C88	C	0.569508	-0.538933	0.000064
C89	C	0.613330	-0.570223	0.000073
C90	C	0.657665	-0.551100	0.000082
C91	C	0.658177	-0.500688	0.000091
C92	C	0.481863	-0.476351	0.000046
C93	C	0.481355	-0.526764	0.000038
C94	C	0.525177	-0.558054	0.000047
C95	C	0.658931	0.057699	0.000119
C96	C	0.712586	0.058252	0.000124
C97	C	0.566338	0.150292	0.000077
C98	C	0.566891	0.203947	0.000062
N99	N	0.570518	0.061882	0.235459
N100	N	0.570541	0.061891	-0.235255
C101	C	0.603636	0.028787	0.287515
C102	C	0.603639	0.028787	0.391618
C103	C	0.570525	0.061884	0.443663
C104	C	0.537404	0.094980	0.391600
C105	C	0.537399	0.094978	0.287499
C106	C	0.537417	0.094983	0.608580
C107	C	0.537423	0.094986	0.712689
C108	C	0.603657	0.028792	0.712700
C109	C	0.603652	0.028790	0.608598
C110	C	0.570531	0.061887	0.556542
H111	H	0.434827	-0.014492	0.000094
H112	H	0.510440	0.121926	0.433981
H113	H	0.630602	0.001838	0.245147
O114	O	0.340408	-0.022421	-0.000028
C115	C	0.356413	-0.049104	-0.085691
H116	H	0.391285	-0.036198	-0.114262
H117	H	0.363705	-0.089412	-0.066416
H118	H	0.327192	-0.043279	-0.145662
H119	H	0.446777	-0.391080	0.000022
O120	O	0.438311	-0.545391	-0.000114
C121	C	0.435378	-0.574164	-0.085791
H122	H	0.473575	-0.587001	-0.114330
H123	H	0.416354	-0.607040	-0.066549
H124	H	0.413833	-0.551720	-0.145774
O125	O	0.702827	-0.330962	0.000084
C126	C	0.741390	-0.369399	0.000113
H127	H	0.728097	-0.403546	-0.031200
H128	H	0.772372	-0.359089	-0.047897
H129	H	0.754885	-0.376641	0.079458
O130	O	0.177676	0.194189	0.000111
C131	C	0.139240	0.232752	0.000080
H132	H	0.105089	0.219455	0.031390
H133	H	0.149544	0.263728	0.048094
H134	H	0.132006	0.246256	-0.079264
O135	O	0.660022	-0.192316	0.000268
C136	C	0.662366	-0.221843	0.085932
H137	H	0.624017	-0.224123	0.114472
H138	H	0.680670	-0.259866	0.066671
H139	H	0.684308	-0.205419	0.145920
H140	H	0.117558	-0.061861	0.000175
H141	H	0.630617	0.001843	0.566223
O142	O	-0.199245	0.146142	0.000222
C143	C	-0.170460	0.149085	0.085889
H144	H	-0.157622	0.110891	0.114461
H145	H	-0.137586	0.168104	0.066619
H146	H	-0.192896	0.170638	0.145857
H147	H	0.510430	0.121926	0.245115
H148	H	0.694282	-0.485125	0.000106
O149	O	0.654854	-0.708023	0.000044
C150	C	0.693419	-0.746458	0.000080
H151	H	0.680128	-0.780607	-0.031228
H152	H	0.724400	-0.736148	-0.047932
H153	H	0.706914	-0.753697	0.079426
H154	H	0.693347	-0.576585	0.000093
O155	O	0.440794	-0.294758	-0.000105
C156	C	0.413866	-0.303359	-0.085783
H157	H	0.426033	-0.341689	-0.114340
H158	H	0.373522	-0.299522	-0.066534
H159	H	0.420269	-0.275820	-0.145755
H160	H	0.494146	-0.073812	0.000113
O161	O	0.415670	0.152462	0.000086
C162	C	0.377238	0.191029	0.000055
H163	H	0.343086	0.177738	0.031375
H164	H	0.387547	0.222006	0.048060
H165	H	0.370002	0.204530	-0.079291
H166	H	0.321291	0.144530	0.000070
O167	O	0.635878	-0.003377	0.763107
C168	C	0.665099	-0.032594	0.694848
H169	H	0.665488	-0.012779	0.620631
H170	H	0.703758	-0.040228	0.724919
H171	H	0.649679	-0.068399	0.683799
O172	O	0.078335	0.193105	-0.000068
C173	C	0.048822	0.195456	-0.085740
H174	H	0.046545	0.157108	-0.114276
H175	H	0.010797	0.213760	-0.066493
H176	H	0.065258	0.217399	-0.145727
O177	O	0.701743	-0.430305	0.000251
C178	C	0.704088	-0.459829	0.085920
H179	H	0.665738	-0.462108	0.114462
H180	H	0.722392	-0.497852	0.066665
H181	H	0.726029	-0.443402	0.145905
O182	O	0.213978	-0.067781	0.000042
C183	C	0.243494	-0.070129	-0.085627
H184	H	0.245765	-0.031781	-0.114199
H185	H	0.281521	-0.088427	-0.066361
H186	H	0.227065	-0.092078	-0.145594
O187	O	0.635862	-0.003374	0.442031
C188	C	0.665083	-0.032590	0.373772
H189	H	0.665469	-0.012776	0.299553
H190	H	0.703743	-0.040220	0.403840
H191	H	0.649667	-0.068397	0.362728
O192	O	0.505292	0.127200	0.558055
C193	C	0.512785	0.174998	0.583484
H194	H	0.551484	0.174967	0.612094
H195	H	0.507042	0.199295	0.515011
H196	H	0.485889	0.189383	0.643908
O197	O	0.661028	-0.092830	0.000023
C198	C	0.663973	-0.064032	-0.085638
H199	H	0.625780	-0.051190	-0.114201
H200	H	0.682991	-0.031160	-0.066366
H201	H	0.685529	-0.086458	-0.145615
H202	H	-0.033688	-0.063392	0.000169
H203	H	-0.293777	0.138273	0.000102
H204	H	-0.271687	-0.021674	0.000137
H205	H	0.493213	-0.165279	0.000121
H206	H	0.446177	-0.450879	0.000036
H207	H	0.510458	0.121936	0.755059
H208	H	-0.180236	-0.020747	0.000153
O209	O	0.480011	-0.783357	0.000220
C210	C	0.477071	-0.812173	0.085857
H211	H	0.502236	-0.800442	0.145735
H212	H	0.438077	-0.807361	0.114594
H213	H	0.488522	-0.852014	0.066493
H214	H	0.023514	0.185643	0.000083
O215	O	-0.072911	0.191564	-0.000038
C216	C	-0.102430	0.193911	-0.085700
H217	H	-0.104694	0.155563	-0.114248
H218	H	-0.140459	0.212199	-0.066435
H219	H	-0.086009	0.215867	-0.145685
H220	H	0.646911	-0.802415	0.000080
O221	O	0.062611	-0.069391	0.000117
C222	C	0.034915	-0.108627	0.000154
H223	H	-0.002807	-0.096062	-0.031151
H224	H	0.053730	-0.139308	-0.047859
H225	H	0.031425	-0.122239	0.079501
O226	O	0.480962	-0.684024	0.000090
C227	C	0.441727	-0.711721	0.000060
H228	H	0.454290	-0.749444	0.031369
H229	H	0.411042	-0.692909	0.048074
H230	H	0.428121	-0.715205	-0.079284
