data_functionalizedCrystal
_audit_creation_method	'MofGen! by Chris Wilmer'
_symmetry_space_group_name_H-M	'P1'
_symmetry_Int_Tables_number	1
_symmetry_cell_setting	triclinic
loop_
_symmetry_equiv_pos_as_xyz
  x,y,z
_cell_length_a	29.839131
_cell_length_b	10.686154
_cell_length_c	10.686551
_cell_angle_alpha	89.693980
_cell_angle_beta	85.589901
_cell_angle_gamma	85.579294
loop_
_atom_site_label
_atom_site_type_symbol
_atom_site_fract_x
_atom_site_fract_y
_atom_site_fract_z
Zn1	Zn	-0.109563	-1.972149	-0.562426
Zn2	Zn	-0.190880	-1.955812	-0.352650
Zn3	Zn	-0.121052	-1.746251	-0.368734
Zn4	Zn	-0.189966	-1.762243	-0.578421
O5	O	-0.152866	-1.859114	-0.465558
O6	O	-0.115924	-2.145530	-0.521174
O7	O	-0.186808	-1.914484	-0.179236
O8	O	-0.056656	-1.776361	-0.394465
O9	O	-0.175667	-2.133528	-0.367052
O10	O	-0.048215	-1.942327	-0.536770
O11	O	-0.135506	-1.760521	-0.191053
O12	O	-0.134620	-1.572825	-0.409975
O13	O	-0.174110	-1.803617	-0.751847
O14	O	-0.185251	-1.584574	-0.564031
O15	O	-0.115038	-1.957834	-0.740095
O16	O	-0.253631	-1.929991	-0.382561
O17	O	-0.252960	-1.787777	-0.548435
C18	C	-0.161083	-1.533182	-0.490485
C19	C	-0.164609	-1.393749	-0.501178
C20	C	-0.269596	-1.858883	-0.465513
C21	C	-0.319529	-1.858902	-0.465527
C22	C	-0.629496	-1.933320	-0.379294
C23	C	-0.817163	-1.933478	-0.379330
O24	O	-0.841709	-1.996568	-0.305978
N25	N	-0.840298	-1.859381	-0.465632
C26	C	-0.816513	-1.785246	-0.551937
O27	O	-0.840496	-1.722235	-0.625351
C28	C	-0.628846	-1.785095	-0.551905
C29	C	-0.605714	-1.859187	-0.465589
C30	C	-0.606364	-2.007407	-0.292986
C31	C	-0.559450	-2.007362	-0.292973
C32	C	-0.535668	-1.933229	-0.379268
C33	C	-0.558800	-1.859141	-0.465576
C34	C	-0.605061	-1.710967	-0.638214
C35	C	-0.558141	-1.710938	-0.638201
C36	C	-0.535009	-1.785030	-0.551885
C37	C	-0.488104	-1.784963	-0.551859
N38	N	-0.464969	-1.859060	-0.465556
C39	C	-0.488751	-1.933193	-0.379261
C40	C	-0.915041	-1.785328	-0.551946
C41	C	-0.961958	-1.785364	-0.551953
C42	C	-0.962605	-1.933599	-0.379347
C43	C	-0.915688	-1.933555	-0.379336
C44	C	-0.891906	-1.859425	-0.465644
C45	C	-0.390229	-1.933091	-0.379240
C46	C	-0.343311	-1.933035	-0.379232
C47	C	-0.342668	-1.784805	-0.551841
C48	C	-0.389582	-1.784856	-0.551845
C49	C	-0.413361	-1.859008	-0.465540
O50	O	-0.463530	-1.721917	-0.625182
O51	O	-0.464759	-1.996215	-0.305876
C52	C	-0.676409	-1.933365	-0.379306
C53	C	-0.699542	-1.859278	-0.465614
C54	C	-0.675760	-1.785145	-0.551910
C55	C	-0.746458	-1.859314	-0.465621
C56	C	-0.770240	-1.933447	-0.379326
C57	C	-0.747105	-2.007544	-0.293024
C58	C	-0.700191	-2.007498	-0.293011
C59	C	-0.698895	-1.711048	-0.638212
C60	C	-0.745809	-1.711099	-0.638217
C61	C	-0.769590	-1.785232	-0.551921
C62	C	-0.035678	-1.859382	-0.465628
C63	C	0.014261	-1.859497	-0.465657
C64	C	-0.143191	-1.884331	-0.792761
C65	C	-0.139068	-1.895078	-0.932195
C66	C	-0.144612	-1.186318	-0.440526
C67	C	-0.141084	-1.325752	-0.429838
C68	C	-0.162468	-1.834067	-0.139622
C69	C	-0.166459	-1.823564	-0.000170
H70	H	-0.118247	-1.374207	-0.360579
H71	H	-0.193064	-1.754120	-0.951694
C72	C	-0.103124	-1.988908	-0.997678
C73	C	-0.098910	-1.999894	-1.141794
C74	C	-0.062967	-2.093722	-1.207277
C75	C	-0.031238	-2.176563	-1.128643
C76	C	-0.035451	-2.165580	-0.984519
C77	C	-0.071394	-2.071752	-0.919036
H78	H	-0.122399	-1.938568	-1.200011
H79	H	-0.059848	-2.101853	-1.313968
H80	H	-0.004630	-2.246020	-1.177117
H81	H	-0.011962	-2.226906	-0.926302
H82	H	-0.074512	-2.063621	-0.812345
C83	C	-0.531983	-1.629386	-0.733141
C84	C	-0.495413	-1.691226	-0.827520
C85	C	-0.469257	-1.609672	-0.922456
C86	C	-0.479670	-1.466279	-0.923013
C87	C	-0.516242	-1.404431	-0.828631
C88	C	-0.542398	-1.485985	-0.733694
H89	H	-0.487703	-1.797381	-0.827110
H90	H	-0.442184	-1.655456	-0.992324
H91	H	-0.460307	-1.405908	-0.993291
H92	H	-0.523952	-1.298276	-0.829040
H93	H	-0.569471	-1.440201	-0.663826
H94	H	-0.187450	-1.345287	-0.570434
H95	H	-0.981976	-1.993961	-0.309083
C96	C	-0.773271	-2.089094	-0.198100
C97	C	-0.809845	-2.027249	-0.103737
C98	C	-0.836014	-2.108800	-0.008824
C99	C	-0.825607	-2.252196	-0.008274
C100	C	-0.789031	-2.314049	-0.102640
C101	C	-0.762863	-2.232498	-0.197553
H102	H	-0.817550	-1.921092	-0.104141
H103	H	-0.863090	-2.063012	0.061032
H104	H	-0.844978	-2.312565	0.061986
H105	H	-0.781326	-2.420206	-0.102236
H106	H	-0.735787	-2.278286	-0.267409
H107	H	-0.324479	-1.993369	-0.308938
H108	H	-0.409584	-1.993476	-0.308965
H109	H	-0.408417	-1.724528	-0.622135
C110	C	-0.534010	-2.088880	-0.198031
C111	C	-0.544962	-2.067785	-0.056189
C112	C	-0.519527	-2.149314	0.038755
C113	C	-0.483139	-2.251938	-0.008143
C114	C	-0.472185	-2.273038	-0.149992
C115	C	-0.497620	-2.191509	-0.244936
H116	H	-0.571900	-1.991812	-0.021466
H117	H	-0.527636	-2.133694	0.143761
H118	H	-0.464310	-2.312291	0.062140
H119	H	-0.445247	-2.349011	-0.184715
H120	H	-0.489511	-2.207130	-0.349943
C121	C	-0.888884	-1.703770	-0.646883
C122	C	-0.852317	-1.765602	-0.741275
C123	C	-0.826162	-1.684039	-0.836207
C124	C	-0.836575	-1.540645	-0.836747
C125	C	-0.873144	-1.478806	-0.742352
C126	C	-0.899299	-1.560369	-0.647420
H127	H	-0.844607	-1.871757	-0.740878
H128	H	-0.799091	-1.729817	-0.906085
H129	H	-0.817214	-1.480268	-0.907022
H130	H	-0.880854	-1.372651	-0.742749
H131	H	-0.926370	-1.514591	-0.577542
C132	C	-0.632518	-2.088960	-0.198047
C133	C	-0.630552	-2.067828	-0.056207
C134	C	-0.656702	-2.149379	0.038746
C135	C	-0.684818	-2.252062	-0.008141
C136	C	-0.686785	-2.273199	-0.149988
C137	C	-0.660635	-2.191647	-0.244941
H138	H	-0.609738	-1.991812	-0.021493
H139	H	-0.655246	-2.133732	0.143750
H140	H	-0.704176	-2.312431	0.062149
H141	H	-0.707600	-2.349215	-0.184702
H142	H	-0.662091	-2.207295	-0.349945
C143	C	-0.987400	-1.703851	-0.646893
C144	C	-0.961234	-1.622316	-0.741816
C145	C	-0.986674	-1.540806	-0.836765
C146	C	-1.038281	-1.540831	-0.836791
C147	C	-1.064450	-1.622369	-0.741865
C148	C	-1.039010	-1.703879	-0.646916
H149	H	-0.923029	-1.622295	-0.741799
H150	H	-0.967302	-1.480447	-0.907036
H151	H	-1.057113	-1.480493	-0.907078
H152	H	-1.102654	-1.622390	-0.741881
H153	H	-1.058382	-1.764238	-0.576645
H154	H	-0.623887	-1.650626	-0.708496
C155	C	-0.316500	-1.703267	-0.646764
C156	C	-0.288380	-1.600608	-0.599848
C157	C	-0.262210	-1.519078	-0.694778
C158	C	-0.264161	-1.540207	-0.836624
C159	C	-0.292283	-1.642871	-0.883546
C160	C	-0.318452	-1.724401	-0.788616
H161	H	-0.286935	-1.584962	-0.494839
H162	H	-0.241393	-1.443079	-0.660042
H163	H	-0.244789	-1.479854	-0.906897
H164	H	-0.293728	-1.658516	-0.988555
H165	H	-0.339270	-1.800399	-0.823352
H166	H	-0.896856	-1.993888	-0.309051
C167	C	-0.672740	-1.629492	-0.733143
C168	C	-0.683159	-1.486100	-0.733687
C169	C	-0.657007	-1.404532	-0.828622
C170	C	-0.620438	-1.466356	-0.923013
C171	C	-0.610018	-1.609756	-0.922472
C172	C	-0.636169	-1.691324	-0.827537
H173	H	-0.710231	-1.440327	-0.663810
H174	H	-0.664721	-1.298378	-0.829022
H175	H	-0.601080	-1.405975	-0.993290
H176	H	-0.582946	-1.655529	-0.992349
H177	H	-0.628456	-1.797478	-0.827138
H178	H	-0.681361	-2.067831	-0.222725
H179	H	-0.764639	-1.650753	-0.708505
