data_functionalizedCrystal
_audit_creation_method	'MofGen! by Chris Wilmer'
_symmetry_space_group_name_H-M	'P1'
_symmetry_Int_Tables_number	1
_symmetry_cell_setting	triclinic
loop_
_symmetry_equiv_pos_as_xyz
  x,y,z
_cell_length_a	9.065218
_cell_length_b	12.376897
_cell_length_c	9.065218
_cell_angle_alpha	102.515468
_cell_angle_beta	94.984115
_cell_angle_gamma	77.497373
loop_
_atom_site_label
_atom_site_type_symbol
_atom_site_fract_x
_atom_site_fract_y
_atom_site_fract_z
O1	O	1.934833	0.093997	-0.190761
O2	O	1.505548	0.093998	-0.208507
O3	O	1.729064	0.093995	0.015007
O4	O	1.711316	0.094000	-0.414276
O5	O	1.780183	-0.094003	-0.036178
O6	O	1.556667	-0.094000	-0.259692
O7	O	1.985952	-0.094001	-0.241946
Zn8	Zn	1.779425	-0.123849	-0.258946
Zn9	Zn	1.712074	0.123846	-0.191508
O10	O	1.762435	-0.093998	-0.465461
C11	C	1.476120	-0.000001	-0.232394
C12	C	1.312277	-0.000000	-0.227295
N13	N	1.825402	-0.292895	-0.304970
C14	C	1.559329	-0.647953	-0.038622
C15	C	1.527127	-0.529622	-0.006406
C16	C	1.601692	-0.470435	-0.081045
C17	C	1.708467	-0.529590	-0.187904
C18	C	1.740681	-0.647932	-0.220115
C19	C	1.783044	-0.470414	-0.262538
C20	C	1.889819	-0.529569	-0.369397
C21	C	1.922027	-0.647900	-0.401604
C22	C	1.847461	-0.707087	-0.326965
C23	C	1.750830	-0.352071	-0.230327
C24	C	1.932182	-0.352050	-0.411820
C25	C	1.964384	-0.470381	-0.444036
C26	C	2.015378	0.000000	-0.218059
C27	C	2.179219	0.000007	-0.223157
C28	C	1.752918	-0.000002	0.044402
C29	C	1.747816	0.000003	0.208246
N30	N	1.666109	0.292892	-0.145472
C31	C	1.738581	0.000001	-0.494855
C32	C	1.743680	0.000003	-0.658697
H33	H	1.663892	-0.303918	-0.143323
H34	H	1.440195	-0.481467	0.080603
Br35	Br	1.891144	-0.867687	-0.370703
H36	H	1.498639	-0.696154	0.022146
Br37	Br	2.066955	-0.728180	-0.546607
Br38	Br	2.109283	-0.550676	-0.589062
Br39	Br	2.033397	-0.271734	-0.513112
H40	H	1.575466	-0.374084	-0.054808
