data_functionalizedCrystal
_audit_creation_method	'MofGen! by Chris Wilmer'
_symmetry_space_group_name_H-M	'P1'
_symmetry_Int_Tables_number	1
_symmetry_cell_setting	triclinic
loop_
_symmetry_equiv_pos_as_xyz
  x,y,z
_cell_length_a	10.654541
_cell_length_b	14.044190
_cell_length_c	9.130307
_cell_angle_alpha	89.991681
_cell_angle_beta	89.999822
_cell_angle_gamma	88.837853
loop_
_atom_site_label
_atom_site_type_symbol
_atom_site_fract_x
_atom_site_fract_y
_atom_site_fract_z
O1	O	1.681230	0.133219	-0.121773
O2	O	1.317028	0.145915	-0.121787
O3	O	1.493658	0.001547	-0.121751
O4	O	1.504600	0.277588	-0.121808
O5	O	1.493651	0.001545	0.121848
O6	O	1.317021	0.145914	0.121812
O7	O	1.681224	0.133218	0.121826
Cu8	Cu	1.499122	0.139566	0.144062
Cu9	Cu	1.499130	0.139567	-0.144022
O10	O	1.504594	0.277587	0.121791
C11	C	1.270133	0.144983	0.000011
C12	C	1.130409	0.142195	0.000007
C13	C	1.488867	-0.033800	0.000052
C14	C	1.474588	-0.139120	0.000065
C15	C	1.119792	0.314827	-0.000047
C16	C	1.048842	0.399829	-0.000080
C17	C	0.917560	0.397205	-0.000081
C18	C	0.857225	0.309568	-0.000045
C19	C	0.928175	0.224565	-0.000012
C20	C	1.059459	0.227200	-0.000016
C21	C	0.938792	0.051935	0.000052
C22	C	1.070074	0.054558	0.000043
C23	C	0.878457	-0.035701	0.000089
C24	C	0.949407	-0.120706	0.000111
C25	C	1.080697	-0.118077	0.000110
C26	C	1.141024	-0.030444	0.000076
C27	C	1.549754	-0.388913	0.000010
C28	C	1.448503	-0.331949	0.000016
C29	C	1.463021	-0.224649	0.000043
C30	C	1.535239	-0.496222	-0.000017
C31	C	1.728119	0.134150	0.000025
C32	C	1.867843	0.136938	0.000020
C33	C	1.509384	0.312933	-0.000016
C34	C	1.523663	0.418253	-0.000038
N35	N	1.499126	0.139564	0.346684
N36	N	1.499135	0.139562	-0.346645
C37	C	1.655605	0.011763	0.346706
C38	C	1.733853	-0.052135	0.423384
C39	C	1.733866	-0.052135	0.576717
C40	C	1.655619	0.011767	0.653377
C41	C	1.577371	0.075665	0.576699
C42	C	1.577369	0.075660	0.423362
C43	C	1.420887	0.203459	0.576677
C44	C	1.420879	0.203466	0.423344
C45	C	1.342640	0.267361	0.653337
C46	C	1.264396	0.331265	0.576659
C47	C	1.264388	0.331264	0.423316
C48	C	1.342630	0.267364	0.346666
H49	H	1.097981	0.471182	-0.000106
N50	N	1.326070	-0.371838	0.000025
N51	N	1.230868	-0.318341	0.000046
H52	H	1.144401	-0.346515	0.000058
H53	H	0.771560	-0.037833	0.000096
H54	H	0.900272	-0.192053	0.000139
H55	H	1.138457	-0.187297	0.000142
H56	H	1.247920	-0.028295	0.000058
H57	H	1.797559	-0.104165	0.360954
N58	N	1.253891	0.317527	-0.000072
N59	N	1.307745	0.395774	-0.000114
H60	H	1.402455	0.397684	-0.000132
H61	H	1.647332	-0.357098	0.000029
N62	N	1.655576	0.011774	0.190081
N63	N	1.585703	0.068828	0.121637
H64	H	1.585681	0.068835	0.011018
H65	H	1.342647	0.267354	0.778189
H66	H	0.859793	0.466421	-0.000097
N67	N	1.813790	-0.117417	0.655027
N68	N	1.883638	-0.174471	0.586575
H69	H	1.940084	-0.220578	0.641880
H70	H	1.342635	0.267360	0.221814
N71	N	1.655605	0.011740	0.810002
N72	N	1.626612	-0.061703	0.878436
H73	H	1.626599	-0.061726	0.989055
H74	H	1.200687	0.383286	0.639085
N75	N	0.723125	0.306885	-0.000003
N76	N	0.662169	0.344250	0.102679
H77	H	0.567458	0.342355	0.102712
H78	H	1.200663	0.383294	0.360893
