data_functionalizedCrystal
_audit_creation_method	'MofGen! by Chris Wilmer'
_symmetry_space_group_name_H-M	'P1'
_symmetry_Int_Tables_number	1
_symmetry_cell_setting	triclinic
loop_
_symmetry_equiv_pos_as_xyz
  x,y,z
_cell_length_a	6.817900
_cell_length_b	11.168121
_cell_length_c	14.125465
_cell_angle_alpha	94.659390
_cell_angle_beta	100.398878
_cell_angle_gamma	108.508496
loop_
_atom_site_label
_atom_site_type_symbol
_atom_site_fract_x
_atom_site_fract_y
_atom_site_fract_z
V1	V	-4.016762	-0.173620	-0.299984
O2	O	-3.978122	0.009459	-0.294266
O3	O	-3.993684	-0.345333	-0.297941
O4	O	-3.952441	-0.170460	-0.430814
O5	O	-4.019650	-0.166624	-0.160472
V6	V	-4.499172	-0.151779	-0.283297
O7	O	-4.280462	-0.221529	-0.336590
O8	O	-4.685669	-0.103870	-0.246691
O9	O	-4.299043	0.019933	-0.285340
O10	O	-4.655209	-0.334859	-0.289015
O11	O	-4.613680	-0.158775	-0.422809
O12	O	-4.340286	-0.154940	-0.152467
C13	C	-3.845360	-0.387208	-0.293210
C14	C	-3.907672	-0.527582	-0.292411
C15	C	-4.108875	-0.596259	-0.296618
C16	C	-4.173281	-0.741343	-0.295793
C17	C	-3.792749	-0.164138	-0.462703
C18	C	-3.821611	-0.162690	-0.569657
C19	C	-3.874512	-0.160035	-0.765480
C20	C	-4.060790	-0.165361	-0.817801
C21	C	-4.090227	-0.163884	-0.926764
C22	C	-3.845067	-0.161513	-0.656507
C23	C	-4.110711	0.061802	-0.290068
C24	C	-4.027637	0.202175	-0.290873
C25	C	-4.163321	-0.161265	-0.120573
C26	C	-4.113697	-0.162707	-0.013618
H27	H	-3.783099	-0.576196	-0.288204
H28	H	-4.198166	-0.171043	-0.780763
O29	O	-3.710717	-0.153116	-0.809750
C30	C	-3.477133	-0.034421	-0.904591
C31	C	-3.662658	-0.042109	-0.854500
H32	H	-3.438191	0.055335	-0.940766
H33	H	-3.523473	-0.122155	-0.962017
H34	H	-3.332279	-0.030712	-0.848005
H35	H	-3.807586	-0.045778	-0.911014
H36	H	-3.616142	0.045624	-0.797056
O37	O	-4.257361	-0.538179	-0.301470
C38	C	-4.371778	-0.379629	-0.224170
C39	C	-4.203490	-0.445317	-0.218543
H40	H	-4.328260	-0.304518	-0.157143
H41	H	-4.533322	-0.453830	-0.227148
H42	H	-4.378268	-0.331849	-0.292433
H43	H	-4.196809	-0.493095	-0.150287
H44	H	-4.042030	-0.371062	-0.215619
O45	O	-4.378801	-0.811869	-0.299950
C46	C	-4.625686	-0.951471	-0.220890
C47	C	-4.392840	-0.871677	-0.216071
H48	H	-4.637118	-0.999825	-0.153073
H49	H	-4.687061	-1.027224	-0.288372
H50	H	-4.725290	-0.886352	-0.224768
H51	H	-4.293070	-0.936693	-0.212157
H52	H	-4.331635	-0.795912	-0.148600
H53	H	-3.855267	-0.738795	-0.287268
