data_functionalizedCrystal
_audit_creation_method	'MofGen! by Chris Wilmer'
_symmetry_space_group_name_H-M	'P1'
_symmetry_Int_Tables_number	1
_symmetry_cell_setting	triclinic
loop_
_symmetry_equiv_pos_as_xyz
  x,y,z
_cell_length_a	19.288864
_cell_length_b	19.288865
_cell_length_c	18.366186
_cell_angle_alpha	89.988521
_cell_angle_beta	89.977106
_cell_angle_gamma	83.136245
loop_
_atom_site_label
_atom_site_type_symbol
_atom_site_fract_x
_atom_site_fract_y
_atom_site_fract_z
O1	O	0.921353	0.086649	-0.060791
O2	O	1.421353	0.586649	0.439209
O3	O	0.719092	0.098337	-0.060743
O4	O	1.219092	0.598337	0.439257
O5	O	0.826067	-0.008637	-0.060754
O6	O	1.326067	0.491363	0.439246
O7	O	0.814378	0.193623	-0.060780
O8	O	1.314378	0.693623	0.439220
O9	O	0.826049	-0.008643	0.060345
O10	O	1.326049	0.491357	0.560345
O11	O	0.719074	0.098332	0.060357
O12	O	1.219074	0.598332	0.560357
O13	O	0.921335	0.086643	0.060308
O14	O	1.421335	0.586643	0.560308
Zn15	Zn	0.820201	0.092487	0.079559
Zn16	Zn	1.320201	0.592487	0.579559
Zn17	Zn	0.820225	0.092494	-0.079994
Zn18	Zn	1.320225	0.592494	0.420006
O19	O	0.814360	0.193618	0.060319
O20	O	1.314360	0.693618	0.560319
C21	C	0.693207	0.097959	-0.000187
C22	C	1.193207	0.597959	0.499813
C23	C	0.616103	0.096830	-0.000167
C24	C	1.116103	0.596830	0.499833
C25	C	0.571407	0.159598	-0.000187
C26	C	1.071407	0.659598	0.499813
C27	C	0.498960	0.158537	-0.000195
C28	C	0.998960	0.658537	0.499805
C29	C	0.471212	0.094705	-0.000198
C30	C	0.971212	0.594705	0.499802
C31	C	0.515918	0.031929	-0.000174
C32	C	1.015918	0.531929	0.499826
C33	C	0.588364	0.032991	-0.000159
C34	C	1.088364	0.532991	0.499841
C35	C	0.362956	0.044527	-0.042642
C36	C	0.862956	0.544527	0.457358
C37	C	0.290512	0.043468	-0.042662
C38	C	0.790512	0.543468	0.457338
C39	C	0.247767	0.091425	-0.000241
C40	C	0.747767	0.591425	0.499759
C41	C	0.277473	0.140454	0.042189
C42	C	0.777473	0.640454	0.542189
C43	C	0.349918	0.141517	0.042205
C44	C	0.849918	0.641517	0.542205
C45	C	0.392658	0.093546	-0.000214
C46	C	0.892658	0.593546	0.499786
C47	C	0.124514	0.153047	-0.000269
C48	C	0.624514	0.653047	0.499731
C49	C	0.052066	0.151984	-0.000272
C50	C	0.552066	0.651984	0.499728
C51	C	0.069026	0.025374	-0.000259
C52	C	0.569026	0.525374	0.499741
C53	C	0.141473	0.026439	-0.000248
C54	C	0.641473	0.526439	0.499752
C55	C	0.169212	0.090278	-0.000256
C56	C	0.669212	0.590278	0.499744
C57	C	0.825682	-0.034516	-0.000202
C58	C	1.325682	0.465484	0.499798
C59	C	0.824553	-0.111620	-0.000195
C60	C	1.324553	0.388380	0.499805
C61	C	0.887321	-0.156316	-0.000207
C62	C	1.387321	0.343684	0.499793
C63	C	0.886260	-0.228763	-0.000218
C64	C	1.386260	0.271237	0.499782
C65	C	0.822428	-0.256511	-0.000203
C66	C	1.322428	0.243489	0.499797
C67	C	0.759652	-0.211805	-0.000196
C68	C	1.259652	0.288195	0.499804
C69	C	0.760714	-0.139359	-0.000192
C70	C	1.260714	0.360641	0.499808
C71	C	0.772242	-0.364800	0.042227
C72	C	1.272242	0.135200	0.542227
C73	C	0.771182	-0.437245	0.042228
C74	C	1.271182	0.062755	0.542228
C75	C	0.819148	-0.479956	-0.000219
C76	C	1.319148	0.020044	0.499781
C77	C	0.868186	-0.450216	-0.042657
C78	C	1.368186	0.049784	0.457343
C79	C	0.869248	-0.377771	-0.042653
C80	C	1.369248	0.122229	0.457347
C81	C	0.821269	-0.335065	-0.000208
C82	C	1.321269	0.164935	0.499792
C83	C	0.880770	-0.603209	-0.000244
C84	C	1.380770	-0.103209	0.499756
C85	C	0.879707	-0.675657	-0.000259
C86	C	1.379707	-0.175657	0.499741
C87	C	0.753097	-0.658697	-0.000230
C88	C	1.253097	-0.158697	0.499770
C89	C	0.754162	-0.586250	-0.000221
C90	C	1.254162	-0.086250	0.499779
C91	C	0.818001	-0.558511	-0.000225
C92	C	1.318001	-0.058511	0.499775
C93	C	0.947220	0.087022	-0.000250
C94	C	1.447220	0.587022	0.499750
C95	C	1.024324	0.088151	-0.000274
C96	C	1.524324	0.588151	0.499726
C97	C	0.814745	0.219497	-0.000234
C98	C	1.314745	0.719497	0.499766
C99	C	0.815874	0.296601	-0.000246
C100	C	1.315874	0.796601	0.499754
N101	N	0.820190	0.092482	0.188451
N102	N	1.320190	0.592482	0.688451
N103	N	0.820242	0.092493	-0.188885
N104	N	1.320242	0.592493	0.311115
C105	C	0.867574	0.045137	0.226546
C106	C	1.367574	0.545137	0.726546
C107	C	0.867578	0.045134	0.302774
C108	C	1.367578	0.545134	0.802774
C109	C	0.820206	0.092488	0.340903
C110	C	1.320206	0.592488	0.840903
C111	C	0.772813	0.139836	0.302799
C112	C	1.272813	0.639836	0.802799
C113	C	0.772805	0.139834	0.226572
C114	C	1.272805	0.639834	0.726572
C115	C	0.810907	0.155775	0.461657
C116	C	1.310907	0.655775	0.961657
C117	C	0.810920	0.155779	0.537882
C118	C	1.310920	0.655779	1.037882
C119	C	0.820225	0.092496	0.576011
C120	C	1.320225	0.592496	1.076011
C121	C	0.829533	0.029207	0.537905
C122	C	1.329533	0.529207	1.037905
C123	C	0.829525	0.029204	0.461679
C124	C	1.329525	0.529204	0.961679
C125	C	0.820208	0.092496	0.423558
C126	C	1.320208	0.592496	0.923558
C127	C	0.867617	0.045144	0.696761
C128	C	1.367617	0.545144	1.196761
C129	C	0.867616	0.045140	0.772990
C130	C	1.367616	0.545140	1.272990
C131	C	0.772854	0.139849	0.773014
C132	C	1.272854	0.639849	1.273014
C133	C	0.772851	0.139847	0.696786
C134	C	1.272851	0.639847	1.196786
C135	C	0.820236	0.092495	0.658664
C136	C	1.320236	0.592495	1.158664
H137	H	0.242671	0.179506	0.076733
H138	H	0.742671	0.679506	0.576733
H139	H	0.147101	0.205028	-0.000265
H140	H	0.647101	0.705028	0.499735
H141	H	0.906198	0.006585	0.665721
H142	H	1.406198	0.506585	1.165721
H143	H	0.709599	-0.102967	-0.000182
H144	H	1.209599	0.397033	0.499818
H145	H	0.734269	0.178402	0.665767
H146	H	1.234269	0.678402	1.165767
C147	C	0.839752	-0.040407	0.419764
C148	C	1.339752	0.459593	0.919764
H149	H	0.845391	-0.078097	0.453382
H150	H	1.345391	0.421903	0.953382
H151	H	0.880138	-0.041875	0.389924
H152	H	1.380138	0.458125	0.889924
H153	H	0.800023	-0.044198	0.390132
H154	H	1.300023	0.455802	0.890132
C155	C	0.950986	-0.572688	-0.000257
C156	C	1.450986	-0.072688	0.499743
H157	H	0.942630	-0.523141	-0.000243
H158	H	1.442630	-0.023141	0.499757
H159	H	0.976829	-0.588033	-0.042494
H160	H	1.476829	-0.088033	0.457506
H161	H	0.976815	-0.588057	0.041971
H162	H	1.476815	-0.088057	0.541971
H163	H	0.803346	0.207313	0.568901
H164	H	1.303346	0.707313	1.068901
H165	H	0.046435	-0.026600	-0.000306
H166	H	0.546435	0.473400	0.499694
H167	H	0.906165	0.006578	0.333797
H168	H	1.406165	0.506578	0.833797
C169	C	0.382595	0.195438	0.088881
C170	C	0.882595	0.695438	0.588881
H171	H	0.346766	0.223847	0.114149
H172	H	0.846766	0.723847	0.614149
H173	H	0.407119	0.223899	0.058299
H174	H	0.907119	0.723899	0.558299
H175	H	0.414051	0.171828	0.123006
H176	H	0.914051	0.671828	0.623006
H177	H	0.177866	-0.024674	-0.000236
H178	H	0.677866	0.475326	0.499764
C179	C	0.637532	-0.036057	-0.000146
C180	C	1.137532	0.463943	0.499854
H181	H	0.610633	-0.074226	-0.000153
H182	H	1.110633	0.425774	0.499847
H183	H	0.666126	-0.038277	0.042087
H184	H	1.166126	0.461723	0.542087
H185	H	0.666164	-0.038268	-0.042379
H186	H	1.166164	0.461732	0.457621
C187	C	0.920956	-0.497187	-0.089349
C188	C	1.420956	0.002813	0.410651
H189	H	0.950314	-0.469100	-0.114615
H190	H	1.450314	0.030900	0.385385
H191	H	0.896537	-0.522225	-0.123463
H192	H	1.396537	-0.022225	0.376537
H193	H	0.948582	-0.529211	-0.058763
H194	H	1.448582	-0.029211	0.441237
H195	H	0.397755	0.005473	-0.077191
H196	H	0.897755	0.505473	0.422809
H197	H	0.837110	-0.022324	0.568948
H198	H	1.337110	0.477676	1.068948
H199	H	0.803318	0.207311	0.430619
H200	H	1.303318	0.707311	0.930619
C201	C	0.682881	-0.689207	-0.000216
C202	C	1.182881	-0.189207	0.499784
H203	H	0.645649	-0.652208	-0.000211
H204	H	1.145649	-0.152208	0.499789
H205	H	0.679826	-0.717127	0.042011
H206	H	1.179826	-0.217127	0.542011
H207	H	0.679843	-0.717102	-0.042455
H208	H	1.179843	-0.217102	0.457545
H209	H	0.930822	-0.712049	-0.000273
H210	H	1.430822	-0.212049	0.499727
C211	C	0.685116	-0.537082	-0.000196
C212	C	1.185116	-0.037082	0.499804
H213	H	0.646947	-0.563981	-0.000183
H214	H	1.146947	-0.063981	0.499817
H215	H	0.682903	-0.508456	-0.042422
H216	H	1.182903	-0.008456	0.457578
H217	H	0.682896	-0.508481	0.042043
H218	H	1.182896	-0.008481	0.542043
C219	C	0.919742	-0.006941	0.814896
C220	C	1.419742	0.493059	1.314896
H221	H	0.947964	-0.035136	0.781271
H222	H	1.447964	0.464864	1.281271
H223	H	0.894858	-0.035796	0.844652
H224	H	1.394858	0.464204	1.344652
H225	H	0.948576	0.017982	0.844609
H226	H	1.448576	0.517982	1.344609
H227	H	0.266331	0.003548	-0.077215
H228	H	0.766331	0.503548	0.422785
H229	H	0.731250	-0.461452	0.076779
H230	H	1.231250	0.038548	0.576779
H231	H	0.734279	0.178402	0.804058
H232	H	1.234279	0.678402	1.304058
H233	H	0.906156	0.006579	0.195509
H234	H	1.406156	0.506579	0.695509
C235	C	0.720706	0.191926	0.344738
C236	C	1.220706	0.691926	0.844738
H237	H	0.727502	0.185153	0.395592
H238	H	1.227502	0.685153	0.895592
H239	H	0.674374	0.184501	0.332275
H240	H	1.174374	0.684501	0.832275
H241	H	0.728105	0.238266	0.332227
H242	H	1.228105	0.738266	0.832227
C243	C	0.720689	0.191921	0.184662
C244	C	1.220689	0.691921	0.684662
H245	H	0.727470	0.185137	0.133805
H246	H	1.227470	0.685137	0.633805
H247	H	0.728087	0.238259	0.197142
H248	H	1.228087	0.738259	0.697142
H249	H	0.674356	0.184494	0.197176
H250	H	1.174356	0.684494	0.697176
C251	C	0.601917	0.229817	-0.000183
C252	C	1.101917	0.729817	0.499817
H253	H	0.564917	0.267048	-0.000188
H254	H	1.064917	0.767048	0.499812
H255	H	0.629852	0.232869	-0.042404
H256	H	1.129852	0.732869	0.457596
H257	H	0.629797	0.232859	0.042061
H258	H	1.129797	0.732859	0.542061
C259	C	0.449782	0.227582	-0.000220
C260	C	0.949782	0.727582	0.499780
H261	H	0.402664	0.217805	-0.000224
H262	H	0.902664	0.717805	0.499776
H263	H	0.458195	0.253766	-0.042452
H264	H	0.958195	0.753766	0.457548
H265	H	0.458144	0.253768	0.042013
H266	H	0.958144	0.753768	0.542013
H267	H	0.733180	-0.330029	0.076796
H268	H	1.233180	0.169971	0.576796
C269	C	0.689438	-0.242324	-0.000177
C270	C	1.189438	0.257676	0.499823
H271	H	0.697795	-0.291872	-0.000173
H272	H	1.197795	0.208128	0.499827
H273	H	0.663608	-0.226960	-0.042400
H274	H	1.163608	0.273040	0.457600
H275	H	0.663598	-0.226975	0.042065
H276	H	1.163598	0.273025	0.542065
H277	H	0.493322	-0.020044	-0.000187
H278	H	0.993322	0.479956	0.499813
C279	C	0.002900	0.221032	-0.000294
C280	C	0.502900	0.721032	0.499706
H281	H	0.029799	0.259201	-0.000303
H282	H	0.529799	0.759201	0.499697
H283	H	-0.025737	0.223253	0.041931
H284	H	0.474263	0.723253	0.541931
H285	H	-0.025690	0.223246	-0.042535
H286	H	0.474310	0.723246	0.457465
H287	H	0.939303	-0.133736	-0.000212
H288	H	1.439303	0.366264	0.499788
C289	C	0.955307	-0.277938	-0.000226
C290	C	1.455307	0.222062	0.499774
H291	H	0.993478	-0.251041	-0.000223
H292	H	1.493478	0.248959	0.499777
H293	H	0.957535	-0.306546	-0.042455
H294	H	1.457535	0.193454	0.457545
H295	H	0.957509	-0.306557	0.042010
H296	H	1.457509	0.193443	0.542010
H297	H	0.909175	-0.353560	-0.077208
H298	H	1.409175	0.146440	0.422792
