data_functionalizedCrystal
_audit_creation_method	'MofGen! by Chris Wilmer'
_symmetry_space_group_name_H-M	'P1'
_symmetry_Int_Tables_number	1
_symmetry_cell_setting	triclinic
loop_
_symmetry_equiv_pos_as_xyz
  x,y,z
_cell_length_a	14.853566
_cell_length_b	14.853559
_cell_length_c	13.930277
_cell_angle_alpha	89.997639
_cell_angle_beta	89.995631
_cell_angle_gamma	83.632934
loop_
_atom_site_label
_atom_site_type_symbol
_atom_site_fract_x
_atom_site_fract_y
_atom_site_fract_z
O1	O	1.196365	0.117699	-0.079763
O2	O	0.933905	0.131721	-0.079778
O3	O	1.072150	-0.006520	-0.079769
O4	O	1.058121	0.255940	-0.079772
O5	O	1.072131	-0.006523	0.079893
O6	O	0.933886	0.131718	0.079884
O7	O	1.196346	0.117696	0.079899
Zn8	Zn	1.065113	0.124706	0.105241
Zn9	Zn	1.065138	0.124710	-0.105120
O10	O	1.058102	0.255937	0.079890
C11	C	0.900307	0.131085	0.000051
C12	C	0.800223	0.129181	0.000045
C13	C	0.377049	0.121132	-0.086970
C14	C	0.377050	0.121129	0.087100
C15	C	0.471084	0.122917	0.087097
C16	C	0.518105	0.123813	0.000059
C17	C	0.471092	0.122922	-0.086975
C18	C	0.518103	0.123817	0.174130
C19	C	0.612142	0.125606	0.174130
C20	C	0.659166	0.126496	0.087092
C21	C	0.612147	0.125604	0.000054
C22	C	0.659168	0.126500	-0.086984
C23	C	0.612152	0.125601	-0.174023
C24	C	0.518115	0.123812	-0.174014
C25	C	0.753202	0.128285	0.087083
C26	C	0.753210	0.128290	-0.086990
C27	C	1.071506	-0.040111	0.000060
C28	C	1.069605	-0.140195	0.000055
C29	C	1.061552	-0.563368	-0.086978
C30	C	1.061531	-0.563366	0.087092
C31	C	1.063324	-0.469333	0.087093
C32	C	1.064230	-0.422313	0.000057
C33	C	1.063343	-0.469326	-0.086979
C34	C	1.064203	-0.422312	0.174128
C35	C	1.065995	-0.328272	0.174132
C36	C	1.066908	-0.281251	0.087096
C37	C	1.066021	-0.328270	0.000056
C38	C	1.066927	-0.281250	-0.086980
C39	C	1.066047	-0.328268	-0.174021
C40	C	1.064255	-0.422305	-0.174016
C41	C	1.068700	-0.187215	0.087090
C42	C	1.068718	-0.187208	-0.086982
C43	C	1.229945	0.118332	0.000068
C44	C	1.330028	0.120236	0.000068
C45	C	1.058745	0.289528	0.000059
C46	C	1.060646	0.389612	0.000058
N47	N	1.065102	0.124703	0.248807
N48	N	1.065156	0.124706	-0.248686
C49	C	1.003921	0.185900	0.701073
C50	C	1.126380	0.063514	0.701050
C51	C	1.126370	0.063511	0.600554
C52	C	1.065135	0.124704	0.550313
C53	C	1.003911	0.185901	0.600568
C54	C	1.187599	0.002322	0.550292
C55	C	1.187591	0.002318	0.449790
C56	C	1.126351	0.063507	0.399547
C57	C	1.065124	0.124705	0.449808
C58	C	1.003889	0.185898	0.399567
C59	C	0.942657	0.247093	0.449826
C60	C	0.942670	0.247090	0.550325
C61	C	1.126337	0.063510	0.299049
C62	C	1.003878	0.185899	0.299062
H63	H	0.791478	0.129025	0.157948
H64	H	0.650415	0.126335	0.245003
Br65	Br	1.069958	-0.123403	-0.205108
H66	H	1.063460	-0.460602	0.244987
H67	H	1.066778	-0.289972	-0.244886
H68	H	1.063538	-0.460595	-0.244880
H69	H	0.892802	0.296921	0.408908
H70	H	0.338765	0.120397	-0.157835
H71	H	0.954010	0.235727	0.258162
Br72	Br	0.817019	0.129496	-0.205119
Br73	Br	1.067183	-0.264469	0.292256
H74	H	0.892818	0.296913	0.591252
Br75	Br	1.209491	-0.019523	0.769231
H76	H	0.338759	0.120406	0.157962
H77	H	1.237459	-0.047495	0.591202
H78	H	1.060839	-0.601655	-0.157844
H79	H	0.479810	0.123093	0.244991
Br80	Br	1.069889	-0.123407	0.205207
Br81	Br	0.675976	0.126828	-0.292141
H82	H	1.060788	-0.601655	0.157952
H83	H	0.954064	0.235721	0.741996
H84	H	1.176196	0.013691	0.258132
Br85	Br	0.454308	0.122552	-0.292127
Br86	Br	1.270688	-0.080730	0.381588
