data_functionalizedCrystal
_audit_creation_method	'MofGen! by Chris Wilmer'
_symmetry_space_group_name_H-M	'P1'
_symmetry_Int_Tables_number	1
_symmetry_cell_setting	triclinic
loop_
_symmetry_equiv_pos_as_xyz
  x,y,z
_cell_length_a	12.759401
_cell_length_b	12.827892
_cell_length_c	12.827885
_cell_angle_alpha	89.970214
_cell_angle_beta	90.019253
_cell_angle_gamma	89.985494
loop_
_atom_site_label
_atom_site_type_symbol
_atom_site_fract_x
_atom_site_fract_y
_atom_site_fract_z
Zn1	Zn	1.606246	0.416007	0.590848
Zn2	Zn	2.106246	0.916007	1.090848
Zn3	Zn	1.606139	0.590785	0.416108
Zn4	Zn	2.106139	1.090785	0.916108
Zn5	Zn	1.430549	0.416055	0.416122
Zn6	Zn	1.930549	0.916055	0.916122
Zn7	Zn	1.430534	0.590704	0.590808
Zn8	Zn	1.930534	1.090704	1.090808
O9	O	1.518367	0.503388	0.503472
O10	O	2.018367	1.003388	1.003472
O11	O	1.753253	0.439205	0.567680
O12	O	2.253253	0.939205	1.067680
O13	O	1.582809	0.567660	0.269874
O14	O	2.082809	1.067660	0.769874
O15	O	1.453906	0.269813	0.439322
O16	O	1.953906	0.769813	0.939322
O17	O	1.753175	0.567613	0.439299
O18	O	2.253175	1.067613	0.939299
O19	O	1.582990	0.269777	0.567693
O20	O	2.082990	0.769777	1.067693
O21	O	1.453803	0.439287	0.269884
O22	O	1.953803	0.939287	0.769884
O23	O	1.283526	0.439209	0.439283
O24	O	1.783526	0.939209	0.939283
O25	O	1.453881	0.567476	0.737050
O26	O	1.953881	1.067476	1.237050
O27	O	1.283515	0.567523	0.567625
O28	O	1.783515	1.067523	1.067625
O29	O	1.582976	0.439127	0.737079
O30	O	2.082976	0.939127	1.237079
O31	O	1.582794	0.737010	0.439261
O32	O	2.082794	1.237010	0.939261
O33	O	1.453778	0.736951	0.567612
O34	O	1.953778	1.236951	1.067612
C35	C	1.245400	0.503364	0.503452
C36	C	1.745400	1.003364	1.003452
C37	C	1.128623	0.503378	0.503468
C38	C	1.628623	1.003378	1.003468
C39	C	1.073736	0.436478	0.436764
C40	C	1.573736	0.936478	0.936764
C41	C	0.964012	0.436502	0.436777
C42	C	1.464012	0.936502	0.936777
C43	C	0.964072	0.570332	0.570208
C44	C	1.464072	1.070332	1.070208
C45	C	1.073794	0.570311	0.570189
C46	C	1.573794	1.070311	1.070189
C47	C	1.128565	0.369544	0.370043
C48	C	1.628565	0.869544	0.870043
C49	C	1.073678	0.302637	0.303334
C50	C	1.573678	0.802637	0.803334
C51	C	0.963954	0.302662	0.303347
C52	C	1.463954	0.802662	0.803347
C53	C	0.909117	0.369594	0.370070
C54	C	1.409117	0.869594	0.870070
C55	C	1.518301	0.774898	0.503453
C56	C	2.018301	1.274898	1.003453
C57	C	1.518370	0.891051	0.503480
C58	C	2.018370	1.391051	1.003480
C59	C	1.518439	0.503287	0.776042
C60	C	2.018439	1.003287	1.276042
C61	C	1.518469	0.503245	0.892195
C62	C	2.018469	1.003245	1.392195
C63	C	1.792400	0.503413	0.503492
C64	C	2.292400	1.003413	1.003492
C65	C	1.909177	0.503424	0.503501
C66	C	2.409177	1.003424	1.003501
C67	C	1.518462	0.230818	0.503513
C68	C	2.018462	0.730818	1.003513
C69	C	1.518502	0.114664	0.503531
C70	C	2.018502	0.614664	1.003531
C71	C	1.582287	0.942830	0.440039
C72	C	2.082287	1.442830	0.940039
C73	C	1.582358	1.062880	0.440065
C74	C	2.082358	1.562880	0.940065
C75	C	1.518356	0.503412	0.231962
C76	C	2.018356	1.003412	0.731962
C77	C	1.518529	0.503161	0.115809
C78	C	2.018529	1.003161	0.615809
C79	C	1.582356	0.439721	0.943994
C80	C	2.082356	0.939721	1.443994
C81	C	1.582389	0.439675	1.064045
C82	C	2.082389	0.939675	1.564045
H83	H	1.118333	0.248150	0.249005
H84	H	1.618333	0.748150	0.749005
C85	C	1.723688	1.185594	0.425858
C86	C	2.223688	1.685594	0.925858
C87	C	1.656275	1.122961	0.366758
C88	C	2.156275	1.622961	0.866758
H89	H	1.769337	1.222674	0.380604
H90	H	2.269337	1.722674	0.880604
H91	H	1.683635	1.233656	0.465647
H92	H	2.183635	1.733656	0.965647
H93	H	1.763823	1.142921	0.471392
H94	H	2.263823	1.642921	0.971392
H95	H	1.616135	1.165635	0.321229
H96	H	2.116135	1.665635	0.821229
H97	H	1.696333	1.074893	0.326951
H98	H	2.196333	1.574893	0.826951
C99	C	1.285793	0.343005	0.469476
C100	C	1.785793	0.843005	0.969476
C101	C	1.249175	0.369522	0.370024
C102	C	1.749175	0.869522	0.870024
H103	H	1.360252	0.342987	0.469462
H104	H	1.860252	0.842987	0.969462
H105	H	1.260994	0.392439	0.518746
H106	H	1.760994	0.892439	1.018746
H107	H	1.260980	0.275594	0.487660
H108	H	1.760980	0.775594	0.987660
H109	H	1.273981	0.436936	0.351843
H110	H	1.773981	0.936936	0.851843
H111	H	1.273984	0.320085	0.320739
H112	H	1.773984	0.820085	0.820739
H113	H	1.636960	0.898286	0.385707
H114	H	2.136960	1.398286	0.885707
H115	H	1.463705	0.935597	0.557819
H116	H	1.963705	1.435597	1.057819
H117	H	1.637024	0.385366	0.899465
H118	H	2.137024	0.885366	1.399465
H119	H	0.919267	0.248190	0.249023
H120	H	1.419267	0.748190	0.749023
H121	H	1.463791	0.557589	0.936725
H122	H	1.963791	1.057589	1.436725
C123	C	1.641963	0.380411	1.231459
C124	C	2.141963	0.880411	1.731459
C125	C	1.656226	0.366247	1.124171
C126	C	2.156226	0.866247	1.624171
H127	H	1.687544	0.335071	1.268577
H128	H	2.187544	0.835071	1.768577
H129	H	1.657311	0.450625	1.249281
H130	H	2.157311	0.950625	1.749281
H131	H	1.571361	0.365123	1.249280
H132	H	2.071361	0.865123	1.749280
H133	H	1.726826	0.381542	1.106349
H134	H	2.226826	0.881542	1.606349
H135	H	1.640885	0.296017	1.106342
H136	H	2.140885	0.796017	1.606342
C137	C	1.503969	0.643658	0.992920
C138	C	2.003969	1.143658	1.492920
C139	C	1.444688	0.576586	1.055684
C140	C	1.944688	1.076586	1.555684
H141	H	1.458381	0.688982	0.955790
H142	H	1.958381	1.188982	1.455790
H143	H	1.549689	0.683656	1.035500
H144	H	2.049689	1.183656	1.535500
H145	H	1.544027	0.603821	0.944890
H146	H	2.044027	1.103821	1.444890
H147	H	1.404635	0.616422	1.103719
H148	H	1.904635	1.116422	1.603719
H149	H	1.398949	0.536584	1.013099
H150	H	1.898949	1.036584	1.513099
H151	H	1.463773	1.070143	0.557845
H152	H	1.963773	1.570143	1.057845
H153	H	0.919415	0.624823	0.624532
H154	H	1.419415	1.124823	1.124532
H155	H	1.118484	0.624787	0.624507
H156	H	1.618484	1.124787	1.124507
H157	H	0.819772	0.369614	0.370070
H158	H	1.319772	0.869614	0.870070
