data_functionalizedCrystal
_audit_creation_method	'MofGen! by Chris Wilmer'
_symmetry_space_group_name_H-M	'P1'
_symmetry_Int_Tables_number	1
_symmetry_cell_setting	triclinic
loop_
_symmetry_equiv_pos_as_xyz
  x,y,z
_cell_length_a	15.944499
_cell_length_b	15.712078
_cell_length_c	14.421503
_cell_angle_alpha	89.993655
_cell_angle_beta	89.992178
_cell_angle_gamma	101.529379
loop_
_atom_site_label
_atom_site_type_symbol
_atom_site_fract_x
_atom_site_fract_y
_atom_site_fract_z
O1	O	1.148729	0.111267	-0.077167
O2	O	0.908410	0.125058	-0.077157
O3	O	0.996599	-0.007661	-0.077156
O4	O	1.060540	0.243986	-0.077168
O5	O	0.996583	-0.007675	0.077067
O6	O	0.908394	0.125043	0.077066
O7	O	1.148713	0.111253	0.077056
Cu8	Cu	1.028552	0.118147	0.091143
Cu9	Cu	1.028571	0.118164	-0.091244
O10	O	1.060524	0.243972	0.077055
C11	C	0.876933	0.124486	-0.000044
C12	C	0.783165	0.122793	-0.000040
C13	C	0.515314	0.199899	-0.000058
C14	C	0.564039	0.159825	-0.076097
C15	C	0.445640	0.116644	-0.000061
C16	C	0.564002	0.159788	0.075955
C17	C	0.611478	0.119670	-0.000049
C18	C	0.493130	0.076546	-0.076164
C19	C	0.493090	0.076521	0.075957
C20	C	0.541779	0.036386	-0.000102
C21	C	0.350105	0.114903	-0.000069
C22	C	0.707010	0.121404	-0.000048
C23	C	0.986145	-0.039870	-0.000045
C24	C	0.955009	-0.135821	-0.000046
C25	C	1.219357	-0.502953	-0.000066
C26	C	1.190081	-0.593110	-0.000065
C27	C	1.043387	-0.572475	-0.000059
C28	C	1.072651	-0.482313	-0.000056
C29	C	1.160636	-0.447560	-0.000061
C30	C	1.013930	-0.426921	-0.000050
C31	C	1.043192	-0.336767	-0.000052
C32	C	1.131174	-0.302006	-0.000060
C33	C	1.189898	-0.357406	-0.000063
C34	C	0.925945	-0.461676	-0.000052
C35	C	0.867225	-0.406283	-0.000047
C36	C	0.896486	-0.316128	-0.000042
C37	C	0.984468	-0.281367	-0.000049
C38	C	0.837762	-0.260728	-0.000039
C39	C	0.867024	-0.170575	-0.000041
C40	C	1.013730	-0.191214	-0.000051
C41	C	1.180189	0.111825	-0.000059
C42	C	1.273958	0.113517	-0.000069
C43	C	1.070978	0.276181	-0.000058
C44	C	1.102113	0.372132	-0.000064
N45	N	1.028544	0.118135	0.219424
N46	N	1.028583	0.118169	-0.219525
C47	C	1.068726	0.056277	0.530853
C48	C	1.109630	0.134140	0.469012
C49	C	1.028571	0.118159	0.591313
C50	C	0.987693	0.040287	0.469060
C51	C	1.028559	0.118143	0.408592
C52	C	1.069525	0.196061	0.530833
C53	C	0.947540	0.102157	0.530886
C54	C	0.988430	0.180076	0.469073
C55	C	1.028580	0.118168	0.696574
C56	C	1.028552	0.118144	0.303333
H57	H	0.462351	0.041371	-0.140522
F58	F	0.604380	0.205825	0.159976
H59	H	1.085376	-0.162916	-0.000046
H60	H	0.879028	0.088598	0.558085
F61	F	1.113182	-0.012038	0.566313
H62	H	0.553714	-0.032770	-0.000139
F63	F	0.604447	0.205858	-0.160130
F64	F	1.162317	-0.206056	-0.000066
H65	H	0.953127	-0.025562	0.441925
H66	H	1.178154	0.147674	0.441834
H67	H	1.104166	0.261926	0.557854
F68	F	0.499487	0.290208	-0.000156
H69	H	0.462159	0.041330	0.140248
F70	F	0.944057	0.248540	0.433835
H71	H	1.261544	-0.329108	-0.000057
H72	H	1.237905	-0.638210	-0.000075
F73	F	0.949749	-0.609472	-0.000061
F74	F	1.313001	-0.465961	-0.000046
F75	F	0.773587	-0.443280	-0.000049
F76	F	0.804527	-0.111618	-0.000035
F77	F	0.894804	-0.557627	0.000008
F78	F	0.744125	-0.297727	-0.000050
