data_functionalizedCrystal
_audit_creation_method	'MofGen! by Chris Wilmer'
_symmetry_space_group_name_H-M	'P1'
_symmetry_Int_Tables_number	1
_symmetry_cell_setting	triclinic
loop_
_symmetry_equiv_pos_as_xyz
  x,y,z
_cell_length_a	23.532407
_cell_length_b	23.532407
_cell_length_c	22.610064
_cell_angle_alpha	89.999803
_cell_angle_beta	89.994486
_cell_angle_gamma	82.848712
loop_
_atom_site_label
_atom_site_type_symbol
_atom_site_fract_x
_atom_site_fract_y
_atom_site_fract_z
O1	O	0.755263	0.069127	-0.049153
O2	O	0.589400	0.079130	-0.049163
O3	O	0.677333	-0.008803	-0.049147
O4	O	0.667330	0.157060	-0.049169
O5	O	0.677318	-0.008789	0.049222
O6	O	0.589384	0.079144	0.049206
O7	O	0.755248	0.069141	0.049216
Zn8	Zn	0.672314	0.074144	0.064829
Zn9	Zn	0.672334	0.074127	-0.064777
O10	O	0.667315	0.157074	0.049200
C11	C	0.568176	0.078882	0.000020
C12	C	0.504959	0.078116	0.000017
C13	C	0.677071	-0.030012	0.000039
C14	C	0.676305	-0.093229	0.000043
C15	C	0.238792	0.022921	0.000040
C16	C	0.298192	0.023632	0.000040
O17	O	0.334937	-0.020153	0.000066
N18	N	0.320818	0.075909	0.000029
C19	C	0.284041	0.127477	0.000024
O20	O	0.308740	0.172007	0.000015
C21	C	0.224642	0.126765	0.000029
C22	C	0.202019	0.074485	0.000034
C23	C	0.216168	-0.029354	0.000046
C24	C	0.156772	-0.030066	0.000045
C25	C	0.119999	0.021499	0.000038
C26	C	0.142623	0.073774	0.000033
C27	C	0.187865	0.178333	0.000028
C28	C	0.128463	0.177616	0.000033
C29	C	0.105840	0.125336	0.000038
C30	C	0.046454	0.124627	0.000025
N31	N	0.023828	0.072351	0.000036
C32	C	0.060600	0.020787	0.000043
C33	C	0.408783	0.128968	0.000016
C34	C	0.468181	0.129681	0.000007
C35	C	0.482328	0.025836	0.000024
C36	C	0.422929	0.025124	0.000028
C37	C	0.386157	0.076692	0.000027
C38	C	-0.064136	0.019297	0.000041
C39	C	-0.123538	0.018590	0.000037
C40	C	-0.137680	0.122435	0.000024
C41	C	-0.078284	0.123142	0.000024
C42	C	-0.041512	0.071568	0.000034
O43	O	0.009675	0.168390	0.000001
O44	O	0.035892	-0.023737	0.000060
C45	C	0.723538	-0.492332	0.000014
C46	C	0.722827	-0.551733	0.000009
O47	O	0.766613	-0.588477	-0.000010
N48	N	0.670551	-0.574359	0.000007
C49	C	0.618982	-0.537581	0.000002
O50	O	0.574452	-0.562281	-0.000001
C51	C	0.619695	-0.478182	0.000003
C52	C	0.671974	-0.455559	0.000011
C53	C	0.775814	-0.469709	0.000022
C54	C	0.776525	-0.410313	0.000028
C55	C	0.724961	-0.373540	0.000025
C56	C	0.672685	-0.396163	0.000017
C57	C	0.568127	-0.441406	-0.000006
C58	C	0.568843	-0.382003	-0.000006
C59	C	0.621123	-0.359381	0.000003
C60	C	0.621832	-0.299994	0.000020
N61	N	0.674109	-0.277368	0.000023
C62	C	0.725673	-0.314141	0.000025
C63	C	0.617491	-0.662324	0.000001
C64	C	0.616778	-0.721722	0.000005
C65	C	0.720623	-0.735869	0.000011
C66	C	0.721335	-0.676470	0.000011
C67	C	0.669767	-0.639698	0.000003
C68	C	0.727163	-0.189404	0.000038
C69	C	0.727869	-0.130002	0.000046
C70	C	0.624025	-0.115860	0.000037
C71	C	0.623318	-0.175257	0.000032
C72	C	0.674891	-0.212028	0.000030
O73	O	0.578069	-0.263215	0.000037
O74	O	0.770196	-0.289433	0.000021
C75	C	0.776472	0.069389	0.000031
C76	C	0.839689	0.070155	0.000031
C77	C	0.667577	0.178283	0.000012
C78	C	0.668343	0.241500	0.000004
N79	N	0.672304	0.074156	0.153282
C80	C	0.711272	0.035200	0.561930
C81	C	0.711275	0.035196	0.623850
O82	O	0.744383	0.002081	0.655875
N83	N	0.672333	0.074120	0.654819
C84	C	0.633382	0.113046	0.623864
O85	O	0.600259	0.146152	0.655891
C86	C	0.633377	0.113046	0.561945
C87	C	0.672325	0.074124	0.530980
C88	C	0.750217	-0.003719	0.530965
C89	C	0.750215	-0.003715	0.469049
C90	C	0.711268	0.035209	0.438099
C91	C	0.672323	0.074129	0.469064
C92	C	0.594423	0.151969	0.530992
C93	C	0.594421	0.151966	0.469069
C94	C	0.633370	0.113044	0.438104
C95	C	0.633373	0.113057	0.376199
N96	N	0.672315	0.074134	0.345230
C97	C	0.711262	0.035210	0.376180
C98	C	0.633395	0.113041	0.753898
C99	C	0.633402	0.113043	0.815816
C100	C	0.711295	0.035193	0.815797
C101	C	0.711290	0.035194	0.753878
C102	C	0.672337	0.074117	0.722929
C103	C	0.711255	0.035223	0.246153
C104	C	0.711251	0.035232	0.184232
C105	C	0.633357	0.113080	0.184256
C106	C	0.633362	0.113073	0.246171
C107	C	0.672314	0.074139	0.277118
O108	O	0.600280	0.146154	0.344134
O109	O	0.744375	0.002104	0.344146
N110	N	0.672348	0.074117	0.846771
H111	H	-0.034204	-0.022699	0.000049
H112	H	0.206274	0.220904	0.000021
H113	H	-0.167631	0.164417	0.000015
C114	C	0.835284	-0.544709	-0.050542
C115	C	0.832501	-0.510123	0.000025
H116	H	0.870285	-0.569653	-0.050538
H117	H	0.804059	-0.566692	-0.050541
H118	H	0.833404	-0.521238	-0.084842
H119	H	0.834377	-0.533594	0.034325
H120	H	0.863735	-0.488139	0.000030
H121	H	0.525555	-0.459814	-0.000017
C122	C	0.516835	0.164725	0.399454
C123	C	0.551603	0.194755	0.435052
H124	H	0.490400	0.191143	0.378458
H125	H	0.540027	0.141554	0.372150
H126	H	0.496491	0.141120	0.423617
H127	H	0.571950	0.218357	0.410888
H128	H	0.528408	0.217935	0.462360
H129	H	0.404515	-0.017447	0.000033
C130	C	0.120450	0.280335	0.000018
C131	C	0.088043	0.234303	0.000026
H132	H	0.095496	0.315330	0.000008
H133	H	0.143905	0.278456	0.034321
H134	H	0.143918	0.278442	-0.034287
H135	H	0.064577	0.236194	0.034333
H136	H	0.064578	0.236182	-0.034280
H137	H	0.138359	-0.072637	0.000052
H138	H	0.526850	-0.352065	-0.000013
H139	H	-0.059864	0.165712	0.000019
H140	H	0.512280	-0.016150	0.000029
C141	C	0.448216	0.232253	-0.000009
C142	C	0.493044	0.187148	-0.000004
H143	H	0.463565	0.267732	-0.000009
H144	H	0.425349	0.229809	-0.034310
H145	H	0.425338	0.229813	0.034297
H146	H	0.515919	0.189586	-0.034312
H147	H	0.515920	0.189594	0.034301
H148	H	0.378846	0.170964	0.000010
H149	H	0.742972	0.003519	0.271343
C150	C	-0.182114	-0.042471	-0.050526
C151	C	-0.148403	-0.038880	0.000043
H152	H	-0.197459	-0.077952	-0.050523
H153	H	-0.212517	-0.011870	-0.050527
H154	H	-0.159226	-0.040037	-0.084825
H155	H	-0.171292	-0.041310	0.034342
H156	H	-0.117996	-0.069490	0.000049
C157	C	0.827200	-0.080670	0.475270
C158	C	0.793022	-0.046506	0.435017
H159	H	0.853624	-0.107093	0.454261
H160	H	0.847550	-0.057066	0.499413
H161	H	0.803602	-0.101029	0.499426
H162	H	0.816619	-0.026145	0.410863
H163	H	0.772669	-0.070113	0.410863
H164	H	0.763906	-0.658055	0.000018
H165	H	0.246104	-0.071347	0.000053
H166	H	0.580747	-0.193677	0.000041
C167	C	0.808924	-0.766221	-0.050558
C168	C	0.777307	-0.776295	0.000007
H169	H	0.843917	-0.791177	-0.050557
H170	H	0.787477	-0.773047	-0.084856
H171	H	0.816829	-0.727606	-0.050549
H172	H	0.769398	-0.814909	-0.000005
H173	H	0.798759	-0.769474	0.034314
C174	C	0.816609	-0.123774	-0.050518
C175	C	0.785338	-0.105135	0.000051
H176	H	0.852085	-0.108420	-0.050516
H177	H	0.823562	-0.164408	-0.050516
H178	H	0.795391	-0.111125	-0.084817
H179	H	0.806555	-0.117788	0.034350
H180	H	0.778388	-0.064493	0.000055
H181	H	0.769159	-0.219337	0.000034
H182	H	0.582043	-0.085909	0.000037
H183	H	0.601653	0.144772	0.271384
H184	H	0.781932	-0.035419	0.556159
C185	C	0.879096	-0.430281	0.000027
C186	C	0.833993	-0.385452	0.000029
H187	H	0.914576	-0.414935	0.000023
H188	H	0.876652	-0.453152	0.034328
H189	H	0.876653	-0.453155	-0.034279
H190	H	0.836434	-0.362581	0.034338
H191	H	0.836439	-0.362571	-0.034275
H192	H	0.574207	-0.740135	0.000008
H193	H	0.743004	0.003500	0.728670
H194	H	0.743007	0.003498	0.841008
H195	H	0.562708	0.183662	0.556196
C196	C	0.788244	-0.041724	0.190442
C197	C	0.754063	-0.007557	0.150195
H198	H	0.814670	-0.068141	0.169430
H199	H	0.808593	-0.018122	0.214590
H200	H	0.764649	-0.062088	0.214596
H201	H	0.777658	0.012811	0.126044
H202	H	0.733712	-0.031162	0.126038
H203	H	0.575496	-0.632386	-0.000000
H204	H	0.601648	0.144773	0.159046
C205	C	0.556409	0.189993	0.809599
C206	C	0.590592	0.155831	0.849849
H207	H	0.529975	0.216404	0.830609
H208	H	0.579998	0.210358	0.785449
H209	H	0.536063	0.166382	0.785448
H210	H	0.610941	0.179441	0.873997
H211	H	0.567000	0.135464	0.874009
H212	H	0.601676	0.144742	0.728702
