data_functionalizedCrystal
_audit_creation_method	'MofGen! by Chris Wilmer'
_symmetry_space_group_name_H-M	'P1'
_symmetry_Int_Tables_number	1
_symmetry_cell_setting	triclinic
loop_
_symmetry_equiv_pos_as_xyz
  x,y,z
_cell_length_a	12.759401
_cell_length_b	19.077068
_cell_length_c	12.759393
_cell_angle_alpha	87.738768
_cell_angle_beta	89.981504
_cell_angle_gamma	87.672919
loop_
_atom_site_label
_atom_site_type_symbol
_atom_site_fract_x
_atom_site_fract_y
_atom_site_fract_z
Zn1	Zn	1.589361	0.280156	-0.610733
Zn2	Zn	1.582157	0.397871	-0.442092
Zn3	Zn	1.413661	0.280192	-0.435075
Zn4	Zn	1.406557	0.397817	-0.617730
O5	O	1.497934	0.339009	-0.526408
O6	O	1.735426	0.295778	-0.588371
O7	O	1.559764	0.382299	-0.294142
O8	O	1.442956	0.181697	-0.452511
O9	O	1.730133	0.382263	-0.464471
O10	O	1.572043	0.181670	-0.581567
O11	O	1.435971	0.295841	-0.288987
O12	O	1.265698	0.295788	-0.459296
O13	O	1.430848	0.382171	-0.763821
O14	O	1.260479	0.382207	-0.593492
O15	O	1.565154	0.295726	-0.758680
O16	O	1.552875	0.496355	-0.471256
O17	O	1.423862	0.496315	-0.600297
C18	C	1.224968	0.338996	-0.526393
C19	C	1.108190	0.339007	-0.526412
C20	C	1.486845	0.521872	-0.537320
C21	C	1.482197	0.600102	-0.542023
C22	C	1.498012	0.338938	-0.800437
C23	C	1.498045	0.338908	-0.917212
C24	C	1.050634	0.384078	-0.596181
C25	C	0.940909	0.384086	-0.596193
C26	C	0.946308	0.293953	-0.456658
C27	C	1.056030	0.293941	-0.456652
C28	C	1.102793	0.429144	-0.665942
C29	C	1.045236	0.474218	-0.735716
C30	C	0.935512	0.474227	-0.735728
C31	C	0.883344	0.429161	-0.665966
C32	C	1.771967	0.339023	-0.526423
C33	C	1.888743	0.339028	-0.526430
C34	C	1.509096	0.155432	-0.515476
C35	C	1.513852	0.077202	-0.510817
C36	C	1.547235	0.636852	-0.477104
C37	C	1.542870	0.710357	-0.481534
C38	C	1.473460	0.747111	-0.550879
C39	C	1.408418	0.710356	-0.615805
C40	C	1.412790	0.636852	-0.611380
C41	C	1.453182	0.966943	-0.571318
C42	C	1.448813	1.040452	-0.575736
C43	C	1.583267	1.040448	-0.441466
C44	C	1.587627	0.966943	-0.437042
C45	C	1.522590	0.930195	-0.501972
N46	N	1.468994	0.822245	-0.555406
N47	N	1.527062	0.855062	-0.497450
C48	C	1.567988	0.293891	-0.969398
C49	C	1.568014	0.293866	-1.079121
C50	C	1.428152	0.383879	-1.084461
C51	C	1.428122	0.383901	-0.974740
C52	C	1.637911	0.248899	-0.911870
C53	C	1.707860	0.203879	-0.964057
C54	C	1.707887	0.203854	-1.073779
C55	C	1.637964	0.248848	-1.131315
C56	C	1.497920	0.339029	-0.253441
C57	C	1.498102	0.338861	-0.136655
H58	H	1.087719	0.510904	-0.792520
H59	H	1.764782	0.167242	-0.917203
H60	H	1.637900	0.248916	-0.822528
O61	O	1.360078	0.427536	-0.923997
C62	C	1.294649	0.387483	-0.858124
H63	H	1.291536	0.332041	-0.887886
H64	H	1.212250	0.412938	-0.858395
H65	H	1.327252	0.385081	-0.774824
O66	O	0.879482	0.518041	-0.803361
C67	C	0.813262	0.563468	-0.746147
H68	H	0.798295	0.538581	-0.665107
H69	H	0.735550	0.572943	-0.789490
H70	H	0.852390	0.615612	-0.737578
H71	H	0.793999	0.429166	-0.665989
O72	O	1.349562	0.601075	-0.674292
C73	C	1.284241	0.558639	-0.611869
H74	H	1.321987	0.547648	-0.531618
H75	H	1.273215	0.506936	-0.651543
H76	H	1.204700	0.587015	-0.601968
O77	O	1.775928	0.160100	-1.124311
C78	C	1.837613	0.120382	-1.050002
H79	H	1.839474	0.149229	-0.973504
H80	H	1.920856	0.112875	-1.081263
H81	H	1.802392	0.066927	-1.035150
O82	O	0.895750	0.250219	-0.388743
C83	C	0.921582	0.265529	-0.284906
H84	H	0.999613	0.292574	-0.284277
H85	H	0.928391	0.214698	-0.234885
H86	H	0.857632	0.301695	-0.251592
H87	H	1.371224	0.420511	-1.131315
H88	H	1.595830	0.740275	-0.428669
H89	H	1.351908	0.740287	-0.672271
H90	H	1.102895	0.257236	-0.399847
H91	H	1.603752	0.606931	-0.420632
O92	O	1.655155	0.931351	-0.369663
C93	C	1.711610	0.979551	-0.313296
H94	H	1.712104	1.031923	-0.359481
H95	H	1.795660	0.958274	-0.300889
H96	H	1.672718	0.987430	-0.233940
H97	H	1.636218	1.070377	-0.388605
H98	H	1.637980	0.248815	-1.220658
O99	O	1.381505	1.076127	-0.643255
C100	C	1.405474	1.058090	-0.746900
H101	H	1.490606	1.037831	-0.751053
H102	H	1.393533	1.106410	-0.801698
H103	H	1.351665	1.015445	-0.771761
O104	O	1.209375	0.429197	-0.665766
C105	C	1.244901	0.447165	-0.566088
H106	H	1.179796	0.477817	-0.524412
H107	H	1.316267	0.480913	-0.575528
H108	H	1.267366	0.397296	-0.517724
O109	O	1.390149	0.931224	-0.634493
C110	C	1.452448	0.888624	-0.699831
H111	H	1.533880	0.910720	-0.707724
H112	H	1.414451	0.887776	-0.780599
H113	H	1.459389	0.832930	-0.664008
