data_functionalizedCrystal
_audit_creation_method	'MofGen! by Chris Wilmer'
_symmetry_space_group_name_H-M	'P1'
_symmetry_Int_Tables_number	1
_symmetry_cell_setting	triclinic
loop_
_symmetry_equiv_pos_as_xyz
  x,y,z
_cell_length_a	14.044220
_cell_length_b	14.044220
_cell_length_c	12.503552
_cell_angle_alpha	93.839891
_cell_angle_beta	93.839943
_cell_angle_gamma	86.811122
loop_
_atom_site_label
_atom_site_type_symbol
_atom_site_fract_x
_atom_site_fract_y
_atom_site_fract_z
O1	O	0.225121	-1.282207	-0.089210
O2	O	0.725121	-0.782207	0.410790
O3	O	0.216814	-1.005537	-0.089237
O4	O	0.716814	-0.505537	0.410763
O5	O	0.082632	-1.139718	-0.089214
O6	O	0.582632	-0.639718	0.410786
O7	O	0.359303	-1.148025	-0.089234
O8	O	0.859303	-0.648025	0.410766
O9	O	0.092732	-1.129615	0.089427
O10	O	0.592732	-0.629615	0.589427
O11	O	0.226914	-0.995434	0.089403
O12	O	0.726914	-0.495434	0.589403
O13	O	0.235221	-1.272104	0.089430
O14	O	0.735221	-0.772104	0.589430
Cu15	Cu	0.231989	-1.132846	0.105728
Cu16	Cu	0.731989	-0.632846	0.605728
Cu17	Cu	0.220045	-1.144794	-0.105535
Cu18	Cu	0.720045	-0.644794	0.394465
O19	O	0.369402	-1.137922	0.089407
O20	O	0.869402	-0.637922	0.589407
C21	C	0.218228	-0.964864	0.000080
C22	C	0.718228	-0.464864	0.500080
C23	C	0.207383	-0.858721	0.000070
C24	C	0.707383	-0.358721	0.500070
C25	C	0.052060	-1.131031	0.000107
C26	C	0.552060	-0.631031	0.500107
C27	C	-0.054082	-1.120187	0.000107
C28	C	0.445918	-0.620187	0.500107
C29	C	0.233807	-1.312777	0.000111
C30	C	0.733807	-0.812777	0.500111
C31	C	0.244651	-1.418920	0.000114
C32	C	0.744651	-0.918920	0.500114
C33	C	-0.248421	-1.100361	0.000090
C34	C	0.251579	-0.600361	0.500090
C35	C	-0.299551	-1.177275	0.000094
C36	C	0.200449	-0.677275	0.500094
C37	C	-0.407687	-1.166244	0.000084
C38	C	0.092313	-0.666244	0.500084
C39	C	-0.140274	-1.111391	0.000099
C40	C	0.359726	-0.611391	0.500099
C41	C	0.399974	-1.146609	0.000084
C42	C	0.899974	-0.646609	0.500084
C43	C	0.506117	-1.157454	0.000077
C44	C	1.006117	-0.657454	0.500077
N45	N	0.240390	-1.124449	0.254319
N46	N	0.740390	-0.624449	0.754319
C47	C	0.187558	-0.664382	0.000092
C48	C	0.687558	-0.164382	0.500092
C49	C	0.264472	-0.613253	0.000091
C50	C	0.764472	-0.113253	0.500091
C51	C	0.253441	-0.505116	0.000104
C52	C	0.753441	-0.005116	0.500104
C53	C	0.198587	-0.772529	0.000080
C54	C	0.698587	-0.272529	0.500080
N55	N	0.211637	-1.153198	-0.254126
N56	N	0.711637	-0.653198	0.245874
C57	C	0.199276	-1.165545	0.526760
C58	C	0.699276	-0.665545	1.026760
C59	C	0.252749	-1.112106	0.473426
C60	C	0.752749	-0.612106	0.973426
C61	C	0.245871	-1.118975	0.351504
C62	C	0.745871	-0.618975	0.851504
C63	C	0.206153	-1.158676	0.648693
C64	C	0.706153	-0.658676	1.148693
H65	H	-0.262115	-1.251413	0.000029
H66	H	0.237885	-0.751413	0.500029
H67	H	0.303695	-1.061196	0.519333
H68	H	0.803695	-0.561196	1.019333
N69	N	0.362674	-0.662830	0.000053
N70	N	0.862674	-0.162830	0.500053
H71	H	0.402292	-0.640041	0.066268
H72	H	0.902292	-0.140041	0.566268
H73	H	0.356664	-0.734161	-0.000001
H74	H	0.856664	-0.234161	0.499999
N75	N	-0.298004	-1.002168	0.000079
N76	N	0.201996	-0.502168	0.500079
H77	H	-0.369344	-1.008108	0.000077
H78	H	0.130656	-0.508108	0.500077
H79	H	-0.275136	-0.962615	0.066305
H80	H	0.224864	-0.462615	0.566305
N81	N	0.089365	-0.614799	0.000112
N82	N	0.589365	-0.114799	0.500112
H83	H	0.095305	-0.543459	0.000120
H84	H	0.595305	-0.043459	0.500120
H85	H	0.049807	-0.637663	-0.066112
H86	H	0.549807	-0.137663	0.433888
H87	H	0.148334	-1.216452	0.480859
H88	H	0.648334	-0.716452	0.980859
