data_functionalizedCrystal
_audit_creation_method	'MofGen! by Chris Wilmer'
_symmetry_space_group_name_H-M	'P1'
_symmetry_Int_Tables_number	1
_symmetry_cell_setting	triclinic
loop_
_symmetry_equiv_pos_as_xyz
  x,y,z
_cell_length_a	23.532407
_cell_length_b	23.532407
_cell_length_c	22.010155
_cell_angle_alpha	90.000423
_cell_angle_beta	90.001992
_cell_angle_gamma	82.848674
loop_
_atom_site_label
_atom_site_type_symbol
_atom_site_fract_x
_atom_site_fract_y
_atom_site_fract_z
O1	O	-0.755264	-0.069127	-0.050440
O2	O	-0.421930	0.264207	0.282893
O3	O	-0.088597	0.597540	0.616226
O4	O	-0.589400	-0.079130	-0.050462
O5	O	-0.256067	0.254203	0.282871
O6	O	0.077266	0.587537	0.616204
O7	O	-0.677334	0.008803	-0.050439
O8	O	-0.344000	0.342137	0.282894
O9	O	-0.010667	0.675470	0.616227
O10	O	-0.667330	-0.157060	-0.050463
O11	O	-0.333997	0.176273	0.282870
O12	O	-0.000664	0.509607	0.616204
O13	O	-0.677318	0.008790	0.050611
O14	O	-0.343984	0.342123	0.383944
O15	O	-0.010651	0.675457	0.717278
O16	O	-0.589384	-0.079143	0.050588
O17	O	-0.256051	0.254190	0.383921
O18	O	0.077282	0.587523	0.717255
O19	O	-0.755248	-0.069140	0.050610
O20	O	-0.421914	0.264193	0.383943
O21	O	-0.088581	0.597527	0.717277
Cu22	Cu	-0.672315	-0.074143	0.059826
Cu23	Cu	-0.338981	0.259191	0.393159
Cu24	Cu	-0.005648	0.592524	0.726492
Cu25	Cu	-0.672333	-0.074127	-0.059678
Cu26	Cu	-0.339000	0.259206	0.273655
Cu27	Cu	-0.005667	0.592539	0.606989
O28	O	-0.667314	-0.157073	0.050587
O29	O	-0.333981	0.176260	0.383921
O30	O	-0.000648	0.509593	0.717254
C31	C	-0.568176	-0.078882	0.000060
C32	C	-0.234843	0.254451	0.333394
C33	C	0.098490	0.587785	0.666727
C34	C	-0.504959	-0.078116	0.000052
C35	C	-0.171626	0.255217	0.333386
C36	C	0.161707	0.588551	0.666719
C37	C	-0.677071	0.030013	0.000087
C38	C	-0.343738	0.363346	0.333421
C39	C	-0.010404	0.696679	0.666754
C40	C	-0.676305	0.093230	0.000092
C41	C	-0.342972	0.426563	0.333425
C42	C	-0.009638	0.759896	0.666758
N43	N	-0.672305	-0.074153	0.143878
N44	N	-0.338972	0.259180	0.477212
N45	N	-0.005639	0.592513	0.810545
C46	C	-0.105856	-0.125350	0.000065
C47	C	0.227477	0.207984	0.333398
C48	C	0.560810	0.541317	0.666732
C49	C	-0.046456	-0.124638	0.000068
C50	C	0.286877	0.208695	0.333401
C51	C	0.620211	0.542029	0.666734
O52	O	-0.009711	-0.168424	0.000083
O53	O	0.323622	0.164909	0.333416
O54	O	0.656955	0.498243	0.666750
N55	N	-0.023830	-0.072362	0.000074
N56	N	0.309504	0.260972	0.333407
N57	N	0.642837	0.594305	0.666740
C58	C	-0.060607	-0.020794	0.000083
C59	C	0.272726	0.312540	0.333416
C60	C	0.606059	0.645873	0.666750
O61	O	-0.035908	0.023737	0.000089
O62	O	0.297426	0.357070	0.333422
O63	O	0.630759	0.690404	0.666756
C64	C	-0.120006	-0.021506	0.000085
C65	C	0.213327	0.311828	0.333418
C66	C	0.546660	0.645161	0.666752
C67	C	-0.142629	-0.073785	0.000073
C68	C	0.190704	0.259548	0.333406
C69	C	0.524038	0.592881	0.666739
C70	C	-0.128479	-0.177625	0.000054
C71	C	0.204854	0.155708	0.333387
C72	C	0.538187	0.489042	0.666720
C73	C	-0.187876	-0.178336	0.000050
C74	C	0.145458	0.154997	0.333383
C75	C	0.478791	0.488330	0.666717
C76	C	-0.224649	-0.126772	0.000058
C77	C	0.108685	0.206561	0.333391
C78	C	0.442018	0.539895	0.666724
C79	C	-0.202025	-0.074496	0.000069
C80	C	0.131308	0.258837	0.333402
C81	C	0.464641	0.592170	0.666736
C82	C	-0.156783	0.030062	0.000099
C83	C	0.176550	0.363395	0.333432
C84	C	0.509884	0.696729	0.666765
C85	C	-0.216185	0.029345	0.000101
C86	C	0.117148	0.362679	0.333434
C87	C	0.450481	0.696012	0.666768
C88	C	-0.238808	-0.022934	0.000089
C89	C	0.094525	0.310399	0.333422
C90	C	0.427859	0.643732	0.666755
C91	C	-0.298194	-0.023643	0.000073
C92	C	0.035139	0.309690	0.333406
C93	C	0.368472	0.643023	0.666740
N94	N	-0.320820	-0.075920	0.000067
N95	N	0.012513	0.257414	0.333400
N96	N	0.345846	0.590747	0.666734
C97	C	-0.284048	-0.127484	0.000059
C98	C	0.049286	0.205849	0.333393
C99	C	0.382619	0.539183	0.666726
C100	C	0.064135	-0.019302	0.000081
C101	C	0.397468	0.314031	0.333414
C102	C	0.730802	0.647365	0.666747
C103	C	0.123533	-0.018589	0.000075
C104	C	0.456866	0.314744	0.333408
C105	C	0.790200	0.648077	0.666741
C106	C	0.137680	-0.122434	0.000060
C107	C	0.471014	0.210899	0.333394
C108	C	0.804347	0.544232	0.666727
C109	C	0.078281	-0.123146	0.000062
C110	C	0.411615	0.210187	0.333395
C111	C	0.744948	0.543520	0.666729
C112	C	0.041509	-0.071578	0.000075
C113	C	0.374842	0.261755	0.333408
C114	C	0.708176	0.595088	0.666741
C115	C	-0.408784	-0.128974	0.000051
C116	C	-0.075451	0.204360	0.333384
C117	C	0.257882	0.537693	0.666718
C118	C	-0.468186	-0.129680	0.000045
C119	C	-0.134853	0.203653	0.333378
C120	C	0.198480	0.536986	0.666711
C121	C	-0.482329	-0.025836	0.000062
C122	C	-0.148995	0.307497	0.333395
C123	C	0.184338	0.640831	0.666729
C124	C	-0.422932	-0.025129	0.000065
C125	C	-0.089598	0.308204	0.333399
C126	C	0.243735	0.641538	0.666732
C127	C	-0.386160	-0.076702	0.000062
C128	C	-0.052827	0.256631	0.333395
C129	C	0.280506	0.589964	0.666728
O130	O	-0.334974	0.020119	0.000060
O131	O	-0.001640	0.353453	0.333394
O132	O	0.331693	0.686786	0.666727
O133	O	-0.308755	-0.172007	0.000062
O134	O	0.024578	0.161326	0.333395
O135	O	0.357911	0.494660	0.666728
C136	C	0.223528	-0.069388	0.000081
C137	C	0.556862	0.263945	0.333415
C138	C	0.890195	0.597279	0.666748
C139	C	0.160311	-0.070154	0.000070
C140	C	0.493645	0.263179	0.333403
C141	C	0.826978	0.596513	0.666737
C142	C	-0.667577	-0.178283	0.000059
C143	C	-0.334244	0.155051	0.333393
C144	C	-0.000910	0.488384	0.666726
C145	C	-0.668343	-0.241500	0.000051
C146	C	-0.335010	0.091834	0.333384
C147	C	-0.001676	0.425167	0.666717
C148	C	-0.723539	0.492333	0.000065
C149	C	-0.390205	0.825666	0.333398
C150	C	-0.056872	1.159000	0.666731
C151	C	-0.722827	0.551733	0.000060
C152	C	-0.389494	0.885066	0.333393
C153	C	-0.056160	1.218400	0.666727
O154	O	-0.766613	0.588478	0.000043
O155	O	-0.433280	0.921811	0.333377
O156	O	-0.099946	1.255144	0.666710
N157	N	-0.670551	0.574359	0.000054
N158	N	-0.337217	0.907693	0.333387
N159	N	-0.003884	1.241026	0.666720
C160	C	-0.618983	0.537582	0.000046
C161	C	-0.285649	0.870915	0.333379
C162	C	0.047684	1.204248	0.666712
O163	O	-0.574452	0.562281	0.000039
O164	O	-0.241119	0.895615	0.333372
O165	O	0.092215	1.228948	0.666706
C166	C	-0.619695	0.478183	0.000046
C167	C	-0.286361	0.811516	0.333379
C168	C	0.046972	1.144849	0.666713
C169	C	-0.671974	0.455560	0.000059
C170	C	-0.338641	0.788893	0.333392
C171	C	-0.005308	1.122227	0.666725
C172	C	-0.775814	0.469710	0.000077
C173	C	-0.442481	0.803043	0.333410
C174	C	-0.109147	1.136376	0.666743
C175	C	-0.776525	0.410313	0.000083
C176	C	-0.443192	0.743647	0.333416
C177	C	-0.109859	1.076980	0.666749
C178	C	-0.724961	0.373541	0.000076
C179	C	-0.391628	0.706874	0.333410
C180	C	-0.058294	1.040207	0.666743
C181	C	-0.672685	0.396164	0.000064
C182	C	-0.339352	0.729497	0.333398
C183	C	-0.006019	1.062830	0.666731
C184	C	-0.568127	0.441406	0.000034
C185	C	-0.234794	0.774739	0.333367
C186	C	0.098540	1.108073	0.666700
C187	C	-0.568844	0.382004	0.000034
C188	C	-0.235510	0.715337	0.333367
C189	C	0.097823	1.048670	0.666700
C190	C	-0.621123	0.359381	0.000046
C191	C	-0.287790	0.692714	0.333380
C192	C	0.045543	1.026048	0.666713
C193	C	-0.621832	0.299995	0.000064
C194	C	-0.288499	0.633328	0.333397
C195	C	0.044834	0.966661	0.666731
N196	N	-0.674109	0.277369	0.000071
N197	N	-0.340775	0.610702	0.333404
N198	N	-0.007442	0.944035	0.666737
C199	C	-0.725673	0.314141	0.000077
C200	C	-0.392340	0.647475	0.333410
C201	C	-0.059006	0.980808	0.666743
C202	C	-0.617491	0.662324	0.000044
C203	C	-0.284158	0.995657	0.333377
C204	C	0.049176	1.328991	0.666710
C205	C	-0.616778	0.721722	0.000048
C206	C	-0.283445	1.055055	0.333381
C207	C	0.049888	1.388389	0.666714
C208	C	-0.720623	0.735869	0.000061
C209	C	-0.387290	1.069203	0.333394
C210	C	-0.053957	1.402536	0.666728
C211	C	-0.721335	0.676470	0.000061
C212	C	-0.388002	1.009804	0.333395
C213	C	-0.054669	1.343137	0.666728
C214	C	-0.669767	0.639698	0.000050
C215	C	-0.336434	0.973031	0.333384
C216	C	-0.003101	1.306365	0.666717
C217	C	-0.727163	0.189405	0.000090
C218	C	-0.393829	0.522738	0.333423
C219	C	-0.060496	0.856071	0.666756
C220	C	-0.727869	0.130003	0.000098
C221	C	-0.394536	0.463336	0.333431
C222	C	-0.061203	0.796669	0.666765
C223	C	-0.624025	0.115860	0.000081
C224	C	-0.290692	0.449194	0.333415
C225	C	0.042642	0.782527	0.666748
C226	C	-0.623318	0.175257	0.000076
C227	C	-0.289985	0.508591	0.333410
C228	C	0.043349	0.841924	0.666743
C229	C	-0.674891	0.212029	0.000078
C230	C	-0.341558	0.545362	0.333412
C231	C	-0.008225	0.878695	0.666745
O232	O	-0.578070	0.263215	0.000078
O233	O	-0.244736	0.596549	0.333412
O234	O	0.088597	0.929882	0.666745
O235	O	-0.770196	0.289434	0.000075
O236	O	-0.436863	0.622767	0.333409
O237	O	-0.103529	0.956100	0.666742
N238	N	-0.672347	-0.074112	-0.143730
N239	N	-0.339014	0.259221	0.189603
N240	N	-0.005680	0.592555	0.522936
C241	C	-0.711273	-0.035196	0.563668
C242	C	-0.377939	0.298137	0.897001
C243	C	-0.044606	0.631471	1.230334
C244	C	-0.711275	-0.035192	0.627275
C245	C	-0.377942	0.298141	0.960609
C246	C	-0.044609	0.631475	1.293942
O247	O	-0.744384	-0.002076	0.660175
O248	O	-0.411050	0.331257	0.993509
O249	O	-0.077717	0.664590	1.326842
N250	N	-0.672333	-0.074115	0.659085
N251	N	-0.339000	0.259218	0.992419
N252	N	-0.005667	0.592551	1.325752
C253	C	-0.633382	-0.113041	0.627284
C254	C	-0.300049	0.220292	0.960618
C255	C	0.033285	0.553625	1.293951
O256	O	-0.600259	-0.146148	0.660182
O257	O	-0.266925	0.187185	0.993515
O258	O	0.066408	0.520519	1.326849
C259	C	-0.633377	-0.113042	0.563678
C260	C	-0.300044	0.220291	0.897011
C261	C	0.033289	0.553625	1.230345
C262	C	-0.672326	-0.074120	0.531871
C263	C	-0.338992	0.259213	0.865205
C264	C	-0.005659	0.592547	1.198538
C265	C	-0.750217	0.003723	0.531861
C266	C	-0.416884	0.337057	0.865194
C267	C	-0.083551	0.670390	1.198528
C268	C	-0.750215	0.003719	0.468258
C269	C	-0.416882	0.337052	0.801591
C270	C	-0.083549	0.670385	1.134924
C271	C	-0.711268	-0.035205	0.436461
C272	C	-0.377935	0.298128	0.769795
C273	C	-0.044602	0.631461	1.103128
C274	C	-0.672324	-0.074125	0.468268
C275	C	-0.338990	0.259209	0.801601
C276	C	-0.005657	0.592542	1.134935
C277	C	-0.594424	-0.151965	0.531878
C278	C	-0.261091	0.181368	0.865212
C279	C	0.072243	0.514702	1.198545
C280	C	-0.594422	-0.151962	0.468268
C281	C	-0.261089	0.181371	0.801601
C282	C	0.072245	0.514705	1.134934
C283	C	-0.633370	-0.113040	0.436461
C284	C	-0.300037	0.220293	0.769794
C285	C	0.033296	0.553627	1.103127
C286	C	-0.633374	-0.113054	0.372868
C287	C	-0.300041	0.220280	0.706202
C288	C	0.033292	0.553613	1.039535
N289	N	-0.672317	-0.074130	0.341058
N290	N	-0.338983	0.259203	0.674392
N291	N	-0.005650	0.592536	1.007725
C292	C	-0.711263	-0.035206	0.372855
C293	C	-0.377930	0.298127	0.706188
C294	C	-0.044597	0.631461	1.039522
C295	C	-0.633395	-0.113036	0.760862
C296	C	-0.300061	0.220297	1.094196
C297	C	0.033272	0.553631	1.427529
C298	C	-0.633402	-0.113039	0.824468
C299	C	-0.300069	0.220295	1.157801
C300	C	0.033265	0.553628	1.491134
C301	C	-0.711294	-0.035188	0.824454
C302	C	-0.377961	0.298145	1.157787
C303	C	-0.044628	0.631478	1.491121
C304	C	-0.711290	-0.035189	0.760848
C305	C	-0.377956	0.298144	1.094181
C306	C	-0.044623	0.631478	1.427514
C307	C	-0.672337	-0.074113	0.729052
C308	C	-0.339003	0.259221	1.062386
C309	C	-0.005670	0.592554	1.395719
C310	C	-0.711256	-0.035219	0.239284
C311	C	-0.377923	0.298114	0.572617
C312	C	-0.044590	0.631447	0.905950
C313	C	-0.711252	-0.035229	0.175675
C314	C	-0.377919	0.298104	0.509008
C315	C	-0.044586	0.631437	0.842341
C316	C	-0.633358	-0.113077	0.175694
C317	C	-0.300025	0.220256	0.509027
C318	C	0.033309	0.553589	0.842360
C319	C	-0.633364	-0.113070	0.239297
C320	C	-0.300031	0.220264	0.572630
C321	C	0.033303	0.553597	0.905964
C322	C	-0.672315	-0.074136	0.271090
C323	C	-0.338982	0.259197	0.604424
C324	C	-0.005649	0.592531	0.937757
O325	O	-0.600282	-0.146151	0.339928
O326	O	-0.266948	0.187182	0.673261
O327	O	0.066385	0.520516	1.006595
O328	O	-0.744376	-0.002100	0.339950
O329	O	-0.411043	0.331233	0.673283
O330	O	-0.077710	0.664567	1.006616
H331	H	-0.486602	-0.172254	0.000034
H332	H	-0.153269	0.161079	0.333368
H333	H	0.180065	0.494412	0.666701
H334	H	-0.378851	-0.170970	0.000050
H335	H	-0.045518	0.162363	0.333383
H336	H	0.287815	0.495697	0.666717
H337	H	-0.762610	0.765821	0.000064
H338	H	-0.429276	1.099154	0.333397
H339	H	-0.095943	1.432488	0.666730
H340	H	-0.582043	0.085909	0.000079
H341	H	-0.248709	0.419243	0.333412
H342	H	0.084624	0.752576	0.666745
H343	H	-0.525555	0.459814	0.000020
H344	H	-0.192222	0.793148	0.333353
H345	H	0.141111	1.126481	0.666686
H346	H	0.167632	-0.164421	0.000057
H347	H	0.500965	0.168913	0.333390
H348	H	0.834299	0.502246	0.666724
H349	H	-0.819097	0.391900	0.000090
H350	H	-0.485763	0.725233	0.333424
H351	H	-0.152430	1.058567	0.666757
H352	H	0.034198	0.022693	0.000085
H353	H	0.367531	0.356027	0.333419
H354	H	0.700864	0.689360	0.666752
H355	H	-0.817806	0.499645	0.000080
H356	H	-0.484473	0.832978	0.333413
H357	H	-0.151140	1.166312	0.666746
H358	H	-0.742971	-0.003534	0.149780
H359	H	-0.409638	0.329799	0.483113
H360	H	-0.076304	0.663132	0.816446
H361	H	-0.138375	0.072634	0.000109
H362	H	0.194959	0.405967	0.333442
H363	H	0.528292	0.739300	0.666776
H364	H	-0.246123	0.071339	0.000112
H365	H	0.087210	0.404673	0.333445
H366	H	0.420543	0.738006	0.666778
H367	H	-0.404512	0.017441	0.000066
H368	H	-0.071178	0.350775	0.333399
H369	H	0.262155	0.684108	0.666733
H370	H	-0.763906	0.658056	0.000071
H371	H	-0.430573	0.991389	0.333405
H372	H	-0.097239	1.324722	0.666738
H373	H	-0.601654	-0.144769	0.265195
H374	H	-0.268321	0.188564	0.598528
H375	H	0.065013	0.521898	0.931861
H376	H	-0.512280	0.016146	0.000066
H377	H	-0.178946	0.349480	0.333399
H378	H	0.154387	0.682813	0.666733
H379	H	-0.574207	0.740136	0.000048
H380	H	-0.240874	1.073469	0.333381
H381	H	0.092460	1.406802	0.666715
H382	H	-0.575496	0.632387	0.000040
H383	H	-0.242162	0.965720	0.333373
H384	H	0.091171	1.299053	0.666707
H385	H	-0.098544	-0.219617	0.000050
H386	H	0.234789	0.113716	0.333383
H387	H	0.568123	0.447049	0.666716
H388	H	-0.742973	-0.003515	0.265163
H389	H	-0.409640	0.329818	0.598496
H390	H	-0.076307	0.663151	0.931829
H391	H	-0.770443	0.111587	0.000110
H392	H	-0.437110	0.444920	0.333443
H393	H	-0.103777	0.778254	0.666776
H394	H	-0.601650	-0.144771	0.149795
H395	H	-0.268316	0.188563	0.483129
H396	H	0.065017	0.521896	0.816462
H397	H	-0.526850	0.352066	0.000023
H398	H	-0.193516	0.685399	0.333357
H399	H	0.139817	1.018732	0.666690
H400	H	-0.206289	-0.220908	0.000040
H401	H	0.127044	0.112426	0.333373
H402	H	0.460378	0.445759	0.666707
H403	H	0.141947	0.023982	0.000075
H404	H	0.475280	0.357315	0.333408
H405	H	0.808613	0.690648	0.666741
H406	H	0.059867	-0.165717	0.000056
H407	H	0.393200	0.167616	0.333389
H408	H	0.726533	0.500950	0.666722
H409	H	-0.769159	0.219338	0.000089
H410	H	-0.435826	0.552671	0.333422
H411	H	-0.102492	0.886004	0.666756
H412	H	-0.580748	0.193677	0.000083
H413	H	-0.247414	0.527011	0.333416
H414	H	0.085919	0.860344	0.666749
H415	H	-0.781933	0.035423	0.557744
H416	H	-0.448599	0.368756	0.891077
H417	H	-0.115266	0.702089	1.224411
H418	H	-0.743004	-0.003495	0.734954
H419	H	-0.409671	0.329838	1.068288
H420	H	-0.076338	0.663172	1.401621
H421	H	-0.781929	0.035414	0.442364
H422	H	-0.448595	0.368747	0.775698
H423	H	-0.115262	0.702081	1.109031
H424	H	-0.743007	-0.003493	0.850354
H425	H	-0.409673	0.329840	1.183688
H426	H	-0.076340	0.663173	1.517021
H427	H	-0.601692	-0.144738	0.850360
H428	H	-0.268359	0.188595	1.183694
H429	H	0.064974	0.521928	1.517027
H430	H	-0.601676	-0.144737	0.734978
H431	H	-0.268343	0.188596	1.068311
H432	H	0.064991	0.521930	1.401644
H433	H	-0.562708	-0.183658	0.557767
H434	H	-0.229375	0.149675	0.891100
H435	H	0.103958	0.483008	1.224433
H436	H	-0.562700	-0.183658	0.442383
H437	H	-0.229367	0.149675	0.775716
H438	H	0.103967	0.483009	1.109049
