data_functionalizedCrystal
_audit_creation_method	'MofGen! by Chris Wilmer'
_symmetry_space_group_name_H-M	'P1'
_symmetry_Int_Tables_number	1
_symmetry_cell_setting	triclinic
loop_
_symmetry_equiv_pos_as_xyz
  x,y,z
_cell_length_a	12.759401
_cell_length_b	13.031981
_cell_length_c	12.759393
_cell_angle_alpha	97.216555
_cell_angle_beta	90.019676
_cell_angle_gamma	97.192388
loop_
_atom_site_label
_atom_site_type_symbol
_atom_site_fract_x
_atom_site_fract_y
_atom_site_fract_z
Zn1	Zn	1.553155	-0.416054	0.540808
Zn2	Zn	1.530731	-0.590867	0.342785
Zn3	Zn	1.377447	-0.416107	0.365140
Zn4	Zn	1.355140	-0.590791	0.518436
O5	O	1.454118	-0.503455	0.441792
O6	O	1.697200	-0.439254	0.514547
O7	O	1.510348	-0.567738	0.198722
O8	O	1.419476	-0.269834	0.407162
O9	O	1.680725	-0.567688	0.369060
O10	O	1.548567	-0.269796	0.536224
O11	O	1.397731	-0.439343	0.215147
O12	O	1.227468	-0.439269	0.385468
O13	O	1.381456	-0.567558	0.668431
O14	O	1.211079	-0.567608	0.498094
O15	O	1.526937	-0.439180	0.684868
O16	O	1.488718	-0.737122	0.347366
O17	O	1.359712	-0.737066	0.476416
C18	C	1.181153	-0.503437	0.441780
C19	C	1.064374	-0.503454	0.441796
C20	C	1.018076	-0.436699	0.517639
C21	C	0.908351	-0.436710	0.517645
C22	C	0.891230	-0.570239	0.365960
C23	C	1.000954	-0.570222	0.365951
C24	C	0.774158	-0.313509	0.571160
C25	C	0.727855	-0.246763	0.647018
C26	C	0.765547	-0.230833	0.751593
C27	C	0.849539	-0.281663	0.780328
C28	C	0.895835	-0.348417	0.704474
C29	C	0.858147	-0.364327	0.599887
C30	C	1.135148	-0.693425	0.312446
C31	C	1.181446	-0.760184	0.236596
C32	C	1.143755	-0.776125	0.132018
C33	C	1.059757	-0.725313	0.103285
C34	C	1.013460	-0.658554	0.179135
C35	C	1.051159	-0.642611	0.283711
C36	C	1.419389	-0.775019	0.407061
C37	C	1.404628	-0.891196	0.392238
C38	C	1.461878	-0.942888	0.449549
C39	C	1.446623	-1.062963	0.434230
C40	C	1.728149	-0.503473	0.441805
C41	C	1.844925	-0.503481	0.441811
C42	C	1.454210	-0.503354	0.715838
C43	C	1.454249	-0.503312	0.832621
C44	C	1.489011	-0.230830	0.476682
C45	C	1.503881	-0.114653	0.491550
C46	C	1.454097	-0.503479	0.168822
C47	C	1.454299	-0.503227	0.052078
C48	C	1.530007	-0.436454	0.896044
C49	C	1.530030	-0.436409	1.005774
C50	C	1.378533	-0.570087	0.988646
C51	C	1.378506	-0.570126	0.878919
C52	C	1.583385	-0.313091	1.171513
C53	C	1.659158	-0.246243	1.234939
C54	C	1.763717	-0.230217	1.201394
C55	C	1.792521	-0.281054	1.104422
C56	C	1.716752	-0.347910	1.041001
C57	C	1.612181	-0.363916	1.074547
C58	C	1.325162	-0.693447	0.713178
C59	C	1.249397	-0.760308	0.649753
C60	C	1.144835	-0.776345	0.683295
C61	C	1.116033	-0.725526	0.780268
C62	C	1.191798	-0.658664	0.843692
C63	C	1.296359	-0.642626	0.810143
H64	H	1.181436	-0.830516	0.070269
C65	C	0.988220	-0.404325	0.736064
H66	H	1.010394	-0.446360	0.675910
H67	H	1.045405	-0.354024	0.762804
H68	H	0.965851	-0.447096	0.788961
C69	C	0.921067	-0.602653	0.147533
H70	H	0.898889	-0.560618	0.207686
H71	H	0.943426	-0.559900	0.094625
H72	H	0.863875	-0.652963	0.120810
H73	H	1.522182	-0.898252	0.509962
H74	H	1.030891	-0.738587	0.807581
C75	C	1.585359	-1.054372	0.573162
H76	H	1.619293	-1.102376	0.607136
H77	H	1.636529	-1.011773	0.538410
H78	H	1.550511	-1.011787	0.624305
C79	C	1.440182	-0.675807	0.676278
H80	H	1.446487	-0.715662	0.609449
H81	H	1.459343	-0.603959	0.670412
H82	H	1.485676	-0.696943	0.726205
C83	C	1.323156	-0.951488	0.310632
H84	H	1.323595	-1.024283	0.311037
H85	H	1.254802	-0.933697	0.328197
H86	H	1.340822	-0.933691	0.242305
C87	C	1.018287	-0.742843	-0.011748
H88	H	0.961625	-0.703026	-0.017994
H89	H	1.073590	-0.721632	-0.057200
H90	H	0.994041	-0.814695	-0.031011
C91	C	0.821464	-0.643688	0.282545
H92	H	0.749484	-0.634146	0.293419
H93	H	0.841377	-0.628308	0.213944
H94	H	0.830481	-0.713934	0.288828
H95	H	1.249853	-0.801544	0.259996
H96	H	1.386307	-1.107597	0.373824
C97	C	1.176611	-0.675885	0.427484
H98	H	1.137016	-0.628839	0.468539
H99	H	1.169421	-0.740517	0.455534
H100	H	1.248977	-0.647458	0.429349
H101	H	1.591679	-0.382047	0.858352
H102	H	1.740204	-0.389304	0.962051
H103	H	1.877666	-0.268008	1.077122
C104	C	1.847063	-0.156682	1.271158
H105	H	1.814934	-0.128699	1.333709
H106	H	1.901995	-0.194474	1.289298
H107	H	1.875662	-0.101488	1.233508
C108	C	1.061496	-0.849896	0.613530
H109	H	1.093620	-0.877869	0.550972
H110	H	1.032895	-0.905082	0.651179
H111	H	1.006563	-0.812098	0.595386
H112	H	1.635696	-0.204851	1.313894
H113	H	1.498244	-0.326125	1.198831
H114	H	1.316868	-0.624488	1.026355
H115	H	1.168339	-0.617285	0.922653
H116	H	1.272860	-0.801697	0.570798
H117	H	1.069710	-0.382329	0.579394
H118	H	0.880214	-0.268696	0.865487
H119	H	0.659469	-0.205377	0.623612
C120	C	0.714620	-0.157410	0.835032
H121	H	0.659207	-0.129417	0.802941
H122	H	0.686840	-0.195279	0.889894
H123	H	0.766399	-0.102218	0.863720
H124	H	0.743470	-0.326462	0.486005
