data_functionalizedCrystal
_audit_creation_method	'MofGen! by Chris Wilmer'
_symmetry_space_group_name_H-M	'P1'
_symmetry_Int_Tables_number	1
_symmetry_cell_setting	triclinic
loop_
_symmetry_equiv_pos_as_xyz
  x,y,z
_cell_length_a	17.699077
_cell_length_b	14.519731
_cell_length_c	16.176319
_cell_angle_alpha	89.992219
_cell_angle_beta	89.993140
_cell_angle_gamma	83.484715
loop_
_atom_site_label
_atom_site_type_symbol
_atom_site_fract_x
_atom_site_fract_y
_atom_site_fract_z
O1	O	1.004423	0.116597	-0.068737
O2	O	1.254423	0.366597	0.181263
O3	O	1.504423	0.616597	0.431263
O4	O	1.754423	0.866597	0.681263
O5	O	0.784088	0.131776	-0.068742
O6	O	1.034088	0.381776	0.181258
O7	O	1.284088	0.631776	0.431258
O8	O	1.534088	0.881776	0.681258
O9	O	0.900089	-0.010076	-0.068732
O10	O	1.150089	0.239924	0.181268
O11	O	1.400089	0.489924	0.431268
O12	O	1.650089	0.739924	0.681268
O13	O	0.888422	0.258448	-0.068747
O14	O	1.138422	0.508448	0.181253
O15	O	1.388422	0.758448	0.431253
O16	O	1.638422	1.008448	0.681253
O17	O	0.900073	-0.010085	0.068761
O18	O	1.150073	0.239915	0.318761
O19	O	1.400073	0.489915	0.568761
O20	O	1.650073	0.739915	0.818761
O21	O	0.784072	0.131767	0.068751
O22	O	1.034072	0.381767	0.318751
O23	O	1.284072	0.631767	0.568751
O24	O	1.534072	0.881767	0.818751
O25	O	1.004407	0.116588	0.068756
O26	O	1.254407	0.366588	0.318756
O27	O	1.504407	0.616588	0.568756
O28	O	1.754407	0.866588	0.818756
Cu29	Cu	0.894238	0.124177	0.081308
Cu30	Cu	1.144238	0.374177	0.331308
Cu31	Cu	1.394238	0.624177	0.581308
Cu32	Cu	1.644238	0.874177	0.831308
Cu33	Cu	0.894257	0.124187	-0.081294
Cu34	Cu	1.144257	0.374187	0.168706
Cu35	Cu	1.394257	0.624187	0.418706
Cu36	Cu	1.644257	0.874187	0.668706
O37	O	0.888406	0.258439	0.068746
O38	O	1.138406	0.508439	0.318746
O39	O	1.388406	0.758439	0.568746
O40	O	1.638406	1.008439	0.818746
C41	C	0.755881	0.131228	0.000004
C42	C	1.005881	0.381228	0.250004
C43	C	1.255881	0.631228	0.500004
C44	C	1.505881	0.881228	0.750004
C45	C	0.671858	0.129599	0.000003
C46	C	0.921858	0.379599	0.250003
C47	C	1.171858	0.629599	0.500003
C48	C	1.421858	0.879599	0.750003
C49	C	0.632380	0.128827	0.074951
C50	C	0.882380	0.378827	0.324951
C51	C	1.132380	0.628827	0.574951
C52	C	1.382380	0.878827	0.824951
C53	C	0.553433	0.127282	0.074952
C54	C	0.803433	0.377282	0.324952
C55	C	1.053433	0.627282	0.574952
C56	C	1.303433	0.877282	0.824952
C57	C	0.513965	0.126516	0.000004
C58	C	0.763965	0.376516	0.250004
C59	C	1.013965	0.626516	0.500004
C60	C	1.263965	0.876516	0.750004
C61	C	0.553449	0.127285	-0.074950
C62	C	0.803449	0.377285	0.175050
C63	C	1.053449	0.627285	0.425050
C64	C	1.303449	0.877285	0.675050
C65	C	0.632395	0.128824	-0.074950
C66	C	0.882395	0.378824	0.175050
C67	C	1.132395	0.628824	0.425050
C68	C	1.382395	0.878824	0.675050
C69	C	0.235068	0.121079	-0.074951
C70	C	0.485068	0.371079	0.175049
C71	C	0.735068	0.621079	0.425049
C72	C	0.985068	0.871079	0.675049
C73	C	0.156116	0.119543	-0.074946
C74	C	0.406116	0.369543	0.175054
C75	C	0.656116	0.619543	0.425054
C76	C	0.906116	0.869543	0.675054
C77	C	0.156105	0.119537	0.074951
C78	C	0.406105	0.369537	0.324951
C79	C	0.656105	0.619537	0.574951
C80	C	0.906105	0.869537	0.824951
C81	C	0.235052	0.121076	0.074951
C82	C	0.485052	0.371076	0.324951
C83	C	0.735052	0.621076	0.574951
C84	C	0.985052	0.871076	0.824951
C85	C	0.274529	0.121840	-0.000002
C86	C	0.524529	0.371840	0.249998
C87	C	0.774529	0.621840	0.499998
C88	C	1.024529	0.871840	0.749998
C89	C	0.360133	0.123514	-0.000003
C90	C	0.610133	0.373514	0.249997
C91	C	0.860133	0.623514	0.499997
C92	C	1.110133	0.873514	0.749997
C93	C	0.428362	0.124849	0.000003
C94	C	0.678362	0.374849	0.250003
C95	C	0.928362	0.624849	0.500003
C96	C	1.178362	0.874849	0.750003
C97	C	0.899534	-0.044437	0.000015
C98	C	1.149534	0.205563	0.250015
C99	C	1.399534	0.455563	0.500015
C100	C	1.649534	0.705563	0.750015
C101	C	0.897896	-0.146811	0.000015
C102	C	1.147896	0.103189	0.250015
C103	C	1.397896	0.353189	0.500015
C104	C	1.647896	0.603189	0.750015
C105	C	0.896565	-0.229949	0.000013
C106	C	1.146565	0.020051	0.250013
C107	C	1.396565	0.270051	0.500013
C108	C	1.646565	0.520051	0.750013
C109	C	0.894902	-0.334251	0.000007
C110	C	1.144902	-0.084251	0.250007
C111	C	1.394902	0.165749	0.500007
C112	C	1.644902	0.415749	0.750007
C113	C	0.893582	-0.417384	0.000002
C114	C	1.143582	-0.167384	0.250002
C115	C	1.393582	0.082616	0.500002
C116	C	1.643582	0.332616	0.750002
C117	C	0.891919	-0.521692	-0.000003
C118	C	1.141919	-0.271692	0.249997
C119	C	1.391919	-0.021692	0.499997
C120	C	1.641919	0.228308	0.749997
C121	C	1.032613	0.117136	0.000008
C122	C	1.282613	0.367136	0.250008
C123	C	1.532613	0.617136	0.500008
C124	C	1.782613	0.867136	0.750008
C125	C	1.116636	0.118764	0.000004
C126	C	1.366636	0.368764	0.250004
C127	C	1.616636	0.618764	0.500004
C128	C	1.866636	0.868764	0.750004
C129	C	0.888961	0.292801	-0.000003
C130	C	1.138961	0.542801	0.249997
C131	C	1.388961	0.792801	0.499997
C132	C	1.638961	1.042801	0.749997
C133	C	0.890599	0.395174	-0.000008
C134	C	1.140599	0.645174	0.249992
C135	C	1.390599	0.895174	0.499992
C136	C	1.640599	1.145174	0.749992
N137	N	0.894230	0.124168	0.195673
N138	N	1.144230	0.374168	0.445673
N139	N	1.394230	0.624168	0.695673
N140	N	1.644230	0.874168	0.945673
N141	N	0.894271	0.124188	-0.195659
N142	N	1.144271	0.374188	0.054341
N143	N	1.394271	0.624188	0.304341
N144	N	1.644271	0.874188	0.554341
C145	C	0.945611	0.061382	0.238942
C146	C	1.195611	0.311382	0.488942
C147	C	1.445611	0.561382	0.738942
C148	C	1.695611	0.811382	0.988942
C149	C	0.945615	0.061381	0.325489
C150	C	1.195615	0.311381	0.575489
C151	C	1.445615	0.561381	0.825489
C152	C	1.695615	0.811381	1.075489
C153	C	0.894241	0.124172	0.368766
C154	C	1.144241	0.374172	0.618766
C155	C	1.394241	0.624172	0.868766
C156	C	1.644241	0.874172	1.118766
C157	C	0.842855	0.186961	0.325491
C158	C	1.092855	0.436961	0.575491
C159	C	1.342855	0.686961	0.825491
C160	C	1.592855	0.936961	1.075491
C161	C	0.842848	0.186957	0.238946
C162	C	1.092848	0.436957	0.488946
C163	C	1.342848	0.686957	0.738946
C164	C	1.592848	0.936957	0.988946
C165	C	0.842881	0.186978	0.674519
C166	C	1.092881	0.436978	0.924519
C167	C	1.342881	0.686978	1.174519
C168	C	1.592881	0.936978	1.424519
C169	C	0.842893	0.186979	0.761071
C170	C	1.092893	0.436979	1.011071
C171	C	1.342893	0.686979	1.261071
C172	C	1.592893	0.936979	1.511071
C173	C	0.945648	0.061403	0.761062
C174	C	1.195648	0.311403	1.011062
C175	C	1.445648	0.561403	1.261062
C176	C	1.695648	0.811403	1.511062
C177	C	0.945641	0.061399	0.674517
C178	C	1.195641	0.311399	0.924517
C179	C	1.445641	0.561399	1.174517
C180	C	1.695641	0.811399	1.424517
C181	C	0.894252	0.124184	0.631250
C182	C	1.144252	0.374184	0.881250
C183	C	1.394252	0.624184	1.131250
C184	C	1.644252	0.874184	1.381250
C185	C	0.894248	0.124183	0.537406
C186	C	1.144248	0.374183	0.787406
C187	C	1.394248	0.624183	1.037406
C188	C	1.644248	0.874183	1.287406
C189	C	0.894248	0.124178	0.462608
C190	C	1.144248	0.374178	0.712608
C191	C	1.394248	0.624178	0.962608
C192	C	1.644248	0.874178	1.212608
H193	H	0.664538	0.129455	-0.135981
H194	H	0.914538	0.379455	0.114019
H195	H	1.164538	0.629455	0.364019
H196	H	1.414538	0.879455	0.614019
H197	H	0.801055	0.238113	0.796306
H198	H	1.051055	0.488113	1.046306
H199	H	1.301055	0.738113	1.296306
H200	H	1.551055	0.988113	1.546306
F201	F	0.114113	0.118727	-0.154720
F202	F	0.364113	0.368727	0.095280
F203	F	0.614113	0.618727	0.345280
F204	F	0.864113	0.868727	0.595280
F205	F	0.788174	0.253784	0.371550
F206	F	1.038174	0.503784	0.621550
F207	F	1.288174	0.753784	0.871550
F208	F	1.538174	1.003784	1.121550
H209	H	0.123953	0.118910	0.135982
H210	H	0.373953	0.368910	0.385982
H211	H	0.623953	0.618910	0.635982
H212	H	0.873953	0.868910	0.885982
F213	F	0.277073	0.121894	-0.154724
F214	F	0.527073	0.371894	0.095276
F215	F	0.777073	0.621894	0.345276
F216	F	1.027073	0.871894	0.595276
H217	H	0.987476	0.010272	0.639283
H218	H	1.237476	0.260272	0.889283
H219	H	1.487476	0.510272	1.139283
H220	H	1.737476	0.760272	1.389283
F221	F	1.000295	-0.005445	0.192891
F222	F	1.250295	0.244555	0.442891
F223	F	1.500295	0.494555	0.692891
F224	F	1.750295	0.744555	0.942891
F225	F	1.000338	-0.005423	0.807117
F226	F	1.250338	0.244577	1.057117
F227	F	1.500338	0.494577	1.307117
F228	F	1.750338	0.744577	1.557117
F229	F	1.000299	-0.005444	0.371539
F230	F	1.250299	0.244556	0.621539
F231	F	1.500299	0.494556	0.871539
F232	F	1.750299	0.744556	1.121539
H233	H	0.801040	0.238102	0.639298
H234	H	1.051040	0.488102	0.889298
H235	H	1.301040	0.738102	1.139298
H236	H	1.551040	0.988102	1.389298
H237	H	0.521309	0.126655	-0.135974
H238	H	0.771309	0.376655	0.114026
H239	H	1.021309	0.626655	0.364026
H240	H	1.271309	0.876655	0.614026
H241	H	0.801008	0.238082	0.203717
H242	H	1.051008	0.488082	0.453717
H243	H	1.301008	0.738082	0.703717
H244	H	1.551008	0.988082	0.953717
H245	H	0.664508	0.129458	0.135983
H246	H	0.914508	0.379458	0.385983
H247	H	1.164508	0.629458	0.635983
H248	H	1.414508	0.879458	0.885983
H249	H	0.267182	0.121704	0.135982
H250	H	0.517182	0.371704	0.385982
H251	H	0.767182	0.621704	0.635982
H252	H	1.017182	0.871704	0.885982
F253	F	0.511419	0.126472	0.154723
F254	F	0.761419	0.376472	0.404723
F255	F	1.011419	0.626472	0.654723
F256	F	1.261419	0.876472	0.904723
