data_functionalizedCrystal
_audit_creation_method	'MofGen! by Chris Wilmer'
_symmetry_space_group_name_H-M	'P1'
_symmetry_Int_Tables_number	1
_symmetry_cell_setting	triclinic
loop_
_symmetry_equiv_pos_as_xyz
  x,y,z
_cell_length_a	17.019284
_cell_length_b	17.019372
_cell_length_c	12.996460
_cell_angle_alpha	93.870834
_cell_angle_beta	86.123548
_cell_angle_gamma	96.872923
loop_
_atom_site_label
_atom_site_type_symbol
_atom_site_fract_x
_atom_site_fract_y
_atom_site_fract_z
O1	O	-0.100470	1.046549	0.015994
O2	O	-0.113292	0.816872	-0.003204
O3	O	0.007959	0.938122	-0.003214
O4	O	-0.221721	0.925298	0.016003
O5	O	0.007965	0.938110	0.167918
O6	O	-0.113286	0.816859	0.167928
O7	O	-0.100464	1.046536	0.187126
Cu8	Cu	-0.106874	0.931696	0.193153
Cu9	Cu	-0.106882	0.931711	-0.009231
O10	O	-0.221715	0.925285	0.187135
C11	C	-0.112804	0.787477	0.079717
C12	C	-0.111349	0.699910	0.071834
C13	C	-0.103094	0.204651	0.022504
C14	C	-0.104461	0.286929	0.029924
C15	C	-0.105147	0.328053	0.126920
C16	C	-0.104458	0.286895	0.216500
C17	C	-0.103085	0.204618	0.209079
C18	C	-0.109287	0.576475	0.153994
C19	C	-0.110662	0.658757	0.161409
C20	C	-0.110664	0.658786	-0.025169
C21	C	-0.109296	0.576507	-0.032581
C22	C	-0.108602	0.535357	0.056999
C23	C	-0.106547	0.412155	0.134507
C24	C	-0.107197	0.451257	0.049411
C25	C	-0.251106	0.925776	0.104216
C26	C	-0.338675	0.927230	0.112105
C27	C	-0.379816	0.927921	0.022526
C28	C	-0.462094	0.929297	0.029938
C29	C	-0.503231	0.929976	0.126930
C30	C	-0.462085	0.929288	0.216516
C31	C	-0.379807	0.927918	0.209103
C32	C	-0.751657	0.934119	0.153981
C33	C	-0.833940	0.935487	0.161387
C34	C	-0.833944	0.935497	-0.025192
C35	C	-0.751665	0.934122	-0.032597
C36	C	-0.710525	0.933438	0.056990
C37	C	-0.587334	0.931381	0.134510
C38	C	-0.626424	0.932039	0.049410
C39	C	0.037350	0.937631	0.079703
C40	C	0.124919	0.936178	0.071808
C41	C	-0.100952	1.075930	0.104203
C42	C	-0.102407	1.163498	0.112078
N43	N	-0.106868	0.931692	0.335499
N44	N	-0.106882	0.931722	-0.151577
C45	C	-0.106883	0.931710	0.755316
C46	C	-0.106881	0.931703	0.638510
C47	C	-0.106876	0.931701	0.545411
C48	C	-0.106873	0.931693	0.428598
H49	H	-0.111228	0.692300	-0.098100
H50	H	-0.867449	0.936055	-0.098127
Cl51	Cl	-0.108436	0.524751	0.266612
H52	H	-0.346328	0.927360	-0.056456
H53	H	-0.867435	0.936017	0.240372
H54	H	-0.620837	0.931932	0.213481
Cl55	Cl	-0.105321	0.338661	-0.082690
Cl56	Cl	-0.105318	0.338594	0.338438
H57	H	-0.495587	0.929860	-0.043006
H58	H	-0.102541	0.171173	-0.056480
Cl59	Cl	-0.699956	0.933269	-0.154534
Cl60	Cl	-0.699949	0.933251	0.266604
H61	H	-0.346311	0.927355	0.282048
Cl62	Cl	-0.108435	0.524815	-0.154523
Cl63	Cl	-0.111523	0.710455	0.283355
H64	H	-0.102534	0.171112	0.282021
H65	H	-0.107107	0.445647	0.213481
H66	H	-0.106635	0.417771	-0.029562
H67	H	-0.495585	0.929847	0.295490
H68	H	-0.592926	0.931490	-0.029560
