data_functionalizedCrystal
_audit_creation_method	'MofGen! by Chris Wilmer'
_symmetry_space_group_name_H-M	'P1'
_symmetry_Int_Tables_number	1
_symmetry_cell_setting	triclinic
loop_
_symmetry_equiv_pos_as_xyz
  x,y,z
_cell_length_a	17.019365
_cell_length_b	11.792241
_cell_length_c	10.268362
_cell_angle_alpha	90.005428
_cell_angle_beta	86.119472
_cell_angle_gamma	96.207932
loop_
_atom_site_label
_atom_site_type_symbol
_atom_site_fract_x
_atom_site_fract_y
_atom_site_fract_z
O1	O	1.047294	-0.144581	-0.225637
O2	O	1.380627	0.188752	0.107696
O3	O	1.713960	0.522085	0.441030
O4	O	0.817708	-0.163023	-0.199918
O5	O	1.151042	0.170310	0.133416
O6	O	1.484375	0.503644	0.466749
O7	O	0.938072	0.011427	-0.213392
O8	O	1.271406	0.344760	0.119941
O9	O	1.604739	0.678093	0.453274
O10	O	0.926930	-0.319031	-0.212162
O11	O	1.260263	0.014302	0.121171
O12	O	1.593596	0.347635	0.454504
O13	O	0.938062	0.011434	0.003209
O14	O	1.271395	0.344767	0.336543
O15	O	1.604728	0.678101	0.669876
O16	O	0.817698	-0.163016	0.016684
O17	O	1.151031	0.170317	0.350018
O18	O	1.484364	0.503651	0.683351
O19	O	1.047283	-0.144574	-0.009035
O20	O	1.380616	0.188759	0.324298
O21	O	1.713950	0.522092	0.657631
Cu22	Cu	0.932489	-0.153794	0.023602
Cu23	Cu	1.265823	0.179539	0.356935
Cu24	Cu	1.599156	0.512872	0.690269
Cu25	Cu	0.932502	-0.153803	-0.232555
Cu26	Cu	1.265835	0.179530	0.100778
Cu27	Cu	1.599169	0.512864	0.434112
O28	O	0.926919	-0.319024	0.004439
O29	O	1.260252	0.014309	0.337773
O30	O	1.593586	0.347643	0.671106
C31	C	0.788311	-0.162321	-0.088324
C32	C	1.121644	0.171013	0.245009
C33	C	1.454978	0.504346	0.578343
C34	C	0.700732	-0.160225	-0.078513
C35	C	1.034066	0.173108	0.254821
C36	C	1.367399	0.506442	0.588154
C37	C	0.937367	0.053714	-0.105014
C38	C	1.270700	0.387047	0.228320
C39	C	1.604034	0.720381	0.561653
C40	C	0.935272	0.179706	-0.104780
C41	C	1.268605	0.513039	0.228553
C42	C	1.601939	0.846372	0.561887
C43	C	1.076680	-0.145277	-0.120632
C44	C	1.410014	0.188057	0.212701
C45	C	1.743347	0.521390	0.546035
C46	C	1.164259	-0.147372	-0.130452
C47	C	1.497592	0.185961	0.202882
C48	C	1.830926	0.519294	0.536215
C49	C	1.205405	-0.148352	-0.017001
C50	C	1.538739	0.184982	0.316332
C51	C	1.872072	0.518315	0.649665
C52	C	1.287694	-0.150330	-0.026239
C53	C	1.621028	0.183003	0.307094
C54	C	1.954361	0.516336	0.640427
C55	C	1.328836	-0.151321	-0.148929
C56	C	1.662169	0.182012	0.184404
C57	C	1.995503	0.515345	0.517738
C58	C	1.287684	-0.150345	-0.262388
C59	C	1.621017	0.182988	0.070945
C60	C	1.954350	0.516321	0.404279
C61	C	1.205396	-0.148375	-0.253149
C62	C	1.538729	0.184959	0.080185
C63	C	1.872062	0.518292	0.413518
C64	C	1.577292	-0.157278	-0.182732
C65	C	1.910625	0.176055	0.150601
C66	C	2.243959	0.509388	0.483934
C67	C	1.659586	-0.159246	-0.191963
C68	C	1.992919	0.174088	0.141370
C69	C	2.326253	0.507421	0.474704
C70	C	1.659591	-0.159233	0.044187
C71	C	1.992924	0.174101	0.377520
C72	C	2.326257	0.507434	0.710853
C73	C	1.577302	-0.157255	0.053415
C74	C	1.910635	0.176078	0.386748
C75	C	2.243968	0.509411	0.720082
C76	C	1.536156	-0.156285	-0.060044
C77	C	1.869489	0.177048	0.273290
C78	C	2.202823	0.510381	0.606623
C79	C	1.412949	-0.153340	-0.158375
C80	C	1.746282	0.179993	0.174959
C81	C	2.079615	0.513326	0.508292
C82	C	1.452044	-0.154275	-0.050597
C83	C	1.785377	0.179059	0.282737
C84	C	2.118711	0.512392	0.616070
C85	C	0.927624	-0.361311	-0.103942
C86	C	1.260958	-0.027978	0.229391
C87	C	1.594291	0.305355	0.562724
C88	C	0.929719	-0.487303	-0.104184
C89	C	1.263053	-0.153970	0.229149
C90	C	1.596386	0.179364	0.562482
N91	N	0.932486	-0.153788	0.203768
N92	N	1.265820	0.179545	0.537101
N93	N	1.599153	0.512879	0.870435
C94	C	0.931420	0.410377	-0.104370
C95	C	1.264753	0.743711	0.228963
C96	C	1.598086	1.077044	0.562296
C97	C	0.933560	0.282015	-0.104598
C98	C	1.266894	0.615348	0.228735
C99	C	1.600227	0.948681	0.562068
N100	N	0.932511	-0.153801	-0.412722
N101	N	1.265844	0.179533	-0.079388
N102	N	1.599178	0.512866	0.253945
C103	C	0.932498	-0.153801	0.469437
C104	C	1.265831	0.179533	0.802771
C105	C	1.599165	0.512866	1.136104
C106	C	0.932489	-0.153797	0.321600
C107	C	1.265822	0.179536	0.654934
C108	C	1.599156	0.512870	0.988267
H109	H	1.171913	-0.147550	0.082906
H110	H	1.505247	0.185784	0.416239
H111	H	1.838580	0.519117	0.749573
H112	H	1.321187	-0.151159	-0.362285
H113	H	1.654521	0.182174	-0.028951
H114	H	1.987854	0.515508	0.304382
C115	C	1.406786	-0.153183	0.084358
C116	C	1.740119	0.180150	0.417692
C117	C	2.073452	0.513483	0.751025
N118	N	1.372691	-0.152355	0.186007
N119	N	1.706024	0.180978	0.519340
N120	N	2.039357	0.514312	0.852674
H121	H	1.543812	-0.156424	0.153322
H122	H	1.877145	0.176910	0.486655
H123	H	2.210478	0.510243	0.819988
H124	H	1.693100	-0.160025	0.136558
H125	H	2.026433	0.173308	0.469892
H126	H	2.359767	0.506642	0.803225
H127	H	1.543801	-0.156485	-0.275119
H128	H	1.877135	0.176849	0.058214
H129	H	2.210468	0.510182	0.391548
C130	C	1.704839	-0.160353	-0.326937
C131	C	2.038172	0.172980	0.006396
C132	C	2.371505	0.506313	0.339730
N133	N	1.738923	-0.161191	-0.428594
N134	N	2.072256	0.172142	-0.095261
N135	N	2.405589	0.505475	0.238072
H136	H	1.446456	-0.154144	-0.258269
H137	H	1.779789	0.179190	0.075064
H138	H	2.113122	0.512523	0.408397
H139	H	1.171895	-0.147580	-0.345532
H140	H	1.505228	0.185753	-0.012199
H141	H	1.838562	0.519086	0.321134
H142	H	1.321192	-0.151125	0.066144
H143	H	1.654525	0.182208	0.399478
H144	H	1.987859	0.515542	0.732811
