data_functionalizedCrystal
_audit_creation_method	'MofGen! by Chris Wilmer'
_symmetry_space_group_name_H-M	'P1'
_symmetry_Int_Tables_number	1
_symmetry_cell_setting	triclinic
loop_
_symmetry_equiv_pos_as_xyz
  x,y,z
_cell_length_a	19.288864
_cell_length_b	12.837942
_cell_length_c	17.766277
_cell_angle_alpha	89.994736
_cell_angle_beta	89.976791
_cell_angle_gamma	88.982593
loop_
_atom_site_label
_atom_site_type_symbol
_atom_site_fract_x
_atom_site_fract_y
_atom_site_fract_z
O1	O	0.930181	0.129276	-0.062838
O2	O	0.729111	0.146715	-0.062786
O3	O	0.825187	-0.012886	-0.062806
O4	O	0.834104	0.288878	-0.062818
O5	O	0.825168	-0.012894	0.062382
O6	O	0.729091	0.146707	0.062402
O7	O	0.930161	0.129268	0.062351
Cu8	Cu	0.829625	0.137987	0.073807
Cu9	Cu	0.829647	0.137996	-0.074243
O10	O	0.834085	0.288870	0.062371
C11	C	0.703186	0.146150	-0.000185
C12	C	0.625968	0.144466	-0.000166
C13	C	0.587666	0.238113	-0.000181
C14	C	0.515111	0.236530	-0.000189
C15	C	0.480860	0.141295	-0.000197
C16	C	0.519171	0.047636	-0.000178
C17	C	0.591725	0.049221	-0.000162
C18	C	0.367493	0.066433	-0.044079
C19	C	0.294941	0.064852	-0.044099
C20	C	0.257081	0.136402	-0.000243
C21	C	0.291782	0.209552	0.043625
C22	C	0.364335	0.211137	0.043640
C23	C	0.402188	0.139566	-0.000214
C24	C	0.140106	0.228340	-0.000266
C25	C	0.067550	0.226753	-0.000270
C26	C	0.071611	0.037857	-0.000265
C27	C	0.144166	0.039446	-0.000254
C28	C	0.178409	0.134690	-0.000258
C29	C	0.822165	-0.051497	-0.000212
C30	C	0.813181	-0.166532	-0.000211
C31	C	0.921187	-0.407995	-0.000254
C32	C	0.912748	-0.516081	-0.000253
C33	C	0.787867	-0.490793	-0.000213
C34	C	0.796305	-0.382707	-0.000214
C35	C	0.862967	-0.341312	-0.000233
C36	C	0.871405	-0.233223	-0.000229
C37	C	0.746524	-0.207938	-0.000195
C38	C	0.738086	-0.316024	-0.000194
C39	C	0.956086	0.129833	-0.000252
C40	C	1.033304	0.131518	-0.000276
C41	C	0.837107	0.327480	-0.000225
C42	C	0.846091	0.442515	-0.000231
N43	N	0.829614	0.137979	0.177938
N44	N	0.829663	0.137996	-0.178373
C45	C	0.872174	0.067342	0.217316
C46	C	0.872178	0.067338	0.296118
C47	C	0.829629	0.137988	0.335538
C48	C	0.787060	0.208630	0.296151
C49	C	0.787052	0.208626	0.217350
C50	C	0.826778	0.232410	0.460374
C51	C	0.826790	0.232416	0.539173
C52	C	0.829648	0.138000	0.578584
C53	C	0.832508	0.043575	0.539188
C54	C	0.832501	0.043571	0.460387
C55	C	0.829632	0.138000	0.420984
C56	C	0.872215	0.067352	0.703409
C57	C	0.872213	0.067346	0.782212
C58	C	0.787100	0.208647	0.782243
C59	C	0.787097	0.208645	0.703442
C60	C	0.829658	0.137998	0.664029
H61	H	0.260958	0.267814	0.079337
N62	N	0.918102	-0.008876	0.660908
H63	H	0.888522	-0.054657	0.628239
H64	H	0.951468	0.030655	0.628231
H65	H	0.834835	-0.033307	0.571275
N66	N	0.918133	-0.008828	0.824688
H67	H	0.945098	-0.053570	0.787760
H68	H	0.951448	0.030761	0.857354
N69	N	0.666191	-0.360679	-0.000163
H70	H	0.630590	-0.302031	-0.000148
H71	H	0.659971	-0.404966	-0.046571
H72	H	0.975465	-0.374291	-0.000262
H73	H	0.925684	-0.199522	-0.000242
N74	N	0.715973	-0.535451	-0.000196
H75	H	0.690151	-0.511105	-0.046596
H76	H	0.719525	-0.614034	-0.000174
H77	H	0.167988	0.305893	-0.000258
H78	H	0.699118	-0.153632	-0.000172
N79	N	0.741148	0.284827	0.174880
H80	H	0.770715	0.330611	0.142168
H81	H	0.707788	0.245268	0.142250
N82	N	0.823701	0.334253	0.581662
H83	H	0.821878	0.394063	0.544740
H84	H	0.780870	0.336570	0.614378
N85	N	0.918074	-0.008855	0.174806
H86	H	0.945036	-0.053605	0.211715
H87	H	0.888458	-0.054573	0.142134
N88	N	0.741166	0.284825	0.338667
H89	H	0.770737	0.330615	0.371340
H90	H	0.714208	0.329504	0.301715
H91	H	0.483920	0.312791	-0.000200
H92	H	0.906836	0.009814	0.328185
H93	H	0.834828	-0.033313	0.428314
N94	N	0.624600	0.340836	-0.000191
H95	H	0.589322	0.399921	-0.000204
H96	H	0.654590	0.345616	0.046223
N97	N	0.401765	0.290021	0.090953
H98	H	0.366777	0.335111	0.118736
H99	H	0.432665	0.252537	0.128421
N100	N	0.741201	0.284843	0.824749
H101	H	0.747661	0.274126	0.880645
H102	H	0.754082	0.358331	0.810964
H103	H	0.824438	0.309300	0.428291
H104	H	0.036366	0.303015	-0.000278
N105	N	0.034681	-0.064864	-0.000265
H106	H	-0.017095	-0.051660	-0.000275
H107	H	0.048273	-0.105829	-0.046670
H108	H	0.266693	0.005293	-0.079822
N109	N	0.185483	-0.061560	-0.000238
H110	H	0.152778	-0.122133	-0.000243
H111	H	0.215702	-0.065017	-0.046638
N112	N	0.408325	-0.010747	-0.091382
H113	H	0.375334	-0.057319	-0.119178
H114	H	0.437629	0.028049	-0.128838
H115	H	0.752444	0.266168	0.671378
N116	N	0.482235	-0.055083	-0.000177
H117	H	0.430460	-0.041878	-0.000190
H118	H	0.495829	-0.096052	-0.046579
H119	H	0.622910	-0.027040	-0.000150
H120	H	0.960157	-0.570371	-0.000272
