data_functionalizedCrystal
_audit_creation_method	'MofGen! by Chris Wilmer'
_symmetry_space_group_name_H-M	'P1'
_symmetry_Int_Tables_number	1
_symmetry_cell_setting	triclinic
loop_
_symmetry_equiv_pos_as_xyz
  x,y,z
_cell_length_a	16.109301
_cell_length_b	7.088929
_cell_length_c	8.559649
_cell_angle_alpha	95.344185
_cell_angle_beta	76.620124
_cell_angle_gamma	83.795756
loop_
_atom_site_label
_atom_site_type_symbol
_atom_site_fract_x
_atom_site_fract_y
_atom_site_fract_z
O1	O	1.080469	0.158876	0.221812
O2	O	0.836777	0.158901	0.247375
O3	O	0.980093	0.158884	0.001980
O4	O	0.937154	0.158893	0.467207
O5	O	0.999250	-0.159093	-0.030889
O6	O	0.855935	-0.159076	0.214506
O7	O	1.099627	-0.159102	0.188943
Cu8	Cu	0.979530	-0.188123	0.198723
Cu9	Cu	0.956874	0.187922	0.237594
O10	O	0.956311	-0.159085	0.434338
C11	C	0.815447	-0.000084	0.229905
C12	C	0.723349	-0.000074	0.226802
N13	N	0.995471	-0.452613	0.171383
C14	C	0.405722	-0.000105	0.362262
C15	C	0.492255	-0.000094	0.365195
C16	C	0.530676	-0.000073	0.074046
C17	C	0.444144	-0.000071	0.071117
C18	C	0.381669	-0.000096	0.215228
C19	C	0.554734	-0.000088	0.221091
C20	C	0.648557	-0.000076	0.224270
C21	C	0.287840	-0.000105	0.212050
C22	C	1.120957	-0.000112	0.206413
C23	C	1.213054	-0.000110	0.209518
C24	C	0.992925	-0.000101	-0.073986
C25	C	1.002611	-0.000092	-0.251370
N26	N	0.940940	0.452412	0.264923
C27	C	0.943478	-0.000095	0.510304
C28	C	0.933792	-0.000092	0.687690
H29	H	0.511833	-0.000099	0.484925
C30	C	0.864590	-0.437300	0.395872
H31	H	0.832106	-0.525444	0.451611
H32	H	0.828929	-0.359217	0.346485
H33	H	0.885637	-0.359208	0.470333
C34	C	0.337001	-0.000101	0.520781
H35	H	0.363722	-0.000083	0.608769
H36	H	0.309125	-0.110981	0.514235
H37	H	0.295767	0.110805	0.537150
H38	H	1.051994	-0.534275	0.074453
H39	H	0.867463	-0.000091	-0.228779
C40	C	1.092222	-0.000100	-0.364213
H41	H	1.087198	-0.000094	-0.472633
H42	H	1.129059	-0.110979	-0.356276
H43	H	1.115687	0.110806	-0.333358
C44	C	0.599400	-0.000072	-0.084466
H45	H	0.654383	-0.000096	-0.061667
H46	H	0.586433	0.110814	-0.133298
H47	H	0.599792	-0.110972	-0.156220
H48	H	0.424561	-0.000058	-0.048622
