data_functionalizedCrystal
_audit_creation_method	'MofGen! by Chris Wilmer'
_symmetry_space_group_name_H-M	'P1'
_symmetry_Int_Tables_number	1
_symmetry_cell_setting	triclinic
loop_
_symmetry_equiv_pos_as_xyz
  x,y,z
_cell_length_a	14.560438
_cell_length_b	14.560438
_cell_length_c	14.560438
_cell_angle_alpha	119.999175
_cell_angle_beta	89.998426
_cell_angle_gamma	60.001166
loop_
_atom_site_label
_atom_site_type_symbol
_atom_site_fract_x
_atom_site_fract_y
_atom_site_fract_z
Zr1	Zr	0.884754	1.005291	0.120492
O2	O	0.738107	1.196889	0.267139
O3	O	0.929709	0.813690	0.075540
O4	O	0.929708	1.005292	0.267139
O5	O	0.738109	1.005287	-0.075601
O6	O	1.080846	1.005295	0.267137
O7	O	0.738108	1.005288	0.075539
O8	O	1.080847	0.662554	-0.075600
O9	O	0.738108	1.348027	0.267136
O10	O	1.061674	0.892501	0.056363
O11	O	0.948882	0.892498	-0.056429
O12	O	0.948881	1.118084	0.169155
O13	O	0.836089	1.118082	0.056363
Zr14	Zr	1.125803	1.005293	-0.120562
Zr15	Zr	1.125802	1.005295	0.120488
Zr16	Zr	0.884755	1.005289	-0.120558
Zr17	Zr	0.884754	1.246338	0.120488
Zr18	Zr	1.125803	0.764246	-0.120558
O19	O	1.080848	1.196894	-0.075610
O20	O	1.080847	1.196895	0.267133
O21	O	0.738109	1.196888	-0.075604
O22	O	1.272450	0.813694	-0.267209
O23	O	1.272448	0.813696	0.075534
O24	O	0.929711	0.813689	-0.267203
O25	O	1.272448	1.005297	0.075531
O26	O	1.080849	1.005292	-0.267209
O27	O	0.929711	1.005289	-0.267207
O28	O	1.272449	1.005296	-0.075609
O29	O	0.929709	1.348031	0.267133
O30	O	1.080848	0.662553	-0.267203
O31	O	1.272450	0.662556	-0.267206
O32	O	1.272448	0.662557	-0.075603
O33	O	0.738109	1.348026	0.075533
O34	O	0.929710	1.348030	0.075530
O35	O	1.061676	0.892499	-0.169225
O36	O	1.174468	0.892502	-0.056433
O37	O	1.061675	1.118086	0.056359
O38	O	0.948883	1.118083	-0.056433
C39	C	1.005278	0.703778	-0.000029
C40	C	1.005278	0.601447	-0.000027
C41	C	0.703764	1.005287	-0.000030
C42	C	0.601433	1.005285	-0.000029
C43	C	1.064152	0.553372	0.058849
C44	C	1.064156	0.457213	0.058839
C45	C	0.946404	0.457216	-0.058926
C46	C	0.946406	0.553367	-0.058922
C47	C	0.612231	0.887535	-0.058904
C48	C	0.516076	0.887541	-0.058914
C49	C	0.398328	1.123058	0.058836
C50	C	0.494482	1.123051	0.058839
C51	C	0.719182	0.769769	-0.117772
C52	C	0.729985	0.652010	-0.176651
C53	C	0.633830	0.652016	-0.176661
C54	C	0.526872	0.769782	-0.117792
C55	C	1.306793	1.005297	-0.000040
C56	C	1.409124	1.005299	-0.000042
C57	C	1.005277	1.005293	0.301483
C58	C	1.005276	1.005294	0.403815
C59	C	1.005279	1.306806	-0.000041
C60	C	1.005279	1.409137	-0.000043
C61	C	0.922015	1.005287	0.451887
C62	C	0.922012	1.005294	0.548042
C63	C	1.088544	1.005308	0.548041
C64	C	1.088540	1.005311	0.451893
C65	C	0.838750	1.005271	0.403809
C66	C	0.755483	1.005263	0.451881
C67	C	0.755480	1.005269	0.548036
C68	C	0.838746	1.005283	0.596119
C69	C	1.005279	1.005292	0.698448
C70	C	1.005277	1.005297	0.596119
C71	C	1.306792	0.703783	-0.000034
C72	C	1.409123	0.601454	-0.000034
C73	C	1.005280	0.703777	-0.301547
C74	C	1.005280	0.601445	-0.403878
C75	C	1.306794	0.703782	-0.301552
C76	C	1.409126	0.601452	-0.403884
C77	C	0.703763	1.306802	0.301482
C78	C	0.601432	1.409132	0.403814
C79	C	0.703765	1.306801	-0.000036
C80	C	0.601434	1.409130	-0.000036
C81	C	1.005278	1.306807	0.301477
C82	C	1.005277	1.409139	0.403807
C83	C	1.398325	0.553376	0.058842
C84	C	1.494479	0.457235	0.058846
C85	C	1.612228	0.457254	-0.058910
C86	C	1.516075	0.553400	-0.058907
C87	C	1.064156	0.553368	-0.510831
C88	C	1.064144	0.457226	-0.606977
C89	C	0.946377	0.457242	-0.489203
C90	C	0.946384	0.553389	-0.393059
C91	C	1.516077	0.553376	-0.393086
C92	C	1.612225	0.457235	-0.489242
C93	C	1.494455	0.457250	-0.606990
C94	C	1.398310	0.553396	-0.510835
H95	H	1.112090	0.592515	0.106803
N96	N	1.527760	0.605202	-0.277743
H97	H	1.490497	0.701719	-0.235216
H98	H	1.490518	0.588372	-0.235314
H99	H	1.112098	0.418072	0.106779
H100	H	1.699318	0.418114	-0.106845
N101	N	0.838735	1.005297	0.699833
H102	H	0.911466	0.925222	0.682959
H103	H	0.831340	1.085432	0.762983
H104	H	0.797483	0.769751	-0.117768
N105	N	0.838757	1.005273	0.300105
H106	H	0.911495	0.925197	0.236912
H107	H	0.773332	1.005310	0.277034
H108	H	1.699308	0.418096	-0.480443
N109	N	0.665679	1.005256	0.599886
H110	H	0.589231	1.085325	0.623188
H111	H	0.669432	0.925114	0.543060
H112	H	0.448581	0.769777	-0.117812
H113	H	0.642631	0.556130	-0.224613
N114	N	1.178338	1.005325	0.400039
H115	H	1.231090	1.005326	0.445079
H116	H	1.222005	0.925247	0.320103
N117	N	1.127677	0.605197	-0.522504
H118	H	1.096792	0.645087	-0.564978
H119	H	1.118737	0.673347	-0.445334
H120	H	0.311238	1.218937	0.106767
N121	N	0.665673	1.005253	0.400035
H122	H	0.621919	1.085328	0.400176
H123	H	0.702083	0.925117	0.320131
N124	N	1.482792	0.405415	-0.722342
H125	H	1.559928	0.337208	-0.781619
H126	H	1.440271	0.365598	-0.731242
N127	N	1.282943	0.605264	-0.522476
H128	H	1.290679	0.560226	-0.604817
H129	H	1.240485	0.588532	-0.485143
N130	N	1.282974	0.605207	0.122343
H131	H	1.240447	0.701725	0.181592
H132	H	1.240555	0.588374	0.068262
N133	N	0.845337	0.524996	-0.240153
H134	H	0.904613	0.542856	-0.231214
H135	H	0.854228	0.473577	-0.209237
N136	N	0.882901	0.405360	-0.122430
H137	H	0.800536	0.478719	-0.091546
H138	H	0.913875	0.365449	-0.204782
N139	N	0.882914	0.605217	-0.122438
H140	H	0.845614	0.560174	-0.159743
H141	H	0.823724	0.701736	-0.068380
H142	H	0.485686	1.218933	0.106759
H143	H	1.485677	0.418096	0.106791
N144	N	1.178347	1.005322	0.599897
H145	H	1.165715	1.005317	0.668101
H146	H	1.254750	0.925243	0.543049
H147	H	1.524876	0.592549	-0.106851
N148	N	1.127644	0.405372	-0.722335
H149	H	1.164952	0.450408	-0.714593
H150	H	1.186828	0.308852	-0.764792
H151	H	0.898428	0.418101	-0.480409
N152	N	0.882803	0.605328	-0.277691
H153	H	0.845474	0.560314	-0.285425
H154	H	0.936806	0.588649	-0.235170
