data_functionalizedCrystal
_audit_creation_method	'MofGen! by Chris Wilmer'
_symmetry_space_group_name_H-M	'P1'
_symmetry_Int_Tables_number	1
_symmetry_cell_setting	triclinic
loop_
_symmetry_equiv_pos_as_xyz
  x,y,z
_cell_length_a	13.033293
_cell_length_b	12.759387
_cell_length_c	13.032721
_cell_angle_alpha	97.148809
_cell_angle_beta	105.184121
_cell_angle_gamma	82.788503
loop_
_atom_site_label
_atom_site_type_symbol
_atom_site_fract_x
_atom_site_fract_y
_atom_site_fract_z
Zn1	Zn	1.570260	-0.822556	-0.216742
Zn2	Zn	1.547568	-0.666644	-0.394402
Zn3	Zn	1.392612	-0.627048	-0.239335
Zn4	Zn	1.370039	-0.822435	-0.416848
O5	O	1.470120	-0.734670	-0.316832
O6	O	1.715893	-0.818495	-0.221460
O7	O	1.526963	-0.514371	-0.373893
O8	O	1.435121	-0.636462	-0.087697
O9	O	1.699221	-0.703947	-0.351986
O10	O	1.565638	-0.780101	-0.071098
O11	O	1.413117	-0.485280	-0.259966
O12	O	1.240974	-0.636345	-0.281732
O13	O	1.396649	-0.969470	-0.390242
O14	O	1.224390	-0.779895	-0.412150
O15	O	1.543751	-0.969559	-0.243225
O16	O	1.505075	-0.703830	-0.546020
O17	O	1.374645	-0.818289	-0.562511
C18	C	1.194141	-0.703811	-0.351829
C19	C	1.076073	-0.690636	-0.366826
C20	C	1.031670	-0.741549	-0.309031
C21	C	0.909640	-0.727934	-0.324530
C22	C	1.470213	-1.008701	-0.316718
C23	C	1.470253	-1.125477	-0.316669
C24	C	1.623438	-1.125591	-0.163588
C25	C	1.700048	-1.180509	-0.087030
C26	C	1.700078	-1.290229	-0.086988
C27	C	1.623490	-1.345034	-0.163510
C28	C	1.546880	-1.290116	-0.240068
C29	C	1.546860	-1.180394	-0.240104
C30	C	1.393692	-1.290001	-0.393143
C31	C	1.393664	-1.180281	-0.393191
C32	C	1.317104	-1.344805	-0.469665
C33	C	1.240497	-1.289888	-0.546230
C34	C	1.240470	-1.180162	-0.546270
C35	C	1.317055	-1.125364	-0.469750
C36	C	1.747177	-0.765651	-0.281699
C37	C	1.865242	-0.778854	-0.266727
C38	C	1.434977	-0.765369	-0.592803
C39	C	1.420040	-0.778548	-0.710852
C40	C	1.470098	-0.461704	-0.316861
C41	C	1.470302	-0.344918	-0.316585
C42	C	1.477972	-0.727846	-0.755281
C43	C	1.462535	-0.741466	-0.877291
C44	C	1.505429	-0.703878	-0.039779
C45	C	1.520475	-0.690756	0.078284
H46	H	0.857317	-0.674260	-0.385487
N47	N	1.558814	-0.656996	-0.686020
H48	H	1.521445	-0.598358	-0.645547
H49	H	1.595335	-0.625106	-0.732497
H50	H	1.401510	-0.794965	-0.929577
H51	H	1.178075	-1.135451	-0.608603
N52	N	1.623523	-1.463374	-0.163464
H53	H	1.563385	-1.489759	-0.223556
H54	H	1.613332	-1.479436	-0.093021
H55	H	1.178140	-1.334517	-0.608524
H56	H	1.317130	-1.434144	-0.469622
N57	N	0.934537	-0.849942	-0.185970
H58	H	1.011889	-0.849591	-0.186341
H59	H	0.913128	-0.924661	-0.205024
N60	N	1.601325	-0.619902	-0.852466
H61	H	1.563961	-0.561261	-0.811992
H62	H	1.637841	-0.588017	-0.898950
N63	N	1.339194	-0.849396	-0.780108
H64	H	1.302652	-0.881359	-0.733697
H65	H	1.376630	-0.907978	-0.820574
H66	H	1.317044	-1.036025	-0.469778
N67	N	1.006776	-0.619547	-0.447576
H68	H	1.028100	-0.544791	-0.428566
H69	H	0.929448	-0.619983	-0.447169
N70	N	1.623389	-1.007252	-0.163654
H71	H	1.693752	-0.991138	-0.173963
H72	H	1.613105	-0.970612	-0.093265
H73	H	1.762455	-1.334942	-0.024642
N74	N	1.100968	-0.812662	-0.228305
H75	H	1.178318	-0.812319	-0.228686
H76	H	1.079541	-0.887373	-0.247387
H77	H	1.762403	-1.135875	-0.024725
