data_functionalizedCrystal
_audit_creation_method	'MofGen! by Chris Wilmer'
_symmetry_space_group_name_H-M	'P1'
_symmetry_Int_Tables_number	1
_symmetry_cell_setting	triclinic
loop_
_symmetry_equiv_pos_as_xyz
  x,y,z
_cell_length_a	15.698487
_cell_length_b	23.196401
_cell_length_c	23.196402
_cell_angle_alpha	60.008734
_cell_angle_beta	90.005102
_cell_angle_gamma	60.004824
loop_
_atom_site_label
_atom_site_type_symbol
_atom_site_fract_x
_atom_site_fract_y
_atom_site_fract_z
Zr1	Zr	0.820725	0.630943	-0.075568
O2	O	0.684722	0.751192	-0.167599
O3	O	0.862401	0.510692	-0.047368
O4	O	0.862409	0.630943	-0.167619
O5	O	0.684726	0.630943	0.047521
O6	O	1.002590	0.630945	-0.167620
O7	O	0.684714	0.630942	-0.047348
O8	O	1.002575	0.415838	0.047486
O9	O	0.684741	0.846050	-0.167585
O10	O	0.984810	0.560156	-0.035327
O11	O	0.880203	0.560155	0.035474
O12	O	0.880213	0.701735	-0.106106
O13	O	0.775607	0.701734	-0.035304
Zr14	Zr	1.044316	0.630949	0.075736
Zr15	Zr	1.044298	0.630947	-0.075571
Zr16	Zr	0.820744	0.630946	0.075738
Zr17	Zr	0.820755	0.782230	-0.075546
Zr18	Zr	1.044287	0.479663	0.075714
O19	O	1.002641	0.751201	0.047536
O20	O	1.002614	0.751198	-0.167602
O21	O	0.684749	0.751196	0.047539
O22	O	1.180319	0.510700	0.167767
O23	O	1.180292	0.510697	-0.047371
O24	O	0.862427	0.510695	0.167770
O25	O	1.180316	0.630950	-0.047354
O26	O	1.002632	0.630950	0.167787
O27	O	0.862451	0.630948	0.167788
O28	O	1.180328	0.630951	0.047516
O29	O	0.862451	0.846053	-0.167587
O30	O	1.002590	0.415840	0.167755
O31	O	1.180300	0.415843	0.167753
O32	O	1.180285	0.415841	0.047484
O33	O	0.684756	0.846052	-0.047317
O34	O	0.862466	0.846054	-0.047318
O35	O	0.984828	0.560158	0.106273
O36	O	1.089435	0.560159	0.035472
O37	O	0.984838	0.701738	-0.035306
O38	O	0.880231	0.701737	0.035495
C39	C	0.652865	0.630942	0.000087
C40	C	0.557953	0.630940	0.000088
C41	C	0.932544	0.630949	0.189345
C42	C	0.932552	0.630950	0.253579
C43	C	0.932558	0.820183	0.000112
C44	C	0.932570	0.884408	0.000122
C45	C	0.384167	0.630955	0.000081
C46	C	0.480871	0.630950	0.000083
C47	C	1.212176	0.630951	0.000081
C48	C	1.307088	0.630953	0.000080
C49	C	0.932483	0.441710	0.000056
C50	C	0.932471	0.377485	0.000046
C51	C	0.877955	0.914591	0.037069
C52	C	0.877947	0.974950	0.037065
C53	C	0.932541	1.005136	0.000100
C54	C	0.987169	0.974943	-0.036849
C55	C	0.987183	0.914578	-0.036838
C56	C	0.924719	1.134345	-0.061818
C57	C	0.924696	1.194711	-0.061831
C58	C	0.932502	1.191317	0.000067
C59	C	0.940308	1.127555	0.061977
C60	C	0.940323	1.067191	0.061988
C61	C	0.932532	1.070590	0.000084
C62	C	0.877875	1.286947	0.037013
C63	C	0.877875	1.347304	0.037011
C64	C	0.987089	1.347301	-0.036910
C65	C	0.987097	1.286940	-0.036901
C66	C	0.932484	1.256769	0.000059
C67	C	0.932497	0.630943	-0.189178
C68	C	0.932489	0.630943	-0.253411
C69	C	0.877959	0.704851	0.246809
C70	C	0.877943	0.704852	0.307163
C71	C	0.932542	0.630948	0.374287
C72	C	0.987138	0.557038	0.381055
C73	C	0.987143	0.557039	0.320701
C74	C	1.023998	0.574329	0.498215
C75	C	1.023996	0.574331	0.558567
C76	C	0.932525	0.630942	0.560441
C77	C	0.841057	0.687565	0.501950
C78	C	0.841062	0.687566	0.441596
C79	C	0.932542	0.630939	0.439735
C80	C	0.877909	0.704849	0.619111
C81	C	0.877891	0.704847	0.679468
C82	C	0.987096	0.557031	0.753360
C83	C	0.987104	0.557035	0.693004
C84	C	0.932513	0.630946	0.625882
C85	C	1.212139	0.441715	0.000053
C86	C	1.307039	0.377491	0.000042
C87	C	0.932507	0.441713	0.189317
C88	C	0.932503	0.377489	0.253541
C89	C	1.212163	0.441718	0.189314
C90	C	1.307070	0.377495	0.253537
C91	C	0.652879	0.820175	-0.189147
C92	C	0.557971	0.884398	-0.253370
C93	C	0.652902	0.820178	0.000115
C94	C	0.558003	0.884402	0.000125
C95	C	0.932534	0.820180	-0.189149
C96	C	0.932539	0.884404	-0.253374
C97	C	1.296992	0.347330	-0.036925
C98	C	1.386152	0.286993	-0.036949
C99	C	1.485358	0.256815	-0.000001
C100	C	1.495402	0.286983	0.036968
C101	C	1.406243	0.347322	0.036987
C102	C	0.987113	0.347330	0.320665
C103	C	0.987105	0.286993	0.381016
C104	C	0.932492	0.256812	0.374242
C105	C	0.877874	0.286977	0.307112
C106	C	0.877877	0.347317	0.246762
C107	C	1.406253	0.347336	0.246740
C108	C	1.495438	0.287000	0.307078
C109	C	1.485437	0.256821	0.374214
C110	C	1.386244	0.286986	0.381010
C111	C	1.297062	0.347325	0.320673
C112	C	0.458788	0.914564	-0.246572
C113	C	0.369604	0.974919	-0.306910
C114	C	0.379604	1.005101	-0.374046
C115	C	0.478797	0.974932	-0.380843
C116	C	0.567980	0.914583	-0.320505
C117	C	0.568049	0.914570	0.037087
C118	C	0.478890	0.974923	0.037094
C119	C	0.379684	1.005103	0.000144
C120	C	0.369639	0.974932	-0.036822
C121	C	0.458798	0.914585	-0.036833
C122	C	0.987163	0.914566	-0.246577
C123	C	0.987188	0.974903	-0.306917
C124	C	0.932581	1.005082	-0.374052
C125	C	0.877956	0.974914	-0.380847
C126	C	0.877938	0.914573	-0.320508
H127	H	0.833488	0.890027	0.067167
Cl128	Cl	0.809227	1.249012	0.083480
Cl129	Cl	0.809248	0.876670	-0.329064
Cl130	Cl	0.809225	0.249024	0.298608
H131	H	0.450603	0.890024	-0.066930
Cl132	Cl	0.932610	1.080942	-0.449901
Cl133	Cl	1.172378	0.385227	0.329231
Cl134	Cl	0.446189	0.876633	-0.162180
H135	H	1.031566	0.496857	0.698520
H136	H	1.557948	0.207682	-0.000022
Cl137	Cl	0.809301	1.012869	-0.465251
H138	H	0.288854	0.999514	-0.066906
Cl139	Cl	0.726057	0.758741	0.504296
H140	H	1.031669	0.999459	-0.301371
Cl141	Cl	0.809277	1.012906	0.083513
Cl142	Cl	1.597564	0.180964	0.450062
H143	H	0.946682	1.015277	0.112397
Cl144	Cl	1.055821	0.876639	-0.162186
H145	H	0.307093	1.054242	0.000159
Cl146	Cl	0.809223	0.385219	0.162381
Cl147	Cl	0.244917	1.012830	-0.298350
H148	H	0.946660	1.124788	0.112379
Cl149	Cl	1.418853	0.385268	0.162348
Cl150	Cl	1.620125	0.249087	0.298518
H151	H	0.306977	1.054241	-0.423172
Cl152	Cl	0.809221	1.385241	0.083471
Cl153	Cl	1.373690	0.249037	0.465415
Cl154	Cl	1.055735	1.385235	-0.083373
H155	H	0.486927	0.999514	-0.435512
H156	H	1.031565	1.262366	-0.066991
H157	H	0.918372	1.137116	-0.112224
Cl158	Cl	0.914869	1.274868	-0.139661
H159	H	1.031545	0.496857	0.808013
H160	H	1.576188	0.262403	0.067050
H161	H	0.648736	0.890022	-0.326048
H162	H	1.031622	0.999521	-0.066946
H163	H	0.487089	0.999477	0.067199
Cl164	Cl	1.055843	0.876636	-0.083294
Cl165	Cl	0.692755	0.876645	0.083541
H166	H	1.414438	0.371872	0.067095
H167	H	0.833504	0.765035	0.192159
Cl168	Cl	0.809324	0.797763	0.298656
H169	H	1.031586	0.371897	0.326193
H170	H	0.766585	0.733669	0.393974
H171	H	0.833452	0.765032	0.564457
H172	H	0.833428	0.765028	0.673949
H173	H	1.098476	0.528229	0.606185
Cl174	Cl	1.055772	0.464130	0.465439
Cl175	Cl	1.139002	0.503154	0.495868
H176	H	1.031601	0.496858	0.326219
H177	H	1.216221	0.371900	-0.067022
H178	H	1.031585	0.262440	0.435670
Cl179	Cl	1.373500	0.249077	-0.083425
H180	H	0.932498	0.207680	0.423388
