data_functionalizedCrystal
_audit_creation_method	'MofGen! by Chris Wilmer'
_symmetry_space_group_name_H-M	'P1'
_symmetry_Int_Tables_number	1
_symmetry_cell_setting	triclinic
loop_
_symmetry_equiv_pos_as_xyz
  x,y,z
_cell_length_a	21.395362
_cell_length_b	16.625545
_cell_length_c	21.395355
_cell_angle_alpha	90.016186
_cell_angle_beta	90.043940
_cell_angle_gamma	90.041436
loop_
_atom_site_label
_atom_site_type_symbol
_atom_site_fract_x
_atom_site_fract_y
_atom_site_fract_z
Zn1	Zn	0.957882	-0.320753	0.354596
Zn2	Zn	1.457882	0.179247	0.854596
Zn3	Zn	0.957794	-0.455568	0.249823
Zn4	Zn	1.457794	0.044432	0.749823
Zn5	Zn	0.853097	-0.320791	0.249797
Zn6	Zn	1.353097	0.179209	0.749797
Zn7	Zn	0.853075	-0.455585	0.354527
Zn8	Zn	1.353075	0.044415	0.854527
O9	O	0.905462	-0.388174	0.302186
O10	O	1.405462	0.111826	0.802186
O11	O	1.045548	-0.338614	0.340737
O12	O	1.545548	0.161386	0.840737
O13	O	0.943878	-0.437699	0.162141
O14	O	1.443878	0.062301	0.662141
O15	O	0.867043	-0.207953	0.263717
O16	O	1.367043	0.292047	0.763717
O17	O	1.045483	-0.437662	0.263760
O18	O	1.545483	0.062338	0.763760
O19	O	0.944028	-0.207926	0.340712
O20	O	1.444028	0.292074	0.840712
O21	O	0.866957	-0.338678	0.162122
O22	O	1.366957	0.161322	0.662122
O23	O	0.765416	-0.338694	0.263650
O24	O	1.265416	0.161306	0.763650
O25	O	0.867006	-0.437691	0.442214
O26	O	1.367006	0.062309	0.942214
O27	O	0.765400	-0.437727	0.340595
O28	O	1.265400	0.062273	0.840595
O29	O	0.944007	-0.338630	0.442265
O30	O	1.444007	0.161370	0.942265
O31	O	0.943857	-0.568403	0.263694
O32	O	1.443857	-0.068403	0.763694
O33	O	0.866921	-0.568415	0.340620
O34	O	1.366921	-0.068415	0.840620
C35	C	0.742674	-0.388217	0.302113
C36	C	1.242674	0.111783	0.802113
C37	C	0.673033	-0.388255	0.302097
C38	C	1.173033	0.111745	0.802097
C39	C	0.640328	-0.439889	0.342102
C40	C	1.140328	0.060111	0.842102
C41	C	0.574893	-0.439870	0.342130
C42	C	1.074893	0.060130	0.842130
C43	C	0.542165	-0.388224	0.302141
C44	C	1.042165	0.111776	0.802141
C45	C	0.574878	-0.336579	0.262133
C46	C	1.074878	0.163421	0.762133
C47	C	0.640312	-0.336594	0.262111
C48	C	1.140312	0.163406	0.762111
C49	C	0.438440	-0.381728	0.245736
C50	C	0.938440	0.118272	0.745736
C51	C	0.373007	-0.381718	0.245757
C52	C	0.873007	0.118282	0.745757
C53	C	0.340344	-0.388171	0.302211
C54	C	0.840344	0.111829	0.802211
C55	C	0.373123	-0.394651	0.358644
C56	C	0.873123	0.105349	0.858644
C57	C	0.438557	-0.394666	0.358622
C58	C	0.938557	0.105334	0.858622
C59	C	0.471212	-0.388201	0.302161
C60	C	0.971212	0.111799	0.802161
C61	C	0.236687	-0.439787	0.342249
C62	C	0.736687	0.060213	0.842249
C63	C	0.171250	-0.439762	0.342278
C64	C	0.671250	0.060238	0.842278
C65	C	0.171236	-0.336475	0.262276
C66	C	0.671236	0.163525	0.762276
C67	C	0.236671	-0.336496	0.262253
C68	C	0.736671	0.163504	0.762253
C69	C	0.269393	-0.388157	0.302239
C70	C	0.769393	0.111843	0.802239
C71	C	0.905394	-0.597665	0.302166
C72	C	1.405394	-0.097665	0.802166
C73	C	0.905422	-0.687286	0.302178
C74	C	1.405422	-0.187286	0.802178
C75	C	0.905446	-0.760069	0.302191
C76	C	1.405446	-0.260069	0.802191
C77	C	0.905483	-0.851377	0.302205
C78	C	1.405483	-0.351377	0.802205
C79	C	0.905515	-0.924154	0.302213
C80	C	1.405515	-0.424154	0.802213
C81	C	0.905551	-1.015468	0.302226
C82	C	1.405551	-0.515468	0.802226
C83	C	1.068885	-0.388132	0.302259
C84	C	1.568885	0.111868	0.802259
C85	C	1.138527	-0.388114	0.302290
C86	C	1.638527	0.111886	0.802290
C87	C	0.905514	-0.388158	0.465609
C88	C	1.405514	0.111842	0.965609
C89	C	0.905536	-0.388151	0.535250
C90	C	1.405536	0.111849	1.035250
C91	C	0.905547	-0.177865	0.302219
C92	C	1.405547	0.322135	0.802219
C93	C	0.905584	-0.088244	0.302233
C94	C	1.405584	0.411756	0.802233
C95	C	0.905446	-0.388132	0.139398
C96	C	1.405446	0.111868	0.639398
C97	C	0.905545	-0.387912	0.069757
C98	C	1.405545	0.112088	0.569757
C99	C	0.945629	-0.336568	0.567991
C100	C	1.445629	0.163432	1.067991
C101	C	0.945628	-0.336534	0.633426
C102	C	1.445628	0.163466	1.133426
C103	C	0.905541	-0.388096	0.666119
C104	C	1.405541	0.111904	1.166119
C105	C	0.865441	-0.439683	0.633370
C106	C	1.365441	0.060317	1.133370
C107	C	0.865438	-0.439710	0.567936
C108	C	1.365438	0.060290	1.067936
C109	C	0.900570	-0.460699	0.769785
C110	C	1.400570	0.039301	1.269785
C111	C	0.900577	-0.460672	0.835218
C112	C	1.400577	0.039328	1.335218
C113	C	0.905545	-0.388011	0.867940
C114	C	1.405545	0.111989	1.367940
C115	C	0.910519	-0.315373	0.835220
C116	C	1.410519	0.184627	1.335220
C117	C	0.910517	-0.315401	0.769786
C118	C	1.410517	0.184599	1.269786
C119	C	0.905539	-0.388072	0.737071
C120	C	1.405539	0.111928	1.237071
C121	C	0.945639	-0.336386	0.971632
C122	C	1.445639	0.163614	1.471632
C123	C	0.945634	-0.336350	1.037069
C124	C	1.445634	0.163650	1.537069
C125	C	0.865450	-0.439506	1.037012
C126	C	1.365450	0.060494	1.537012
C127	C	0.865451	-0.439535	0.971577
C128	C	1.365451	0.060465	1.471577
C129	C	0.905549	-0.387976	0.938891
C130	C	1.405549	0.112024	1.438891
H131	H	0.548259	-0.481916	0.374709
H132	H	1.048259	0.018084	0.874709
N133	N	0.988881	-0.280705	1.072376
N134	N	1.488881	0.219295	1.572376
H135	H	1.017903	-0.313452	1.099550
H136	H	1.517903	0.186548	1.599550
H137	H	0.963394	-0.243337	1.099465
H138	H	1.463394	0.256663	1.599465
N139	N	0.473663	-0.374764	0.184842
N140	N	0.973663	0.125236	0.684842
H141	H	0.462213	-0.421333	0.156744
H142	H	0.962213	0.078667	0.656744
H143	H	0.520077	-0.375730	0.193444
H144	H	1.020077	0.124270	0.693444
H145	H	0.978275	-0.294524	0.660088
H146	H	1.478275	0.205476	1.160088
H147	H	0.263330	-0.481848	0.374811
H148	H	0.763330	0.018152	0.874811
N149	N	0.895218	-0.539077	0.734497
N150	N	1.395218	-0.039077	1.234497
H151	H	0.895970	-0.528073	0.688081
H152	H	1.395970	-0.028073	1.188081
H153	H	0.854661	-0.566487	0.745905
H154	H	1.354661	-0.066487	1.245905
H155	H	0.666940	-0.294545	0.229534
H156	H	1.166940	0.205455	0.729534
H157	H	0.548226	-0.294527	0.229576
H158	H	1.048226	0.205473	0.729576
N159	N	0.271957	-0.280817	0.219099
N160	N	0.771957	0.219183	0.719099
H161	H	0.299160	-0.243509	0.244605
H162	H	0.799160	0.256491	0.744605
H163	H	0.241262	-0.248146	0.193775
H164	H	0.741262	0.251854	0.693775
H165	H	0.346323	-0.376447	0.199805
H166	H	0.846323	0.123553	0.699805
N167	N	0.988874	-0.280959	0.532737
N168	N	1.488874	0.219041	1.032737
H169	H	1.014272	-0.248276	0.563411
H170	H	1.514272	0.251724	1.063411
H171	H	0.963385	-0.243661	0.505568
H172	H	1.463385	0.256339	1.005568
H173	H	0.144590	-0.294420	0.229720
H174	H	0.644590	0.205580	0.729720
H175	H	0.832787	-0.481714	0.541279
H176	H	1.332787	0.018286	1.041279
N177	N	0.337920	-0.401661	0.419545
N178	N	0.837920	0.098339	0.919545
H179	H	0.349371	-0.355116	0.447666
H180	H	0.849371	0.144884	0.947666
H181	H	0.349333	-0.453929	0.440702
H182	H	0.849333	0.046071	0.940702
H183	H	0.144623	-0.481807	0.374859
H184	H	0.644623	0.018193	0.874859
H185	H	0.666966	-0.481954	0.374662
H186	H	1.166966	0.018046	0.874662
H187	H	0.914565	-0.256257	0.743149
H188	H	1.414565	0.243743	1.243149
H189	H	0.832800	-0.481663	0.659993
H190	H	1.332800	0.018337	1.159993
N191	N	0.895217	-0.539013	0.870505
N192	N	1.395217	-0.039013	1.370505
H193	H	0.892062	-0.585047	0.839849
H194	H	1.392062	-0.085047	1.339849
H195	H	0.856614	-0.537847	0.897628
H196	H	1.356614	-0.037847	1.397628
N197	N	0.473907	-0.401651	0.419487
N198	N	0.973907	0.098349	0.919487
H199	H	0.462585	-0.355077	0.447593
H200	H	0.962585	0.144923	0.947593
H201	H	0.520303	-0.400706	0.410851
H202	H	1.020303	0.099294	0.910851
N203	N	0.915884	-0.236995	0.870502
N204	N	1.415884	0.263005	1.370502
H205	H	0.915129	-0.247996	0.916919
H206	H	1.415129	0.252004	1.416919
H207	H	0.879667	-0.200960	0.859034
H208	H	1.379667	0.299040	1.359034
H209	H	0.978285	-0.294399	0.945018
H210	H	1.478285	0.205601	1.445018
H211	H	0.832804	-0.481481	1.063630
H212	H	1.332804	0.018519	1.563630
H213	H	0.832807	-0.481544	0.944919
H214	H	1.332807	0.018456	1.444919
