data_functionalizedCrystal
_audit_creation_method	'MofGen! by Chris Wilmer'
_symmetry_space_group_name_H-M	'P1'
_symmetry_Int_Tables_number	1
_symmetry_cell_setting	triclinic
loop_
_symmetry_equiv_pos_as_xyz
  x,y,z
_cell_length_a	10.654547
_cell_length_b	27.732048
_cell_length_c	26.809956
_cell_angle_alpha	90.024325
_cell_angle_beta	90.021008
_cell_angle_gamma	83.564355
loop_
_atom_site_label
_atom_site_type_symbol
_atom_site_fract_x
_atom_site_fract_y
_atom_site_fract_z
O1	O	1.665012	0.067901	0.041494
O2	O	1.299262	0.074368	0.041494
O3	O	1.493497	0.000809	0.041485
O4	O	1.470778	0.141461	0.041504
O5	O	1.493428	0.000788	-0.041475
O6	O	1.299193	0.074347	-0.041465
O7	O	1.664943	0.067881	-0.041465
Zn8	Zn	1.482057	0.071111	-0.054637
Zn9	Zn	1.482148	0.071138	0.054666
O10	O	1.470709	0.141440	-0.041456
C11	C	1.252450	0.073882	0.000014
C12	C	1.113066	0.072461	0.000014
C13	C	1.492985	-0.017212	0.000004
C14	C	1.491549	-0.070875	-0.000001
C15	C	0.851234	0.069804	0.090464
C16	C	0.916762	0.070484	0.135686
C17	C	1.047723	0.071823	0.135685
C18	C	1.113160	0.072481	0.090457
C19	C	1.047633	0.071802	0.045236
C20	C	0.916668	0.070464	0.045242
C21	C	1.047539	0.071781	-0.045208
C22	C	0.916576	0.070446	-0.045208
C23	C	1.112976	0.072439	-0.090435
C24	C	1.047447	0.071763	-0.135657
C25	C	0.916478	0.070425	-0.135654
C26	C	0.851049	0.069766	-0.090429
C27	C	1.597289	-0.409032	0.000025
C28	C	1.591961	-0.610724	0.000032
O29	O	1.688652	-0.641377	0.000054
N30	N	1.476788	-0.630566	0.000032
C31	C	1.362938	-0.599981	0.000033
O32	O	1.264854	-0.621485	0.000037
C33	C	1.368268	-0.398289	0.000029
C34	C	1.483448	-0.378450	0.000025
C35	C	1.712460	-0.389193	0.000021
C36	C	1.713790	-0.338772	0.000017
C37	C	1.599950	-0.308191	0.000016
C38	C	1.484779	-0.328030	0.000020
C39	C	1.254420	-0.367704	0.000034
C40	C	1.255763	-0.317279	0.000034
C41	C	1.370943	-0.297440	0.000030
C42	C	1.372269	-0.247028	0.000015
N43	N	1.487442	-0.227187	0.000016
C44	C	1.601283	-0.257768	0.000016
C45	C	1.360149	-0.705872	0.000033
C46	C	1.358816	-0.756295	0.000033
C47	C	1.587839	-0.767035	0.000034
C48	C	1.589170	-0.716611	0.000030
C49	C	1.475322	-0.686031	0.000034
C50	C	1.604069	-0.151882	0.000007
C51	C	1.605390	-0.101457	-0.000000
C52	C	1.376368	-0.090721	0.000002
C53	C	1.375046	-0.141141	0.000006
C54	C	1.488907	-0.171721	0.000010
O55	O	1.275630	-0.216347	-0.000001
O56	O	1.699352	-0.236255	0.000023
C57	C	1.595958	-0.459452	0.000030
C58	C	1.480787	-0.479291	0.000034
C59	C	1.366946	-0.448709	0.000033
C60	C	1.479454	-0.529713	0.000034
C61	C	1.593294	-0.560295	0.000034
C62	C	1.708467	-0.540453	0.000035
C63	C	1.709798	-0.490033	0.000030
C64	C	1.251773	-0.468551	0.000032
C65	C	1.250452	-0.518972	0.000036
C66	C	1.364292	-0.549553	0.000037
C67	C	1.711756	0.068366	0.000016
C68	C	1.851139	0.069788	0.000020
C69	C	1.471220	0.159460	0.000026
C70	C	1.472656	0.213124	0.000034
N71	N	1.482005	0.071092	-0.129233
C72	C	1.406539	0.041527	-0.526130
C73	C	1.406480	0.041514	-0.317252
O74	O	1.342232	0.016336	-0.290264
N75	N	1.482055	0.071100	-0.291111
C76	C	1.557657	0.100689	-0.317193
O77	O	1.621947	0.125849	-0.290165
C78	C	1.557722	0.100700	-0.526070
C79	C	1.482132	0.071115	-0.552208
C80	C	1.330957	0.011945	-0.552269
C81	C	1.330967	0.011951	-0.604485
C82	C	1.406560	0.041539	-0.630563
C83	C	1.482143	0.071121	-0.604424
C84	C	1.633330	0.130286	-0.552150
C85	C	1.633342	0.130285	-0.604373
C86	C	1.557752	0.100701	-0.630511
C87	C	1.557746	0.100715	-0.682718
N88	N	1.482171	0.071129	-0.708859
C89	C	1.406578	0.041541	-0.682782
C90	C	1.557616	0.100682	-0.207530
C91	C	1.557598	0.100680	-0.155311
C92	C	1.406422	0.041504	-0.155374
C93	C	1.406434	0.041509	-0.207594
C94	C	1.482040	0.071096	-0.233671
C95	C	1.406605	0.041555	-0.792440
C96	C	1.406618	0.041565	-0.844661
C97	C	1.557798	0.100739	-0.844593
C98	C	1.557780	0.100731	-0.792376
C99	C	1.482180	0.071135	-0.766301
O100	O	1.621971	0.125876	-0.709739
O101	O	1.342319	0.016376	-0.709818
C102	C	1.406529	0.041522	-0.473914
C103	C	1.482111	0.071104	-0.447775
C104	C	1.557705	0.100692	-0.473853
C105	C	1.482094	0.071102	-0.395556
C106	C	1.406501	0.041514	-0.369479
C107	C	1.330925	0.011928	-0.395620
C108	C	1.330936	0.011934	-0.447836
C109	C	1.633280	0.130278	-0.447712
C110	C	1.633262	0.130270	-0.395496
C111	C	1.557669	0.100682	-0.369418
N112	N	1.482211	0.071153	0.129262
H113	H	0.744596	0.068720	0.090470
H114	H	0.744412	0.068679	-0.090422
H115	H	1.344882	0.017419	-0.228872
H116	H	1.344868	0.017414	-0.134132
H117	H	1.807582	-0.322625	0.000015
H118	H	1.281257	-0.157295	-0.000004
H119	H	1.699187	-0.085307	-0.000005
H120	H	1.619186	0.124777	-0.228757
H121	H	1.696785	-0.176774	0.000012
H122	H	1.160628	-0.383848	0.000040
H123	H	1.219613	0.073527	-0.090433
H124	H	0.863469	0.069946	0.172509
H125	H	1.101075	0.072376	0.172508
H126	H	1.694813	0.154366	-0.374218
H127	H	1.265025	-0.772442	0.000028
H128	H	1.694913	0.154378	-0.625602
H129	H	1.805168	-0.414087	0.000024
H130	H	1.156651	-0.535119	0.000036
H131	H	1.694840	0.154372	-0.468939
H132	H	1.269399	-0.012151	-0.531042
H133	H	1.163051	-0.292382	0.000038
H134	H	1.267434	-0.680977	0.000036
H135	H	1.100738	0.072296	-0.172478
H136	H	1.619135	0.124776	-0.134033
H137	H	1.219798	0.073566	0.090460
H138	H	0.863133	0.069873	-0.172479
H139	H	1.694886	0.154375	-0.530877
H140	H	1.682960	-0.700463	0.000027
H141	H	1.680532	-0.791943	0.000034
H142	H	1.619313	0.124828	-0.771093
H143	H	1.283682	-0.065813	-0.000000
H144	H	1.803590	-0.473886	0.000027
H145	H	1.801160	-0.565362	0.000033
H146	H	1.345044	0.017456	-0.771215
H147	H	1.159069	-0.443656	0.000033
H148	H	1.345058	0.017474	-0.865940
H149	H	1.269418	-0.012141	-0.625762
H150	H	1.619341	0.124830	-0.865835
H151	H	1.269383	-0.012157	-0.469113
H152	H	1.269369	-0.012161	-0.374378
