data_functionalizedCrystal
_audit_creation_method	'MofGen! by Chris Wilmer'
_symmetry_space_group_name_H-M	'P1'
_symmetry_Int_Tables_number	1
_symmetry_cell_setting	triclinic
loop_
_symmetry_equiv_pos_as_xyz
  x,y,z
_cell_length_a	10.654550
_cell_length_b	10.268362
_cell_length_c	10.654550
_cell_angle_alpha	89.994874
_cell_angle_beta	95.515069
_cell_angle_gamma	90.001331
loop_
_atom_site_label
_atom_site_type_symbol
_atom_site_fract_x
_atom_site_fract_y
_atom_site_fract_z
O1	O	1.667841	0.108203	-0.176400
O2	O	2.167841	0.608203	0.323600
O3	O	1.302363	0.108227	-0.193206
O4	O	1.802363	0.608227	0.306794
O5	O	1.493505	0.108206	-0.002064
O6	O	1.993505	0.608206	0.497936
O7	O	1.476699	0.108223	-0.367542
O8	O	1.976699	0.608223	0.132458
O9	O	1.493488	-0.108395	-0.002056
O10	O	1.993488	0.391605	0.497944
O11	O	1.302346	-0.108374	-0.193198
O12	O	1.802346	0.391626	0.306802
O13	O	1.667824	-0.108398	-0.176392
O14	O	2.167824	0.391602	0.323608
Cu15	Cu	1.485084	-0.128163	-0.184794
Cu16	Cu	1.985084	0.371837	0.315206
Cu17	Cu	1.485104	0.127992	-0.184804
Cu18	Cu	1.985104	0.627992	0.315196
O19	O	1.476682	-0.108377	-0.367534
O20	O	1.976682	0.391623	0.132466
C21	C	1.255556	-0.000071	-0.191968
C22	C	1.755556	0.499929	0.308032
C23	C	1.116113	-0.000062	-0.188276
C24	C	1.616113	0.499938	0.311724
N25	N	1.485079	-0.308329	-0.184787
N26	N	1.985079	0.191671	0.315213
C27	C	1.036628	-0.000060	-0.300818
C28	C	1.536628	0.499940	0.199182
C29	C	0.905607	-0.000083	-0.297341
C30	C	1.405607	0.499917	0.202659
C31	C	0.933570	-0.000104	-0.068772
C32	C	1.433570	0.499896	0.431228
C33	C	1.064588	-0.000090	-0.072250
C34	C	1.564588	0.499910	0.427750
C35	C	1.485097	-0.574000	-0.184801
C36	C	1.985097	-0.074000	0.315199
C37	C	1.485083	-0.426162	-0.184797
C38	C	1.985083	0.073838	0.315203
C39	C	1.714631	-0.000098	-0.177630
C40	C	2.214631	0.499902	0.322370
C41	C	1.854074	-0.000098	-0.181322
C42	C	2.354074	0.499902	0.318678
C43	C	1.492263	-0.000094	0.044738
C44	C	1.992263	0.499906	0.544738
C45	C	1.488571	-0.000091	0.184181
C46	C	1.988571	0.499909	0.684181
N47	N	1.485118	0.308158	-0.184801
N48	N	1.985118	0.808158	0.315199
C49	C	1.477925	-0.000075	-0.414336
C50	C	1.977925	0.499925	0.085664
C51	C	1.481616	-0.000069	-0.553779
C52	C	1.981616	0.499931	-0.053779
C53	C	1.601112	-0.000098	0.263667
C54	C	2.101112	0.499902	0.763667
C55	C	1.597636	-0.000082	0.394688
C56	C	2.097636	0.499918	0.894688
C57	C	1.369066	-0.000058	0.366725
C58	C	1.869066	0.499942	0.866725
C59	C	1.372544	-0.000065	0.235706
C60	C	1.872544	0.499935	0.735706
H61	H	1.078574	-0.000047	-0.395294
H62	H	1.578574	0.499953	0.104706
H63	H	1.695588	-0.000117	0.221720
H64	H	2.195588	0.499883	0.721720
N65	N	0.880935	-0.000146	0.049740
N66	N	1.380935	0.499854	0.549740
N67	N	0.810952	-0.091460	0.077181
N68	N	1.310952	0.408540	0.577181
H69	H	0.773780	-0.091489	0.160883
H70	H	1.273780	0.408511	0.660883
H71	H	1.689279	-0.000085	0.459401
H72	H	2.189279	0.499915	0.959401
H73	H	0.840894	-0.000084	-0.388984
H74	H	1.340894	0.499916	0.111016
N75	N	1.145791	-0.000118	0.042716
N76	N	1.645791	0.499882	0.542716
N77	N	1.140528	-0.091435	0.119620
N78	N	1.640528	0.408565	0.619620
H79	H	1.197878	-0.091462	0.200810
H80	H	1.697878	0.408538	0.700810
N81	N	1.250557	-0.000078	0.419364
N82	N	1.750557	0.499922	0.919364
N83	N	1.174427	-0.091385	0.395381
N84	N	1.674427	0.408615	0.895381
H85	H	1.090726	-0.091408	0.432557
H86	H	1.590726	0.408592	0.932557
N87	N	1.257567	-0.000044	0.154522
N88	N	1.757567	0.499956	0.654522
N89	N	1.153982	-0.000027	0.200539
N90	N	1.653982	0.499973	0.700539
H91	H	1.072782	-0.000006	0.143204
H92	H	1.572782	0.499994	0.643204
