data_functionalizedCrystal
_audit_creation_method	'MofGen! by Chris Wilmer'
_symmetry_space_group_name_H-M	'P1'
_symmetry_Int_Tables_number	1
_symmetry_cell_setting	triclinic
loop_
_symmetry_equiv_pos_as_xyz
  x,y,z
_cell_length_a	14.519709
_cell_length_b	9.198806
_cell_length_c	10.723023
_cell_angle_alpha	89.997827
_cell_angle_beta	95.926154
_cell_angle_gamma	89.997805
loop_
_atom_site_label
_atom_site_type_symbol
_atom_site_fract_x
_atom_site_fract_y
_atom_site_fract_z
O1	O	-1.224702	-0.120682	0.163572
O2	O	-0.956324	-0.120730	0.182835
O3	O	-1.096704	-0.120699	-0.008431
O4	O	-1.084322	-0.120713	0.354837
O5	O	-1.096693	0.121086	-0.008431
O6	O	-0.956312	0.121055	0.182834
O7	O	-1.224691	0.121103	0.163571
Cu8	Cu	-1.090501	0.143156	0.173203
Cu9	Cu	-1.090514	-0.142783	0.173203
O10	O	-1.084311	0.121072	0.354837
C11	C	-0.921954	0.000156	0.181937
C12	C	-0.819559	0.000138	0.179247
C13	C	-1.095797	0.000192	-0.054922
C14	C	-1.093102	0.000187	-0.193452
N15	N	-1.090498	0.344270	0.173202
C16	C	-0.444612	0.000199	0.169343
C17	C	-0.548934	0.000182	0.172093
C18	C	-0.632082	0.000167	0.174294
C19	C	-0.736411	0.000153	0.177045
C20	C	-0.259061	0.000210	0.164469
C21	C	-0.361456	0.000208	0.167159
N22	N	-1.090524	-0.343897	0.173194
C23	C	-1.149440	0.416480	0.092543
C24	C	-1.149454	0.583892	0.092538
C25	C	-1.091906	-0.125067	-0.255206
C26	C	-1.089120	-0.125076	-0.398383
C27	C	-1.085217	0.000178	0.401328
C28	C	-1.087913	0.000174	0.539857
H29	H	-1.199889	0.354365	0.023486
F30	F	-1.215419	0.665055	0.002281
F31	F	-1.024565	0.574950	0.263467
H32	H	-1.092941	-0.232296	-0.202077
H33	H	-1.040043	0.406387	0.242249
H34	H	-1.092057	0.107415	-0.246578
F35	F	-1.087783	-0.265244	-0.467794
H36	H	-1.088946	0.107414	-0.407044
