data_functionalizedCrystal
_audit_creation_method	'MofGen! by Chris Wilmer'
_symmetry_space_group_name_H-M	'P1'
_symmetry_Int_Tables_number	1
_symmetry_cell_setting	triclinic
loop_
_symmetry_equiv_pos_as_xyz
  x,y,z
_cell_length_a	16.120530
_cell_length_b	29.839131
_cell_length_c	16.120256
_cell_angle_alpha	92.869474
_cell_angle_beta	90.128265
_cell_angle_gamma	87.136742
loop_
_atom_site_label
_atom_site_type_symbol
_atom_site_fract_x
_atom_site_fract_y
_atom_site_fract_z
Zn1	Zn	1.247310	-0.227608	-0.534531
Zn2	Zn	1.747310	0.272392	-0.034531
Zn3	Zn	1.254220	-0.299123	-0.395461
Zn4	Zn	1.754220	0.200877	0.104539
Zn5	Zn	1.115304	-0.220015	-0.388450
Zn6	Zn	1.615304	0.279985	0.111550
Zn7	Zn	1.108176	-0.298711	-0.527431
Zn8	Zn	1.608176	0.201289	-0.027431
O9	O	1.181252	-0.261364	-0.461468
O10	O	1.681252	0.238636	0.038532
O11	O	1.364591	-0.240445	-0.521989
O12	O	1.864591	0.259555	-0.021989
O13	O	1.241667	-0.285623	-0.278166
O14	O	1.741667	0.214377	0.221834
O15	O	1.132907	-0.158158	-0.407864
O16	O	1.632907	0.341842	0.092136
O17	O	1.369667	-0.292986	-0.419815
O18	O	1.869667	0.207014	0.080185
O19	O	1.229890	-0.163737	-0.515190
O20	O	1.729890	0.336263	-0.015190
O21	O	1.139607	-0.227503	-0.273014
O22	O	1.639607	0.272497	0.226986
O23	O	0.997995	-0.227104	-0.400980
O24	O	1.497995	0.272896	0.099020
O25	O	1.120757	-0.292285	-0.644739
O26	O	1.620757	0.207715	-0.144739
O27	O	0.992757	-0.284921	-0.503089
O28	O	1.492757	0.215079	-0.003089
O29	O	1.222978	-0.240046	-0.649955
O30	O	1.722978	0.259954	-0.149955
O31	O	1.234755	-0.361932	-0.412931
O32	O	1.734755	0.138068	0.087069
O33	O	1.127458	-0.361629	-0.509889
O34	O	1.627458	0.138371	-0.009889
C35	C	0.965204	-0.255144	-0.450504
C36	C	1.465204	0.244856	0.049496
C37	C	0.872776	-0.252495	-0.445833
C38	C	1.372776	0.247505	0.054167
C39	C	0.703550	-0.247647	-0.437312
C40	C	1.203550	0.252353	0.062688
C41	C	0.659793	-0.275116	-0.485685
C42	C	1.159793	0.224884	0.014315
C43	C	0.565629	-0.272419	-0.480944
C44	C	1.065629	0.227581	0.019056
C45	C	0.797722	-0.250343	-0.442052
C46	C	1.297722	0.249657	0.057948
C47	C	1.181104	-0.378081	-0.461419
C48	C	1.681104	0.121919	0.038581
C49	C	1.181116	-0.428016	-0.461430
C50	C	1.681116	0.071984	0.038570
C51	C	1.237215	-0.737814	-0.411065
C52	C	1.737215	-0.237814	0.088935
C53	C	1.237316	-0.925491	-0.411102
C54	C	1.737316	-0.425491	0.088898
O55	O	1.284896	-0.949883	-0.368242
O56	O	1.784896	-0.449883	0.131758
N57	N	1.181422	-0.948813	-0.461540
N58	N	1.681422	-0.448813	0.038460
C59	C	1.125502	-0.925213	-0.511975
C60	C	1.625502	-0.425213	-0.011975
O61	O	1.077968	-0.949356	-0.554882
O62	O	1.577968	-0.449356	-0.054882
C63	C	1.125405	-0.737537	-0.511942
C64	C	1.625405	-0.237537	-0.011942
C65	C	1.181298	-0.714217	-0.461495
C66	C	1.681298	-0.214217	0.038505
C67	C	1.293103	-0.714494	-0.360623
C68	C	1.793103	-0.214494	0.139377
C69	C	1.293075	-0.667578	-0.360611
C70	C	1.793075	-0.167578	0.139389
C71	C	1.237157	-0.643981	-0.411041
C72	C	1.737157	-0.143981	0.088959
C73	C	1.181269	-0.667301	-0.461483
C74	C	1.681269	-0.167301	0.038517
C75	C	1.069490	-0.713938	-0.562381
C76	C	1.569490	-0.213938	-0.062381
C77	C	1.069472	-0.667016	-0.562370
C78	C	1.569472	-0.167016	-0.062370
C79	C	1.125365	-0.643696	-0.511923
C80	C	1.625365	-0.143696	-0.011923
C81	C	1.125323	-0.596787	-0.511900
C82	C	1.625323	-0.096787	-0.011900
N83	N	1.181217	-0.573465	-0.461463
N84	N	1.681217	-0.073465	0.038537
C85	C	1.237134	-0.597062	-0.411033
C86	C	1.737134	-0.097062	0.088967
C87	C	1.125555	-1.023745	-0.511988
C88	C	1.625555	-0.523745	-0.011988
C89	C	1.125578	-1.070664	-0.511996
C90	C	1.625578	-0.570664	-0.011996
C91	C	1.237394	-1.070939	-0.411124
C92	C	1.737394	-0.570939	0.088876
C93	C	1.237366	-1.024019	-0.411112
C94	C	1.737366	-0.524019	0.088888
C95	C	1.181450	-1.000423	-0.461551
C96	C	1.681450	-0.500423	0.038449
C97	C	1.237069	-0.498534	-0.411011
C98	C	1.737069	0.001466	0.088989
C99	C	1.237033	-0.451613	-0.411000
C100	C	1.737033	0.048387	0.089000
C101	C	1.125221	-0.451342	-0.511875
C102	C	1.625221	0.048658	-0.011875
C103	C	1.125254	-0.498259	-0.511883
C104	C	1.625254	0.001741	-0.011883
C105	C	1.181185	-0.521854	-0.461448
C106	C	1.681185	-0.021854	0.038552
O107	O	1.077774	-0.572367	-0.554745
O108	O	1.577774	-0.072367	-0.054745
O109	O	1.284673	-0.572912	-0.368146
O110	O	1.784673	-0.072912	0.131854
C111	C	1.237244	-0.784731	-0.411077
C112	C	1.737244	-0.284731	0.088923
C113	C	1.181355	-0.808050	-0.461519
C114	C	1.681355	-0.308050	0.038481
C115	C	1.125438	-0.784454	-0.511949
C116	C	1.625438	-0.284454	-0.011949
C117	C	1.181378	-0.854969	-0.461527
C118	C	1.681378	-0.354969	0.038473
C119	C	1.237296	-0.878566	-0.411097
C120	C	1.737296	-0.378566	0.088903
C121	C	1.293190	-0.855244	-0.360660
C122	C	1.793190	-0.355244	0.139340
C123	C	1.293161	-0.808327	-0.360647
C124	C	1.793161	-0.308327	0.139353
C125	C	1.069544	-0.807775	-0.562386
C126	C	1.569544	-0.307775	-0.062386
C127	C	1.069577	-0.854692	-0.562394
C128	C	1.569577	-0.354692	-0.062394
C129	C	1.125494	-0.878289	-0.511964
C130	C	1.625494	-0.378289	-0.011964
C131	C	1.398145	-0.267609	-0.472476
C132	C	1.898145	0.232391	0.027524
C133	C	1.490571	-0.270270	-0.477167
C134	C	1.990571	0.229730	0.022833
C135	C	1.170302	-0.266967	-0.678362
C136	C	1.670302	0.233033	-0.178362
C137	C	1.165635	-0.269354	-0.770790
C138	C	1.665635	0.230646	-0.270790
C139	C	1.181423	-0.144192	-0.461537
C140	C	1.681423	0.355808	0.038463
C141	C	1.181495	-0.094261	-0.461566
C142	C	1.681495	0.405739	0.038434
C143	C	1.205586	-0.248902	-0.983777
C144	C	1.705586	0.251098	-0.483777
C145	C	1.157088	-0.273694	-0.940009
C146	C	1.657088	0.226306	-0.440009
C147	C	1.161845	-0.271278	-0.845847
C148	C	1.661845	0.228722	-0.345847
C149	C	1.200830	-0.251317	-1.077948
C150	C	1.700830	0.248683	-0.577948
C151	C	1.192208	-0.255752	-0.245420
C152	C	1.692208	0.244248	0.254580
C153	C	1.197036	-0.253243	-0.153002
C154	C	1.697036	0.246757	0.346998
H155	H	1.282547	-0.432628	-0.369918
H156	H	1.782547	0.067372	0.130082
C157	C	0.704711	-0.309626	-0.546437
C158	C	1.204711	0.190374	-0.046437
H159	H	0.664872	-0.326505	-0.576167
H160	H	1.164872	0.173495	-0.076167
H161	H	0.740172	-0.329299	-0.516229
H162	H	1.240172	0.170701	-0.016229
H163	H	0.736795	-0.294360	-0.584407
H164	H	1.236795	0.205640	-0.084407
H165	H	1.250676	-0.225866	-0.950532
H166	H	1.750676	0.274134	-0.450532
H167	H	1.338674	-0.789344	-0.319569
H168	H	1.838674	-0.289344	0.180431
H169	H	1.080058	-1.089646	-0.553066
H170	H	1.580058	-0.589646	-0.053066
C171	C	0.658628	-0.213147	-0.376553
C172	C	1.158628	0.286853	0.123447
H173	H	0.600316	-0.215842	-0.381294
H174	H	1.100316	0.284158	0.118706
H175	H	0.672228	-0.183686	-0.389516
H176	H	1.172228	0.316314	0.110484
H177	H	0.675611	-0.218636	-0.321357
H178	H	1.175611	0.281364	0.178643
H179	H	1.111990	-0.296729	-0.973256
H180	H	1.611990	0.203271	-0.473256
C181	C	1.298586	-0.524481	-0.355528
C182	C	1.798586	-0.024481	0.144472
H183	H	1.331857	-0.503868	-0.325482
H184	H	1.831857	-0.003868	0.174518
H185	H	1.333201	-0.544622	-0.389198
H186	H	1.833201	-0.044622	0.110802
H187	H	1.268641	-0.540957	-0.317656
H188	H	1.768641	-0.040957	0.182344
C189	C	1.354566	-0.641932	-0.305130
C190	C	1.854566	-0.141932	0.194870
H191	H	1.387874	-0.662712	-0.275108
H192	H	1.887874	-0.162712	0.224892
H193	H	1.324619	-0.621802	-0.267250
H194	H	1.824619	-0.121802	0.232750
H195	H	1.389159	-0.625470	-0.338810
H196	H	1.889159	-0.125470	0.161190
H197	H	1.338642	-0.733702	-0.319557
H198	H	1.838642	-0.233702	0.180443
C199	C	1.008013	-0.739580	-0.617880
C200	C	1.508013	-0.239580	-0.117880
H201	H	0.974721	-0.718801	-0.647916
H202	H	1.474721	-0.218801	-0.147916
H203	H	0.973416	-0.756048	-0.584221
H204	H	1.473416	-0.256048	-0.084221
H205	H	1.037980	-0.759706	-0.655759
H206	H	1.537980	-0.259706	-0.155759
C207	C	1.298853	-0.998372	-0.355629
C208	C	1.798853	-0.498372	0.144371
H209	H	1.332159	-1.019149	-0.325602
H210	H	1.832159	-0.519149	0.174398
H211	H	1.268901	-0.978241	-0.317754
H212	H	1.768901	-0.478241	0.182246
H213	H	1.333449	-0.981910	-0.389308
H214	H	1.833449	-0.481910	0.110692
C215	C	1.354696	-0.881207	-0.305187
C216	C	1.854696	-0.381207	0.194813
H217	H	1.346705	-0.912489	-0.312429
H218	H	1.846705	-0.412489	0.187571
H219	H	1.345394	-0.871747	-0.248687
H220	H	1.845394	-0.371747	0.251313
H221	H	1.409941	-0.875408	-0.320242
H222	H	1.909941	-0.375408	0.179758
H223	H	1.282924	-1.090159	-0.370062
H224	H	1.782924	-0.590159	0.129938
H225	H	1.080019	-1.004536	-0.553062
H226	H	1.580019	-0.504536	-0.053062
H227	H	1.023939	-0.647807	-0.603445
H228	H	1.523939	-0.147807	-0.103445
C229	C	1.063773	-0.523912	-0.567371
C230	C	1.563773	-0.023912	-0.067371
H231	H	1.030470	-0.503137	-0.597406
H232	H	1.530470	-0.003137	-0.097406
H233	H	1.029186	-0.540383	-0.533707
H234	H	1.529186	-0.040383	-0.033707
H235	H	1.093744	-0.544035	-0.605252
H236	H	1.593744	-0.044035	-0.105252
H237	H	1.079691	-0.432122	-0.552932
H238	H	1.579691	0.067878	-0.052932
H239	H	1.024055	-0.873675	-0.603472
H240	H	1.524055	-0.373675	-0.103472
H241	H	1.024010	-0.788566	-0.603453
H242	H	1.524010	-0.288566	-0.103453
