data_functionalizedCrystal
_audit_creation_method	'MofGen! by Chris Wilmer'
_symmetry_space_group_name_H-M	'P1'
_symmetry_Int_Tables_number	1
_symmetry_cell_setting	triclinic
loop_
_symmetry_equiv_pos_as_xyz
  x,y,z
_cell_length_a	10.540539
_cell_length_b	16.109301
_cell_length_c	15.186229
_cell_angle_alpha	89.994833
_cell_angle_beta	89.998698
_cell_angle_gamma	83.993486
loop_
_atom_site_label
_atom_site_type_symbol
_atom_site_fract_x
_atom_site_fract_y
_atom_site_fract_z
O1	O	1.684215	0.117165	-0.073190
O2	O	1.314645	0.128205	-0.073201
O3	O	1.509582	0.001716	-0.073187
O4	O	1.489277	0.243654	-0.073205
O5	O	1.509569	0.001714	0.073271
O6	O	1.314632	0.128203	0.073256
O7	O	1.684202	0.117163	0.073267
Zn8	Zn	1.499415	0.122683	0.096515
Zn9	Zn	1.499432	0.122685	-0.096449
O10	O	1.489264	0.243652	0.073252
C11	C	1.508753	-0.029265	0.000043
C12	C	1.506287	-0.121575	0.000044
C13	C	1.267347	0.127376	0.000026
C14	C	1.126434	0.124899	0.000022
C15	C	1.616226	-0.343175	0.000033
C16	C	1.613899	-0.429910	0.000026
C17	C	1.382612	-0.411450	0.000022
C18	C	1.384940	-0.324717	0.000023
C19	C	1.501751	-0.290582	0.000033
C20	C	1.497096	-0.464050	0.000025
C21	C	1.494572	-0.558091	0.000017
C22	C	1.504275	-0.196535	0.000039
C23	C	0.944360	0.029989	0.000371
C24	C	1.090943	0.032500	0.000032
C25	C	1.064135	0.169366	-0.083612
C26	C	0.917636	0.166213	-0.083673
C27	C	0.917106	0.168090	0.082876
C28	C	1.064075	0.168941	0.083972
C29	C	1.731500	0.117992	0.000038
C30	C	1.872413	0.120469	0.000036
C31	C	1.490093	0.274633	0.000021
C32	C	1.492559	0.366943	0.000014
N33	N	1.499412	0.122681	0.228207
N34	N	1.499444	0.122681	-0.228142
C35	C	1.585760	0.066691	0.453937
C36	C	1.585764	0.066689	0.546126
C37	C	1.413087	0.178673	0.546122
C38	C	1.413078	0.178671	0.453934
C39	C	1.499422	0.122680	0.407844
C40	C	1.499435	0.122681	0.592222
C41	C	1.499439	0.122679	0.692178
C42	C	1.499417	0.122681	0.307882
H43	H	1.707116	-0.472728	0.000024
C44	C	1.015039	-0.043291	0.132083
C45	C	0.906457	-0.019300	0.081333
H46	H	0.991627	-0.073718	0.182067
H47	H	1.075074	-0.077422	0.097729
H48	H	1.052042	0.005002	0.150882
H49	H	0.869459	-0.067593	0.062528
H50	H	0.846400	0.014832	0.115693
H51	H	1.133196	-0.002734	-0.060020
C52	C	0.989663	0.098344	-0.218081
C53	C	0.880184	0.121841	-0.168057
H54	H	0.966545	0.070944	-0.270173
H55	H	1.029449	0.146597	-0.233365
H56	H	1.047236	0.061541	-0.184635
H57	H	0.822615	0.158648	-0.201501
H58	H	0.840379	0.073580	-0.152775
H59	H	1.287509	-0.439253	0.000016
C60	C	1.011676	-0.043563	-0.131873
C61	C	0.904289	-0.019086	-0.080135
H62	H	0.986934	-0.073862	-0.181572
H63	H	1.048852	0.004513	-0.151109
H64	H	1.072063	-0.077952	-0.098028
H65	H	0.843905	0.015309	-0.113978
H66	H	0.867093	-0.067170	-0.060900
H67	H	1.656064	0.021099	0.416412
C68	C	1.156079	-0.315174	0.000029
C69	C	1.259099	-0.266899	0.000026
H70	H	1.078396	-0.279478	0.000034
H71	H	1.159980	-0.349381	-0.051041
H72	H	1.159986	-0.349394	0.051105
H73	H	1.255198	-0.232684	-0.051054
H74	H	1.255197	-0.232678	0.051101
H75	H	1.656067	0.021096	0.583653
H76	H	1.342765	0.224265	0.416403
C77	C	0.944044	0.312258	-0.091846
C78	C	0.851591	0.255916	-0.088826
H79	H	0.903272	0.367634	-0.095039
H80	H	0.995177	0.306271	-0.040279
H81	H	0.996370	0.301087	-0.142278
H82	H	0.799270	0.267083	-0.038389
H83	H	0.800436	0.261906	-0.140397
H84	H	1.134050	-0.002489	0.059985
H85	H	1.107169	0.138478	-0.145850
C86	C	0.983011	0.100621	0.218754
C87	C	0.875205	0.127746	0.168502
H88	H	0.957171	0.075719	0.271626
H89	H	1.036759	0.060819	0.186089
H90	H	1.028205	0.146932	0.232640
H91	H	0.830016	0.081433	0.154610
H92	H	0.821436	0.167550	0.201173
C93	C	1.753034	-0.256360	0.075324
C94	C	1.744623	-0.305655	0.000035
H95	H	1.832308	-0.233204	0.075323
H96	H	1.685202	-0.212625	0.075320
H97	H	1.747317	-0.289825	0.126390
H98	H	1.750331	-0.272188	-0.051032
H99	H	1.812474	-0.349397	0.000031
H100	H	1.085521	0.237222	-0.086729
H101	H	1.342790	0.224261	0.583658
H102	H	1.105495	0.136457	0.145845
C103	C	0.779596	0.271557	0.160564
C104	C	0.852067	0.258185	0.083626
H105	H	0.739447	0.327177	0.161018
H106	H	0.716452	0.233630	0.162404
H107	H	0.833748	0.262946	0.210450
H108	H	0.797914	0.266790	0.033740
H109	H	0.915218	0.296124	0.081777
H110	H	1.087341	0.236306	0.089017
