data_functionalizedCrystal
_audit_creation_method	'MofGen! by Chris Wilmer'
_symmetry_space_group_name_H-M	'P1'
_symmetry_Int_Tables_number	1
_symmetry_cell_setting	triclinic
loop_
_symmetry_equiv_pos_as_xyz
  x,y,z
_cell_length_a	26.374263
_cell_length_b	26.373608
_cell_length_c	26.370205
_cell_angle_alpha	60.005297
_cell_angle_beta	60.010839
_cell_angle_gamma	59.993700
loop_
_atom_site_label
_atom_site_type_symbol
_atom_site_fract_x
_atom_site_fract_y
_atom_site_fract_z
O1	O	0.070152	-0.740800	0.619517
O2	O	0.570152	-0.240800	1.119517
O3	O	0.026377	-0.576764	0.499159
O4	O	0.526377	-0.076764	0.999159
O5	O	0.130245	-0.680560	0.499088
O6	O	0.630245	-0.180560	0.999088
O7	O	-0.033715	-0.637003	0.619589
O8	O	0.466285	-0.137003	1.119589
O9	O	0.164701	-0.646107	0.533470
O10	O	0.664701	-0.146107	1.033470
O11	O	0.060833	-0.542310	0.533541
O12	O	0.560833	-0.042310	1.033541
O13	O	0.104608	-0.706346	0.653899
O14	O	0.604608	-0.206346	1.153899
Cu15	Cu	0.085867	-0.621182	0.596859
Cu16	Cu	0.585867	-0.121182	1.096859
Cu17	Cu	0.045119	-0.661927	0.556199
Cu18	Cu	0.545119	-0.161927	1.056199
O19	O	0.000741	-0.602549	0.653971
O20	O	0.500741	-0.102549	1.153971
N21	N	0.114528	-0.592529	0.625461
N22	N	0.614528	-0.092529	1.125461
N23	N	0.016463	-0.690587	0.527598
N24	N	0.516463	-0.190587	1.027598
C25	C	0.181428	-0.355400	0.692330
C26	C	0.681428	0.144600	1.192330
C27	C	0.181530	-0.525690	0.862573
C28	C	0.681530	-0.025690	1.362573
C29	C	0.181440	-0.525667	0.692313
C30	C	0.681440	-0.025667	1.192313
C31	C	0.351736	-0.525673	0.692271
C32	C	0.851736	-0.025673	1.192271
C33	C	0.200174	-0.411588	0.711047
C34	C	0.700174	0.088412	1.211047
C35	C	0.200232	-0.506954	0.806384
C36	C	0.700232	-0.006954	1.306384
C37	C	0.295546	-0.506943	0.711016
C38	C	0.795546	-0.006943	1.211016
C39	C	0.200182	-0.506940	0.711037
C40	C	0.700182	-0.006940	1.211037
C41	C	0.157567	-0.283881	0.668507
C42	C	0.657567	0.216119	1.168507
C43	C	0.157587	-0.549500	0.668479
C44	C	0.657587	-0.049500	1.168479
C45	C	0.224035	-0.483107	0.734871
C46	C	0.724035	0.016893	1.234871
C47	C	0.455739	-0.507754	0.637520
C48	C	0.955739	-0.007754	1.137520
C49	C	0.520749	-0.529425	0.615835
C50	C	1.020749	-0.029425	1.115835
C51	C	0.520768	-0.634611	0.655947
C52	C	1.020768	-0.134611	1.155947
C53	C	0.455759	-0.612939	0.677633
C54	C	0.955759	-0.112939	1.177633
C55	C	0.173240	-0.251367	0.604595
C56	C	0.673240	0.248633	1.104595
C57	C	0.151546	-0.186351	0.582941
C58	C	0.651546	0.313649	1.082941
C59	C	0.098512	-0.186369	0.689113
C60	C	0.598512	0.313631	1.189113
C61	C	0.120206	-0.251385	0.710768
C62	C	0.620206	0.248615	1.210768
C63	C	0.093669	-0.533798	0.684205
C64	C	0.593669	-0.033798	1.184205
C65	C	0.071992	-0.555464	0.662532
C66	C	0.571992	-0.055464	1.162532
C67	C	0.178144	-0.608536	0.609422
C68	C	0.678144	-0.108536	1.109422
C69	C	0.199825	-0.586869	0.631088
C70	C	0.699825	-0.086869	1.131088
C71	C	0.093821	-0.533842	0.966616
C72	C	0.593821	-0.033842	1.466616
C73	C	0.072187	-0.555526	1.031630
C74	C	0.572187	-0.055526	1.531630
C75	C	0.178370	-0.608608	1.031591
C76	C	0.678370	-0.108608	1.531591
C77	C	0.200004	-0.586926	0.966576
C78	C	0.700004	-0.086926	1.466576
C79	C	0.157728	-0.549541	0.934090
C80	C	0.657728	-0.049541	1.434090
C81	C	0.423247	-0.549509	0.668416
C82	C	0.923247	-0.049509	1.168416
C83	C	-0.097522	-0.709158	0.508557
C84	C	0.402478	-0.209158	1.008557
C85	C	-0.002050	-0.709295	0.413344
C86	C	0.497950	-0.209295	0.913344
C87	C	-0.002241	-0.804604	0.508735
C88	C	0.497759	-0.304604	1.008735
C89	C	-0.002225	-0.709288	0.508793
C90	C	0.497775	-0.209288	1.008793
C91	C	-0.026009	-0.733087	0.484858
C92	C	0.473991	-0.233087	0.984858
N93	N	0.552340	-0.592538	0.625346
N94	N	1.052340	-0.092538	1.125346
O95	O	0.750867	-0.598274	0.477076
O96	O	1.250867	-0.098274	0.977076
O97	O	0.751048	-0.718989	0.640960
O98	O	1.251048	-0.218989	1.140960
O99	O	0.750981	-0.718715	0.537020
O100	O	1.250981	-0.218715	1.037020
O101	O	0.750934	-0.598547	0.581017
O102	O	1.250934	-0.098547	1.081017
O103	O	0.647701	-0.684348	0.571512
O104	O	1.147701	-0.184348	1.071512
O105	O	0.647768	-0.684622	0.675452
O106	O	1.147768	-0.184622	1.175452
O107	O	0.647587	-0.563907	0.511569
O108	O	1.147587	-0.063907	1.011569
Cu109	Cu	0.638247	-0.621127	0.596660
Cu110	Cu	1.138247	-0.121127	1.096660
Cu111	Cu	0.760388	-0.661769	0.555869
Cu112	Cu	1.260388	-0.161769	1.055869
O113	O	0.647654	-0.564181	0.615509
O114	O	1.147654	-0.064181	1.115509
N115	N	0.846295	-0.690358	0.527176
N116	N	1.346295	-0.190358	1.027176
N117	N	0.114503	-0.154778	0.625499
N118	N	0.614503	0.345222	1.125499
O119	O	-0.033701	0.043855	0.619632
O120	O	0.466299	0.543855	1.119632
O121	O	0.130190	0.043858	0.498933
O122	O	0.630190	0.543858	0.998933
O123	O	0.026233	0.043841	0.499224
O124	O	0.526233	0.543841	0.999224
O125	O	0.070257	0.043872	0.619341
O126	O	0.570257	0.543872	1.119341
O127	O	0.060690	-0.059448	0.533654
O128	O	0.560690	0.440552	1.033654
O129	O	0.164647	-0.059431	0.533363
O130	O	0.664647	0.440569	1.033363
O131	O	0.000756	-0.059434	0.654062
O132	O	0.500756	0.440566	1.154062
Cu133	Cu	0.085848	-0.068863	0.596857
Cu134	Cu	0.585848	0.431137	1.096857
Cu135	Cu	0.045099	0.053287	0.556138
Cu136	Cu	0.545099	0.553287	1.056138
O137	O	0.104714	-0.059417	0.653771
O138	O	0.604714	0.440583	1.153771
N139	N	0.016435	0.139202	0.527497
N140	N	0.516435	0.639202	1.027497
N141	N	0.114760	-0.592585	1.063190
N142	N	0.614760	-0.092585	1.563190
O143	O	0.108896	-0.740779	1.261808
O144	O	0.608896	-0.240779	1.761808
O145	O	-0.011787	-0.576838	1.261822
O146	O	0.488213	-0.076838	1.761822
O147	O	-0.011509	-0.680779	1.261780
O148	O	0.488491	-0.180779	1.761780
O149	O	0.108618	-0.636838	1.261850
O150	O	0.608618	-0.136838	1.761850
O151	O	0.022916	-0.646341	1.158496
O152	O	0.522916	-0.146341	1.658496
O153	O	0.022638	-0.542399	1.158538
O154	O	0.522638	-0.042399	1.658538
O155	O	0.143321	-0.706341	1.158524
O156	O	0.643321	-0.206341	1.658524
Cu157	Cu	0.086123	-0.621225	1.149100
Cu158	Cu	0.586123	-0.121225	1.649100
Cu159	Cu	0.045411	-0.661953	1.271246
Cu160	Cu	0.545411	-0.161953	1.771246
O161	O	0.143044	-0.602399	1.158566
O162	O	0.643044	-0.102399	1.658566
N163	N	0.016774	-0.690600	1.357156
N164	N	0.516774	-0.190600	1.857156
C165	C	0.039504	-0.538867	0.499769
C166	C	0.539504	-0.038867	0.999769
C167	C	0.168130	-0.667407	0.499680
C168	C	0.668130	-0.167407	0.999680
C169	C	0.091482	-0.744243	0.653289
C170	C	0.591482	-0.244243	1.153289
C171	C	-0.037145	-0.615703	0.653378
C172	C	0.462855	-0.115703	1.153378
C173	C	0.699429	-0.718429	0.678853
C174	C	1.199429	-0.218429	1.178853
C175	C	0.699348	-0.718091	0.550135
C176	C	1.199348	-0.218091	1.050135
C177	C	0.699202	-0.564465	0.473677
C178	C	1.199202	-0.064465	0.973677
C179	C	0.699287	-0.564805	0.602393
C180	C	1.199287	-0.064805	1.102393
C181	C	0.168023	-0.007659	0.499484
C182	C	0.668023	0.492341	0.999484
C183	C	0.039327	-0.007807	0.499887
C184	C	0.539327	0.492193	0.999887
C185	C	-0.037119	-0.007789	0.653468
C186	C	0.462881	0.492211	1.153468
C187	C	0.091620	-0.007770	0.653109
C188	C	0.591620	0.492230	1.153109
C189	C	-0.011194	-0.538964	1.210181
C190	C	0.488806	-0.038964	1.710181
C191	C	-0.010843	-0.667676	1.210109
C192	C	0.489157	-0.167676	1.710109
C193	C	0.142729	-0.744214	1.210165
C194	C	0.642729	-0.244214	1.710165
C195	C	0.142386	-0.615494	1.210214
C196	C	0.642386	-0.115494	1.710214
H197	H	0.020147	-0.542732	1.058106
H198	H	0.520147	-0.042732	1.558106
C199	C	-0.099904	-0.603252	0.703859
C200	C	0.400096	-0.103252	1.203859
C201	C	-0.110871	-0.553347	0.718069
C202	C	0.389129	-0.053347	1.218069
C203	C	-0.168674	-0.541865	0.764575
C204	C	0.331326	-0.041865	1.264575
H205	H	-0.131550	-0.593386	0.689661
H206	H	0.368450	-0.093386	1.189661
H207	H	-0.100024	-0.639182	0.739973
H208	H	0.399976	-0.139182	1.239973
H209	H	-0.110757	-0.517425	0.681962
H210	H	0.389243	-0.017425	1.181962
H211	H	-0.079240	-0.563199	0.732277
H212	H	0.420760	-0.063199	1.232277
H213	H	-0.168793	-0.577796	0.800689
H214	H	0.331207	-0.077796	1.300689
H215	H	-0.200315	-0.532002	0.750372
H216	H	0.299685	-0.032002	1.250372
H217	H	-0.176120	-0.508008	0.774227
H218	H	0.323880	-0.008008	1.274227
H219	H	0.699278	-0.527058	0.611808
H220	H	1.199278	-0.027058	1.111808
H221	H	-0.084187	-0.007791	0.691362
H222	H	0.415813	0.492209	1.191362
C223	C	0.699526	-0.768896	0.741641
C224	C	1.199526	-0.268896	1.241641
C225	C	0.699549	-0.746640	0.779971
C226	C	1.199549	-0.246640	1.279971
C227	C	0.699647	-0.793115	0.837812
C228	C	1.199647	-0.293115	1.337812
H229	H	0.663537	-0.780235	0.760311
H230	H	1.163537	-0.280235	1.260311
H231	H	0.735574	-0.804178	0.736206
H232	H	1.235574	-0.304178	1.236206
H233	H	0.663504	-0.711369	0.785407
H234	H	1.163504	-0.211369	1.285407
H235	H	0.735535	-0.735305	0.761320
H236	H	1.235535	-0.235305	1.261320
H237	H	0.735695	-0.828397	0.832377
H238	H	1.235695	-0.328397	1.332377
H239	H	0.663658	-0.804451	0.856477
H240	H	1.163658	-0.304451	1.356477
H241	H	0.699668	-0.778023	0.863824
H242	H	1.199668	-0.278023	1.363824
C243	C	0.555920	-0.483988	0.582273
C244	C	1.055920	0.016012	1.082273
C245	C	0.513534	-0.423797	0.578827
C246	C	1.013534	0.076203	1.078827
C247	C	0.545911	-0.381924	0.547903
C248	C	1.045911	0.118076	1.047903
H249	H	0.581301	-0.494782	0.604373
H250	H	1.081301	0.005218	1.104373
H251	H	0.581249	-0.485612	0.541523
H252	H	1.081249	0.014388	1.041523
H253	H	0.488216	-0.422174	0.619570
H254	H	0.988216	0.077826	1.119570
H255	H	0.488152	-0.412983	0.556722
H256	H	0.988152	0.087017	1.056722
H257	H	0.571240	-0.383549	0.507153
H258	H	1.071240	0.116451	1.007153
H259	H	0.571291	-0.392725	0.570006
H260	H	1.071291	0.107275	1.070006
H261	H	0.517158	-0.341080	0.545556
H262	H	1.017158	0.158920	1.045556
C263	C	0.230688	-0.007411	0.448853
C264	C	0.730688	0.492589	0.948853
C265	C	0.258152	-0.060449	0.432118
C266	C	0.758152	0.439551	0.932118
C267	C	0.315885	-0.060251	0.385488
C268	C	0.815885	0.439749	0.885488
H269	H	0.225124	0.028640	0.413619
H270	H	0.725124	0.528640	0.913619
H271	H	0.256792	-0.007360	0.463814
H272	H	0.756792	0.492640	0.963814
H273	H	0.232054	-0.060494	0.417155
H274	H	0.732054	0.439506	0.917155
H275	H	0.263732	-0.096509	0.467337
H276	H	0.763732	0.403491	0.967337
H277	H	0.341989	-0.060201	0.400449
H278	H	0.841989	0.439799	0.900449
H279	H	0.310315	-0.024198	0.350258
H280	H	0.810315	0.475802	0.850258
H281	H	0.334529	-0.096239	0.374131
H282	H	0.834529	0.403761	0.874131
C283	C	0.192692	-0.603043	1.210359
C284	C	0.692692	-0.103043	1.710359
C285	C	0.209239	-0.645339	1.263505
C286	C	0.709239	-0.145339	1.763505
C287	C	0.255574	-0.633882	1.263663
C288	C	0.755574	-0.133882	1.763663
H289	H	0.228057	-0.607690	1.174384
H290	H	0.728057	-0.107690	1.674384
H291	H	0.177528	-0.561931	1.210400
H292	H	0.677528	-0.061931	1.710400
H293	H	0.224405	-0.686441	1.263458
H294	H	0.724405	-0.186441	1.763458
H295	H	0.173889	-0.640699	1.299488
H296	H	0.673889	-0.140699	1.799488
H297	H	0.240410	-0.592770	1.263705
H298	H	0.740410	-0.092770	1.763705
H299	H	0.290934	-0.638529	1.227687
H300	H	0.790934	-0.138529	1.727687
H301	H	0.266802	-0.662574	1.299725
H302	H	0.766802	-0.162574	1.799725
C303	C	0.026664	-0.007871	0.449665
C304	C	0.526664	0.492129	0.949665
C305	C	-0.033956	-0.007901	0.472196
C306	C	0.466044	0.492099	0.972196
C307	C	-0.045636	-0.007978	0.425956
C308	C	0.454364	0.492022	0.925956
H309	H	0.031231	0.028129	0.414309
H310	H	0.531231	0.528129	0.914309
H311	H	0.055291	-0.043913	0.438379
H312	H	0.555291	0.456087	0.938379
H313	H	-0.062575	0.028138	0.483473
H314	H	0.437425	0.528138	0.983473
H315	H	-0.038537	-0.043898	0.507547
H316	H	0.461463	0.456102	1.007547
H317	H	-0.017009	-0.044021	0.414670
H318	H	0.482991	0.455979	0.914670
H319	H	-0.041066	0.028023	0.390602
H320	H	0.458934	0.528023	0.890602
H321	H	-0.086765	-0.008004	0.441238
H322	H	0.413235	0.491996	0.941238
C323	C	0.699337	-0.768339	0.537477
C324	C	1.199337	-0.268339	1.037477
C325	C	0.699268	-0.745813	0.476861
C326	C	1.199268	-0.245813	0.976861
C327	C	0.699249	-0.792080	0.465181
C328	C	1.199249	-0.292080	0.965181
H329	H	0.735367	-0.803670	0.542033
H330	H	1.235367	-0.303670	1.042033
H331	H	0.663330	-0.779665	0.566112
H332	H	1.163330	-0.279665	1.066112
H333	H	0.735271	-0.734495	0.448233
H334	H	1.235271	-0.234495	0.948233
H335	H	0.663240	-0.710487	0.472290
H336	H	1.163240	-0.210487	0.972290
H337	H	0.663242	-0.803407	0.493817
H338	H	1.163242	-0.303407	0.993817
H339	H	0.735280	-0.827409	0.469740
H340	H	1.235280	-0.327409	0.969740
H341	H	0.699197	-0.776801	0.424055
H342	H	1.199197	-0.276801	0.924055
C343	C	-0.061171	-0.680065	1.209926
C344	C	0.438829	-0.180065	1.709926
C345	C	-0.077694	-0.637733	1.156773
C346	C	0.422306	-0.137733	1.656773
C347	C	-0.124060	-0.649122	1.156589
C348	C	0.375940	-0.149122	1.656589
H349	H	-0.046060	-0.721157	1.209872
H350	H	0.453940	-0.221157	1.709872
H351	H	-0.096533	-0.675402	1.245909
H352	H	0.403467	-0.175402	1.745909
H353	H	-0.042338	-0.642402	1.120800
H354	H	0.457662	-0.142402	1.620800
H355	H	-0.092816	-0.596638	1.156816
H356	H	0.407184	-0.096638	1.656816
H357	H	-0.159422	-0.644458	1.192572
H358	H	0.340578	-0.144458	1.692572
H359	H	-0.108944	-0.690214	1.156537
H360	H	0.391056	-0.190214	1.656537
H361	H	-0.135280	-0.620398	1.120528
H362	H	0.364720	-0.120398	1.620528
H363	H	0.100832	-0.791364	0.691090
H364	H	0.600832	-0.291364	1.191090
C365	C	0.104316	-0.007804	0.703363
C366	C	0.604316	0.492196	1.203363
C367	C	0.164950	-0.007819	0.680847
C368	C	0.664950	0.492181	1.180847
C369	C	0.176672	-0.007863	0.727128
C370	C	0.676672	0.492137	1.227128
H371	H	0.075726	0.028202	0.714712
H372	H	0.575726	0.528202	1.214712
H373	H	0.099735	-0.043840	0.738680
H374	H	0.599735	0.456160	1.238680
H375	H	0.169525	0.028213	0.645540
H376	H	0.669525	0.528213	1.145540
H377	H	0.193553	-0.043823	0.669502
H378	H	0.693553	0.456177	1.169502
H379	H	0.172091	-0.043900	0.762445
H380	H	0.672091	0.456100	1.262445
H381	H	0.148079	0.028143	0.738474
H382	H	0.648079	0.528143	1.238474
H383	H	0.217815	-0.007880	0.711859
H384	H	0.717815	0.492120	1.211859
C385	C	-0.061649	-0.476154	1.210216
C386	C	0.438351	0.023846	1.710216
C387	C	-0.039403	-0.437835	1.210256
C388	C	0.460597	0.062165	1.710256
C389	C	-0.085867	-0.379973	1.210296
C390	C	0.414133	0.120027	1.710296
H391	H	-0.072964	-0.457489	1.174201
H392	H	0.427036	0.042511	1.674201
H393	H	-0.096943	-0.481563	1.246241
H394	H	0.403057	0.018437	1.746241
H395	H	-0.004120	-0.432425	1.174234
H396	H	0.495880	0.067575	1.674234
H397	H	-0.028092	-0.456480	1.246267
H398	H	0.471908	0.043520	1.746267
H399	H	-0.121160	-0.385382	1.246321
H400	H	0.378840	0.114618	1.746321
H401	H	-0.097179	-0.361314	1.174281
H402	H	0.402821	0.138686	1.674281
H403	H	-0.070781	-0.353968	1.210329
H404	H	0.429219	0.146032	1.710329
C405	C	0.699155	-0.514016	0.410872
C406	C	1.199155	-0.014016	0.910872
C407	C	0.699157	-0.536280	0.372534
C408	C	1.199157	-0.036280	0.872534
C409	C	0.699120	-0.489825	0.314672
C410	C	1.199120	0.010175	0.814672
H411	H	0.663129	-0.478713	0.416253
H412	H	1.163129	0.021287	0.916253
H413	H	0.735166	-0.502710	0.392241
H414	H	1.235166	-0.002710	0.892241
H415	H	0.663150	-0.547576	0.391161
H416	H	1.163150	-0.047576	0.891161
H417	H	0.735180	-0.571576	0.367135
H418	H	1.235180	-0.071576	0.867135
H419	H	0.735131	-0.478520	0.296041
H420	H	1.235131	0.021480	0.796041
H421	H	0.663093	-0.454526	0.320060
H422	H	1.163093	0.045474	0.820060
H423	H	0.699127	-0.504926	0.288651
H424	H	1.199127	-0.004926	0.788651
H425	H	0.180620	-0.791296	1.210154
H426	H	0.680620	-0.291296	1.710154
H427	H	0.059391	-0.503396	0.940172
H428	H	0.559391	-0.003396	1.440172
H429	H	0.212798	-0.639038	1.058038
H430	H	0.712798	-0.139038	1.558038
H431	H	0.252044	-0.599714	0.940097
H432	H	0.752044	-0.099714	1.440097
H433	H	0.059274	-0.503369	0.714648
H434	H	0.559274	-0.003369	1.214648
H435	H	0.019945	-0.542665	0.675322
H436	H	0.519945	-0.042665	1.175322
C437	C	0.230924	-0.679665	0.449194
C438	C	0.730924	-0.179665	0.949194
C439	C	0.258214	-0.637284	0.432626
C440	C	0.758214	-0.137284	0.932626
C441	C	0.316056	-0.648552	0.386115
C442	C	0.816056	-0.148552	0.886115
H443	H	0.257048	-0.720745	0.464191
H444	H	0.757048	-0.220745	0.964191
H445	H	0.225520	-0.674967	0.413878
H446	H	0.725520	-0.174967	0.913878
H447	H	0.263621	-0.641988	0.467935
H448	H	0.763621	-0.141988	0.967935
H449	H	0.232108	-0.596201	0.417619
H450	H	0.732108	-0.096201	0.917619
H451	H	0.310652	-0.643854	0.350799
H452	H	0.810652	-0.143854	0.850799
H453	H	0.342175	-0.689632	0.401117
H454	H	0.842175	-0.189632	0.901117
H455	H	0.334577	-0.619795	0.374864
H456	H	0.834577	-0.119795	0.874864
C457	C	0.223973	-0.649211	0.568922
C458	C	0.723973	-0.149211	1.068922
C459	C	0.214665	-0.706599	0.598308
C460	C	0.714665	-0.206599	1.098308
C461	C	0.256872	-0.744082	0.561018
C462	C	0.756872	-0.244082	1.061018
H463	H	0.217738	-0.629425	0.529954
H464	H	0.717738	-0.129425	1.029954
H465	H	0.265157	-0.655503	0.562671
H466	H	0.765157	-0.155503	1.062671
H467	H	0.173491	-0.700306	0.604552
H468	H	0.673491	-0.200306	1.104552
H469	H	0.220906	-0.726402	0.637274
H470	H	0.720906	-0.226402	1.137274
H471	H	0.298056	-0.750374	0.554766
H472	H	0.798056	-0.250374	1.054766
H473	H	0.250633	-0.724291	0.522051
H474	H	0.750633	-0.224291	1.022051
H475	H	0.250566	-0.783026	0.580953
H476	H	0.750566	-0.283026	1.080953
C477	C	0.269246	-0.603999	0.613965
C478	C	0.769246	-0.103999	1.113965
C479	C	0.301595	-0.641370	0.576589
C480	C	0.801595	-0.141370	1.076589
C481	C	0.365545	-0.657165	0.560806
C482	C	0.865545	-0.157165	1.060806
H483	H	0.279966	-0.567280	0.591878
H484	H	0.779966	-0.067280	1.091878
H485	H	0.279965	-0.626094	0.650703
H486	H	0.779965	-0.126094	1.150703
H487	H	0.290881	-0.619275	0.539857
H488	H	0.790881	-0.119275	1.039857
H489	H	0.290894	-0.678097	0.598663
H490	H	0.790894	-0.178097	1.098663
H491	H	0.376264	-0.679260	0.597544
H492	H	0.876264	-0.179260	1.097544
H493	H	0.376259	-0.620442	0.538721
H494	H	0.876259	-0.120442	1.038721
H495	H	0.387502	-0.682527	0.535450
H496	H	0.887502	-0.182527	1.035450
H497	H	0.547237	-0.686258	0.663446
H498	H	1.047237	-0.186258	1.163446
C499	C	0.420596	-0.658371	0.711136
C500	C	0.920596	-0.158371	1.211136
C501	C	0.462990	-0.718554	0.714546
C502	C	0.962990	-0.218554	1.214546
C503	C	0.430621	-0.760423	0.745397
C504	C	0.930621	-0.260423	1.245397
H505	H	0.395250	-0.656796	0.751892
H506	H	0.895250	-0.156796	1.251892
H507	H	0.395234	-0.647528	0.688987
H508	H	0.895234	-0.147528	1.188987
H509	H	0.488342	-0.729394	0.736696
H510	H	0.988342	-0.229394	1.236696
H511	H	0.488338	-0.720149	0.673800
H512	H	0.988338	-0.220149	1.173800
H513	H	0.405259	-0.749580	0.723248
H514	H	0.905259	-0.249580	1.223248
H515	H	0.405276	-0.758843	0.786150
H516	H	0.905276	-0.258843	1.286150
H517	H	0.459380	-0.801261	0.747710
H518	H	0.959380	-0.301261	1.247710
H519	H	0.429268	-0.456103	0.630015
H520	H	0.929268	0.043897	1.130015
H521	H	0.164306	-0.159876	0.530897
H522	H	0.664306	0.340124	1.030897
C523	C	0.213768	-0.286535	0.558613
C524	C	0.713768	0.213465	1.058613
C525	C	0.222831	-0.244142	0.498004
C526	C	0.722831	0.255858	0.998004
C527	C	0.260156	-0.276519	0.455631
C528	C	0.760156	0.223481	0.955631
H529	H	0.252779	-0.311897	0.564761
H530	H	0.752779	0.188103	1.064761
H531	H	0.193920	-0.311885	0.564828
H532	H	0.693920	0.188115	1.064828
H533	H	0.242680	-0.218802	0.491791
H534	H	0.742680	0.281198	0.991791
H535	H	0.183832	-0.218778	0.491836
H536	H	0.683832	0.281222	0.991836
H537	H	0.240308	-0.301869	0.461846
H538	H	0.740308	0.198131	0.961846
H539	H	0.299164	-0.301880	0.461784
H540	H	0.799164	0.198120	0.961784
H541	H	0.266305	-0.247760	0.414503
H542	H	0.766305	0.252240	0.914503
H543	H	0.068098	-0.159910	0.723527
H544	H	0.568098	0.340090	1.223527
H545	H	0.107441	-0.277854	0.762810
H546	H	0.607441	0.222146	1.262810
H547	H	0.030155	-0.491745	0.461969
H548	H	0.530155	0.008255	0.961969
