data_functionalizedCrystal
_audit_creation_method	'MofGen! by Chris Wilmer'
_symmetry_space_group_name_H-M	'P1'
_symmetry_Int_Tables_number	1
_symmetry_cell_setting	triclinic
loop_
_symmetry_equiv_pos_as_xyz
  x,y,z
_cell_length_a	29.839135
_cell_length_b	12.594516
_cell_length_c	12.594510
_cell_angle_alpha	90.032321
_cell_angle_beta	90.024304
_cell_angle_gamma	90.017880
loop_
_atom_site_label
_atom_site_type_symbol
_atom_site_fract_x
_atom_site_fract_y
_atom_site_fract_z
Zn1	Zn	-0.686837	0.423594	-0.601966
Zn2	Zn	-0.186837	0.923594	-0.101966
Zn3	Zn	-0.686791	0.601623	-0.423993
Zn4	Zn	-0.186791	1.101623	0.076007
Zn5	Zn	-0.611708	0.423665	-0.423985
Zn6	Zn	-0.111708	0.923665	0.076015
Zn7	Zn	-0.611701	0.601536	-0.601913
Zn8	Zn	-0.111701	1.101536	-0.101913
O9	O	-0.649259	0.512604	-0.512964
O10	O	-0.149259	1.012604	-0.012964
O11	O	-0.749698	0.447216	-0.578383
O12	O	-0.249698	0.947216	-0.078383
O13	O	-0.676815	0.578082	-0.275046
O14	O	-0.176815	1.078082	0.224954
O15	O	-0.621697	0.274709	-0.447612
O16	O	-0.121697	0.774709	0.052388
O17	O	-0.749664	0.578014	-0.447627
O18	O	-0.249664	1.078014	0.052373
O19	O	-0.676893	0.274657	-0.578374
O20	O	-0.176893	0.774657	-0.078374
O21	O	-0.621652	0.447337	-0.275040
O22	O	-0.121652	0.947337	0.224960
O23	O	-0.548840	0.447253	-0.447562
O24	O	-0.048840	0.947253	0.052438
O25	O	-0.621683	0.577866	-0.750866
O26	O	-0.121683	1.077866	-0.250866
O27	O	-0.548834	0.577935	-0.578285
O28	O	-0.048834	1.077935	-0.078285
O29	O	-0.676886	0.447132	-0.750905
O30	O	-0.176886	0.947132	-0.250905
O31	O	-0.676808	0.750557	-0.447577
O32	O	-0.176808	1.250557	0.052423
O33	O	-0.621639	0.750494	-0.578294
O34	O	-0.121639	1.250494	-0.078294
C35	C	-0.532537	0.512593	-0.512918
C36	C	-0.032537	1.012593	-0.012918
C37	C	-0.482602	0.512614	-0.512923
C38	C	0.017398	1.012614	-0.012923
C39	C	-0.649230	0.789145	-0.512954
C40	C	-0.149230	1.289145	-0.012954
C41	C	-0.649258	0.907451	-0.512985
C42	C	-0.149258	1.407451	-0.012985
C43	C	-0.172973	0.444588	-0.581144
C44	C	0.327027	0.944588	-0.081144
C45	C	0.014700	0.444589	-0.581172
C46	C	0.514700	0.944589	-0.081172
O47	O	0.038952	0.386734	-0.639128
O48	O	0.538952	0.886734	-0.139128
N49	N	0.038183	0.512586	-0.512996
N50	N	0.538183	1.012586	-0.012996
C51	C	0.014745	0.580581	-0.444803
C52	C	0.514745	1.080581	0.055197
O53	O	0.039025	0.638408	-0.386808
O54	O	0.539025	1.138408	0.113192
C55	C	-0.172927	0.580573	-0.444770
C56	C	0.327073	1.080573	0.055230
C57	C	-0.196408	0.512580	-0.512958
C58	C	0.303592	1.012580	-0.012958
C59	C	-0.196454	0.376599	-0.649326
C60	C	0.303546	0.876599	-0.149326
C61	C	-0.243370	0.376604	-0.649322
C62	C	0.256630	0.876604	-0.149322
C63	C	-0.266804	0.444596	-0.581136
C64	C	0.233196	0.944596	-0.081136
C65	C	-0.243323	0.512584	-0.512955
C66	C	0.256677	1.012584	-0.012955
C67	C	-0.196364	0.648563	-0.376572
C68	C	0.303636	1.148563	0.123428
C69	C	-0.243285	0.648553	-0.376568
C70	C	0.256715	1.148553	0.123432
C71	C	-0.266766	0.580560	-0.444757
C72	C	0.233234	1.080560	0.055243
C73	C	-0.313674	0.580581	-0.444765
C74	C	0.186326	1.080581	0.055235
N75	N	-0.337157	0.512585	-0.512942
N76	N	0.162843	1.012585	-0.012942
C77	C	-0.313722	0.444593	-0.581127
C78	C	0.186278	0.944593	-0.081127
C79	C	0.113276	0.580582	-0.444826
C80	C	0.613276	1.080582	0.055174
C81	C	0.160193	0.580586	-0.444836
C82	C	0.660193	1.080586	0.055164
C83	C	0.160145	0.444592	-0.581204
C84	C	0.660145	0.944592	-0.081204
C85	C	0.113226	0.444595	-0.581199
C86	C	0.613226	0.944595	-0.081199
C87	C	0.089792	0.512586	-0.513002
C88	C	0.589792	1.012586	-0.013002
C89	C	-0.412248	0.444607	-0.581115
C90	C	0.087752	0.944607	-0.081115
C91	C	-0.459168	0.444621	-0.581108
C92	C	0.040832	0.944621	-0.081108
C93	C	-0.459115	0.580610	-0.444737
C94	C	0.040885	1.080610	0.055263
C95	C	-0.412199	0.580601	-0.444747
C96	C	0.087801	1.080601	0.055253
C97	C	-0.388767	0.512591	-0.512939
C98	C	0.111233	1.012591	-0.012939
O99	O	-0.337955	0.638398	-0.386831
O100	O	0.162045	1.138398	0.113169
O101	O	-0.338010	0.386757	-0.639097
O102	O	0.161990	0.886757	-0.139097
C103	C	-0.126058	0.444583	-0.581147
C104	C	0.373942	0.944583	-0.081147
C105	C	-0.102577	0.512571	-0.512966
C106	C	0.397423	1.012571	-0.012966
C107	C	-0.126012	0.580564	-0.444780
C108	C	0.373988	1.080564	0.055220
C109	C	-0.055659	0.512575	-0.512975
C110	C	0.444341	1.012575	-0.012975
C111	C	-0.032225	0.444582	-0.581160
C112	C	0.467775	0.944582	-0.081160
C113	C	-0.055708	0.376586	-0.649337
C114	C	0.444292	0.876586	-0.149337
C115	C	-0.102623	0.376591	-0.649333
C116	C	0.397377	0.876591	-0.149333
C117	C	-0.102529	0.648560	-0.376604
C118	C	0.397471	1.148560	0.123396
C119	C	-0.055613	0.648551	-0.376614
C120	C	0.444387	1.148551	0.123386
C121	C	-0.032178	0.580559	-0.444799
C122	C	0.467822	1.080559	0.055201
C123	C	-0.649289	0.512482	-0.790585
C124	C	-0.149289	1.012482	-0.290585
C125	C	-0.649301	0.512429	-0.908891
C126	C	-0.149301	1.012429	-0.408891
C127	C	0.233562	0.512609	-0.513009
C128	C	0.733562	1.012609	-0.013009
C129	C	0.183628	0.512593	-0.513021
C130	C	0.683628	1.012593	-0.013021
C131	C	-0.649301	0.234984	-0.512998
C132	C	-0.149301	0.734984	-0.012998
C133	C	-0.649319	0.116678	-0.513012
C134	C	-0.149319	0.616678	-0.013012
C135	C	-0.619249	0.976708	-0.584032
C136	C	-0.119249	1.476708	-0.084032
C137	C	-0.608303	1.047585	-0.486907
C138	C	-0.108303	1.547585	0.013093
C139	C	-0.660245	1.047373	-0.610126
C140	C	-0.160245	1.547373	-0.110126
C141	C	-0.638291	0.976769	-0.415809
C142	C	-0.138291	1.476769	0.084191
C143	C	-0.690251	0.976552	-0.539093
C144	C	-0.190251	1.476552	-0.039093
C145	C	-0.679321	1.047396	-0.441902
C146	C	-0.179321	1.547396	0.058098
C147	C	-0.679335	0.441318	-0.978165
C148	C	-0.179335	0.941318	-0.478165
C149	C	-0.638361	0.415268	-1.048949
C150	C	-0.138361	0.915268	-0.548949
C151	C	-0.690299	0.538404	-1.048905
C152	C	-0.190299	1.038404	-0.548905
C153	C	-0.608306	0.486330	-0.978117
C154	C	-0.108306	0.986330	-0.478117
C155	C	-0.660272	0.609511	-0.978067
C156	C	-0.160272	1.109511	-0.478067
C157	C	-0.619270	0.583498	-1.048820
C158	C	-0.119270	1.083498	-0.548820
C159	C	-0.649255	0.512650	-0.236423
C160	C	-0.149255	1.012650	0.263577
C161	C	-0.649330	0.512403	-0.118118
C162	C	-0.149330	1.012403	0.381882
H163	H	-0.478284	0.389252	-0.636639
H164	H	0.021716	0.889252	-0.136639
C165	C	-0.641802	0.795018	-0.973223
C166	C	-0.141802	1.295018	-0.473223
C167	C	-0.672801	0.720325	-0.935997
C168	C	-0.172801	1.220325	-0.435997
H169	H	-0.649543	0.863431	-0.947254
H170	H	-0.149543	1.363431	-0.447254
H171	H	-0.612668	0.776647	-0.949023
H172	H	-0.112668	1.276647	-0.449023
H173	H	-0.642179	0.795643	-1.048640
H174	H	-0.142179	1.295643	-0.548640
H175	H	-0.672422	0.719694	-0.860579
H176	H	-0.172422	1.219694	-0.360579
H177	H	-0.701943	0.738701	-0.960191
H178	H	-0.201943	1.238701	-0.460191
C179	C	-0.549771	1.052532	-0.356113
C180	C	-0.049771	1.552532	0.143887
C181	C	-0.561541	1.089711	-0.457100
C182	C	-0.061541	1.589711	0.042900
H183	H	-0.520901	1.078533	-0.337721
H184	H	-0.020901	1.578533	0.162279
H185	H	-0.571080	1.076732	-0.305600
H186	H	-0.071080	1.576732	0.194400
H187	H	-0.549344	0.977115	-0.356537
H188	H	-0.049344	1.477115	0.143463
H189	H	-0.561972	1.165128	-0.456673
H190	H	-0.061972	1.665128	0.043327
H191	H	-0.540227	1.065517	-0.507626
H192	H	-0.040227	1.565517	-0.007626
C193	C	-0.768464	0.493520	-1.055208
C194	C	-0.268464	0.993520	-0.555208
C195	C	-0.737087	0.568088	-1.090879
C196	C	-0.237087	1.068088	-0.590879
H197	H	-0.797349	0.511845	-1.081115
H198	H	-0.297349	1.011845	-0.581115
H199	H	-0.760475	0.425044	-1.080525
H200	H	-0.260475	0.925044	-0.580525
H201	H	-0.768851	0.493116	-0.979790
H202	H	-0.268851	0.993116	-0.479790
H203	H	-0.736698	0.568487	-1.166298
H204	H	-0.236698	1.068487	-0.666298
H205	H	-0.745079	0.636583	-1.065568
H206	H	-0.245079	1.136583	-0.565568
H207	H	-0.036499	0.703930	-0.321089
H208	H	0.463501	1.203930	0.178911
C209	C	-0.745988	1.150141	-0.413089
C210	C	-0.245988	1.650141	0.086911
C211	C	-0.713615	1.089048	-0.360722
C212	C	-0.213615	1.589048	0.139278
H213	H	-0.767159	1.175852	-0.362969
H214	H	-0.267159	1.675852	0.137031
H215	H	-0.731884	1.208407	-0.447351
H216	H	-0.231884	1.708407	0.052649
H217	H	-0.760883	1.107588	-0.464449
H218	H	-0.260883	1.607588	0.035551
H219	H	-0.698718	1.131604	-0.309367
H220	H	-0.198718	1.631604	0.190633
H221	H	-0.727720	1.030774	-0.326443
H222	H	-0.227720	1.530774	0.173557
H223	H	-0.393175	0.389224	-0.636641
H224	H	0.106825	0.889224	-0.136641
H225	H	-0.573636	0.464253	-0.947153
H226	H	-0.073636	0.964253	-0.447153
C227	C	-0.511865	0.723750	-0.429704
C228	C	-0.011865	1.223750	0.070296
C229	C	-0.484883	0.655340	-0.369788
C230	C	0.015117	1.155340	0.130212
H231	H	-0.527776	0.769875	-0.383427
H232	H	-0.027776	1.269875	0.116573
H233	H	-0.493566	0.764525	-0.475991
H234	H	0.006434	1.264525	0.024009
H235	H	-0.532558	0.683241	-0.470314
H236	H	-0.032558	1.183241	0.029686
H237	H	-0.464187	0.695849	-0.329184
H238	H	0.035813	1.195849	0.170816
H239	H	-0.503183	0.614561	-0.323482
H240	H	-0.003183	1.114561	0.176518
H241	H	-0.036619	0.321228	-0.704859
H242	H	0.463381	0.821228	-0.204859
H243	H	-0.262484	0.321235	-0.704846
H244	H	0.237516	0.821235	-0.204846
H245	H	-0.593826	0.945669	-0.644027
H246	H	-0.093826	1.445669	-0.144027
C247	C	-0.201227	0.242195	-0.784126
C248	C	0.298773	0.742195	-0.284126
C249	C	-0.170700	0.301859	-0.724291
C250	C	0.329300	0.801859	-0.224291
H251	H	-0.185329	0.196061	-0.830418
H252	H	0.314671	0.696061	-0.330418
H253	H	-0.219518	0.201430	-0.737812
H254	H	0.280482	0.701430	-0.237812
H255	H	-0.219532	0.288635	-0.824741
H256	H	0.280468	0.788635	-0.324741
H257	H	-0.152397	0.255420	-0.683669
H258	H	0.347603	0.755420	-0.183669
H259	H	-0.152401	0.342628	-0.770610
H260	H	0.347599	0.842628	-0.270610
H261	H	0.094111	0.389227	-0.636722
H262	H	0.594111	0.889227	-0.136722
H263	H	-0.628983	0.945883	-0.333646
H264	H	-0.128983	1.445883	0.166354
C265	C	-0.753945	0.873260	-0.485236
C266	C	-0.253945	1.373260	0.014764
C267	C	-0.737003	0.934398	-0.568929
C268	C	-0.237003	1.434398	-0.068929
H269	H	-0.782809	0.847243	-0.503663
H270	H	-0.282809	1.347243	-0.003663
H271	H	-0.734411	0.815202	-0.472090
H272	H	-0.234411	1.315202	0.027910
H273	H	-0.756111	0.915881	-0.423198
H274	H	-0.256111	1.415881	0.076802
H275	H	-0.734833	0.891775	-0.630965
H276	H	-0.234833	1.391775	-0.130965
H277	H	-0.756542	0.992465	-0.582088
H278	H	-0.256542	1.492465	-0.082088
H279	H	-0.669513	1.078388	-0.692266
H280	H	-0.169513	1.578388	-0.192266
H281	H	-0.704689	0.381146	-0.947137
H282	H	-0.204689	0.881146	-0.447137
H283	H	-0.629092	0.333157	-1.080085
H284	H	-0.129092	0.833157	-0.580085
C285	C	0.232049	0.384215	-0.641747
C286	C	0.732049	0.884215	-0.141747
C287	C	0.185910	0.369847	-0.656150
C288	C	0.685910	0.869847	-0.156150
H289	H	0.247956	0.338064	-0.688005
H290	H	0.747956	0.838064	-0.188005
H291	H	0.239739	0.455738	-0.657217
H292	H	0.739739	0.955738	-0.157217
H293	H	0.239743	0.368569	-0.570252
H294	H	0.739743	0.868569	-0.070252
H295	H	0.178215	0.385501	-0.727643
H296	H	0.678215	0.885501	-0.227643
H297	H	0.178217	0.298308	-0.640688
H298	H	0.678217	0.798308	-0.140688
H299	H	-0.121737	0.321223	-0.704858
H300	H	0.378263	0.821223	-0.204858
H301	H	-0.593854	0.643623	-1.079647
H302	H	-0.093854	1.143623	-0.579647
H303	H	0.094200	0.635952	-0.389290
H304	H	0.594200	1.135952	0.110710
C305	C	0.155517	0.715001	-0.310038
C306	C	0.655517	1.215001	0.189962
C307	C	0.186000	0.655332	-0.369888
C308	C	0.686000	1.155332	0.130112
H309	H	0.171449	0.761140	-0.263760
H310	H	0.671449	1.261140	0.236240
H311	H	0.137215	0.755762	-0.356343
H312	H	0.637215	1.255762	0.143657
H313	H	0.137219	0.668565	-0.269407
H314	H	0.637219	1.168565	0.230593
H315	H	0.204296	0.701769	-0.410525
H316	H	0.704296	1.201769	0.089475
H317	H	0.204310	0.614568	-0.323577
H318	H	0.704310	1.114568	0.176423
H319	H	-0.177254	0.703929	-0.321045
H320	H	0.322746	1.203929	0.178955
H321	H	-0.262363	0.703919	-0.321032
H322	H	0.237637	1.203919	0.178968
H323	H	-0.393080	0.635979	-0.389235
H324	H	0.106920	1.135979	0.110765
C325	C	-0.097758	0.782986	-0.241824
C326	C	0.402242	1.282986	0.258176
C327	C	-0.128283	0.723311	-0.301654
C328	C	0.371717	1.223311	0.198346
H329	H	-0.113658	0.829144	-0.195559
H330	H	0.386342	1.329144	0.304441
H331	H	-0.079460	0.736563	-0.201191
H332	H	0.420540	1.236563	0.298809
H333	H	-0.079460	0.823737	-0.288151
H334	H	0.420540	1.323737	0.211849
H335	H	-0.146580	0.682554	-0.255328
H336	H	0.353420	1.182554	0.244672
H337	H	-0.146589	0.769740	-0.342291
H338	H	0.353411	1.269740	0.157709
