data_functionalizedCrystal
_audit_creation_method	'MofGen! by Chris Wilmer'
_symmetry_space_group_name_H-M	'P1'
_symmetry_Int_Tables_number	1
_symmetry_cell_setting	triclinic
loop_
_symmetry_equiv_pos_as_xyz
  x,y,z
_cell_length_a	14.519731
_cell_length_b	13.596369
_cell_length_c	16.109301
_cell_angle_alpha	89.998185
_cell_angle_beta	96.424833
_cell_angle_gamma	90.006024
loop_
_atom_site_label
_atom_site_type_symbol
_atom_site_fract_x
_atom_site_fract_y
_atom_site_fract_z
O1	O	1.223626	0.081797	-0.109064
O2	O	1.556959	0.415130	0.224269
O3	O	1.890292	0.748463	0.557602
O4	O	0.955124	0.081799	-0.121880
O5	O	1.288457	0.415132	0.211453
O6	O	1.621791	0.748465	0.544786
O7	O	1.096751	0.081788	0.005545
O8	O	1.430084	0.415121	0.338879
O9	O	1.763418	0.748454	0.672212
O10	O	1.081999	0.081808	-0.236490
O11	O	1.415332	0.415141	0.096843
O12	O	1.748666	0.748474	0.430177
O13	O	1.096733	-0.081795	0.005538
O14	O	1.430067	0.251538	0.338872
O15	O	1.763400	0.584871	0.672205
O16	O	0.955107	-0.081784	-0.121887
O17	O	1.288440	0.251549	0.211446
O18	O	1.621773	0.584882	0.544779
O19	O	1.223608	-0.081786	-0.109071
O20	O	1.556942	0.251547	0.224262
O21	O	1.890275	0.584880	0.557595
Zn22	Zn	1.089355	-0.107758	-0.115480
Zn23	Zn	1.422688	0.225576	0.217853
Zn24	Zn	1.756021	0.558909	0.551186
Zn25	Zn	1.089378	0.107770	-0.115471
Zn26	Zn	1.422711	0.441103	0.217862
Zn27	Zn	1.756044	0.774437	0.551196
O28	O	1.081981	-0.081775	-0.236497
O29	O	1.415315	0.251558	0.096836
O30	O	1.748648	0.584891	0.430170
C31	C	0.920757	0.000007	-0.121283
C32	C	1.254091	0.333341	0.212050
C33	C	1.587424	0.666674	0.545383
C34	C	0.818381	0.000008	-0.119484
C35	C	1.151714	0.333341	0.213850
C36	C	1.485048	0.666674	0.547183
C37	C	0.735240	0.000012	-0.118022
C38	C	1.068573	0.333345	0.215312
C39	C	1.401906	0.666678	0.548645
C40	C	0.630935	0.000012	-0.116195
C41	C	0.964268	0.333345	0.217139
C42	C	1.297602	0.666678	0.550472
C43	C	0.547799	0.000012	-0.114745
C44	C	0.881132	0.333345	0.218589
C45	C	1.214466	0.666678	0.551922
C46	C	0.443487	0.000014	-0.112918
C47	C	0.776821	0.333347	0.220416
C48	C	1.110154	0.666680	0.553749
N49	N	1.089346	-0.254849	-0.115486
N50	N	1.422679	0.078484	0.217847
N51	N	1.756012	0.411817	0.551180
C52	C	1.089350	-0.343847	-0.115488
C53	C	1.422684	-0.010514	0.217845
C54	C	1.756017	0.322819	0.551179
C55	C	1.089359	-0.455499	-0.115482
C56	C	1.422693	-0.122165	0.217851
C57	C	1.756026	0.211168	0.551184
C58	C	1.089371	-0.544489	-0.115473
C59	C	1.422705	-0.211156	0.217860
C60	C	1.756038	0.122178	0.551194
C61	C	1.089382	-0.656148	-0.115468
C62	C	1.422715	-0.322814	0.217865
C63	C	1.756049	0.010519	0.551199
C64	C	1.257975	0.000007	-0.109668
C65	C	1.591308	0.333341	0.223665
C66	C	1.924642	0.666674	0.556998
C67	C	1.360352	0.000013	-0.111468
C68	C	1.693685	0.333347	0.221866
C69	C	2.027018	0.666680	0.555199
C70	C	1.096145	-0.000004	0.036518
C71	C	1.429478	0.333329	0.369851
C72	C	1.762811	0.666662	0.703185
C73	C	1.094353	-0.000006	0.128816
C74	C	1.427686	0.333328	0.462150
C75	C	1.761020	0.666661	0.795483
N76	N	1.089394	0.254862	-0.115459
N77	N	1.422727	0.588195	0.217875
N78	N	1.756061	0.921528	0.551208
C79	C	1.082588	0.000019	-0.267469
C80	C	1.415921	0.333352	0.065864
C81	C	1.749254	0.666686	0.399197
C82	C	1.084379	0.000027	-0.359768
C83	C	1.417713	0.333360	-0.026435
C84	C	1.751046	0.666693	0.306899
C85	C	1.174226	0.000009	0.350945
C86	C	1.507559	0.333343	0.684278
C87	C	1.840893	0.666676	1.017612
C88	C	1.172535	0.000017	0.437668
C89	C	1.505869	0.333351	0.771002
C90	C	1.839202	0.666684	1.104335
C91	C	1.004500	0.000015	0.418097
C92	C	1.337833	0.333348	0.751430
C93	C	1.671167	0.666681	1.084763
C94	C	1.006192	0.000014	0.331375
C95	C	1.339525	0.333347	0.664708
C96	C	1.672858	0.666680	0.998041
C97	C	1.091057	0.000006	0.297802
C98	C	1.424391	0.333339	0.631135
C99	C	1.757724	0.666673	0.964468
C100	C	1.087675	0.000015	0.471247
C101	C	1.421009	0.333348	0.804580
C102	C	1.754342	0.666682	1.137913
C103	C	1.085842	0.000024	0.565276
C104	C	1.419175	0.333357	0.898609
C105	C	1.752508	0.666691	1.231943
C106	C	1.092891	-0.000001	0.203766
C107	C	1.426225	0.333332	0.537100
C108	C	1.759558	0.666666	0.870433
H109	H	1.243329	0.000005	0.323613
H110	H	1.576662	0.333338	0.656946
H111	H	1.909996	0.666672	0.990280
H112	H	1.240260	0.000022	0.480935
H113	H	1.573593	0.333356	0.814268
H114	H	1.906927	0.666689	1.147602
H115	H	0.935405	0.000019	0.445443
H116	H	1.268739	0.333352	0.778776
H117	H	1.602072	0.666686	1.112109
H118	H	0.938461	0.000014	0.288103
H119	H	1.271795	0.333347	0.621436
H120	H	1.605128	0.666681	0.954770
