data_functionalizedCrystal
_audit_creation_method	'MofGen! by Chris Wilmer'
_symmetry_space_group_name_H-M	'P1'
_symmetry_Int_Tables_number	1
_symmetry_cell_setting	triclinic
loop_
_symmetry_equiv_pos_as_xyz
  x,y,z
_cell_length_a	17.639044
_cell_length_b	17.637015
_cell_length_c	17.640968
_cell_angle_alpha	109.664735
_cell_angle_beta	92.161917
_cell_angle_gamma	92.205003
loop_
_atom_site_label
_atom_site_type_symbol
_atom_site_fract_x
_atom_site_fract_y
_atom_site_fract_z
Zn1	Zn	1.126269	-0.519356	0.113654
Zn2	Zn	1.065408	-0.669685	-0.036627
Zn3	Zn	0.976008	-0.509182	0.013985
Zn4	Zn	0.975978	-0.619107	0.123871
O5	O	1.035916	-0.579333	0.053721
O6	O	1.218507	-0.564723	0.068262
O7	O	1.028091	-0.665303	-0.138794
O8	O	1.021423	-0.401615	0.044111
O9	O	1.173793	-0.675169	-0.042149
O10	O	1.131819	-0.409090	0.117338
O11	O	0.962409	-0.547382	-0.101610
O12	O	0.875692	-0.498339	0.054018
O13	O	1.021372	-0.588966	0.231396
O14	O	0.875670	-0.579101	0.134751
O15	O	1.131790	-0.515680	0.223890
O16	O	1.028062	-0.771893	-0.032242
O17	O	0.962358	-0.734734	0.085675
C18	C	0.849672	-0.532128	0.100986
C19	C	0.769996	-0.511950	0.121221
C20	C	0.680972	-0.426076	0.207287
C21	C	0.755838	-0.445043	0.188266
C22	C	0.709287	-0.559913	0.073169
C23	C	0.634417	-0.540952	0.092178
C24	C	0.620266	-0.474033	0.159239
C25	C	0.573710	-0.588910	0.044129
C26	C	0.498846	-0.569953	0.063140
C27	C	0.484689	-0.503039	0.130199
C28	C	0.545402	-0.455077	0.178249
C29	C	0.587862	-0.655832	-0.022927
C30	C	0.527156	-0.703790	-0.070976
C31	C	0.452290	-0.684830	-0.051969
C32	C	0.438133	-0.617916	0.015090
C33	C	0.391577	-0.732793	-0.100020
C34	C	0.316713	-0.713836	-0.081009
C35	C	0.363269	-0.598959	0.034100
C36	C	0.988626	-0.781557	0.022345
C37	C	0.968467	-0.868082	0.008932
C38	C	0.882595	-0.986226	-0.048156
C39	C	0.901544	-0.904923	-0.035547
C40	C	1.016470	-0.912537	0.040817
C41	C	0.997532	-0.993843	0.028212
C42	C	0.930594	-1.030681	-0.016274
C43	C	1.045531	-1.038298	0.060093
C44	C	1.026593	-1.119596	0.047492
C45	C	0.959656	-1.156439	0.003010
C46	C	0.911655	-1.111979	-0.028875
C47	C	1.112467	-1.001458	0.104584
C48	C	1.160466	-1.045913	0.136466
C49	C	1.141530	-1.127214	0.123860
C50	C	1.074594	-1.164057	0.079378
C51	C	1.189531	-1.171674	0.155746
C52	C	1.170593	-1.252972	0.143145
C53	C	1.055655	-1.245355	0.066777
C54	C	1.222887	-0.626722	0.006271
C55	C	1.302563	-0.646917	-0.013949
C56	C	1.083367	-0.547816	0.256664
C57	C	1.103588	-0.534385	0.343146
C58	C	1.083413	-0.376321	0.085231
C59	C	1.103654	-0.289810	0.098658
C60	C	0.988703	-0.610681	-0.148435
C61	C	0.968673	-0.623928	-0.234918
C62	C	0.882674	-0.681010	0.647108
C63	C	0.901692	-0.668384	0.728369
C64	C	1.016660	-0.592077	0.720543
C65	C	0.997650	-0.604693	0.639281
C66	C	0.930656	-0.649161	0.602570
C67	C	1.045632	-0.572844	0.594742
C68	C	1.026625	-0.585464	0.513486
C69	C	0.959636	-0.629932	0.476768
C70	C	0.911649	-0.661780	0.521313
C71	C	1.112629	-0.528382	0.631453
C72	C	1.160611	-0.496533	0.586915
C73	C	1.141602	-0.509147	0.505659
C74	C	1.074612	-0.553615	0.468941
C75	C	1.189588	-0.477298	0.461114
C76	C	1.170581	-0.489917	0.379857
C77	C	1.055605	-0.566234	0.387685
H78	H	0.267283	-0.752889	-0.120134
Cl79	Cl	0.345474	-0.514822	0.118397
H80	H	1.070971	-0.882534	0.077041
H81	H	0.805266	-0.405983	0.227396
Cl82	Cl	0.390573	-0.479207	0.154100
Cl83	Cl	0.935742	-0.645802	0.374615
Cl84	Cl	1.273671	-1.125350	0.211683
H85	H	0.862451	-0.868730	-0.061512
H86	H	0.720820	-0.614399	0.018570
H87	H	1.128103	-0.518111	0.697617
H88	H	1.127885	-0.935260	0.114840
Cl89	Cl	1.230936	-1.308864	0.183221
Cl90	Cl	0.798447	-0.736905	0.600953
H91	H	0.944234	-1.222636	-0.007242
H92	H	1.244138	-0.441099	0.491014
H93	H	1.215159	-0.460330	0.616816
Cl94	Cl	0.681979	-0.679665	-0.046824
H95	H	0.538689	-0.758277	-0.125575
H96	H	1.214966	-1.015909	0.172689
H97	H	0.857083	-0.697968	0.491428
H98	H	1.209653	-0.463982	0.343593
Cl99	Cl	0.798448	-1.032546	-0.104094
H100	H	1.001039	-0.602421	0.357800
H101	H	1.071208	-0.555874	0.750444
Cl102	Cl	0.527607	-0.370940	0.262546
Cl103	Cl	0.663178	-0.341938	0.291584
Cl104	Cl	0.841361	-0.708424	0.784360
Cl105	Cl	0.409378	-0.816922	-0.184314
H106	H	1.001150	-1.275352	0.030547
H107	H	0.857150	-1.141976	-0.065106
