data_functionalizedCrystal
_audit_creation_method	'MofGen! by Chris Wilmer'
_symmetry_space_group_name_H-M	'P1'
_symmetry_Int_Tables_number	1
_symmetry_cell_setting	triclinic
loop_
_symmetry_equiv_pos_as_xyz
  x,y,z
_cell_length_a	16.793024
_cell_length_b	16.793047
_cell_length_c	33.586455
_cell_angle_alpha	113.253857
_cell_angle_beta	66.219990
_cell_angle_gamma	112.758327
loop_
_atom_site_label
_atom_site_type_symbol
_atom_site_fract_x
_atom_site_fract_y
_atom_site_fract_z
O1	O	0.005016	-0.570216	-0.583573
O2	O	-0.034529	-0.474528	-0.453458
O3	O	0.114723	-0.474535	-0.528082
O4	O	-0.144235	-0.570209	-0.508949
O5	O	0.108729	-0.346329	-0.530229
O6	O	-0.040523	-0.346322	-0.455605
O7	O	-0.000977	-0.442010	-0.585721
Zn8	Zn	-0.021701	-0.373810	-0.521004
Zn9	Zn	-0.013805	-0.542728	-0.518175
O10	O	-0.150229	-0.442003	-0.511097
C11	C	0.005100	-0.790970	-0.238461
C12	C	0.009223	-0.693065	-0.217557
C13	C	0.003804	-0.645758	-0.241627
C14	C	-0.075059	-0.538459	-0.266316
C15	C	0.049838	-0.422849	-0.250165
C16	C	-0.040584	-0.395375	-0.435637
C17	C	-0.044693	-0.353446	-0.386631
C18	C	-0.039275	-0.401741	-0.363054
C19	C	-0.040566	-0.125547	-0.300731
C20	C	-0.044689	-0.223451	-0.321635
C21	C	-0.039266	-0.270752	-0.297563
C22	C	0.039597	-0.378051	-0.272874
C23	C	-0.085304	-0.493667	-0.289026
C24	C	0.005118	-0.521142	-0.103554
C25	C	0.009231	-0.563064	-0.152559
C26	C	0.003809	-0.514775	-0.176138
C27	C	0.010758	-0.652581	-0.172822
C28	C	0.001010	-0.556371	-0.220792
C29	C	-0.008251	-0.506059	-0.245823
C30	C	-0.046224	-0.263935	-0.366370
C31	C	-0.036476	-0.360146	-0.318399
C32	C	-0.027211	-0.410451	-0.293367
C33	C	0.815184	-0.521162	-0.508596
C34	C	0.717729	-0.563083	-0.506815
C35	C	0.669923	-0.514793	-0.509201
C36	C	0.564072	-0.463272	-0.548285
C37	C	0.445555	-0.498966	-0.486078
C38	C	0.415541	-0.125553	-0.528781
C39	C	0.375032	-0.223457	-0.531493
C40	C	0.423813	-0.270761	-0.529101
C41	C	0.149318	-0.395376	-0.530584
C42	C	0.246774	-0.353455	-0.532364
C43	C	0.294574	-0.401748	-0.529976
C44	C	0.400424	-0.453269	-0.490892
C45	C	0.518948	-0.417572	-0.553101
C46	C	0.548961	-0.790984	-0.510398
C47	C	0.589464	-0.693083	-0.507684
C48	C	0.540690	-0.645776	-0.510078
C49	C	0.678399	-0.652598	-0.506649
C50	C	0.581167	-0.556389	-0.510877
C51	C	0.530434	-0.506073	-0.515170
C52	C	0.286104	-0.263940	-0.532530
C53	C	0.383336	-0.360149	-0.528302
C54	C	0.434062	-0.410467	-0.524008
C55	C	-0.040530	-0.395407	-0.935652
C56	C	-0.044651	-0.353482	-0.886645
C57	C	-0.039242	-0.401770	-0.863061
C58	C	0.039602	-0.453292	-0.810474
C59	C	-0.085288	-0.417587	-0.750981
C60	C	0.005063	-0.791004	-0.738448
C61	C	0.009186	-0.693099	-0.717543
C62	C	0.003779	-0.645796	-0.741620
C63	C	0.005077	-0.521171	-0.603544
C64	C	0.009198	-0.563096	-0.652550
C65	C	0.003786	-0.514804	-0.676131
C66	C	-0.075058	-0.463283	-0.728717
C67	C	0.049835	-0.498991	-0.788214
C68	C	-0.040516	-0.125574	-0.800747
C69	C	-0.044642	-0.223476	-0.821649
C70	C	-0.039232	-0.270782	-0.797575
C71	C	-0.046172	-0.263965	-0.866386
C72	C	-0.036447	-0.360171	-0.818406
C73	C	-0.027197	-0.410486	-0.793373
C74	C	0.010719	-0.652613	-0.672809
C75	C	0.000994	-0.556406	-0.720789
C76	C	-0.008259	-0.506089	-0.745819
O77	O	-0.000965	0.173549	-0.277957
O78	O	-0.040516	-0.085616	-0.325254
O79	O	0.108737	0.059592	-0.327284
O80	O	-0.150219	0.028341	-0.275927
O81	O	0.114753	0.055151	-0.263265
O82	O	-0.034500	-0.090057	-0.261234
O83	O	0.005051	0.169108	-0.213937
Zn84	Zn	-0.013769	0.038820	-0.227421
Zn85	Zn	-0.021696	0.044672	-0.311770
O86	O	-0.144202	0.023900	-0.211907
O87	O	-0.034458	-0.474571	0.046517
O88	O	0.005076	-0.570190	-0.083599
O89	O	-0.144170	-0.570237	-0.008972
O90	O	0.114787	-0.474523	-0.028110
O91	O	-0.150200	-0.442024	-0.011093
O92	O	-0.000954	-0.441976	-0.085720
O93	O	-0.040488	-0.346357	0.044396
Zn94	Zn	-0.021679	-0.373810	-0.020999
Zn95	Zn	-0.013734	-0.542737	-0.018204
O96	O	0.108757	-0.346309	-0.030231
C97	C	-0.850734	0.086244	-0.289716
C98	C	-0.753280	0.087165	-0.312001
C99	C	-0.705462	0.081107	-0.288506
C100	C	-0.599592	0.000085	-0.264184
C101	C	-0.481080	0.121287	-0.283645
C102	C	-0.450996	0.035117	-0.097351
C103	C	-0.410501	0.028587	-0.146852
C104	C	-0.459292	0.034683	-0.169840
C105	C	-0.184802	0.024283	-0.235878
C106	C	-0.282257	0.023363	-0.213592
C107	C	-0.330068	0.029423	-0.237088
C108	C	-0.435938	0.110445	-0.261411
C109	C	-0.554456	-0.010759	-0.241948
C110	C	-0.584541	0.075410	-0.428242
C111	C	-0.625029	0.081943	-0.378743
C112	C	-0.576244	0.075844	-0.355753
C113	C	-0.713963	0.086424	-0.357292
C114	C	-0.616708	0.075351	-0.310510
C115	C	-0.565963	0.065400	-0.286043
C116	C	-0.321573	0.024104	-0.168302
C117	C	-0.418828	0.035176	-0.215083
C118	C	-0.469568	0.045131	-0.239552
O119	O	0.585213	0.169090	-0.504004
O120	O	0.494056	-0.090076	-0.525516
O121	O	0.488081	0.055124	-0.449918
O122	O	0.591189	0.023889	-0.579602
O123	O	0.359978	0.059584	-0.452885
O124	O	0.365953	-0.085616	-0.528483
O125	O	0.457110	0.173550	-0.506971
Zn126	Zn	0.391193	0.044675	-0.518198
Zn127	Zn	0.559974	0.038798	-0.514289
O128	O	0.463086	0.028349	-0.582569
C129	C	0.815354	-0.521094	-0.008709
C130	C	0.717898	-0.563028	-0.006927
C131	C	0.670072	-0.514739	-0.009298
C132	C	0.564182	-0.463204	-0.048354
C133	C	0.445681	-0.498945	0.013847
C134	C	0.415547	-0.125494	-0.028771
C135	C	0.375059	-0.223405	-0.031498
C136	C	0.423859	-0.270708	-0.029121
C137	C	0.149365	-0.395355	-0.030599
C138	C	0.246820	-0.353421	-0.032381
C139	C	0.294640	-0.401713	-0.030008
C140	C	0.400530	-0.453248	0.009048
C141	C	0.519038	-0.417504	-0.053155
C142	C	0.549171	-0.790955	-0.010537
C143	C	0.589653	-0.693047	-0.007809
C144	C	0.540859	-0.645741	-0.010187
C145	C	0.678588	-0.652551	-0.006775
C146	C	0.581317	-0.556344	-0.010973
C147	C	0.530562	-0.506029	-0.015250
C148	C	0.286131	-0.263897	-0.032533
C149	C	0.383402	-0.360104	-0.028335
C150	C	0.434150	-0.410423	-0.024057
O151	O	-0.620614	0.089309	0.052274
O152	O	-0.529507	0.043784	-0.078544
O153	O	-0.523494	0.194833	-0.006033
O154	O	-0.626628	-0.061740	-0.020236
O155	O	-0.395386	0.185419	-0.005549
O156	O	-0.401400	0.034370	-0.078059
O157	O	-0.492507	0.079895	0.052758
Zn158	Zn	-0.426614	0.055638	-0.012574
Zn159	Zn	-0.595401	0.068041	-0.013212
O160	O	-0.498521	-0.071154	-0.019752
C161	C	-0.437537	0.048335	0.402491
C162	C	-0.397043	0.041789	0.352989
C163	C	-0.445822	0.047883	0.329994
C164	C	-0.496646	0.126653	0.277022
C165	C	-0.465894	-0.000633	0.218811
C166	C	-0.837226	0.099430	0.210091
C167	C	-0.739773	0.100339	0.187806
C168	C	-0.691967	0.094287	0.211308
C169	C	-0.571027	0.088563	0.071568
C170	C	-0.611521	0.095108	0.121070
C171	C	-0.562739	0.089011	0.144061
C172	C	-0.511915	0.010241	0.197033
C173	C	-0.542670	0.137531	0.255247
C174	C	-0.171338	0.037467	0.263967
C175	C	-0.268788	0.036555	0.286249
C176	C	-0.316597	0.042611	0.262750
C177	C	-0.308112	0.037305	0.331542
C178	C	-0.405351	0.048369	0.284750
C179	C	-0.456092	0.058317	0.260279
C180	C	-0.700452	0.099593	0.142516
C181	C	-0.603213	0.088528	0.189308
C182	C	-0.552469	0.078578	0.213776
O183	O	-0.040608	-1.085661	-0.825229
O184	O	-0.001018	-0.826491	-0.777938
O185	O	-0.150287	-0.971682	-0.775894
O186	O	0.108661	-0.940470	-0.827272
O187	O	-0.144253	-0.976123	-0.711878
O188	O	0.005016	-0.830932	-0.713922
O189	O	-0.034575	-1.090102	-0.761213
Zn190	Zn	-0.013821	-0.961222	-0.727403
Zn191	Zn	-0.021771	-0.955371	-0.811747
O192	O	0.114695	-0.944911	-0.763256
O193	O	-0.036862	-0.230384	-0.253947
C194	C	-0.115987	-0.202041	-0.227222
H195	H	-0.171766	-0.243574	-0.244184
H196	H	-0.138525	-0.211820	-0.192195
H197	H	-0.101653	-0.127812	-0.223676
H198	H	-0.574318	0.196197	0.271049
H199	H	-0.490116	0.084434	0.126151
H200	H	-0.123559	-0.467696	-0.693740
O201	O	0.317062	-0.447908	0.038071
C202	C	0.322643	-0.405689	0.082782
H203	H	0.394722	-0.362669	0.081922
H204	H	0.274373	-0.361141	0.102179
H205	H	0.303349	-0.459114	0.100400
H206	H	0.088092	-0.309407	-0.275738
O207	O	0.726434	-0.700245	-0.505321
C208	C	0.682737	-0.730102	-0.466033
H209	H	0.608094	-0.732694	-0.453998
H210	H	0.689637	-0.800179	-0.474133
H211	H	0.715143	-0.681579	-0.438201
O212	O	-0.277309	0.043081	0.218612
C213	C	-0.275790	0.123803	0.214224
H214	H	-0.279816	0.177578	0.248317
H215	H	-0.210366	0.147399	0.187964
H216	H	-0.335956	0.111707	0.202840
H217	H	-0.449229	0.177371	-0.300885
O218	O	0.001072	-0.427595	-0.655904
C219	C	-0.079807	-0.418872	-0.655095
H220	H	-0.132558	-0.486955	-0.657565
H221	H	-0.105864	-0.368127	-0.622047
H222	H	-0.066402	-0.394480	-0.685017
O223	O	0.454261	-0.686124	-0.011812
C224	C	0.447713	-0.685536	-0.052242
H225	H	0.517138	-0.679158	-0.078575
H226	H	0.398547	-0.750925	-0.065709
H227	H	0.422158	-0.626053	-0.045133
H228	H	-0.297145	0.029698	-0.274103
H229	H	-0.123560	-0.607102	-0.263443
O230	O	0.001361	-0.686217	-0.785232
C231	C	0.080516	-0.714507	-0.811956
H232	H	0.110362	-0.723052	-0.789310
H233	H	0.063330	-0.781490	-0.838280
H234	H	0.131861	-0.661859	-0.829887
H235	H	-0.142704	-0.524425	-0.305055
O236	O	0.556974	-0.377308	-0.587009
C237	C	0.566469	-0.283956	-0.568201
H238	H	0.567993	-0.262806	-0.531763
H239	H	0.632149	-0.245956	-0.589054
H240	H	0.506947	-0.267618	-0.568579
H241	H	-0.048809	-0.224052	-0.886301
O242	O	0.118340	-0.386022	-0.231053
C243	C	0.168967	-0.301932	-0.239427
H244	H	0.125363	-0.274039	-0.246376
H245	H	0.191633	-0.253156	-0.208517
H246	H	0.230841	-0.310602	-0.270159
O247	O	0.238083	-0.216167	-0.033781
C248	C	0.292489	-0.127750	-0.033655
H249	H	0.366804	-0.126963	-0.046930
H250	H	0.277157	-0.103461	-0.056363
H251	H	0.277501	-0.081331	0.002431
H252	H	-0.754334	0.089615	-0.376700
H253	H	-0.518563	-0.039000	0.162804
H254	H	-0.724884	0.094041	0.248327
H255	H	-0.531920	0.039247	-0.151930
O256	O	-0.532514	0.053191	0.351323
C257	C	-0.590436	-0.020436	0.328433
H258	H	-0.556928	-0.077803	0.308428
H259	H	-0.656826	-0.044074	0.354183
H260	H	-0.604393	0.001032	0.304179
O261	O	-0.744826	0.080623	-0.244372
C262	C	-0.821987	0.006453	-0.240933
H263	H	-0.815525	-0.047521	-0.275000
H264	H	-0.828002	-0.022307	-0.213939
H265	H	-0.884827	0.029211	-0.231080
O266	O	0.510404	-0.230313	-0.527475
C267	C	0.512131	-0.155151	-0.488814
H268	H	0.442856	-0.163942	-0.462427
H269	H	0.565070	-0.149228	-0.473953
H270	H	0.529864	-0.091508	-0.498800
H271	H	0.496488	-0.236853	-0.027824
O272	O	0.255244	-0.488930	-0.029260
C273	C	0.178119	-0.493726	0.008885
H274	H	0.152540	-0.432125	0.020290
H275	H	0.122994	-0.557299	-0.000421
H276	H	0.196455	-0.495631	0.037630
O277	O	-0.036827	-0.230422	-0.753959
C278	C	-0.115947	-0.202074	-0.727227
H279	H	-0.171732	-0.243598	-0.744186
H280	H	-0.138479	-0.211861	-0.692202
H281	H	-0.101610	-0.127843	-0.723677
H282	H	0.001660	-0.441639	-0.159184
H283	H	0.013347	-0.692513	-0.652885
H284	H	0.550886	-0.383867	-0.081621
O285	O	0.407592	-0.539193	0.047764
C286	C	0.325452	-0.603393	0.042693
H287	H	0.326257	-0.625473	0.005814
H288	H	0.316820	-0.664288	0.052755
H289	H	0.266860	-0.572335	0.065408
O290	O	0.647550	-0.468591	-0.577309
C291	C	0.641959	-0.510887	-0.622016
H292	H	0.579508	-0.503403	-0.624396
H293	H	0.704978	-0.478058	-0.646372
H294	H	0.636873	-0.585401	-0.631433
H295	H	-0.365918	0.157102	-0.260160
H296	H	-0.434254	-0.059305	0.203012
O297	O	-0.036843	-0.489026	-0.383301
C298	C	-0.115995	-0.540347	-0.396374
H299	H	-0.145862	-0.494256	-0.400236
H300	H	-0.098800	-0.593451	-0.430101
H301	H	-0.167328	-0.574834	-0.369359
O302	O	-0.488534	0.185465	0.317821
C303	C	-0.396288	0.227472	0.314554
H304	H	-0.355865	0.224505	0.277632
H305	H	-0.387494	0.300759	0.335955
H306	H	-0.370913	0.191121	0.327432
O307	O	0.237846	-0.216325	-0.533700
C308	C	0.160910	-0.213669	-0.495340
H309	H	0.173258	-0.225153	-0.467292
H310	H	0.147270	-0.145104	-0.482880
H311	H	0.099992	-0.268598	-0.504829
H312	H	0.718963	-0.692464	-0.005731
O313	O	-0.153781	-0.377495	-0.731642
C314	C	-0.204411	-0.392864	-0.688911
H315	H	-0.160813	-0.407949	-0.675553
H316	H	-0.227066	-0.330422	-0.664219
H317	H	-0.266292	-0.452646	-0.692406
H318	H	-0.037104	-0.474911	-0.880014
H319	H	-0.267732	0.034117	0.350946
H320	H	-0.740818	0.102779	0.123104
H321	H	-0.048864	-0.224020	-0.386283
O322	O	0.255159	-0.488956	-0.529215
C323	C	0.178029	-0.493723	-0.491070
H324	H	0.152467	-0.432117	-0.479678
H325	H	0.122897	-0.557293	-0.500371
H326	H	0.196354	-0.495615	-0.462318
H327	H	0.001650	-0.679613	-0.278166
O328	O	0.013741	-0.700201	-0.149016
C329	C	-0.062937	-0.702866	-0.110564
H330	H	-0.119195	-0.691379	-0.116654
H331	H	-0.086936	-0.771435	-0.104206
H332	H	-0.044687	-0.647943	-0.079738
H333	H	0.330406	-0.448859	-0.466617
H334	H	0.088099	-0.448874	-0.845454
O335	O	0.118374	-0.539017	-0.807537
C336	C	0.168973	-0.523687	-0.850279
H337	H	0.159280	-0.461088	-0.851343
H338	H	0.243621	-0.513271	-0.856123
H339	H	0.144933	-0.584303	-0.877932
H340	H	0.468064	-0.679625	-0.511379
O341	O	0.407408	-0.539052	-0.452098
C342	C	0.321740	-0.523677	-0.426683
H343	H	0.294828	-0.508594	-0.448382
H344	H	0.273185	-0.586116	-0.415769
H345	H	0.327935	-0.463892	-0.395345
H346	H	0.702857	-0.441654	-0.509785
O347	O	-0.489647	0.070282	-0.377182
C348	C	-0.487950	-0.007119	-0.414769
H349	H	-0.550481	-0.027719	-0.425990
H350	H	-0.424661	0.008174	-0.443858
H351	H	-0.487334	-0.064398	-0.404853
H352	H	-0.669612	-0.046576	-0.265443
O353	O	-0.592403	-0.077782	-0.221459
C354	C	-0.609027	-0.161658	-0.254120
H355	H	-0.562436	-0.155179	-0.289125
H356	H	-0.595654	-0.213876	-0.245682
H357	H	-0.682432	-0.183742	-0.253962
O358	O	-0.273345	0.020181	-0.145217
C359	C	-0.246160	-0.060075	-0.166555
H360	H	-0.245245	-0.085233	-0.203576
H361	H	-0.175576	-0.046610	-0.164748
H362	H	-0.295675	-0.113277	-0.148597
O363	O	0.709377	-0.427441	-0.009911
C364	C	0.734837	-0.376156	0.030011
H365	H	0.743205	-0.422269	0.044612
H366	H	0.801567	-0.323025	0.021780
H367	H	0.680328	-0.341704	0.055921
H368	H	0.634201	-0.467612	-0.072637
