data_functionalizedCrystal
_audit_creation_method	'MofGen! by Chris Wilmer'
_symmetry_space_group_name_H-M	'P1'
_symmetry_Int_Tables_number	1
_symmetry_cell_setting	triclinic
loop_
_symmetry_equiv_pos_as_xyz
  x,y,z
_cell_length_a	19.377369
_cell_length_b	20.875641
_cell_length_c	20.875621
_cell_angle_alpha	87.033363
_cell_angle_beta	47.479875
_cell_angle_gamma	70.001498
loop_
_atom_site_label
_atom_site_type_symbol
_atom_site_fract_x
_atom_site_fract_y
_atom_site_fract_z
Zr1	Zr	0.778288	0.019366	0.490951
O2	O	0.932864	-0.053471	0.360493
O3	O	0.629317	0.023446	0.546941
O4	O	0.786949	-0.086880	0.517027
O5	O	0.766446	0.164641	0.395805
O6	O	0.787406	-0.092475	0.622306
O7	O	0.775232	0.056855	0.390407
O8	O	0.505431	0.104878	0.675816
O9	O	1.048420	-0.032712	0.342295
O10	O	0.688856	0.043058	0.630060
O11	O	0.681958	0.127673	0.555521
O12	O	0.867550	-0.002222	0.520301
O13	O	0.860652	0.082393	0.445762
Zr14	Zr	0.765003	0.182348	0.667469
Zr15	Zr	0.779017	0.010442	0.658859
Zr16	Zr	0.764275	0.191272	0.499561
Zr17	Zr	0.962588	0.052474	0.461927
Zr18	Zr	0.580704	0.149241	0.696492
O19	O	0.913974	0.178268	0.611479
O20	O	0.933899	-0.066159	0.599236
O21	O	0.912939	0.190957	0.372736
O22	O	0.610428	0.255185	0.797926
O23	O	0.630353	0.010757	0.785684
O24	O	0.609392	0.267874	0.559183
O25	O	0.776846	0.037073	0.762614
O26	O	0.756342	0.288594	0.641392
O27	O	0.755886	0.294190	0.536113
O28	O	0.768060	0.144859	0.768013
O29	O	1.048999	-0.039805	0.475760
O30	O	0.494292	0.241520	0.682660
O31	O	0.494871	0.234427	0.816124
O32	O	0.506010	0.097784	0.809280
O33	O	1.037282	0.103930	0.349139
O34	O	1.037861	0.096837	0.482604
O35	O	0.675742	0.203936	0.638118
O36	O	0.682640	0.119321	0.712658
O37	O	0.861333	0.074042	0.602899
O38	O	0.854435	0.158657	0.528359
C39	C	0.541116	0.059445	0.615514
C40	C	0.462876	0.045390	0.627835
C41	C	0.770735	0.112019	0.369183
C42	C	0.770426	0.115808	0.297901
C43	C	0.754117	0.315885	0.589980
C44	C	0.748168	0.388863	0.593635
C45	C	0.187225	0.220215	0.474157
C46	C	0.113612	0.207059	0.485845
C47	C	0.120822	0.118728	0.563659
C48	C	0.194434	0.131878	0.551981
C49	C	0.227630	0.182622	0.507229
C50	C	0.234839	0.094285	0.585053
C51	C	0.308448	0.107432	0.573372
C52	C	0.341653	0.158172	0.528620
C53	C	0.301240	0.195769	0.495548
C54	C	0.201647	0.043538	0.629800
C55	C	0.242052	0.005946	0.662871
C56	C	0.315657	0.019096	0.651196
C57	C	0.348861	0.069835	0.606444
C58	C	0.356070	-0.018501	0.684268
C59	C	0.429679	-0.005354	0.672587
C60	C	0.422471	0.082982	0.594763
C61	C	1.002176	0.142270	0.542906
C62	C	1.080416	0.156325	0.530585
C63	C	0.789174	-0.114171	0.568440
C64	C	0.795123	-0.187149	0.564785
C65	C	0.838647	0.399515	0.538061
C66	C	0.833051	0.468088	0.541493
C67	C	0.736976	0.526008	0.600504
C68	C	0.646490	0.515354	0.656080
C69	C	0.652087	0.446782	0.652643
C70	C	0.710234	0.733625	0.616924
C71	C	0.704644	0.802199	0.620359
C72	C	0.891207	0.754929	0.505770
C73	C	0.896795	0.686358	0.502341
C74	C	0.806309	0.675709	0.557914
N75	N	0.731253	0.596101	0.604016
N76	N	0.812033	0.605618	0.554397
C77	C	0.775124	0.058206	0.261438
C78	C	0.774828	0.061769	0.194465
C79	C	0.769842	0.122932	0.163952
C80	C	0.765140	0.180538	0.200422
C81	C	0.765428	0.176977	0.267398
C82	C	0.768453	0.139952	-0.036036
C83	C	0.768167	0.143508	-0.103019
C84	C	0.777854	0.024739	-0.108970
C85	C	0.778148	0.021181	-0.041995
C86	C	0.773441	0.078789	-0.005528
N87	N	0.769542	0.126574	0.095493
N88	N	0.773733	0.075148	0.062934
C89	C	0.772557	0.089695	0.789237
C90	C	0.772866	0.085906	0.860518
C91	C	0.542026	0.048282	0.825541
C92	C	0.464096	0.030439	0.909143
C93	C	0.523587	0.274472	0.626283
C94	C	0.439398	0.333396	0.642260
C95	C	0.524498	0.263310	0.836311
C96	C	0.440618	0.318445	0.923568
C97	C	1.018794	-0.061596	0.322109
C98	C	1.102673	-0.116731	0.234851
C99	C	1.001265	0.153432	0.332879
C100	C	1.079196	0.171275	0.249276
C101	C	1.019705	-0.072758	0.532136
C102	C	1.103893	-0.131682	0.516160
C103	C	0.430744	-0.017757	0.905288
C104	C	0.357531	-0.034536	0.983833
C105	C	0.317666	-0.003116	1.066232
C106	C	0.351025	0.045082	1.070085
C107	C	0.424242	0.061857	0.991540
C108	C	0.396617	0.400883	0.692878
C109	C	0.317522	0.456256	0.707885
C110	C	0.281205	0.444140	0.672279
C111	C	0.323995	0.376647	0.621654
C112	C	0.403093	0.321276	0.606642
C113	C	0.404828	0.300169	1.003461
C114	C	0.326025	0.351969	1.085454
C115	C	0.283008	0.422044	1.087552
C116	C	0.318806	0.440321	1.007650
C117	C	0.397612	0.388522	0.925658
C118	C	1.138473	-0.098453	0.154957
C119	C	1.217299	-0.150249	0.072961
C120	C	1.260319	-0.220324	0.070862
C121	C	1.224517	-0.238601	0.150765
C122	C	1.145697	-0.186805	0.232758
C123	C	1.112556	0.219465	0.253130
C124	C	1.185790	0.236229	0.174581
C125	C	1.225658	0.204807	0.092181
C126	C	1.192296	0.156612	0.088330
C127	C	1.119068	0.139844	0.166876
C128	C	1.140185	-0.119544	0.551779
C129	C	1.219279	-0.174905	0.536785
C130	C	1.262085	-0.242402	0.486166
C131	C	1.225787	-0.254539	0.450546
C132	C	1.146689	-0.199180	0.465546
H133	H	0.449500	0.124303	0.558322
H134	H	1.103449	-0.041399	0.156650
H135	H	0.401594	0.168872	0.519106
H136	H	0.141715	0.032832	0.639303
F137	F	1.271361	-0.326377	0.396668
H138	H	0.568263	0.562518	0.704125
F139	F	1.094640	-0.047714	0.605655
H140	H	0.782209	-0.028622	-0.017153
H141	H	0.781685	-0.022162	-0.138666
H142	H	0.093788	0.077410	0.600093
H143	H	1.117150	-0.209071	0.436535
H144	H	1.246435	-0.135354	0.007910
H145	H	0.296887	0.337075	1.150505
F146	F	1.107600	-0.206269	0.317785
H147	H	0.906729	0.476755	0.496240
H148	H	1.259554	-0.295662	0.149045
F149	F	1.257900	-0.161973	0.574696
H150	H	1.285285	0.218466	0.028230
F151	F	0.473162	-0.051207	0.817600
H152	H	0.283770	0.497383	1.009371
H153	H	0.330380	-0.073782	0.980679
H154	H	0.439841	0.243113	1.001770
F155	F	1.346271	-0.301313	0.470207
H156	H	1.080100	0.245061	0.320217
F157	F	0.555787	0.435448	0.711790
F158	F	0.472685	-0.045365	0.707785
F159	F	0.320741	-0.072511	0.731884
F160	F	1.344205	-0.275444	-0.016410
H161	H	0.218839	0.464215	1.154320
F162	F	0.762862	0.208609	-0.135490
F163	F	0.271994	0.528082	0.761768
F164	F	0.940905	0.337876	0.475257
F165	F	0.760423	0.238286	0.306207
F166	F	0.999052	0.624718	0.439532
H167	H	0.964875	0.763607	0.460524
H168	H	0.778653	0.014866	0.164778
H169	H	1.212941	0.275475	0.177735
H170	H	0.216798	0.489233	0.684509
F171	F	0.763447	0.201260	0.002768
H172	H	0.294414	0.366791	0.592667
F173	F	1.234734	0.123177	0.000626
H174	H	0.779191	0.008400	0.286273
H175	H	0.437916	0.266325	0.565428
F176	F	0.435690	0.407983	0.840634
H177	H	0.318556	0.070661	1.137185
H178	H	1.091909	0.100606	0.163727
H179	H	0.214255	0.261535	0.437716
F180	F	0.336567	0.249780	0.447924
H181	H	0.080719	0.237674	0.458908
H182	H	0.761073	0.230340	0.175578
H183	H	0.426176	0.410762	0.721876
F184	F	0.602383	0.863843	0.683191
F185	F	0.206717	-0.048060	0.710495
H186	H	0.258048	-0.016781	1.130182
F187	F	0.459723	0.113158	0.995657
F188	F	0.613931	0.722301	0.676070
