data_functionalizedCrystal
_audit_creation_method	'MofGen! by Chris Wilmer'
_symmetry_space_group_name_H-M	'P1'
_symmetry_Int_Tables_number	1
_symmetry_cell_setting	triclinic
loop_
_symmetry_equiv_pos_as_xyz
  x,y,z
_cell_length_a	6.817900
_cell_length_b	14.858565
_cell_length_c	23.753023
_cell_angle_alpha	96.077987
_cell_angle_beta	100.067528
_cell_angle_gamma	104.523916
loop_
_atom_site_label
_atom_site_type_symbol
_atom_site_fract_x
_atom_site_fract_y
_atom_site_fract_z
V1	V	-3.994004	-0.129845	-0.178549
O2	O	-3.976816	0.005031	-0.174986
O3	O	-3.950866	-0.256299	-0.177486
O4	O	-3.928980	-0.128378	-0.256349
O5	O	-3.998854	-0.123775	-0.095578
V6	V	-4.479104	-0.113650	-0.168606
O7	O	-4.251803	-0.165371	-0.200361
O8	O	-4.671503	-0.078124	-0.146795
O9	O	-4.299036	0.012804	-0.169669
O10	O	-4.613689	-0.248526	-0.172169
O11	O	-4.591651	-0.119720	-0.251578
O12	O	-4.320921	-0.115117	-0.090806
C13	C	-3.797685	-0.287109	-0.174710
C14	C	-3.843590	-0.390491	-0.174359
C15	C	-4.011609	-0.769053	-0.173083
C16	C	-3.964852	-0.663725	-0.173438
C17	C	-3.927600	-0.579775	-0.173720
C18	C	-3.880842	-0.474441	-0.174076
C19	C	-3.769766	-0.123932	-0.275306
C20	C	-3.797921	-0.123570	-0.338909
C21	C	-4.014649	-0.206651	-0.741602
C22	C	-4.041138	-0.206325	-0.801365
O23	O	-4.090530	-0.278631	-0.839315
N24	N	-4.012485	-0.120940	-0.822977
C25	C	-3.957360	-0.035877	-0.784823
O26	O	-3.935423	0.036779	-0.808694
C27	C	-3.930886	-0.036204	-0.725062
C28	C	-3.959522	-0.121594	-0.703453
C29	C	-4.043284	-0.292034	-0.719993
C30	C	-4.016792	-0.292360	-0.660234
C31	C	-3.961666	-0.207303	-0.622084
C32	C	-3.933031	-0.121920	-0.643694
C33	C	-3.875776	0.048858	-0.686909
C34	C	-3.849305	0.048522	-0.627144
C35	C	-3.877941	-0.036867	-0.605535
C36	C	-3.851413	-0.037189	-0.545785
N37	N	-3.880065	-0.122574	-0.524173
C38	C	-3.935192	-0.207631	-0.562323
C39	C	-4.012964	-0.035195	-0.910327
C40	C	-4.039422	-0.034866	-0.970088
C41	C	-4.123203	-0.205315	-0.986626
C42	C	-4.096729	-0.205642	-0.926864
C43	C	-4.041616	-0.120580	-0.888715
C44	C	-3.879553	-0.208308	-0.436824
C45	C	-3.853047	-0.208626	-0.377058
C46	C	-3.769280	-0.038179	-0.360526
C47	C	-3.795773	-0.037860	-0.420285
C48	C	-3.850919	-0.122932	-0.458434
O49	O	-3.802031	0.035080	-0.507801
O50	O	-3.957146	-0.280275	-0.538444
C51	C	-4.115559	0.043609	-0.172444
C52	C	-4.048891	0.146990	-0.172798
C53	C	-4.143478	-0.119566	-0.071846
C54	C	-4.094562	-0.119924	-0.008243
H55	H	-3.924453	-0.277583	-0.467878
H56	H	-3.772465	0.031671	-0.437880
O57	O	-3.883933	-0.300732	-0.353756
H58	H	-3.856231	-0.286676	-0.305790
H59	H	-4.040126	-0.361893	-0.642646
H60	H	-4.088178	-0.361302	-0.751049
O61	O	-4.127629	-0.297739	-0.903558
H62	H	-4.170418	-0.356825	-0.940132
O63	O	-4.182693	-0.297061	-1.027779
H64	H	-4.196313	-0.282481	-1.072964
H65	H	-3.804432	0.117792	-0.596085
O66	O	-3.709784	0.053556	-0.319369
H67	H	-3.831556	0.053999	-0.293923
H68	H	-4.016074	0.034667	-0.987675
H69	H	-3.968069	0.034078	-0.879269
O70	O	-3.844768	0.140960	-0.710205
H71	H	-3.801968	0.200041	-0.673629
