data_functionalizedCrystal
_audit_creation_method	'MofGen! by Chris Wilmer'
_symmetry_space_group_name_H-M	'P1'
_symmetry_Int_Tables_number	1
_symmetry_cell_setting	triclinic
loop_
_symmetry_equiv_pos_as_xyz
  x,y,z
_cell_length_a	13.033291
_cell_length_b	13.032868
_cell_length_c	17.077396
_cell_angle_alpha	82.848957
_cell_angle_beta	82.791171
_cell_angle_gamma	74.808427
loop_
_atom_site_label
_atom_site_type_symbol
_atom_site_fract_x
_atom_site_fract_y
_atom_site_fract_z
Zn1	Zn	1.570173	0.216827	-0.614564
Zn2	Zn	1.547467	0.394474	-0.498066
Zn3	Zn	1.392535	0.239401	-0.468489
Zn4	Zn	1.369924	0.416937	-0.614465
O5	O	1.470025	0.316910	-0.548896
O6	O	1.715806	0.221545	-0.611530
O7	O	1.526875	0.373950	-0.384296
O8	O	1.435064	0.087761	-0.475529
O9	O	1.699124	0.352061	-0.525939
O10	O	1.565574	0.071177	-0.582850
O11	O	1.413047	0.260018	-0.362566
O12	O	1.240891	0.281799	-0.475433
O13	O	1.396527	0.390346	-0.724324
O14	O	1.224279	0.412234	-0.582681
O15	O	1.543649	0.243326	-0.724397
O16	O	1.504950	0.546099	-0.525843
O17	O	1.374510	0.562602	-0.611360
C18	C	1.194043	0.351905	-0.525837
C19	C	1.075973	0.366901	-0.515994
C20	C	0.909548	0.324600	-0.543867
C21	C	1.031579	0.309102	-0.554041
C22	C	1.434841	0.592889	-0.571820
C23	C	1.419887	0.710942	-0.581661
C24	C	1.477816	0.755366	-0.543777
C25	C	1.462362	0.877380	-0.553947
C26	C	1.747084	0.281779	-0.572045
C27	C	1.865150	0.266808	-0.581909
C28	C	1.470099	0.316823	-0.753639
C29	C	1.470131	0.316787	-0.840888
C30	C	1.505339	1.039854	-0.525890
C31	C	1.520299	0.921800	-0.516057
C32	C	1.546740	0.240227	-0.881917
C33	C	1.546758	0.240190	-0.963896
C34	C	1.470169	0.316718	-1.004845
C35	C	1.393551	0.393281	-0.963810
C36	C	1.393530	0.393313	-0.881832
C37	C	1.393602	0.393212	-1.134678
C38	C	1.393624	0.393182	-1.216662
C39	C	1.546830	0.240090	-1.216742
C40	C	1.546808	0.240121	-1.134764
C41	C	1.470192	0.316686	-1.093735
C42	C	1.470022	0.316911	-0.344948
C43	C	1.470234	0.316623	-0.257691
H44	H	1.083908	0.248143	-0.594141
H45	H	1.023646	0.427856	-0.475890
H46	H	1.581344	0.869507	-0.476094
H47	H	1.331188	0.455588	-0.997156
C48	C	1.631108	0.155867	-1.261876
N49	N	1.694587	0.092436	-1.295875
C50	C	0.935844	0.184464	-0.636084
N51	N	0.989090	0.122440	-0.676891
C52	C	1.560276	0.684720	-0.489785
N53	N	1.622385	0.631511	-0.449116
H54	H	1.331257	0.455496	-1.250000
C55	C	1.379896	0.948022	-0.607940
N56	N	1.317782	1.001232	-0.648605
C57	C	1.337425	0.781588	-0.635651
N58	N	1.275311	0.834798	-0.676316
C59	C	1.630994	0.156039	-0.836881
N60	N	1.694454	0.092621	-0.802961
C61	C	1.631036	0.155971	-1.009025
N62	N	1.694518	0.092533	-1.043015
C63	C	1.309323	0.477441	-1.089548
N64	N	1.245849	0.540885	-1.055557
H65	H	1.609179	0.177811	-1.101427
H66	H	1.331137	0.455646	-0.848425
H67	H	0.857217	0.385545	-0.503763
