data_functionalizedCrystal
_audit_creation_method	'MofGen! by Chris Wilmer'
_symmetry_space_group_name_H-M	'P1'
_symmetry_Int_Tables_number	1
_symmetry_cell_setting	triclinic
loop_
_symmetry_equiv_pos_as_xyz
  x,y,z
_cell_length_a	16.992695
_cell_length_b	16.992695
_cell_length_c	16.053942
_cell_angle_alpha	92.735587
_cell_angle_beta	87.253752
_cell_angle_gamma	90.668223
loop_
_atom_site_label
_atom_site_type_symbol
_atom_site_fract_x
_atom_site_fract_y
_atom_site_fract_z
O1	O	1.053953	0.163818	-0.069396
O2	O	1.553953	0.663818	0.430604
O3	O	0.825553	0.161986	-0.069405
O4	O	1.325553	0.661986	0.430595
O5	O	0.938837	0.048702	-0.069394
O6	O	1.438837	0.548702	0.430606
O7	O	0.940669	0.277102	-0.069407
O8	O	1.440669	0.777102	0.430593
O9	O	0.932619	0.054898	0.069462
O10	O	1.432619	0.554898	0.569462
O11	O	0.819335	0.168182	0.069451
O12	O	1.319335	0.668182	0.569451
O13	O	1.047735	0.170014	0.069460
O14	O	1.547735	0.670014	0.569460
Zn15	Zn	0.932548	0.170082	0.091501
Zn16	Zn	1.432548	0.670082	0.591501
Zn17	Zn	0.940740	0.161918	-0.091447
Zn18	Zn	1.440740	0.661918	0.408553
O19	O	0.934451	0.283298	0.069449
O20	O	1.434451	0.783298	0.569449
C21	C	0.793084	0.162728	0.000022
C22	C	1.293084	0.662728	0.500022
C23	C	0.705600	0.155700	0.000019
C24	C	1.205600	0.655700	0.500019
C25	C	0.933372	0.022440	0.000034
C26	C	1.433372	0.522440	0.500034
C27	C	0.926344	-0.065045	0.000033
C28	C	1.426344	0.434955	0.500033
C29	C	0.994161	-0.111035	0.000037
C30	C	1.494161	0.388965	0.500037
C31	C	0.987553	-0.193236	0.000029
C32	C	1.487553	0.306764	0.500029
C33	C	0.913125	-0.229445	0.000023
C34	C	1.413125	0.270555	0.500023
C35	C	0.845303	-0.183448	0.000017
C36	C	1.345303	0.316552	0.500017
C37	C	0.851912	-0.101249	0.000019
C38	C	1.351912	0.398751	0.500019
C39	C	0.885732	-0.474760	0.000010
C40	C	1.385732	0.025240	0.500010
C41	C	0.879127	-0.556965	0.000011
C42	C	1.379127	-0.056965	0.500011
C43	C	1.021378	-0.566748	0.000021
C44	C	1.521378	-0.066748	0.500021
C45	C	1.027981	-0.484546	0.000028
C46	C	1.527981	0.015454	0.500028
C47	C	0.960158	-0.438557	0.000018
C48	C	1.460158	0.061443	0.500018
N49	N	0.906369	-0.313467	0.000017
N50	N	1.406369	0.186533	0.500017
N51	N	0.966916	-0.354536	0.000017
N52	N	1.466916	0.145464	0.500017
C53	C	1.080204	0.169272	0.000031
C54	C	1.580204	0.669272	0.500031
C55	C	1.167689	0.176300	0.000029
C56	C	1.667689	0.676300	0.500029
C57	C	1.213680	0.108482	0.000030
C58	C	1.713680	0.608482	0.500030
C59	C	1.295880	0.115091	0.000033
C60	C	1.795880	0.615091	0.500033
C61	C	1.332089	0.189519	0.000028
C62	C	1.832089	0.689519	0.500028
C63	C	1.286092	0.257342	0.000030
C64	C	1.786092	0.757342	0.500030
C65	C	1.203892	0.250732	0.000033
C66	C	1.703892	0.750732	0.500033
C67	C	1.577403	0.216913	0.000023
C68	C	2.077403	0.716913	0.500023
C69	C	1.659609	0.223517	0.000018
C70	C	2.159609	0.723517	0.500018
C71	C	1.669392	0.081266	0.000022
C72	C	2.169392	0.581266	0.500022
C73	C	1.587190	0.074663	0.000020
C74	C	2.087190	0.574663	0.500020
C75	C	1.541200	0.142486	0.000026
C76	C	2.041200	0.642486	0.500026
N77	N	1.416111	0.196276	0.000028
N78	N	1.916111	0.696276	0.500028
N79	N	1.457179	0.135729	0.000032
N80	N	1.957179	0.635729	0.500032
C81	C	0.939916	0.309560	0.000019
C82	C	1.439916	0.809560	0.500019
C83	C	0.946945	0.397044	0.000014
C84	C	1.446945	0.897044	0.500014
N85	N	0.946332	0.156342	-0.216304
N86	N	1.446332	0.656342	0.283696
C87	C	0.975265	0.127559	-0.739921
C88	C	1.475265	0.627559	-0.239921
C89	C	0.971332	0.131465	-0.652516
C90	C	1.471332	0.631465	-0.152516
C91	C	0.919100	0.183469	-0.608834
C92	C	1.419100	0.683469	-0.108834
C93	C	0.870792	0.231564	-0.652560
C94	C	1.370792	0.731564	-0.152560
C95	C	0.874721	0.227653	-0.739963
C96	C	1.374721	0.727653	-0.239963
C97	C	0.901953	0.200527	-0.347433
C98	C	1.401953	0.700527	0.152567
C99	C	0.898029	0.204435	-0.260024
C100	C	1.398029	0.704435	0.239976
C101	C	0.998568	0.104335	-0.259986
C102	C	1.498568	0.604335	0.240014
C103	C	1.002497	0.100432	-0.347391
C104	C	1.502497	0.600432	0.152609
C105	C	0.954186	0.148525	-0.391110
C106	C	1.454186	0.648525	0.108890
N107	N	0.915080	0.187464	-0.519492
N108	N	1.415080	0.687464	-0.019492
N109	N	0.958202	0.144525	-0.480450
N110	N	1.458202	0.644525	0.019550
N111	N	0.926962	0.175652	0.216359
N112	N	1.426962	0.675652	0.716359
H113	H	1.054768	-0.081560	0.000047
H114	H	1.554768	0.418440	0.500047
C115	C	1.051697	0.051431	-0.211894
C116	C	1.551697	0.551431	0.288106
H117	H	1.041874	0.061200	-0.153584
H118	H	1.541874	0.561200	0.346416
H119	H	1.105392	0.062754	-0.226207
H120	H	1.605392	0.562754	0.273793
H121	H	1.040590	-0.002310	-0.226214
H122	H	1.540590	0.497690	0.273786
H123	H	0.830505	-0.437325	0.000002
H124	H	1.330505	0.062675	0.500002
H125	H	1.010663	0.092303	-0.616919
H126	H	1.510663	0.592303	-0.116919
H127	H	1.076595	-0.604201	0.000028
H128	H	1.576595	-0.104201	0.500028
C129	C	0.840527	0.261597	-0.211975
C130	C	1.340527	0.761597	0.288025
H131	H	0.812299	0.289661	-0.250529
H132	H	1.312299	0.789661	0.249471
H133	H	0.869259	0.297752	-0.177856
H134	H	1.369259	0.797752	0.322144
H135	H	0.804525	0.232621	-0.177903
H136	H	1.304525	0.732621	0.322097
H137	H	0.818516	-0.586442	0.000020
H138	H	1.318516	-0.086442	0.500020
H139	H	1.706845	0.026049	0.000019
H140	H	2.206845	0.526049	0.500019
C141	C	1.109849	-0.444718	0.000040
C142	C	1.609849	0.055282	0.500040
H143	H	1.104071	-0.389176	0.000051
H144	H	1.604071	0.110824	0.500051
H145	H	1.140166	-0.462353	-0.048377
H146	H	1.640166	0.037647	0.451623
H147	H	1.135812	-0.458045	0.048473
H148	H	1.635812	0.041955	0.548473
C149	C	1.346467	0.040491	0.000032
C150	C	1.846467	0.540491	0.500032
H151	H	1.313130	-0.004781	0.000026
H152	H	1.813130	0.495219	0.500026
H153	H	1.376570	0.042270	0.048454
H154	H	1.876570	0.542270	0.548454
H155	H	1.380903	0.037954	-0.048396
H156	H	1.880903	0.537954	0.451604
H157	H	1.557716	0.014056	0.000024
H158	H	2.057716	0.514056	0.500024
H159	H	0.862618	0.239687	-0.383023
H160	H	1.362618	0.739687	0.116977
C161	C	1.153303	0.325332	0.000024
C162	C	1.653303	0.825332	0.500024
H163	H	1.186639	0.370605	0.000013
H164	H	1.686639	0.870605	0.500013
H165	H	1.118867	0.327873	0.048446
H166	H	1.618867	0.827873	0.548446
H167	H	1.123201	0.323546	-0.048404
H168	H	1.623201	0.823546	0.451596
H169	H	0.796688	-0.063804	0.000016
H170	H	1.296688	0.436196	0.500016
C171	C	0.763434	-0.223275	0.000013
C172	C	1.263434	0.276725	0.500013
H173	H	0.769209	-0.278817	0.000021
H174	H	1.269209	0.221183	0.500021
H175	H	0.737460	-0.209952	-0.048409
H176	H	1.237460	0.290048	0.451591
H177	H	0.733128	-0.205633	0.048441
H178	H	1.233128	0.294367	0.548441
H179	H	1.184205	0.047875	0.000028
H180	H	1.684205	0.547875	0.500028
H181	H	1.689086	0.284129	0.000026
H182	H	2.189086	0.784129	0.500026
H183	H	1.042777	-0.230679	0.000033
H184	H	1.542777	0.269321	0.500033
C185	C	1.526825	0.291516	0.000022
C186	C	2.026825	0.791516	0.500022
H187	H	1.560165	0.336786	0.000010
H188	H	2.060165	0.836786	0.500010
H189	H	1.492391	0.294059	0.048446
H190	H	1.992391	0.794059	0.548446
H191	H	1.496721	0.289734	-0.048404
H192	H	1.996721	0.789734	0.451596
C193	C	1.032719	0.070354	-0.787964
C194	C	1.532719	0.570354	-0.287964
H195	H	1.060917	0.042266	-0.749404
H196	H	1.560917	0.542266	-0.249404
H197	H	1.068740	0.099277	-0.822059
H198	H	1.568740	0.599277	-0.322059
H199	H	1.003940	0.034211	-0.822058
H200	H	1.503940	0.534211	-0.322058
C201	C	1.325919	0.339210	0.000023
C202	C	1.825919	0.839210	0.500023
H203	H	1.381461	0.333435	0.000012
H204	H	1.881461	0.833435	0.500012
H205	H	1.308274	0.369514	0.048443
H206	H	1.808274	0.869514	0.548443
H207	H	1.312600	0.365186	-0.048407
H208	H	1.812600	0.865186	0.451593
C209	C	1.059947	0.043224	-0.395436
C210	C	1.559947	0.543224	0.104564
H211	H	1.088147	0.015134	-0.356879
H212	H	1.588147	0.515134	0.143121
H213	H	1.095966	0.072149	-0.429531
H214	H	1.595966	0.572149	0.070469
H215	H	1.031166	0.007082	-0.429530
H216	H	1.531166	0.507082	0.070470
H217	H	0.828259	0.273903	-0.616989
H218	H	1.328259	0.773903	-0.116989
C219	C	0.821592	0.280559	-0.788056
C220	C	1.321592	0.780559	-0.288056
H221	H	0.789927	0.312096	-0.749523
H222	H	1.289927	0.812096	-0.249523
H223	H	0.788639	0.248582	-0.822155
H224	H	1.288639	0.748582	-0.322155
H225	H	0.853437	0.313651	-0.822150
H226	H	1.353437	0.813651	-0.322150
