data_functionalizedCrystal
_audit_creation_method	'MofGen! by Chris Wilmer'
_symmetry_space_group_name_H-M	'P1'
_symmetry_Int_Tables_number	1
_symmetry_cell_setting	triclinic
loop_
_symmetry_equiv_pos_as_xyz
  x,y,z
_cell_length_a	11.792241
_cell_length_b	10.723024
_cell_length_c	9.198806
_cell_angle_alpha	90.002012
_cell_angle_beta	89.999745
_cell_angle_gamma	84.330643
loop_
_atom_site_label
_atom_site_type_symbol
_atom_site_fract_x
_atom_site_fract_y
_atom_site_fract_z
O1	O	-1.507283	-0.171036	-0.120747
O2	O	-1.176980	-0.188663	-0.120781
O3	O	-1.349750	0.001747	-0.120758
O4	O	-1.334512	-0.361446	-0.120770
O5	O	-1.349736	0.001747	0.121027
O6	O	-1.176966	-0.188663	0.121004
O7	O	-1.507269	-0.171035	0.121038
Cu8	Cu	-1.342116	-0.179849	0.143098
Cu9	Cu	-1.342133	-0.179850	-0.142841
O10	O	-1.334499	-0.361445	0.121015
C11	C	-1.348634	0.048244	0.000133
C12	C	-1.345317	0.186789	0.000127
C13	C	-1.134680	-0.187556	0.000108
C14	C	-1.008659	-0.184242	0.000095
C15	C	-1.549569	-0.172143	0.000146
C16	C	-1.675590	-0.175457	0.000150
C17	C	-0.777933	-0.178147	0.000137
C18	C	-0.906326	-0.181533	0.000114
C19	C	-1.335614	-0.407942	0.000121
C20	C	-1.338932	-0.546488	0.000117
N21	N	-1.342113	-0.179848	0.344212
C22	C	-1.441990	0.262028	0.000135
C23	C	-1.438563	0.405222	0.000130
N24	N	-1.342145	-0.179841	-0.343955
C25	C	-1.414654	-0.099549	0.416419
C26	C	-1.414672	-0.099544	0.583831
H27	H	-1.527292	0.220431	0.000153
C28	C	-1.550374	0.492552	0.000138
C29	C	-1.576527	0.585974	0.125690
C30	C	-1.688342	0.673307	0.125699
C31	C	-1.774005	0.667217	0.000156
C32	C	-1.747855	0.573791	-0.125405
C33	C	-1.636040	0.486458	-0.125414
H34	H	-1.513112	0.590486	0.218633
H35	H	-1.707699	0.742468	0.218649
H36	H	-1.856777	0.731866	0.000163
H37	H	-1.811270	0.569279	-0.218347
H38	H	-1.616682	0.417298	-0.218363
C39	C	-1.230071	0.242968	0.000113
C40	C	-1.145274	0.213488	-0.125448
C41	C	-1.030024	0.269663	-0.125462
C42	C	-0.999572	0.355318	0.000084
C43	C	-1.084372	0.384803	0.125653
C44	C	-1.199621	0.328628	0.125668
H45	H	-1.167814	0.150077	-0.218393
H46	H	-0.967250	0.247835	-0.218418
H47	H	-0.914258	0.396902	0.000073
H48	H	-1.061832	0.448214	0.218598
H49	H	-1.262396	0.350455	0.218624
C50	C	-1.498544	-0.006672	0.332516
C51	C	-1.498301	-0.006688	0.165111
C52	C	-1.582194	0.086192	0.081214
C53	C	-1.666329	0.179088	0.164722
C54	C	-1.666575	0.179107	0.332137
C55	C	-1.582682	0.086227	0.416034
H56	H	-1.436016	-0.075459	0.103284
H57	H	-1.582012	0.086177	-0.042718
H58	H	-1.728432	0.247843	0.102617
H59	H	-1.728859	0.247877	0.393964
H60	H	-1.582864	0.086242	0.539966
C61	C	-1.498578	-0.006665	0.667705
C62	C	-1.495191	0.135423	0.646974
C63	C	-1.579100	0.228306	0.730851
C64	C	-1.666396	0.179101	0.835459
C65	C	-1.669786	0.037007	0.856195
C66	C	-1.585877	-0.055876	0.772318
H67	H	-1.430566	0.171854	0.569533
H68	H	-1.576589	0.333494	0.715501
H69	H	-1.728510	0.247859	0.897550
H70	H	-1.734411	0.000576	0.933636
H71	H	-1.588388	-0.161065	0.787668
C72	C	-1.258235	-0.272724	0.572180
C73	C	-1.171581	-0.223535	0.466644
C74	C	-1.087672	-0.316418	0.382766
C75	C	-1.090417	-0.458490	0.404426
C76	C	-1.177075	-0.507686	0.509967
C77	C	-1.260984	-0.414803	0.593845
H78	H	-1.169545	-0.118358	0.450606
H79	H	-1.023522	-0.279999	0.304637
H80	H	-1.028303	-0.527247	0.342335
H81	H	-1.179111	-0.612863	0.526005
H82	H	-1.325134	-0.451223	0.671974
H83	H	-1.256168	0.388868	0.000120
H84	H	-1.280016	-0.248588	0.406332
