data_functionalizedCrystal
_audit_creation_method	'MofGen! by Chris Wilmer'
_symmetry_space_group_name_H-M	'P1'
_symmetry_Int_Tables_number	1
_symmetry_cell_setting	triclinic
loop_
_symmetry_equiv_pos_as_xyz
  x,y,z
_cell_length_a	18.215407
_cell_length_b	12.759399
_cell_length_c	12.759393
_cell_angle_alpha	90.029806
_cell_angle_beta	90.021764
_cell_angle_gamma	90.015564
loop_
_atom_site_label
_atom_site_type_symbol
_atom_site_fract_x
_atom_site_fract_y
_atom_site_fract_z
Zn1	Zn	1.125136	-0.418214	0.594072
Zn2	Zn	1.125061	-0.593926	0.418391
Zn3	Zn	1.002064	-0.418264	0.418401
Zn4	Zn	1.002055	-0.593853	0.594022
O5	O	1.063579	-0.506064	0.506221
O6	O	1.228110	-0.441533	0.570784
O7	O	1.108718	-0.570676	0.271371
O8	O	1.018425	-0.271236	0.441729
O9	O	1.228055	-0.570628	0.441712
O10	O	1.108845	-0.271200	0.570794
O11	O	1.018353	-0.441617	0.271378
O12	O	0.899079	-0.441546	0.441681
O13	O	1.018410	-0.570503	0.741050
O14	O	0.899072	-0.570551	0.570709
O15	O	1.108837	-0.441462	0.741086
O16	O	1.108709	-0.740938	0.441663
O17	O	1.018337	-0.740884	0.570699
C18	C	0.872373	-0.506046	0.506191
C19	C	0.790574	-0.506064	0.506203
C20	C	0.602396	-0.573343	0.573304
C21	C	0.525537	-0.573346	0.573317
C22	C	0.525514	-0.438805	0.439162
C23	C	0.602372	-0.438797	0.439155
C24	C	0.640811	-0.506072	0.506224
C25	C	0.487094	-0.506083	0.506244
C26	C	0.403761	-0.506086	0.506258
C27	C	0.724150	-0.506068	0.506212
C28	C	1.063534	-0.779032	0.506197
C29	C	1.063582	-0.895808	0.506222
C30	C	1.110692	-0.950663	0.439110
C31	C	1.110740	-1.060387	0.439145
C32	C	1.016560	-1.060392	0.573408
C33	C	1.016517	-0.950670	0.573377
C34	C	1.197605	-1.210265	0.401762
C35	C	1.244709	-1.265123	0.334633
C36	C	1.256032	-1.229581	0.232123
C37	C	1.220240	-1.139182	0.196722
C38	C	1.173131	-1.084329	0.263845
C39	C	1.161822	-1.119869	0.366369
C40	C	0.929651	-0.800791	0.610750
C41	C	0.882537	-0.745935	0.677869
C42	C	0.871207	-0.781476	0.780380
C43	C	0.906985	-0.871878	0.815778
C44	C	0.954099	-0.926733	0.748659
C45	C	0.965431	-0.891186	0.646149
C46	C	1.255532	-0.506083	0.506252
C47	C	1.337331	-0.506091	0.506265
C48	C	1.063631	-0.505969	0.780255
C49	C	1.063652	-0.505928	0.897032
C50	C	1.063645	-0.232031	0.506268
C51	C	1.063672	-0.115254	0.506288
C52	C	1.063570	-0.506084	0.233254
C53	C	1.063691	-0.505829	0.116478
C54	C	1.110708	-0.573099	0.951893
C55	C	1.110730	-0.573047	1.061618
C56	C	1.016633	-0.438650	1.061608
C57	C	1.016616	-0.438698	0.951886
C58	C	1.197536	-0.610531	1.211584
C59	C	1.244585	-0.677719	1.266449
C60	C	1.255853	-0.780250	1.230832
C61	C	1.220060	-0.815614	1.140351
C62	C	1.173006	-0.748432	1.085491
C63	C	1.161752	-0.645887	1.121107
C64	C	0.929809	-0.401224	0.801918
C65	C	0.882750	-0.334047	0.747056
C66	C	0.871475	-0.231514	0.782671
C67	C	0.907254	-0.196153	0.873156
C68	C	0.954313	-0.263331	0.928018
C69	C	0.965589	-0.365863	0.892395
H70	H	1.149017	-0.905998	0.384430
C71	C	0.483230	-0.364821	0.365380
H72	H	0.431954	-0.374468	0.374982
H73	H	0.495837	-0.294245	0.380867
H74	H	0.495804	-0.380126	0.294761
H75	H	1.229231	-0.899111	1.111366
C76	C	1.284085	-1.364550	0.373571
H77	H	1.313754	-1.392135	0.318907
H78	H	1.314116	-1.347533	0.432038
H79	H	1.248670	-1.415333	0.393769
H80	H	0.494263	-0.628123	0.627941
H81	H	0.978240	-1.105073	0.628082
H82	H	1.143991	-1.010726	0.235022
C83	C	0.644631	-0.364798	0.365362
H84	H	0.610732	-0.324743	0.325409
H85	H	0.674632	-0.319067	0.405627
H86	H	0.674592	-0.404939	0.319513
C87	C	0.993463	-1.026168	0.787599
H88	H	0.979974	-1.039477	0.858268
H89	H	0.979634	-1.084080	0.745138
H90	H	1.045073	-1.016279	0.783432
H91	H	0.853409	-0.672320	0.649041
H92	H	1.229457	-1.110257	0.113244
C93	C	1.307608	-0.854155	1.291175
H94	H	1.309188	-0.920290	1.257010
H95	H	1.355521	-0.824800	1.293041
H96	H	1.290034	-0.862980	1.360705
H97	H	0.633691	-0.628119	0.627919
C98	C	0.942118	-0.761695	0.497985
H99	H	0.975308	-0.807304	0.463087
H100	H	0.896655	-0.760726	0.461503
H101	H	0.962096	-0.692934	0.499803
H102	H	1.294386	-1.274254	0.177467
H103	H	1.188397	-1.239205	0.485237
C104	C	0.894527	-0.910975	0.928541
H105	H	0.861350	-0.865353	0.963448
H106	H	0.874550	-0.979731	0.926731
H107	H	0.939997	-0.911941	0.965020
H108	H	0.832841	-0.736803	0.835026
C109	C	0.819707	-0.157619	0.722330
H110	H	0.818117	-0.091491	0.756508
H111	H	0.837270	-0.148791	0.652801
H112	H	0.771792	-0.186981	0.720477
H113	H	1.149014	-0.627833	0.907234
C114	C	1.133639	-0.787320	0.985969
H115	H	1.147088	-0.858008	0.972610
H116	H	1.082033	-0.783060	0.995772
H117	H	1.147526	-0.744888	0.928115
C118	C	1.283960	-0.638816	1.365966
H119	H	1.270524	-0.568120	1.379312
H120	H	1.270085	-0.681240	1.423824
H121	H	1.335569	-0.643077	1.356144
H122	H	1.188374	-0.527039	1.240585
H123	H	0.978337	-0.383915	1.106284
C124	C	0.993676	-0.224432	1.027545
H125	H	0.980227	-0.153743	1.040898
H126	H	0.979805	-0.266867	1.085398
H127	H	1.045286	-0.228674	1.017727
H128	H	0.898073	-0.112663	0.902155
C129	C	0.843387	-0.372946	0.647530
H130	H	0.856847	-0.443630	0.634166
H131	H	0.791781	-0.368704	0.657340
H132	H	0.857263	-0.330507	0.589675
C133	C	0.942220	-0.514009	0.762735
H134	H	0.975379	-0.548948	0.808358
H135	H	0.896736	-0.550433	0.761665
H136	H	0.962216	-0.512223	0.694004
