data_functionalizedCrystal
_audit_creation_method	'MofGen! by Chris Wilmer'
_symmetry_space_group_name_H-M	'P1'
_symmetry_Int_Tables_number	1
_symmetry_cell_setting	triclinic
loop_
_symmetry_equiv_pos_as_xyz
  x,y,z
_cell_length_a	19.288864
_cell_length_b	27.732048
_cell_length_c	18.366186
_cell_angle_alpha	89.988789
_cell_angle_beta	89.977106
_cell_angle_gamma	82.889449
loop_
_atom_site_label
_atom_site_type_symbol
_atom_site_fract_x
_atom_site_fract_y
_atom_site_fract_z
O1	O	0.920977	0.060300	-0.060791
O2	O	0.718665	0.068434	-0.060742
O3	O	0.826104	-0.006011	-0.060754
O4	O	0.813538	0.134745	-0.060779
O5	O	0.826086	-0.006014	0.060345
O6	O	0.718647	0.068430	0.060357
O7	O	0.920959	0.060296	0.060309
Zn8	Zn	0.819800	0.064363	0.079560
Zn9	Zn	0.819824	0.064368	-0.079994
O10	O	0.813520	0.134741	0.060321
C11	C	0.692781	0.068171	-0.000186
C12	C	0.615683	0.067385	-0.000167
C13	C	0.825831	-0.024020	-0.000202
C14	C	0.825037	-0.077678	-0.000196
C15	C	0.570714	0.111066	-0.000186
C16	C	0.498271	0.110328	-0.000194
C17	C	0.470801	0.065906	-0.000197
C18	C	0.515780	0.022219	-0.000174
C19	C	0.588220	0.022959	-0.000159
C20	C	0.362763	0.030987	-0.042642
C21	C	0.290323	0.030250	-0.042662
C22	C	0.247370	0.063624	-0.000241
C23	C	0.276863	0.097744	0.042190
C24	C	0.349304	0.098483	0.042206
C25	C	0.392252	0.065099	-0.000213
C26	C	0.123850	0.106507	-0.000268
C27	C	0.051406	0.105767	-0.000271
C28	C	0.068916	0.017658	-0.000258
C29	C	0.141358	0.018399	-0.000248
C30	C	0.168820	0.062825	-0.000256
C31	C	0.883526	-0.416316	-0.000248
C32	C	0.880579	-0.617985	-0.000257
O33	O	0.934063	-0.649079	-0.000302
N34	N	0.816872	-0.637301	-0.000241
C35	C	0.753897	-0.606196	-0.000227
O36	O	0.699643	-0.627253	-0.000222
C37	C	0.756845	-0.404529	-0.000223
C38	C	0.820556	-0.385216	-0.000232
C39	C	0.947232	-0.397002	-0.000257
C40	C	0.947968	-0.346588	-0.000251
C41	C	0.884998	-0.315488	-0.000235
C42	C	0.821292	-0.334801	-0.000226
C43	C	0.693871	-0.373425	-0.000215
C44	C	0.694614	-0.323006	-0.000216
C45	C	0.758325	-0.303693	-0.000224
C46	C	0.759059	-0.253287	-0.000203
N47	N	0.822766	-0.233971	-0.000219
C48	C	0.885735	-0.265071	-0.000235
C49	C	0.752354	-0.712075	-0.000228
C50	C	0.751617	-0.762492	-0.000228
C51	C	0.878299	-0.774276	-0.000259
C52	C	0.879035	-0.723859	-0.000254
C53	C	0.816061	-0.692759	-0.000244
C54	C	0.887276	-0.159197	-0.000221
C55	C	0.888007	-0.108778	-0.000212
C56	C	0.761325	-0.096998	-0.000185
C57	C	0.760595	-0.147412	-0.000190
C58	C	0.823576	-0.178511	-0.000211
O59	O	0.705603	-0.222164	-0.000167
O60	O	0.939982	-0.244005	-0.000257
C61	C	0.882790	-0.466730	-0.000254
C62	C	0.819084	-0.486044	-0.000245
C63	C	0.756114	-0.454943	-0.000229
C64	C	0.818347	-0.536461	-0.000244
C65	C	0.881317	-0.567561	-0.000260
C66	C	0.945023	-0.548245	-0.000276
C67	C	0.945760	-0.497831	-0.000270
C68	C	0.692407	-0.474260	-0.000213
C69	C	0.691676	-0.524674	-0.000218
C70	C	0.754646	-0.555775	-0.000234
C71	C	0.946842	0.060560	-0.000249
C72	C	1.023941	0.061345	-0.000273
C73	C	0.813792	0.152751	-0.000233
C74	C	0.814587	0.206408	-0.000244
N75	N	0.819789	0.064359	0.188451
N76	N	0.819841	0.064367	-0.188885
C77	C	0.867378	0.031411	0.226546
C78	C	0.867383	0.031409	0.302774
C79	C	0.819804	0.064363	0.340904
C80	C	0.772206	0.097314	0.302800
C81	C	0.772198	0.097312	0.226573
C82	C	0.810231	0.108406	0.461658
C83	C	0.810244	0.108409	0.537883
C84	C	0.819824	0.064369	0.576011
C85	C	0.829406	0.020325	0.537906
C86	C	0.829398	0.020323	0.461679
C87	C	0.819807	0.064369	0.423559
C88	C	0.867421	0.031416	0.696761
C89	C	0.867420	0.031413	0.772991
C90	C	0.772247	0.097322	0.773015
C91	C	0.772244	0.097321	0.696787
C92	C	0.819835	0.064368	0.658665
H93	H	0.461651	0.145899	-0.000207
H94	H	0.493409	-0.013949	-0.000187
O95	O	0.631808	-0.019519	-0.000177
C96	C	0.592033	-0.058887	-0.000160
H97	H	0.537839	-0.046500	-0.023096
H98	H	0.619104	-0.089483	-0.035311
H99	H	0.586992	-0.072513	0.057939
H100	H	0.397731	0.003809	-0.077191
H101	H	0.241891	0.124920	0.076734
O102	O	0.184946	-0.024078	-0.000270
C103	C	0.145169	-0.063445	-0.000255
H104	H	0.090977	-0.051057	-0.023194
H105	H	0.172242	-0.094040	-0.035405
H106	H	0.140125	-0.077071	0.057843
O107	O	0.632000	-0.392203	-0.000085
C108	C	0.627762	-0.421033	0.062619
H109	H	0.663916	-0.409196	0.106458
H110	H	0.571726	-0.416390	0.083672
H111	H	0.644216	-0.460825	0.048432
O112	O	0.948410	-0.189451	-0.000141
C113	C	0.951777	-0.218968	0.062584
H114	H	0.896670	-0.221414	0.083502
H115	H	0.978079	-0.256911	0.048471
H116	H	0.983303	-0.202448	0.106498
H117	H	0.733444	0.124142	0.195556
O118	O	0.631171	-0.444121	-0.000161
C119	C	0.574792	-0.471987	-0.000166
H120	H	0.592843	-0.509658	0.022747
H121	H	0.530699	-0.453311	0.035009
H122	H	0.555242	-0.475527	-0.058259
H123	H	0.802418	0.144270	0.430620
H124	H	0.699737	-0.778212	-0.000208
O125	O	0.801056	0.151179	0.574931
C126	C	0.859965	0.154977	0.619006
H127	H	0.906985	0.130803	0.596017
H128	H	0.871447	0.194321	0.619856
H129	H	0.849098	0.142879	0.676785
O130	O	0.007622	0.148157	-0.000260
C131	C	-0.062206	0.137980	-0.000288
H132	H	-0.064590	0.100021	0.022652
H133	H	-0.095348	0.165836	0.034854
H134	H	-0.083145	0.139853	-0.058390
H135	H	0.701070	-0.686757	-0.000220
H136	H	0.373315	0.126263	0.076757
H137	H	0.939890	-0.093056	-0.000217
H138	H	0.999848	-0.330868	-0.000261
O139	O	0.633457	-0.292776	-0.000333
C140	C	0.630110	-0.263241	-0.063038
H141	H	0.665842	-0.281771	-0.106883
H142	H	0.574102	-0.257456	-0.084081
H143	H	0.647679	-0.226616	-0.048858
O144	O	0.700223	-0.066713	-0.000203
C145	C	0.714543	-0.018074	-0.000185
H146	H	0.769086	-0.016256	-0.023118
H147	H	0.674384	0.004858	-0.035338
H148	H	0.711738	-0.003495	0.057914
O149	O	0.913677	-0.000619	0.339677
C150	C	0.955663	-0.029714	0.289684
H151	H	0.956233	-0.009900	0.235339
H152	H	1.011211	-0.037187	0.311686
H153	H	0.933497	-0.065583	0.281601
O154	O	0.939515	-0.804443	-0.000376
C155	C	0.978222	-0.795710	-0.063118
H156	H	0.960753	-0.757424	-0.084018
H157	H	1.036192	-0.799385	-0.049036
H158	H	0.969020	-0.823260	-0.107035
H159	H	0.906170	0.004583	0.665721
H160	H	0.146211	0.142682	-0.000263
H161	H	0.998512	-0.422320	-0.000273
H162	H	0.930914	-0.708138	-0.000262
H163	H	0.266315	0.002469	-0.077215
O164	O	1.007710	-0.479154	-0.000316
C165	C	1.063123	-0.517423	-0.000313
H166	H	1.044023	-0.551628	-0.023236
H167	H	1.107643	-0.506979	-0.035482
H168	H	1.082512	-0.524607	0.057779
O169	O	1.006175	-0.578481	-0.000422
C170	C	1.009529	-0.607993	-0.063137
H171	H	0.973815	-0.589443	-0.106960
H172	H	1.065543	-0.613780	-0.084206
H173	H	0.991944	-0.644619	-0.048957
H174	H	0.708716	-0.163138	-0.000163
O175	O	0.838589	-0.022450	0.574961
C176	C	0.779685	-0.026245	0.619097
H177	H	0.732666	-0.002064	0.596145
H178	H	0.768192	-0.065587	0.619973
H179	H	0.790564	-0.014155	0.676860
O180	O	0.913388	-0.000685	0.189404
C181	C	0.903064	0.006297	0.113954
H182	H	0.876953	0.044833	0.103467
H183	H	0.955652	0.000588	0.084848
H184	H	0.868241	-0.020882	0.092537
O185	O	0.629826	-0.543488	-0.000307
C186	C	0.625613	-0.572275	-0.063041
H187	H	0.680501	-0.584946	-0.083958
H188	H	0.598277	-0.605233	-0.048942
H189	H	0.594656	-0.549924	-0.106952
O190	O	0.042208	-0.025482	-0.000392
C191	C	0.000850	-0.028539	-0.063108
H192	H	0.017736	-0.003315	-0.106944
H193	H	0.007784	-0.067509	-0.084156
H194	H	-0.056411	-0.017266	-0.048940
H195	H	0.837199	-0.015539	0.430657
O196	O	0.913720	-0.000612	0.809886
C197	C	0.955709	-0.029702	0.759888
H198	H	0.956271	-0.009885	0.705545
H199	H	1.011259	-0.037169	0.781887
H200	H	0.933552	-0.065574	0.751805
O201	O	0.726094	0.129315	0.810158
C202	C	0.736290	0.122242	0.885607
H203	H	0.791707	0.104080	0.895997
H204	H	0.728166	0.158863	0.914569
H205	H	0.697242	0.098066	0.907265
H206	H	0.733495	0.124152	0.665768
O207	O	0.725961	0.129260	0.339917
C208	C	0.683388	0.103448	0.384030
H209	H	0.711463	0.065575	0.395448
H210	H	0.672189	0.123645	0.437631
H211	H	0.632086	0.100253	0.354684
H212	H	0.593069	0.147241	-0.000194
