data_functionalizedCrystal
_audit_creation_method	'MofGen! by Chris Wilmer'
_symmetry_space_group_name_H-M	'P1'
_symmetry_Int_Tables_number	1
_symmetry_cell_setting	triclinic
loop_
_symmetry_equiv_pos_as_xyz
  x,y,z
_cell_length_a	8.597340
_cell_length_b	10.540510
_cell_length_c	7.681481
_cell_angle_alpha	95.796898
_cell_angle_beta	76.525094
_cell_angle_gamma	84.924190
loop_
_atom_site_label
_atom_site_type_symbol
_atom_site_fract_x
_atom_site_fract_y
_atom_site_fract_z
O1	O	2.101822	0.175545	-0.172465
O2	O	1.637989	0.195770	-0.102091
O3	O	1.880512	0.000872	-0.138888
O4	O	1.859299	0.370444	-0.135668
O5	O	1.910362	-0.023171	-0.436275
O6	O	1.667839	0.171727	-0.399478
O7	O	2.131672	0.151502	-0.469852
Zn8	Zn	1.904495	0.157797	-0.481882
Zn9	Zn	1.865166	0.189475	-0.090062
O10	O	1.889149	0.346401	-0.433055
C11	C	1.593521	0.182916	-0.241773
C12	C	1.416548	0.180420	-0.214922
C13	C	1.893856	-0.058442	-0.287338
C14	C	1.889125	-0.199356	-0.286610
C15	C	2.057674	-0.418091	-0.312853
C16	C	2.062651	-0.271477	-0.312939
C17	C	1.783252	-0.229740	-0.103314
C18	C	1.779423	-0.376463	-0.102602
C19	C	1.809754	-0.403587	-0.440238
C20	C	1.818209	-0.257486	-0.443722
C21	C	2.176140	0.164356	-0.330166
C22	C	2.353111	0.166854	-0.357006
C23	C	1.875804	0.405714	-0.284601
C24	C	1.880534	0.546630	-0.285318
N25	N	1.931347	0.136177	-0.749290
N26	N	1.838326	0.211085	0.177345
H27	H	1.434190	0.157139	-0.499199
H28	H	1.335462	0.190125	-0.072720
H29	H	2.144371	-0.252479	-0.445214
H30	H	1.743371	0.287543	-0.733051
H31	H	2.026321	0.059723	-0.838906
H32	H	1.877819	-0.456576	-0.577328
H33	H	2.137502	-0.470383	-0.444896
H34	H	2.120317	-0.233720	-0.201603
H35	H	2.112733	-0.452294	-0.201954
H36	H	1.827386	-0.406856	0.015130
H37	H	1.648864	-0.397893	-0.075216
H38	H	1.654872	-0.180913	-0.077617
H39	H	1.832255	-0.189114	0.013706
H40	H	1.895454	-0.239500	-0.579159
H41	H	1.692551	-0.208328	-0.434755
H42	H	1.679585	-0.424883	-0.421615
