data_functionalizedCrystal
_audit_creation_method	'MofGen! by Chris Wilmer'
_symmetry_space_group_name_H-M	'P1'
_symmetry_Int_Tables_number	1
_symmetry_cell_setting	triclinic
loop_
_symmetry_equiv_pos_as_xyz
  x,y,z
_cell_length_a	17.699104
_cell_length_b	17.699092
_cell_length_c	13.448316
_cell_angle_alpha	89.995078
_cell_angle_beta	89.992351
_cell_angle_gamma	83.288943
loop_
_atom_site_label
_atom_site_type_symbol
_atom_site_fract_x
_atom_site_fract_y
_atom_site_fract_z
O1	O	1.004071	0.095788	-0.082708
O2	O	0.783695	0.108224	-0.082705
O3	O	0.900106	-0.008183	-0.082705
O4	O	0.887660	0.212194	-0.082709
O5	O	0.900091	-0.008190	0.082679
O6	O	0.783681	0.108216	0.082678
O7	O	1.004056	0.095781	0.082676
Cu8	Cu	0.893867	0.101998	0.097778
Cu9	Cu	0.893884	0.102006	-0.097808
O10	O	0.887646	0.212187	0.082675
C11	C	0.755491	0.107772	-0.000013
C12	C	0.671474	0.106427	-0.000012
C13	C	0.146605	0.167170	-0.000024
C14	C	0.225548	0.168430	-0.000027
C15	C	0.274164	0.100095	-0.000025
C16	C	0.243832	0.030496	-0.000031
C17	C	0.164890	0.029238	-0.000035
C18	C	0.562198	0.035569	-0.000015
C19	C	0.641145	0.036833	-0.000008
C20	C	0.622857	0.174761	-0.000007
C21	C	0.543915	0.173503	-0.000011
C22	C	0.513590	0.103905	-0.000022
C23	C	0.427990	0.102540	-0.000020
C24	C	0.359762	0.101458	-0.000019
C25	C	0.899652	-0.036383	-0.000014
C26	C	0.898311	-0.120401	-0.000019
C27	C	0.897690	-0.159865	-0.090171
C28	C	0.896425	-0.238808	-0.090172
C29	C	0.895786	-0.278286	-0.000020
C30	C	0.896404	-0.238817	0.090139
C31	C	0.897664	-0.159875	0.090139
C32	C	0.891324	-0.557182	0.090140
C33	C	0.890067	-0.636131	0.090133
C34	C	0.890086	-0.636115	-0.090170
C35	C	0.891345	-0.557173	-0.090170
C36	C	0.891959	-0.517710	-0.000012
C37	C	0.893329	-0.432111	-0.000012
C38	C	0.894421	-0.363885	-0.000019
C39	C	1.032260	0.096232	-0.000019
C40	C	1.116278	0.097577	-0.000026
C41	C	0.888100	0.240387	-0.000018
C42	C	0.889441	0.324405	-0.000020
N43	N	0.893861	0.101991	0.235342
N44	N	0.893897	0.102007	-0.235372
C45	C	0.945423	0.050468	0.287383
C46	C	0.945428	0.050467	0.391486
C47	C	0.893873	0.101994	0.443547
C48	C	0.842305	0.153520	0.391499
C49	C	0.842297	0.153517	0.287397
C50	C	0.842326	0.153525	0.608479
C51	C	0.842334	0.153530	0.712587
C52	C	0.945457	0.050476	0.712568
C53	C	0.945449	0.050472	0.608466
C54	C	0.893881	0.101999	0.556425
H55	H	0.647557	0.231431	-0.000002
C56	C	0.898348	-0.116463	0.189308
C57	C	0.964904	-0.070899	0.214106
C58	C	0.965585	-0.027488	0.313278
C59	C	0.899708	-0.029640	0.387653
C60	C	0.833147	-0.075206	0.362858
C61	C	0.832467	-0.118617	0.263685
H62	H	1.013674	-0.069304	0.159047
H63	H	1.014858	0.006243	0.331633
H64	H	0.900212	0.002495	0.461067
H65	H	0.784377	-0.076801	0.417916
H66	H	0.783194	-0.152348	0.245330
C67	C	0.895759	-0.282220	-0.189341
C68	C	0.894378	-0.369054	-0.189349
C69	C	0.893718	-0.412466	-0.288523
C70	C	0.894438	-0.369045	-0.387688
C71	C	0.895819	-0.282206	-0.387683
C72	C	0.896480	-0.238794	-0.288509
H73	H	0.893845	-0.401201	-0.115938
H74	H	0.892695	-0.476751	-0.288526
H75	H	0.893949	-0.401182	-0.461102
H76	H	0.896352	-0.250059	-0.461094
H77	H	0.897502	-0.174509	-0.288506
H78	H	0.800352	0.195488	0.754970
H79	H	0.987444	0.008521	0.754945
H80	H	0.800309	0.195472	0.245027
C81	C	0.892009	-0.513786	0.189315
C82	C	0.827176	-0.450812	0.214129
C83	C	0.827863	-0.407414	0.313311
C84	C	0.893383	-0.426989	0.387679
C85	C	0.958221	-0.489966	0.362867
C86	C	0.957534	-0.533364	0.263685
H87	H	0.778670	-0.436318	0.159076
H88	H	0.779866	-0.360794	0.331678
H89	H	0.893892	-0.394864	0.461099
H90	H	1.006727	-0.504460	0.417920
H91	H	1.005531	-0.579984	0.245317
H92	H	0.891869	-0.525034	-0.163581
C93	C	1.002159	-0.006206	0.551194
C94	C	1.001052	-0.092394	0.565513
C95	C	1.057761	-0.149073	0.508239
C96	C	1.115575	-0.119564	0.436647
C97	C	1.116684	-0.033372	0.422324
C98	C	1.059975	0.023307	0.479598
H99	H	0.958253	-0.114241	0.618513
H100	H	1.056940	-0.212878	0.518842
H101	H	1.157554	-0.161522	0.394249
H102	H	1.159483	-0.011524	0.369324
H103	H	1.060796	0.087113	0.468995
H104	H	0.987408	0.008512	0.245002
H105	H	0.140199	-0.027432	-0.000039
H106	H	0.107027	0.222817	-0.000018
C107	C	0.898393	-0.116441	-0.189341
C108	C	0.964957	-0.070880	-0.214141
C109	C	0.965657	-0.027458	-0.313314
C110	C	0.899793	-0.029598	-0.387686
C111	C	0.833224	-0.075161	-0.362888
C112	C	0.832524	-0.118583	-0.263715
H113	H	1.013719	-0.069294	-0.159084
H114	H	1.014937	0.006270	-0.331671
H115	H	0.900311	0.002545	-0.461100
H116	H	0.784463	-0.076747	-0.417944
H117	H	0.783244	-0.152311	-0.245358
H118	H	0.250236	0.225099	-0.000034
C119	C	0.528847	-0.040987	-0.000027
C120	C	0.582325	-0.116151	-0.000025
C121	C	0.548970	-0.192711	-0.000040
C122	C	0.462138	-0.194106	-0.000058
C123	C	0.408655	-0.118939	-0.000060
C124	C	0.442010	-0.042379	-0.000045
H125	H	0.646608	-0.115121	-0.000011
H126	H	0.588562	-0.248355	-0.000038
H127	H	0.437447	-0.250780	-0.000069
H128	H	0.344372	-0.119969	-0.000073
H129	H	0.402418	0.013265	-0.000046
C130	C	0.694625	-0.038340	-0.000014
C131	C	0.751425	-0.056426	-0.085890
C132	C	0.804905	-0.131594	-0.085895
C133	C	0.801585	-0.188677	-0.000026
C134	C	0.744782	-0.170592	0.085856
C135	C	0.691303	-0.095424	0.085862
H136	H	0.753885	-0.014169	-0.149461
H137	H	0.846954	-0.144981	-0.149471
H138	H	0.841173	-0.244321	-0.000030
H139	H	0.742323	-0.212849	0.149428
H140	H	0.649254	-0.082037	0.149437
H141	H	0.504335	0.229148	-0.000007
H142	H	0.283421	-0.025143	-0.000035
H143	H	0.889582	-0.668255	-0.163582
C144	C	0.889359	-0.679558	0.189307
C145	C	0.823823	-0.660006	0.263676
C146	C	0.823116	-0.703434	0.362844
C147	C	0.887946	-0.766412	0.387643
C148	C	0.953487	-0.785967	0.313272
C149	C	0.954193	-0.742540	0.214104
H150	H	0.775828	-0.613383	0.245320
H151	H	0.774598	-0.688958	0.417898
H152	H	0.887423	-0.798560	0.461053
H153	H	1.001482	-0.832590	0.331627
H154	H	1.002711	-0.757015	0.159050
H155	H	0.800332	0.195482	0.566111
H156	H	0.895879	-0.270966	0.163542
H157	H	0.800324	0.195472	0.433893
H158	H	0.987413	0.008512	0.433857
