data_functionalizedCrystal
_audit_creation_method	'MofGen! by Chris Wilmer'
_symmetry_space_group_name_H-M	'P1'
_symmetry_Int_Tables_number	1
_symmetry_cell_setting	triclinic
loop_
_symmetry_equiv_pos_as_xyz
  x,y,z
_cell_length_a	14.519731
_cell_length_b	13.596369
_cell_length_c	19.288865
_cell_angle_alpha	90.011218
_cell_angle_beta	83.412550
_cell_angle_gamma	90.005416
loop_
_atom_site_label
_atom_site_type_symbol
_atom_site_fract_x
_atom_site_fract_y
_atom_site_fract_z
O1	O	1.223278	0.081805	0.091121
O2	O	1.723278	0.581805	0.591121
O3	O	0.954736	0.081808	0.101828
O4	O	1.454736	0.581808	0.601828
O5	O	1.096767	0.081787	-0.004627
O6	O	1.596767	0.581787	0.495373
O7	O	1.081248	0.081826	0.197577
O8	O	1.581248	0.581826	0.697577
O9	O	1.096753	-0.081796	-0.004633
O10	O	1.596753	0.418204	0.495367
O11	O	0.954722	-0.081775	0.101823
O12	O	1.454722	0.418225	0.601823
O13	O	1.223264	-0.081778	0.091116
O14	O	1.723264	0.418222	0.591116
Zn15	Zn	1.088991	-0.107748	0.096468
Zn16	Zn	1.588991	0.392252	0.596468
Zn17	Zn	1.089009	0.107779	0.096476
Zn18	Zn	1.589009	0.607779	0.596476
O19	O	1.081234	-0.081757	0.197571
O20	O	1.581234	0.418243	0.697571
C21	C	0.920373	0.000017	0.101324
C22	C	1.420373	0.500017	0.601324
C23	C	0.818002	0.000017	0.099820
C24	C	1.318002	0.500017	0.599820
N25	N	1.088985	-0.254840	0.096463
N26	N	1.588985	0.245160	0.596463
C27	C	0.734866	0.000021	0.098599
C28	C	1.234866	0.500021	0.598599
C29	C	0.630567	0.000021	0.097073
C30	C	1.130567	0.500021	0.597073
C31	C	0.547435	0.000021	0.095861
C32	C	1.047435	0.500021	0.595861
C33	C	0.443130	0.000022	0.094335
C34	C	0.943130	0.500022	0.594335
C35	C	1.089008	-0.656131	0.096477
C36	C	1.589008	-0.156131	0.596477
C37	C	1.088999	-0.544480	0.096475
C38	C	1.588999	-0.044480	0.596475
C39	C	1.088997	-0.455489	0.096470
C40	C	1.588997	0.044511	0.596470
C41	C	1.088987	-0.343831	0.096468
C42	C	1.588987	0.156169	0.596468
C43	C	1.257627	0.000016	0.091620
C44	C	1.757627	0.500016	0.591620
C45	C	1.359998	0.000022	0.093124
C46	C	1.859998	0.500022	0.593124
C47	C	1.096260	-0.000007	-0.030508
C48	C	1.596260	0.499993	0.469492
C49	C	1.094761	-0.000016	-0.107617
C50	C	1.594761	0.499984	0.392383
N51	N	1.089023	0.254871	0.096476
N52	N	1.589023	0.754871	0.596476
C53	C	1.178099	-0.000022	-0.152009
C54	C	1.678099	0.499978	0.347991
C55	C	1.176690	-0.000006	-0.224461
C56	C	1.676690	0.499994	0.275539
C57	C	1.091940	-0.000004	-0.252518
C58	C	1.591940	0.499996	0.247482
C59	C	1.008592	0.000007	-0.208117
C60	C	1.508592	0.500007	0.291883
C61	C	1.010003	0.000001	-0.135666
C62	C	1.510003	0.500001	0.364334
C63	C	1.025312	-0.057303	-0.361051
C64	C	1.525312	0.442697	0.138949
C65	C	1.023905	-0.057304	-0.433501
C66	C	1.523905	0.442696	0.066499
C67	C	1.087586	0.000018	-0.475980
C68	C	1.587586	0.500018	0.024020
C69	C	1.152690	0.057327	-0.446002
C70	C	1.652690	0.557327	0.053998
C71	C	1.154100	0.057321	-0.373551
C72	C	1.654100	0.557321	0.126449
C73	C	1.090401	0.000002	-0.331078
C74	C	1.590401	0.500002	0.168922
C75	C	1.169402	0.000030	-0.598933
C76	C	1.669402	0.500030	-0.098933
C77	C	1.167990	0.000052	-0.671386
C78	C	1.667990	0.500052	-0.171386
C79	C	0.999889	0.000055	-0.655041
C80	C	1.499889	0.500055	-0.155041
C81	C	1.001303	0.000043	-0.582589
C82	C	1.501303	0.500043	-0.082589
C83	C	1.086062	0.000026	-0.554540
C84	C	1.586062	0.500026	-0.054540
C85	C	1.081740	0.000040	0.223452
C86	C	1.581740	0.500040	0.723452
C87	C	1.083239	0.000055	0.300561
C88	C	1.583239	0.500055	0.800561
H89	H	1.247116	-0.000032	-0.129176
H90	H	1.747116	0.499968	0.370824
C91	C	1.268371	-0.000019	-0.273301
C92	C	1.768371	0.499981	0.226699
N93	N	1.337426	-0.000031	-0.310085
N94	N	1.837426	0.499969	0.189915
H95	H	1.207109	0.103986	-0.349146
H96	H	1.707109	0.603986	0.150854
H97	H	0.933441	0.000042	-0.546444
H98	H	1.433441	0.500042	-0.046444
C99	C	0.918321	0.000004	-0.086833
C100	C	1.418321	0.500004	0.413167
N101	N	0.849265	0.000005	-0.050051
N102	N	1.349265	0.500005	0.449949
H103	H	1.238417	0.000021	-0.576094
H104	H	1.738417	0.500021	-0.076094
C105	C	1.259672	0.000040	-0.720218
C106	C	1.759672	0.500040	-0.220218
N107	N	1.328730	0.000027	-0.756999
N108	N	1.828730	0.500027	-0.256999
C109	C	1.222742	0.120389	-0.492723
C110	C	1.722742	0.620389	0.007277
N111	N	1.275504	0.167886	-0.527917
N112	N	1.775504	0.667886	-0.027917
C113	C	0.906662	0.000060	-0.685900
C114	C	1.406662	0.500060	-0.185900
N115	N	0.836442	0.000066	-0.709146
N116	N	1.336442	0.500066	-0.209146
C117	C	0.952289	-0.120344	-0.466470
C118	C	1.452289	0.379656	0.033530
N119	N	0.898345	-0.167826	-0.491300
N120	N	1.398345	0.332174	0.008700
C121	C	0.955256	-0.120370	-0.314331
C122	C	1.455256	0.379630	0.185669
N123	N	0.902493	-0.167872	-0.279143
N124	N	1.402493	0.332128	0.220857
H125	H	0.939588	0.000010	-0.230966
H126	H	1.439588	0.500010	0.269034
