data_functionalizedCrystal
_audit_creation_method	'MofGen! by Chris Wilmer'
_symmetry_space_group_name_H-M	'P1'
_symmetry_Int_Tables_number	1
_symmetry_cell_setting	triclinic
loop_
_symmetry_equiv_pos_as_xyz
  x,y,z
_cell_length_a	16.959455
_cell_length_b	16.959453
_cell_length_c	18.215399
_cell_angle_alpha	89.971976
_cell_angle_beta	89.979037
_cell_angle_gamma	90.018936
loop_
_atom_site_label
_atom_site_type_symbol
_atom_site_fract_x
_atom_site_fract_y
_atom_site_fract_z
Zn1	Zn	1.208417	-0.314712	-0.416138
Zn2	Zn	1.208330	-0.446897	-0.293071
Zn3	Zn	1.076236	-0.314734	-0.293083
Zn4	Zn	1.076211	-0.446850	-0.416094
O5	O	1.142299	-0.380798	-0.354596
O6	O	1.319017	-0.332257	-0.399826
O7	O	1.190782	-0.429395	-0.190088
O8	O	1.093817	-0.204120	-0.309429
O9	O	1.318953	-0.429373	-0.309410
O10	O	1.190930	-0.204104	-0.399837
O11	O	1.093733	-0.332295	-0.190097
O12	O	0.965622	-0.332249	-0.309387
O13	O	1.093774	-0.429292	-0.519084
O14	O	0.965603	-0.429314	-0.399762
O15	O	1.190906	-0.332211	-0.519116
O16	O	1.190757	-0.557502	-0.309367
O17	O	1.093690	-0.557467	-0.399751
C18	C	0.936932	-0.380779	-0.354571
C19	C	0.849076	-0.380790	-0.354578
C20	C	1.142233	-0.586165	-0.354569
C21	C	1.142277	-0.674021	-0.354582
C22	C	0.807788	-0.330181	-0.307599
C23	C	0.807810	-0.431405	-0.401568
C24	C	0.725264	-0.431415	-0.401579
C25	C	0.683976	-0.380805	-0.354600
C26	C	0.725234	-0.330187	-0.307610
C27	C	0.684000	-0.482026	-0.448573
C28	C	0.601449	-0.482037	-0.448587
C29	C	0.560160	-0.431431	-0.401603
C30	C	0.601423	-0.380811	-0.354611
C31	C	0.560135	-0.330202	-0.307632
C32	C	0.601397	-0.279585	-0.260635
C33	C	0.683945	-0.279581	-0.260627
C34	C	0.477611	-0.431435	-0.401612
C35	C	0.477581	-0.330208	-0.307643
C36	C	1.192930	-1.045430	-0.401761
C37	C	1.091888	-1.045564	-0.307541
C38	C	1.091859	-0.963018	-0.307524
C39	C	1.142365	-0.921674	-0.354627
C40	C	1.192901	-0.962876	-0.401747
C41	C	1.041318	-0.921810	-0.260411
C42	C	1.041286	-0.839259	-0.260393
C43	C	1.091797	-0.797913	-0.307492
C44	C	1.142336	-0.839121	-0.354613
C45	C	1.192842	-0.797777	-0.401716
C46	C	1.243385	-0.838982	-0.448834
C47	C	1.243412	-0.921531	-0.448846
C48	C	1.091770	-0.715365	-0.307480
C49	C	1.192812	-0.715223	-0.401702
C50	C	1.348467	-0.380818	-0.354622
C51	C	1.436323	-0.380826	-0.354633
C52	C	1.142347	-0.380744	-0.546549
C53	C	1.142367	-0.380721	-0.628348
C54	C	1.142386	-0.174630	-0.354639
C55	C	1.142424	-0.086773	-0.354658
C56	C	1.192962	-0.330123	-0.816560
C57	C	1.192971	-0.330100	-0.893419
C58	C	1.091828	-0.431196	-0.893374
C59	C	1.091816	-0.431214	-0.816517
C60	C	1.142387	-0.380679	-0.778112
C61	C	1.142409	-0.380638	-0.931828
C62	C	1.142419	-0.380613	-1.015162
C63	C	1.142376	-0.380702	-0.694773
C64	C	1.142296	-0.380796	-0.163390
C65	C	1.142429	-0.380596	-0.081592
H66	H	0.443971	-0.288996	-0.269385
C67	C	1.248524	-1.090756	-0.453588
N68	N	1.290398	-1.124896	-0.492625
C69	C	0.853229	-0.487074	-0.453241
N70	N	0.887442	-0.529008	-0.492161
C71	C	1.036395	-1.091045	-0.255674
N72	N	0.994621	-1.125304	-0.216583
C73	C	0.432227	-0.487109	-0.453306
N74	N	0.398045	-0.529046	-0.492244
C75	C	1.248585	-0.274526	-0.774318
N76	N	1.290479	-0.232646	-0.742502
C77	C	1.298940	-0.793494	-0.500645
N78	N	1.340784	-0.759228	-0.539668
C79	C	1.298999	-0.966863	-0.500675
N80	N	1.340865	-1.001010	-0.539715
C81	C	0.985682	-0.793940	-0.208569
N82	N	0.943798	-0.759805	-0.169536
H83	H	0.567769	-0.238376	-0.222388
C84	C	1.036178	-0.670043	-0.255652
N85	N	0.994305	-0.635907	-0.216611
H86	H	0.717622	-0.523227	-0.486823
C87	C	0.729339	-0.223895	-0.208948
N88	N	0.763533	-0.181947	-0.170028
C89	C	1.036174	-0.486830	-0.774221
N90	N	0.994264	-0.528716	-0.742364
H91	H	0.841387	-0.288973	-0.269334
H92	H	1.234153	-0.288931	-0.924720
C93	C	0.985858	-0.967292	-0.208515
N94	N	0.944120	-1.001554	-0.169392
C95	C	1.036202	-0.486780	-0.935627
N96	N	0.994302	-0.528647	-0.967451
C97	C	0.556069	-0.537728	-0.500271
N98	N	0.521887	-0.579681	-0.539196
H99	H	1.233944	-0.681566	-0.440056
