data_functionalizedCrystal
_audit_creation_method	'MofGen! by Chris Wilmer'
_symmetry_space_group_name_H-M	'P1'
_symmetry_Int_Tables_number	1
_symmetry_cell_setting	triclinic
loop_
_symmetry_equiv_pos_as_xyz
  x,y,z
_cell_length_a	10.654546
_cell_length_b	9.730223
_cell_length_c	10.654551
_cell_angle_alpha	89.998531
_cell_angle_beta	84.484422
_cell_angle_gamma	90.001147
loop_
_atom_site_label
_atom_site_type_symbol
_atom_site_fract_x
_atom_site_fract_y
_atom_site_fract_z
O1	O	1.667837	0.114311	0.176372
O2	O	1.302358	0.114306	0.193183
O3	O	1.493500	0.114309	0.002038
O4	O	1.476695	0.114307	0.367517
O5	O	1.493498	-0.114271	0.002043
O6	O	1.302356	-0.114274	0.193188
O7	O	1.667835	-0.114269	0.176377
Zn8	Zn	1.485095	-0.150564	0.184783
Zn9	Zn	1.485098	0.150600	0.184777
O10	O	1.476693	-0.114272	0.367522
C11	C	1.255559	0.000015	0.191952
C12	C	1.116116	0.000014	0.188262
C13	C	1.050622	0.124619	0.186513
C14	C	0.919601	0.124630	0.183036
C15	C	0.919580	-0.124580	0.183051
C16	C	1.050597	-0.124590	0.186537
C17	C	1.116141	0.249223	0.188237
C18	C	1.050647	0.373838	0.186487
C19	C	0.919626	0.373849	0.183010
C20	C	0.854099	0.249245	0.181283
N21	N	1.485102	-0.356100	0.184787
C22	C	1.569762	-0.428025	0.100177
C23	C	1.569759	-0.571908	0.100162
C24	C	1.400432	-0.571929	0.269377
C25	C	1.400430	-0.428048	0.269386
C26	C	1.654434	-0.356076	0.015578
C27	C	1.739101	-0.428001	-0.069037
C28	C	1.739098	-0.571884	-0.069053
C29	C	1.654427	-0.643842	0.015548
C30	C	1.714634	0.000024	0.177608
C31	C	1.854078	0.000035	0.181298
C32	C	1.492265	0.000022	-0.044757
C33	C	1.488572	0.000031	-0.184200
N34	N	1.485101	0.356137	0.184763
C35	C	1.486841	0.124628	-0.249715
C36	C	1.483361	0.124622	-0.380735
C37	C	1.483348	-0.124589	-0.380715
C38	C	1.486820	-0.124581	-0.249696
C39	C	1.488594	0.249240	-0.184219
C40	C	1.486865	0.373847	-0.249734
C41	C	1.483384	0.373841	-0.380754
C42	C	1.481634	0.249228	-0.446259
C43	C	1.477928	0.000017	0.414317
C44	C	1.481621	0.000017	0.553760
H45	H	1.222824	0.249228	0.191066
H46	H	1.654423	-0.761002	0.015520
N47	N	1.654428	-0.200891	0.015601
H48	H	1.739910	-0.166235	0.034677
H49	H	1.635375	-0.166327	-0.069914
H50	H	1.478781	0.249233	-0.552943
H51	H	1.491431	0.249260	-0.077536
N52	N	1.488709	-0.258966	-0.179030
H53	H	1.491172	-0.240049	-0.086092
H54	H	1.410384	-0.313386	-0.192417
N55	N	1.830394	-0.350400	-0.160308
H56	H	1.817547	-0.248337	-0.147467
H57	H	1.919617	-0.375543	-0.144992
H58	H	1.331492	-0.369487	0.338282
H59	H	1.331498	-0.630526	0.338257
H60	H	1.104006	0.475286	0.187904
H61	H	1.808029	-0.630444	-0.137958
N62	N	0.848982	0.508246	0.181132
H63	H	0.910372	0.587174	0.182753
H64	H	0.804134	0.513670	0.101967
H65	H	1.481963	0.475301	-0.434091
N66	N	1.488635	0.508245	-0.179077
H67	H	1.491070	0.489346	-0.086131
H68	H	1.565714	0.562735	-0.211446
H69	H	0.747411	0.249264	0.178465
N70	N	1.121241	-0.258985	0.188429
H71	H	1.107956	-0.313465	0.110109
H72	H	1.214152	-0.239968	0.190953
N73	N	1.481478	-0.258985	-0.451363
H74	H	1.479025	-0.240083	-0.544305
H75	H	1.559808	-0.313384	-0.437956
H76	H	0.866217	-0.226027	0.181643
