data_functionalizedCrystal
_audit_creation_method	'MofGen! by Chris Wilmer'
_symmetry_space_group_name_H-M	'P1'
_symmetry_Int_Tables_number	1
_symmetry_cell_setting	triclinic
loop_
_symmetry_equiv_pos_as_xyz
  x,y,z
_cell_length_a	14.519709
_cell_length_b	19.188930
_cell_length_c	12.996460
_cell_angle_alpha	89.988736
_cell_angle_beta	90.000034
_cell_angle_gamma	83.412464
loop_
_atom_site_label
_atom_site_type_symbol
_atom_site_fract_x
_atom_site_fract_y
_atom_site_fract_z
O1	O	1.223300	0.091525	-0.085445
O2	O	0.954756	0.102303	-0.085478
O3	O	1.096778	-0.004714	-0.085440
O4	O	1.081279	0.198542	-0.085482
O5	O	1.096763	-0.004720	0.085693
O6	O	0.954742	0.102297	0.085656
O7	O	1.223285	0.091519	0.085689
Cu8	Cu	1.089012	0.096907	0.101298
Cu9	Cu	1.089030	0.096914	-0.101087
O10	O	1.081264	0.198536	0.085651
C11	C	0.920392	0.101797	0.000085
C12	C	0.818020	0.100292	0.000073
C13	C	0.443159	0.094751	0.000121
C14	C	0.547457	0.096290	0.000108
C15	C	0.630586	0.097521	0.000097
C16	C	0.734891	0.099060	0.000085
C17	C	1.096269	-0.030730	0.000129
C18	C	1.094762	-0.108240	0.000138
C19	C	1.178095	-0.152867	0.000153
C20	C	1.176680	-0.225696	0.000137
C21	C	1.091926	-0.253895	0.000125
C22	C	1.008582	-0.209257	0.000105
C23	C	1.009999	-0.136430	0.000111
N24	N	1.027137	-0.362132	0.058358
N25	N	1.025796	-0.431316	0.058354
C26	C	1.087649	-0.473318	0.000104
N27	N	1.150908	-0.443526	-0.058129
N28	N	1.152252	-0.374336	-0.058120
C29	C	1.090379	-0.332863	0.000118
C30	C	1.169454	-0.596916	0.000100
C31	C	1.168035	-0.669745	0.000077
C32	C	0.999934	-0.653305	0.000055
C33	C	1.001355	-0.580477	0.000068
C34	C	1.086118	-0.552287	0.000095
C35	C	1.257649	0.092024	0.000124
C36	C	1.360021	0.093529	0.000128
C37	C	1.081773	0.224551	0.000079
C38	C	1.083280	0.302061	0.000064
N39	N	1.089007	0.096902	0.243645
N40	N	1.089042	0.096914	-0.243434
C41	C	1.089028	0.096915	0.663460
C42	C	1.089020	0.096914	0.546655
C43	C	1.089018	0.096909	0.453556
C44	C	1.089008	0.096906	0.336744
H45	H	1.244542	-0.262039	0.000145
H46	H	1.235898	-0.706081	0.000083
H47	H	0.939574	-0.232221	0.000093
C48	C	0.906700	-0.684311	0.000047
C49	C	0.882601	-0.732130	0.088908
C50	C	0.789363	-0.763138	0.088898
C51	C	0.720224	-0.746328	0.000028
C52	C	0.744322	-0.698507	-0.088839
C53	C	0.837560	-0.667498	-0.088830
H54	H	0.933783	-0.744576	0.154701
H55	H	0.771525	-0.798538	0.154684
H56	H	0.651204	-0.769282	0.000021
H57	H	0.693140	-0.686061	-0.154632
H58	H	0.855398	-0.632098	-0.154616
C59	C	0.909685	-0.531382	0.000070
C60	C	0.816455	-0.562394	0.000060
C61	C	0.724781	-0.513298	0.000061
C62	C	0.726337	-0.433191	0.000071
C63	C	0.819570	-0.402175	0.000080
C64	C	0.911245	-0.451270	0.000080
H65	H	0.815301	-0.621698	0.000053
H66	H	0.655763	-0.536259	0.000054
H67	H	0.658474	-0.396847	0.000071
H68	H	0.820725	-0.342871	0.000087
H69	H	0.980262	-0.428309	0.000086
C70	C	0.918327	-0.087336	0.000102
C71	C	0.896194	-0.034991	-0.088758
C72	C	0.804520	0.014105	-0.088764
C73	C	0.734979	0.010856	0.000091
C74	C	0.757110	-0.041491	0.088958
C75	C	0.848784	-0.090587	0.088964
H76	H	0.947674	-0.032584	-0.154539
H77	H	0.788138	0.052856	-0.154549
H78	H	0.667116	0.047200	0.000087
H79	H	0.705629	-0.043898	0.154740
H80	H	0.865166	-0.129338	0.154749
C81	C	1.271334	-0.121862	0.000170
C82	C	1.295425	-0.074071	0.089040
C83	C	1.388664	-0.043065	0.089053
C84	C	1.457813	-0.059850	0.000195
C85	C	1.433724	-0.107643	-0.088682
C86	C	1.340485	-0.138649	-0.088695
H87	H	1.244235	-0.061643	0.154823
H88	H	1.406496	-0.007685	0.154846
H89	H	1.526834	-0.036898	0.000205
H90	H	1.484914	-0.120071	-0.154465
H91	H	1.322653	-0.174029	-0.154488
C92	C	1.262688	-0.565900	0.000121
C93	C	1.354358	-0.614994	0.000125
C94	C	1.447592	-0.583981	0.000148
C95	C	1.449157	-0.503874	0.000168
C96	C	1.357483	-0.454776	0.000165
C97	C	1.264249	-0.485789	0.000141
H98	H	1.353203	-0.674298	0.000110
H99	H	1.515455	-0.620327	0.000150
H100	H	1.518174	-0.480916	0.000185
H101	H	1.358638	-0.395472	0.000180
H102	H	1.196386	-0.449442	0.000139
