data_functionalizedCrystal
_audit_creation_method	'MofGen! by Chris Wilmer'
_symmetry_space_group_name_H-M	'P1'
_symmetry_Int_Tables_number	1
_symmetry_cell_setting	triclinic
loop_
_symmetry_equiv_pos_as_xyz
  x,y,z
_cell_length_a	12.759395
_cell_length_b	19.120786
_cell_length_c	12.759387
_cell_angle_alpha	87.523566
_cell_angle_beta	89.978574
_cell_angle_gamma	92.465870
loop_
_atom_site_label
_atom_site_type_symbol
_atom_site_fract_x
_atom_site_fract_y
_atom_site_fract_z
Zn1	Zn	1.588348	-0.279582	-0.576146
Zn2	Zn	1.580709	-0.397057	-0.392951
Zn3	Zn	1.412644	-0.279618	-0.400477
Zn4	Zn	1.405112	-0.397006	-0.568591
O5	O	1.496704	-0.338316	-0.484541
O6	O	1.734356	-0.295172	-0.551857
O7	O	1.558370	-0.381516	-0.246926
O8	O	1.442301	-0.181323	-0.430092
O9	O	1.728743	-0.381480	-0.417264
O10	O	1.571390	-0.181296	-0.559155
O11	O	1.434893	-0.295234	-0.252456
O12	O	1.264624	-0.295184	-0.422766
O13	O	1.429464	-0.381392	-0.716617
O14	O	1.259091	-0.381428	-0.546278
O15	O	1.564087	-0.295121	-0.722167
O16	O	1.551067	-0.495341	-0.409939
O17	O	1.422057	-0.495303	-0.538980
C18	C	1.223737	-0.338304	-0.484520
C19	C	1.106959	-0.338317	-0.484534
C20	C	0.881802	-0.428284	-0.612960
C21	C	0.933808	-0.473253	-0.677148
C22	C	1.043530	-0.473244	-0.677136
C23	C	1.101249	-0.428263	-0.612925
C24	C	1.049243	-0.383294	-0.548736
C25	C	0.939518	-0.383306	-0.548758
C26	C	1.054953	-0.293348	-0.420345
C27	C	0.945232	-0.293352	-0.420362
C28	C	1.112672	-0.248367	-0.356134
C29	C	1.060667	-0.203393	-0.291950
C30	C	0.950938	-0.203403	-0.291966
C31	C	0.893226	-0.248383	-0.356174
C32	C	1.484944	-0.520808	-0.472846
C33	C	1.480009	-0.598879	-0.467878
C34	C	1.544851	-0.635482	-0.532794
C35	C	1.540210	-0.708838	-0.528128
C36	C	1.470732	-0.745589	-0.458539
C37	C	1.405884	-0.708981	-0.393620
C38	C	1.410520	-0.635626	-0.398292
C39	C	1.453369	-0.967077	-0.441072
C40	C	1.448739	-1.040436	-0.436402
C41	C	1.583065	-1.040289	-0.570912
C42	C	1.587699	-0.966933	-0.575574
C43	C	1.522847	-0.930331	-0.510659
C44	C	1.465989	-0.820571	-0.453765
C45	C	1.527586	-0.855350	-0.515438
C46	C	1.770736	-0.338328	-0.484564
C47	C	1.887513	-0.338333	-0.484573
C48	C	1.496787	-0.338247	-0.758579
C49	C	1.496823	-0.338218	-0.875358
C50	C	1.508538	-0.155111	-0.496305
C51	C	1.513581	-0.077040	-0.501319
C52	C	1.637014	-0.248390	-0.881157
C53	C	1.707125	-0.203465	-0.938918
C54	C	1.707153	-0.203440	-1.048642
C55	C	1.637059	-0.248342	-1.100606
C56	C	1.566948	-0.293266	-1.042845
C57	C	1.566931	-0.293289	-0.933119
C58	C	1.426753	-0.383090	-1.037046
C59	C	1.426730	-0.383120	-0.927323
C60	C	1.356660	-0.427992	-1.089011
C61	C	1.286552	-0.472921	-1.031249
C62	C	1.286529	-0.472945	-0.921519
C63	C	1.356619	-0.428044	-0.869561
C64	C	1.496684	-0.338334	-0.211573
C65	C	1.496864	-0.338165	-0.094807
H66	H	1.202014	-0.248366	-0.356123
F67	F	1.122100	-0.155530	-0.223614
H68	H	0.908602	-0.166784	-0.239695
H69	H	1.190590	-0.428266	-0.612910
H70	H	1.356610	-0.428063	-0.780219
F71	F	0.872372	-0.521130	-0.745470
F72	F	1.356689	-0.427963	-1.205788
H73	H	1.601431	-0.605564	-0.589456
H74	H	1.635862	-1.070098	-0.623764
H75	H	1.392157	-1.070357	-0.379734
F76	F	1.609212	-0.747791	-0.597233
H77	H	1.400565	-0.937281	-0.388213
F78	F	1.331930	-0.748096	-0.319567
F79	F	1.661646	-0.927825	-0.649641
F80	F	1.341505	-0.596670	-0.329200
F81	F	0.765026	-0.428289	-0.612991
F82	F	1.601521	-0.816236	-0.589503
F83	F	1.392043	-0.859691	-0.379710
H84	H	1.085873	-0.509863	-0.729401
F85	F	1.781759	-0.155617	-1.110118
H86	H	0.803884	-0.248392	-0.356198
F87	F	1.637003	-0.248422	-0.764379
H88	H	1.764192	-0.166906	-0.896597
H89	H	1.637079	-0.248311	-1.189949
H90	H	1.229483	-0.509473	-1.073568
H91	H	1.229425	-0.509521	-0.874497
