data_functionalizedCrystal
_audit_creation_method	'MofGen! by Chris Wilmer'
_symmetry_space_group_name_H-M	'P1'
_symmetry_Int_Tables_number	1
_symmetry_cell_setting	triclinic
loop_
_symmetry_equiv_pos_as_xyz
  x,y,z
_cell_length_a	10.654550
_cell_length_b	16.098524
_cell_length_c	10.654550
_cell_angle_alpha	93.040605
_cell_angle_beta	84.484931
_cell_angle_gamma	93.037586
loop_
_atom_site_label
_atom_site_type_symbol
_atom_site_fract_x
_atom_site_fract_y
_atom_site_fract_z
O1	O	1.672894	0.069194	0.181451
O2	O	2.172894	0.569194	0.681451
O3	O	1.307416	0.069209	0.198258
O4	O	1.807416	0.569209	0.698258
O5	O	1.498558	0.069196	0.007115
O6	O	1.998558	0.569196	0.507115
O7	O	1.481752	0.069207	0.372594
O8	O	1.981752	0.569207	0.872594
O9	O	1.488427	-0.069317	-0.003004
O10	O	1.988427	0.430683	0.496996
O11	O	1.297286	-0.069304	0.188139
O12	O	1.797286	0.430696	0.688139
O13	O	1.662763	-0.069319	0.171332
O14	O	2.162763	0.430681	0.671332
Zn15	Zn	1.478416	-0.091303	0.178129
Zn16	Zn	1.978416	0.408697	0.678129
Zn17	Zn	1.491763	0.091194	0.191461
Zn18	Zn	1.991763	0.591194	0.691461
O19	O	1.471622	-0.069306	0.362475
O20	O	1.971622	0.430694	0.862475
C21	C	1.255553	-0.000045	0.191965
C22	C	1.755553	0.499955	0.691965
C23	C	1.116110	-0.000040	0.188273
C24	C	1.616110	0.499960	0.688273
N25	N	1.469316	-0.215853	0.169030
N26	N	1.969316	0.284147	0.669030
C27	C	1.036625	-0.000038	0.300815
C28	C	1.536625	0.499962	0.800815
C29	C	0.905603	-0.000053	0.297337
C30	C	1.405603	0.499947	0.797337
C31	C	0.933565	-0.000066	0.068767
C32	C	1.433565	0.499934	0.568767
C33	C	1.064584	-0.000058	0.072245
C34	C	1.564584	0.499942	0.572245
C35	C	1.542963	-0.259435	0.242730
C36	C	2.042963	0.240565	0.742730
C37	C	1.536614	-0.346625	0.236356
C38	C	2.036614	0.153375	0.736356
C39	C	1.456610	-0.390230	0.156289
C40	C	1.956610	0.109770	0.656289
C41	C	1.382960	-0.346641	0.082581
C42	C	1.882960	0.153359	0.582581
C43	C	1.389316	-0.259454	0.088948
C44	C	1.889316	0.240546	0.588948
C45	C	1.433580	-0.653481	0.133210
C46	C	1.933580	-0.153481	0.633210
C47	C	1.427226	-0.740674	0.126851
C48	C	1.927226	-0.240674	0.626851
C49	C	1.580883	-0.740652	0.280625
C50	C	2.080883	-0.240652	0.780625
C51	C	1.587226	-0.653462	0.286991
C52	C	2.087226	-0.153462	0.786991
C53	C	1.513581	-0.609881	0.213278
C54	C	2.013581	-0.109881	0.713278
C55	C	1.450115	-0.479351	0.149775
C56	C	1.950115	0.020649	0.649775
C57	C	1.520083	-0.520762	0.219786
C58	C	2.020083	-0.020762	0.719786
C59	C	1.714626	-0.000063	0.177625
C60	C	2.214626	0.499937	0.677625
C61	C	1.854069	-0.000063	0.181317
C62	C	2.354069	0.499937	0.681317
C63	C	1.492258	-0.000060	-0.044743
C64	C	1.992258	0.499940	0.455257
C65	C	1.488566	-0.000058	-0.184186
C66	C	1.988566	0.499942	0.315814
N67	N	1.500873	0.215743	0.200550
N68	N	2.000873	0.715743	0.700550
C69	C	1.601108	-0.000063	-0.263672
C70	C	2.101108	0.499937	0.236328
C71	C	1.597632	-0.000053	-0.394692
C72	C	2.097632	0.499947	0.105308
C73	C	1.369064	-0.000037	-0.366727
C74	C	1.869064	0.499963	0.133273
C75	C	1.372541	-0.000041	-0.235709
C76	C	1.872541	0.499959	0.264291
C77	C	1.477921	-0.000048	0.414333
C78	C	1.977921	0.499952	0.914333
C79	C	1.481613	-0.000044	0.553776
C80	C	1.981613	0.499956	1.053776
H81	H	1.078572	-0.000030	0.395292
H82	H	1.578572	0.499970	0.895292
Cl83	Cl	1.739120	-0.000056	-0.494612
Cl84	Cl	2.239120	0.499944	0.005388
H85	H	0.840890	-0.000054	0.388980
H86	H	1.340890	0.499946	0.888980
Cl87	Cl	1.231049	-0.000028	-0.135776
Cl88	Cl	1.731049	0.499972	0.364224
Cl89	Cl	0.868780	-0.000084	-0.077088
Cl90	Cl	1.368780	0.499916	0.422912
Cl91	Cl	1.349532	-0.534176	0.049132
Cl92	Cl	1.849532	-0.034176	0.549132
H93	H	1.640841	-0.776145	0.340637
H94	H	2.140841	-0.276145	0.840637
H95	H	1.608103	-0.223938	0.307937
H96	H	2.108103	0.276062	0.807937
H97	H	1.596588	-0.382106	0.296368
H98	H	2.096588	0.117894	0.796368
H99	H	1.129305	-0.000061	-0.019406
H100	H	1.629305	0.499939	0.480594
H101	H	1.274599	-0.000025	-0.408695
H102	H	1.774599	0.499975	0.091305
H103	H	1.695583	-0.000075	-0.221726
H104	H	2.195583	0.499925	0.278274
H105	H	1.362070	-0.776175	0.061650
H106	H	1.862070	-0.276175	0.561650
H107	H	1.652378	-0.617965	0.352187
H108	H	2.152378	-0.117965	0.852187
Cl109	Cl	1.282385	-0.401459	-0.018079
Cl110	Cl	1.782385	0.098541	0.481921
Cl111	Cl	1.340947	-0.598704	0.040590
Cl112	Cl	1.840947	-0.098704	0.540590
H113	H	1.329344	-0.223970	0.028934
H114	H	1.829344	0.276030	0.528934
Cl115	Cl	1.620661	-0.465942	0.320434
Cl116	Cl	2.120661	0.034058	0.820434
