data_functionalizedCrystal
_audit_creation_method	'MofGen! by Chris Wilmer'
_symmetry_space_group_name_H-M	'P1'
_symmetry_Int_Tables_number	1
_symmetry_cell_setting	triclinic
loop_
_symmetry_equiv_pos_as_xyz
  x,y,z
_cell_length_a	17.699083
_cell_length_b	12.503572
_cell_length_c	17.699083
_cell_angle_alpha	86.484775
_cell_angle_beta	83.283015
_cell_angle_gamma	93.505083
loop_
_atom_site_label
_atom_site_type_symbol
_atom_site_fract_x
_atom_site_fract_y
_atom_site_fract_z
O1	O	1.008441	0.089171	0.091332
O2	O	1.341774	0.422505	0.424665
O3	O	1.675108	0.755838	0.757999
O4	O	0.788064	0.089207	0.103783
O5	O	1.121398	0.422540	0.437116
O6	O	1.454731	0.755874	0.770449
O7	O	0.904478	0.089179	-0.012631
O8	O	1.237812	0.422512	0.320702
O9	O	1.571145	0.755845	0.654035
O10	O	0.892027	0.089200	0.207746
O11	O	1.225360	0.422533	0.541079
O12	O	1.558694	0.755866	0.874413
O13	O	0.895723	-0.089461	-0.003862
O14	O	1.229057	0.243872	0.329471
O15	O	1.562390	0.577206	0.662805
O16	O	0.779309	-0.089433	0.112552
O17	O	1.112643	0.243900	0.445886
O18	O	1.445976	0.577234	0.779219
O19	O	0.999686	-0.089468	0.100101
O20	O	1.333019	0.243865	0.433435
O21	O	1.666353	0.577198	0.766768
Cu22	Cu	0.888698	-0.105762	0.107128
Cu23	Cu	1.222032	0.227571	0.440461
Cu24	Cu	1.555365	0.560905	0.773794
Cu25	Cu	0.899052	0.105500	0.096757
Cu26	Cu	1.232385	0.438834	0.430090
Cu27	Cu	1.565719	0.772167	0.763423
O28	O	0.883272	-0.089440	0.216516
O29	O	1.216605	0.243893	0.549849
O30	O	1.549939	0.577226	0.883182
C31	C	0.755490	-0.000109	0.107721
C32	C	1.088823	0.333225	0.441054
C33	C	1.422157	0.666558	0.774388
C34	C	0.671473	-0.000095	0.106382
C35	C	1.004806	0.333238	0.439715
C36	C	1.338139	0.666571	0.773048
N37	N	0.881421	-0.254352	0.114421
N38	N	1.214755	0.078981	0.447755
N39	N	1.548088	0.412314	0.781088
C40	C	0.622852	-0.000089	0.174715
C41	C	0.956185	0.333244	0.508048
C42	C	1.289519	0.666577	0.841382
C43	C	0.543908	-0.000103	0.173453
C44	C	0.877241	0.333230	0.506787
C45	C	1.210575	0.666563	0.840120
C46	C	0.513587	-0.000116	0.103857
C47	C	0.846920	0.333218	0.437191
C48	C	1.180253	0.666551	0.770524
C49	C	0.562213	-0.000125	0.035519
C50	C	0.895547	0.333208	0.368853
C51	C	1.228880	0.666542	0.702186
C52	C	0.641155	-0.000119	0.036782
C53	C	0.974489	0.333215	0.370115
C54	C	1.307822	0.666548	0.703449
C55	C	0.243849	-0.000152	0.030425
C56	C	0.577182	0.333181	0.363759
C57	C	0.910516	0.666515	0.697092
C58	C	0.164901	-0.000155	0.029168
C59	C	0.498234	0.333178	0.362501
C60	C	0.831567	0.666511	0.695834
C61	C	0.146602	-0.000137	0.167097
C62	C	0.479935	0.333197	0.500430
C63	C	0.813268	0.666530	0.833763
C64	C	0.225544	-0.000130	0.168359
C65	C	0.558877	0.333203	0.501693
C66	C	0.892210	0.666536	0.835026
C67	C	0.274163	-0.000145	0.100022
C68	C	0.607496	0.333188	0.433355
C69	C	0.940830	0.666521	0.766689
C70	C	0.359763	-0.000132	0.101391
C71	C	0.693096	0.333201	0.434724
C72	C	1.026430	0.666535	0.768057
C73	C	0.427989	-0.000121	0.102487
C74	C	0.761322	0.333212	0.435821
C75	C	1.094655	0.666545	0.769154
C76	C	0.870717	-0.473465	0.125157
C77	C	1.204050	-0.140132	0.458491
C78	C	1.537384	0.193202	0.791824
C79	C	0.917037	-0.526803	0.078723
C80	C	1.250370	-0.193470	0.412057
C81	C	1.583704	0.139863	0.745390
C82	C	0.911081	-0.648725	0.084697
C83	C	1.244414	-0.315392	0.418030
C84	C	1.577748	0.017941	0.751364
C85	C	0.876672	-0.351532	0.119185
C86	C	1.210005	-0.018199	0.452518
C87	C	1.543339	0.315134	0.785851
C88	C	1.032260	-0.000151	0.096163
C89	C	1.365594	0.333183	0.429496
C90	C	1.698927	0.666516	0.762830
C91	C	1.116278	-0.000157	0.097502
C92	C	1.449612	0.333177	0.430835
C93	C	1.782945	0.666510	0.764169
C94	C	0.899655	-0.000141	-0.036444
C95	C	1.232988	0.333192	0.296890
C96	C	1.566321	0.666525	0.630223
C97	C	0.898316	-0.000142	-0.120462
C98	C	1.231649	0.333192	0.212872
C99	C	1.564983	0.666525	0.546205
N100	N	0.906335	0.254091	0.089457
N101	N	1.239668	0.587424	0.422790
N102	N	1.573002	0.920758	0.756123
C103	C	0.966649	-0.000154	-0.169082
C104	C	1.299982	0.333179	0.164251
C105	C	1.633316	0.666513	0.497585
C106	C	0.965387	-0.000144	-0.248026
C107	C	1.298720	0.333189	0.085308
C108	C	1.632054	0.666522	0.418641
C109	C	0.895791	-0.000130	-0.278347
C110	C	1.229125	0.333204	0.054986
C111	C	1.562458	0.666537	0.388319
C112	C	0.827453	-0.000114	-0.229721
C113	C	1.160787	0.333219	0.103612
C114	C	1.494120	0.666553	0.436946
C115	C	0.828716	-0.000116	-0.150779
C116	C	1.162050	0.333217	0.182554
C117	C	1.495383	0.666551	0.515888
C118	C	0.822359	-0.000105	-0.548084
C119	C	1.155692	0.333229	-0.214751
C120	C	1.489025	0.666562	0.118582
C121	C	0.821101	-0.000106	-0.627032
C122	C	1.154434	0.333228	-0.293699
C123	C	1.487767	0.666561	0.039634
C124	C	0.959029	-0.000133	-0.645331
C125	C	1.292363	0.333201	-0.311998
C126	C	1.625696	0.666534	0.021335
C127	C	0.960292	-0.000135	-0.566389
C128	C	1.293626	0.333199	-0.233056
C129	C	1.626959	0.666532	0.100277
C130	C	0.891955	-0.000113	-0.517770
C131	C	1.225288	0.333220	-0.184437
C132	C	1.558622	0.666553	0.148897
C133	C	0.893324	-0.000122	-0.432171
C134	C	1.226658	0.333211	-0.098837
C135	C	1.559991	0.666545	0.234496
C136	C	0.894421	-0.000129	-0.363945
C137	C	1.227754	0.333204	-0.030612
C138	C	1.561088	0.666538	0.302722
C139	C	0.888096	-0.000118	0.240328
C140	C	1.221429	0.333215	0.573661
C141	C	1.554762	0.666549	0.906994
C142	C	0.889435	-0.000111	0.324345
C143	C	1.222768	0.333223	0.657679
C144	C	1.556101	0.666556	0.991012
H145	H	0.647533	-0.000078	0.231388
H146	H	0.980866	0.333255	0.564721
H147	H	1.314200	0.666588	0.898055
H148	H	1.016964	-0.000152	-0.541706
H149	H	1.350297	0.333181	-0.208373
H150	H	1.683631	0.666515	0.124961
F151	F	0.749628	-0.000079	-0.496350
F152	F	1.082961	0.333254	-0.163017
F153	F	1.416295	0.666588	0.170316
H154	H	0.773073	-0.000106	-0.111192
H155	H	1.106406	0.333228	0.222141
H156	H	1.439739	0.666561	0.555474
H157	H	1.014673	-0.000145	-0.684927
H158	H	1.348006	0.333189	-0.351594
H159	H	1.681340	0.666522	-0.018260
H160	H	0.770788	-0.000095	-0.254415
H161	H	1.104121	0.333238	0.078918
H162	H	1.437454	0.666571	0.412252
F163	F	0.692901	-0.000129	-0.035947
F164	F	1.026234	0.333204	0.297386
F165	F	1.359568	0.666538	0.630719
H166	H	0.504324	-0.000097	0.229097
H167	H	0.837657	0.333236	0.562430
H168	H	1.170990	0.666570	0.895764
F169	F	0.747024	-0.000089	-0.659300
F170	F	1.080357	0.333245	-0.325967
F171	F	1.413691	0.666578	0.007366
H172	H	0.250227	-0.000115	0.225031
H173	H	0.583560	0.333218	0.558364
H174	H	0.916893	0.666551	0.891698
F175	F	0.132633	-0.000169	-0.044909
F176	F	0.465966	0.333164	0.288424
F177	F	0.799300	0.666498	0.621757
H178	H	0.107005	-0.000130	0.222741
H179	H	0.440339	0.333203	0.556074
H180	H	0.773672	0.666537	0.889407
F181	F	0.813041	-0.533457	0.182980
F182	F	1.146375	-0.200123	0.516314
F183	F	1.479708	0.133210	0.849647
F184	F	1.040723	-0.000180	-0.136819
F185	F	1.374056	0.333153	0.196515
F186	F	1.707390	0.666487	0.529848
F187	F	0.974944	-0.466810	0.021125
F188	F	1.308277	-0.133477	0.354458
F189	F	1.641610	0.199856	0.687791
F190	F	0.295584	-0.000168	-0.042306
F191	F	0.628917	0.333165	0.291027
F192	F	0.962250	0.666499	0.624361
F193	F	1.038116	-0.000160	-0.299768
F194	F	1.371450	0.333174	0.033565
F195	F	1.704783	0.666507	0.366898
H196	H	0.537519	-0.000151	-0.021146
H197	H	0.870852	0.333183	0.312187
H198	H	1.204185	0.666516	0.645520
