data_functionalizedCrystal
_audit_creation_method	'MofGen! by Chris Wilmer'
_symmetry_space_group_name_H-M	'P1'
_symmetry_Int_Tables_number	1
_symmetry_cell_setting	triclinic
loop_
_symmetry_equiv_pos_as_xyz
  x,y,z
_cell_length_a	15.072220
_cell_length_b	15.995350
_cell_length_c	15.995350
_cell_angle_alpha	83.492375
_cell_angle_beta	90.001101
_cell_angle_gamma	89.991149
loop_
_atom_site_label
_atom_site_type_symbol
_atom_site_fract_x
_atom_site_fract_y
_atom_site_fract_z
O1	O	0.073703	-1.110996	-0.107921
O2	O	0.073721	-0.867221	-0.121249
O3	O	0.073710	-0.995772	0.007303
O4	O	0.073713	-0.982444	-0.236472
O5	O	-0.073855	-0.995740	0.007296
O6	O	-0.073844	-0.867189	-0.121256
O7	O	-0.073862	-1.110964	-0.107928
Zn8	Zn	-0.097283	-0.989071	-0.114593
Zn9	Zn	0.097141	-0.989113	-0.114584
O10	O	-0.073852	-0.982413	-0.236480
C11	C	-0.000060	-0.836010	-0.120701
C12	C	-0.000053	-0.743060	-0.119049
N13	N	-0.229971	-0.989049	-0.114599
C14	C	-0.000070	-0.995205	0.038494
C15	C	-0.000065	-0.993553	0.131444
C16	C	-0.589173	-0.989112	-0.114580
C17	C	-0.551560	-0.920095	-0.183135
C18	C	-0.448735	-0.920254	-0.183385
C19	C	-0.410969	-0.989080	-0.114590
C20	C	-0.448266	-1.076445	-0.133671
C21	C	-0.551124	-1.076058	-0.134159
C22	C	-0.551272	-0.971542	-0.026741
C23	C	-0.448409	-0.969537	-0.027327
C24	C	-0.310255	-0.989067	-0.114593
C25	C	-0.689886	-0.989130	-0.114579
N26	N	0.229830	-0.989142	-0.114571
C27	C	-0.000080	-1.142175	-0.108476
C28	C	-0.000081	-1.235125	-0.110127
C29	C	-0.000071	-0.405312	-0.113117
C30	C	-0.000401	-0.452746	-0.021565
C31	C	-0.000063	-0.549436	-0.023217
C32	C	-0.000063	-0.572873	-0.116060
C33	C	0.084201	-0.531804	-0.161212
C34	C	0.084266	-0.435168	-0.158912
C35	C	-0.083543	-0.434793	-0.160812
C36	C	-0.084651	-0.531738	-0.160790
C37	C	-0.000055	-0.667570	-0.117727
C38	C	-0.000073	-0.310614	-0.111452
C39	C	-0.000069	-0.982980	-0.267671
C40	C	-0.000069	-0.984631	-0.360621
C41	C	-0.000068	-0.987621	0.469192
C42	C	0.000270	-0.896069	0.421758
C43	C	-0.000063	-0.897721	0.325068
C44	C	-0.000066	-0.990564	0.301631
C45	C	-0.084335	-1.035702	0.342705
C46	C	-0.084405	-1.033402	0.439341
C47	C	0.083404	-1.035330	0.439707
C48	C	0.084518	-1.035308	0.342761
C49	C	-0.000068	-0.992231	0.206934
C50	C	-0.000072	-0.985956	0.563890
H51	H	-0.576317	-0.854945	-0.171953
C52	C	-0.080908	-0.846830	0.448210
C53	C	-0.067779	-0.765526	0.489885
C54	C	-0.148958	-0.716289	0.516337
C55	C	-0.243266	-0.748357	0.501113
C56	C	-0.256399	-0.829665	0.459436
C57	C	-0.175220	-0.878902	0.432984
H58	H	0.002037	-0.741784	0.501157
H59	H	-0.139236	-0.656099	0.547190
H60	H	-0.303360	-0.711908	0.520694
H61	H	-0.326215	-0.853407	0.448164
H62	H	-0.184943	-0.939092	0.402131
H63	H	0.060446	-0.577307	0.012521
C64	C	0.089447	-0.391591	-0.249709
C65	C	0.167821	-0.332919	-0.276732
C66	C	0.173011	-0.289344	-0.367525
C67	C	0.099826	-0.304440	-0.431296
C68	C	0.021446	-0.363115	-0.404275
C69	C	0.016257	-0.406690	-0.313481
H70	H	0.222002	-0.321741	-0.229523
H71	H	0.231033	-0.245909	-0.387527
H72	H	0.103668	-0.272183	-0.498507
H73	H	-0.032734	-0.374293	-0.451483
H74	H	-0.041766	-0.450125	-0.293479
H75	H	-0.576003	-1.129019	-0.086195
H76	H	0.087335	-0.545929	-0.229421
H77	H	-0.577258	-0.909219	-0.008392
C78	C	-0.584133	-1.039528	0.042183
C79	C	-0.556081	-1.036403	0.134351
C80	C	-0.588946	-1.104390	0.203267
C81	C	-0.649863	-1.175503	0.180015
C82	C	-0.677918	-1.178631	0.087843
C83	C	-0.645053	-1.110643	0.018927
H84	H	-0.510984	-0.983758	0.151568
H85	H	-0.568178	-1.102074	0.271499
H86	H	-0.674192	-1.225832	0.231031
H87	H	-0.723015	-1.231276	0.070626
H88	H	-0.665821	-1.112959	-0.049305
C89	C	0.168924	-0.570134	-0.118830
C90	C	0.161825	-0.638646	-0.043315
C91	C	0.246545	-0.676971	-0.000924
C92	C	0.338365	-0.646785	-0.034049
C93	C	0.345469	-0.578270	-0.109569
C94	C	0.260748	-0.539945	-0.151960
H95	H	0.093850	-0.660994	-0.018790
H96	H	0.241286	-0.727690	0.054981
H97	H	0.401080	-0.675155	-0.002669
H98	H	0.413443	-0.555921	-0.134094
H99	H	0.266007	-0.489225	-0.207865
C100	C	0.168740	-0.990730	0.305958
C101	C	0.260911	-1.022787	0.336272
C102	C	0.345130	-0.978179	0.299497
C103	C	0.337178	-0.901514	0.232408
C104	C	0.245002	-0.869453	0.202090
C105	C	0.160783	-0.914061	0.238865
H106	H	0.266801	-1.079543	0.385939
H107	H	0.413364	-1.001913	0.321941
H108	H	0.399522	-0.868492	0.205185
H109	H	0.239112	-0.812697	0.152423
H110	H	0.092549	-0.890327	0.216421
C111	C	0.169355	-0.410446	-0.114417
C112	C	0.236774	-0.478601	-0.081222
C113	C	0.321864	-0.453885	-0.036725
C114	C	0.339536	-0.361012	-0.025423
C115	C	0.272115	-0.292851	-0.058619
C116	C	0.187025	-0.317568	-0.103116
H117	H	0.223694	-0.547356	-0.089588
H118	H	0.371773	-0.504343	-0.012151
H119	H	0.402525	-0.342716	0.007516
H120	H	0.285195	-0.224096	-0.050254
H121	H	0.137116	-0.267110	-0.127690
C122	C	-0.088576	-1.127843	0.323610
C123	C	-0.093156	-1.148057	0.231845
C124	C	-0.097392	-1.240196	0.212743
C125	C	-0.097049	-1.312121	0.285407
C126	C	-0.092469	-1.291909	0.377178
C127	C	-0.088233	-1.199770	0.396280
H128	H	-0.093410	-1.094813	0.178049
H129	H	-0.100782	-1.255158	0.144807
H130	H	-0.100185	-1.380328	0.271266
H131	H	-0.092215	-1.345153	0.430974
H132	H	-0.084842	-1.184808	0.464216
H133	H	-0.060830	-0.434211	0.015027
C134	C	-0.169831	-0.407043	-0.120381
C135	C	-0.165597	-0.357247	-0.043532
C136	C	-0.251879	-0.329498	-0.003091
C137	C	-0.342395	-0.351544	-0.039497
C138	C	-0.346633	-0.401342	-0.116350
C139	C	-0.260351	-0.429092	-0.156791
H140	H	-0.098589	-0.340925	-0.016578
H141	H	-0.248742	-0.292634	0.053801
H142	H	-0.406266	-0.331002	-0.009560
H143	H	-0.413642	-0.417665	-0.143304
H144	H	-0.263489	-0.465956	-0.213683
H145	H	-0.084113	-0.403031	-0.228312
C146	C	0.081534	-0.849772	0.286671
C147	C	0.175558	-0.879343	0.313617
C148	C	0.257154	-0.831383	0.275227
C149	C	0.244725	-0.753851	0.209891
C150	C	0.150697	-0.724275	0.182942
C151	C	0.069101	-0.772235	0.221332
H152	H	0.184762	-0.936741	0.361986
H153	H	0.326760	-0.853277	0.295177
H154	H	0.305127	-0.718347	0.181473
H155	H	0.141493	-0.666877	0.134573
H156	H	-0.000505	-0.750341	0.201382
H157	H	0.059694	-0.433165	0.014865
H158	H	-0.424121	-0.931473	-0.248570
H159	H	-0.146989	-0.559041	-0.127829
C160	C	-0.091526	-0.552478	-0.252260
C161	C	-0.020130	-0.607372	-0.288099
C162	C	-0.026995	-0.628107	-0.379574
C163	C	-0.105255	-0.593947	-0.435211
C164	C	-0.176656	-0.539050	-0.399372
C165	C	-0.169791	-0.518315	-0.307897
H166	H	0.037808	-0.632661	-0.246913
H167	H	0.025862	-0.668745	-0.406104
H168	H	-0.110336	-0.609297	-0.502926
H169	H	-0.234594	-0.513760	-0.440558
H170	H	-0.222648	-0.477676	-0.281368
C171	C	-0.169053	-0.993313	0.304371
C172	C	-0.161946	-0.917804	0.235854
C173	C	-0.246662	-0.875409	0.197521
C174	C	-0.338485	-0.908524	0.227707
C175	C	-0.345597	-0.984038	0.296227
C176	C	-0.260881	-1.026433	0.334560
H177	H	-0.093969	-0.893286	0.213505
H178	H	-0.241397	-0.819509	0.146798
H179	H	-0.401197	-0.877141	0.199331
H180	H	-0.413573	-1.008556	0.318576
H181	H	-0.266146	-1.082333	0.385283
H182	H	0.147274	-1.005411	0.460250
C183	C	-0.413465	-1.097864	-0.219229
C184	C	-0.351253	-1.036240	-0.271843
C185	C	-0.316454	-1.057654	-0.357403
C186	C	-0.343866	-1.140692	-0.390348
C187	C	-0.406081	-1.202321	-0.337733
C188	C	-0.440880	-1.180908	-0.252173
H189	H	-0.330957	-0.974765	-0.247456
H190	H	-0.270398	-1.012031	-0.396352
H191	H	-0.318105	-1.156543	-0.453684
H192	H	-0.426377	-1.263796	-0.362120
H193	H	-0.486936	-1.226530	-0.213224
H194	H	0.060701	-0.859490	0.440293
C195	C	-0.089593	-1.124199	0.482916
C196	C	-0.169444	-1.180186	0.466641
C197	C	-0.174641	-1.270979	0.510214
C198	C	-0.099987	-1.305786	0.570062
C199	C	-0.020131	-1.249799	0.586339
C200	C	-0.014934	-1.159005	0.542766
H201	H	-0.224713	-1.154420	0.422336
H202	H	-0.233757	-1.312425	0.498164
H203	H	-0.103834	-1.372997	0.602317
H204	H	0.035138	-1.275564	0.630644
H205	H	0.044182	-1.117560	0.554816
H206	H	-0.423801	-1.129029	-0.085068
H207	H	-0.060467	-0.577852	0.012275
C208	C	0.091388	-1.126777	0.322014
C209	C	0.091658	-1.199866	0.393505
C210	C	0.098518	-1.291338	0.372759
C211	C	0.105107	-1.309722	0.280521
C212	C	0.104837	-1.236631	0.209024
C213	C	0.097977	-1.145159	0.229770
H214	H	0.086780	-1.186259	0.461790
H215	H	0.098718	-1.345445	0.425686
H216	H	0.110185	-1.377436	0.265164
H217	H	0.109715	-1.250238	0.140739
H218	H	0.097777	-1.091052	0.176843
C219	C	-0.414662	-0.832520	-0.168047
C220	C	-0.481046	-0.761824	-0.155482
C221	C	-0.446979	-0.674085	-0.140152
C222	C	-0.346528	-0.657042	-0.137385
C223	C	-0.280138	-0.727739	-0.149950
C224	C	-0.314205	-0.815479	-0.165281
H225	H	-0.555412	-0.774439	-0.157530
H226	H	-0.496126	-0.621750	-0.130850
H227	H	-0.321310	-0.592092	-0.126036
H228	H	-0.205773	-0.715125	-0.147903
H229	H	-0.265058	-0.867814	-0.174582
C230	C	-0.586458	-0.935039	-0.270703
C231	C	-0.558916	-0.875449	-0.348795
C232	C	-0.593814	-0.890396	-0.436362
C233	C	-0.656255	-0.964932	-0.445837
C234	C	-0.683801	-1.024526	-0.367742
C235	C	-0.648903	-1.009579	-0.280175
H236	H	-0.512690	-0.820269	-0.341784
H237	H	-0.573423	-0.846280	-0.494173
H238	H	-0.682089	-0.975996	-0.510659
H239	H	-0.730027	-1.079706	-0.374753
H240	H	-0.669295	-1.053696	-0.222364
C241	C	-0.415470	-0.882720	-0.007761
C242	C	-0.315283	-0.865775	-0.001177
C243	C	-0.282333	-0.778958	0.018383
C244	C	-0.349570	-0.709087	0.031360
C245	C	-0.449764	-0.726031	0.024776
C246	C	-0.482714	-0.812847	0.005215
H247	H	-0.265504	-0.917499	-0.010783
H248	H	-0.208162	-0.766416	0.023257
H249	H	-0.325178	-0.644821	0.045839
H250	H	-0.499542	-0.674306	0.034382
H251	H	-0.556884	-0.825390	0.000342
H252	H	0.083968	-1.102831	0.471468
C253	C	-0.413688	-1.033037	0.044822
C254	C	-0.433517	-1.127509	0.045113
C255	C	-0.398796	-1.191019	0.117259
C256	C	-0.344247	-1.160055	0.189114
C257	C	-0.324416	-1.065577	0.188826
C258	C	-0.359136	-1.002068	0.116680
H259	H	-0.473900	-1.150435	-0.008081
H260	H	-0.413477	-1.260957	0.117471
H261	H	-0.318545	-1.207068	0.242520
H262	H	-0.284033	-1.042652	0.242019
H263	H	-0.344455	-0.932130	0.116467
H264	H	-0.147395	-1.000460	0.457639
C265	C	-0.583529	-1.096968	-0.220700
C266	C	-0.642052	-1.174921	-0.226956
C267	C	-0.674451	-1.195829	-0.313501
C268	C	-0.648328	-1.138785	-0.393789
C269	C	-0.589803	-1.060827	-0.387536
C270	C	-0.557403	-1.039918	-0.300992
H271	H	-0.661393	-1.217153	-0.167519
H272	H	-0.717776	-1.253539	-0.318129
H273	H	-0.672312	-1.154263	-0.457855
H274	H	-0.570462	-1.018595	-0.446974
H275	H	-0.514079	-0.982208	-0.296364
H276	H	-0.060568	-0.861974	0.297200
