data_functionalizedCrystal
_audit_creation_method	'MofGen! by Chris Wilmer'
_symmetry_space_group_name_H-M	'P1'
_symmetry_Int_Tables_number	1
_symmetry_cell_setting	triclinic
loop_
_symmetry_equiv_pos_as_xyz
  x,y,z
_cell_length_a	17.038272
_cell_length_b	14.048226
_cell_length_c	14.971486
_cell_angle_alpha	90.006640
_cell_angle_beta	87.362843
_cell_angle_gamma	90.000663
loop_
_atom_site_label
_atom_site_type_symbol
_atom_site_fract_x
_atom_site_fract_y
_atom_site_fract_z
O1	O	1.037595	0.079043	0.194250
O2	O	0.809961	0.079071	0.191166
O3	O	0.929879	0.079049	0.062965
O4	O	0.917677	0.079064	0.322451
O5	O	0.929865	-0.079272	0.062956
O6	O	0.809946	-0.079251	0.191157
O7	O	1.037581	-0.079279	0.194241
Zn8	Zn	0.923761	-0.104402	0.192697
Zn9	Zn	0.923780	0.104194	0.192710
O10	O	0.917662	-0.079257	0.322442
C11	C	0.780822	-0.000087	0.188356
C12	C	0.694019	-0.000076	0.179986
N13	N	0.923754	-0.246762	0.192689
C14	C	0.976870	-0.296590	0.135948
C15	C	0.976876	-0.396248	0.135948
C16	C	0.923768	-0.446076	0.192694
C17	C	0.870645	-0.396241	0.249438
C18	C	0.870637	-0.296585	0.249433
C19	C	0.870668	-0.603956	0.249446
C20	C	0.870677	-0.703618	0.249452
C21	C	0.976907	-0.703618	0.135961
C22	C	0.976898	-0.603962	0.135956
C23	C	0.923777	-0.554134	0.192701
C24	C	0.643995	-0.000072	0.256830
C25	C	0.562435	-0.000086	0.248961
C26	C	0.530901	-0.000096	0.164246
C27	C	0.580933	-0.000103	0.087397
C28	C	0.662491	-0.000096	0.095267
C29	C	0.285111	-0.000124	0.136442
C30	C	0.203547	-0.000127	0.128577
C31	C	0.185054	-0.000112	0.290142
C32	C	0.266615	-0.000100	0.298005
C33	C	0.316639	-0.000111	0.221155
C34	C	0.447535	-0.000107	0.156200
C35	C	0.400004	-0.000107	0.229202
C36	C	1.066719	-0.000119	0.197051
C37	C	1.153522	-0.000124	0.205421
C38	C	0.929326	-0.000111	0.029595
C39	C	0.927691	-0.000110	-0.069825
N40	N	0.923794	0.246554	0.192711
C41	C	0.998140	-0.000120	-0.121776
C42	C	0.996598	-0.000110	-0.215190
C43	C	0.924607	-0.000097	-0.256653
C44	C	0.854153	-0.000085	-0.204695
C45	C	0.855695	-0.000088	-0.111282
C46	C	0.850944	-0.000081	-0.399398
C47	C	0.849402	-0.000080	-0.492817
C48	C	0.991847	-0.000103	-0.503306
C49	C	0.993389	-0.000106	-0.409893
C50	C	0.922935	-0.000096	-0.357942
C51	C	0.918215	-0.000095	0.355812
C52	C	0.919850	-0.000090	0.455232
H53	H	1.020120	-0.256026	0.089743
H54	H	0.790780	-0.000086	-0.526573
F55	F	0.413967	-0.000115	0.066043
H56	H	1.020160	-0.744193	0.089758
H57	H	0.555252	-0.000125	0.018421
F58	F	0.338340	-0.000136	0.054650
H59	H	0.521707	-0.000082	0.311535
F60	F	0.814151	-0.756642	0.309849
F61	F	0.814119	-0.449273	0.309828
H62	H	0.793572	-0.000070	-0.357101
F63	F	0.169989	-0.000155	0.038409
F64	F	0.300169	-0.000083	0.388169
H65	H	0.703221	-0.000099	0.032693
F66	F	0.814127	-0.550929	0.309838
H67	H	0.795537	-0.000069	-0.238461
F68	F	0.433566	-0.000100	0.319358
F69	F	1.074763	-0.000142	-0.077657
F70	F	1.033425	-0.550930	0.075567
F71	F	0.780714	-0.000075	-0.055992
H72	H	1.053965	-0.000119	-0.257485
H73	H	1.020127	-0.436817	0.089745
F74	F	1.070010	-0.000117	-0.365768
H75	H	1.049214	-0.000108	-0.545610
F76	F	0.677547	-0.000055	0.346995
F77	F	0.814100	-0.243557	0.309822
F78	F	0.131810	-0.000102	0.371924
