data_functionalizedCrystal
_audit_creation_method	'MofGen! by Chris Wilmer'
_symmetry_space_group_name_H-M	'P1'
_symmetry_Int_Tables_number	1
_symmetry_cell_setting	triclinic
loop_
_symmetry_equiv_pos_as_xyz
  x,y,z
_cell_length_a	10.967819
_cell_length_b	12.377033
_cell_length_c	11.026607
_cell_angle_alpha	76.198504
_cell_angle_beta	83.618900
_cell_angle_gamma	90.441748
loop_
_atom_site_label
_atom_site_type_symbol
_atom_site_fract_x
_atom_site_fract_y
_atom_site_fract_z
O1	O	1.612659	0.408132	-0.270825
O2	O	1.266466	0.340697	-0.270573
O3	O	1.410871	0.368822	-0.092423
O4	O	1.468254	0.380007	-0.448975
O5	O	1.446936	0.187850	-0.047956
O6	O	1.302532	0.159726	-0.226105
O7	O	1.648724	0.227160	-0.226358
Zn8	Zn	1.481354	0.164710	-0.219171
Zn9	Zn	1.433836	0.403148	-0.277759
O10	O	1.504319	0.199036	-0.404507
C11	C	1.239490	0.241444	-0.244996
C12	C	1.105374	0.215320	-0.235021
N13	N	1.513792	0.001984	-0.179186
C14	C	0.888286	0.270442	-0.243318
C15	C	1.026903	0.297436	-0.253618
C16	C	1.326078	-0.389646	-0.410585
C17	C	1.303353	-0.275742	-0.438580
C18	C	1.355962	-0.206305	-0.373734
C19	C	1.431298	-0.250783	-0.280888
C20	C	1.454017	-0.364699	-0.252884
C21	C	1.483900	-0.181359	-0.216033
C22	C	1.559236	-0.225836	-0.123187
C23	C	1.581953	-0.339742	-0.095188
C24	C	1.529344	-0.409179	-0.160034
C25	C	1.461181	-0.067442	-0.244037
C26	C	1.589120	-0.042496	-0.086336
C27	C	1.611844	-0.156399	-0.058341
C28	C	1.675700	0.326415	-0.251935
C29	C	1.809814	0.352547	-0.261911
C30	C	1.418317	0.276275	-0.024380
C31	C	1.386758	0.270132	0.112116
N32	N	1.401406	0.565875	-0.317735
C33	C	1.496873	0.291585	-0.472551
C34	C	1.528430	0.297735	-0.609049
C35	C	1.473896	0.287107	0.180996
C36	C	1.441280	0.280758	0.322073
H37	H	0.852848	0.180166	-0.219782
O38	O	1.379924	-0.019492	-0.344171
H39	H	1.300010	0.018835	-0.301866
O40	O	1.073820	0.417031	-0.284809
H41	H	1.033075	0.458264	-0.211586
O42	O	1.331466	-0.083448	-0.403929
H43	H	1.270253	-0.064183	-0.479392
O44	O	1.659241	0.323219	0.330727
H45	H	1.689957	0.405834	0.341189
O46	O	1.255954	0.244647	0.172345
H47	H	1.195828	0.309562	0.125627
O48	O	0.856746	0.472132	-0.293081
H49	H	0.920434	0.489372	-0.381548
O50	O	1.058374	0.095753	-0.203901
H51	H	1.084683	0.051638	-0.111002
O52	O	1.222113	-0.227765	-0.538720
H53	H	1.189359	-0.295180	-0.579117
O54	O	1.269343	-0.464531	-0.480523
H55	H	1.297805	-0.551210	-0.445455
H56	H	1.547850	-0.501928	-0.137245
O57	O	1.604705	0.312585	0.120782
H58	H	1.609797	0.313568	0.019425
O59	O	1.663217	-0.387707	0.004945
H60	H	1.623050	-0.372810	0.096208
O61	O	1.693089	-0.204376	0.041806
H62	H	1.700038	-0.295250	0.050385
O63	O	1.645850	0.032384	-0.016374
H64	H	1.705064	0.097837	-0.084175
O65	O	1.310466	0.255269	0.382285
H66	H	1.305378	0.254270	0.483645
