data_functionalizedCrystal
_audit_creation_method	'MofGen! by Chris Wilmer'
_symmetry_space_group_name_H-M	'P1'
_symmetry_Int_Tables_number	1
_symmetry_cell_setting	triclinic
loop_
_symmetry_equiv_pos_as_xyz
  x,y,z
_cell_length_a	10.540539
_cell_length_b	16.109301
_cell_length_c	15.186229
_cell_angle_alpha	90.005167
_cell_angle_beta	89.998698
_cell_angle_gamma	96.006514
loop_
_atom_site_label
_atom_site_type_symbol
_atom_site_fract_x
_atom_site_fract_y
_atom_site_fract_z
O1	O	1.684215	-0.117165	-0.073190
O2	O	1.314645	-0.128205	-0.073201
O3	O	1.509582	-0.001716	-0.073187
O4	O	1.489277	-0.243654	-0.073205
O5	O	1.509569	-0.001714	0.073271
O6	O	1.314632	-0.128203	0.073256
O7	O	1.684202	-0.117163	0.073267
Zn8	Zn	1.499415	-0.122683	0.096515
Zn9	Zn	1.499432	-0.122685	-0.096449
O10	O	1.489264	-0.243652	0.073252
C11	C	1.267347	-0.127376	0.000026
C12	C	1.126434	-0.124899	0.000022
C13	C	1.508753	0.029265	0.000043
C14	C	1.506287	0.121575	0.000044
N15	N	1.499412	-0.122681	0.228207
C16	C	0.944360	-0.029989	0.000371
C17	C	1.090943	-0.032500	0.000032
C18	C	1.064135	-0.169366	-0.083612
C19	C	0.917636	-0.166213	-0.083673
C20	C	0.917106	-0.168090	0.082876
C21	C	1.064075	-0.168941	0.083972
C22	C	1.731500	-0.117992	0.000038
C23	C	1.872413	-0.120469	0.000036
C24	C	1.490093	-0.274633	0.000021
C25	C	1.492559	-0.366943	0.000014
C26	C	1.616226	0.343175	0.000033
C27	C	1.613899	0.429910	0.000026
C28	C	1.382612	0.411450	0.000022
C29	C	1.384940	0.324717	0.000023
C30	C	1.501751	0.290582	0.000033
C31	C	1.497096	0.464050	0.000025
C32	C	1.494572	0.558091	0.000017
C33	C	1.504275	0.196535	0.000039
N34	N	1.499444	-0.122681	-0.228142
C35	C	1.585760	-0.066691	0.453937
C36	C	1.585764	-0.066689	0.546126
C37	C	1.413087	-0.178673	0.546122
C38	C	1.413078	-0.178671	0.453934
C39	C	1.499422	-0.122680	0.407844
C40	C	1.499435	-0.122681	0.592222
C41	C	1.499439	-0.122679	0.692178
C42	C	1.499417	-0.122681	0.307882
H43	H	1.134050	0.002489	0.059985
C44	C	0.906431	0.019332	0.081390
H45	H	0.950889	0.073758	0.080361
H46	H	0.817171	0.023340	0.080280
H47	H	0.927851	-0.008669	0.133518
C48	C	1.254131	0.449002	0.000024
H49	H	1.269138	0.508189	0.000033
H50	H	1.206994	0.430992	-0.051048
H51	H	1.207003	0.430998	0.051105
C52	C	1.739822	0.487759	0.000031
H53	H	1.809718	0.455004	0.000044
H54	H	1.743730	0.521973	-0.051042
H55	H	1.743714	0.521981	0.051110
H56	H	1.107169	-0.138478	-0.145850
C57	C	1.680741	-0.005103	0.596825
H58	H	1.732165	0.028236	0.556169
H59	H	1.635105	0.029796	0.632795
H60	H	1.733570	-0.035352	0.632780
C61	C	1.318113	-0.240267	0.403225
H62	H	1.330469	-0.232240	0.341720
H63	H	1.331878	-0.295841	0.418324
H64	H	1.233399	-0.230703	0.418336
C65	C	1.259012	0.266861	0.000026
H66	H	1.189110	0.299611	0.000033
H67	H	1.255116	0.232637	-0.051046
H68	H	1.255116	0.232649	0.051106
C69	C	1.680731	-0.005106	0.403236
H70	H	1.668373	-0.013128	0.341730
H71	H	1.666980	0.050471	0.418350
H72	H	1.765441	-0.014679	0.418342
C73	C	0.904259	0.019120	-0.080190
H74	H	0.843864	-0.015279	-0.114030
H75	H	0.867070	0.067198	-0.060951
H76	H	0.977109	0.035724	-0.115301
H77	H	1.342790	-0.224261	0.583658
C78	C	1.119998	-0.125052	0.167561
H79	H	1.081893	-0.151977	0.218121
H80	H	1.209554	-0.127810	0.169104
H81	H	1.103028	-0.068287	0.167032
C82	C	1.148030	0.015087	-0.081096
H83	H	1.081621	0.036024	-0.113980
H84	H	1.207130	0.060235	-0.062448
H85	H	1.190542	-0.021649	-0.116926
C86	C	0.880153	-0.121815	-0.168116
H87	H	0.790466	-0.119504	-0.168900
H88	H	0.922319	-0.066748	-0.169416
H89	H	0.904536	-0.151816	-0.218133
C90	C	0.851548	-0.255978	-0.088831
H91	H	0.914271	-0.294208	-0.090887
H92	H	0.799212	-0.267145	-0.038404
H93	H	0.800407	-0.261961	-0.140409
H94	H	1.085521	-0.237222	-0.086729
C95	C	0.875061	-0.127697	0.168517
H96	H	0.829855	-0.081404	0.154549
H97	H	0.821267	-0.167496	0.201166
H98	H	0.948133	-0.109249	0.202661
H99	H	1.087341	-0.236306	0.089017
H100	H	0.868927	-0.234830	0.083436
H101	H	1.711340	0.315386	0.000039
