data_functionalizedCrystal
_audit_creation_method	'MofGen! by Chris Wilmer'
_symmetry_space_group_name_H-M	'P1'
_symmetry_Int_Tables_number	1
_symmetry_cell_setting	triclinic
loop_
_symmetry_equiv_pos_as_xyz
  x,y,z
_cell_length_a	10.685980
_cell_length_b	14.908579
_cell_length_c	10.686551
_cell_angle_alpha	89.140661
_cell_angle_beta	98.408259
_cell_angle_gamma	82.074563
loop_
_atom_site_label
_atom_site_type_symbol
_atom_site_fract_x
_atom_site_fract_y
_atom_site_fract_z
Zn1	Zn	1.980586	0.202208	0.881849
Zn2	Zn	2.480586	0.702208	1.381849
Zn3	Zn	1.951877	0.365643	0.681827
Zn4	Zn	2.451877	0.865643	1.181827
Zn5	Zn	1.750125	0.227318	0.655195
Zn6	Zn	2.250125	0.727318	1.155195
Zn7	Zn	1.756007	0.365555	0.877731
Zn8	Zn	2.256007	0.865555	1.377731
O9	O	1.859649	0.290181	0.774151
O10	O	2.359649	0.790181	1.274151
O11	O	2.155199	0.213417	0.868185
O12	O	2.655199	0.713417	1.368185
O13	O	1.910637	0.357838	0.501452
O14	O	2.410637	0.857838	1.001452
O15	O	1.790250	0.097736	0.675839
O16	O	2.290250	0.597736	1.175839
O17	O	2.134106	0.333491	0.721230
O18	O	2.634106	0.833491	1.221230
O19	O	1.959569	0.079289	0.842361
O20	O	2.459569	0.579289	1.342361
O21	O	1.762412	0.256212	0.481885
O22	O	2.262412	0.756212	0.981885
O23	O	1.572485	0.256127	0.671845
O24	O	2.072485	0.756127	1.171845
O25	O	1.800274	0.333342	1.055120
O26	O	2.300274	0.833342	1.555120
O27	O	1.576806	0.357689	0.835342
O28	O	2.076806	0.857689	1.335342
O29	O	1.965272	0.213332	1.058145
O30	O	2.465272	0.713332	1.558145
O31	O	1.916340	0.491881	0.717237
O32	O	2.416340	0.991881	1.217237
O33	O	1.772436	0.491817	0.861166
O34	O	2.272436	0.991817	1.361166
C35	C	1.528383	0.309624	0.750257
C36	C	2.028383	0.809624	1.250257
C37	C	1.386667	0.317961	0.740067
C38	C	1.886667	0.817961	1.240067
C39	C	1.841948	0.524581	0.791675
C40	C	2.341948	1.024581	1.291675
C41	C	1.834495	0.624849	0.799222
C42	C	2.334495	1.124849	1.299222
C43	C	1.970518	0.813252	0.663673
C44	C	2.470518	1.313252	1.163673
C45	C	1.963519	0.907462	0.670761
C46	C	2.463519	1.407462	1.170761
C47	C	1.813508	0.907482	0.820492
C48	C	2.313508	1.407482	1.320492
C49	C	1.820507	0.813271	0.813404
C50	C	2.320507	1.313271	1.313404
C51	C	1.899013	0.766160	0.734991
C52	C	2.399013	1.266160	1.234991
C53	C	1.906003	0.671948	0.727897
C54	C	2.406003	1.171948	1.227897
C55	C	1.756000	0.671969	0.877633
C56	C	2.256000	1.171969	1.377633
C57	C	1.749001	0.766179	0.884721
C58	C	2.249001	1.266179	1.384721
C59	C	2.192208	0.270663	0.798138
C60	C	2.692208	0.770663	1.298138
C61	C	2.333925	0.262345	0.808360
C62	C	2.833925	0.762345	1.308360
C63	C	1.886632	0.270526	1.103768
C64	C	2.386632	0.770526	1.603768
C65	C	1.898130	0.262150	1.244231
C66	C	2.398130	0.762150	1.744231
C67	C	1.877449	1.054861	0.756604
C68	C	2.377449	1.554861	1.256604
C69	C	1.885016	0.954581	0.749166
C70	C	2.385016	1.454581	1.249166
C71	C	1.832849	0.309690	0.445816
C72	C	2.332849	0.809690	0.945816
C73	C	1.821617	0.317797	0.305352
C74	C	2.321617	0.817797	0.805352
H75	H	1.323397	0.371958	0.673793
H76	H	1.823397	0.871958	1.173793
H77	H	1.397188	0.208346	0.874622
H78	H	1.897188	0.708346	1.374622
H79	H	1.972443	0.208101	1.299368
H80	H	2.472443	0.708101	1.799368
H81	H	1.969923	0.633591	0.664045
H82	H	2.469923	1.133591	1.164045
F83	F	1.729980	0.957635	0.903953
F84	F	2.229980	1.457635	1.403953
F85	F	2.054050	0.763112	0.580204
F86	F	2.554050	1.263112	1.080204
F87	F	1.679879	0.621845	0.953525
F88	F	2.179879	1.121845	1.453525
F89	F	2.039628	0.957578	0.594858
F90	F	2.539628	1.457578	1.094858
H91	H	1.685088	0.804550	0.948566
H92	H	2.185088	1.304550	1.448566
F93	F	1.724500	0.388448	1.233297
F94	F	2.224500	0.888448	1.733297
