data_functionalizedCrystal
_audit_creation_method	'MofGen! by Chris Wilmer'
_symmetry_space_group_name_H-M	'P1'
_symmetry_Int_Tables_number	1
_symmetry_cell_setting	triclinic
loop_
_symmetry_equiv_pos_as_xyz
  x,y,z
_cell_length_a	6.817900
_cell_length_b	11.102244
_cell_length_c	10.943624
_cell_angle_alpha	91.861156
_cell_angle_beta	108.838799
_cell_angle_gamma	108.604870
loop_
_atom_site_label
_atom_site_type_symbol
_atom_site_fract_x
_atom_site_fract_y
_atom_site_fract_z
V1	V	-4.114276	-0.175805	-0.402548
O2	O	-4.073263	0.008482	-0.394888
O3	O	-4.091028	-0.348625	-0.399791
O4	O	-4.092258	-0.173086	-0.578114
O5	O	-4.072025	-0.168272	-0.215331
V6	V	-4.591226	-0.153764	-0.380156
O7	O	-4.389952	-0.224154	-0.451667
O8	O	-4.765748	-0.105415	-0.331036
O9	O	-4.391268	0.019056	-0.382912
O10	O	-4.749637	-0.338052	-0.387815
O11	O	-4.750874	-0.161297	-0.567372
O12	O	-4.390038	-0.156483	-0.204589
C13	C	-3.941294	-0.390755	-0.393440
C14	C	-4.003749	-0.532038	-0.392357
C15	C	-3.972110	-0.580282	-0.273620
C16	C	-4.030808	-0.713035	-0.272617
C17	C	-4.152775	-0.749287	-0.509098
C18	C	-4.094092	-0.616538	-0.510100
C19	C	-3.901685	-0.559353	-0.137088
C20	C	-3.960383	-0.692105	-0.136085
C21	C	-3.942861	-0.166836	-0.620907
C22	C	-4.006308	-0.165756	-0.764434
C23	C	-3.851189	-0.158485	-0.841581
C24	C	-4.039798	-0.266415	-0.947569
C25	C	-3.930777	-0.055914	-0.914186
C26	C	-4.194128	-0.273788	-0.868545
C27	C	-4.085027	-0.063191	-0.835139
C28	C	-4.273773	-0.171152	-0.941097
C29	C	-4.204344	0.061179	-0.389260
C30	C	-4.121129	0.202460	-0.390352
C31	C	-4.202777	-0.162737	-0.161789
C32	C	-4.118567	-0.163811	-0.018262
H33	H	-4.102528	-0.731909	-0.098506
N34	N	-3.758511	-0.722611	-0.059743
H35	H	-3.626400	-0.640382	-0.025650
H36	H	-3.729729	-0.781708	-0.118589
N37	N	-4.015374	-0.380225	-1.012410
H38	H	-3.856309	-0.375384	-0.976020
H39	H	-4.060233	-0.379044	-1.109679
N40	N	-4.031982	-0.507570	-0.074592
H41	H	-3.998290	-0.525233	0.018520
H42	H	-4.195200	-0.551016	-0.125240
N43	N	-4.340819	-0.395893	-0.841335
H44	H	-4.324070	-0.472582	-0.883370
H45	H	-4.499891	-0.400884	-0.878486
N46	N	-4.109366	0.050611	-0.770240
H47	H	-4.267806	0.046723	-0.807828
H48	H	-4.009088	0.132777	-0.786245
H49	H	-4.119875	-0.577264	-0.606788
N50	N	-4.511231	-0.178264	-0.998399
H51	H	-4.529189	-0.102290	-0.955885
H52	H	-4.610766	-0.260589	-0.982174
H53	H	-3.820066	0.036144	-0.934951
N54	N	-3.613874	-0.151589	-0.784020
H55	H	-3.571943	-0.151569	-0.686664
H56	H	-3.514275	-0.070123	-0.801606
H57	H	-4.226336	-0.818103	-0.604960
H58	H	-3.715845	-0.506555	-0.089935
