data_functionalizedCrystal
_audit_creation_method	'MofGen! by Chris Wilmer'
_symmetry_space_group_name_H-M	'P1'
_symmetry_Int_Tables_number	1
_symmetry_cell_setting	triclinic
loop_
_symmetry_equiv_pos_as_xyz
  x,y,z
_cell_length_a	12.759401
_cell_length_b	12.759399
_cell_length_c	12.759393
_cell_angle_alpha	89.969094
_cell_angle_beta	90.020566
_cell_angle_gamma	89.986676
loop_
_atom_site_label
_atom_site_type_symbol
_atom_site_fract_x
_atom_site_fract_y
_atom_site_fract_z
Zn1	Zn	-1.606263	-0.418266	-0.594007
Zn2	Zn	-1.106263	0.081734	-0.094007
Zn3	Zn	-1.606153	-0.593981	-0.418326
Zn4	Zn	-1.106153	-0.093981	0.081674
Zn5	Zn	-1.430562	-0.418311	-0.418343
Zn6	Zn	-0.930562	0.081689	0.081657
Zn7	Zn	-1.430553	-0.593898	-0.593964
Zn8	Zn	-0.930553	-0.093898	-0.093964
O9	O	-1.518383	-0.506114	-0.506160
O10	O	-1.018383	-0.006114	-0.006160
O11	O	-1.753270	-0.441591	-0.570713
O12	O	-1.253270	0.058409	-0.070713
O13	O	-1.582818	-0.570732	-0.271307
O14	O	-1.082818	-0.070732	0.228693
O15	O	-1.453919	-0.271284	-0.441670
O16	O	-0.953919	0.228716	0.058330
O17	O	-1.753189	-0.570688	-0.441641
O18	O	-1.253189	-0.070688	0.058359
O19	O	-1.583006	-0.271251	-0.570730
O20	O	-1.083006	0.228749	-0.070730
O21	O	-1.453812	-0.441669	-0.271320
O22	O	-0.953812	0.058331	0.228680
O23	O	-1.283540	-0.441587	-0.441629
O24	O	-0.783540	0.058413	0.058371
O25	O	-1.453903	-0.570546	-0.740991
O26	O	-0.953903	-0.070546	-0.240991
O27	O	-1.283533	-0.570590	-0.570657
O28	O	-0.783533	-0.070590	-0.070657
O29	O	-1.582997	-0.441510	-0.741022
O30	O	-1.082997	0.058490	-0.241022
O31	O	-1.582809	-0.740991	-0.441599
O32	O	-1.082809	-0.240991	0.058401
O33	O	-1.453796	-0.740930	-0.570640
O34	O	-0.953796	-0.240930	-0.070640
C35	C	-1.245415	-0.506085	-0.506141
C36	C	-0.745415	-0.006085	-0.006141
C37	C	-1.128639	-0.506098	-0.506157
C38	C	-0.628639	-0.006098	-0.006157
C39	C	-1.073820	-0.438997	-0.573468
C40	C	-0.573820	0.061003	-0.073468
C41	C	-0.964096	-0.439003	-0.573473
C42	C	-0.464096	0.060997	-0.073473
C43	C	-0.964020	-0.573222	-0.438854
C44	C	-0.464020	-0.073222	0.061146
C45	C	-1.073742	-0.573210	-0.438845
C46	C	-0.573742	-0.073210	0.061155
C47	C	-1.518318	-0.779081	-0.506136
C48	C	-1.018318	-0.279081	-0.006136
C49	C	-1.518387	-0.895858	-0.506161
C50	C	-1.018387	-0.395858	-0.006161
C51	C	-0.792416	-0.506134	-0.506176
C52	C	-0.292416	-0.006134	-0.006176
C53	C	-0.909193	-0.506117	-0.506172
C54	C	-0.409193	-0.006117	-0.006172
C55	C	-1.585641	-0.950717	-0.439046
C56	C	-1.085641	-0.450717	0.060954
C57	C	-1.585708	-1.060441	-0.439081
C58	C	-1.085708	-0.560441	0.060919
C59	C	-1.451259	-1.060437	-0.573349
C60	C	-0.951259	-0.560437	-0.073349
C61	C	-1.451198	-0.950715	-0.573319
C62	C	-0.951198	-0.450715	-0.073319
C63	C	-1.518461	-0.506013	-0.780193
C64	C	-1.018461	-0.006013	-0.280193
C65	C	-1.518495	-0.505970	-0.896970
C66	C	-1.018495	-0.005970	-0.396970
C67	C	-1.518476	-0.232081	-0.506207
C68	C	-1.018476	0.267919	-0.006207
C69	C	-1.518516	-0.115304	-0.506227
C70	C	-1.018516	0.384696	-0.006227
C71	C	-1.585719	-0.438770	-0.951850
C72	C	-1.085719	0.061230	-0.451850
C73	C	-1.585737	-0.438725	-1.061574
C74	C	-1.085737	0.061275	-0.561574
C75	C	-1.451303	-0.573088	-1.061529
C76	C	-0.951303	-0.073088	-0.561529
C77	C	-1.451281	-0.573128	-0.951806
C78	C	-0.951281	-0.073128	-0.451806
C79	C	-1.518365	-0.506139	-0.233192
C80	C	-1.018365	-0.006139	0.266808
C81	C	-1.518535	-0.505886	-0.116416
C82	C	-1.018535	-0.005886	0.383584
H83	H	-0.919467	-0.384361	-0.628283
H84	H	-0.419467	0.115639	-0.128283
H85	H	-1.396583	-0.627768	-1.106190
H86	H	-0.896583	-0.127768	-0.606190
Cl87	Cl	-1.670212	-0.354340	-0.882916
Cl88	Cl	-1.170212	0.145660	-0.382916
H89	H	-1.396532	-0.627849	-0.907122
H90	H	-0.896532	-0.127849	-0.407122
H91	H	-1.640474	-1.105102	-0.384430
H92	H	-1.140474	-0.605102	0.115570
H93	H	-1.118514	-0.384347	-0.628275
H94	H	-0.618514	0.115653	-0.128275
Cl95	Cl	-1.670109	-0.881757	-0.354622
Cl96	Cl	-1.170109	-0.381757	0.145378
Cl97	Cl	-0.894998	-0.657589	-0.354241
Cl98	Cl	-0.394998	-0.157589	0.145759
H99	H	-1.396432	-0.906046	-0.627977
H100	H	-0.896432	-0.406046	-0.127977
Cl101	Cl	-1.142662	-0.657562	-0.354208
Cl102	Cl	-0.642662	-0.157562	0.145792
Cl103	Cl	-1.366794	-1.129408	-0.657768
Cl104	Cl	-0.866794	-0.629408	-0.157768
H105	H	-1.640476	-0.384003	-1.106253
H106	H	-1.140476	0.115997	-0.606253
