data_functionalizedCrystal
_audit_creation_method	'MofGen! by Chris Wilmer'
_symmetry_space_group_name_H-M	'P1'
_symmetry_Int_Tables_number	1
_symmetry_cell_setting	triclinic
loop_
_symmetry_equiv_pos_as_xyz
  x,y,z
_cell_length_a	13.897449
_cell_length_b	18.050589
_cell_length_c	13.897441
_cell_angle_alpha	89.973098
_cell_angle_beta	89.981404
_cell_angle_gamma	90.029500
loop_
_atom_site_label
_atom_site_type_symbol
_atom_site_fract_x
_atom_site_fract_y
_atom_site_fract_z
Zn1	Zn	1.474612	-0.295618	-0.545399
Zn2	Zn	1.724612	-0.045618	-0.295399
Zn3	Zn	1.974612	0.204382	-0.045399
Zn4	Zn	2.224612	0.454382	0.204601
Zn5	Zn	1.474482	-0.419820	-0.384108
Zn6	Zn	1.724482	-0.169820	-0.134108
Zn7	Zn	1.974482	0.080180	0.115892
Zn8	Zn	2.224482	0.330180	0.365892
Zn9	Zn	1.313307	-0.295651	-0.384118
Zn10	Zn	1.563307	-0.045651	-0.134118
Zn11	Zn	1.813307	0.204349	0.115882
Zn12	Zn	2.063307	0.454349	0.365882
Zn13	Zn	1.313253	-0.419773	-0.545361
Zn14	Zn	1.563253	-0.169773	-0.295361
Zn15	Zn	1.813253	0.080227	-0.045361
Zn16	Zn	2.063253	0.330227	0.204639
O17	O	1.393913	-0.357715	-0.464747
O18	O	1.643913	-0.107715	-0.214747
O19	O	1.893913	0.142285	0.035253
O20	O	2.143913	0.392285	0.285253
O21	O	1.609576	-0.312099	-0.524016
O22	O	1.859576	-0.062099	-0.274016
O23	O	2.109576	0.187901	-0.024016
O24	O	2.359576	0.437901	0.225984
O25	O	1.453070	-0.403382	-0.249128
O26	O	1.703070	-0.153382	0.000872
O27	O	1.953070	0.096618	0.250872
O28	O	2.203070	0.346618	0.500872
O29	O	1.334781	-0.191722	-0.405532
O30	O	1.584781	0.058278	-0.155532
O31	O	1.834781	0.308278	0.094468
O32	O	2.084781	0.558278	0.344468
O33	O	1.609481	-0.403350	-0.405516
O34	O	1.859481	-0.153350	-0.155516
O35	O	2.109481	0.096650	0.094484
O36	O	2.359481	0.346650	0.344484
O37	O	1.453291	-0.191697	-0.524025
O38	O	1.703291	0.058303	-0.274025
O39	O	1.953291	0.308303	-0.024025
O40	O	2.203291	0.558303	0.225975
O41	O	1.334655	-0.312156	-0.249135
O42	O	1.584655	-0.062156	0.000865
O43	O	1.834655	0.187844	0.250865
O44	O	2.084655	0.437844	0.500865
O45	O	1.178318	-0.312110	-0.405495
O46	O	1.428318	-0.062110	-0.155495
O47	O	1.678318	0.187890	0.094505
O48	O	1.928318	0.437890	0.344505
O49	O	1.334689	-0.403270	-0.680348
O50	O	1.584689	-0.153270	-0.430348
O51	O	1.834689	0.096730	-0.180348
O52	O	2.084689	0.346730	0.069652
O53	O	1.178278	-0.403302	-0.523960
O54	O	1.428278	-0.153302	-0.273960
O55	O	1.678278	0.096698	-0.023960
O56	O	1.928278	0.346698	0.226040
O57	O	1.453239	-0.312054	-0.680376
O58	O	1.703239	-0.062054	-0.430376
O59	O	1.953239	0.187946	-0.180376
O60	O	2.203239	0.437946	0.069624
O61	O	1.453018	-0.523738	-0.405479
O62	O	1.703018	-0.273738	-0.155479
O63	O	1.953018	-0.023738	0.094521
O64	O	2.203018	0.226262	0.344521
O65	O	1.334564	-0.523704	-0.523951
O66	O	1.584564	-0.273704	-0.273951
O67	O	1.834564	-0.023704	-0.023951
O68	O	2.084564	0.226296	0.226049
C69	C	1.143299	-0.357705	-0.464725
C70	C	1.393299	-0.107705	-0.214725
C71	C	1.643299	0.142295	0.035275
C72	C	1.893299	0.392295	0.285275
C73	C	1.036085	-0.357719	-0.464738
C74	C	1.286085	-0.107719	-0.214738
C75	C	1.536085	0.142281	0.035262
C76	C	1.786085	0.392281	0.285262
C77	C	0.839790	-0.357722	-0.464763
C78	C	1.089790	-0.107722	-0.214763
C79	C	1.339790	0.142278	0.035237
C80	C	1.589790	0.392278	0.285237
C81	C	0.949023	-0.357718	-0.464747
C82	C	1.199023	-0.107718	-0.214747
C83	C	1.449023	0.142282	0.035253
C84	C	1.699023	0.392282	0.285253
C85	C	1.393797	-0.550667	-0.464731
C86	C	1.643797	-0.300667	-0.214731
C87	C	1.893797	-0.050667	0.035269
C88	C	2.143797	0.199333	0.285269
C89	C	1.393835	-0.633213	-0.464756
C90	C	1.643835	-0.383213	-0.214756
C91	C	1.893835	-0.133213	0.035244
C92	C	2.143835	0.116787	0.285244
C93	C	1.329483	-0.832672	-0.529158
C94	C	1.579483	-0.582672	-0.279158
C95	C	1.829483	-0.332672	-0.029158
C96	C	2.079483	-0.082672	0.220842
C97	C	1.305969	-0.882117	-0.441140
C98	C	1.555969	-0.632117	-0.191140
C99	C	1.805969	-0.382117	0.058860
C100	C	2.055969	-0.132117	0.308860
C101	C	1.393930	-0.784344	-0.464769
C102	C	1.643930	-0.534344	-0.214769
C103	C	1.893930	-0.284344	0.035231
C104	C	2.143930	-0.034344	0.285231
C105	C	1.417491	-0.881981	-0.552797
C106	C	1.667491	-0.631981	-0.302797
C107	C	1.917491	-0.381981	-0.052797
C108	C	2.167491	-0.131981	0.197203
C109	C	1.394020	-0.930329	-0.464789
C110	C	1.644020	-0.680329	-0.214789
C111	C	1.894020	-0.430329	0.035211
C112	C	2.144020	-0.180329	0.285211
C113	C	1.370370	-0.832701	-0.376703
C114	C	1.620370	-0.582701	-0.126703
C115	C	1.870370	-0.332701	0.123297
C116	C	2.120370	-0.082701	0.373297
C117	C	1.481933	-0.832560	-0.488420
C118	C	1.731933	-0.582560	-0.238420
C119	C	1.981933	-0.332560	0.011580
C120	C	2.231933	-0.082560	0.261580
C121	C	1.458453	-0.881983	-0.400341
C122	C	1.708453	-0.631983	-0.150341
C123	C	1.958453	-0.381983	0.099659
C124	C	2.208453	-0.131983	0.349659
C125	C	1.393876	-0.700245	-0.464758
C126	C	1.643876	-0.450245	-0.214758
C127	C	1.893876	-0.200245	0.035242
C128	C	2.143876	0.049755	0.285242
C129	C	1.394074	-1.014425	-0.464789
C130	C	1.644074	-0.764425	-0.214789
C131	C	1.894074	-0.514425	0.035211
C132	C	2.144074	-0.264425	0.285211
C133	C	1.645506	-0.357726	-0.464769
C134	C	1.895506	-0.107726	-0.214769
C135	C	2.145506	0.142274	0.035231
C136	C	2.395506	0.392274	0.285231
C137	C	1.752720	-0.357730	-0.464779
C138	C	2.002720	-0.107730	-0.214779
C139	C	2.252720	0.142270	0.035221
C140	C	2.502720	0.392270	0.285221
C141	C	1.393972	-0.357653	-0.716340
C142	C	1.643972	-0.107653	-0.466340
C143	C	1.893972	0.142347	-0.216340
C144	C	2.143972	0.392347	0.033660
C145	C	1.393998	-0.357626	-0.823554
C146	C	1.643998	-0.107626	-0.573554
C147	C	1.893998	0.142374	-0.323554
C148	C	2.143998	0.392374	-0.073554
C149	C	1.394057	-0.164010	-0.464784
C150	C	1.644057	0.085990	-0.214784
C151	C	1.894057	0.335990	0.035216
C152	C	2.144057	0.585990	0.285216
C153	C	1.394118	-0.081464	-0.464800
C154	C	1.644118	0.168536	-0.214800
C155	C	1.894118	0.418536	0.035200
C156	C	2.144118	0.668536	0.285200
C157	C	1.394017	-0.357605	-0.910624
C158	C	1.644017	-0.107605	-0.660624
C159	C	1.894017	0.142395	-0.410624
C160	C	2.144017	0.392395	-0.160624
C161	C	1.394045	-0.357572	-1.019856
C162	C	1.644045	-0.107572	-0.769856
C163	C	1.894045	0.142428	-0.519856
C164	C	2.144045	0.392428	-0.269856
C165	C	1.393910	-0.357724	-0.214132
C166	C	1.643910	-0.107724	0.035868
C167	C	1.893910	0.142276	0.285868
C168	C	2.143910	0.392276	0.535868
C169	C	1.394072	-0.357541	-0.106919
C170	C	1.644072	-0.107541	0.143081
C171	C	1.894072	0.142459	0.393081
C172	C	2.144072	0.392459	0.643081
H173	H	1.274902	-0.811020	-0.583534
H174	H	1.524902	-0.561020	-0.333534
H175	H	1.774902	-0.311020	-0.083534
H176	H	2.024902	-0.061020	0.166466
H177	H	1.350392	-0.811144	-0.302246
H178	H	1.600392	-0.561144	-0.052246
H179	H	1.850392	-0.311144	0.197754
H180	H	2.100392	-0.061144	0.447754
H181	H	1.231591	-0.903901	-0.421153
H182	H	1.481591	-0.653901	-0.171153
H183	H	1.731591	-0.403901	0.078847
H184	H	1.981591	-0.153901	0.328847
H185	H	1.512992	-0.903498	-0.345834
H186	H	1.762992	-0.653498	-0.095834
H187	H	2.012992	-0.403498	0.154166
H188	H	2.262992	-0.153498	0.404166
H189	H	1.556295	-0.810779	-0.508449
H190	H	1.806295	-0.560779	-0.258449
H191	H	2.056295	-0.310779	-0.008449
H192	H	2.306295	-0.060779	0.241551
H193	H	1.437384	-0.903627	-0.627234
H194	H	1.687384	-0.653627	-0.377234
H195	H	1.937384	-0.403627	-0.127234
H196	H	2.187384	-0.153627	0.122766
