data_functionalizedCrystal
_audit_creation_method	'MofGen! by Chris Wilmer'
_symmetry_space_group_name_H-M	'P1'
_symmetry_Int_Tables_number	1
_symmetry_cell_setting	triclinic
loop_
_symmetry_equiv_pos_as_xyz
  x,y,z
_cell_length_a	19.188930
_cell_length_b	19.188930
_cell_length_c	18.266242
_cell_angle_alpha	90.011475
_cell_angle_beta	89.977082
_cell_angle_gamma	96.855221
loop_
_atom_site_label
_atom_site_type_symbol
_atom_site_fract_x
_atom_site_fract_y
_atom_site_fract_z
O1	O	0.926149	-0.087169	-0.061124
O2	O	1.426149	0.412831	0.438876
O3	O	0.722838	-0.098903	-0.061075
O4	O	1.222838	0.401097	0.438925
O5	O	0.830361	0.008620	-0.061087
O6	O	1.330361	0.508620	0.438913
O7	O	0.818627	-0.194691	-0.061113
O8	O	1.318627	0.305309	0.438887
O9	O	0.830343	0.008625	0.060675
O10	O	1.330343	0.508625	0.560675
O11	O	0.722820	-0.098897	0.060687
O12	O	1.222820	0.401103	0.560687
O13	O	0.926131	-0.087163	0.060638
O14	O	1.426131	0.412837	0.560638
Zn15	Zn	0.824473	-0.093029	0.079994
Zn16	Zn	1.324473	0.406971	0.579994
Zn17	Zn	0.824497	-0.093037	-0.080432
Zn18	Zn	1.324497	0.406963	0.419568
O19	O	0.818608	-0.194686	0.060649
O20	O	1.318608	0.305314	0.560649
C21	C	0.696818	-0.098520	-0.000188
C22	C	1.196818	0.401480	0.499812
C23	C	0.619313	-0.097380	-0.000169
C24	C	1.119313	0.402620	0.499831
C25	C	0.574389	-0.160470	-0.000188
C26	C	1.074389	0.339530	0.499812
C27	C	0.501566	-0.159399	-0.000196
C28	C	1.001566	0.340601	0.499804
C29	C	0.473669	-0.095233	-0.000199
C30	C	0.973669	0.404767	0.499801
C31	C	0.518603	-0.032133	-0.000175
C32	C	1.018603	0.467867	0.499825
C33	C	0.591425	-0.033207	-0.000160
C34	C	1.091425	0.466793	0.499840
N35	N	0.365695	-0.046188	-0.041663
N36	N	0.865695	0.453812	0.458337
N37	N	0.296516	-0.045172	-0.041679
N38	N	0.796516	0.454828	0.458321
C39	C	0.254260	-0.091994	-0.000243
C40	C	0.754260	0.408006	0.499757
N41	N	0.283795	-0.139881	0.041200
N42	N	0.783795	0.360119	0.541200
N43	N	0.352980	-0.140899	0.041213
N44	N	0.852980	0.359101	0.541213
C45	C	0.394707	-0.094062	-0.000215
C46	C	0.894707	0.405938	0.499785
C47	C	0.130372	-0.153928	-0.000270
C48	C	0.630372	0.346072	0.499730
C49	C	0.057547	-0.152853	-0.000274
C50	C	0.557547	0.347147	0.499726
C51	C	0.074586	-0.025586	-0.000261
C52	C	0.574586	0.474414	0.499739
C53	C	0.147409	-0.026662	-0.000250
C54	C	0.647409	0.473338	0.499750
C55	C	0.175298	-0.090835	-0.000258
C56	C	0.675298	0.409165	0.499742
C57	C	0.829972	0.034634	-0.000204
C58	C	1.329972	0.534634	0.499796
C59	C	0.828831	0.112138	-0.000197
C60	C	1.328831	0.612138	0.499803
C61	C	0.952151	-0.087546	-0.000252
C62	C	1.452151	0.412454	0.499748
C63	C	1.029656	-0.088687	-0.000276
C64	C	1.529656	0.411313	0.499724
C65	C	0.818997	-0.220700	-0.000236
C66	C	1.318997	0.279300	0.499764
C67	C	0.820138	-0.298204	-0.000247
C68	C	1.320138	0.201796	0.499753
N69	N	0.824461	-0.093024	0.189481
N70	N	1.324461	0.406976	0.689481
C71	C	0.891922	0.157062	-0.000209
C72	C	1.391922	0.657062	0.499791
C73	C	0.890850	0.229886	-0.000220
C74	C	1.390850	0.729886	0.499780
C75	C	0.826684	0.257782	-0.000206
C76	C	1.326684	0.757782	0.499794
C77	C	0.763585	0.212849	-0.000198
C78	C	1.263585	0.712849	0.499802
C79	C	0.764658	0.140026	-0.000194
C80	C	1.264658	0.640026	0.499806
N81	N	0.777631	0.365789	0.041244
N82	N	1.277631	0.865789	0.541244
N83	N	0.776615	0.434968	0.041242
N84	N	1.276615	0.934968	0.541242
C85	C	0.823446	0.477191	-0.000220
C86	C	1.323446	0.977191	0.499780
N87	N	0.871341	0.447624	-0.041669
N88	N	1.371341	0.947624	0.458331
N89	N	0.872359	0.378439	-0.041664
N90	N	1.372359	0.878439	0.458336
C91	C	0.825513	0.336745	-0.000210
C92	C	1.325513	0.836745	0.499790
C93	C	0.885379	0.601079	-0.000245
C94	C	1.385379	1.101079	0.499755
C95	C	0.884305	0.673904	-0.000261
C96	C	1.384305	1.173904	0.499739
C97	C	0.757038	0.656865	-0.000231
C98	C	1.257038	1.156865	0.499769
C99	C	0.758114	0.584042	-0.000222
C100	C	1.258114	1.084042	0.499778
C101	C	0.822287	0.556154	-0.000226
C102	C	1.322287	1.056154	0.499774
N103	N	0.824513	-0.093037	-0.189919
N104	N	1.324513	0.406963	0.310081
C105	C	0.872088	-0.045436	0.227785
C106	C	1.372088	0.454564	0.727785
C107	C	0.872092	-0.045433	0.304430
C108	C	1.372092	0.454567	0.804430
C109	C	0.824477	-0.093030	0.342768
C110	C	1.324477	0.406970	0.842768
C111	C	0.776841	-0.140621	0.304455
C112	C	1.276841	0.359379	0.804455
C113	C	0.776834	-0.140618	0.227812
C114	C	1.276834	0.359382	0.727812
N115	N	0.815401	-0.154837	0.463094
N116	N	1.315401	0.345163	0.963094
N117	N	0.815413	-0.154838	0.535902
N118	N	1.315413	0.345162	1.035902
C119	C	0.824496	-0.093040	0.573691
C120	C	1.324496	0.406960	1.073691
N121	N	0.833582	-0.031239	0.535920
N122	N	1.333582	0.468761	1.035920
N123	N	0.833574	-0.031240	0.463106
N124	N	1.333574	0.468760	0.963106
C125	C	0.824480	-0.093038	0.425875
C126	C	1.324480	0.406962	0.925875
C127	C	0.872131	-0.045444	0.695101
C128	C	1.372131	0.454556	1.195101
C129	C	0.872130	-0.045440	0.771748
C130	C	1.372130	0.454560	1.271748
C131	C	0.776882	-0.140634	0.771772
C132	C	1.276882	0.359366	1.271772
C133	C	0.776879	-0.140632	0.695127
C134	C	1.276879	0.359368	1.195127
C135	C	0.824507	-0.093038	0.656796
C136	C	1.324507	0.406962	1.156796
H137	H	0.153080	-0.206181	-0.000267
H138	H	0.653080	0.293819	0.499733
H139	H	0.910910	-0.006688	0.663892
H140	H	1.410910	0.493312	1.163892
O141	O	0.918466	0.000815	0.808845
O142	O	1.418466	0.500815	1.308845
C143	C	0.960488	0.042830	0.758574
C144	C	1.460488	0.542830	1.258574
H145	H	0.961179	0.014206	0.703933
H146	H	1.461179	0.514206	1.203933
H147	H	1.016279	0.053611	0.780693
H148	H	1.516279	0.553611	1.280693
H149	H	0.937987	0.094646	0.750447
H150	H	1.437987	0.594646	1.250447
O151	O	0.918373	0.000868	0.190666
O152	O	1.418373	0.500868	0.690666
C153	C	0.960423	0.042860	0.240915
C154	C	1.460423	0.542860	0.740915
H155	H	0.931807	0.043573	0.295566
H156	H	1.431807	0.543573	0.795566
H157	H	0.971245	0.098648	0.218783
H158	H	1.471245	0.598648	0.718783
H159	H	1.012217	0.020315	0.249031
H160	H	1.512217	0.520315	0.749031
O161	O	0.491474	0.030180	-0.000310
O162	O	0.991474	0.530180	0.499690
C163	C	0.449884	0.034598	-0.063373
C164	C	0.949884	0.534598	0.436627
H165	H	0.467023	-0.001836	-0.107449
H166	H	0.967023	0.498164	0.392551
H167	H	0.456604	0.090888	-0.084534
H168	H	0.956604	0.590888	0.415466
H169	H	0.392397	0.018317	-0.049132
H170	H	0.892397	0.518317	0.450868
O171	O	0.703305	0.096483	-0.000146
O172	O	1.203305	0.596483	0.499854
C173	C	0.646437	0.136716	-0.000158
C174	C	1.146437	0.636716	0.499842
H175	H	0.664321	0.191131	0.022884
H176	H	1.164321	0.691131	0.522884
H177	H	0.602239	0.109727	0.035204
H178	H	1.102239	0.609727	0.535204
H179	H	0.626768	0.141825	-0.058570
H180	H	1.126768	0.641825	0.441430
H181	H	0.706738	0.547464	-0.000208
H182	H	1.206738	1.047464	0.499792
O183	O	0.730656	-0.186965	0.808924
O184	O	1.230656	0.313035	1.308924
C185	C	0.741800	-0.256055	0.790188
C186	C	1.241800	0.243945	1.290188
H187	H	0.768707	-0.255903	0.734526
H188	H	1.268707	0.244097	1.234526
H189	H	0.689213	-0.290569	0.787585
H190	H	1.189213	0.209431	1.287585
H191	H	0.776488	-0.277562	0.833301
H192	H	1.276488	0.222438	1.333301
H193	H	0.738100	-0.179386	0.663938
H194	H	1.238100	0.320614	1.163938
O195	O	0.954318	0.130089	-0.000250
O196	O	1.454318	0.630089	0.499750
C197	C	1.009774	0.185362	-0.000243
C198	C	1.509774	0.685362	0.499757
H199	H	0.990358	0.234769	-0.023295
H200	H	1.490358	0.734769	0.476705
H201	H	1.054596	0.170273	-0.035600
H202	H	1.554596	0.670273	0.464400
H203	H	1.029213	0.195739	0.058169
H204	H	1.529213	0.695739	0.558169
O205	O	0.952094	0.273605	-0.000129
O206	O	1.452094	0.773605	0.499871
C207	C	0.955269	0.316236	0.062941
C208	C	1.455269	0.816236	0.562941
H209	H	0.899855	0.319751	0.083970
H210	H	1.399855	0.819751	0.583970
H211	H	0.981447	0.371048	0.048756
H212	H	1.481447	0.871048	0.548756
H213	H	0.987072	0.292383	0.107097
H214	H	1.487072	0.792383	0.607097
H215	H	0.738071	-0.179374	0.335674
H216	H	1.238071	0.320626	0.835674
O217	O	0.601363	-0.222867	-0.000156
O218	O	1.101363	0.277133	0.499844
C219	C	0.546090	-0.278323	-0.000192
C220	C	1.046090	0.221677	0.499808
H221	H	0.496663	-0.258901	0.022849
H222	H	0.996663	0.241099	0.522849
H223	H	0.561150	-0.323135	0.035159
H224	H	1.061150	0.176865	0.535159
H225	H	0.535761	-0.297777	-0.058612
H226	H	1.035761	0.202223	0.441388
H227	H	0.183988	0.024713	-0.000238
H228	H	0.683988	0.524713	0.499762
H229	H	0.711340	0.235567	-0.000187
H230	H	1.211340	0.735567	0.499813
H231	H	0.020970	-0.204232	-0.000285
H232	H	0.520970	0.295768	0.499715
H233	H	0.628003	0.018171	-0.000145
H234	H	1.128003	0.518171	0.499855
O235	O	0.947774	0.574099	-0.000294
O236	O	1.447774	1.074099	0.499706
C237	C	1.003232	0.629371	-0.000299
C238	C	1.503232	1.129371	0.499701
H239	H	0.983814	0.678778	-0.023347
H240	H	1.483814	1.178778	0.476653
H241	H	1.048047	0.614279	-0.035664
H242	H	1.548047	1.114279	0.464336
H243	H	1.022681	0.639749	0.058109
H244	H	1.522681	1.139749	0.558109
O245	O	0.457845	-0.220641	-0.000317
O246	O	0.957845	0.279359	0.499683
C247	C	0.415263	-0.223827	-0.063400
C248	C	0.915263	0.276173	0.436600
H249	H	0.411768	-0.168417	-0.084413
H250	H	0.911768	0.331583	0.415587
H251	H	0.360439	-0.249999	-0.049237
H252	H	0.860439	0.250001	0.450763
H253	H	0.439150	-0.255641	-0.107558
H254	H	0.939150	0.244359	0.392442
H255	H	0.051874	0.026659	-0.000309
H256	H	0.551874	0.526659	0.499691
H257	H	0.935683	0.710481	-0.000274
H258	H	1.435683	1.210481	0.499726
O259	O	0.694767	0.684071	-0.000187
O260	O	1.194767	1.184071	0.499813
C261	C	0.707347	0.757980	-0.000217
C262	C	1.207347	1.257980	0.499783
H263	H	0.761881	0.775254	0.022825
H264	H	1.261881	1.275254	0.522825
H265	H	0.666293	0.780226	0.035137
H266	H	1.166293	1.280226	0.535137
H267	H	0.704038	0.778225	-0.058635
H268	H	1.204038	1.278225	0.441365
H269	H	0.910877	-0.006680	0.335623
H270	H	1.410877	0.493320	0.835623
H271	H	0.738049	-0.179371	0.196624
H272	H	1.238049	0.320629	0.696624
