data_functionalizedCrystal
_audit_creation_method	'MofGen! by Chris Wilmer'
_symmetry_space_group_name_H-M	'P1'
_symmetry_Int_Tables_number	1
_symmetry_cell_setting	triclinic
loop_
_symmetry_equiv_pos_as_xyz
  x,y,z
_cell_length_a	12.837943
_cell_length_b	13.596369
_cell_length_c	12.811415
_cell_angle_alpha	95.436841
_cell_angle_beta	89.411917
_cell_angle_gamma	90.004014
loop_
_atom_site_label
_atom_site_type_symbol
_atom_site_fract_x
_atom_site_fract_y
_atom_site_fract_z
O1	O	1.376634	0.106119	0.272980
O2	O	1.074770	0.104922	0.259496
O3	O	1.233295	0.091955	0.114204
O4	O	1.218108	0.119085	0.418271
O5	O	1.233279	-0.071629	0.114194
O6	O	1.074754	-0.058662	0.259485
O7	O	1.376618	-0.057465	0.272970
Zn8	Zn	1.225683	-0.084036	0.266226
Zn9	Zn	1.225704	0.131493	0.266240
O10	O	1.218092	-0.044498	0.418261
C11	C	1.036122	0.022724	0.254935
C12	C	0.920986	0.021515	0.241349
N13	N	1.225677	-0.231129	0.266217
C14	C	0.680733	0.036074	0.404680
C15	C	0.572552	0.034937	0.391919
C16	C	0.596441	0.018097	0.203068
C17	C	0.704622	0.019234	0.215829
C18	C	0.746763	0.028224	0.316638
C19	C	0.854946	0.029368	0.329397
C20	C	0.878834	0.012522	0.140547
C21	C	0.770653	0.011385	0.127787
C22	C	1.225703	-0.632417	0.266240
C23	C	1.225692	-0.520766	0.266237
C24	C	1.225690	-0.431776	0.266230
C25	C	1.225679	-0.320118	0.266225
C26	C	1.415266	0.024735	0.277531
C27	C	1.530402	0.025951	0.291117
C28	C	1.232436	0.006669	0.075010
C29	C	1.229887	-0.003744	-0.041764
N30	N	1.225719	0.278585	0.266241
C31	C	1.225095	0.155049	-0.261173
C32	C	1.222700	0.145270	-0.370892
C33	C	1.222694	-0.033079	-0.370923
C34	C	1.225089	-0.023301	-0.261204
C35	C	1.226291	0.070767	-0.206332
C36	C	1.228694	0.080545	-0.096612
C37	C	1.228680	-0.097804	-0.096644
C38	C	1.226285	-0.107583	-0.206363
C39	C	1.218951	0.040790	0.457456
C40	C	1.221501	0.051209	0.574229
H41	H	0.889256	0.036686	0.411481
C42	C	0.499921	0.043572	0.488773
N43	N	0.445215	0.050074	0.561727
C44	C	1.226424	0.258523	-0.200812
N45	N	1.227423	0.336461	-0.155350
H46	H	0.715045	0.043395	0.486762
H47	H	1.229676	0.157139	-0.051937
H48	H	0.736326	0.004054	0.045711
H49	H	0.932608	0.006136	0.068857
C50	C	1.221409	0.237988	-0.431213
N51	N	1.220445	0.307827	-0.476647
C52	C	1.221348	-0.136545	-0.431299
N53	N	1.220330	-0.214477	-0.476776
H54	H	0.562110	0.010697	0.120994
C55	C	1.224958	-0.211052	-0.266734
N56	N	1.223961	-0.288987	-0.312204
C57	C	1.229998	-0.190521	-0.036311
N58	N	1.230993	-0.260353	0.009133
