data_functionalizedCrystal
_audit_creation_method	'MofGen! by Chris Wilmer'
_symmetry_space_group_name_H-M	'P1'
_symmetry_Int_Tables_number	1
_symmetry_cell_setting	triclinic
loop_
_symmetry_equiv_pos_as_xyz
  x,y,z
_cell_length_a	10.654551
_cell_length_b	14.519709
_cell_length_c	9.130313
_cell_angle_alpha	89.997798
_cell_angle_beta	90.000320
_cell_angle_gamma	84.082708
loop_
_atom_site_label
_atom_site_type_symbol
_atom_site_fract_x
_atom_site_fract_y
_atom_site_fract_z
O1	O	1.666588	0.129532	-0.121784
O2	O	1.300991	0.141872	-0.121791
O3	O	1.493483	0.001514	-0.121774
O4	O	1.474096	0.269890	-0.121801
O5	O	1.493480	0.001518	0.121824
O6	O	1.300989	0.141876	0.121807
O7	O	1.666586	0.129536	0.121815
Cu8	Cu	1.483787	0.135706	0.144054
Cu9	Cu	1.483790	0.135702	-0.144030
O10	O	1.474094	0.269894	0.121798
C11	C	1.254200	0.140968	0.000007
C12	C	1.114783	0.138256	0.000005
C13	C	0.918287	0.134427	0.132792
C14	C	1.049283	0.136983	0.132793
C15	C	1.049280	0.136984	-0.132792
C16	C	0.918285	0.134434	-0.132791
C17	C	0.852795	0.133144	0.265589
C18	C	0.918289	0.134418	0.398386
C19	C	1.049285	0.136974	0.398387
C20	C	1.114787	0.138256	0.265590
C21	C	1.492578	-0.032849	0.000025
C22	C	1.489871	-0.135244	0.000026
C23	C	1.479903	-0.510191	-0.000012
C24	C	1.482671	-0.405869	-0.000001
C25	C	1.484887	-0.322721	0.000008
C26	C	1.487655	-0.218392	0.000017
C27	C	1.713376	0.130440	0.000013
C28	C	1.852793	0.133151	0.000006
C29	C	1.474998	0.304257	-0.000005
C30	C	1.477706	0.406652	-0.000016
N31	N	1.483794	0.135709	0.346676
N32	N	1.483792	0.135692	-0.346653
C33	C	1.569051	0.073580	0.423336
C34	C	1.569048	0.073568	0.576673
C35	C	1.398526	0.197824	0.576677
C36	C	1.398525	0.197830	0.423343
C37	C	1.654321	0.011458	0.346669
C38	C	1.739586	-0.050675	0.423329
C39	C	1.739582	-0.050686	0.576666
C40	C	1.654314	0.011436	0.653343
H41	H	1.221450	0.140348	0.265601
C42	C	1.654301	0.011423	0.822010
H43	H	1.591308	0.057316	0.856692
H44	H	1.734588	0.024589	0.856707
H45	H	1.636977	-0.047646	0.856685
C46	C	1.121331	0.138382	0.544450
H47	H	1.208725	0.140093	0.525436
H48	H	1.109323	0.084278	0.599014
H49	H	1.090400	0.191655	0.599005
H50	H	1.329105	0.248403	0.639117
H51	H	0.746132	0.131061	0.265604
C52	C	0.846230	0.133088	0.544450
H53	H	0.758832	0.131398	0.525436
H54	H	0.858271	0.187215	0.598932
H55	H	0.877120	0.079837	0.599089
C56	C	1.654325	0.011473	0.178005
H57	H	1.591342	0.057377	0.143328
H58	H	1.637024	-0.047587	0.143300
H59	H	1.734618	0.024660	0.143331
H60	H	1.102622	0.138026	-0.240909
C61	C	1.304750	0.266175	0.339012
H62	H	1.253980	0.303181	0.406630
H63	H	1.252407	0.232644	0.279192
H64	H	1.350018	0.304879	0.279201
H65	H	0.864958	0.133398	-0.240918
C66	C	1.833377	-0.119000	0.338991
H67	H	1.821181	-0.110090	0.236691
H68	H	1.819619	-0.180650	0.364107
H69	H	1.917208	-0.108399	0.364132
H70	H	1.809000	-0.101284	0.639080
