data_functionalizedCrystal
_audit_creation_method	'MofGen! by Chris Wilmer'
_symmetry_space_group_name_H-M	'P1'
_symmetry_Int_Tables_number	1
_symmetry_cell_setting	triclinic
loop_
_symmetry_equiv_pos_as_xyz
  x,y,z
_cell_length_a	16.959455
_cell_length_b	16.959453
_cell_length_c	16.959447
_cell_angle_alpha	90.031064
_cell_angle_beta	90.014322
_cell_angle_gamma	90.016935
loop_
_atom_site_label
_atom_site_type_symbol
_atom_site_fract_x
_atom_site_fract_y
_atom_site_fract_z
Zn1	Zn	1.208384	-0.314730	0.446905
Zn2	Zn	1.541718	0.018603	0.780238
Zn3	Zn	1.875051	0.351936	1.113571
Zn4	Zn	1.208307	-0.446923	0.314724
Zn5	Zn	1.541640	-0.113589	0.648058
Zn6	Zn	1.874974	0.219744	0.981391
Zn7	Zn	1.076213	-0.314755	0.314742
Zn8	Zn	1.409546	0.018578	0.648075
Zn9	Zn	1.742879	0.351912	0.981409
Zn10	Zn	1.076178	-0.446864	0.446863
Zn11	Zn	1.409511	-0.113530	0.780196
Zn12	Zn	1.742844	0.219803	1.113530
O13	O	1.142270	-0.380818	0.380808
O14	O	1.475604	-0.047485	0.714142
O15	O	1.808937	0.285849	1.047475
O16	O	1.318985	-0.332280	0.429381
O17	O	1.652318	0.001053	0.762714
O18	O	1.985652	0.334386	1.096047
O19	O	1.190767	-0.429426	0.204116
O20	O	1.524100	-0.096092	0.537449
O21	O	1.857433	0.237241	0.870782
O22	O	1.093793	-0.204141	0.332299
O23	O	1.427126	0.129192	0.665632
O24	O	1.760459	0.462526	0.998965
O25	O	1.318928	-0.429402	0.332268
O26	O	1.652261	-0.096068	0.665602
O27	O	1.985595	0.237265	0.998935
O28	O	1.190898	-0.204123	0.429398
O29	O	1.524232	0.129211	0.762731
O30	O	1.857565	0.462544	1.096065
O31	O	1.093718	-0.332323	0.204129
O32	O	1.427051	0.001011	0.537462
O33	O	1.760384	0.334344	0.870795
O34	O	0.965597	-0.332265	0.332258
O35	O	1.298931	0.001068	0.665592
O36	O	1.632264	0.334401	0.998925
O37	O	1.093733	-0.429301	0.557479
O38	O	1.427066	-0.095968	0.890813
O39	O	1.760399	0.237366	1.224146
O40	O	0.965571	-0.429325	0.429327
O41	O	1.298905	-0.095992	0.762660
O42	O	1.632238	0.237342	1.095993
O43	O	1.190864	-0.332223	0.557510
O44	O	1.524198	0.001110	0.890843
O45	O	1.857531	0.334444	1.224177
O46	O	1.190733	-0.557526	0.332228
O47	O	1.524066	-0.224193	0.665561
O48	O	1.857399	0.109141	0.998895
O49	O	1.093658	-0.557482	0.429310
O50	O	1.426991	-0.224149	0.762643
O51	O	1.760324	0.109184	1.095976
C52	C	0.936904	-0.380792	0.380790
C53	C	1.270237	-0.047459	0.714124
C54	C	1.603571	0.285875	1.047457
C55	C	0.849048	-0.380800	0.380801
C56	C	1.182381	-0.047466	0.714135
C57	C	1.515714	0.285867	1.047468
C58	C	0.477561	-0.330238	0.330370
C59	C	0.810894	0.003096	0.663704
C60	C	1.144228	0.336429	0.997037
C61	C	0.477583	-0.431463	0.431292
C62	C	0.810916	-0.098130	0.764625
C63	C	1.144250	0.235203	1.097958
C64	C	0.560129	-0.431452	0.431287
C65	C	0.893462	-0.098119	0.764620
C66	C	1.226795	0.235215	1.097954
C67	C	0.601395	-0.380834	0.380822
C68	C	0.934728	-0.047500	0.714156
C69	C	1.268061	0.285833	1.047489
C70	C	0.560114	-0.330226	0.330362
C71	C	0.893448	0.003107	0.663696
C72	C	1.226781	0.336440	0.997029
C73	C	0.601415	-0.482064	0.481740
C74	C	0.934748	-0.148731	0.815074
C75	C	1.268082	0.184603	1.148407
C76	C	0.683966	-0.482055	0.481737
C77	C	1.017299	-0.148722	0.815070
C78	C	1.350633	0.184611	1.148403
C79	C	0.725233	-0.431432	0.431275
C80	C	1.058567	-0.098099	0.764609
C81	C	1.391900	0.235235	1.097942
C82	C	0.683948	-0.380822	0.380814
C83	C	1.017281	-0.047489	0.714148
C84	C	1.350615	0.285844	1.047481
C85	C	0.725214	-0.330204	0.330350
C86	C	1.058547	0.003129	0.663683
C87	C	1.391881	0.336463	0.997016
C88	C	0.683930	-0.279589	0.279892
C89	C	1.017264	0.053744	0.613225
C90	C	1.350597	0.387077	0.946558
C91	C	0.601382	-0.279603	0.279901
C92	C	0.934715	0.053730	0.613234
C93	C	1.268048	0.387063	0.946568
C94	C	0.807782	-0.431418	0.431266
C95	C	1.141115	-0.098085	0.764599
C96	C	1.474448	0.235248	1.097933
C97	C	0.807767	-0.330193	0.330341
C98	C	1.141101	0.003141	0.663675
C99	C	1.474434	0.336474	0.997008
C100	C	1.142204	-0.586184	0.380780
C101	C	1.475538	-0.252851	0.714113
C102	C	1.808871	0.080482	1.047446
C103	C	1.142249	-0.674041	0.380794
C104	C	1.475582	-0.340708	0.714127
C105	C	1.808915	-0.007374	1.047460
C106	C	1.192898	-1.045448	0.431463
C107	C	1.526231	-0.712115	0.764797
C108	C	1.859565	-0.378782	1.098130
C109	C	1.091863	-1.045584	0.330271
C110	C	1.425197	-0.712251	0.663604
C111	C	1.758530	-0.378918	0.996938
C112	C	1.091834	-0.963039	0.330253
C113	C	1.425167	-0.629705	0.663586
C114	C	1.758501	-0.296372	0.996919
C115	C	1.142337	-0.921694	0.380842
C116	C	1.475670	-0.588360	0.714175
C117	C	1.809003	-0.255027	1.047508
C118	C	1.192869	-0.962895	0.431449
C119	C	1.526202	-0.629562	0.764782
C120	C	1.859535	-0.296228	1.098115
C121	C	1.041297	-0.921831	0.279652
C122	C	1.374631	-0.588498	0.612986
C123	C	1.707964	-0.255165	0.946319
C124	C	1.041265	-0.839280	0.279633
C125	C	1.374599	-0.505947	0.612966
C126	C	1.707932	-0.172614	0.946299
C127	C	1.091773	-0.797934	0.330218
C128	C	1.425106	-0.464601	0.663552
C129	C	1.758439	-0.131267	0.996885
C130	C	1.142307	-0.839140	0.380827
C131	C	1.475641	-0.505807	0.714160
C132	C	1.808974	-0.172474	1.047493
C133	C	1.192810	-0.797796	0.431415
C134	C	1.526143	-0.464462	0.764749
C135	C	1.859477	-0.131129	1.098082
C136	C	1.243349	-0.839000	0.482021
C137	C	1.576683	-0.505667	0.815354
C138	C	1.910016	-0.172334	1.148687
C139	C	1.243376	-0.921549	0.482034
C140	C	1.576709	-0.588215	0.815367
C141	C	1.910043	-0.254882	1.148701
C142	C	1.091746	-0.715386	0.330205
C143	C	1.425079	-0.382052	0.663538
C144	C	1.758413	-0.048719	0.996871
C145	C	1.192781	-0.715242	0.431401
C146	C	1.526114	-0.381909	0.764734
C147	C	1.859447	-0.048575	1.098067
C148	C	1.348439	-0.380845	0.380827
C149	C	1.681772	-0.047511	0.714160
C150	C	2.015105	0.285822	1.047494
C151	C	1.436295	-0.380856	0.380835
C152	C	1.769628	-0.047523	0.714168
C153	C	2.102962	0.285811	1.047502
C154	C	1.142303	-0.380753	0.586977
C155	C	1.475637	-0.047419	0.920310
C156	C	1.808970	0.285914	1.253643
C157	C	1.142317	-0.380725	0.674833
C158	C	1.475651	-0.047391	1.008167
C159	C	1.808984	0.285942	1.341500
C160	C	1.142358	-0.174650	0.380855
C161	C	1.475691	0.158684	0.714188
C162	C	1.809025	0.492017	1.047522
C163	C	1.142395	-0.086793	0.380875
C164	C	1.475729	0.246540	0.714208
C165	C	1.809062	0.579874	1.047541
C166	C	1.142283	-0.380826	0.175442
C167	C	1.475616	-0.047493	0.508776
C168	C	1.808950	0.285841	0.842109
C169	C	1.142422	-0.380631	0.087586
C170	C	1.475756	-0.047298	0.420919
C171	C	1.809089	0.286035	0.754253
C172	C	1.091840	-0.431185	1.046296
C173	C	1.425173	-0.097852	1.379629
C174	C	1.758506	0.235481	1.712962
C175	C	1.192984	-0.330097	1.046323
C176	C	1.526317	0.003236	1.379656
C177	C	1.859650	0.336569	1.712989
C178	C	1.192963	-0.330114	0.963777
C179	C	1.526296	0.003219	1.297110
C180	C	1.859629	0.336553	1.630443
C181	C	1.142380	-0.380668	0.922487
C182	C	1.475714	-0.047335	1.255820
C183	C	1.809047	0.285999	1.589153
C184	C	1.091819	-0.431205	0.963742
C185	C	1.425152	-0.097872	1.297076
C186	C	1.758485	0.235461	1.630409
C187	C	1.243529	-0.279584	0.922515
C188	C	1.576862	0.053750	1.255848
C189	C	1.910196	0.387083	1.589182
C190	C	1.243511	-0.279599	0.839964
C191	C	1.576844	0.053734	1.173297
C192	C	1.910177	0.387068	1.506631
C193	C	1.192923	-0.330149	0.798672
C194	C	1.526257	0.003184	1.132006
C195	C	1.859590	0.336517	1.465339
C196	C	1.142359	-0.380688	0.839933
C197	C	1.475693	-0.047355	1.173266
C198	C	1.809026	0.285979	1.506600
C199	C	1.091777	-0.431242	0.798643
C200	C	1.425110	-0.097909	1.131976
C201	C	1.758443	0.235425	1.465309
C202	C	1.041208	-0.481777	0.839902
C203	C	1.374541	-0.148444	1.173235
C204	C	1.707875	0.184890	1.506569
C205	C	1.041232	-0.481756	0.922450
C206	C	1.374565	-0.148422	1.255784
C207	C	1.707898	0.184911	1.589117
C208	C	1.192900	-0.330171	0.716124
C209	C	1.526233	0.003163	1.049457
C210	C	1.859566	0.336496	1.382790
C211	C	1.091756	-0.431262	0.716089
C212	C	1.425089	-0.097929	1.049422
C213	C	1.758422	0.235405	1.382756
H214	H	0.443944	-0.289026	0.289291
H215	H	0.777277	0.044307	0.622624
H216	H	1.110611	0.377640	0.955958
H217	H	0.841391	-0.472630	0.472346
H218	H	1.174725	-0.139297	0.805679
H219	H	1.508058	0.194037	1.139012
H220	H	1.233909	-0.681584	0.472593
H221	H	1.567242	-0.348251	0.805927
H222	H	1.900576	-0.014917	1.139260
H223	H	1.284686	-0.238450	0.806378
H224	H	1.618020	0.094884	1.139711
H225	H	1.951353	0.428217	1.473044
H226	H	0.443979	-0.472679	0.472373
H227	H	0.777313	-0.139346	0.805706
H228	H	1.110646	0.193987	1.139040
H229	H	1.000027	-0.522942	0.806273
H230	H	1.333361	-0.189608	1.139606
H231	H	1.666694	0.143725	1.472939
H232	H	1.000179	-0.955500	0.238468
H233	H	1.333512	-0.622167	0.571801
H234	H	1.666845	-0.288833	0.905135
Br235	Br	1.023160	-0.659468	0.261536
Br236	Br	1.356493	-0.326135	0.594869
Br237	Br	1.689826	0.007199	0.928203
Br238	Br	0.972612	-0.550336	0.978449
Br239	Br	1.305945	-0.217002	1.311782
Br240	Br	1.639279	0.116331	1.645116
Br241	Br	0.739987	-0.550743	0.550214
Br242	Br	1.073320	-0.217410	0.883548
Br243	Br	1.406653	0.115923	1.216881
H244	H	1.050558	-0.472422	0.682476
H245	H	1.383891	-0.139089	1.015810
H246	H	1.717224	0.194244	1.349143
Br247	Br	1.311956	-0.977473	0.550708
Br248	Br	1.645289	-0.644140	0.884041
Br249	Br	1.978623	-0.310807	1.217375
H250	H	1.050743	-1.079252	0.289087
H251	H	1.384076	-0.745919	0.622420
H252	H	1.717410	-0.412586	0.955754
H253	H	1.234048	-1.079001	0.472663
H254	H	1.567381	-0.745668	0.805996
H255	H	1.900715	-0.412334	1.139329
Br256	Br	1.261636	-0.261500	1.102360
Br257	Br	1.594969	0.071833	1.435693
Br258	Br	1.928303	0.405167	1.769026
H259	H	1.284465	-0.805328	0.523214
H260	H	1.617799	-0.471994	0.856547
H261	H	1.951132	-0.138661	1.189881
H262	H	0.567810	-0.523280	0.522820
H263	H	0.901144	-0.189947	0.856154
H264	H	1.234477	0.143386	1.189487
Br265	Br	1.261530	-0.261601	0.660132
Br266	Br	1.594863	0.071732	0.993465
Br267	Br	1.928197	0.405066	1.326799
Br268	Br	1.023209	-0.499761	1.102286
Br269	Br	1.356543	-0.166428	1.435620
Br270	Br	1.689876	0.166905	1.768953
H271	H	0.841360	-0.288968	0.289251
H272	H	1.174694	0.044366	0.622585
H273	H	1.508027	0.377699	0.955918
Br274	Br	0.739943	-0.210903	0.211399
Br275	Br	1.073277	0.122430	0.544733
Br276	Br	1.406610	0.455764	0.878066
Br277	Br	0.545350	-0.210918	0.211430
Br278	Br	0.878683	0.122415	0.544763
Br279	Br	1.212017	0.455749	0.878096
H280	H	1.284715	-0.238430	0.956140
H281	H	1.618049	0.094903	1.289473
H282	H	1.951382	0.428236	1.622806
H283	H	1.000115	-0.805737	0.238427
H284	H	1.333448	-0.472403	0.571760
H285	H	1.666781	-0.139070	0.905094
