data_functionalizedCrystal
_audit_creation_method	'MofGen! by Chris Wilmer'
_symmetry_space_group_name_H-M	'P1'
_symmetry_Int_Tables_number	1
_symmetry_cell_setting	triclinic
loop_
_symmetry_equiv_pos_as_xyz
  x,y,z
_cell_length_a	13.897449
_cell_length_b	18.050589
_cell_length_c	13.897441
_cell_angle_alpha	89.973098
_cell_angle_beta	89.981404
_cell_angle_gamma	90.029500
loop_
_atom_site_label
_atom_site_type_symbol
_atom_site_fract_x
_atom_site_fract_y
_atom_site_fract_z
Zn1	Zn	1.474612	-0.295618	-0.545399
Zn2	Zn	1.974612	0.204382	-0.045399
Zn3	Zn	1.474482	-0.419820	-0.384108
Zn4	Zn	1.974482	0.080180	0.115892
Zn5	Zn	1.313307	-0.295651	-0.384118
Zn6	Zn	1.813307	0.204349	0.115882
Zn7	Zn	1.313253	-0.419773	-0.545361
Zn8	Zn	1.813253	0.080227	-0.045361
O9	O	1.393913	-0.357715	-0.464747
O10	O	1.893913	0.142285	0.035253
O11	O	1.609576	-0.312099	-0.524016
O12	O	2.109576	0.187901	-0.024016
O13	O	1.453070	-0.403382	-0.249128
O14	O	1.953070	0.096618	0.250872
O15	O	1.334781	-0.191722	-0.405532
O16	O	1.834781	0.308278	0.094468
O17	O	1.609481	-0.403350	-0.405516
O18	O	2.109481	0.096650	0.094484
O19	O	1.453291	-0.191697	-0.524025
O20	O	1.953291	0.308303	-0.024025
O21	O	1.334655	-0.312156	-0.249135
O22	O	1.834655	0.187844	0.250865
O23	O	1.178318	-0.312110	-0.405495
O24	O	1.678318	0.187890	0.094505
O25	O	1.334689	-0.403270	-0.680348
O26	O	1.834689	0.096730	-0.180348
O27	O	1.178278	-0.403302	-0.523960
O28	O	1.678278	0.096698	-0.023960
O29	O	1.453239	-0.312054	-0.680376
O30	O	1.953239	0.187946	-0.180376
O31	O	1.453018	-0.523738	-0.405479
O32	O	1.953018	-0.023738	0.094521
O33	O	1.334564	-0.523704	-0.523951
O34	O	1.834564	-0.023704	-0.023951
C35	C	1.143299	-0.357705	-0.464725
C36	C	1.643299	0.142295	0.035275
C37	C	1.036085	-0.357719	-0.464738
C38	C	1.536085	0.142281	0.035262
C39	C	1.393797	-0.550667	-0.464731
C40	C	1.893797	-0.050667	0.035269
C41	C	1.393835	-0.633213	-0.464756
C42	C	1.893835	-0.133213	0.035244
C43	C	0.839790	-0.357722	-0.464763
C44	C	1.339790	0.142278	0.035237
C45	C	0.949023	-0.357718	-0.464747
C46	C	1.449023	0.142282	0.035253
C47	C	1.329483	-0.832672	-0.529158
C48	C	1.829483	-0.332672	-0.029158
C49	C	1.305969	-0.882117	-0.441140
C50	C	1.805969	-0.382117	0.058860
C51	C	1.393930	-0.784344	-0.464769
C52	C	1.893930	-0.284344	0.035231
C53	C	1.417491	-0.881981	-0.552797
C54	C	1.917491	-0.381981	-0.052797
C55	C	1.394020	-0.930329	-0.464789
C56	C	1.894020	-0.430329	0.035211
C57	C	1.370370	-0.832701	-0.376703
C58	C	1.870370	-0.332701	0.123297
C59	C	1.481933	-0.832560	-0.488420
C60	C	1.981933	-0.332560	0.011580
C61	C	1.458453	-0.881983	-0.400341
C62	C	1.958453	-0.381983	0.099659
C63	C	1.393876	-0.700245	-0.464758
C64	C	1.893876	-0.200245	0.035242
C65	C	1.394074	-1.014425	-0.464789
C66	C	1.894074	-0.514425	0.035211
C67	C	1.645506	-0.357726	-0.464769
C68	C	2.145506	0.142274	0.035231
C69	C	1.752720	-0.357730	-0.464779
C70	C	2.252720	0.142270	0.035221
C71	C	1.393972	-0.357653	-0.716340
C72	C	1.893972	0.142347	-0.216340
C73	C	1.393998	-0.357626	-0.823554
C74	C	1.893998	0.142374	-0.323554
C75	C	1.394057	-0.164010	-0.464784
C76	C	1.894057	0.335990	0.035216
C77	C	1.394118	-0.081464	-0.464800
C78	C	1.894118	0.418536	0.035200
C79	C	1.394017	-0.357605	-0.910624
C80	C	1.894017	0.142395	-0.410624
C81	C	1.394045	-0.357572	-1.019856
C82	C	1.894045	0.142428	-0.519856
C83	C	1.393910	-0.357724	-0.214132
C84	C	1.893910	0.142276	0.285868
C85	C	1.394072	-0.357541	-0.106919
C86	C	1.894072	0.142459	0.393081
H87	H	1.274902	-0.811020	-0.583534
H88	H	1.774902	-0.311020	-0.083534
C89	C	1.205489	-0.911526	-0.414118
C90	C	1.705489	-0.411526	0.085882
H91	H	1.159739	-0.894648	-0.459922
H92	H	1.659739	-0.394648	0.040078
H93	H	1.188339	-0.893928	-0.352033
H94	H	1.688339	-0.393928	0.147967
H95	H	1.206397	-0.964150	-0.413751
H96	H	1.706397	-0.464150	0.086249
H97	H	1.556295	-0.810779	-0.508449
H98	H	2.056295	-0.310779	-0.008449
C99	C	1.343371	-0.803585	-0.276121
C100	C	1.843371	-0.303585	0.223879
H101	H	1.343468	-0.750955	-0.276737
H102	H	1.843468	-0.250955	0.223263
H103	H	1.388892	-0.820862	-0.230350
H104	H	1.888892	-0.320862	0.269650
H105	H	1.281078	-0.820966	-0.259233
H106	H	1.781078	-0.320966	0.240767
H107	H	1.512992	-0.903498	-0.345834
H108	H	2.012992	-0.403498	0.154166
C109	C	1.444370	-0.911222	-0.653351
C110	C	1.944370	-0.411222	-0.153351
H111	H	1.398484	-0.894329	-0.699011
H112	H	1.898484	-0.394329	-0.199011
H113	H	1.444787	-0.963843	-0.652500
H114	H	1.944787	-0.463843	-0.152500
H115	H	1.506414	-0.893518	-0.670587
H116	H	2.006414	-0.393518	-0.170587
