data_functionalizedCrystal
_audit_creation_method	'MofGen! by Chris Wilmer'
_symmetry_space_group_name_H-M	'P1'
_symmetry_Int_Tables_number	1
_symmetry_cell_setting	triclinic
loop_
_symmetry_equiv_pos_as_xyz
  x,y,z
_cell_length_a	19.902436
_cell_length_b	14.446369
_cell_length_c	14.446369
_cell_angle_alpha	60.000250
_cell_angle_beta	90.002769
_cell_angle_gamma	59.998044
loop_
_atom_site_label
_atom_site_type_symbol
_atom_site_fract_x
_atom_site_fract_y
_atom_site_fract_z
Zr1	Zr	0.647327	1.013130	-0.121447
O2	O	0.540036	1.206258	-0.269270
O3	O	0.680217	0.820008	-0.076126
O4	O	0.680218	1.013117	-0.269245
O5	O	0.540035	1.013158	0.076178
O6	O	0.790797	1.013099	-0.269233
O7	O	0.540035	1.013150	-0.076150
O8	O	0.790794	0.667663	0.076222
O9	O	0.540037	1.358594	-0.269277
O10	O	0.776768	0.899426	-0.056795
O11	O	0.694245	0.899446	0.056877
O12	O	0.694246	1.126806	-0.170496
O13	O	0.611723	1.126826	-0.056824
Zr14	Zr	0.823687	1.013115	0.121519
Zr15	Zr	0.823688	1.013101	-0.121428
Zr16	Zr	0.647327	1.013143	0.121499
Zr17	Zr	0.647329	1.256088	-0.121459
Zr18	Zr	0.823686	0.770157	0.121530
O19	O	0.790798	1.206237	0.076198
O20	O	0.790798	1.206218	-0.269242
O21	O	0.540036	1.206277	0.076169
O22	O	0.930978	0.819986	0.269341
O23	O	0.930979	0.819967	-0.076098
O24	O	0.680216	0.820027	0.269313
O25	O	0.930980	1.013086	-0.076107
O26	O	0.790796	1.013128	0.269317
O27	O	0.680218	1.013146	0.269304
O28	O	0.930980	1.013095	0.076222
O29	O	0.680220	1.358571	-0.269261
O30	O	0.790794	0.667673	0.269333
O31	O	0.930977	0.667650	0.269348
O32	O	0.930977	0.667640	0.076238
O33	O	0.540037	1.358605	-0.076166
O34	O	0.680220	1.358582	-0.076151
O35	O	0.776768	0.899439	0.170568
O36	O	0.859292	0.899419	0.056896
O37	O	0.776770	1.126799	-0.056805
O38	O	0.694246	1.126819	0.056867
C39	C	0.735505	0.709219	0.000050
C40	C	0.735505	0.606077	0.000054
C41	C	0.514907	1.013158	0.000011
C42	C	0.440038	1.013170	0.000003
C43	C	0.683706	0.459080	0.072076
C44	C	0.683425	0.566700	0.071785
C45	C	0.697536	0.655072	-0.123485
C46	C	0.697147	0.547840	-0.123111
C47	C	0.825308	0.372607	0.050509
C48	C	0.825176	0.478758	0.053030
C49	C	0.168036	1.013106	0.000047
C50	C	0.144470	1.156542	-0.071334
C51	C	0.222308	1.156632	-0.071731
C52	C	0.302979	1.013139	0.000025
C53	C	0.300567	0.941901	-0.052267
C54	C	0.222340	0.942818	-0.052795
C55	C	0.223327	0.939881	0.123752
C56	C	0.300248	0.942577	0.123562
C57	C	0.379246	1.013150	0.000013
C58	C	0.091771	1.013091	0.000054
C59	C	0.956107	1.013086	0.000061
C60	C	1.030977	1.013074	0.000069
C61	C	0.735508	1.013106	-0.303854
C62	C	0.735508	1.013100	-0.406991
C63	C	0.735509	1.317026	0.000022
C64	C	0.735510	1.420168	0.000017
C65	C	0.787814	0.869706	-0.481961
C66	C	0.787587	0.869610	-0.374632
C67	C	0.645840	1.084342	-0.481564
C68	C	0.646127	1.083432	-0.588423
C69	C	0.772145	1.086365	-0.589982
C70	C	0.773960	1.083662	-0.481310
C71	C	0.735507	1.013139	0.303925
C72	C	0.735507	1.013145	0.407062
C73	C	0.956105	0.709183	0.000074
C74	C	1.030974	0.606029	0.000088
C75	C	0.735505	0.709236	0.303939
C76	C	0.735504	0.606099	0.407081
C77	C	0.956105	0.709200	0.303964
C78	C	1.030974	0.606051	0.407114
C79	C	0.514910	1.317045	-0.303892
C80	C	0.440041	1.420193	-0.407043
C81	C	0.514909	1.317061	-0.000003
C82	C	0.440040	1.420216	-0.000016
C83	C	0.735510	1.317009	-0.303868
C84	C	0.735510	1.420145	-0.407010
C85	C	1.023057	0.557590	-0.059262
C86	C	1.093398	0.460680	-0.059272
C87	C	1.171655	0.412202	0.000074
C88	C	1.179570	0.460651	0.059425
C89	C	1.109230	0.557566	0.059428
C90	C	1.109217	0.557601	0.396219
C91	C	1.179571	0.460696	0.493131
C92	C	1.171680	0.412236	0.600936
C93	C	1.093429	0.460695	0.611829
C94	C	1.023076	0.557605	0.514919
C95	C	0.361798	1.468655	-0.396148
C96	C	0.291444	1.565591	-0.493059
C97	C	0.299335	1.614056	-0.600864
C98	C	0.377586	1.565590	-0.611757
C99	C	0.447938	1.468663	-0.514847
C100	C	0.447958	1.468664	0.059323
C101	C	0.377617	1.565602	0.059307
C102	C	0.299360	1.614083	-0.000043
C103	C	0.291444	1.565630	-0.059389
C104	C	0.361784	1.468701	-0.059379
C105	C	0.683204	0.459793	0.482065
C106	C	0.683426	0.566714	0.374731
C107	C	0.825174	0.479232	0.481651
C108	C	0.824892	0.371857	0.588514
C109	C	0.698875	0.546850	0.590078
C110	C	0.697055	0.655320	0.481402
H111	H	0.708893	0.529990	0.162754
N112	N	0.385713	1.615093	0.119920
N113	N	0.422430	1.669136	0.094768
H114	H	0.428150	1.704088	0.137575
H115	H	0.355326	1.429256	-0.107697
H116	H	0.242043	1.692980	-0.679766
H117	H	0.227718	1.605118	-0.107710
N118	N	0.873951	0.340002	-0.015018
N119	N	0.842726	0.351672	-0.098547
H120	H	0.877074	0.328641	-0.144828
H121	H	0.221030	1.212808	-0.036928
H122	H	1.087016	0.421224	0.699617
H123	H	0.384001	1.605064	-0.699544
N124	N	0.600339	0.678137	0.027864
N125	N	0.571806	0.717427	0.087767
H126	H	0.513124	0.796136	0.056744
H127	H	0.357380	0.836395	-0.002777
N128	N	0.176476	1.006327	-0.166983
N129	N	0.110517	1.018490	-0.188020
H130	H	0.078127	1.063345	-0.268668
H131	H	0.857030	0.278861	0.140079
N132	N	0.876451	0.334269	0.687092
N133	N	0.912532	0.387345	0.676816
H134	H	0.948952	0.360794	0.746431
H135	H	0.631068	0.588546	-0.163531
N136	N	0.856831	1.018526	-0.416811
N137	N	0.898569	1.059638	-0.460781
H138	H	0.957098	1.013633	-0.415225
H139	H	1.243297	0.421166	0.107742
N140	N	1.117324	0.607047	0.120048
N141	N	1.154031	0.661106	0.094892
H142	H	1.159752	0.696050	0.137706
H143	H	0.605175	1.189846	-0.508804
H144	H	0.617396	0.656073	0.320452
H145	H	0.853616	0.813715	-0.320349
N146	N	0.861664	0.258011	0.588169
N147	N	0.821172	0.214557	0.586782
H148	H	0.847140	0.134157	0.586531
H149	H	0.104559	1.212559	-0.162038
N150	N	0.715534	0.347611	0.186503
N151	N	0.776764	0.238184	0.216284
H152	H	0.799261	0.159458	0.297110
H153	H	0.242091	1.693009	-0.000042
H154	H	0.617859	0.494851	0.037363
N155	N	0.600159	0.506526	0.479130
N156	N	0.578553	0.511189	0.558792
H157	H	0.519900	0.544192	0.556726
H158	H	0.708382	0.370123	0.481036
H159	H	0.732442	0.525862	-0.179717
H160	H	0.708841	0.529241	0.320950
N161	N	0.608764	1.022311	-0.416857
N162	N	0.544351	1.086007	-0.401572
H163	H	0.518167	1.042192	-0.355872
H164	H	1.115658	0.597044	0.308447
N165	N	0.614186	0.768858	0.416872
N166	N	0.583504	0.813434	0.316518
H167	H	0.524979	0.893629	0.270935
N168	N	0.527883	1.419165	0.119962
N169	N	0.534925	1.462456	0.172929
H170	H	0.591371	1.427507	0.215756
N171	N	0.353739	1.419162	-0.286026
N172	N	0.416550	1.332627	-0.199497
H173	H	0.410855	1.297682	-0.121724
N174	N	0.876181	0.507142	0.515815
N175	N	0.846944	0.621121	0.485511
H176	H	0.882966	0.640838	0.509639
H177	H	0.959370	0.597041	0.523805
N178	N	0.220065	1.227194	-0.186210
N179	N	0.160943	1.276519	-0.266062
H180	H	0.159356	1.326359	-0.346920
H181	H	0.357707	0.837891	0.181222
N182	N	0.724599	1.218921	-0.688111
N183	N	0.743664	1.294229	-0.701991
H184	H	0.710083	1.387844	-0.771297
H185	H	0.227735	1.605035	-0.484168
N186	N	0.862222	0.430863	0.416908
N187	N	0.822758	0.489587	0.315869
H188	H	0.848919	0.455428	0.270141
H189	H	0.302118	0.991369	-0.142431
H190	H	0.633842	0.586433	0.594186
H191	H	0.733456	0.683849	-0.179496
H192	H	0.731195	0.687442	0.506926
N193	N	0.615423	0.770852	-0.174524
N194	N	0.556685	0.771926	-0.207072
H195	H	0.498689	0.853688	-0.243109
N196	N	0.746447	0.515768	0.688187
N197	N	0.821295	0.469261	0.706202
H198	H	0.854898	0.447301	0.775492
H199	H	0.616795	1.032818	-0.588154
N200	N	0.870861	0.799086	-0.479017
N201	N	0.892470	0.853638	-0.558677
H202	H	0.951126	0.803764	-0.556603
N203	N	0.095070	1.227120	-0.027670
N204	N	0.024144	1.328893	-0.089336
H205	H	-0.010842	1.378712	-0.058529
H206	H	0.853541	0.439157	0.144042
N207	N	0.299767	1.007711	0.172602
N208	N	0.240953	1.055861	0.204059
H209	H	0.240614	1.101861	0.238697
N210	N	0.877664	0.505736	-0.005980
N211	N	0.860939	0.552074	-0.109232
H212	H	0.898004	0.571137	-0.150921
N213	N	0.246587	0.810814	0.008194
N214	N	0.193179	0.787975	0.018667
H215	H	0.210305	0.694749	0.061736
H216	H	0.187015	0.985784	0.167435
H217	H	0.243243	0.834219	0.177189
H218	H	0.762634	0.813697	-0.480927
N219	N	0.755668	0.799109	-0.307194
N220	N	0.733485	0.749831	-0.339347
H221	H	0.710925	0.700058	-0.291729
H222	H	0.511645	1.429207	-0.523731
H223	H	0.605033	1.188671	-0.667012
H224	H	0.739823	1.188344	-0.506834
N225	N	0.853721	1.028802	-0.595159
N226	N	0.866186	1.025504	-0.678599
H227	H	0.923799	0.984843	-0.682255
H228	H	0.959343	0.597060	-0.107602
H229	H	1.228923	0.333286	0.000063
N230	N	1.085300	0.411174	-0.119871
N231	N	1.114938	0.292197	-0.068206
H232	H	1.109217	0.257233	-0.111001
N233	N	1.259489	0.411223	0.481968
N234	N	1.266516	0.454498	0.385702
H235	H	1.322956	0.419561	0.377814
H236	H	1.228972	0.333325	0.679838
