data_functionalizedCrystal
_audit_creation_method	'MofGen! by Chris Wilmer'
_symmetry_space_group_name_H-M	'P1'
_symmetry_Int_Tables_number	1
_symmetry_cell_setting	triclinic
loop_
_symmetry_equiv_pos_as_xyz
  x,y,z
_cell_length_a	12.759401
_cell_length_b	25.639239
_cell_length_c	25.639234
_cell_angle_alpha	90.021106
_cell_angle_beta	90.009192
_cell_angle_gamma	90.040211
loop_
_atom_site_label
_atom_site_type_symbol
_atom_site_fract_x
_atom_site_fract_y
_atom_site_fract_z
Zn1	Zn	1.605969	-0.208181	0.295595
Zn2	Zn	2.105969	0.291819	0.795595
Zn3	Zn	1.605823	-0.295603	0.208159
Zn4	Zn	2.105823	0.204397	0.708159
Zn5	Zn	1.430304	-0.208186	0.208175
Zn6	Zn	1.930304	0.291814	0.708175
Zn7	Zn	1.430186	-0.295590	0.295565
Zn8	Zn	1.930186	0.204410	0.795565
O9	O	1.518071	-0.251890	0.251874
O10	O	2.018071	0.248110	0.751874
O11	O	1.752971	-0.219781	0.284002
O12	O	2.252971	0.280219	0.784002
O13	O	1.582528	-0.284015	0.134996
O14	O	2.082528	0.215985	0.634996
O15	O	1.453717	-0.135020	0.219790
O16	O	1.953717	0.364980	0.719790
O17	O	1.752863	-0.284010	0.219763
O18	O	2.252863	0.215990	0.719763
O19	O	1.582778	-0.135016	0.284017
O20	O	2.082778	0.364984	0.784017
O21	O	1.453575	-0.219790	0.135008
O22	O	1.953575	0.280210	0.635008
O23	O	1.283268	-0.219777	0.219762
O24	O	1.783268	0.280223	0.719762
O25	O	1.453517	-0.283987	0.368734
O26	O	1.953517	0.216013	0.868734
O27	O	1.283181	-0.283992	0.283967
O28	O	1.783181	0.216008	0.783967
O29	O	1.582663	-0.219768	0.368756
O30	O	2.082663	0.280232	0.868756
O31	O	1.582414	-0.368767	0.219735
O32	O	2.082414	0.131233	0.719735
O33	O	1.453375	-0.368757	0.283952
O34	O	1.953375	0.131243	0.783952
C35	C	1.245103	-0.251884	0.251863
C36	C	1.745103	0.248116	0.751863
C37	C	1.128327	-0.251893	0.251871
C38	C	1.628327	0.248107	0.751871
C39	C	1.073447	-0.285381	0.285250
C40	C	1.573447	0.214619	0.785250
C41	C	0.963723	-0.285383	0.285260
C42	C	1.463723	0.214617	0.785260
C43	C	0.963768	-0.218408	0.218508
C44	C	1.463768	0.281592	0.718508
C45	C	1.073490	-0.218404	0.218501
C46	C	1.573490	0.281596	0.718501
C47	C	1.517894	-0.387733	0.251850
C48	C	2.017894	0.112267	0.751850
C49	C	1.517915	-0.445847	0.251857
C50	C	2.017915	0.054153	0.751857
C51	C	1.585437	-0.806202	0.218493
C52	C	2.085437	-0.306202	0.718493
C53	C	1.585478	-0.860807	0.218500
C54	C	2.085478	-0.360807	0.718500
O55	O	1.642704	-0.889037	0.190106
O56	O	2.142704	-0.389037	0.690106
N57	N	1.518255	-0.888129	0.251908
N58	N	2.018255	-0.388129	0.751908
C59	C	1.450996	-0.860844	0.285315
C60	C	1.950996	-0.360844	0.785315
O61	O	1.393822	-0.889098	0.313733
O62	O	1.893822	-0.389098	0.813733
C63	C	1.450961	-0.806241	0.285311
C64	C	1.950961	-0.306241	0.785311
C65	C	1.518180	-0.778921	0.251896
C66	C	2.018180	-0.278921	0.751896
C67	C	1.652651	-0.778883	0.185082
C68	C	2.152651	-0.278883	0.685082
C69	C	1.652609	-0.724282	0.185074
C70	C	2.152609	-0.224282	0.685074
C71	C	1.585352	-0.697001	0.218478
C72	C	2.085352	-0.197001	0.718478
C73	C	1.518138	-0.724321	0.251889
C74	C	2.018138	-0.224321	0.751889
C75	C	1.383707	-0.778957	0.318720
C76	C	1.883707	-0.278957	0.818720
C77	C	1.383679	-0.724350	0.318713
C78	C	1.883679	-0.224350	0.818713
C79	C	1.450898	-0.697031	0.285299
C80	C	1.950898	-0.197031	0.785299
C81	C	1.450839	-0.642439	0.285285
C82	C	1.950839	-0.142439	0.785285
N83	N	1.518061	-0.615117	0.251877
N84	N	2.018061	-0.115117	0.751877
C85	C	1.585317	-0.642398	0.218473
C86	C	2.085317	-0.142398	0.718473
C87	C	1.451075	-0.975515	0.285324
C88	C	1.951075	-0.475515	0.785324
C89	C	1.451103	-1.030117	0.285326
C90	C	1.951103	-0.530117	0.785326
C91	C	1.585587	-1.030076	0.218511
C92	C	2.085587	-0.530076	0.718511
C93	C	1.585552	-0.975473	0.218506
C94	C	2.085552	-0.475473	0.718506
C95	C	1.518297	-0.948193	0.251915
C96	C	2.018297	-0.448193	0.751915
C97	C	1.585223	-0.527733	0.218459
C98	C	2.085223	-0.027733	0.718459
C99	C	1.585171	-0.473128	0.218453
C100	C	2.085171	0.026872	0.718453
C101	C	1.450692	-0.473174	0.285270
C102	C	1.950692	0.026826	0.785270
C103	C	1.450739	-0.527774	0.285274
C104	C	1.950739	-0.027774	0.785274
C105	C	1.518013	-0.555053	0.251867
C106	C	2.018013	-0.055053	0.751867
O107	O	1.393644	-0.614174	0.313666
O108	O	1.893644	-0.114174	0.813666
O109	O	1.642491	-0.614138	0.190065
O110	O	2.142491	-0.114138	0.690065
C111	C	1.792104	-0.251897	0.251884
C112	C	2.292104	0.248103	0.751884
C113	C	1.908881	-0.251900	0.251889
C114	C	2.408881	0.248100	0.751889
C115	C	1.518093	-0.251875	0.388247
C116	C	2.018093	0.248125	0.888247
C117	C	1.518103	-0.251869	0.446361
C118	C	2.018103	0.248131	0.946361
C119	C	1.518277	-0.115517	0.251909
C120	C	2.018277	0.384483	0.751909
C121	C	1.518365	-0.057403	0.251924
C122	C	2.018365	0.442597	0.751924
C123	C	1.518109	-0.251867	0.116031
C124	C	2.018109	0.248133	0.616031
C125	C	1.518303	-0.251726	0.057917
C126	C	2.018303	0.248274	0.557917
C127	C	1.450926	-0.285242	0.697537
C128	C	1.950926	0.214758	1.197537
C129	C	1.450908	-0.285254	0.642933
C130	C	1.950908	0.214746	1.142933
O131	O	1.393691	-0.313681	0.614682
O132	O	1.893691	0.186319	1.114682
N133	N	1.518143	-0.251827	0.615635
N134	N	2.018143	0.248173	1.115635
C135	C	1.585393	-0.218382	0.642944
C136	C	2.085393	0.281618	1.142944
O137	O	1.642580	-0.189951	0.614710
O138	O	2.142580	0.310049	1.114710
C139	C	1.585406	-0.218368	0.697547
C140	C	2.085406	0.281632	1.197547
C141	C	1.518174	-0.251801	0.724842
C142	C	2.018174	0.248199	1.224842
C143	C	1.383699	-0.318672	0.724833
C144	C	1.883699	0.181328	1.224833
C145	C	1.383719	-0.318660	0.779433
C146	C	1.883719	0.181340	1.279433
C147	C	1.450966	-0.285219	0.806738
C148	C	1.950966	0.214781	1.306738
C149	C	1.518194	-0.251790	0.779443
C150	C	2.018194	0.248210	1.279443
C151	C	1.652650	-0.184921	0.724855
C152	C	2.152650	0.315079	1.224855
C153	C	1.652656	-0.184910	0.779462
C154	C	2.152656	0.315090	1.279462
C155	C	1.585424	-0.218343	0.806757
C156	C	2.085424	0.281657	1.306757
C157	C	1.585461	-0.218338	0.861349
C158	C	2.085461	0.281662	1.361349
N159	N	1.518226	-0.251764	0.888647
N160	N	2.018226	0.248236	1.388647
C161	C	1.450978	-0.285205	0.861342
C162	C	1.950978	0.214795	1.361342
C163	C	1.585361	-0.218413	0.528273
C164	C	2.085361	0.281587	1.028273
C165	C	1.585355	-0.218430	0.473671
C166	C	2.085355	0.281570	0.973671
C167	C	1.450867	-0.285301	0.473664
C168	C	1.950867	0.214699	0.973664
C169	C	1.450880	-0.285287	0.528267
C170	C	1.950880	0.214713	1.028267
C171	C	1.518126	-0.251840	0.555571
C172	C	2.018126	0.248160	1.055571
C173	C	1.451026	-0.285180	0.976007
C174	C	1.951026	0.214820	1.476007
C175	C	1.451056	-0.285167	1.030612
C176	C	1.951056	0.214833	1.530612
C177	C	1.585538	-0.218294	1.030614
C178	C	2.085538	0.281706	1.530614
C179	C	1.585514	-0.218309	0.976014
C180	C	2.085514	0.281691	1.476014
C181	C	1.518249	-0.251753	0.948711
C182	C	2.018249	0.248247	1.448711
O183	O	1.642646	-0.189923	0.889634
O184	O	2.142646	0.310077	1.389634
O185	O	1.393792	-0.313627	0.889581
O186	O	1.893792	0.186373	1.389581
H187	H	1.639909	-0.450886	0.191241
H188	H	2.139909	0.049114	0.691241
Br189	Br	0.889340	-0.172961	0.173222
Br190	Br	1.389340	0.327039	0.673222
Br191	Br	1.743855	-0.687214	0.139731
Br192	Br	2.243855	-0.187214	0.639731
H193	H	1.396007	-0.550019	0.312485
H194	H	1.896007	-0.050019	0.812485
Br195	Br	1.743943	-0.815897	0.139743
Br196	Br	2.243943	-0.315897	0.639743
H197	H	1.118174	-0.191131	0.191320
H198	H	1.618174	0.308869	0.691320
H199	H	1.395929	-0.450953	0.312465
H200	H	1.895929	0.049047	0.812465
Br201	Br	1.359858	-1.067187	0.330668
Br202	Br	1.859858	-0.567187	0.830668
Br203	Br	1.359784	-0.938497	0.330665
Br204	Br	1.859784	-0.438497	0.830665
Br205	Br	1.359812	-0.330546	1.067653
Br206	Br	1.859812	0.169454	1.567653
H207	H	1.396244	-0.312409	0.953784
H208	H	1.896244	0.187591	1.453784
H209	H	1.328969	-0.345883	0.801652
H210	H	1.828969	0.154117	1.301652
Br211	Br	1.292419	-0.364061	0.687786
Br212	Br	1.792419	0.135939	1.187786
Br213	Br	1.676773	-0.172943	0.938969
Br214	Br	2.176773	0.327057	1.438969
Br215	Br	1.743899	-0.139544	0.687825
Br216	Br	2.243899	0.360456	1.187825
H217	H	1.396132	-0.312510	0.550487
H218	H	1.896132	0.187490	1.050487
H219	H	1.396109	-0.312529	0.451422
H220	H	1.896109	0.187471	0.951422
H221	H	1.640006	-0.549936	0.191257
H222	H	2.140006	-0.049936	0.691257
H223	H	1.640288	-0.953232	0.191298
H224	H	2.140288	-0.453232	0.691298
H225	H	1.328965	-0.801191	0.345927
H226	H	1.828965	-0.301191	0.845927
H227	H	1.640355	-1.052298	0.191314
H228	H	2.140355	-0.552298	0.691314
Br229	Br	1.292403	-0.687330	0.364059
Br230	Br	1.792403	-0.187330	0.864059
H231	H	0.919045	-0.312651	0.312442
H232	H	1.419045	0.187349	0.812442
Br233	Br	1.676620	-0.173064	0.436634
Br234	Br	2.176620	0.326936	0.936634
H235	H	1.640129	-0.191178	0.550501
H236	H	2.140129	0.308822	1.050501
H237	H	1.707412	-0.157671	0.801690
H238	H	2.207412	0.342329	1.301690
H239	H	1.118092	-0.312649	0.312424
H240	H	1.618092	0.187351	0.812424
Br241	Br	1.676802	-0.172914	1.067682
Br242	Br	2.176802	0.327086	1.567682
