data_functionalizedCrystal
_audit_creation_method	'MofGen! by Chris Wilmer'
_symmetry_space_group_name_H-M	'P1'
_symmetry_Int_Tables_number	1
_symmetry_cell_setting	triclinic
loop_
_symmetry_equiv_pos_as_xyz
  x,y,z
_cell_length_a	21.295417
_cell_length_b	21.295420
_cell_length_c	12.594509
_cell_angle_alpha	90.022234
_cell_angle_beta	89.963755
_cell_angle_gamma	89.975452
loop_
_atom_site_label
_atom_site_type_symbol
_atom_site_fract_x
_atom_site_fract_y
_atom_site_fract_z
Zn1	Zn	-0.250690	-0.962333	-0.601826
Zn2	Zn	-0.355969	-0.962242	-0.423823
Zn3	Zn	-0.250707	-0.857063	-0.423852
Zn4	Zn	-0.355915	-0.857026	-0.601750
O5	O	-0.303320	-0.909666	-0.512813
O6	O	-0.264672	-1.050411	-0.578233
O7	O	-0.342035	-0.948267	-0.274881
O8	O	-0.162615	-0.871081	-0.447505
O9	O	-0.342019	-1.050344	-0.447455
O10	O	-0.162603	-0.948423	-0.578262
O11	O	-0.264699	-0.870993	-0.274903
O12	O	-0.264647	-0.768969	-0.447431
O13	O	-0.341927	-0.871018	-0.750706
O14	O	-0.341943	-0.768942	-0.578132
O15	O	-0.264619	-0.948387	-0.750762
O16	O	-0.444051	-0.948232	-0.447381
O17	O	-0.444011	-0.870930	-0.578103
C18	C	-0.303291	-0.746115	-0.512777
C19	C	-0.303294	-0.676147	-0.512787
C20	C	-0.263118	-0.176723	-0.581011
C21	C	-0.263115	-0.242465	-0.581013
C22	C	-0.303320	-0.275307	-0.512816
C23	C	-0.343542	-0.242401	-0.444631
C24	C	-0.343548	-0.176660	-0.444638
N25	N	-0.308073	-0.378500	-0.419620
N26	N	-0.308063	-0.440952	-0.419617
C27	C	-0.303305	-0.473382	-0.512791
N28	N	-0.298545	-0.441001	-0.605973
N29	N	-0.298551	-0.378544	-0.605975
C30	C	-0.303318	-0.346592	-0.512801
C31	C	-0.263086	-0.577566	-0.580980
C32	C	-0.263088	-0.643309	-0.580984
C33	C	-0.343511	-0.643244	-0.444592
C34	C	-0.343513	-0.577501	-0.444598
C35	C	-0.303297	-0.544666	-0.512790
C36	C	-0.466872	-0.909584	-0.512754
C37	C	-0.536840	-0.909606	-0.512764
C38	C	-0.569706	-0.949893	-0.444767
C39	C	-0.635449	-0.949922	-0.444791
C40	C	-0.668322	-0.909654	-0.512801
C41	C	-0.635448	-0.869364	-0.580812
C42	C	-0.569707	-0.869340	-0.580793
N43	N	-0.771582	-0.854586	-0.520903
N44	N	-0.834033	-0.854611	-0.520915
C45	C	-0.866397	-0.909724	-0.512862
N46	N	-0.833950	-0.964813	-0.504777
N47	N	-0.771493	-0.964788	-0.504761
C48	C	-0.739608	-0.909675	-0.512829
C49	C	-0.970549	-0.950047	-0.444887
C50	C	-1.036293	-0.950077	-0.444919
C51	C	-1.036291	-0.869513	-0.580934
C52	C	-0.970548	-0.869488	-0.580908
C53	C	-0.937681	-0.909754	-0.512879
C54	C	-0.139130	-0.909766	-0.512895
C55	C	-0.069162	-0.909809	-0.512931
C56	C	-0.303265	-0.909708	-0.790434
C57	C	-0.303242	-0.909726	-0.908740
C58	C	-0.303342	-0.073856	-0.512841
C59	C	-0.303332	-0.143825	-0.512831
C60	C	-0.345265	-0.867659	-0.977962
C61	C	-0.360652	-0.925094	-1.048751
C62	C	-0.287817	-0.852336	-1.048750
C63	C	-0.318658	-0.967191	-0.977970
C64	C	-0.245797	-0.894395	-0.977963
C65	C	-0.261161	-0.951870	-1.048720
C66	C	-0.303330	-0.909660	-0.236272
C67	C	-0.303176	-0.909764	-0.117967
H68	H	-0.376279	-0.269145	-0.389107
H69	H	-0.376297	-0.149874	-0.389117
H70	H	-0.409204	-0.938082	-1.079844
H71	H	-0.230342	-0.670094	-0.636512
H72	H	-0.230365	-0.269256	-0.636532
O73	O	-0.272205	-0.794466	-1.085968
C74	C	-0.217047	-0.798841	-1.147510
H75	H	-0.211469	-0.848938	-1.178037
H76	H	-0.174733	-0.785926	-1.096589
C77	C	-0.228338	-0.691864	-1.204794
C78	C	-0.221490	-0.753393	-1.242294
H79	H	-0.231077	-0.663828	-1.263258
H80	H	-0.265498	-0.688916	-1.163328
H81	H	-0.193075	-0.681110	-1.162359
H82	H	-0.256756	-0.764148	-1.284716
H83	H	-0.184335	-0.756342	-1.283769
O84	O	-0.223960	-0.545638	-0.647076
C85	C	-0.183271	-0.507599	-0.586610
H86	H	-0.179321	-0.527390	-0.502790
H87	H	-0.202733	-0.457766	-0.582887
C88	C	-0.122720	-0.482321	-0.741763
C89	C	-0.117864	-0.506632	-0.638817
H90	H	-0.082374	-0.481721	-0.773969
H91	H	-0.150134	-0.507946	-0.782502
H92	H	-0.138940	-0.440795	-0.738647
H93	H	-0.101651	-0.548159	-0.641936
H94	H	-0.090445	-0.481013	-0.598080
H95	H	-0.380859	-0.832111	-0.946895
O96	O	-0.382510	-0.675235	-0.378382
C97	C	-0.373896	-0.740316	-0.393018
H98	H	-0.325339	-0.749322	-0.428021
H99	H	-0.411272	-0.758971	-0.449587
C100	C	-0.439230	-0.762978	-0.242314
C101	C	-0.379589	-0.774040	-0.285297
H102	H	-0.442745	-0.783781	-0.175868
H103	H	-0.445036	-0.719132	-0.232455
H104	H	-0.470370	-0.778524	-0.289465
H105	H	-0.348452	-0.758486	-0.238152
H106	H	-0.373779	-0.817884	-0.295145
O107	O	-0.938520	-0.989105	-0.378851
C108	C	-0.873447	-0.980453	-0.393428
H109	H	-0.864491	-0.931857	-0.428202
H110	H	-0.854732	-1.017764	-0.450167
C111	C	-0.850742	-1.045934	-0.243023
C112	C	-0.839742	-0.986245	-0.285725
H113	H	-0.829951	-1.049510	-0.176588
H114	H	-0.894583	-1.051765	-0.233204
H115	H	-0.835147	-1.077020	-0.290315
H116	H	-0.855345	-0.955162	-0.238440
H117	H	-0.795903	-0.980409	-0.295534
H118	H	-0.376257	-0.550715	-0.389074
O119	O	-0.537878	-0.989071	-0.378663
C120	C	-0.580990	-1.024627	-0.318634
H121	H	-0.627831	-1.026804	-0.362246
H122	H	-0.588035	-1.001605	-0.237760
C123	C	-0.497760	-1.088947	-0.249836
C124	C	-0.555290	-1.091626	-0.303404
H125	H	-0.481907	-1.130274	-0.240436
H126	H	-0.468714	-1.064991	-0.290274
H127	H	-0.503639	-1.069759	-0.182446
H128	H	-0.549409	-1.110805	-0.370797
H129	H	-0.584335	-1.115586	-0.262976
O130	O	-0.224037	-0.144925	-0.647357
C131	C	-0.188531	-0.188065	-0.707516
H132	H	-0.214313	-0.234920	-0.711116
H133	H	-0.140695	-0.195062	-0.668681
C134	C	-0.147869	-0.104896	-0.816408
C135	C	-0.179538	-0.162443	-0.820837
H136	H	-0.142320	-0.089090	-0.886308
H137	H	-0.171789	-0.075831	-0.775875
H138	H	-0.108010	-0.110735	-0.784040
H139	H	-0.219400	-0.156602	-0.853192
H140	H	-0.155625	-0.191506	-0.861378
O141	O	-0.334278	-1.025084	-0.940865
C142	C	-0.334136	-1.024361	-0.828923
H143	H	-0.341136	-0.974188	-0.799614
H144	H	-0.287297	-1.043082	-0.798627
C145	C	-0.379198	-1.127682	-0.823159
C146	C	-0.387801	-1.066060	-0.787161
H147	H	-0.412299	-1.153406	-0.797397
H148	H	-0.379292	-1.128171	-0.898577
H149	H	-0.340164	-1.143274	-0.797909
H150	H	-0.426831	-1.050466	-0.812422
H151	H	-0.387715	-1.065570	-0.711747
O152	O	-0.218802	-0.994461	-1.085510
C153	C	-0.235254	-1.054885	-1.049226
H154	H	-0.287487	-1.056046	-1.029455
H155	H	-0.206904	-1.066580	-0.975065
C156	C	-0.156810	-1.102095	-1.160765
C157	C	-0.220965	-1.103522	-1.136489
H158	H	-0.147994	-1.132098	-1.214590
H159	H	-0.145724	-1.061386	-1.185207
H160	H	-0.133193	-1.111839	-1.098956
H161	H	-0.244581	-1.093770	-1.198294
H162	H	-0.232055	-1.144230	-1.112059
O163	O	-0.938548	-0.830317	-0.646804
C164	C	-0.900594	-0.789656	-0.586125
H165	H	-0.890767	-0.811881	-0.505496
H166	H	-0.925972	-0.743019	-0.574364
C167	C	-0.850196	-0.750919	-0.743679
C168	C	-0.838122	-0.778219	-0.644652
H169	H	-0.811661	-0.743861	-0.779781
H170	H	-0.875768	-0.778311	-0.784560
H171	H	-0.871346	-0.712058	-0.733863
H172	H	-0.816980	-0.817083	-0.654469
H173	H	-0.812545	-0.750833	-0.603773
H174	H	-0.197259	-0.881390	-0.946846
H175	H	-0.542946	-0.836533	-0.636166
H176	H	-0.662214	-0.982731	-0.389420
H177	H	-0.662218	-0.836578	-0.636188
O178	O	-1.068313	-0.830418	-0.646904
C179	C	-1.133387	-0.839091	-0.632365
H180	H	-1.142390	-0.859735	-0.550258
H181	H	-1.151983	-0.872603	-0.695556
C182	C	-1.156129	-0.750055	-0.742882
C183	C	-1.167188	-0.775405	-0.642033
H184	H	-1.176981	-0.710771	-0.748850
H185	H	-1.112288	-0.744213	-0.752681
H186	H	-1.171626	-0.777987	-0.795530
H187	H	-1.151684	-0.747477	-0.589388
H188	H	-1.211027	-0.781241	-0.632225
H189	H	-1.063052	-0.982887	-0.389549
