data_functionalizedCrystal
_audit_creation_method	'MofGen! by Chris Wilmer'
_symmetry_space_group_name_H-M	'P1'
_symmetry_Int_Tables_number	1
_symmetry_cell_setting	triclinic
loop_
_symmetry_equiv_pos_as_xyz
  x,y,z
_cell_length_a	19.121241
_cell_length_b	19.120786
_cell_length_c	19.805399
_cell_angle_alpha	87.531070
_cell_angle_beta	87.537729
_cell_angle_gamma	94.790376
loop_
_atom_site_label
_atom_site_type_symbol
_atom_site_fract_x
_atom_site_fract_y
_atom_site_fract_z
Zn1	Zn	1.063748	-0.234359	-0.416871
Zn2	Zn	1.397082	0.098974	-0.083537
Zn3	Zn	1.730415	0.432308	0.249796
Zn4	Zn	1.058642	-0.352035	-0.298631
Zn5	Zn	1.391975	-0.018702	0.034702
Zn6	Zn	1.725309	0.314631	0.368035
Zn7	Zn	0.946082	-0.239388	-0.298644
Zn8	Zn	1.279415	0.093946	0.034689
Zn9	Zn	1.612748	0.427279	0.368022
Zn10	Zn	0.941028	-0.357005	-0.406732
Zn11	Zn	1.274362	-0.023672	-0.073398
Zn12	Zn	1.607695	0.309662	0.259935
O13	O	1.002375	-0.295697	-0.355220
O14	O	1.335708	0.037637	-0.021886
O15	O	1.669042	0.370970	0.311447
O16	O	1.161536	-0.245784	-0.405424
O17	O	1.494870	0.087549	-0.072091
O18	O	1.828203	0.420882	0.261243
O19	O	1.043688	-0.337117	-0.203914
O20	O	1.377022	-0.003784	0.129419
O21	O	1.710355	0.329550	0.462752
O22	O	0.965942	-0.140249	-0.318576
O23	O	1.299276	0.193084	0.014757
O24	O	1.632609	0.526417	0.348091
O25	O	1.157785	-0.332241	-0.318554
O26	O	1.491118	0.001093	0.014780
O27	O	1.824452	0.334426	0.348113
O28	O	1.052392	-0.136555	-0.405437
O29	O	1.385725	0.196779	-0.072103
O30	O	1.719058	0.530112	0.261230
O31	O	0.960991	-0.254355	-0.203924
O32	O	1.294324	0.078978	0.129409
O33	O	1.627658	0.412311	0.462743
O34	O	0.846946	-0.259174	-0.308745
O35	O	1.180279	0.074159	0.024589
O36	O	1.513613	0.407492	0.357922
O37	O	0.957330	-0.340711	-0.502795
O38	O	1.290663	-0.007378	-0.169462
O39	O	1.623996	0.325956	0.163871
O40	O	0.843233	-0.345587	-0.388156
O41	O	1.176567	-0.012254	-0.054823
O42	O	1.509900	0.321079	0.278511
O43	O	1.047491	-0.250604	-0.510244
O44	O	1.380825	0.082730	-0.176911
O45	O	1.714158	0.416063	0.156422
O46	O	1.038788	-0.451166	-0.308722
O47	O	1.372122	-0.117832	0.024611
O48	O	1.705455	0.215501	0.357944
O49	O	0.952378	-0.454817	-0.388143
O50	O	1.285712	-0.121484	-0.054810
O51	O	1.619045	0.211850	0.278524
C52	C	0.819559	-0.303466	-0.347352
C53	C	1.152892	0.029867	-0.014018
C54	C	1.486225	0.363200	0.319315
C55	C	0.741348	-0.306807	-0.344001
C56	C	1.074681	0.026526	-0.010668
C57	C	1.408015	0.359859	0.322665
C58	C	0.994500	-0.478523	-0.347347
C59	C	1.327833	-0.145190	-0.014013
C60	C	1.661167	0.188144	0.319320
C61	C	0.991195	-0.556734	-0.344004
C62	C	1.324529	-0.223401	-0.010671
C63	C	1.657862	0.109932	0.322663
C64	C	1.034619	-0.591495	-0.387691
C65	C	1.367952	-0.258162	-0.054358
C66	C	1.701285	0.075171	0.278976
C67	C	1.031511	-0.664983	-0.384551
C68	C	1.364844	-0.331650	-0.051218
C69	C	1.698177	0.001683	0.282116
C70	C	0.984982	-0.703708	-0.337721
C71	C	1.318316	-0.370375	-0.004387
C72	C	1.651649	-0.037042	0.328946
C73	C	0.941554	-0.668942	-0.294032
C74	C	1.274888	-0.335609	0.039301
C75	C	1.608221	-0.002276	0.372635
C76	C	0.944659	-0.595456	-0.297175
C77	C	1.277993	-0.262123	0.036158
C78	C	1.611326	0.071211	0.369491
C79	C	0.973354	-0.925689	-0.325968
C80	C	1.306688	-0.592356	0.007365
C81	C	1.640021	-0.259022	0.340698
C82	C	0.970254	-0.999180	-0.322827
C83	C	1.303588	-0.665847	0.010507
C84	C	1.636921	-0.332514	0.343840
C85	C	1.060210	-0.995216	-0.413347
C86	C	1.393543	-0.661883	-0.080014
C87	C	1.726877	-0.328549	0.253320
C88	C	1.063314	-0.921728	-0.416484
C89	C	1.396647	-0.588395	-0.083150
C90	C	1.729980	-0.255062	0.250183
C91	C	1.019883	-0.886969	-0.372797
C92	C	1.353216	-0.553636	-0.039464
C93	C	1.686550	-0.220302	0.293869
C94	C	0.981806	-0.778825	-0.334509
C95	C	1.315139	-0.445491	-0.001176
C96	C	1.648473	-0.112158	0.332158
C97	C	1.023056	-0.811854	-0.376013
C98	C	1.356390	-0.478521	-0.042680
C99	C	1.689723	-0.145187	0.290654
C100	C	0.706556	-0.263435	-0.387719
C101	C	1.039889	0.069898	-0.054386
C102	C	1.373222	0.403232	0.278948
C103	C	0.633069	-0.266571	-0.384565
C104	C	0.966402	0.066763	-0.051232
C105	C	1.299735	0.400096	0.282102
C106	C	0.594375	-0.313083	-0.337696
C107	C	0.927709	0.020251	-0.004363
C108	C	1.261042	0.353584	0.328970
C109	C	0.629173	-0.356457	-0.293974
C110	C	0.962506	-0.023123	0.039359
C111	C	1.295840	0.310210	0.372692
C112	C	0.702659	-0.353317	-0.297125
C113	C	1.035992	-0.019984	0.036208
C114	C	1.369325	0.313350	0.369541
C115	C	0.372399	-0.324808	-0.325913
C116	C	0.705732	0.008526	0.007420
C117	C	1.039065	0.341859	0.340753
C118	C	0.298908	-0.327946	-0.322767
C119	C	0.632241	0.005388	0.010567
C120	C	0.965574	0.338721	0.343900
C121	C	0.302809	-0.238059	-0.413357
C122	C	0.636142	0.095275	-0.080024
C123	C	0.969475	0.428608	0.253310
C124	C	0.376295	-0.234926	-0.416507
C125	C	0.709629	0.098407	-0.083173
C126	C	1.042962	0.431741	0.250160
C127	C	0.411087	-0.278297	-0.372782
C128	C	0.744420	0.055036	-0.039449
C129	C	1.077753	0.388369	0.293884
C130	C	0.519260	-0.316291	-0.334473
C131	C	0.852593	0.017043	-0.001140
C132	C	1.185927	0.350376	0.332194
C133	C	0.486201	-0.275085	-0.376003
C134	C	0.819534	0.058248	-0.042670
C135	C	1.152868	0.391581	0.290664
C136	C	1.185906	-0.287897	-0.363118
C137	C	1.519239	0.045436	-0.029785
C138	C	1.852572	0.378769	0.303548
C139	C	1.264115	-0.284574	-0.366484
C140	C	1.597449	0.048760	-0.033151
C141	C	1.930782	0.382093	0.300182
C142	C	1.002416	-0.295651	-0.531766
C143	C	1.335750	0.037683	-0.198433
C144	C	1.669083	0.371016	0.134901
C145	C	1.002434	-0.295631	-0.606999
C146	C	1.335767	0.037702	-0.273666
C147	C	1.669101	0.371036	0.059667
C148	C	1.010300	-0.112156	-0.363139
C149	C	1.343634	0.221178	-0.029805
C150	C	1.676967	0.554511	0.303528
C151	C	1.013678	-0.033941	-0.366514
C152	C	1.347011	0.299392	-0.033180
C153	C	1.680344	0.632725	0.300153
C154	C	1.049382	-0.248710	-0.646224
C155	C	1.382716	0.084624	-0.312890
C156	C	1.716049	0.417957	0.020443
C157	C	1.049391	-0.248689	-0.716913
C158	C	1.382724	0.084644	-0.383580
C159	C	1.716057	0.417978	-0.050247
C160	C	1.002453	-0.295594	-0.748377
C161	C	1.335786	0.037740	-0.415044
C162	C	1.669120	0.371073	-0.081711
C163	C	0.955500	-0.342517	-0.709148
C164	C	1.288833	-0.009184	-0.375815
C165	C	1.622166	0.324149	-0.042481
C166	C	0.955489	-0.342534	-0.638460
C167	C	1.288822	-0.009201	-0.305126
C168	C	1.622155	0.324133	0.028207
C169	C	0.955542	-0.342450	-0.994226
C170	C	1.288876	-0.009117	-0.660893
C171	C	1.622209	0.324217	-0.327559
C172	C	0.955558	-0.342431	-1.064920
C173	C	1.288892	-0.009098	-0.731586
C174	C	1.622225	0.324236	-0.398253
C175	C	1.049444	-0.248605	-1.072680
C176	C	1.382777	0.084728	-0.739346
C177	C	1.716111	0.418062	-0.406013
C178	C	1.049433	-0.248622	-1.001991
C179	C	1.382766	0.084712	-0.668658
C180	C	1.716100	0.418045	-0.335325
C181	C	1.002478	-0.295542	-0.962768
C182	C	1.335811	0.037791	-0.629435
C183	C	1.669144	0.371124	-0.296101
C184	C	1.002468	-0.295563	-0.886118
C185	C	1.335802	0.037770	-0.552785
C186	C	1.669135	0.371103	-0.219452
C187	C	1.002465	-0.295577	-0.825026
C188	C	1.335798	0.037757	-0.491693
C189	C	1.669132	0.371090	-0.158359
C190	C	1.002377	-0.295690	-0.179364
C191	C	1.335710	0.037643	0.153969
C192	C	1.669043	0.370977	0.487303
C193	C	1.002504	-0.295506	-0.104145
C194	C	1.335837	0.037828	0.229188
C195	C	1.669170	0.371161	0.562522
H196	H	1.072510	-0.559970	-0.425822
H197	H	1.405843	-0.226637	-0.092489
H198	H	1.739176	0.106697	0.240844
H199	H	0.487748	-0.354161	-0.296312
H200	H	0.821081	-0.020827	0.037021
H201	H	1.154414	0.312506	0.370354
F202	F	1.072570	-0.770639	-0.425855
F203	F	1.405903	-0.437305	-0.092522
F204	F	1.739236	-0.103972	0.240812
H205	H	0.917252	-0.380735	-0.606524
H206	H	1.250585	-0.047402	-0.273191
H207	H	1.583918	0.285931	0.060143
F208	F	1.077720	-0.701976	-0.431056
F209	F	1.411054	-0.368642	-0.097723
F210	F	1.744387	-0.035309	0.235611
H211	H	0.943925	-0.810363	-0.296378
H212	H	1.277258	-0.477030	0.036956
H213	H	1.610591	-0.143696	0.370289
H214	H	0.917280	-0.380705	-0.734772
H215	H	1.250613	-0.047372	-0.401438
H216	H	1.583947	0.285961	-0.068105
H217	H	0.267405	-0.365825	-0.284600
H218	H	0.600739	-0.032492	0.048733
H219	H	0.934072	0.300842	0.382067
H220	H	1.101201	-0.890200	-0.454617
H221	H	1.434534	-0.556866	-0.121283
H222	H	1.767867	-0.223533	0.212050
F223	F	0.587991	-0.405955	-0.244089
F224	F	0.921324	-0.072621	0.089244
F225	F	1.254658	0.260712	0.422577
H226	H	1.095568	-1.023525	-0.448915
H227	H	1.428901	-0.690192	-0.115581
H228	H	1.762234	-0.356859	0.217752
H229	H	0.932362	-1.030709	-0.284691
H230	H	1.265695	-0.697375	0.048642
H231	H	1.599029	-0.364042	0.381976
F232	F	0.905568	-0.392387	-0.952491
F233	F	1.238901	-0.059054	-0.619157
F234	F	1.572235	0.274279	-0.285824
F235	F	0.927126	-0.888705	-0.279478
F236	F	1.260459	-0.555371	0.053856
F237	F	1.593792	-0.222038	0.387189
F238	F	0.892029	-0.710159	-0.244197
F239	F	1.225362	-0.376825	0.089136
F240	F	1.558696	-0.043492	0.422470
F241	F	1.099344	-0.198790	-0.612744
F242	F	1.432677	0.134543	-0.279410
F243	F	1.766011	0.467877	0.053923
H244	H	0.517708	-0.237213	-0.414160
H245	H	0.851042	0.096121	-0.080827
H246	H	1.184375	0.429454	0.252506
H247	H	1.087622	-0.210483	-0.748847
H248	H	1.420956	0.122851	-0.415514
H249	H	1.754289	0.456184	-0.082180
H250	H	0.730986	-0.388635	-0.261525
H251	H	1.064319	-0.055301	0.071808
H252	H	1.397652	0.278032	0.405141
H253	H	1.087657	-0.210430	-0.976377
H254	H	1.420990	0.122904	-0.643044
H255	H	1.754323	0.456237	-0.309710
F256	F	0.265776	-0.191902	-0.459888
F257	F	0.599109	0.141431	-0.126554
F258	F	0.932443	0.474765	0.206779
H259	H	0.738054	-0.225562	-0.425886
H260	H	1.071388	0.107771	-0.092553
H261	H	1.404721	0.441105	0.240781
F262	F	1.099417	-0.198665	-1.114429
F263	F	1.432750	0.134668	-0.781096
F264	F	1.766083	0.468002	-0.447763
F265	F	0.417470	-0.185425	-0.466394
F266	F	0.750804	0.147908	-0.133061
F267	F	1.084137	0.481242	0.200273
F268	F	0.898441	-0.558461	-0.250678
F269	F	1.231775	-0.225128	0.082655
F270	F	1.565108	0.108206	0.415988
F271	F	0.596043	-0.220409	-0.431097
F272	F	0.929376	0.112924	-0.097763
F273	F	1.262710	0.446257	0.235570
F274	F	0.905598	-0.392355	-1.098404
F275	F	1.238931	-0.059022	-0.765071
F276	F	1.572265	0.274311	-0.431738
H277	H	0.400717	-0.360125	-0.290310
H278	H	0.734050	-0.026791	0.043023
H279	H	1.067383	0.306542	0.376357
