data_functionalizedCrystal
_audit_creation_method	'MofGen! by Chris Wilmer'
_symmetry_space_group_name_H-M	'P1'
_symmetry_Int_Tables_number	1
_symmetry_cell_setting	triclinic
loop_
_symmetry_equiv_pos_as_xyz
  x,y,z
_cell_length_a	15.995350
_cell_length_b	12.837942
_cell_length_c	11.295483
_cell_angle_alpha	85.469583
_cell_angle_beta	85.900966
_cell_angle_gamma	90.839342
loop_
_atom_site_label
_atom_site_type_symbol
_atom_site_fract_x
_atom_site_fract_y
_atom_site_fract_z
O1	O	1.126720	-0.126650	-0.098846
O2	O	0.884263	-0.143147	-0.098887
O3	O	1.000115	0.016004	-0.098860
O4	O	1.010868	-0.285801	-0.098873
O5	O	0.989938	0.002047	0.099189
O6	O	0.874086	-0.157104	0.099162
O7	O	1.116543	-0.140607	0.099203
Cu8	Cu	0.994385	-0.150130	0.117266
Cu9	Cu	1.006421	-0.133624	-0.116950
O10	O	1.000691	-0.299758	0.099176
C11	C	0.847926	-0.149443	0.000132
C12	C	0.754813	-0.147397	0.000117
C13	C	1.152881	-0.134311	0.000181
C14	C	1.245994	-0.136356	0.000189
C15	C	0.991394	0.047646	0.000163
C16	C	0.980561	0.162723	0.000159
C17	C	1.584330	-0.143697	0.000140
C18	C	1.545916	-0.257074	0.000583
C19	C	1.449085	-0.254998	0.000149
C20	C	1.416477	-0.140056	0.000165
C21	C	1.458889	-0.076179	-0.112930
C22	C	1.555757	-0.079019	-0.113037
C23	C	1.544389	-0.092550	0.112181
C24	C	1.447369	-0.092683	0.113688
C25	C	1.321615	-0.137992	0.000175
C26	C	1.679193	-0.145758	0.000123
C27	C	1.009412	-0.331400	0.000150
C28	C	1.020246	-0.446477	0.000146
N29	N	0.985926	-0.161739	0.282000
C30	C	1.110799	0.403682	0.000156
C31	C	1.100624	0.511808	0.000153
C32	C	0.950038	0.487104	0.000140
C33	C	0.960213	0.378978	0.000143
C34	C	1.040596	0.337271	0.000154
C35	C	1.050769	0.229142	0.000166
C36	C	0.900184	0.204441	0.000144
C37	C	0.890009	0.312567	0.000141
N38	N	1.014886	-0.122007	-0.281684
C39	C	1.075776	-0.038384	0.531310
C40	C	1.069390	-0.047164	0.655972
C41	C	0.966764	-0.188073	0.655989
C42	C	0.973150	-0.179293	0.531327
C43	C	1.027659	-0.104447	0.468992
C44	C	1.034049	-0.095673	0.344327
C45	C	0.931419	-0.236576	0.344346
C46	C	0.925032	-0.245357	0.469008
H47	H	1.563909	-0.308093	0.081678
C48	C	1.134847	0.043020	0.463670
C49	C	1.111593	0.142774	0.493952
C50	C	1.165985	0.217784	0.431648
H51	H	1.190609	0.030422	0.484034
H52	H	1.131743	0.038844	0.380493
H53	H	1.114706	0.146947	0.577111
H54	H	1.055840	0.155406	0.473585
H55	H	1.162881	0.213609	0.348470
H56	H	1.221744	0.205176	0.452017
H57	H	1.150210	0.285476	0.452177
C58	C	1.417554	0.018437	0.123055
C59	C	1.446480	0.057421	0.225339
C60	C	1.419025	0.159782	0.234004
H61	H	1.438838	0.061178	0.054755
H62	H	1.358016	0.018682	0.127873
H63	H	1.506006	0.057183	0.220511
H64	H	1.425198	0.014709	0.293657
H65	H	1.359487	0.160027	0.238822
H66	H	1.440311	0.202514	0.165698
H67	H	1.438640	0.186242	0.303408
H68	H	1.569440	-0.009033	0.112943
H69	H	0.892241	-0.290373	0.293592
C70	C	0.865794	-0.326460	0.536847
C71	C	0.806477	-0.276250	0.608445
C72	C	0.751901	-0.350932	0.670966
H73	H	0.837966	-0.364590	0.482015
H74	H	0.896842	-0.373043	0.585544
H75	H	0.775433	-0.229686	0.559753
H76	H	0.834281	-0.238125	0.663300
H77	H	0.782949	-0.397515	0.719663
H78	H	0.724079	-0.389058	0.616125
H79	H	0.711653	-0.316876	0.719561
C80	C	1.590115	-0.125515	-0.225803
C81	C	1.523630	-0.150782	-0.293200
C82	C	1.555242	-0.193632	-0.397080
H83	H	1.626691	-0.076088	-0.271159
H84	H	1.620072	-0.186886	-0.205190
H85	H	1.493686	-0.089419	-0.313815
H86	H	1.487048	-0.200218	-0.247881
H87	H	1.585200	-0.255003	-0.376467
H88	H	1.591818	-0.144201	-0.442425
H89	H	1.510137	-0.210790	-0.442816
H90	H	1.420016	-0.304662	0.081216
C91	C	0.823998	0.132305	-0.000107
C92	C	0.830659	0.076699	-0.102009
C93	C	0.760489	0.010249	-0.102285
H94	H	0.821220	0.084659	0.068879
H95	H	0.774654	0.172605	-0.000178
H96	H	0.879990	0.036402	-0.101927
H97	H	0.833426	0.124318	-0.171012
H98	H	0.711145	0.050549	-0.102356
H99	H	0.757717	-0.037391	-0.033295
H100	H	0.764995	-0.027481	-0.171429
C101	C	1.582723	-0.309729	-0.106673
C102	C	1.623966	-0.400185	-0.067744
C103	C	1.658020	-0.448689	-0.166453
H104	H	1.539067	-0.327869	-0.154469
H105	H	1.621517	-0.263132	-0.152236
H106	H	1.585175	-0.446773	-0.022201
H107	H	1.667633	-0.382075	-0.019961
H108	H	1.696814	-0.402092	-0.212016
H109	H	1.614359	-0.466822	-0.214242
H110	H	1.686014	-0.510063	-0.140054
H111	H	1.428911	-0.293513	-0.081060
H112	H	1.581630	0.004559	-0.118182
H113	H	1.438241	0.008562	-0.117124
H114	H	0.922378	-0.249005	0.706758
H115	H	1.108571	0.006633	0.706709
H116	H	1.563495	-0.135648	0.197894
C117	C	1.409432	-0.154878	0.225215
C118	C	1.321894	-0.150803	0.228019
C119	C	1.286913	-0.208076	0.330743
H120	H	1.426210	-0.225516	0.224597
H121	H	1.428296	-0.125839	0.293622
H122	H	1.303038	-0.179846	0.159630
H123	H	1.305093	-0.080180	0.228656
H124	H	1.305777	-0.179036	0.399149
H125	H	1.303697	-0.278709	0.330115
H126	H	1.227516	-0.205311	0.332664
C127	C	1.138112	0.184062	0.000108
C128	C	1.197416	0.265373	0.000072
C129	C	1.277887	0.223891	-0.000003
H130	H	1.141790	0.137549	0.069153
H131	H	1.148798	0.147292	-0.068984
H132	H	1.186734	0.302127	0.069157
H133	H	1.193764	0.311893	-0.068967
H134	H	1.288572	0.187120	-0.069095
H135	H	1.281556	0.177378	0.069043
H136	H	1.318134	0.279054	-0.000038
H137	H	1.437893	-0.109052	-0.197092
C138	C	1.093109	-0.014228	0.276740
C139	C	1.069808	0.085493	0.307083
C140	C	1.124185	0.160560	0.244852
H141	H	1.148870	-0.026806	0.297121
H142	H	1.090028	-0.018362	0.193552
H143	H	1.072897	0.089624	0.390253
H144	H	1.014056	0.098105	0.286699
H145	H	1.121104	0.156426	0.161664
H146	H	1.179943	0.147972	0.265238
H147	H	1.108378	0.228229	0.265423
C148	C	1.176762	0.584022	0.000344
C149	C	1.170079	0.639664	0.102217
C150	C	1.240199	0.706208	0.102423
H151	H	1.226145	0.543819	0.000410
H152	H	1.179467	0.631636	-0.068686
H153	H	1.167382	0.592056	0.171229
H154	H	1.120710	0.679887	0.102173
H155	H	1.242904	0.753823	0.033393
H156	H	1.289577	0.665997	0.102486
H157	H	1.235670	0.743976	0.171536
H158	H	1.176249	0.369723	0.000176
H159	H	0.884594	0.521083	0.000119
H160	H	0.824564	0.346541	0.000128
