data_functionalizedCrystal
_audit_creation_method	'MofGen! by Chris Wilmer'
_symmetry_space_group_name_H-M	'P1'
_symmetry_Int_Tables_number	1
_symmetry_cell_setting	triclinic
loop_
_symmetry_equiv_pos_as_xyz
  x,y,z
_cell_length_a	18.050590
_cell_length_b	21.295417
_cell_length_c	18.050582
_cell_angle_alpha	89.974292
_cell_angle_beta	90.000767
_cell_angle_gamma	90.018869
loop_
_atom_site_label
_atom_site_type_symbol
_atom_site_fract_x
_atom_site_fract_y
_atom_site_fract_z
Zn1	Zn	1.135285	-0.250831	-0.419585
Zn2	Zn	1.135192	-0.356092	-0.295389
Zn3	Zn	1.011104	-0.250821	-0.295444
Zn4	Zn	1.011049	-0.356047	-0.419571
O5	O	1.073157	-0.303448	-0.357497
O6	O	1.239197	-0.264818	-0.403093
O7	O	1.118716	-0.342143	-0.191471
O8	O	1.027639	-0.162733	-0.311940
O9	O	1.239129	-0.342153	-0.311847
O10	O	1.118874	-0.162741	-0.403147
O11	O	1.027549	-0.264801	-0.191512
O12	O	0.907172	-0.264756	-0.311926
O13	O	1.027545	-0.342075	-0.523498
O14	O	0.907132	-0.342065	-0.403122
O15	O	1.118820	-0.264773	-0.523508
O16	O	1.118663	-0.444176	-0.311833
O17	O	1.027455	-0.444142	-0.403069
C18	C	0.880205	-0.303405	-0.357529
C19	C	0.797660	-0.303402	-0.357560
C20	C	0.598208	-0.345562	-0.407035
C21	C	0.548817	-0.288165	-0.425314
C22	C	0.646529	-0.303437	-0.357524
C23	C	0.548839	-0.360867	-0.339245
C24	C	0.500544	-0.303476	-0.357491
C25	C	0.598225	-0.246009	-0.375838
C26	C	0.598251	-0.318749	-0.289738
C27	C	0.548882	-0.261313	-0.307991
C28	C	0.730627	-0.303415	-0.357545
C29	C	0.416448	-0.303491	-0.357469
C30	C	1.073063	-0.467000	-0.357460
C31	C	1.073090	-0.536968	-0.357468
C32	C	1.120569	-0.569781	-0.404994
C33	C	1.120595	-0.635523	-0.405012
C34	C	1.073150	-0.668450	-0.357492
C35	C	1.025662	-0.635629	-0.309963
C36	C	1.025632	-0.569888	-0.309952
N37	N	1.067546	-0.771706	-0.292499
N38	N	1.067579	-0.834158	-0.292512
C39	C	1.073237	-0.866525	-0.357525
N40	N	1.078875	-0.834081	-0.422526
N41	N	1.078846	-0.771624	-0.422512
C42	C	1.073178	-0.739735	-0.357499
C43	C	1.120747	-0.970624	-0.405074
C44	C	1.120768	-1.036367	-0.405094
C45	C	1.025839	-1.036472	-0.310039
C46	C	1.025814	-0.970729	-0.310026
C47	C	1.073272	-0.937809	-0.357542
C48	C	1.266863	-0.303492	-0.357465
C49	C	1.349409	-0.303510	-0.357452
C50	C	1.073187	-0.303420	-0.551203
C51	C	1.073199	-0.303408	-0.633749
C52	C	1.073273	-0.139258	-0.357551
C53	C	1.073322	-0.069290	-0.357574
C54	C	1.023601	-0.345387	-0.833194
C55	C	1.091356	-0.360785	-0.882566
C56	C	1.073236	-0.303360	-0.784879
C57	C	1.005518	-0.287944	-0.882589
C58	C	1.073265	-0.303315	-0.930864
C59	C	1.141026	-0.318788	-0.833164
C60	C	1.055142	-0.245921	-0.833183
C61	C	1.122944	-0.261297	-0.882532
C62	C	1.073218	-0.303388	-0.700781
C63	C	1.073291	-0.303287	-1.014961
C64	C	1.073171	-0.303430	-0.164545
C65	C	1.073303	-0.303265	-0.082000
H66	H	0.527360	-0.225664	-0.266107
O67	O	0.623901	-0.188066	-0.394454
C68	C	0.627330	-0.106299	-0.486714
C69	C	0.598186	-0.171915	-0.465716
H70	H	0.606564	-0.093226	-0.544336
H71	H	0.606569	-0.070344	-0.444805
H72	H	0.690484	-0.106770	-0.486561
H73	H	0.535034	-0.171505	-0.465876
H74	H	0.619003	-0.207842	-0.507629
O75	O	0.979538	-0.667680	-0.263904
C76	C	0.879284	-0.741942	-0.253865
C77	C	0.931489	-0.705696	-0.306108
H78	H	0.840412	-0.772677	-0.287966
H79	H	0.913378	-0.772760	-0.215070
H80	H	0.845377	-0.707181	-0.219877
H81	H	0.965407	-0.740411	-0.340144
H82	H	0.897352	-0.674868	-0.344854
O83	O	1.166755	-0.938667	-0.451344
C84	C	1.202726	-0.918488	-0.577691
C85	C	1.150568	-0.954706	-0.525374
H86	H	1.189668	-0.931452	-0.637555
H87	H	1.194547	-0.865857	-0.569579
H88	H	1.262621	-0.931375	-0.564660
H89	H	1.090653	-0.941871	-0.538373
H90	H	1.158812	-1.007328	-0.533496
O91	O	1.109739	-0.418713	-0.908367
C92	C	1.201408	-0.500902	-0.911478
C93	C	1.180683	-0.435302	-0.882193
H94	H	1.258774	-0.514329	-0.890342
H95	H	1.159076	-0.536738	-0.891196
H96	H	1.201734	-0.500183	-0.974629
H97	H	1.180366	-0.435959	-0.819044
H98	H	1.223020	-0.399493	-0.902532
H99	H	0.619981	-0.331705	-0.232443
H100	H	0.527142	-0.409418	-0.323800
O101	O	1.166928	-1.068315	-0.451159
C102	C	1.267247	-1.142449	-0.461216
C103	C	1.215006	-1.106317	-0.408965
H104	H	1.306142	-1.173173	-0.427122
H105	H	1.233182	-1.173269	-0.500024
H106	H	1.301127	-1.107615	-0.495189
H107	H	1.181115	-1.141107	-0.374943
H108	H	1.249114	-1.075488	-0.370206
O109	O	0.979433	-0.537981	-0.263886
C110	C	0.879174	-0.463790	-0.253815
C111	C	0.931435	-0.499897	-0.306069
H112	H	0.840366	-0.432979	-0.287898
H113	H	0.845210	-0.498585	-0.219867
H114	H	0.913300	-0.433041	-0.214983
H115	H	0.897367	-0.530646	-0.344945
H116	H	0.965402	-0.465068	-0.339965
H117	H	0.948238	-0.274925	-0.904300
O118	O	1.166689	-0.537901	-0.451223
C119	C	1.260886	-0.544739	-0.545465
C120	C	1.208682	-0.580922	-0.493161
H121	H	1.294862	-0.579506	-0.579374
H122	H	1.226790	-0.513979	-0.584322
H123	H	1.299693	-0.513937	-0.511374
H124	H	1.169864	-0.611758	-0.527192
H125	H	1.242824	-0.611643	-0.454301
H126	H	1.159252	-0.662245	-0.443721
O127	O	0.979802	-0.938781	-0.263817
C128	C	0.969849	-0.864642	-0.163501
C129	C	1.022045	-0.900773	-0.215798
H130	H	1.003983	-0.833914	-0.124654
H131	H	0.930993	-0.833827	-0.197526
H132	H	0.935926	-0.899477	-0.129573
H133	H	1.056018	-0.865983	-0.249737
H134	H	1.060853	-0.931597	-0.181730
H135	H	0.987204	-1.063280	-0.271351
H136	H	0.619869	-0.381124	-0.448952
O137	O	1.036973	-0.187994	-0.807243
C138	C	1.075117	-0.098592	-0.734872
C139	C	1.095806	-0.164181	-0.764216
H140	H	1.122665	-0.079325	-0.700067
H141	H	1.064213	-0.065705	-0.783515
H142	H	1.023126	-0.102209	-0.699267
H143	H	1.147807	-0.160624	-0.799810
H144	H	1.106662	-0.197043	-0.715540
O145	O	0.973657	-0.387924	-0.807378
C146	C	0.936321	-0.496520	-0.803291
C147	C	0.992941	-0.448415	-0.832563
H148	H	0.951883	-0.545436	-0.823654
H149	H	0.936399	-0.495881	-0.740138
H150	H	0.878727	-0.483845	-0.824454
H151	H	1.050562	-0.461057	-0.811454
H152	H	0.992798	-0.449064	-0.895715
H153	H	1.198323	-0.331863	-0.811545
H154	H	1.164979	-0.225737	-0.904059
H155	H	0.527103	-0.275226	-0.482625
