data_functionalizedCrystal
_audit_creation_method	'MofGen! by Chris Wilmer'
_symmetry_space_group_name_H-M	'P1'
_symmetry_Int_Tables_number	1
_symmetry_cell_setting	triclinic
loop_
_symmetry_equiv_pos_as_xyz
  x,y,z
_cell_length_a	10.723023
_cell_length_b	10.654550
_cell_length_c	9.730223
_cell_angle_alpha	90.004253
_cell_angle_beta	89.996855
_cell_angle_gamma	95.523761
loop_
_atom_site_label
_atom_site_type_symbol
_atom_site_fract_x
_atom_site_fract_y
_atom_site_fract_z
O1	O	1.657213	-0.176144	-0.114286
O2	O	1.294063	-0.193006	-0.114289
O3	O	1.483988	-0.001835	-0.114279
O4	O	1.467289	-0.367316	-0.114296
O5	O	1.483975	-0.001830	0.114301
O6	O	1.294051	-0.193001	0.114291
O7	O	1.657201	-0.176139	0.114294
Zn8	Zn	1.475624	-0.184569	0.150584
Zn9	Zn	1.475640	-0.184576	-0.150580
O10	O	1.467276	-0.367311	0.114284
C11	C	1.247557	-0.191777	0.000000
C12	C	1.109002	-0.188106	-0.000001
C13	C	1.047237	-0.186472	-0.118413
C14	C	0.904033	-0.182678	-0.118417
C15	C	1.482755	0.044966	0.000010
C16	C	1.479087	0.184408	0.000008
C17	C	1.703707	-0.177369	0.000002
C18	C	1.842262	-0.181039	-0.000006
C19	C	1.468509	-0.414111	-0.000009
C20	C	1.472177	-0.553554	-0.000015
N21	N	1.475622	-0.184564	0.356121
C22	C	1.590911	0.263911	0.000009
C23	C	1.587457	0.394931	-0.000008
C24	C	1.360344	0.366933	-0.000020
C25	C	1.363800	0.235916	-0.000013
N26	N	1.475652	-0.184572	-0.356116
C27	C	1.559749	-0.099949	0.428051
C28	C	1.559762	-0.099950	0.571934
C29	C	1.391515	-0.269190	0.571943
C30	C	1.391498	-0.269183	0.428063
H31	H	1.055863	-0.186703	0.101373
C32	C	1.171285	0.171701	-0.117519
C33	C	1.240870	0.148518	-0.000013
H34	H	1.095395	0.117750	-0.117515
H35	H	1.218517	0.155970	-0.197211
H36	H	1.152735	0.257105	-0.117507
H37	H	1.259428	0.063116	-0.000030
H38	H	1.193629	0.164240	0.079700
C39	C	1.726074	0.067324	0.557463
C40	C	1.652243	-0.006943	0.651000
H41	H	1.783173	0.124739	0.606278
H42	H	1.673740	0.112982	0.501364
H43	H	1.771395	0.014614	0.501327
H44	H	1.606914	0.045766	0.707130
H45	H	1.704583	-0.052605	0.707123
H46	H	1.628247	-0.031045	0.369479
H47	H	1.323025	-0.338087	0.630533
H48	H	1.100374	-0.187889	-0.219786
C49	C	0.704352	-0.177398	-0.228793
C50	C	0.832337	-0.180787	-0.255280
H51	H	0.660091	-0.176239	-0.313292
H52	H	0.691963	-0.103726	-0.177576
H53	H	0.674203	-0.249947	-0.177565
H54	H	0.862489	-0.108233	-0.306500
H55	H	0.844735	-0.254467	-0.306519
C56	C	1.779988	0.459101	-0.117494
C57	C	1.710381	0.482317	-0.000002
H58	H	1.855883	0.513045	-0.117485
H59	H	1.732776	0.474820	-0.197196
H60	H	1.798529	0.373695	-0.117468
H61	H	1.691832	0.567722	-0.000033
H62	H	1.757603	0.466608	0.079720
H63	H	0.895371	-0.182438	0.101376
C64	C	1.726553	0.132793	-0.117482
C65	C	1.717630	0.207287	0.000016
H66	H	1.804783	0.097833	-0.117474
H67	H	1.720493	0.183316	-0.197180
H68	H	1.660442	0.066695	-0.117462
H69	H	1.783736	0.273391	-0.000009
H70	H	1.723702	0.156761	0.079735
H71	H	1.266481	0.408887	-0.000035
H72	H	1.322985	-0.338087	0.369493
