data_functionalizedCrystal
_audit_creation_method	'MofGen! by Chris Wilmer'
_symmetry_space_group_name_H-M	'P1'
_symmetry_Int_Tables_number	1
_symmetry_cell_setting	triclinic
loop_
_symmetry_equiv_pos_as_xyz
  x,y,z
_cell_length_a	30.700810
_cell_length_b	30.711328
_cell_length_c	30.700791
_cell_angle_alpha	59.998524
_cell_angle_beta	89.999202
_cell_angle_gamma	60.000280
loop_
_atom_site_label
_atom_site_type_symbol
_atom_site_fract_x
_atom_site_fract_y
_atom_site_fract_z
O1	O	-0.298812	0.311650	-0.683013
O2	O	-0.235470	0.222487	-0.530478
O3	O	-0.235471	0.311649	-0.619669
O4	O	-0.298812	0.222487	-0.593822
O5	O	-0.307917	0.384069	-0.619669
O6	O	-0.307916	0.294906	-0.530478
O7	O	-0.371258	0.384069	-0.683013
Zn8	Zn	-0.351089	0.350986	-0.606746
Zn9	Zn	-0.255639	0.255570	-0.606746
O10	O	-0.371258	0.294907	-0.593822
C11	C	-0.234803	0.469467	-0.625552
C12	C	-0.261682	0.523206	-0.621853
C13	C	-0.182382	0.443390	-0.625920
C14	C	-0.234803	0.390618	-0.625552
C15	C	-0.261682	0.360051	-0.621853
C16	C	-0.182382	0.364661	-0.625920
C17	C	-0.155927	0.390619	-0.625552
C18	C	-0.098471	0.360052	-0.621853
C19	C	-0.261138	0.443390	-0.625920
C20	C	-0.496429	0.535509	-1.110658
C21	C	-0.548850	0.588281	-1.136994
C22	C	-0.496430	0.535507	-1.031781
C23	C	-0.548851	0.588279	-1.058236
C24	C	-0.575305	0.614357	-1.110658
C25	C	-0.470094	0.509551	-1.058236
C26	C	-0.368663	0.393516	-1.158823
C27	C	-0.343661	0.364488	-1.183650
C28	C	-0.370612	0.389406	-1.235597
C29	C	-0.343509	0.357928	-1.262515
C30	C	-0.422566	0.443357	-1.262718
C31	C	-0.447561	0.472385	-1.237894
C32	C	-0.420607	0.447462	-1.185944
C33	C	-0.765514	0.790227	-1.238425
C34	C	-0.819379	0.840037	-1.263427
C35	C	-0.846403	0.865022	-1.236476
C36	C	-0.904808	0.919023	-1.263577
C37	C	-0.819555	0.840197	-1.184522
C38	C	-0.765690	0.790395	-1.159525
C39	C	-0.738673	0.765410	-1.186482
C40	C	-0.368667	0.393509	-0.841569
C41	C	-0.343669	0.364474	-0.787701
C42	C	-0.370622	0.389390	-0.760679
C43	C	-0.343520	0.357910	-0.702271
C44	C	-0.422573	0.443336	-0.787526
C45	C	-0.447569	0.472366	-0.841392
C46	C	-0.420610	0.447450	-0.868411
C47	C	-0.447717	0.478940	-1.159028
C48	C	-0.469324	0.504031	-1.137574
C49	C	-0.469326	0.504027	-0.973375
C50	C	-0.447720	0.478935	-0.926819
C51	C	-0.633710	0.668358	-1.137763
C52	C	-0.680265	0.711405	-1.159370
C53	C	-0.574970	0.071057	-0.567514
C54	C	-0.548516	0.018285	-0.567146
C55	C	-0.496094	0.071056	-0.567514
C56	C	-0.469759	0.018285	-0.567146
C57	C	-0.496094	-0.007792	-0.567514
C58	C	-0.548515	0.097014	-0.567146
C59	C	-0.765178	0.213052	-0.581795
C60	C	-0.819043	0.242082	-0.585832
C61	C	-0.846065	0.217165	-0.587859
C62	C	-0.904472	0.248644	-0.592247
C63	C	-0.819217	0.163215	-0.585844
C64	C	-0.765354	0.134185	-0.581799
C65	C	-0.738334	0.159107	-0.579775
C66	C	-0.447931	-0.183660	-0.581795
C67	C	-0.423105	-0.233471	-0.585832
C68	C	-0.371161	-0.258457	-0.587861
C69	C	-0.344241	-0.312458	-0.592247
C70	C	-0.344040	-0.233632	-0.585846
C71	C	-0.368861	-0.183831	-0.581799
C72	C	-0.420813	-0.158845	-0.579777
C73	C	-0.447928	0.213051	-0.581795
C74	C	-0.423103	0.242085	-0.585839
C75	C	-0.371157	0.217168	-0.587866
C76	C	-0.344239	0.248647	-0.592254
C77	C	-0.344039	0.163222	-0.585853
C78	C	-0.368866	0.134193	-0.581811
C79	C	-0.420810	0.159110	-0.579777
C80	C	-0.679930	0.127628	-0.575394
C81	C	-0.633375	0.102536	-0.571900
C82	C	-0.469178	0.102535	-0.571900
C83	C	-0.447723	0.127627	-0.575394
C84	C	-0.469179	-0.061793	-0.571900
C85	C	-0.447725	-0.104839	-0.575394
O86	O	0.076268	0.222489	-0.593822
O87	O	-0.076265	0.311651	-0.619669
O88	O	0.012925	0.222488	-0.530478
O89	O	-0.012922	0.311652	-0.683014
O90	O	0.012926	0.294908	-0.530478
O91	O	-0.076263	0.384070	-0.619669
O92	O	0.076269	0.294909	-0.593822
Zn93	Zn	0.000004	0.350988	-0.606746
Zn94	Zn	0.000001	0.255572	-0.606746
O95	O	-0.012920	0.384071	-0.683013
O96	O	-0.298818	0.669866	-0.593822
O97	O	-0.235472	0.543224	-0.619669
O98	O	-0.235473	0.543221	-0.530478
O99	O	-0.298816	0.669868	-0.683013
O100	O	-0.307918	0.543219	-0.530478
O101	O	-0.307916	0.543222	-0.619669
O102	O	-0.371262	0.669863	-0.593822
Zn103	Zn	-0.351091	0.606542	-0.606746
Zn104	Zn	-0.255643	0.606545	-0.606746
O105	O	-0.371260	0.669866	-0.683013
O106	O	-1.076604	1.063329	-1.299174
O107	O	-0.924068	0.936700	-1.235836
O108	O	-1.013250	0.936685	-1.235830
O109	O	-0.987422	1.063345	-1.299180
O110	O	-1.013249	0.936687	-1.308277
O111	O	-0.924067	0.936703	-1.308283
O112	O	-1.076603	1.063331	-1.371621
Zn113	Zn	-1.000335	1.000017	-1.351454
Zn114	Zn	-1.000336	1.000014	-1.256003
O115	O	-0.987420	1.063347	-1.371627
O116	O	-0.307912	0.294913	-1.371273
O117	O	-0.371251	0.384081	-1.307938
O118	O	-0.371247	0.294912	-1.307922
O119	O	-0.307916	0.384082	-1.371289
O120	O	-0.298798	0.222498	-1.235480
O121	O	-0.298802	0.311667	-1.235495
O122	O	-0.235462	0.222499	-1.298831
Zn123	Zn	-0.255629	0.255585	-1.255662
Zn124	Zn	-0.351084	0.350994	-1.351107
O125	O	-0.235466	0.311668	-1.298847
C126	C	-0.155921	0.137097	-0.371941
C127	C	-0.098464	0.083361	-0.345064
C128	C	-0.182375	0.163176	-0.345607
C129	C	-0.234800	0.215942	-0.450816
C130	C	-0.261680	0.246506	-0.508271
C131	C	-0.261134	0.241900	-0.424361
C132	C	-0.234797	0.215946	-0.371941
C133	C	-0.261675	0.246514	-0.345064
C134	C	-0.182377	0.163172	-0.424361
C135	C	0.018809	0.215933	-0.371935
C136	C	0.015111	0.246498	-0.345056
C137	C	0.019176	0.163161	-0.345601
C138	C	0.018808	0.215937	-0.450813
C139	C	0.015109	0.246506	-0.508270
C140	C	0.019175	0.163165	-0.424359
C141	C	0.018806	0.137086	-0.371937
C142	C	0.015106	0.083347	-0.345059
C143	C	0.019177	0.241892	-0.424357
C144	C	-0.234808	0.390611	-0.371937
C145	C	-0.261686	0.360043	-0.345059
C146	C	-0.182387	0.364653	-0.345601
C147	C	-0.234806	0.469462	-0.450813
C148	C	-0.261684	0.523202	-0.508270
C149	C	-0.182386	0.443384	-0.424357
C150	C	-0.155932	0.390611	-0.371935
C151	C	-0.098476	0.360044	-0.345055
C152	C	-0.261142	0.443384	-0.424359
C153	C	-0.039226	0.614013	-1.110659
C154	C	-0.039596	0.587936	-1.136994
C155	C	-0.039227	0.535164	-1.031781
C156	C	-0.039597	0.509206	-1.058235
C157	C	-0.039228	0.535164	-1.110657
C158	C	-0.039595	0.587936	-1.058237
C159	C	-0.024943	0.789882	-1.158829
C160	C	-0.020904	0.839693	-1.183656
C161	C	-0.018877	0.864679	-1.235604
C162	C	-0.014488	0.918680	-1.262523
C163	C	-0.020893	0.839854	-1.262724
C164	C	-0.024939	0.790053	-1.237898
C165	C	-0.026963	0.765067	-1.185948
C166	C	-0.024950	0.472741	-1.238421
C167	C	-0.020914	0.443887	-1.263421
C168	C	-0.018886	0.389932	-1.236470
C169	C	-0.014501	0.358637	-1.263569
C170	C	-0.020901	0.364835	-1.184516
C171	C	-0.024947	0.393694	-1.159519
C172	C	-0.026968	0.447649	-1.186478
C173	C	-0.024947	0.472739	-0.841570
C174	C	-0.020903	0.443880	-0.787702
C175	C	-0.018877	0.389925	-0.760679
C176	C	-0.014489	0.358630	-0.702271
C177	C	-0.020891	0.364829	-0.787525
C178	C	-0.024933	0.393688	-0.841391
C179	C	-0.026965	0.447647	-0.868411
C180	C	-0.031345	0.711061	-1.159032
C181	C	-0.034840	0.668014	-1.137576
C182	C	-0.034842	0.503873	-0.973375
C183	C	-0.031348	0.478933	-0.926820
C184	C	-0.034844	0.503874	-1.137761
C185	C	-0.031350	0.478934	-1.159367
O186	O	-0.012933	0.311642	-0.235481
O187	O	0.012927	0.222478	-0.298820
O188	O	-0.076268	0.311637	-0.298826
O189	O	0.076262	0.222483	-0.235475
O190	O	-0.076267	0.384059	-0.371272
O191	O	0.012928	0.294900	-0.371266
O192	O	-0.012932	0.384064	-0.307927
Zn193	Zn	-0.000002	0.350981	-0.351099
Zn194	Zn	-0.000003	0.255561	-0.255648
O195	O	0.076263	0.294905	-0.307920
C196	C	-0.574987	1.071094	-1.110648
C197	C	-0.548540	1.097066	-1.136979
C198	C	-0.496112	0.992249	-1.031771
C199	C	-0.469785	1.018342	-1.058221
C200	C	-0.496123	1.071119	-1.110641
C201	C	-0.548528	1.018317	-1.058228
C202	C	-0.765177	1.133470	-1.158826
C203	C	-0.819038	1.162314	-1.183655
C204	C	-0.846064	1.216274	-1.235600
C205	C	-0.904467	1.247558	-1.262521
C206	C	-0.819223	1.241386	-1.262716
C207	C	-0.765363	1.212538	-1.237890
C208	C	-0.738340	1.158578	-1.185942
C209	C	-0.447989	1.213164	-1.238389
C210	C	-0.423171	1.242208	-1.263386
C211	C	-0.371232	1.217305	-1.236433
C212	C	-0.344321	1.248795	-1.263527
C213	C	-0.344108	1.163349	-1.184480
C214	C	-0.368921	1.134301	-1.159488
C215	C	-0.420867	1.159217	-1.186449
C216	C	-0.447932	0.816347	-0.841568
C217	C	-0.423105	0.766535	-0.787701
C218	C	-0.371163	0.741559	-0.760677
C219	C	-0.344243	0.687552	-0.702270
C220	C	-0.344053	0.766399	-0.787519
C221	C	-0.368882	0.816211	-0.841383
C222	C	-0.420821	0.841178	-0.868406
C223	C	-0.679939	1.127303	-1.159024
C224	C	-0.633388	1.102372	-1.137567
C225	C	-0.469194	0.938242	-0.973366
C226	C	-0.447737	0.895190	-0.926812
C227	C	-0.469217	1.102613	-1.137740
C228	C	-0.447770	1.127718	-1.159343
H229	H	-0.304204	0.465205	-0.626497
Cl230	Cl	-0.149600	0.299098	-0.279098
H231	H	-0.161134	0.141348	-0.302535
H232	H	-0.570087	0.610104	-1.180066
Cl233	Cl	-0.852791	0.309902	-0.588370
H234	H	-0.743519	0.769890	-1.260378
Cl235	Cl	-0.027514	0.540580	-1.272318
Cl236	Cl	-0.149588	0.477071	-0.457151
Cl237	Cl	-0.027475	0.758851	-1.271992
H238	H	0.019769	0.141337	-0.302529
H239	H	-0.026582	0.373256	-0.863248
Cl240	Cl	-0.731942	0.759192	-1.094217
Cl241	Cl	-0.027498	0.540571	-0.875537
H242	H	-0.743513	1.232985	-1.259971
Cl243	Cl	0.020081	0.129477	-0.457153
H244	H	-0.304215	0.465212	-0.445595
Cl245	Cl	-0.018345	0.296998	-0.753555
H246	H	-0.161137	0.141343	-0.445597
H247	H	-0.490220	0.233339	-0.580131
H248	H	0.019772	0.284356	-0.445594
Cl249	Cl	-0.513228	0.847738	-0.875537
H250	H	-0.301370	0.320548	-0.765844
H251	H	-0.040196	0.466746	-1.036995
H252	H	-0.040191	0.609765	-1.180067
Cl253	Cl	-0.149593	0.477091	-0.626846
Cl254	Cl	-0.403597	0.443988	-1.025442
H255	H	-0.040185	0.609761	-1.037000
H256	H	-0.426730	0.996551	-1.036963
Cl257	Cl	-0.018366	0.870893	-1.149561
H258	H	-0.019260	0.464316	-0.765846
H259	H	-0.026592	0.769544	-1.116530
Cl260	Cl	-0.513235	-0.152256	-0.579246
H261	H	-0.301742	-0.253982	-0.587490
Cl262	Cl	-0.334772	0.066376	-0.579277
Cl263	Cl	-0.852777	1.130747	-1.149564
H264	H	-0.304206	0.284363	-0.445602
Cl265	Cl	-0.581645	0.621973	-1.025445
H266	H	-0.019246	0.860204	-1.305020
Cl267	Cl	-0.018376	0.475434	-1.328728
Cl268	Cl	-0.278733	0.131894	-0.588399
H269	H	-0.346714	0.373214	-0.863564
Cl270	Cl	-0.334774	0.362184	-1.093518
Cl271	Cl	-0.403259	-0.015416	-0.566224
H272	H	-0.019257	0.320907	-1.162573
H273	H	-0.026591	0.373259	-1.117220
H274	H	-0.569782	1.139531	-1.180052
Cl275	Cl	-0.581313	0.984610	-1.025437
H276	H	-0.569755	0.139477	-0.566551
Cl277	Cl	-0.457191	0.735315	-0.753959
H278	H	-0.743183	0.233349	-0.580145
Cl279	Cl	-0.149575	0.299072	-0.626794
Cl280	Cl	-0.278355	0.296667	-1.149553
Cl281	Cl	-0.853185	0.131890	-0.588384
H282	H	-0.490283	1.233452	-1.260345
H283	H	-0.743179	1.089533	-1.116529
Cl284	Cl	-0.853196	1.309216	-1.328017
Cl285	Cl	-0.457272	1.310034	-1.328690
Cl286	Cl	-0.278809	1.132033	-1.150597
Cl287	Cl	-0.334822	1.066475	-1.094183
Cl288	Cl	-0.334797	0.847433	-0.875125
H289	H	-0.301773	0.746091	-0.765501
H290	H	-0.743497	0.090258	-0.580155
H291	H	-0.489860	0.516311	-1.259979
Cl292	Cl	-0.853126	0.871239	-1.328734
Cl293	Cl	-0.853523	0.871609	-1.150641
Cl294	Cl	-0.512877	0.540184	-0.875139
Cl295	Cl	-0.456443	0.474681	-1.328022
H296	H	-0.444520	0.463622	-0.765521
Cl297	Cl	-0.457197	0.309903	-0.588374
H298	H	-0.569754	-0.003544	-0.566543
Cl299	Cl	-0.457201	-0.264669	-0.588370
H300	H	-0.346776	-0.163625	-0.580155
