data_functionalizedCrystal
_audit_creation_method	'MofGen! by Chris Wilmer'
_symmetry_space_group_name_H-M	'P1'
_symmetry_Int_Tables_number	1
_symmetry_cell_setting	triclinic
loop_
_symmetry_equiv_pos_as_xyz
  x,y,z
_cell_length_a	12.645331
_cell_length_b	18.050589
_cell_length_c	12.645324
_cell_angle_alpha	89.967661
_cell_angle_beta	89.977038
_cell_angle_gamma	90.027200
loop_
_atom_site_label
_atom_site_type_symbol
_atom_site_fract_x
_atom_site_fract_y
_atom_site_fract_z
Zn1	Zn	1.620657	-0.295623	-0.599442
Zn2	Zn	1.953990	0.037710	-0.266109
Zn3	Zn	2.287323	0.371043	0.067225
Zn4	Zn	1.620505	-0.419837	-0.422180
Zn5	Zn	1.953838	-0.086504	-0.088847
Zn6	Zn	2.287172	0.246829	0.244486
Zn7	Zn	1.443370	-0.295663	-0.422186
Zn8	Zn	1.776704	0.037670	-0.088853
Zn9	Zn	2.110037	0.371003	0.244480
Zn10	Zn	1.443320	-0.419774	-0.599396
Zn11	Zn	1.776654	-0.086440	-0.266062
Zn12	Zn	2.109987	0.246893	0.067271
O13	O	1.531963	-0.357724	-0.510801
O14	O	1.865296	-0.024391	-0.177468
O15	O	2.198630	0.308942	0.155866
O16	O	1.768984	-0.312110	-0.575945
O17	O	2.102317	0.021223	-0.242611
O18	O	2.435650	0.354556	0.090722
O19	O	1.596965	-0.403409	-0.273834
O20	O	1.930298	-0.070075	0.059500
O21	O	2.263632	0.263258	0.392833
O22	O	1.466972	-0.191733	-0.445722
O23	O	1.800306	0.141600	-0.112388
O24	O	2.133639	0.474933	0.220945
O25	O	1.768872	-0.403370	-0.445711
O26	O	2.102206	-0.070036	-0.112378
O27	O	2.435539	0.263297	0.220955
O28	O	1.597224	-0.191704	-0.575951
O29	O	1.930557	0.141629	-0.242617
O30	O	2.263890	0.474963	0.090716
O31	O	1.466825	-0.312179	-0.273838
O32	O	1.800158	0.021155	0.059495
O33	O	2.133492	0.354488	0.392828
O34	O	1.295017	-0.312117	-0.445677
O35	O	1.628350	0.021216	-0.112343
O36	O	1.961683	0.354550	0.220990
O37	O	1.466887	-0.403262	-0.747749
O38	O	1.800221	-0.069928	-0.414416
O39	O	2.133554	0.263405	-0.081083
O40	O	1.294980	-0.403300	-0.575872
O41	O	1.628313	-0.069967	-0.242538
O42	O	1.961647	0.263366	0.090795
O43	O	1.597175	-0.312049	-0.747783
O44	O	1.930509	0.021285	-0.414450
O45	O	2.263842	0.354618	-0.081117
O46	O	1.596917	-0.523753	-0.445666
O47	O	1.930250	-0.190420	-0.112333
O48	O	2.263583	0.142913	0.221000
O49	O	1.466740	-0.523707	-0.575866
O50	O	1.800073	-0.190373	-0.242532
O51	O	2.133407	0.142960	0.090801
C52	C	1.256533	-0.357707	-0.510770
C53	C	1.589867	-0.024373	-0.177437
C54	C	1.923200	0.308960	0.155896
C55	C	1.138703	-0.357717	-0.510783
C56	C	1.472037	-0.024384	-0.177449
C57	C	1.805370	0.308950	0.155884
C58	C	0.971127	-0.300090	-0.429329
C59	C	1.304460	0.033244	-0.095995
C60	C	1.637794	0.366577	0.237338
C61	C	1.093687	-0.300239	-0.428970
C62	C	1.427020	0.033095	-0.095637
C63	C	1.760353	0.366428	0.237697
C64	C	1.094162	-0.435953	-0.480267
C65	C	1.427496	-0.102619	-0.146933
C66	C	1.760829	0.230714	0.186400
C67	C	0.971564	-0.435638	-0.479711
C68	C	1.304897	-0.102305	-0.146377
C69	C	1.638231	0.231029	0.186956
C70	C	0.971560	-0.337853	-0.623067
C71	C	1.304893	-0.004520	-0.289733
C72	C	1.638226	0.328813	0.043600
C73	C	1.094166	-0.336106	-0.622443
C74	C	1.427499	-0.002772	-0.289110
C75	C	1.760833	0.330561	0.044224
C76	C	1.531835	-0.550677	-0.510784
C77	C	1.865168	-0.217343	-0.177450
C78	C	2.198502	0.115990	0.155883
C79	C	1.531877	-0.633222	-0.510811
C80	C	1.865211	-0.299889	-0.177478
C81	C	2.198544	0.033444	0.155855
C82	C	1.461157	-0.832675	-0.581589
C83	C	1.794490	-0.499341	-0.248256
C84	C	2.127824	-0.166008	0.085078
C85	C	1.435310	-0.882125	-0.484854
C86	C	1.768643	-0.548792	-0.151521
C87	C	2.101976	-0.215458	0.181812
C88	C	1.531982	-0.784353	-0.510825
C89	C	1.865315	-0.451019	-0.177492
C90	C	2.198648	-0.117686	0.155841
C91	C	1.557881	-0.881984	-0.607571
C92	C	1.891214	-0.548651	-0.274238
C93	C	2.224547	-0.215317	0.059096
C94	C	1.532080	-0.930338	-0.510847
C95	C	1.865413	-0.597004	-0.177514
C96	C	2.198747	-0.263671	0.155820
C97	C	1.506084	-0.832716	-0.414039
C98	C	1.839417	-0.499382	-0.080706
C99	C	2.172750	-0.166049	0.252627
C100	C	1.628699	-0.832570	-0.536821
C101	C	1.962033	-0.499237	-0.203488
C102	C	2.295366	-0.165904	0.129845
C103	C	1.602889	-0.881999	-0.440020
C104	C	1.936222	-0.548665	-0.106687
C105	C	2.269556	-0.215332	0.226647
C106	C	1.531922	-0.700254	-0.510814
C107	C	1.865255	-0.366921	-0.177481
C108	C	2.198589	-0.033588	0.155853
C109	C	1.532140	-1.014434	-0.510847
C110	C	1.865473	-0.681101	-0.177514
C111	C	2.198806	-0.347768	0.155819
C112	C	1.808468	-0.357743	-0.510832
C113	C	2.141802	-0.024409	-0.177499
C114	C	2.475135	0.308924	0.155834
C115	C	1.926298	-0.357750	-0.510846
C116	C	2.259632	-0.024417	-0.177513
C117	C	2.592965	0.308916	0.155821
C118	C	1.532043	-0.357644	-0.787307
C119	C	1.865376	-0.024310	-0.453973
C120	C	2.198709	0.309023	-0.120640
C121	C	1.532076	-0.357609	-0.905137
C122	C	1.865410	-0.024276	-0.571803
C123	C	2.198743	0.309057	-0.238470
C124	C	1.532120	-0.164019	-0.510842
C125	C	1.865454	0.169315	-0.177509
C126	C	2.198787	0.502648	0.155825
C127	C	1.532188	-0.081473	-0.510859
C128	C	1.865521	0.251860	-0.177526
C129	C	2.198854	0.585194	0.155807
C130	C	1.614360	-0.300393	-1.072722
C131	C	1.947693	0.032940	-0.739389
C132	C	2.281026	0.366273	-0.406056
C133	C	1.614096	-0.300187	-0.950162
C134	C	1.947430	0.033146	-0.616829
C135	C	2.280763	0.366480	-0.283496
C136	C	1.420400	-0.336341	-0.949615
C137	C	1.753733	-0.003007	-0.616282
C138	C	2.087067	0.330326	-0.282948
C139	C	1.420900	-0.335906	-1.072214
C140	C	1.754233	-0.002573	-0.738880
C141	C	2.087566	0.330760	-0.405547
C142	C	1.560563	-0.436177	-1.072333
C143	C	1.893897	-0.102844	-0.739000
C144	C	2.227230	0.230489	-0.405667
C145	C	1.563007	-0.435782	-0.949728
C146	C	1.896340	-0.102449	-0.616395
C147	C	2.229674	0.230885	-0.283061
C148	C	1.531945	-0.357751	-0.235371
C149	C	1.865278	-0.024418	0.097962
C150	C	2.198612	0.308915	0.431295
C151	C	1.532117	-0.357576	-0.117542
C152	C	1.865450	-0.024243	0.215791
C153	C	2.198783	0.309090	0.549125
H154	H	0.940678	-0.281799	-0.650819
H155	H	1.274011	0.051534	-0.317486
H156	H	1.607345	0.384867	0.015847
H157	H	1.595263	-0.241961	-0.920850
H158	H	1.928596	0.091372	-0.587517
H159	H	2.261930	0.424706	-0.254183
H160	H	1.401175	-0.811017	-0.641347
H161	H	1.734508	-0.477683	-0.308014
H162	H	2.067841	-0.144350	0.025320
Br163	Br	1.379466	-0.241641	-0.898468
Br164	Br	1.712799	0.091692	-0.565135
Br165	Br	2.046133	0.425025	-0.231802
Br166	Br	1.470414	-0.510619	-0.898650
Br167	Br	1.803748	-0.177286	-0.565316
Br168	Br	2.137081	0.156048	-0.231983
Br169	Br	1.143888	-0.203544	-0.460849
Br170	Br	1.477222	0.129790	-0.127516
Br171	Br	1.810555	0.463123	0.205818
H172	H	1.123285	-0.278533	-0.645454
H173	H	1.456619	0.054800	-0.312121
H174	H	1.789952	0.388134	0.021213
H175	H	1.396784	-0.278450	-1.100824
H176	H	1.730117	0.054884	-0.767490
H177	H	2.063450	0.388217	-0.434157
Br178	Br	1.299056	-0.918401	-0.448206
Br179	Br	1.632390	-0.585067	-0.114873
Br180	Br	1.965723	-0.251734	0.218461
H181	H	1.484123	-0.811163	-0.332209
H182	H	1.817456	-0.477830	0.001124
H183	H	2.150789	-0.144497	0.334458
Br184	Br	1.145239	-0.400999	-0.729094
Br185	Br	1.478573	-0.067666	-0.395761
Br186	Br	1.811906	0.265668	-0.062427
H187	H	1.122961	-0.313390	-0.345809
H188	H	1.456294	0.019943	-0.012476
H189	H	1.789628	0.353276	0.320857
Br190	Br	0.923805	-0.463758	-0.342974
Br191	Br	1.257138	-0.130425	-0.009641
Br192	Br	1.590472	0.202908	0.323693
Br193	Br	1.693972	-0.468416	-1.123885
Br194	Br	2.027305	-0.135082	-0.790552
Br195	Br	2.360639	0.198251	-0.457218
Br196	Br	1.702793	-0.917869	-0.340186
Br197	Br	2.036126	-0.584535	-0.006852
Br198	Br	2.369460	-0.251202	0.326481
H199	H	1.710426	-0.810790	-0.558835
H200	H	2.043759	-0.477456	-0.225502
H201	H	2.377093	-0.144123	0.107832
Br202	Br	1.142740	-0.509475	-0.576128
Br203	Br	1.476074	-0.176142	-0.242794
Br204	Br	1.809407	0.157192	0.090539
H205	H	0.941678	-0.241901	-0.448251
H206	H	1.275012	0.091433	-0.114917
H207	H	1.608345	0.424766	0.218416
Br208	Br	0.922129	-0.509670	-0.574346
Br209	Br	1.255462	-0.176336	-0.241013
Br210	Br	1.588795	0.156997	0.092320
Br211	Br	1.145243	-0.464561	-0.344996
Br212	Br	1.478576	-0.131228	-0.011663
Br213	Br	1.811909	0.202105	0.321670
Br214	Br	1.594324	-0.918062	-0.743919
Br215	Br	1.927657	-0.584728	-0.410586
Br216	Br	2.260991	-0.251395	-0.077253
H217	H	1.696907	-0.313507	-0.920091
H218	H	2.030240	0.019827	-0.586758
H219	H	2.363574	0.353160	-0.253425
Br220	Br	1.583382	-0.203881	-1.124098
Br221	Br	1.916716	0.129452	-0.790764
Br222	Br	2.250049	0.462786	-0.457431
Br223	Br	0.919682	-0.321748	-0.291540
Br224	Br	1.253015	0.011585	0.041793
Br225	Br	1.586349	0.344919	0.375126
H226	H	1.697445	-0.313546	-1.102215
H227	H	2.030778	0.019788	-0.768882
H228	H	2.364112	0.353121	-0.435548
H229	H	1.357537	-0.375744	-1.101860
H230	H	1.690871	-0.042410	-0.768527
H231	H	2.024204	0.290923	-0.435194
H232	H	1.645191	-0.451820	-0.920657
H233	H	1.978524	-0.118486	-0.587323
H234	H	2.311858	0.214847	-0.253990
H235	H	1.357455	-0.376710	-0.920448
H236	H	1.690789	-0.043377	-0.587114
H237	H	2.024122	0.289957	-0.253781
Br238	Br	0.923244	-0.407851	-0.724301
Br239	Br	1.256578	-0.074517	-0.390967
Br240	Br	1.589911	0.258816	-0.057634
Br241	Br	1.460719	-0.507190	-1.120633
Br242	Br	1.794052	-0.173857	-0.787300
Br243	Br	2.127385	0.159476	-0.453966
