data_functionalizedCrystal
_audit_creation_method	'MofGen! by Chris Wilmer'
_symmetry_space_group_name_H-M	'P1'
_symmetry_Int_Tables_number	1
_symmetry_cell_setting	triclinic
loop_
_symmetry_equiv_pos_as_xyz
  x,y,z
_cell_length_a	11.792241
_cell_length_b	10.654550
_cell_length_c	9.130313
_cell_angle_alpha	90.002760
_cell_angle_beta	90.000005
_cell_angle_gamma	84.339159
loop_
_atom_site_label
_atom_site_type_symbol
_atom_site_fract_x
_atom_site_fract_y
_atom_site_fract_z
O1	O	0.159412	1.667389	0.121791
O2	O	0.174600	1.301867	0.121796
O3	O	0.001856	1.493498	0.121783
O4	O	0.332156	1.475758	0.121804
O5	O	0.001866	1.493485	-0.121816
O6	O	0.174611	1.301854	-0.121803
O7	O	0.159422	1.667375	-0.121808
Cu8	Cu	0.167017	1.484613	-0.144048
Cu9	Cu	0.167005	1.484629	0.144036
O10	O	0.332166	1.475744	-0.121795
C11	C	-0.040432	1.492377	-0.000016
C12	C	-0.166454	1.489042	-0.000015
C13	C	0.173490	1.255066	-0.000003
C14	C	0.170154	1.115632	-0.000001
C15	C	0.160532	1.714177	-0.000006
C16	C	0.163869	1.853611	0.000002
C17	C	-0.397180	1.482908	0.000010
C18	C	-0.268787	1.486316	-0.000003
C19	C	0.374455	1.476865	0.000007
C20	C	0.500476	1.480201	0.000015
C21	C	0.062160	1.933384	0.000001
C22	C	0.065302	2.064396	-0.000006
C23	C	0.271871	2.035848	-0.000005
C24	C	0.268727	1.904839	-0.000009
C25	C	-0.057101	1.949867	0.000007
C26	C	-0.053959	2.080879	0.000000
N27	N	0.167025	1.484612	-0.346671
C28	C	0.236501	1.561244	-0.423333
C29	C	0.236480	1.561263	-0.576670
C30	C	0.097505	1.408005	-0.576668
C31	C	0.097521	1.407994	-0.423334
C32	C	0.316740	1.649723	-0.423336
C33	C	0.316719	1.649741	-0.576672
N34	N	0.166988	1.484641	0.346658
H35	H	0.357243	2.077575	-0.000015
O36	O	0.429944	1.597030	-0.360353
H37	H	0.425287	1.599181	-0.238949
O38	O	0.279766	1.781014	-0.368168
H39	H	0.348840	1.814918	-0.300652
H40	H	0.281042	1.744433	-0.624209
O41	O	0.435265	1.608428	-0.631845
H42	H	0.493316	1.588174	-0.537251
O43	O	0.022578	1.325357	-0.340635
H44	H	0.046422	1.225147	-0.370066
H45	H	-0.103744	1.920640	-0.101936
O46	O	0.378426	1.818791	-0.000028
H47	H	0.451864	1.876427	-0.000024
H48	H	-0.095082	1.914348	0.105185
H49	H	-0.089993	2.126622	-0.105183
O50	O	-0.113468	2.136381	0.135035
H51	H	-0.145084	2.059652	0.201158
O52	O	0.022550	1.325359	-0.659353
H53	H	0.034214	1.338234	-0.778856
