data_functionalizedCrystal
_audit_creation_method	'MofGen! by Chris Wilmer'
_symmetry_space_group_name_H-M	'P1'
_symmetry_Int_Tables_number	1
_symmetry_cell_setting	triclinic
loop_
_symmetry_equiv_pos_as_xyz
  x,y,z
_cell_length_a	16.992694
_cell_length_b	23.532407
_cell_length_c	16.053802
_cell_angle_alpha	92.544672
_cell_angle_beta	87.249047
_cell_angle_gamma	86.758451
loop_
_atom_site_label
_atom_site_type_symbol
_atom_site_fract_x
_atom_site_fract_y
_atom_site_fract_z
O1	O	1.042772	0.118472	-0.069339
O2	O	0.814498	0.117146	-0.069363
O3	O	0.935518	0.035219	-0.069335
O4	O	0.921752	0.200399	-0.069367
O5	O	0.928857	0.039709	0.069523
O6	O	0.807837	0.121636	0.069494
O7	O	1.036111	0.122961	0.069519
Zn8	Zn	0.920917	0.123011	0.091553
Zn9	Zn	0.929693	0.117096	-0.091397
O10	O	0.915091	0.204888	0.069490
C11	C	0.781969	0.117687	0.000063
C12	C	0.694964	0.112604	0.000054
C13	C	0.644342	0.161650	0.000045
C14	C	0.562592	0.156871	0.000058
C15	C	0.531466	0.103045	0.000073
C16	C	0.582095	0.053995	0.000084
C17	C	0.663843	0.058775	0.000078
C18	C	0.288022	0.083234	0.000099
C19	C	0.206267	0.078457	0.000103
C20	C	0.186770	0.181334	0.000078
C21	C	0.268521	0.186109	0.000066
C22	C	0.319142	0.137059	0.000082
N23	N	0.447905	0.098158	0.000083
N24	N	0.402702	0.141946	0.000078
C25	C	0.931837	0.016231	0.000096
C26	C	0.930783	-0.047038	0.000102
C27	C	0.995791	-0.442917	0.000063
C28	C	0.994812	-0.502366	0.000057
O29	O	1.055075	-0.536121	0.000033
N30	N	0.922865	-0.528562	0.000050
C31	C	0.851893	-0.495307	0.000041
O32	O	0.790607	-0.523048	0.000033
C33	C	0.852873	-0.435859	0.000041
C34	C	0.924824	-0.409666	0.000057
C35	C	1.067736	-0.416723	0.000078
C36	C	1.068715	-0.357278	0.000086
C37	C	0.997748	-0.324027	0.000079
C38	C	0.925803	-0.350221	0.000065
C39	C	0.781902	-0.402605	0.000026
C40	C	0.782889	-0.343154	0.000026
C41	C	0.854840	-0.316960	0.000042
C42	C	0.855814	-0.257525	0.000066
N43	N	0.927761	-0.231328	0.000073
C44	C	0.998728	-0.264579	0.000080
C45	C	0.849841	-0.620151	0.000038
C46	C	0.848860	-0.679598	0.000044
C47	C	0.991779	-0.686653	0.000058
C48	C	0.992759	-0.627205	0.000059
C49	C	0.921788	-0.593955	0.000045
C50	C	1.000777	-0.139740	0.000097
C51	C	1.001749	-0.080289	0.000109
C52	C	0.858831	-0.073240	0.000090
C53	C	0.857858	-0.132685	0.000083
C54	C	0.928838	-0.165934	0.000084
O55	O	0.795583	-0.223734	0.000087
O56	O	1.060004	-0.236831	0.000076
C57	C	1.068641	0.122420	0.000091
C58	C	1.155645	0.127503	0.000094
C59	C	0.918773	0.223877	0.000058
C60	C	0.919827	0.287146	0.000046
N61	N	0.914933	0.127048	0.216412
N62	N	0.935683	0.113055	-0.216256
C63	C	0.966445	0.092202	0.260118
C64	C	0.962267	0.095032	0.347524
C65	C	0.906579	0.132711	0.391222
C66	C	0.855061	0.167558	0.347510
C67	C	0.859236	0.164725	0.260106
C68	C	0.888340	0.145069	0.652627
C69	C	0.884170	0.147901	0.740038
C70	C	0.991376	0.075374	0.740045
C71	C	0.995550	0.072546	0.652640
C72	C	0.944029	0.107392	0.608935
N73	N	0.902308	0.135606	0.480565
N74	N	0.948296	0.104494	0.519594
H75	H	1.060343	-0.058966	0.000124
C76	C	1.073362	-0.562150	0.071449
C77	C	1.071850	-0.598418	0.000069
H78	H	1.122195	-0.544384	0.071455
H79	H	1.031248	-0.533837	0.071437
H80	H	1.067682	-0.583638	0.119867
H81	H	1.077525	-0.576929	-0.048349
H82	H	1.113976	-0.626735	0.000074
H83	H	0.792043	-0.593082	0.000034
H84	H	0.145546	0.221267	0.000067
H85	H	0.329228	0.043294	0.000113
H86	H	0.817288	0.193100	0.224521
C87	C	0.640739	-0.389636	-0.000013
C88	C	0.702811	-0.431387	0.000001
H89	H	0.591909	-0.407405	-0.000035
H90	H	0.641770	-0.365040	0.048410
H91	H	0.646436	-0.368155	-0.048435
H92	H	0.697117	-0.452865	0.048427
H93	H	0.701778	-0.455993	-0.048427
H94	H	0.293858	0.229939	0.000044
C95	C	1.077881	0.081522	0.161770
C96	C	1.027625	0.050768	0.212067
H97	H	1.115642	0.055935	0.132105
H98	H	1.047798	0.101879	0.123249
H99	H	1.104296	0.107604	0.195848
H100	H	1.001205	0.024689	0.177988
H101	H	1.057711	0.030402	0.250592
C102	C	1.007811	-0.000532	0.374449
C103	C	1.018903	0.056733	0.395558
H104	H	1.042784	-0.024176	0.404099
H105	H	0.954877	-0.008658	0.388793
H106	H	1.018263	-0.007601	0.316138
H107	H	1.008445	0.063802	0.453869
H108	H	1.071850	0.064861	0.381220
C109	C	0.616851	0.262857	0.000030
C110	C	0.678552	0.220818	0.000030
H111	H	0.637970	0.299386	0.000028
H112	H	0.587689	0.257288	-0.048387
H113	H	0.583055	0.260413	0.048459
H114	H	0.712344	0.223259	-0.048402
H115	H	0.707726	0.226389	0.048452
H116	H	1.127305	-0.335957	0.000095
C117	C	0.462763	0.208863	-0.071338
C118	C	0.506950	0.210784	0.000039
H119	H	0.428410	0.242148	-0.071346
H120	H	0.497376	0.207020	-0.119753
H121	H	0.432527	0.176122	-0.071313
H122	H	0.537191	0.243523	0.000011
H123	H	0.472333	0.212633	0.048467
C124	C	0.704495	-0.274510	-0.071368
C125	C	0.704872	-0.306606	0.000012
H126	H	0.656329	-0.251951	-0.071376
H127	H	0.747475	-0.250400	-0.071351
H128	H	0.709412	-0.299413	-0.119786
H129	H	0.699961	-0.281702	0.048431
H130	H	0.661880	-0.330718	0.000003
C131	C	0.801064	0.204110	0.481489
C132	C	0.793848	0.208978	0.395541
H133	H	0.763277	0.229685	0.511138
H134	H	0.792163	0.166193	0.495826
H135	H	0.852644	0.213160	0.495792
H136	H	0.742270	0.199923	0.381237
H137	H	0.802743	0.246903	0.381199
H138	H	0.180928	0.034624	0.000115
H139	H	0.705059	0.018836	0.000085
H140	H	0.556745	0.010169	0.000109
H141	H	1.058576	-0.166805	0.000095
C142	C	1.209097	-0.417709	0.000108
C143	C	1.145752	-0.453266	0.000093
H144	H	1.257263	-0.440267	0.000127
H145	H	1.208828	-0.395941	-0.048315
H146	H	1.204165	-0.392810	0.048531
H147	H	1.150681	-0.478162	-0.048334
H148	H	1.146022	-0.475044	0.048520
H149	H	1.049564	-0.713737	0.000061
C150	C	0.716688	-0.119738	0.000060
C151	C	0.778770	-0.161481	0.000064
H152	H	0.667863	-0.137514	0.000036
H153	H	0.717714	-0.095145	0.048489
H154	H	0.722377	-0.098251	-0.048357
H155	H	0.773083	-0.182965	0.048485
H156	H	0.777742	-0.186083	-0.048369
H157	H	0.790270	-0.700919	0.000046
H158	H	0.801051	-0.046156	0.000087
H159	H	1.040895	0.041865	0.617062
H160	H	1.033321	0.047004	0.775638
C161	C	0.778596	0.219295	0.731255
C162	C	0.822942	0.189312	0.788073
H163	H	0.740795	0.244854	0.760913
H164	H	0.812679	0.240174	0.697156
H165	H	0.752227	0.193187	0.697173
H166	H	0.849316	0.215419	0.822151
H167	H	0.788854	0.168432	0.822186
H168	H	0.846391	0.173443	0.617050
