data_functionalizedCrystal
_audit_creation_method	'MofGen! by Chris Wilmer'
_symmetry_space_group_name_H-M	'P1'
_symmetry_Int_Tables_number	1
_symmetry_cell_setting	triclinic
loop_
_symmetry_equiv_pos_as_xyz
  x,y,z
_cell_length_a	16.974829
_cell_length_b	14.519709
_cell_length_c	16.053802
_cell_angle_alpha	92.580010
_cell_angle_beta	91.075512
_cell_angle_gamma	83.538807
loop_
_atom_site_label
_atom_site_type_symbol
_atom_site_fract_x
_atom_site_fract_y
_atom_site_fract_z
O1	O	1.042589	0.125406	0.139875
O2	O	0.813149	0.139502	0.124374
O3	O	0.933953	-0.001781	0.132528
O4	O	0.921785	0.266689	0.131721
O5	O	0.940595	-0.009534	-0.005883
O6	O	0.819791	0.131749	-0.014036
O7	O	1.049231	0.117653	0.001464
Zn8	Zn	0.935566	0.123470	-0.028262
Zn9	Zn	0.926814	0.133685	0.154100
O10	O	0.928427	0.258936	-0.006690
C11	C	0.787106	0.134944	0.053185
C12	C	0.699611	0.132903	0.047274
C13	C	0.936707	-0.040017	0.063284
C14	C	0.935007	-0.142400	0.063169
C15	C	0.207493	0.120987	0.005901
C16	C	0.289703	0.122905	0.011457
C17	C	0.327189	0.128084	0.089684
C18	C	0.282458	0.131353	0.162360
C19	C	0.200248	0.129442	0.156803
C20	C	0.572671	0.134260	0.114393
C21	C	0.654887	0.136169	0.119944
C22	C	0.662126	0.127723	-0.030959
C23	C	0.579915	0.125806	-0.036509
C24	C	0.535191	0.129080	0.036167
N25	N	0.411222	0.130042	0.095365
N26	N	0.451159	0.127129	0.030485
C27	C	0.928751	-0.517298	0.062768
C28	C	0.930489	-0.412990	0.062879
C29	C	0.931879	-0.329852	0.062968
C30	C	0.933617	-0.225537	0.063080
C31	C	1.075274	0.122211	0.072655
C32	C	1.162768	0.124253	0.078572
C33	C	0.925673	0.297173	0.062556
C34	C	0.927372	0.399556	0.062677
N35	N	0.920842	0.140650	0.278557
N36	N	0.941544	0.116498	-0.152719
C37	C	0.972343	0.080649	0.325727
C38	C	0.968164	0.085519	0.412852
C39	C	0.912480	0.150386	0.452805
C40	C	0.860976	0.210393	0.405628
C41	C	0.865160	0.205527	0.318506
C42	C	0.894224	0.171639	0.712982
C43	C	0.890043	0.176499	0.800111
C44	C	0.997232	0.051625	0.807329
C45	C	1.001408	0.046761	0.720204
C46	C	0.949907	0.106772	0.673035
N47	N	0.908205	0.155364	0.541860
N48	N	0.954186	0.101798	0.583982
H49	H	0.326115	0.120243	-0.047719
N50	N	0.800914	0.280360	0.448712
H51	H	0.829274	0.323385	0.486905
H52	H	0.764315	0.246868	0.482444
N53	N	0.829980	0.246465	0.843206
H54	H	0.797990	0.283745	0.800106
H55	H	0.858402	0.289421	0.881404
H56	H	0.823223	0.254387	0.280100
H57	H	0.312985	0.135576	0.226054
H58	H	0.549402	0.121569	-0.100209
N59	N	0.152005	0.132969	0.235182
H60	H	0.188226	0.136538	0.285583
H61	H	0.124041	0.075242	0.236585
N62	N	1.032406	0.010690	0.282637
H63	H	1.022627	-0.053984	0.297175
H64	H	1.087568	0.022554	0.301602
H65	H	0.852289	0.220500	0.674584
N66	N	0.710362	0.124197	-0.109341
H67	H	0.768130	0.126195	-0.093955
H68	H	0.691266	0.179140	-0.143676
H69	H	0.176978	0.116774	-0.057800
H70	H	0.536267	0.136924	0.173571
N71	N	0.695321	0.141754	0.204321
H72	H	0.654514	0.143541	0.249519
H73	H	0.722971	0.199848	0.209487
N74	N	1.023712	0.020806	0.463729
H75	H	1.059620	-0.021029	0.425199
H76	H	0.991821	-0.018116	0.497833
H77	H	1.046750	-0.006059	0.687676
H78	H	1.039162	0.002769	0.845741
