data_functionalizedCrystal
_audit_creation_method	'MofGen! by Chris Wilmer'
_symmetry_space_group_name_H-M	'P1'
_symmetry_Int_Tables_number	1
_symmetry_cell_setting	triclinic
loop_
_symmetry_equiv_pos_as_xyz
  x,y,z
_cell_length_a	10.686220
_cell_length_b	16.120484
_cell_length_c	10.685880
_cell_angle_alpha	97.443083
_cell_angle_beta	89.641569
_cell_angle_gamma	97.070967
loop_
_atom_site_label
_atom_site_type_symbol
_atom_site_fract_x
_atom_site_fract_y
_atom_site_fract_z
Zn1	Zn	1.953705	-0.262275	-0.583880
Zn2	Zn	1.928247	-0.392927	-0.384842
Zn3	Zn	1.727713	-0.263987	-0.390343
Zn4	Zn	1.733154	-0.414283	-0.612365
O5	O	1.835705	-0.333368	-0.492858
O6	O	2.126553	-0.269952	-0.543254
O7	O	1.888714	-0.367602	-0.209356
O8	O	1.766069	-0.146183	-0.406398
O9	O	2.107849	-0.365941	-0.397021
O10	O	1.932104	-0.144925	-0.548589
O11	O	1.741383	-0.272871	-0.213398
O12	O	1.552210	-0.293579	-0.434018
O13	O	1.775341	-0.402340	-0.784802
O14	O	1.556206	-0.404000	-0.597137
O15	O	1.937380	-0.290660	-0.763874
O16	O	1.893990	-0.513337	-0.424642
O17	O	1.750655	-0.529027	-0.591802
C18	C	1.508515	-0.351293	-0.519266
C19	C	1.368542	-0.358983	-0.530595
C20	C	1.820186	-0.551668	-0.510741
C21	C	1.813666	-0.645053	-0.518424
C22	C	1.801771	-0.816029	-0.532477
C23	C	1.869866	-0.849855	-0.453241
C24	C	1.863247	-0.944992	-0.461060
C25	C	1.808388	-0.720884	-0.524659
C26	C	2.164172	-0.315374	-0.466347
C27	C	2.304146	-0.307705	-0.455049
C28	C	1.859807	-0.348691	-0.821306
C29	C	1.870078	-0.355221	-0.961271
C30	C	1.851320	-0.114215	-0.474930
C31	C	1.857974	-0.020825	-0.467290
C32	C	1.811773	-0.318040	-0.165676
C33	C	1.801763	-0.311260	-0.025673
H34	H	1.316585	-0.408775	-0.603939
O35	O	1.726114	-0.866626	-0.620346
C36	C	1.600045	-0.850954	-0.601109
H37	H	1.598269	-0.785120	-0.547778
H38	H	1.549567	-0.899656	-0.543723
C39	C	1.535101	-0.937837	-0.795154
C40	C	1.532920	-0.856975	-0.729662
H41	H	1.493692	-0.941554	-0.874451
H42	H	1.620035	-0.948398	-0.808114
H43	H	1.493038	-0.978412	-0.747320
H44	H	1.574995	-0.816402	-0.777490
H45	H	1.447990	-0.846407	-0.716714
O46	O	1.945231	-0.799049	-0.365336
C47	C	1.935156	-0.713994	-0.377006
H48	H	1.841770	-0.709415	-0.425076
H49	H	2.016435	-0.688060	-0.436074
C50	C	2.055203	-0.667928	-0.185987
C51	C	1.940499	-0.662303	-0.245018
H52	H	2.058504	-0.636041	-0.104572
H53	H	2.061995	-0.725231	-0.178127
H54	H	2.122922	-0.646318	-0.235224
H55	H	1.872783	-0.683923	-0.195789
H56	H	1.933695	-0.605003	-0.252867
H57	H	1.735407	-0.268630	-0.973733
H58	H	1.936433	-0.397857	-1.013218
H59	H	1.356096	-0.257922	-0.381703
