data_functionalizedCrystal
_audit_creation_method	'MofGen! by Chris Wilmer'
_symmetry_space_group_name_H-M	'P1'
_symmetry_Int_Tables_number	1
_symmetry_cell_setting	triclinic
loop_
_symmetry_equiv_pos_as_xyz
  x,y,z
_cell_length_a	11.792241
_cell_length_b	10.967819
_cell_length_c	10.065875
_cell_angle_alpha	69.228723
_cell_angle_beta	81.145445
_cell_angle_gamma	95.541128
loop_
_atom_site_label
_atom_site_type_symbol
_atom_site_fract_x
_atom_site_fract_y
_atom_site_fract_z
O1	O	-0.083026	1.740389	-0.522813
O2	O	-0.111194	1.362998	-0.434053
O3	O	0.068356	1.560853	-0.480596
O4	O	-0.262576	1.542534	-0.476271
O5	O	0.033985	1.523126	-0.244732
O6	O	-0.145565	1.325271	-0.198189
O7	O	-0.117397	1.702662	-0.286950
Zn8	Zn	-0.136938	1.507976	-0.205121
Zn9	Zn	-0.091653	1.557684	-0.515882
O10	O	-0.296947	1.504807	-0.240407
C11	C	-0.128926	1.295820	-0.304758
C12	C	-0.130540	1.151859	-0.270900
C13	C	-0.115131	0.958438	-0.343022
C14	C	-0.113456	1.107230	-0.378008
C15	C	-0.322016	1.524821	-0.358607
C16	C	-0.447920	1.528263	-0.359411
C17	C	-0.678423	1.534602	-0.360936
C18	C	-0.550154	1.531080	-0.360089
C19	C	0.093425	1.540840	-0.362398
C20	C	0.219331	1.537399	-0.361604
C21	C	-0.099665	1.769841	-0.416248
C22	C	-0.098049	1.913804	-0.450115
N23	N	-0.167843	1.474062	0.006962
N24	N	-0.060738	1.591609	-0.727967
C25	C	-0.102399	1.545876	0.057848
C26	C	-0.126193	1.519784	0.221153
H27	H	-0.146414	1.079921	-0.153304
H28	H	-0.199839	1.438975	0.298483
H29	H	-0.131003	0.886496	-0.225435
C30	C	-0.022707	1.777041	-0.040754
C31	C	-0.002981	1.654979	-0.046503
H32	H	0.038675	1.844403	-0.105159
H33	H	-0.094478	1.795737	-0.068522
H34	H	-0.025676	1.773769	0.055317
H35	H	-0.000021	1.658249	-0.142572
H36	H	0.068810	1.636280	-0.018744
C37	C	-0.094518	1.332936	-0.540692
C38	C	-0.092034	1.204333	-0.536760
H39	H	-0.081286	1.392882	-0.638698
H40	H	-0.168364	1.337159	-0.490821
H41	H	-0.035573	1.355990	-0.495242
H42	H	-0.150985	1.181275	-0.582201
H43	H	-0.018178	1.200105	-0.586652
C44	C	0.032226	1.004649	-0.682368
C45	C	-0.076633	1.010905	-0.608861
H46	H	0.045440	1.064587	-0.780376
H47	H	0.091157	1.027726	-0.636930
H48	H	0.033898	0.917391	-0.679669
H49	H	-0.078303	1.098161	-0.611551
H50	H	-0.135580	0.987836	-0.654312
C51	C	0.144474	1.672871	0.209003
C52	C	0.038787	1.700660	0.167829
H53	H	0.205944	1.740182	0.144718
H54	H	0.141383	1.669548	0.305097
H55	H	0.157778	1.590044	0.205092
H56	H	0.025479	1.783484	0.171750
H57	H	0.041877	1.703998	0.071710
H58	H	-0.241484	1.393258	0.084296
