data_functionalizedCrystal
_audit_creation_method	'MofGen! by Chris Wilmer'
_symmetry_space_group_name_H-M	'P1'
_symmetry_Int_Tables_number	1
_symmetry_cell_setting	triclinic
loop_
_symmetry_equiv_pos_as_xyz
  x,y,z
_cell_length_a	17.019282
_cell_length_b	11.792254
_cell_length_c	10.868271
_cell_angle_alpha	89.994692
_cell_angle_beta	93.876905
_cell_angle_gamma	83.792866
loop_
_atom_site_label
_atom_site_type_symbol
_atom_site_fract_x
_atom_site_fract_y
_atom_site_fract_z
O1	O	1.047303	0.144514	0.008689
O2	O	1.547303	0.644514	0.508689
O3	O	0.817718	0.162970	-0.015649
O4	O	1.317718	0.662970	0.484351
O5	O	0.938077	-0.011486	-0.002881
O6	O	1.438077	0.488514	0.497119
O7	O	0.926944	0.318971	-0.004079
O8	O	1.426944	0.818971	0.495921
O9	O	0.938067	-0.011493	0.201762
O10	O	1.438067	0.488507	0.701762
O11	O	0.817708	0.162963	0.188994
O12	O	1.317708	0.662963	0.688994
O13	O	1.047293	0.144508	0.213332
O14	O	1.547293	0.644508	0.713332
Zn15	Zn	0.932499	0.153734	0.233655
Zn16	Zn	1.432499	0.653734	0.733655
Zn17	Zn	0.932512	0.153743	-0.035972
Zn18	Zn	1.432512	0.653743	0.464028
O19	O	0.926934	0.318964	0.200565
O20	O	1.426934	0.818964	0.700565
C21	C	0.788320	0.162270	0.083557
C22	C	1.288320	0.662270	0.583557
C23	C	0.700741	0.160180	0.074273
C24	C	1.200741	0.660180	0.574273
C25	C	0.659595	0.159191	0.181465
C26	C	1.159595	0.659191	0.681465
C27	C	0.577307	0.157209	0.172746
C28	C	1.077307	0.657209	0.672746
C29	C	0.536165	0.156224	0.056832
C30	C	1.036165	0.656224	0.556832
C31	C	0.577316	0.157209	-0.050368
C32	C	1.077316	0.657209	0.449632
C33	C	0.659604	0.159183	-0.041647
C34	C	1.159604	0.659183	0.458353
C35	C	0.287709	0.150257	0.024920
C36	C	0.787709	0.650257	0.524920
C37	C	0.205416	0.148286	0.016207
C38	C	0.705416	0.648286	0.516207
C39	C	0.205412	0.148285	0.239322
C40	C	0.705412	0.648285	0.739322
C41	C	0.287701	0.150265	0.248033
C42	C	0.787701	0.650265	0.748033
C43	C	0.328846	0.151244	0.140832
C44	C	0.828846	0.651244	0.640832
C45	C	0.452052	0.154202	0.047916
C46	C	0.952052	0.654202	0.547916
C47	C	0.412957	0.153259	0.149749
C48	C	0.912957	0.653259	0.649749
C49	C	0.937370	-0.053773	0.099366
C50	C	1.437370	0.446227	0.599366
C51	C	0.935271	-0.179764	0.099142
C52	C	1.435271	0.320236	0.599142
C53	C	0.933566	-0.282082	0.098957
C54	C	1.433566	0.217918	0.598957
C55	C	0.931433	-0.410446	0.098719
C56	C	1.431433	0.089554	0.598719
C57	C	1.076691	0.145208	0.114124
C58	C	1.576691	0.645208	0.614124
C59	C	1.164270	0.147298	0.123400
C60	C	1.664270	0.647298	0.623400
C61	C	0.927641	0.361251	0.098315
C62	C	1.427641	0.861251	0.598315
C63	C	0.929740	0.487241	0.098530
C64	C	1.429740	0.987241	0.598530
N65	N	0.932496	0.153728	0.417669
N66	N	1.432496	0.653728	0.917669
N67	N	0.932521	0.153741	-0.219985
N68	N	1.432521	0.653741	0.280015
C69	C	0.932508	0.153741	0.668676
C70	C	1.432508	0.653741	1.168676
C71	C	0.932499	0.153737	0.528997
C72	C	1.432499	0.653737	1.028997
H73	H	0.321200	0.151050	-0.062370
H74	H	0.821200	0.651050	0.437630
H75	H	0.171903	0.147486	0.326598
H76	H	0.671903	0.647486	0.826598
H77	H	0.543811	0.156386	0.260033
H78	H	1.043811	0.656386	0.760033
H79	H	0.693087	0.160003	0.275854
H80	H	1.193087	0.660003	0.775854
O81	O	0.161036	0.147217	-0.108819
O82	O	0.661036	0.647217	0.391181
H83	H	0.203472	0.148218	-0.181898
H84	H	0.703472	0.648218	0.318102
O85	O	0.532947	0.156151	-0.175394
O86	O	1.032947	0.656151	0.324606
H87	H	0.468813	0.154626	-0.163453
H88	H	0.968813	0.654626	0.336547
O89	O	0.407679	0.153146	-0.077107
O90	O	0.907679	0.653146	0.422893
H91	H	0.363491	0.229570	-0.087127
H92	H	0.863491	0.729570	0.412873
H93	H	0.693104	0.159990	-0.128935
H94	H	1.193104	0.659990	0.371065
O95	O	0.332072	0.151381	0.373052
O96	O	0.832072	0.651381	0.873052
H97	H	0.289634	0.150373	0.446128
H98	H	0.789634	0.650373	0.946128
O99	O	0.457324	0.154337	0.274770
O100	O	0.957324	0.654337	0.774770
H101	H	0.501522	0.077925	0.284803
H102	H	1.001522	0.577925	0.784803
