data_functionalizedCrystal
_audit_creation_method	'MofGen! by Chris Wilmer'
_symmetry_space_group_name_H-M	'P1'
_symmetry_Int_Tables_number	1
_symmetry_cell_setting	triclinic
loop_
_symmetry_equiv_pos_as_xyz
  x,y,z
_cell_length_a	10.489741
_cell_length_b	17.699083
_cell_length_c	16.776229
_cell_angle_alpha	90.001114
_cell_angle_beta	89.993659
_cell_angle_gamma	96.088906
loop_
_atom_site_label
_atom_site_type_symbol
_atom_site_fract_x
_atom_site_fract_y
_atom_site_fract_z
O1	O	0.161296	-1.005134	-0.066176
O2	O	0.661296	-0.505134	0.433824
O3	O	0.182281	-0.784893	-0.066202
O4	O	0.682281	-0.284893	0.433798
O5	O	-0.013903	-0.900025	-0.066184
O6	O	0.486097	-0.400025	0.433816
O7	O	0.357479	-0.890002	-0.066194
O8	O	0.857479	-0.390002	0.433806
O9	O	-0.013915	-0.900009	0.066393
O10	O	0.486085	-0.400009	0.566393
O11	O	0.182269	-0.784877	0.066375
O12	O	0.682269	-0.284877	0.566375
O13	O	0.161284	-1.005118	0.066401
O14	O	0.661284	-0.505118	0.566401
Zn15	Zn	0.171774	-0.894995	0.087437
Zn16	Zn	0.671774	-0.394995	0.587437
Zn17	Zn	0.171790	-0.895016	-0.087238
Zn18	Zn	0.671790	-0.395016	0.412762
O19	O	0.357467	-0.889986	0.066382
O20	O	0.857467	-0.389986	0.566382
C21	C	0.181523	-0.756683	0.000083
C22	C	0.681523	-0.256683	0.500083
C23	C	0.179267	-0.672650	0.000073
C24	C	0.679267	-0.172650	0.500073
N25	N	0.171763	-0.894987	0.206648
N26	N	0.671763	-0.394987	0.706648
C27	C	-0.061427	-0.899260	0.000104
C28	C	0.438573	-0.399260	0.500104
C29	C	-0.203014	-0.896995	0.000102
C30	C	0.296986	-0.396995	0.500102
C31	C	-0.269793	-0.823740	0.000088
C32	C	0.230207	-0.323740	0.500088
C33	C	-0.362564	-0.858337	0.065459
C34	C	0.137436	-0.358337	0.565459
C35	C	-0.362527	-0.858370	-0.065251
C36	C	0.137473	-0.358370	0.434749
C37	C	-0.293920	-0.931623	0.065528
C38	C	0.206080	-0.431623	0.565528
C39	C	-0.293874	-0.931645	-0.065241
C40	C	0.206126	-0.431645	0.434759
C41	C	-0.386619	-0.966296	0.000146
C42	C	0.113381	-0.466296	0.500146
C43	C	0.404991	-0.890751	0.000093
C44	C	0.904991	-0.390751	0.500093
C45	C	0.546578	-0.893016	0.000089
C46	C	1.046578	-0.393016	0.500089
C47	C	0.162042	-1.033328	0.000114
C48	C	0.662042	-0.533328	0.500114
C49	C	0.164297	-1.117361	0.000119
C50	C	0.664297	-0.617361	0.500119
C51	C	0.294422	-0.624782	0.000070
C52	C	0.794422	-0.124782	0.500070
C53	C	0.292295	-0.545825	0.000080
C54	C	0.792295	-0.045825	0.500080
C55	C	0.175011	-0.514737	0.000088
C56	C	0.675011	-0.014737	0.500088
C57	C	0.059847	-0.562611	0.000094
C58	C	0.559847	-0.062611	0.500094
C59	C	0.061975	-0.641567	0.000089
C60	C	0.561975	-0.141567	0.500089
C61	C	0.051260	-0.244192	0.000114
C62	C	0.551260	0.255808	0.500114
C63	C	0.049140	-0.165230	0.000116
C64	C	0.549140	0.334770	0.500116
C65	C	0.281580	-0.148450	0.000105
C66	C	0.781580	0.351550	0.500105
C67	C	0.283709	-0.227406	0.000100
C68	C	0.783709	0.272594	0.500100
C69	C	0.168545	-0.275273	0.000110
C70	C	0.668545	0.224727	0.500110
C71	C	0.170853	-0.360887	0.000100
C72	C	0.670853	0.139113	0.500100
C73	C	0.172702	-0.429124	0.000092
C74	C	0.672702	0.070876	0.500092
N75	N	0.171791	-0.895030	-0.206450
N76	N	0.671791	-0.395030	0.293550
C77	C	0.084928	-0.945983	0.248373
C78	C	0.584928	-0.445983	0.748373
C79	C	0.084927	-0.945987	0.331826
C80	C	0.584927	-0.445987	0.831826
C81	C	0.171767	-0.894998	0.373551
C82	C	0.671767	-0.394998	0.873551
C83	C	0.258606	-0.843996	0.331820
C84	C	0.758606	-0.343996	0.831820
C85	C	0.258600	-0.843989	0.248369
C86	C	0.758600	-0.343989	0.748369
C87	C	0.258631	-0.844024	0.668367
C88	C	0.758631	-0.344024	1.168367
C89	C	0.258633	-0.844037	0.751824
C90	C	0.758633	-0.344037	1.251824
C91	C	0.084958	-0.946022	0.751823
C92	C	0.584958	-0.446022	1.251823
C93	C	0.084952	-0.946015	0.668373
C94	C	0.584952	-0.446015	1.168373
C95	C	0.171786	-0.895011	0.626649
C96	C	0.671786	-0.395011	1.126649
C97	C	0.171784	-0.895006	0.536161
C98	C	0.671784	-0.395006	1.036161
C99	C	0.171776	-0.895006	0.464038
C100	C	0.671776	-0.395006	0.964038
H101	H	-0.393005	-0.827335	0.120719
H102	H	0.106995	-0.327335	0.620719
C103	C	-0.010573	-1.002121	0.797718
C104	C	0.489427	-0.502121	1.297718
H105	H	-0.062282	-1.032491	0.760915
H106	H	0.437718	-0.532491	1.260915
H107	H	-0.063614	-0.974614	0.830280
H108	H	0.436386	-0.474614	1.330280
H109	H	0.035252	-1.033879	0.830264
H110	H	0.535252	-0.533879	1.330264
C111	C	-0.403598	-0.816497	-0.139911
C112	C	0.096402	-0.316497	0.360089
H113	H	-0.460910	-0.849916	-0.170693
H114	H	0.039090	-0.349916	0.329307
H115	H	-0.330073	-0.800008	-0.170896
H116	H	0.169927	-0.300008	0.329104
H117	H	-0.445170	-0.773733	-0.124199
H118	H	0.054830	-0.273733	0.375801
C119	C	0.423437	-0.658972	0.000061
C120	C	0.923437	-0.158972	0.500061
H121	H	0.491713	-0.619153	0.000068
H122	H	0.991713	-0.119153	0.500068
H123	H	0.429106	-0.689422	-0.046173
H124	H	0.929106	-0.189422	0.453827
H125	H	0.429093	-0.689425	0.046298
H126	H	0.929093	-0.189425	0.546298
H127	H	0.329336	-0.802496	0.634402
H128	H	0.829336	-0.302496	1.134402
H129	H	-0.263400	-0.962621	-0.120504
H130	H	0.236600	-0.462621	0.379496
H131	H	-0.031796	-0.680540	0.000091
H132	H	0.468204	-0.180540	0.500091
H133	H	0.386067	-0.506854	0.000077
H134	H	0.886067	-0.006854	0.500077
H135	H	0.329308	-0.802462	0.214397
H136	H	0.829308	-0.302462	0.714397
H137	H	0.014218	-0.987507	0.214406
H138	H	0.514218	-0.487507	0.714406
H139	H	-0.219023	-0.763510	0.000147
H140	H	0.280977	-0.263510	0.500147
H141	H	0.379213	-0.252713	0.000090
H142	H	0.879213	0.247287	0.500090
C143	C	-0.253062	-0.973444	0.140275
C144	C	0.246938	-0.473444	0.640275
H145	H	-0.162725	-0.974603	0.139839
H146	H	0.337275	-0.474603	0.639839
H147	H	-0.294116	-1.023933	0.140474
H148	H	0.205884	-0.523933	0.640474
H149	H	-0.277120	-0.947580	0.186633
H150	H	0.222880	-0.447580	0.686633
H151	H	0.375352	-0.109467	0.000101
H152	H	0.875352	0.390533	0.500101
H153	H	-0.042514	-0.283156	0.000122
H154	H	0.457486	0.216844	0.500122
C155	C	-0.079874	-0.131031	0.000127
C156	C	0.420126	0.368969	0.500127
H157	H	-0.064643	-0.077152	0.000119
H158	H	0.435357	0.422848	0.500119
H159	H	-0.127283	-0.147415	0.046362
H160	H	0.372717	0.352585	0.546362
H161	H	-0.127278	-0.147418	-0.046108
H162	H	0.372722	0.352582	0.453892
H163	H	-0.035648	-0.537293	0.000111
H164	H	0.464352	-0.037293	0.500111
C165	C	0.354139	-0.787932	0.797721
C166	C	0.854139	-0.287932	1.297721
H167	H	0.405840	-0.757547	0.760920
H168	H	0.905840	-0.257547	1.260920
H169	H	0.407189	-0.815435	0.830271
H170	H	0.907189	-0.315435	1.330271
H171	H	0.308291	-0.756190	0.830278
H172	H	0.808291	-0.256190	1.330278
C173	C	-0.454914	-1.047729	0.000204
C174	C	0.045086	-0.547729	0.500204
H175	H	-0.431445	-1.073618	0.046683
H176	H	0.068555	-0.573618	0.546683
H177	H	-0.430357	-1.073953	-0.045787
H178	H	0.069643	-0.573953	0.454213
H179	H	-0.545085	-1.045850	-0.000232
H180	H	-0.045085	-0.545850	0.499768
H181	H	0.014219	-0.987512	0.365798
H182	H	0.514219	-0.487512	0.865798
C183	C	0.354131	-0.787911	0.377716
C184	C	0.854131	-0.287911	0.877716
H185	H	0.341709	-0.795224	0.433392
H186	H	0.841709	-0.295224	0.933392
H187	H	0.340388	-0.737324	0.364049
H188	H	0.840388	-0.237324	0.864049
H189	H	0.439241	-0.796596	0.364027
H190	H	0.939241	-0.296596	0.864027
C191	C	-0.010576	-1.002100	0.622479
C192	C	0.489424	-0.502100	1.122479
H193	H	-0.062302	-1.032468	0.659282
H194	H	0.437698	-0.532468	1.159282
H195	H	0.035233	-1.033850	0.589913
H196	H	0.535233	-0.533850	1.089913
H197	H	-0.063618	-0.974577	0.589937
H198	H	0.436382	-0.474577	1.089937
