data_functionalizedCrystal
_audit_creation_method	'MofGen! by Chris Wilmer'
_symmetry_space_group_name_H-M	'P1'
_symmetry_Int_Tables_number	1
_symmetry_cell_setting	triclinic
loop_
_symmetry_equiv_pos_as_xyz
  x,y,z
_cell_length_a	9.065218
_cell_length_b	9.798715
_cell_length_c	9.065218
_cell_angle_alpha	89.998697
_cell_angle_beta	94.984115
_cell_angle_gamma	90.003772
loop_
_atom_site_label
_atom_site_type_symbol
_atom_site_fract_x
_atom_site_fract_y
_atom_site_fract_z
O1	O	1.960400	0.113488	-0.216354
O2	O	2.460400	0.613488	0.283646
O3	O	1.531115	0.113490	-0.234100
O4	O	2.031115	0.613490	0.265900
O5	O	1.754631	0.113486	-0.010584
O6	O	2.254631	0.613486	0.489416
O7	O	1.736884	0.113492	-0.439869
O8	O	2.236884	0.613492	0.060131
O9	O	1.754614	-0.113496	-0.010584
O10	O	2.254614	0.386504	0.489416
O11	O	1.531098	-0.113492	-0.234099
O12	O	2.031098	0.386508	0.265901
O13	O	1.960383	-0.113494	-0.216353
O14	O	2.460383	0.386506	0.283647
Zn15	Zn	1.745738	-0.149531	-0.225226
Zn16	Zn	2.245738	0.350469	0.274774
Zn17	Zn	1.745760	0.149527	-0.225227
Zn18	Zn	2.245760	0.649527	0.274773
O19	O	1.736868	-0.113490	-0.439869
O20	O	2.236868	0.386510	0.060131
C21	C	1.476120	-0.000001	-0.232394
C22	C	1.976120	0.499999	0.267606
C23	C	1.312277	-0.000000	-0.227294
C24	C	1.812277	0.500000	0.272706
N25	N	1.745734	-0.353631	-0.225225
N26	N	2.245734	0.146369	0.274775
C27	C	1.839580	-0.421409	-0.130961
C28	C	2.339580	0.078591	0.369039
C29	C	1.839604	-0.578572	-0.130956
C30	C	2.339604	-0.078572	0.369044
C31	C	2.015378	0.000000	-0.218059
C32	C	2.515378	0.500000	0.281941
C33	C	2.179221	0.000008	-0.223158
C34	C	2.679221	0.500008	0.276842
C35	C	1.752917	-0.000003	0.044403
C36	C	2.252917	0.499997	0.544403
C37	C	1.747817	0.000004	0.208245
C38	C	2.247817	0.500004	0.708245
N39	N	1.745776	0.353627	-0.225217
N40	N	2.245776	0.853627	0.274783
C41	C	1.738582	0.000002	-0.494855
C42	C	2.238582	0.500002	0.005145
C43	C	1.743681	0.000004	-0.658698
C44	C	2.243681	0.500004	-0.158698
H45	H	1.919903	-0.363088	-0.050255
H46	H	2.419903	0.136912	0.449745
H47	H	1.919955	-0.636859	-0.050258
H48	H	2.419955	-0.136859	0.449742
H49	H	1.665432	-0.588095	-0.305929
H50	H	2.165432	-0.088095	0.194071
H51	H	1.665400	-0.411954	-0.305918
H52	H	2.165400	0.088046	0.194082
