data_functionalizedCrystal
_audit_creation_method	'MofGen! by Chris Wilmer'
_symmetry_space_group_name_H-M	'P1'
_symmetry_Int_Tables_number	1
_symmetry_cell_setting	triclinic
loop_
_symmetry_equiv_pos_as_xyz
  x,y,z
_cell_length_a	15.297475
_cell_length_b	19.121063
_cell_length_c	15.296720
_cell_angle_alpha	78.383753
_cell_angle_beta	88.382886
_cell_angle_gamma	83.156694
loop_
_atom_site_label
_atom_site_type_symbol
_atom_site_fract_x
_atom_site_fract_y
_atom_site_fract_z
Zn1	Zn	1.219315	-0.545242	0.750522
Zn2	Zn	1.719315	-0.045242	1.250522
Zn3	Zn	1.238271	-0.646121	0.608463
Zn4	Zn	1.738271	-0.146121	1.108463
Zn5	Zn	1.100653	-0.505885	0.577035
Zn6	Zn	1.600653	-0.005885	1.077035
Zn7	Zn	1.066927	-0.639234	0.729290
Zn8	Zn	1.566927	-0.139234	1.229290
O9	O	1.156291	-0.584120	0.666328
O10	O	1.656291	-0.084120	1.166328
O11	O	1.343197	-0.577977	0.753716
O12	O	1.843197	-0.077977	1.253716
O13	O	1.242063	-0.613929	0.481124
O14	O	1.742063	-0.113929	0.981124
O15	O	1.122575	-0.413080	0.595782
O16	O	1.622575	0.086920	1.095782
O17	O	1.357124	-0.652092	0.649346
O18	O	1.857124	-0.152092	1.149346
O19	O	1.209755	-0.441996	0.723241
O20	O	1.709755	0.058004	1.223241
O21	O	1.140956	-0.510898	0.458034
O22	O	1.640956	-0.010898	0.958034
O23	O	0.974811	-0.504221	0.575194
O24	O	1.474811	-0.004221	1.075194
O25	O	1.065095	-0.640355	0.855277
O26	O	1.565095	-0.140355	1.355277
O27	O	0.950033	-0.602192	0.687055
O28	O	1.450033	-0.102192	1.187055
O29	O	1.177053	-0.571299	0.870876
O30	O	1.677053	-0.071299	1.370876
O31	O	1.209361	-0.743232	0.628758
O32	O	1.709361	-0.243232	1.128758
O33	O	1.083475	-0.738173	0.717529
O34	O	1.583475	-0.238173	1.217529
C35	C	0.930952	-0.548189	0.625411
C36	C	1.430952	-0.048189	1.125411
C37	C	0.834547	-0.532837	0.607928
C38	C	1.334547	-0.032837	1.107928
C39	C	0.511335	-0.693852	0.791283
C40	C	1.011335	-0.193852	1.291283
C41	C	0.601913	-0.708281	0.807706
C42	C	1.101913	-0.208281	1.307706
C43	C	0.660075	-0.664421	0.757763
C44	C	1.160075	-0.164421	1.257763
C45	C	0.627652	-0.606129	0.691393
C46	C	1.127652	-0.106129	1.191393
C47	C	0.537065	-0.591702	0.674963
C48	C	1.037065	-0.091702	1.174963
C49	C	0.685806	-0.562271	0.641444
C50	C	1.185806	-0.062271	1.141444
C51	C	0.653382	-0.503980	0.575074
C52	C	1.153382	-0.003980	1.075074
C53	C	0.562804	-0.489555	0.558647
C54	C	1.062804	0.010445	1.058647
C55	C	0.504642	-0.533415	0.608590
C56	C	1.004642	-0.033415	1.108590
C57	C	0.776392	-0.576699	0.657874
C58	C	1.276392	-0.076699	1.157874
C59	C	0.802123	-0.474549	0.541555
C60	C	1.302123	0.025451	1.041555
C61	C	0.711545	-0.460120	0.525131
C62	C	1.211545	0.039880	1.025131
C63	C	1.144835	-0.766125	0.674274
C64	C	1.644835	-0.266125	1.174274
C65	C	1.140009	-0.844004	0.677717
C66	C	1.640009	-0.344004	1.177717
C67	C	1.203317	-0.883214	0.633171
C68	C	1.703317	-0.383214	1.133171
C69	C	1.198782	-0.956391	0.636415
C70	C	1.698782	-0.456391	1.136415
C71	C	1.130934	-0.990354	0.684201
C72	C	1.630934	-0.490354	1.184201
C73	C	1.067622	-0.951139	0.728752
C74	C	1.567622	-0.451139	1.228752
C75	C	1.072161	-0.877965	0.725513
C76	C	1.572161	-0.377965	1.225513
C77	C	1.113949	-1.211161	0.696297
C78	C	1.613949	-0.711161	1.196297
C79	C	1.109413	-1.284340	0.699531
C80	C	1.609413	-0.784340	1.199531
C81	C	1.240575	-1.289587	0.607195
C82	C	1.740575	-0.789587	1.107195
C83	C	1.245105	-1.216411	0.603955
C84	C	1.745105	-0.716411	1.103955
C85	C	1.181796	-1.177203	0.648510
C86	C	1.681796	-0.677203	1.148510
C87	C	1.126295	-1.065151	0.687516
C88	C	1.626295	-0.565151	1.187516
C89	C	1.186440	-1.102408	0.645200
C90	C	1.686440	-0.602408	1.145200
C91	C	1.382510	-0.620193	0.707405
C92	C	1.882510	-0.120193	1.207405
C93	C	1.478911	-0.635564	0.724910
C94	C	1.978911	-0.135564	1.224910
C95	C	1.115197	-0.609449	0.895906
C96	C	1.615197	-0.109449	1.395906
C97	C	1.097685	-0.620243	0.993739
C98	C	1.597685	-0.120243	1.493739
C99	C	1.167812	-0.401410	0.658374
C100	C	1.667812	0.098590	1.158374
C101	C	1.172722	-0.323550	0.654985
C102	C	1.672722	0.176450	1.154985
C103	C	1.197279	-0.558848	0.437649
C104	C	1.697279	-0.058848	0.937649
C105	C	1.214971	-0.547884	0.339838
C106	C	1.714971	-0.047884	0.839838
C107	C	1.281492	-0.506860	1.302001
C108	C	1.781492	-0.006860	1.802001
C109	C	1.297950	-0.496721	1.210084
C110	C	1.797950	0.003279	1.710084
C111	C	1.247885	-0.527600	1.155993
C112	C	1.747885	-0.027600	1.655993
C113	C	1.181359	-0.568621	1.193829
C114	C	1.681359	-0.068621	1.693829
C115	C	1.164903	-0.578765	1.285757
C116	C	1.664903	-0.078765	1.785757
C117	C	1.131297	-0.599506	1.139748
C118	C	1.631297	-0.099506	1.639748
C119	C	1.064771	-0.640526	1.177584
C120	C	1.564771	-0.140526	1.677584
C121	C	1.048318	-0.650669	1.269503
C122	C	1.548318	-0.150669	1.769503
C123	C	1.098383	-0.619789	1.323594
C124	C	1.598383	-0.119789	1.823594
C125	C	1.147753	-0.589361	1.047821
C126	C	1.647753	-0.089361	1.547821
C127	C	1.031165	-0.661267	1.031576
C128	C	1.531165	-0.161267	1.531576
C129	C	1.014706	-0.671406	1.123494
C130	C	1.514706	-0.171406	1.623494
H131	H	0.430884	-0.521668	0.595223
H132	H	0.930884	-0.021668	1.095223
N133	N	1.040110	-1.319048	0.748339
N134	N	1.540110	-0.819048	1.248339
N135	N	0.987886	-1.347700	0.709101
N136	N	1.487886	-0.847700	1.209101
H137	H	0.938943	-1.372215	0.743567
H138	H	1.438943	-0.872215	1.243567
H139	H	1.062399	-1.179243	0.732574
H140	H	1.562399	-0.679243	1.232574
H141	H	1.084986	-0.628042	1.398442
H142	H	1.584986	-0.128042	1.898442
H143	H	1.012381	-0.978799	0.767665
H144	H	1.512381	-0.478799	1.267665
N145	N	0.451938	-0.738660	0.842291
N146	N	0.951938	-0.238660	1.342291
N147	N	0.459064	-0.804246	0.840972
N148	N	0.959064	-0.304246	1.340972
H149	H	0.417114	-0.835897	0.876999
H150	H	0.917114	-0.335897	1.376999
H151	H	1.300353	-1.188759	0.565044
H152	H	1.800353	-0.688759	1.065044
N153	N	0.946754	-0.713301	1.162161
N154	N	1.446754	-0.213301	1.662161
N155	N	0.932072	-0.722348	1.244235
N156	N	1.432072	-0.222348	1.744235
H157	H	0.884080	-0.751936	1.271546
H158	H	1.384080	-0.251936	1.771546
H159	H	1.201919	-0.555961	1.017024
H160	H	1.701919	-0.055961	1.517024
N161	N	1.264696	-0.517226	1.062101
N162	N	1.764696	-0.017226	1.562101
N163	N	1.257364	-0.455162	1.015412
N164	N	1.757364	0.044838	1.515412
H165	H	1.269237	-0.447829	0.949096
H166	H	1.769237	0.052171	1.449096
N167	N	0.529699	-0.430019	0.490837
N168	N	1.029699	0.069981	0.990837
N169	N	0.581634	-0.390865	0.446248
N170	N	1.081634	0.109135	0.946248
H171	H	0.558256	-0.348817	0.398355
H172	H	1.058256	0.151183	0.898355
N173	N	0.980365	-0.692578	1.308133
N174	N	1.480365	-0.192578	1.808133
N175	N	0.902466	-0.674044	1.283131
N176	N	1.402466	-0.174044	1.783131
H177	H	0.854475	-0.703646	1.310409
H178	H	1.354475	-0.203646	1.810409
H179	H	0.990399	-0.686413	0.987536
H180	H	1.490399	-0.186413	1.487536
H181	H	1.322252	-0.481727	1.346050
H182	H	1.822252	0.018273	1.846050
H183	H	1.071051	-1.092812	0.726421
H184	H	1.571051	-0.592812	1.226421
N185	N	1.007481	-0.837907	0.770999
N186	N	1.507481	-0.337907	1.270999
N187	N	0.960319	-0.784896	0.728148
N188	N	1.460319	-0.284896	1.228148
H189	H	0.914637	-0.756605	0.760276
H190	H	1.414637	-0.256605	1.260276
N191	N	0.635028	-0.767828	0.875486
N192	N	1.135028	-0.267828	1.375486
N193	N	0.621914	-0.830189	0.870493
N194	N	1.121914	-0.330189	1.370493
H195	H	0.645300	-0.872248	0.918366
H196	H	1.145300	-0.372248	1.418366
H197	H	1.241685	-1.074754	0.606296
H198	H	1.741685	-0.574754	1.106296
N199	N	1.263442	-0.996434	0.590892
N200	N	1.763442	-0.496434	1.090892
N201	N	1.240482	-1.026256	0.531053
N202	N	1.740482	-0.526256	1.031053
H203	H	1.286152	-1.054535	0.498899
H204	H	1.786152	-0.554535	0.998899
H205	H	0.685132	-0.412659	0.471092
H206	H	1.185132	0.087341	0.971092
N207	N	1.365896	-0.454812	1.171454
N208	N	1.865896	0.045188	1.671454
N209	N	1.362383	-0.390391	1.177869
N210	N	1.862383	0.109609	1.677869
H211	H	1.410374	-0.360790	1.150588
H212	H	1.910374	0.139210	1.650588
N213	N	0.809508	-0.636244	0.725655
N214	N	1.309508	-0.136244	1.225655
N215	N	0.796398	-0.698606	0.720665
N216	N	1.296398	-0.198606	1.220665
H217	H	0.819785	-0.740664	0.768539
H218	H	1.319785	-0.240664	1.268539
N219	N	0.752596	-0.679170	0.774547
N220	N	1.252596	-0.179170	1.274547
N221	N	0.781535	-0.731216	0.833807
N222	N	1.281535	-0.231216	1.333807
H223	H	0.846881	-0.741634	0.845667
H224	H	1.346881	-0.241634	1.345667
H225	H	0.849480	-0.438836	0.500886
H226	H	1.349480	0.061164	1.000886
N227	N	1.272624	-0.848534	0.584345
N228	N	1.772624	-0.348534	1.084345
N229	N	1.329144	-0.883556	0.544576
N230	N	1.829144	-0.383556	1.044576
H231	H	1.378095	-0.859065	0.510092
H232	H	1.878095	-0.359065	1.010092
H233	H	1.292119	-1.321518	0.570922
H234	H	1.792119	-0.821518	1.070922
