data_functionalizedCrystal
_audit_creation_method	'MofGen! by Chris Wilmer'
_symmetry_space_group_name_H-M	'P1'
_symmetry_Int_Tables_number	1
_symmetry_cell_setting	triclinic
loop_
_symmetry_equiv_pos_as_xyz
  x,y,z
_cell_length_a	16.109302
_cell_length_b	23.532407
_cell_length_c	14.586319
_cell_angle_alpha	89.991566
_cell_angle_beta	89.994552
_cell_angle_gamma	83.155229
loop_
_atom_site_label
_atom_site_type_symbol
_atom_site_fract_x
_atom_site_fract_y
_atom_site_fract_z
O1	O	1.102555	0.073204	-0.076291
O2	O	0.860421	0.082313	-0.076285
O3	O	0.988790	-0.005146	-0.076271
O4	O	0.974187	0.160663	-0.076305
O5	O	0.988781	-0.005147	0.076209
O6	O	0.860412	0.082312	0.076196
O7	O	1.102546	0.073203	0.076190
Cu8	Cu	0.981478	0.077757	0.090116
Cu9	Cu	0.981489	0.077759	-0.090211
O10	O	0.974178	0.160662	0.076176
C11	C	0.829445	0.081944	-0.000044
C12	C	0.737158	0.080837	-0.000041
C13	C	0.524833	0.078278	0.083068
C14	C	0.438121	0.077232	0.083065
C15	C	0.438141	0.077236	-0.083178
C16	C	0.524852	0.078278	-0.083174
C17	C	0.568195	0.078802	-0.000048
C18	C	0.394772	0.076714	-0.000055
C19	C	0.300755	0.075580	-0.000059
C20	C	0.662218	0.079935	-0.000044
C21	C	0.988413	-0.026364	-0.000029
C22	C	0.987295	-0.089585	-0.000022
C23	C	1.056248	-0.488434	-0.000074
C24	C	1.055210	-0.547838	-0.000080
O25	O	1.119130	-0.584347	-0.000116
N26	N	0.978895	-0.570746	-0.000078
C27	C	0.903614	-0.534246	-0.000078
O28	O	0.838607	-0.559186	-0.000077
C29	C	0.904653	-0.474843	-0.000077
C30	C	0.980973	-0.451939	-0.000071
C31	C	1.132562	-0.465529	-0.000068
C32	C	1.133600	-0.406129	-0.000059
C33	C	1.058325	-0.369634	-0.000056
C34	C	0.982011	-0.392539	-0.000062
C35	C	0.829373	-0.438345	-0.000084
C36	C	0.830419	-0.378938	-0.000084
C37	C	0.906739	-0.356034	-0.000077
C38	C	0.907774	-0.296644	-0.000050
N39	N	0.984089	-0.273736	-0.000053
C40	C	1.059364	-0.310231	-0.000056
C41	C	0.901436	-0.658997	-0.000080
C42	C	0.900396	-0.718398	-0.000074
C43	C	1.051993	-0.731986	-0.000078
C44	C	1.053032	-0.672583	-0.000078
C45	C	0.977751	-0.636089	-0.000083
C46	C	1.061539	-0.185486	-0.000037
C47	C	1.062571	-0.126080	-0.000024
C48	C	0.910975	-0.112498	-0.000025
C49	C	0.909943	-0.171898	-0.000032
C50	C	0.985232	-0.208392	-0.000042
O51	O	0.843887	-0.260100	-0.000019
O52	O	1.124361	-0.285283	-0.000069
C53	C	1.133522	0.073572	-0.000054
C54	C	1.225809	0.074679	-0.000063
C55	C	0.974554	0.181880	-0.000069
C56	C	0.975672	0.245101	-0.000082
N57	N	0.981477	0.077756	0.216947
N58	N	0.981497	0.077756	-0.217042
C59	C	1.038337	0.039042	0.451960
C60	C	1.038340	0.039040	0.547941
C61	C	0.924631	0.116472	0.547938
C62	C	0.924625	0.116470	0.451959
C63	C	0.981483	0.077756	0.403972
C64	C	0.981491	0.077756	0.595933
C65	C	0.981493	0.077755	0.700000
C66	C	0.981480	0.077756	0.299898
H67	H	0.402819	0.076806	0.150747
H68	H	0.847797	-0.190548	-0.000012
H69	H	0.560120	0.078704	0.150754
C70	C	1.142157	-0.613678	0.078305
C71	C	1.136925	-0.647411	-0.000078
H72	H	1.193954	-0.598144	0.078303
H73	H	1.097486	-0.583439	0.078297
H74	H	1.138592	-0.636578	0.131473
H75	H	1.140484	-0.624510	-0.053247
H76	H	1.181609	-0.677654	-0.000079
C77	C	1.087943	-0.059545	0.422480
C78	C	1.100826	-0.003530	0.399234
H79	H	1.126518	-0.085832	0.389934
H80	H	1.096071	-0.065067	0.486507
H81	H	1.032506	-0.065728	0.406749
H82	H	1.156262	0.002653	0.414972
H83	H	1.092705	0.001993	0.335193
C84	C	0.874984	0.215053	0.577460
C85	C	0.862135	0.159028	0.600683
H86	H	0.836397	0.241326	0.610017
H87	H	0.930411	0.221247	0.593185
H88	H	0.866846	0.220583	0.513427
H89	H	0.870280	0.153497	0.664715
H90	H	0.806696	0.152832	0.584964
H91	H	0.769115	-0.349227	-0.000089
H92	H	1.124722	-0.107435	-0.000017
H93	H	0.878323	0.147996	0.412885
H94	H	0.560159	0.078703	-0.150861
H95	H	0.838249	-0.737041	-0.000064
H96	H	1.122847	-0.215193	-0.000048
C97	C	0.421206	0.027996	-0.224873
C98	C	0.390495	0.076669	-0.174547
H99	H	0.391789	0.027648	-0.281280
H100	H	0.479047	0.028694	-0.236762
H101	H	0.413597	-0.005363	-0.190712
H102	H	0.398110	0.110029	-0.208706
H103	H	0.332640	0.075977	-0.162661
C104	C	1.117701	-0.829085	-0.000109
C105	C	1.134739	-0.772110	-0.000098
H106	H	1.168783	-0.853855	-0.000128
H107	H	1.086395	-0.836031	0.053065
H108	H	1.086381	-0.836009	-0.053283
H109	H	1.166054	-0.765184	0.053080
H110	H	1.166058	-0.765161	-0.053277
H111	H	1.195748	-0.387486	-0.000057
C112	C	0.761022	-0.105019	-0.000035
C113	C	0.828234	-0.072375	-0.000028
H114	H	0.709942	-0.080247	-0.000037
H115	H	0.763775	-0.128465	-0.053205
H116	H	0.763760	-0.128476	0.053143
H117	H	0.825499	-0.048921	-0.053209
H118	H	0.825479	-0.048919	0.053147
C119	C	1.282506	-0.472977	-0.000056
C120	C	1.215315	-0.505638	-0.000063
H121	H	1.333597	-0.497737	-0.000041
H122	H	1.279761	-0.449524	-0.053228
H123	H	1.279736	-0.449525	0.053119
H124	H	1.218082	-0.529087	-0.053241
H125	H	1.218062	-0.529101	0.053115
C126	C	1.057033	-0.038466	0.655886
C127	C	1.100837	-0.003515	0.600688
H128	H	1.095619	-0.064741	0.688444
H129	H	1.023185	-0.015410	0.698200
H130	H	1.022599	-0.058956	0.618442
H131	H	1.135267	0.016979	0.638132
H132	H	1.134700	-0.026573	0.558369
H133	H	0.840130	-0.629285	-0.000076
C134	C	0.679637	-0.418922	-0.000107
C135	C	0.745478	-0.463510	-0.000099
H136	H	0.627842	-0.434458	-0.000123
H137	H	0.683192	-0.396045	0.053067
H138	H	0.683220	-0.396029	-0.053280
H139	H	0.741899	-0.486401	0.053078
H140	H	0.741922	-0.486397	-0.053279
