data_functionalizedCrystal
_audit_creation_method	'MofGen! by Chris Wilmer'
_symmetry_space_group_name_H-M	'P1'
_symmetry_Int_Tables_number	1
_symmetry_cell_setting	triclinic
loop_
_symmetry_equiv_pos_as_xyz
  x,y,z
_cell_length_a	19.805407
_cell_length_b	17.637592
_cell_length_c	19.805399
_cell_angle_alpha	78.754426
_cell_angle_beta	90.017803
_cell_angle_gamma	78.769158
loop_
_atom_site_label
_atom_site_type_symbol
_atom_site_fract_x
_atom_site_fract_y
_atom_site_fract_z
Zn1	Zn	0.980221	0.314853	0.328120
Zn2	Zn	0.957242	0.447076	0.192016
Zn3	Zn	0.867033	0.314869	0.214946
Zn4	Zn	0.844114	0.447028	0.305175
O5	O	0.912152	0.380956	0.260064
O6	O	1.071887	0.332406	0.310072
O7	O	0.945251	0.429565	0.100337
O8	O	0.901256	0.204222	0.249157
O9	O	1.055004	0.429550	0.210077
O10	O	0.984414	0.204210	0.332306
O11	O	0.878974	0.332433	0.117183
O12	O	0.769278	0.332386	0.226908
O13	O	0.862194	0.429468	0.402940
O14	O	0.752440	0.429483	0.293199
O15	O	0.962191	0.332360	0.419798
O16	O	0.923027	0.557715	0.187828
O17	O	0.839912	0.557679	0.270965
C18	C	0.736301	0.380932	0.260052
C19	C	0.661067	0.380940	0.260060
C20	C	0.634499	0.330447	0.312177
C21	C	0.563810	0.330451	0.312179
C22	C	0.519689	0.380953	0.260066
C23	C	0.546262	0.431449	0.207943
C24	C	0.616951	0.431440	0.207939
C25	C	0.261183	0.431484	0.207957
C26	C	0.190490	0.431491	0.207966
C27	C	0.208041	0.330495	0.312198
C28	C	0.278730	0.330487	0.312194
C29	C	0.305297	0.380979	0.260069
C30	C	0.381947	0.380973	0.260067
C31	C	0.443040	0.380964	0.260070
C32	C	0.876507	0.586386	0.224434
C33	C	0.861320	0.674269	0.209213
C34	C	0.796647	0.798211	0.144426
C35	C	0.810922	0.715631	0.158733
C36	C	0.897465	0.715478	0.245404
C37	C	0.883200	0.798060	0.231102
C38	C	0.832789	0.839420	0.180613
C39	C	0.919342	0.839269	0.267288
C40	C	0.905074	0.921843	0.252989
C41	C	0.854665	0.963209	0.202504
C42	C	0.818521	0.921994	0.166314
C43	C	0.969749	0.797908	0.317780
C44	C	1.005891	0.839117	0.353966
C45	C	0.991627	0.921693	0.339665
C46	C	0.941218	0.963058	0.289180
C47	C	1.027771	0.962907	0.375855
C48	C	1.013503	1.045482	0.361556
C49	C	0.926950	1.045633	0.274881
C50	C	1.088691	0.380982	0.260077
C51	C	1.163921	0.380993	0.260082
C52	C	0.912199	0.380907	0.436616
C53	C	0.912219	0.380885	0.511851
C54	C	0.947925	1.174725	0.295841
C55	C	0.963092	1.086841	0.311067
C56	C	0.912155	0.380949	0.084210
C57	C	0.912305	0.380748	0.009013
C58	C	0.964289	0.330319	0.555975
C59	C	0.964300	0.330296	0.626667
C60	C	0.912243	0.380844	0.653234
C61	C	0.860168	0.431413	0.609105
C62	C	0.860154	0.431432	0.538415
C63	C	0.860218	0.431339	0.894191
C64	C	0.860237	0.431319	0.964887
C65	C	0.964364	0.330204	0.982444
C66	C	0.964351	0.330222	0.911754
C67	C	0.912274	0.380788	0.867631
C68	C	0.912262	0.380811	0.790979
C69	C	0.912257	0.380826	0.729885
H70	H	0.885904	1.079310	0.233764
H71	H	0.186403	0.289379	0.354638
Br72	Br	0.835407	1.075276	0.182990
Br73	Br	1.062554	1.101413	0.410666
Br74	Br	0.988846	0.685842	0.337451
Br75	Br	1.096169	0.906767	0.444385
H76	H	0.755601	0.831888	0.103310
H77	H	1.006702	0.289121	0.662590
Br78	Br	0.297233	0.499989	0.137203
H79	H	0.817780	0.472568	0.630742
Br80	Br	0.486386	0.499982	0.137211
H81	H	0.154567	0.472617	0.165526
H82	H	0.638581	0.472556	0.165499
H83	H	0.777476	0.955672	0.125197
Br84	Br	1.074296	0.782979	0.422492
H85	H	0.781486	0.682083	0.129262
Br86	Br	1.035005	0.261623	0.875702
H87	H	0.670417	0.289324	0.354616
H88	H	0.938508	0.681794	0.286514
Br89	Br	0.789482	0.500056	0.478532
H90	H	0.542181	0.289336	0.354620
H91	H	1.006681	0.289159	0.534350
H92	H	1.006765	0.289028	1.018378
Br93	Br	0.789584	0.499926	1.000941
H94	H	0.314650	0.289365	0.354632
H95	H	0.817822	0.472525	0.858273
