data_functionalizedCrystal
_audit_creation_method	'MofGen! by Chris Wilmer'
_symmetry_space_group_name_H-M	'P1'
_symmetry_Int_Tables_number	1
_symmetry_cell_setting	triclinic
loop_
_symmetry_equiv_pos_as_xyz
  x,y,z
_cell_length_a	14.044191
_cell_length_b	10.489746
_cell_length_c	12.503572
_cell_angle_alpha	93.558979
_cell_angle_beta	86.162165
_cell_angle_gamma	88.866539
loop_
_atom_site_label
_atom_site_type_symbol
_atom_site_fract_x
_atom_site_fract_y
_atom_site_fract_z
O1	O	1.265230	0.301028	-0.089270
O2	O	0.989186	0.289913	-0.089283
O3	O	1.133486	0.110511	-0.089268
O4	O	1.120930	0.480430	-0.089285
O5	O	1.122634	0.124027	0.089373
O6	O	0.978333	0.303429	0.089358
O7	O	1.254378	0.314545	0.089371
Cu8	Cu	1.115365	0.310221	0.105676
Cu9	Cu	1.128199	0.294236	-0.105588
O10	O	1.110078	0.493947	0.089356
C11	C	0.948412	0.291809	0.000036
C12	C	0.843087	0.277305	0.000031
C13	C	0.593322	0.353651	0.000038
C14	C	0.650248	0.250811	0.000041
C15	C	0.757553	0.265556	0.000035
C16	C	0.486007	0.338908	0.000043
C17	C	1.127111	0.069641	0.000052
C18	C	1.124270	-0.072277	0.000051
C19	C	1.030775	-0.234622	0.000033
C20	C	1.082869	-0.159151	-0.088042
C21	C	1.072192	-0.145864	0.088084
C22	C	1.171357	-0.249671	-0.088120
C23	C	1.160662	-0.236384	0.088085
C24	C	1.212823	-0.160958	-0.000012
C25	C	1.295152	0.312648	0.000050
C26	C	1.400477	0.327152	0.000048
C27	C	1.116453	0.534816	0.000034
C28	C	1.119294	0.676733	0.000027
N29	N	1.106345	0.321464	0.254267
N30	N	1.137226	0.282984	-0.254179
C31	C	1.093077	0.338013	0.473381
C32	C	1.150491	0.266438	0.526714
C33	C	1.143109	0.275647	0.648636
C34	C	1.100458	0.328806	0.351447
H35	H	0.625174	0.452760	0.000030
O36	O	1.027874	0.419539	0.528016
C37	C	1.045971	0.545592	0.500648
H38	H	1.087408	0.543465	0.418958
H39	H	1.089748	0.595065	0.563907
C40	C	0.899733	0.621944	0.595986
C41	C	0.950620	0.619331	0.495648
H42	H	0.840918	0.667433	0.592906
H43	H	0.887542	0.537020	0.614428
H44	H	0.936225	0.663169	0.648691
H45	H	0.914134	0.578093	0.442947
H46	H	0.962803	0.704250	0.477196
H47	H	1.213228	-0.294804	-0.162666
H48	H	1.289854	-0.128671	-0.000056
H49	H	0.618399	0.151688	-0.000031
H50	H	0.953809	-0.267157	-0.000058
H51	H	1.205190	0.198247	0.480807
O52	O	1.043531	-0.118562	-0.176798
C53	C	0.947627	-0.155896	-0.176508
H54	H	0.919647	-0.171874	-0.090797
H55	H	0.942910	-0.248295	-0.228714
C56	C	0.921400	-0.030654	-0.326722
C57	C	0.887032	-0.050268	-0.221449
H58	H	0.884022	0.034499	-0.354449
H59	H	0.986013	-0.005504	-0.326921
H60	H	0.917467	-0.107661	-0.370214
H61	H	0.890976	0.026734	-0.177957
H62	H	0.822417	-0.075402	-0.221244
H63	H	1.193473	-0.270461	0.162554
O64	O	1.022075	-0.091999	0.176896
C65	C	0.926202	-0.129348	0.176541
H66	H	0.921851	-0.222281	0.124960
H67	H	0.881688	-0.051607	0.142180
C68	C	0.892826	-0.035486	0.355598
C69	C	0.887484	-0.149633	0.292252
H70	H	0.868941	-0.047993	0.426974
H71	H	0.957417	-0.010318	0.355836
H72	H	0.855732	0.029287	0.326951
H73	H	0.924587	-0.214399	0.320891
H74	H	0.822898	-0.174812	0.292021
