data_functionalizedCrystal
_audit_creation_method	'MofGen! by Chris Wilmer'
_symmetry_space_group_name_H-M	'P1'
_symmetry_Int_Tables_number	1
_symmetry_cell_setting	triclinic
loop_
_symmetry_equiv_pos_as_xyz
  x,y,z
_cell_length_a	17.019282
_cell_length_b	17.000371
_cell_length_c	15.500227
_cell_angle_alpha	92.601831
_cell_angle_beta	91.034464
_cell_angle_gamma	79.503272
loop_
_atom_site_label
_atom_site_type_symbol
_atom_site_fract_x
_atom_site_fract_y
_atom_site_fract_z
O1	O	1.039349	0.101639	0.005516
O2	O	0.809720	0.113703	-0.011599
O3	O	0.938793	-0.008157	-0.001973
O4	O	0.910277	0.223500	-0.004110
O5	O	0.930962	-0.000792	0.141332
O6	O	0.801890	0.121069	0.131705
O7	O	1.031519	0.109005	0.148821
Cu8	Cu	0.915989	0.115709	0.153348
Cu9	Cu	0.925250	0.106999	-0.016126
O10	O	0.902447	0.230865	0.139194
C11	C	0.776569	0.116785	0.057874
C12	C	0.689454	0.114985	0.051381
C13	C	0.644264	0.118153	0.126448
C14	C	0.562413	0.116449	0.120350
C15	C	0.525753	0.111583	0.039183
C16	C	0.570950	0.108413	-0.035889
C17	C	0.652800	0.110111	-0.029790
C18	C	0.278832	0.106250	0.016860
C19	C	0.196975	0.104555	0.010766
C20	C	0.188445	0.112589	0.167006
C21	C	0.270296	0.114292	0.173098
C22	C	0.315487	0.111117	0.098025
C23	C	0.442088	0.109844	0.032948
C24	C	0.399151	0.112851	0.104262
C25	C	0.936409	-0.034124	0.069794
C26	C	0.940964	-0.122471	0.070132
C27	C	0.870875	-0.154681	0.064904
C28	C	0.875159	-0.237693	0.065226
C29	C	0.949533	-0.288493	0.070769
C30	C	1.019627	-0.256277	0.076000
C31	C	1.015341	-0.173267	0.075685
C32	C	0.966085	-0.539595	0.071997
C33	C	0.970365	-0.622611	0.072310
C34	C	0.825896	-0.604021	0.061537
C35	C	0.821618	-0.521010	0.061217
C36	C	0.891711	-0.488801	0.066452
C37	C	0.953914	-0.373344	0.071096
C38	C	0.887329	-0.403951	0.066132
C39	C	1.064671	0.105923	0.079346
C40	C	1.151785	0.107722	0.085833
C41	C	0.904830	0.256832	0.067426
C42	C	0.900276	0.345178	0.067082
N43	N	0.909482	0.121836	0.272548
N44	N	0.931764	0.100866	-0.135325
C45	C	0.964191	0.070218	0.321905
C46	C	0.959276	0.074859	0.412111
C47	C	0.899655	0.131121	0.452959
C48	C	0.844941	0.182741	0.403595
C49	C	0.849853	0.178096	0.313390
C50	C	0.881961	0.147841	0.725106
C51	C	0.877055	0.152484	0.815318
C52	C	0.991390	0.044600	0.823827
C53	C	0.996300	0.039963	0.733620
C54	C	0.941583	0.091580	0.684264
C55	C	0.894632	0.135868	0.545164
C56	C	0.946603	0.086829	0.592061
H57	H	0.525626	0.119015	0.181477
H58	H	1.030932	-0.663972	0.076819
Br59	Br	1.120563	-0.325218	0.083538
H60	H	0.412230	0.105882	-0.033138
Br61	Br	0.521204	0.101775	-0.146044
H62	H	0.837410	0.189871	0.684927
H63	H	0.674105	0.122122	0.192542
Br64	Br	1.033522	0.004803	0.479098
Br65	Br	0.786396	-0.335007	0.058616
H66	H	0.761055	-0.479653	0.056700
Br67	Br	0.769934	-0.085746	0.057372
Br68	Br	0.764019	0.259093	0.459027
Br69	Br	1.061214	-0.495895	0.079072
H70	H	1.012743	0.024407	0.288653
Br71	Br	0.730775	-0.647737	0.054432
H72	H	0.828502	0.198302	0.848571
H73	H	0.818086	-0.263914	0.060962
Br74	Br	0.775597	0.248146	0.246405
Br75	Br	0.714132	0.105805	-0.131671
H76	H	1.072415	-0.147043	0.079943
H77	H	1.014469	-0.414715	0.075608
H78	H	1.044848	-0.005850	0.700364
Br79	Br	1.065644	-0.025449	0.890813
H80	H	0.151643	0.115172	0.228125
Br81	Br	0.813718	0.212223	0.600604
H82	H	0.167129	0.100595	-0.055332
H83	H	0.995144	0.041018	0.558799
H84	H	0.300140	0.118250	0.239192
H85	H	0.315617	0.103663	-0.044270
Br86	Br	0.448907	0.119449	0.214412
