data_functionalizedCrystal
_audit_creation_method	'MofGen! by Chris Wilmer'
_symmetry_space_group_name_H-M	'P1'
_symmetry_Int_Tables_number	1
_symmetry_cell_setting	triclinic
loop_
_symmetry_equiv_pos_as_xyz
  x,y,z
_cell_length_a	12.759401
_cell_length_b	12.759400
_cell_length_c	12.759393
_cell_angle_alpha	89.969510
_cell_angle_beta	89.979062
_cell_angle_gamma	90.016209
loop_
_atom_site_label
_atom_site_type_symbol
_atom_site_fract_x
_atom_site_fract_y
_atom_site_fract_z
Zn1	Zn	1.606266	-0.418173	-0.594020
Zn2	Zn	1.606158	-0.593888	-0.418340
Zn3	Zn	1.430565	-0.418229	-0.418355
Zn4	Zn	1.430557	-0.593815	-0.593978
O5	O	1.518387	-0.506026	-0.506173
O6	O	1.753273	-0.441489	-0.570727
O7	O	1.582823	-0.570641	-0.271321
O8	O	1.453921	-0.271200	-0.441682
O9	O	1.753193	-0.570587	-0.441656
O10	O	1.583008	-0.271159	-0.570742
O11	O	1.453816	-0.441584	-0.271332
O12	O	1.283543	-0.441513	-0.441640
O13	O	1.453908	-0.570461	-0.741004
O14	O	1.283537	-0.570516	-0.570669
O15	O	1.583000	-0.441418	-0.741036
O16	O	1.582815	-0.740900	-0.441615
O17	O	1.453802	-0.740846	-0.570655
C18	C	1.245419	-0.506013	-0.506152
C19	C	1.128643	-0.506033	-0.506168
C20	C	1.073805	-0.573307	-0.573248
C21	C	0.964081	-0.573311	-0.573269
C22	C	0.964042	-0.438764	-0.439122
C23	C	1.073764	-0.438756	-0.439107
C24	C	1.518324	-0.778994	-0.506151
C25	C	1.518394	-0.895770	-0.506177
C26	C	1.585645	-0.950625	-0.439060
C27	C	1.585710	-1.060349	-0.439093
C28	C	1.451262	-1.060353	-0.573362
C29	C	1.451204	-0.950631	-0.573334
C30	C	1.652835	-0.895764	-0.371904
C31	C	1.720091	-0.950619	-0.304781
C32	C	1.720156	-1.060343	-0.304813
C33	C	1.652964	-1.115212	-0.371969
C34	C	1.792420	-0.506040	-0.506195
C35	C	1.909197	-0.506046	-0.506204
C36	C	1.518465	-0.505925	-0.780207
C37	C	1.518499	-0.505882	-0.896984
C38	C	1.518478	-0.231993	-0.506218
C39	C	1.518517	-0.115216	-0.506238
C40	C	1.585722	-0.438679	-0.951864
C41	C	1.585740	-0.438633	-1.061588
C42	C	1.451308	-0.573004	-1.061542
C43	C	1.451285	-0.573044	-0.951820
C44	C	1.518369	-0.506051	-0.233206
C45	C	1.518539	-0.505798	-0.116430
H46	H	0.919437	-0.628090	-0.627893
C47	C	1.645380	-0.379070	-0.783687
C48	C	1.659590	-0.364845	-0.891585
H49	H	1.690987	-0.333488	-0.746478
H50	H	1.574798	-0.363699	-0.765704
H51	H	1.660736	-0.449669	-0.765704
H52	H	1.644227	-0.294248	-0.909569
H53	H	1.730188	-0.380209	-0.909575
H54	H	1.396587	-0.627687	-1.106203
C55	C	0.930268	-0.260800	-0.388263
C56	C	0.903717	-0.364820	-0.365403
H57	H	0.893023	-0.215152	-0.342752
H58	H	1.003455	-0.251175	-0.378653
H59	H	0.912316	-0.245524	-0.458884
H60	H	0.921677	-0.380098	-0.294784
H61	H	0.830515	-0.374450	-0.375004
C62	C	1.771338	-0.916945	-0.126910
C63	C	1.793948	-0.890314	-0.230967
H64	H	1.816940	-0.879720	-0.081342
H65	H	1.700753	-0.899032	-0.111477
H66	H	1.781004	-0.990145	-0.117339
H67	H	1.784274	-0.817115	-0.240540
H68	H	1.864549	-0.908220	-0.246405
C69	C	1.197099	-0.423979	-0.297796
C70	C	1.134053	-0.364805	-0.365367
H71	H	1.234323	-0.378323	-0.252282
H72	H	1.154266	-0.469696	-0.257534
H73	H	1.245479	-0.464037	-0.337750
H74	H	1.085668	-0.324753	-0.325413
H75	H	1.176890	-0.319070	-0.405633
C76	C	1.725945	-0.738582	-0.298756
C77	C	1.652770	-0.775155	-0.371870
H78	H	1.725905	-0.664124	-0.298742
H79	H	1.707816	-0.763471	-0.230960
H80	H	1.793746	-0.763337	-0.316993
H81	H	1.584967	-0.750406	-0.353628
H82	H	1.670893	-0.750255	-0.439681
H83	H	1.640479	-0.383908	-1.106266
H84	H	1.774926	-1.105004	-0.250166
H85	H	1.396536	-0.627768	-0.907136
C86	C	1.726260	-1.272389	-0.298918
C87	C	1.653038	-1.235824	-0.372008
H88	H	1.726297	-1.346848	-0.298937
H89	H	1.794024	-1.247497	-0.317144
H90	H	1.708104	-1.247634	-0.231100
H91	H	1.671198	-1.260573	-0.439827
H92	H	1.585259	-1.260727	-0.353788
C93	C	1.318318	-0.961648	-0.706061
C94	C	1.377286	-0.890326	-0.647115
H95	H	1.272685	-0.924415	-0.751610
H96	H	1.364096	-1.004377	-0.746289
H97	H	1.278167	-1.004509	-0.660255
H98	H	1.417443	-0.847470	-0.692920
H99	H	1.331501	-0.847579	-0.606883
C100	C	1.062819	-0.706288	-0.705859
C101	C	1.134129	-0.647245	-0.646973
H102	H	1.100061	-0.751928	-0.751381
H103	H	1.019997	-0.746426	-0.660023
H104	H	1.020050	-0.660550	-0.746125
H105	H	1.176894	-0.692983	-0.606701
H106	H	1.176969	-0.607104	-0.692816
C107	C	1.391649	-1.228554	-0.633012
C108	C	1.377400	-1.120663	-0.647166
H109	H	1.346041	-1.265783	-0.678570
H110	H	1.462232	-1.246461	-0.648458
H111	H	1.376320	-1.246589	-0.562407
H112	H	1.392737	-1.102627	-0.717769
H113	H	1.306800	-1.102749	-0.631726
