data_functionalizedCrystal
_audit_creation_method	'MofGen! by Chris Wilmer'
_symmetry_space_group_name_H-M	'P1'
_symmetry_Int_Tables_number	1
_symmetry_cell_setting	triclinic
loop_
_symmetry_equiv_pos_as_xyz
  x,y,z
_cell_length_a	21.606444
_cell_length_b	21.606444
_cell_length_c	20.016444
_cell_angle_alpha	60.001162
_cell_angle_beta	90.000817
_cell_angle_gamma	59.999875
loop_
_atom_site_label
_atom_site_type_symbol
_atom_site_fract_x
_atom_site_fract_y
_atom_site_fract_z
Zr1	Zr	0.596210	0.677477	-0.087674
O2	O	0.497381	0.806596	-0.194343
O3	O	0.626507	0.548359	-0.054978
O4	O	0.626499	0.677483	-0.194353
O5	O	0.497394	0.677466	0.054977
O6	O	0.728349	0.677487	-0.194357
O7	O	0.497389	0.677471	-0.054968
O8	O	0.728363	0.446507	0.054960
O9	O	0.497379	0.908447	-0.194340
O10	O	0.715437	0.601470	-0.041032
O11	O	0.639431	0.601463	0.041021
O12	O	0.639422	0.753491	-0.123075
O13	O	0.563417	0.753484	-0.041021
Zr14	Zr	0.758657	0.677476	0.087669
Zr15	Zr	0.758648	0.677484	-0.087681
Zr16	Zr	0.596218	0.677469	0.087675
Zr17	Zr	0.596208	0.839917	-0.087669
Zr18	Zr	0.758659	0.515036	0.087663
O19	O	0.728359	0.806595	0.054972
O20	O	0.728347	0.806606	-0.194352
O21	O	0.497393	0.806585	0.054981
O22	O	0.857486	0.548357	0.194338
O23	O	0.857474	0.548368	-0.054987
O24	O	0.626519	0.548348	0.194347
O25	O	0.857472	0.677487	-0.054982
O26	O	0.728368	0.677470	0.194348
O27	O	0.626518	0.677466	0.194351
O28	O	0.857478	0.677482	0.054963
O29	O	0.626496	0.908452	-0.194345
O30	O	0.728370	0.446501	0.194339
O31	O	0.857487	0.446507	0.194334
O32	O	0.857480	0.446513	0.054955
O33	O	0.497386	0.908441	-0.054960
O34	O	0.626503	0.908446	-0.054965
O35	O	0.715445	0.601463	0.123069
O36	O	0.791450	0.601470	0.041016
O37	O	0.715435	0.753490	-0.041027
O38	O	0.639430	0.753483	0.041027
C39	C	0.677435	0.474289	-0.000010
C40	C	0.677436	0.405329	-0.000012
C41	C	0.717108	0.372935	-0.042845
C42	C	0.717111	0.308135	-0.042839
C43	C	0.677437	0.275734	-0.000006
C44	C	0.637763	0.308131	0.042832
C45	C	0.637765	0.372925	0.042831
C46	C	0.637754	0.046821	0.042839
C47	C	0.637753	-0.017976	0.042835
C48	C	0.717100	-0.017969	-0.042831
C49	C	0.717102	0.046825	-0.042832
C50	C	0.677432	0.079213	0.000009
C51	C	0.677431	0.149475	0.000003
C52	C	0.677433	0.205477	-0.000005
C53	C	0.474247	0.677468	0.000005
C54	C	0.405288	0.677465	0.000008
C55	C	0.412568	0.598112	0.042830
C56	C	0.347770	0.598115	0.042831
C57	C	0.275694	0.677471	0.000004
C58	C	0.268416	0.756829	-0.042820
C59	C	0.333212	0.756826	-0.042815
C60	C	0.007098	0.756845	-0.042838
C61	C	-0.057700	0.756842	-0.042841
C62	C	0.021656	0.598133	0.042808
C63	C	0.086452	0.598130	0.042813
C64	C	0.079169	0.677488	-0.000007
C65	C	0.149430	0.677485	-0.000006
C66	C	0.205434	0.677475	-0.000002
C67	C	0.880619	0.677485	-0.000011
C68	C	0.949579	0.677488	-0.000013
C69	C	0.677423	0.677486	-0.219339
C70	C	0.677419	0.677490	-0.293779
C71	C	0.677431	0.880665	0.000004
C72	C	0.677430	0.949625	0.000007
C73	C	0.637753	0.756833	-0.507861
C74	C	0.637759	0.756829	-0.577802
C75	C	0.717118	0.598114	-0.492137
C76	C	0.717116	0.598119	-0.422197
C77	C	0.677429	0.677481	-0.430062
C78	C	0.677437	0.677473	-0.569943
C79	C	0.677444	0.677468	-0.645776
C80	C	0.677423	0.677486	-0.354225
C81	C	0.677444	0.677467	0.219333
C82	C	0.677448	0.677464	0.293774
C83	C	0.880621	0.474297	-0.000018
C84	C	0.949581	0.405340	-0.000023
C85	C	0.677446	0.474279	0.219326
C86	C	0.677451	0.405315	0.293764
C87	C	0.880632	0.474288	0.219318
C88	C	0.949596	0.405327	0.293753
C89	C	0.474235	0.880666	-0.219324
C90	C	0.405271	0.949626	-0.293759
C91	C	0.474245	0.880656	0.000012
C92	C	0.405285	0.949613	0.000017
C93	C	0.677420	0.880674	-0.219331
C94	C	0.677416	0.949638	-0.293770
C95	C	0.942288	0.372957	-0.042861
C96	C	1.007077	0.308174	-0.042882
C97	C	1.079159	0.275770	-0.000060
C98	C	1.086451	0.308159	0.042779
C99	C	1.021663	0.372946	0.042795
C100	C	0.717131	0.372929	0.371557
C101	C	0.717132	0.308140	0.441506
C102	C	0.677457	0.275733	0.433661
C103	C	0.637772	0.308126	0.355860
C104	C	0.637767	0.372919	0.285913
C105	C	1.021663	0.372946	0.285878
C106	C	1.086468	0.308160	0.355811
C107	C	1.079204	0.275751	0.433619
C108	C	1.007130	0.308138	0.441493
C109	C	0.942326	0.372928	0.371561
C110	C	0.333204	0.982015	-0.285883
C111	C	0.268399	1.046822	-0.355817
C112	C	0.275662	1.079234	-0.433625
C113	C	0.347737	1.046843	-0.441499
C114	C	0.412540	0.982041	-0.371566
C115	C	0.412579	0.982003	0.042848
C116	C	0.347790	1.046804	0.042850
C117	C	0.275707	1.079211	0.000025
C118	C	0.268415	1.046818	-0.042810
C119	C	0.333204	0.982022	-0.042817
C120	C	0.717099	0.982024	-0.285898
C121	C	0.717109	1.046814	-0.355834
C122	C	0.677433	1.079221	-0.433641
C123	C	0.637749	1.046828	-0.441510
C124	C	0.637743	0.982035	-0.371575
H125	H	0.749416	0.281759	-0.077716
C126	C	0.760761	0.510826	-0.336610
C127	C	0.804406	0.423531	-0.327955
C128	C	0.848051	0.336243	-0.242371
C129	C	0.848049	0.336249	-0.165441
C130	C	0.804402	0.423548	-0.174093
C131	C	0.760758	0.510836	-0.259678
H132	H	0.804409	0.423523	-0.384906
H133	H	0.880361	0.271619	-0.235966
H134	H	0.880358	0.271633	-0.102086
H135	H	0.804400	0.423556	-0.117143
H136	H	0.728447	0.575460	-0.266083
H137	H	0.209719	1.073184	-0.349390
H138	H	0.353742	1.073167	0.077735
H139	H	1.027591	0.399324	0.222529
C140	C	0.355791	0.510818	0.089942
C141	C	0.322162	0.488983	0.044030
C142	C	0.330191	0.401679	0.091149
C143	C	0.371848	0.336211	0.184179
C144	C	0.405480	0.358044	0.230096
C145	C	0.397451	0.445348	0.182978
H146	H	0.291323	0.537448	-0.024841
H147	H	0.305295	0.385517	0.057157
H148	H	0.377791	0.271583	0.219059
H149	H	0.436319	0.309579	0.298967
H150	H	0.422347	0.461510	0.216969
H151	H	0.353642	1.073241	-0.504858
C152	C	0.863053	0.408533	0.380232
C153	C	0.855073	0.372871	0.465822
C154	C	0.775801	0.408471	0.474501
C155	C	0.704510	0.479733	0.397589
C156	C	0.712488	0.515398	0.311992
C157	C	0.791760	0.479798	0.303314
H158	H	0.907849	0.320115	0.522763
H159	H	0.769896	0.382068	0.537866
H160	H	0.645829	0.506086	0.404013
H161	H	0.659712	0.568154	0.255052
H162	H	0.797665	0.506201	0.239949
H163	H	0.327254	0.955653	-0.077692
C164	C	0.491864	0.946367	0.089957
C165	C	0.563140	0.875094	0.089963
C166	C	0.642423	0.839466	0.137071
C167	C	0.650430	0.875112	0.184174
C168	C	0.579152	0.946389	0.184170
C169	C	0.499869	0.982017	0.137061
H170	H	0.557215	0.848703	0.055093
H171	H	0.695188	0.786702	0.137074
H172	H	0.709120	0.848738	0.219046
H173	H	0.585077	0.972780	0.219039
H174	H	0.447104	1.034781	0.137059
C175	C	0.760751	0.082459	-0.089944
C176	C	0.804398	0.046819	-0.137052
C177	C	0.848053	0.082447	-0.184158
C178	C	0.848059	0.153715	-0.184157
C179	C	0.804410	0.189359	-0.137047
C180	C	0.760755	0.153731	-0.089941
H181	H	0.804395	-0.005941	-0.137054
H182	H	0.880365	0.056061	-0.219032
H183	H	0.880375	0.180089	-0.219028
H184	H	0.804413	0.242120	-0.137045
H185	H	0.728443	0.180118	-0.055067
H186	H	0.471219	0.955671	-0.377988
C187	C	0.999043	0.272547	-0.089999
C188	C	0.957373	0.334919	-0.183027
C189	C	0.949336	0.299294	-0.230142
C190	C	0.982970	0.201297	-0.184230
C191	C	1.024643	0.138919	-0.091197
C192	C	1.032679	0.174544	-0.044082
H193	H	0.932472	0.407468	-0.217019
H194	H	0.918487	0.345470	-0.299012
H195	H	0.977021	0.174925	-0.219107
H196	H	1.049543	0.066370	-0.057205
H197	H	1.063529	0.128367	0.024788
C198	C	0.594112	0.082440	0.089962
C199	C	0.614837	0.020064	0.182993
C200	C	0.571191	0.055682	0.230120
C201	C	0.506821	0.153676	0.184215
C202	C	0.486093	0.216058	0.091179
C203	C	0.529738	0.180440	0.044052
H204	H	0.662491	-0.052483	0.216979
H205	H	0.586536	0.009502	0.298992
H206	H	0.474512	0.180043	0.219101
H207	H	0.438439	0.288605	0.057193
H208	H	0.514394	0.226620	-0.024820
H209	H	0.883601	0.399340	-0.077742
H210	H	1.027612	0.399304	0.077684
H211	H	0.677467	0.222975	0.490623
C212	C	0.594081	0.946422	-0.380242
C213	C	0.594063	0.875154	-0.303327
C214	C	0.550400	0.839543	-0.312000
C215	C	0.506756	0.875200	-0.397589
C216	C	0.506773	0.946472	-0.474510
C217	C	0.550435	0.982083	-0.465836
H218	H	0.626373	0.848755	-0.239963
H219	H	0.550388	0.786783	-0.255058
H220	H	0.474434	0.848839	-0.404009
H221	H	0.474463	0.972872	-0.537873
H222	H	0.550448	1.034843	-0.522778
H223	H	1.131908	0.223015	-0.000079
C224	C	1.165742	0.272537	0.347136
C225	C	1.221207	0.174542	0.383433
C226	C	1.300478	0.138921	0.374755
C227	C	1.324286	0.201296	0.329779
C228	C	1.268820	0.299297	0.293479
C229	C	1.189549	0.334918	0.302157
H230	H	1.203584	0.128363	0.416730
H231	H	1.341537	0.066374	0.401627
H232	H	1.382967	0.174927	0.323355
H233	H	1.286443	0.345476	0.260182
H234	H	1.148490	0.407465	0.275285
H235	H	0.749439	0.399308	0.377960
H236	H	0.749408	0.955648	-0.222551
C237	C	0.760758	1.082442	-0.347164
C238	C	0.846942	1.020073	-0.302194
C239	C	0.890589	1.055701	-0.293521
C240	C	0.848051	1.153697	-0.329819
C241	C	0.761862	1.216072	-0.374793
C242	C	0.718215	1.180444	-0.383465
H243	H	0.878435	0.947526	-0.275321
H244	H	0.954392	1.009526	-0.260228
H245	H	0.880361	1.180070	-0.323399
H246	H	0.730369	1.288619	-0.401665
H247	H	0.654412	1.226619	-0.416758
C248	C	0.594138	0.272466	0.347242
C249	C	0.614863	0.227904	0.302306
C250	C	0.571234	0.192236	0.293692
C251	C	0.506881	0.201129	0.330013
C252	C	0.486152	0.245693	0.374952
C253	C	0.529781	0.281361	0.383566
H254	H	0.662504	0.221319	0.275416
H255	H	0.586579	0.159247	0.260425
H256	H	0.474584	0.174726	0.323636
H257	H	0.438511	0.252278	0.401842
H258	H	0.514436	0.314350	0.416833
C259	C	0.594124	0.408563	0.089946
C260	C	0.550480	0.372928	0.137061
C261	C	0.506840	0.408562	0.184181
C262	C	0.506844	0.479829	0.184185
C263	C	0.550489	0.515468	0.137068
C264	C	0.594129	0.479835	0.089949
H265	H	0.550476	0.320168	0.137059
H266	H	0.474531	0.382179	0.219060
H267	H	0.474540	0.506207	0.219066
H268	H	0.550494	0.568228	0.137070
H269	H	0.626438	0.506217	0.055069
H270	H	0.605464	0.281741	0.077713
H271	H	0.749412	0.399315	-0.077729
H272	H	0.749404	-0.044349	-0.077712
C273	C	0.325201	0.946375	-0.200300
C274	C	0.245920	0.982022	-0.191654
C275	C	0.237909	0.946392	-0.106074
C276	C	0.309179	0.875115	-0.029139
C277	C	0.388466	0.839464	-0.037782
C278	C	0.396476	0.875094	-0.123362
H279	H	0.193157	1.034790	-0.248609
H280	H	0.179216	0.972784	-0.099676
H281	H	0.303249	0.848740	0.034213
H282	H	0.441229	0.786697	0.019172
H283	H	0.455170	0.848702	-0.129760
H284	H	0.605444	-0.044355	0.077718
H285	H	0.471252	0.533491	0.077709
H286	H	0.145138	0.533510	0.077684
H287	H	0.605457	0.399279	0.222573
H288	H	0.222959	1.131972	0.000037
C289	C	-0.000923	0.844139	-0.089952
C290	C	0.032707	0.865966	-0.159431
C291	C	0.024685	0.953266	-0.206553
C292	C	-0.016968	1.018740	-0.184195
C293	C	-0.050601	0.996914	-0.114712
C294	C	-0.042579	0.909614	-0.067591
H295	H	0.063544	0.817497	-0.175985
H296	H	0.049583	0.969422	-0.257988
H297	H	-0.022907	1.083364	-0.219077
H298	H	-0.081438	1.045383	-0.098159
H299	H	-0.067477	0.893458	-0.016155
H300	H	0.209717	1.073213	-0.077677
C301	C	0.029668	0.510836	0.089920
C302	C	-0.041600	0.510829	0.089926
C303	C	-0.033587	0.423534	0.137034
C304	C	0.045695	0.336245	0.184137
C305	C	0.116969	0.336249	0.184134
C306	C	0.108956	0.423544	0.137025
H307	H	-0.100294	0.575448	0.055055
H308	H	-0.086349	0.423532	0.137036
H309	H	0.051627	0.271624	0.219009
H310	H	0.175663	0.271630	0.219004
H311	H	0.161718	0.423546	0.137023
H312	H	0.677443	1.131980	-0.490580
H313	H	-0.116390	0.821467	-0.077717
H314	H	0.749451	0.281774	0.504847
H315	H	0.209725	0.821442	-0.077685
C316	C	1.165747	0.272498	0.089890
C317	C	1.221207	0.281395	0.043971
C318	C	1.300504	0.245724	0.091088
C319	C	1.324341	0.201156	0.184125
C320	C	1.268880	0.192257	0.230050
C321	C	1.189583	0.227928	0.182932
H322	H	1.203562	0.314389	-0.024905
H323	H	1.341560	0.252312	0.057091
H324	H	1.383042	0.174750	0.219005
H325	H	1.286525	0.159263	0.298926
H326	H	1.148527	0.221340	0.216929
H327	H	1.131978	0.222994	0.490556
H328	H	0.327280	0.821443	-0.077675
H329	H	0.605437	0.821454	-0.514270
H330	H	0.605445	1.073224	-0.504869
H331	H	0.605452	0.821445	-0.641147
H332	H	0.749429	0.533501	-0.485743
H333	H	1.001227	0.281741	0.504854
H334	H	0.222889	1.131999	-0.490562
