data_functionalizedCrystal
_audit_creation_method	'MofGen! by Chris Wilmer'
_symmetry_space_group_name_H-M	'P1'
_symmetry_Int_Tables_number	1
_symmetry_cell_setting	triclinic
loop_
_symmetry_equiv_pos_as_xyz
  x,y,z
_cell_length_a	10.686220
_cell_length_b	10.686551
_cell_length_c	10.686496
_cell_angle_alpha	90.362041
_cell_angle_beta	90.300209
_cell_angle_gamma	90.308082
loop_
_atom_site_label
_atom_site_type_symbol
_atom_site_fract_x
_atom_site_fract_y
_atom_site_fract_z
Zn1	Zn	1.997210	-0.583823	0.304036
Zn2	Zn	2.497210	-0.083823	0.804036
Zn3	Zn	1.999484	-0.389980	0.529756
Zn4	Zn	2.499484	0.110020	1.029756
Zn5	Zn	1.773944	-0.392390	0.335938
Zn6	Zn	2.273944	0.107610	0.835938
Zn7	Zn	1.805707	-0.615580	0.527229
Zn8	Zn	2.305707	-0.115580	1.027229
O9	O	1.894086	-0.495443	0.424240
O10	O	2.394086	0.004557	0.924240
O11	O	2.172046	-0.543811	0.321685
O12	O	2.672046	-0.043811	0.821685
O13	O	1.957224	-0.215770	0.518454
O14	O	2.457224	0.284230	1.018454
O15	O	1.789316	-0.405503	0.157186
O16	O	2.289316	0.094497	0.657186
O17	O	2.173716	-0.401395	0.487520
O18	O	2.673716	0.098605	0.987520
O19	O	1.953349	-0.546148	0.133747
O20	O	2.453349	-0.046148	0.633747
O21	O	1.791521	-0.217541	0.376057
O22	O	2.291521	0.282459	0.876057
O23	O	1.603623	-0.436296	0.373606
O24	O	2.103623	0.063704	0.873606
O25	O	1.843452	-0.785897	0.483213
O26	O	2.343452	-0.285897	0.983213
O27	O	1.626959	-0.600272	0.514147
O28	O	2.126959	-0.100272	1.014147
O29	O	1.984148	-0.762566	0.319234
O30	O	2.484148	-0.262566	0.819234
O31	O	1.988023	-0.432188	0.703941
O32	O	2.488023	0.067812	1.203941
O33	O	1.845656	-0.597935	0.702084
O34	O	2.345656	-0.097935	1.202084
C35	C	1.570037	-0.521992	0.447065
C36	C	2.070037	-0.021992	0.947065
C37	C	1.431411	-0.533381	0.456857
C38	C	1.931411	-0.033381	0.956857
C39	C	1.917089	-0.820750	0.397383
C40	C	2.417089	-0.320750	0.897383
C41	C	1.926892	-0.959376	0.385939
C42	C	2.426892	-0.459376	0.885939
C43	C	2.219401	-0.468792	0.401326
C44	C	2.719401	0.031208	0.901326
C45	C	2.358031	-0.457435	0.391562
C46	C	2.858031	0.042565	0.891562
C47	C	1.920569	-0.518270	0.748259
C48	C	2.420569	-0.018270	1.248259
C49	C	1.932015	-0.528068	0.886865
C50	C	2.432015	-0.028068	1.386865
C51	C	1.871237	-0.171390	0.450897
C52	C	2.371237	0.328610	0.950897
C53	C	1.861647	-0.032720	0.461973
C54	C	2.361647	0.467280	0.961973
C55	C	1.867485	-0.472548	1.098954
C56	C	2.367485	0.027452	1.598954
C57	C	1.856020	-0.462782	0.960348
C58	C	2.356020	0.037218	1.460348
H59	H	1.388177	-0.607114	0.520263
H60	H	1.888177	-0.107114	1.020263
F61	F	1.759538	-0.379926	0.903982
F62	F	2.259538	0.120074	1.403982
H63	H	2.005843	-0.591451	0.929997
H64	H	2.505843	-0.091451	1.429997
F65	F	1.414531	-0.361054	0.308701
F66	F	1.914531	0.138946	0.808701
F67	F	1.778836	-0.976178	0.558509
F68	F	2.278836	-0.476178	1.058509
F69	F	2.009721	-1.015923	0.289409
F70	F	2.509721	-0.515923	0.789409
