data_functionalizedCrystal
_audit_creation_method	'MofGen! by Chris Wilmer'
_symmetry_space_group_name_H-M	'P1'
_symmetry_Int_Tables_number	1
_symmetry_cell_setting	triclinic
loop_
_symmetry_equiv_pos_as_xyz
  x,y,z
_cell_length_a	12.759395
_cell_length_b	12.759394
_cell_length_c	12.759387
_cell_angle_alpha	89.968340
_cell_angle_beta	89.979491
_cell_angle_gamma	90.016374
loop_
_atom_site_label
_atom_site_type_symbol
_atom_site_fract_x
_atom_site_fract_y
_atom_site_fract_z
Zn1	Zn	1.606268	-0.418168	-0.593999
Zn2	Zn	1.606158	-0.593885	-0.418317
Zn3	Zn	1.430566	-0.418225	-0.418336
Zn4	Zn	1.430558	-0.593810	-0.593956
O5	O	1.518387	-0.506022	-0.506152
O6	O	1.753274	-0.441485	-0.570704
O7	O	1.582823	-0.570639	-0.271298
O8	O	1.453922	-0.271197	-0.441664
O9	O	1.753194	-0.570583	-0.441631
O10	O	1.583010	-0.271155	-0.570723
O11	O	1.453816	-0.441582	-0.271312
O12	O	1.283544	-0.441510	-0.441622
O13	O	1.453909	-0.570456	-0.740983
O14	O	1.283538	-0.570511	-0.570649
O15	O	1.583002	-0.441412	-0.741014
O16	O	1.582815	-0.740896	-0.441590
O17	O	1.453802	-0.740841	-0.570631
C18	C	1.245420	-0.506009	-0.506134
C19	C	1.128643	-0.506029	-0.506151
C20	C	1.128676	-0.640576	-0.640290
C21	C	1.073831	-0.707857	-0.707362
C22	C	0.964109	-0.707870	-0.707375
C23	C	0.909230	-0.640592	-0.640310
C24	C	0.964074	-0.573310	-0.573238
C25	C	1.073799	-0.573307	-0.573230
C26	C	0.964042	-0.438760	-0.439106
C27	C	1.073764	-0.438751	-0.439086
C28	C	0.909162	-0.371482	-0.372042
C29	C	0.964007	-0.304204	-0.304962
C30	C	1.073735	-0.304195	-0.304951
C31	C	1.128608	-0.371469	-0.372014
C32	C	1.518324	-0.778990	-0.506126
C33	C	1.518393	-0.895766	-0.506151
C34	C	1.652835	-0.895770	-0.371881
C35	C	1.720083	-0.950633	-0.304758
C36	C	1.720145	-1.060354	-0.304786
C37	C	1.652953	-1.115216	-0.371947
C38	C	1.585705	-1.060353	-0.439070
C39	C	1.585648	-0.950629	-0.439032
C40	C	1.451270	-1.060349	-0.573343
C41	C	1.451202	-0.950628	-0.573311
C42	C	1.384079	-1.115211	-0.640504
C43	C	1.316823	-1.060348	-0.707623
C44	C	1.316764	-0.950620	-0.707591
C45	C	1.383954	-0.895765	-0.640434
C46	C	1.792421	-0.506036	-0.506170
C47	C	1.909197	-0.506042	-0.506178
C48	C	1.518467	-0.505919	-0.780185
C49	C	1.518500	-0.505875	-0.896962
C50	C	1.518479	-0.231989	-0.506200
C51	C	1.518518	-0.115212	-0.506221
C52	C	1.652934	-0.371511	-0.897015
C53	C	1.720166	-0.304313	-0.951902
C54	C	1.720192	-0.304275	-1.061624
C55	C	1.652976	-0.371439	-1.116461
C56	C	1.585744	-0.438637	-1.061574
C57	C	1.585728	-0.438671	-0.951849
C58	C	1.451307	-0.572995	-1.061521
C59	C	1.451285	-0.573040	-0.951799
C60	C	1.384091	-0.640159	-1.116358
C61	C	1.316863	-0.707364	-1.061471
C62	C	1.316841	-0.707400	-0.951742
C63	C	1.384053	-0.640238	-0.896912
C64	C	1.518369	-0.506049	-0.233184
C65	C	1.518538	-0.505797	-0.116408
H66	H	1.652778	-0.806429	-0.371837
O67	O	1.244352	-1.119523	-0.780042
H68	H	1.291378	-1.169434	-0.833543
H69	H	1.262136	-0.762038	-1.106128
O70	O	1.244306	-0.779858	-0.892542
H71	H	1.197574	-0.826547	-0.949110
H72	H	1.652930	-0.371545	-0.807674
H73	H	1.217949	-0.371471	-0.372008
H74	H	0.819821	-0.371492	-0.372061
H75	H	1.774931	-0.249550	-1.106313
H76	H	1.774890	-0.249627	-0.907242
O77	O	1.383870	-0.777422	-0.640406
H78	H	1.463083	-0.748398	-0.661700
O79	O	1.244220	-0.891446	-0.779977
H80	H	1.197505	-0.948031	-0.826669
O81	O	1.384025	-0.640290	-0.778569
H82	H	1.362814	-0.561056	-0.749648
H83	H	1.218017	-0.640580	-0.640278
H84	H	1.384138	-1.204552	-0.640527
O85	O	1.652991	-0.371395	-1.234804
H86	H	1.711033	-0.313385	-1.263757
H87	H	0.919315	-0.249426	-0.250369
H88	H	0.919455	-0.762651	-0.761996
H89	H	1.774792	-0.905955	-0.250078
O90	O	1.384111	-0.640124	-1.234701
H91	H	1.442160	-0.582122	-1.263657
H92	H	1.118383	-0.249398	-0.250340
O93	O	1.133018	-0.780397	-0.779720
H94	H	1.218529	-0.769086	-0.768449
O95	O	1.792670	-1.119538	-0.232390
H96	H	1.839378	-1.062962	-0.185679
H97	H	1.653018	-1.204557	-0.371973
O98	O	0.790887	-0.640634	-0.640287
H99	H	0.761970	-0.698735	-0.698178
