data_functionalizedCrystal
_audit_creation_method	'MofGen! by Chris Wilmer'
_symmetry_space_group_name_H-M	'P1'
_symmetry_Int_Tables_number	1
_symmetry_cell_setting	triclinic
loop_
_symmetry_equiv_pos_as_xyz
  x,y,z
_cell_length_a	14.971482
_cell_length_b	13.262508
_cell_length_c	13.448316
_cell_angle_alpha	105.911733
_cell_angle_beta	89.993798
_cell_angle_gamma	84.039810
loop_
_atom_site_label
_atom_site_type_symbol
_atom_site_fract_x
_atom_site_fract_y
_atom_site_fract_z
O1	O	1.187331	0.136760	-0.045689
O2	O	0.926976	0.153143	-0.041262
O3	O	1.063707	-0.007827	-0.084792
O4	O	1.050600	0.297730	-0.002159
O5	O	1.063689	-0.007837	0.080589
O6	O	0.926958	0.153134	0.124119
O7	O	1.187313	0.136750	0.119693
Cu8	Cu	1.057134	0.144941	0.137006
Cu9	Cu	1.057155	0.144953	-0.058576
O10	O	1.050582	0.297720	0.163222
C11	C	0.893640	0.152407	0.041230
C12	C	0.794337	0.150213	0.040635
C13	C	0.747680	0.149174	0.130506
C14	C	0.654376	0.147096	0.129945
C15	C	0.607729	0.146065	0.039514
C16	C	0.654393	0.147100	-0.050364
C17	C	0.747696	0.149171	-0.049805
C18	C	0.459919	0.142788	-0.051524
C19	C	0.366609	0.140719	-0.052084
C20	C	0.366598	0.140713	0.128225
C21	C	0.459902	0.142784	0.128785
C22	C	0.506559	0.143821	0.038907
C23	C	1.062965	-0.046935	-0.012678
C24	C	1.060769	-0.163452	-0.044195
C25	C	1.054538	-0.491927	0.227574
C26	C	1.056594	-0.382453	0.257187
C27	C	1.057638	-0.327697	0.181844
C28	C	1.056626	-0.382426	0.076884
C29	C	1.054563	-0.491910	0.047269
C30	C	1.057663	-0.327680	0.001538
C31	C	1.056651	-0.382409	-0.103422
C32	C	1.054588	-0.491882	-0.133032
C33	C	1.053544	-0.546638	-0.057689
C34	C	1.059726	-0.218197	0.031153
C35	C	1.059751	-0.218180	-0.149152
C36	C	1.057695	-0.327654	-0.178765
C37	C	1.220649	0.137487	0.037198
C38	C	1.319952	0.139681	0.037787
C39	C	1.051324	0.336829	0.091107
C40	C	1.053520	0.453345	0.122616
N41	N	1.057126	0.144932	0.274568
N42	N	1.057170	0.144953	-0.196140
C43	C	1.117690	0.073684	0.307342
C44	C	1.117695	0.073683	0.411445
C45	C	1.057141	0.144936	0.482774
C46	C	0.996571	0.216188	0.449994
C47	C	0.996562	0.216183	0.345892
C48	C	0.996596	0.216195	0.666976
C49	C	0.996606	0.216201	0.771087
C50	C	1.117730	0.073695	0.732529
C51	C	1.117720	0.073690	0.628427
C52	C	1.057151	0.144943	0.595655
H53	H	0.328606	0.139869	0.201408
H54	H	0.328632	0.139880	-0.125721
O55	O	1.057632	-0.329463	0.359179
C56	C	1.056256	-0.401261	0.419330
H57	H	1.083061	-0.483609	0.370621
H58	H	0.984364	-0.401979	0.446868
C59	C	1.082734	-0.266341	0.573457
C60	C	1.115664	-0.367481	0.513634
H61	H	1.119376	-0.245502	0.631632
H62	H	1.083658	-0.217968	0.532934
H63	H	1.022824	-0.266952	0.596395
H64	H	1.175567	-0.366865	0.490687
H65	H	1.114751	-0.415853	0.554156
H66	H	1.056870	-0.372230	-0.264225
O67	O	1.176623	0.004445	0.443119
C68	C	1.230061	-0.058453	0.357837
H69	H	1.231209	-0.015423	0.295260
H70	H	1.200750	-0.136491	0.325681
C71	C	1.325067	-0.132721	0.469505
C72	C	1.326483	-0.079866	0.392650
H73	H	1.384544	-0.145935	0.490979
H74	H	1.289064	-0.090349	0.526961
H75	H	1.300637	-0.197746	0.442698
H76	H	1.350902	-0.014837	0.419462
H77	H	1.362493	-0.122228	0.335199
H78	H	1.059311	-0.238558	0.205961
O79	O	0.937822	0.285541	0.314136
C80	C	0.952727	0.389471	0.367681
H81	H	1.024340	0.390127	0.396458
H82	H	0.903269	0.420206	0.436427
C83	C	0.851120	0.459790	0.259089
C84	C	0.939080	0.460597	0.294425
H85	H	0.842699	0.503666	0.213904
H86	H	0.841076	0.389771	0.223017
H87	H	0.809916	0.485401	0.316385
H88	H	0.980283	0.434975	0.237131
H89	H	0.949132	0.530614	0.330486
O90	O	0.505099	0.143847	-0.138907
C91	C	0.443925	0.142474	-0.218849
H92	H	0.373829	0.174190	-0.183839
H93	H	0.443087	0.058121	-0.269392
C94	C	0.559014	0.173123	-0.328194
C95	C	0.472922	0.212086	-0.285193
H96	H	0.576902	0.216059	-0.369121
H97	H	0.600230	0.174044	-0.274337
H98	H	0.558305	0.102830	-0.370305
H99	H	0.473636	0.282373	-0.243073
H100	H	0.431707	0.211179	-0.339045
H101	H	1.167032	0.015675	0.570351
H102	H	0.616407	0.146253	-0.123997
H103	H	0.947296	0.274222	0.829159
H104	H	1.060542	-0.173646	0.116613
H105	H	0.947271	0.274214	0.640298
O106	O	1.053494	-0.544908	-0.235018
C107	C	0.976628	-0.506382	-0.279451
H108	H	0.952314	-0.422971	-0.231253
H109	H	0.921288	-0.559752	-0.281411
C110	C	1.030124	-0.607326	-0.449643
C111	C	1.000266	-0.504875	-0.390451
H112	H	1.044702	-0.606400	-0.518115
H113	H	1.081909	-0.633285	-0.419708
H114	H	0.984002	-0.651789	-0.451265
H115	H	1.046390	-0.460416	-0.388819
H116	H	0.948489	-0.478908	-0.420388
H117	H	0.785683	0.150018	-0.122986
H118	H	0.785652	0.150023	0.204148
H119	H	1.060594	-0.173597	-0.210503
O120	O	1.176373	0.004381	0.237946
C121	C	1.128198	-0.060479	0.160259
H122	H	1.058379	-0.018773	0.155930
H123	H	1.121797	-0.138027	0.179458
C124	C	1.264287	-0.134137	0.060628
C125	C	1.178537	-0.082909	0.055305
H126	H	1.295340	-0.147977	-0.004113
H127	H	1.296744	-0.090442	0.112968
H128	H	1.258941	-0.198755	0.076631
H129	H	1.183885	-0.018287	0.039315
H130	H	1.146082	-0.126593	0.002959
H131	H	1.051875	-0.635781	-0.081795
H132	H	0.616394	0.146233	0.203122
H133	H	1.167046	0.015678	0.759218
O134	O	0.505082	0.143740	0.216704
C135	C	0.443894	0.142406	0.295921
H136	H	0.380967	0.107728	0.260120
H137	H	0.424892	0.226322	0.346333
C138	C	0.565016	0.117028	0.406684
C139	C	0.487731	0.074427	0.362713
H140	H	0.592056	0.075099	0.447888
H141	H	0.606240	0.117930	0.353316
H142	H	0.549170	0.186957	0.448687
H143	H	0.503579	0.004504	0.320701
H144	H	0.446510	0.073511	0.416075
H145	H	1.053682	-0.536518	0.288907
O146	O	0.937711	0.285258	0.519353
C147	C	0.882320	0.228943	0.564344
H148	H	0.917646	0.146882	0.557746
H149	H	0.816185	0.221682	0.522280
C150	C	0.820044	0.388874	0.687326
C151	C	0.863436	0.288088	0.679230
H152	H	0.808392	0.425359	0.758192
H153	H	0.857359	0.426816	0.657013
H154	H	0.764937	0.382809	0.652266
H155	H	0.918547	0.294155	0.714278
H156	H	0.826130	0.250149	0.709552
