data_functionalizedCrystal
_audit_creation_method	'MofGen! by Chris Wilmer'
_symmetry_space_group_name_H-M	'P1'
_symmetry_Int_Tables_number	1
_symmetry_cell_setting	triclinic
loop_
_symmetry_equiv_pos_as_xyz
  x,y,z
_cell_length_a	8.497374
_cell_length_b	8.497374
_cell_length_c	12.759395
_cell_angle_alpha	90.001171
_cell_angle_beta	89.997371
_cell_angle_gamma	90.005237
loop_
_atom_site_label
_atom_site_type_symbol
_atom_site_fract_x
_atom_site_fract_y
_atom_site_fract_z
Zn1	Zn	0.628265	0.892083	1.606168
Zn2	Zn	0.892011	0.628349	1.606159
Zn3	Zn	0.628245	0.628313	1.430525
Zn4	Zn	0.892004	0.892083	1.430500
O5	O	0.760131	0.760207	1.518338
O6	O	0.663262	0.857113	1.753187
O7	O	0.857016	0.407582	1.582868
O8	O	0.407486	0.663288	1.453838
O9	O	0.857035	0.663349	1.753181
O10	O	0.407500	0.857078	1.582882
O11	O	0.663229	0.407555	1.453830
O12	O	0.663223	0.663287	1.283501
O13	O	0.857024	1.112845	1.453795
O14	O	0.857005	0.857078	1.283482
O15	O	0.663256	1.112845	1.582858
O16	O	1.112772	0.663348	1.582844
O17	O	1.112767	0.857113	1.453787
C18	C	0.760112	0.760180	1.245370
C19	C	0.760142	0.760205	1.128594
C20	C	1.170011	0.760230	1.518325
C21	C	1.348655	0.760204	1.518353
C22	C	0.760133	1.171687	1.518330
C23	C	0.760150	1.350331	1.518332
C24	C	0.962253	0.961673	1.128613
C25	C	1.063321	1.062412	1.073762
C26	C	1.063341	1.062431	0.964040
C27	C	0.962277	0.961704	0.909167
C28	C	0.861209	0.860966	0.964018
C29	C	0.861204	0.860954	1.073743
C30	C	0.659092	0.659509	0.963999
C31	C	0.659078	0.659479	1.073721
C32	C	0.558029	0.558782	0.909126
C33	C	0.456966	0.458033	0.963977
C34	C	0.456952	0.458017	1.073705
C35	C	0.558010	0.558740	1.128572
C36	C	0.760152	0.760235	1.792371
C37	C	0.760160	0.760247	1.909148
H38	H	0.962259	0.961656	1.217954
Cl39	Cl	0.558008	0.558722	1.266508
H40	H	1.145603	1.144424	1.118452
H41	H	1.145631	1.144469	0.919381
H42	H	0.962288	0.961743	0.819826
H43	H	0.558045	0.558812	0.819785
Cl44	Cl	0.329879	0.331374	1.142652
H45	H	0.374681	0.376037	0.919291
