data_functionalizedCrystal
_audit_creation_method	'MofGen! by Chris Wilmer'
_symmetry_space_group_name_H-M	'P1'
_symmetry_Int_Tables_number	1
_symmetry_cell_setting	triclinic
loop_
_symmetry_equiv_pos_as_xyz
  x,y,z
_cell_length_a	15.944551
_cell_length_b	8.559649
_cell_length_c	7.681481
_cell_angle_alpha	85.086760
_cell_angle_beta	84.256492
_cell_angle_gamma	103.361299
loop_
_atom_site_label
_atom_site_type_symbol
_atom_site_fract_x
_atom_site_fract_y
_atom_site_fract_z
O1	O	-0.019570	-2.105021	-0.146399
O2	O	0.023810	-1.639821	-0.146411
O3	O	-0.120976	-1.885126	-0.146389
O4	O	0.125215	-1.859716	-0.146421
O5	O	-0.138833	-1.915319	0.146471
O6	O	0.005953	-1.670014	0.146450
O7	O	-0.037427	-2.135214	0.146461
Zn8	Zn	-0.018572	-1.907408	0.192953
Zn9	Zn	0.004955	-1.867627	-0.192903
O10	O	0.107359	-1.889909	0.146439
C11	C	0.018169	-1.595387	0.000018
C12	C	0.027954	-1.418008	0.000014
C13	C	-0.161130	-1.899168	0.000042
C14	C	-0.254172	-1.896006	0.000042
C15	C	-0.031786	-2.179647	0.000028
C16	C	-0.041570	-2.357025	0.000021
C17	C	-0.458726	-1.736394	0.000014
C18	C	-0.533331	-1.825398	0.144414
C19	C	-0.424528	-1.890284	0.000029
C20	C	-0.515712	-1.795667	-0.144323
C21	C	-0.589082	-1.884744	0.000008
C22	C	-0.497915	-1.979342	0.144548
C23	C	-0.480280	-1.949576	-0.144319
C24	C	-0.554877	-2.038696	0.000116
C25	C	-0.329732	-1.893471	0.000042
C26	C	-0.683878	-1.881571	0.000007
C27	C	0.147513	-1.875866	0.000005
C28	C	0.240556	-1.879027	-0.000008
N29	N	-0.034630	-1.934569	0.456290
N30	N	0.021005	-1.840479	-0.456240
H31	H	-0.417184	-1.608675	0.000155
H32	H	-0.524143	-1.717971	-0.266411
C33	C	-0.449253	-2.019766	-0.307037
C34	C	-0.499696	-2.176949	-0.308151
C35	C	-0.471142	-2.241635	-0.458046
H36	H	-0.390093	-2.022333	-0.305420
H37	H	-0.454843	-1.954462	-0.409590
H38	H	-0.494098	-2.242238	-0.205626
H39	H	-0.558857	-2.174427	-0.309795
H40	H	-0.476731	-2.176330	-0.560598
H41	H	-0.411982	-2.244192	-0.456416
H42	H	-0.505367	-2.348284	-0.458830
C43	C	0.096686	-1.712168	0.443717
C44	C	0.090573	-1.559685	0.488493
C45	C	0.160282	-1.441449	0.396374
H46	H	0.095011	-1.714892	0.320730
H47	H	0.149801	-1.732663	0.473872
H48	H	0.037472	-1.539196	0.458326
H49	H	0.092259	-1.556908	0.611464
H50	H	0.213396	-1.461944	0.426529
H51	H	0.158601	-1.444188	0.273392
H52	H	0.156148	-1.337978	0.426754
H53	H	0.094969	-1.334507	-0.000004
H54	H	-0.108579	-1.440515	0.000021
H55	H	-0.489573	-2.056976	0.266760
H56	H	-0.556682	-1.772895	0.266489
C57	C	-0.110385	-2.062796	0.556247
C58	C	-0.159300	-2.145557	0.436237
C59	C	-0.229085	-2.263699	0.528251
H60	H	-0.146048	-2.012767	0.628189
H61	H	-0.088875	-2.136850	0.628113
H62	H	-0.180810	-2.071514	0.364400
H63	H	-0.123663	-2.195620	0.364291
H64	H	-0.207575	-2.337753	0.600117
H65	H	-0.264740	-2.213656	0.600190
H66	H	-0.262277	-2.319876	0.446839
C67	C	-0.610087	-2.209238	0.000584
C68	C	-0.601486	-2.304658	0.152039
C69	C	-0.652344	-2.461761	0.152551
H70	H	-0.591274	-2.254041	-0.100898
H71	H	-0.669242	-2.206277	-0.000293
H72	H	-0.542344	-2.307626	0.152900
H73	H	-0.620305	-2.259906	0.253546
H74	H	-0.711499	-2.458800	0.151674
H75	H	-0.633526	-2.506548	0.051063
H76	H	-0.646522	-2.526519	0.255319
