data_functionalizedCrystal
_audit_creation_method	'MofGen! by Chris Wilmer'
_symmetry_space_group_name_H-M	'P1'
_symmetry_Int_Tables_number	1
_symmetry_cell_setting	triclinic
loop_
_symmetry_equiv_pos_as_xyz
  x,y,z
_cell_length_a	26.210047
_cell_length_b	10.654541
_cell_length_c	10.654555
_cell_angle_alpha	95.513259
_cell_angle_beta	90.001946
_cell_angle_gamma	89.984902
loop_
_atom_site_label
_atom_site_type_symbol
_atom_site_fract_x
_atom_site_fract_y
_atom_site_fract_z
O1	O	0.042410	-1.667873	0.176381
O2	O	0.042414	-1.302395	0.193190
O3	O	0.042412	-1.493530	0.002047
O4	O	0.042413	-1.476738	0.367524
O5	O	-0.042446	-1.493469	0.002046
O6	O	-0.042444	-1.302334	0.193189
O7	O	-0.042448	-1.667812	0.176380
Cu8	Cu	-0.050194	-1.485068	0.184785
Cu9	Cu	0.050161	-1.485139	0.184786
O10	O	-0.042446	-1.476678	0.367523
C11	C	-0.000014	-1.255566	0.191956
C12	C	-0.000012	-1.116123	0.188265
N13	N	-0.120778	-1.485026	0.184783
C14	C	-0.000016	-1.492263	-0.044751
C15	C	-0.000013	-1.488566	-0.184194
C16	C	-0.473293	-1.561961	0.261651
C17	C	-0.686951	-1.561998	0.261650
O18	O	-0.714574	-1.627381	0.326992
N19	N	-0.713672	-1.485169	0.184773
C20	C	-0.686974	-1.408332	0.107885
O21	O	-0.714604	-1.342995	0.042487
C22	C	-0.473317	-1.408302	0.107880
C23	C	-0.446599	-1.485126	0.184771
C24	C	-0.446575	-1.638780	0.338535
C25	C	-0.393164	-1.638765	0.338539
C26	C	-0.366470	-1.561930	0.261660
C27	C	-0.393188	-1.485111	0.184776
C28	C	-0.446620	-1.331472	0.030985
C29	C	-0.393202	-1.331474	0.030989
C30	C	-0.366485	-1.408298	0.107880
C31	C	-0.313082	-1.408262	0.107900
N32	N	-0.286362	-1.485091	0.184777
C33	C	-0.313056	-1.561925	0.261657
C34	C	-0.799148	-1.408351	0.107895
C35	C	-0.852562	-1.408356	0.107898
C36	C	-0.852535	-1.562025	0.261662
C37	C	-0.799120	-1.562012	0.261665
C38	C	-0.772427	-1.485180	0.184772
C39	C	-0.200888	-1.561886	0.261661
C40	C	-0.147472	-1.561861	0.261663
C41	C	-0.147503	-1.408198	0.107894
C42	C	-0.200914	-1.408218	0.107897
C43	C	-0.227606	-1.485073	0.184785
O44	O	-0.285427	-1.342923	0.042583
O45	O	-0.285417	-1.627273	0.327025
C46	C	-0.526704	-1.561976	0.261646
C47	C	-0.553422	-1.485157	0.184762
C48	C	-0.526728	-1.408322	0.107882
C49	C	-0.606836	-1.485162	0.184765
C50	C	-0.633530	-1.561997	0.261645
C51	C	-0.606810	-1.638825	0.338522
C52	C	-0.553398	-1.638810	0.338526
C53	C	-0.553448	-1.331494	0.031006
C54	C	-0.606860	-1.331514	0.031008
C55	C	-0.633554	-1.408348	0.107888
N56	N	0.120744	-1.485191	0.184777
C57	C	-0.000018	-1.714641	0.177614
C58	C	-0.000017	-1.854084	0.181305
C59	C	-0.000006	-1.088161	0.416829
C60	C	-0.000000	-1.008671	0.529372
C61	C	0.000000	-0.877653	0.525896
C62	C	-0.000006	-0.826123	0.409865
C63	C	-0.000012	-0.905613	0.297323
C64	C	-0.000011	-1.036633	0.300811
C65	C	-0.000022	-0.933574	0.068762
C66	C	-0.000019	-1.064593	0.072235
C67	C	-0.000028	-0.882044	-0.047268
C68	C	-0.000030	-0.961534	-0.159814
C69	C	-0.000030	-1.092560	-0.156333
C70	C	-0.000024	-1.144082	-0.040308
C71	C	-0.092531	-1.481560	-0.446226
C72	C	-0.138788	-1.483258	-0.380712
C73	C	-0.138788	-1.486727	-0.249693
C74	C	-0.092526	-1.488493	-0.184184
C75	C	-0.046269	-1.486795	-0.249698
C76	C	-0.046274	-1.483330	-0.380721
C77	C	0.046244	-1.486868	-0.249708
C78	C	0.046246	-1.483408	-0.380728
C79	C	0.092506	-1.488634	-0.184199
C80	C	0.138764	-1.486945	-0.249715
C81	C	0.138762	-1.483478	-0.380742
C82	C	0.092503	-1.481710	-0.446242
C83	C	-0.000016	-1.477944	0.414321
C84	C	-0.000016	-1.481641	0.553764
H85	H	-0.125721	-1.624420	0.324283
H86	H	-0.222614	-1.624469	0.324270
H87	H	0.000005	-1.194841	0.419670
C88	C	-0.623260	-1.689982	0.549375
C89	C	-0.636159	-1.723285	0.423027
H90	H	-0.641384	-1.742121	0.601536
H91	H	-0.587630	-1.700984	0.560383
H92	H	-0.632026	-1.604256	0.571899
H93	H	-0.627389	-1.809009	0.400501
H94	H	-0.671797	-1.712293	0.412014
C95	C	-0.261010	-1.239241	0.098462
C96	C	-0.230283	-1.323762	0.023384
H97	H	-0.279134	-1.187103	0.046277
H98	H	-0.284554	-1.285004	0.144226
H99	H	-0.240177	-1.188280	0.155786
H100	H	-0.251116	-1.374729	-0.033934
H101	H	-0.206736	-1.277995	-0.022401
C102	C	-0.067352	-1.584407	-0.647076
C103	C	-0.092534	-1.477766	-0.590246
H104	H	-0.067358	-1.582067	-0.735989
H105	H	-0.033185	-1.585200	-0.617444
H106	H	-0.084440	-1.658276	-0.626350
H107	H	-0.075443	-1.403896	-0.610964
H108	H	-0.126706	-1.476961	-0.619889
C109	C	-0.179873	-1.477941	-0.581559
C110	C	-0.189638	-1.481332	-0.452722
H111	H	-0.211266	-1.476761	-0.626010
H112	H	-0.160873	-1.404279	-0.594094
H113	H	-0.160864	-1.550498	-0.611950
H114	H	-0.208643	-1.408770	-0.422328
H115	H	-0.208646	-1.555001	-0.440179
H116	H	-0.531720	-1.268927	-0.031603
C117	C	0.230213	-1.486667	-0.262876
C118	C	0.189611	-1.488882	-0.177709
H119	H	0.261604	-1.487856	-0.218416
H120	H	0.228288	-1.558423	-0.322904
H121	H	0.228288	-1.412204	-0.305053
H122	H	0.191534	-1.563350	-0.135538
H123	H	0.191537	-1.417119	-0.117659
C124	C	0.043614	-0.630852	0.467096
C125	C	-0.000009	-0.682106	0.406043
H126	H	0.043612	-0.541942	0.464727
H127	H	0.043612	-0.650162	0.552291
H128	H	0.073202	-0.665678	0.425660
H129	H	-0.029598	-0.647287	0.447485
H130	H	-0.000013	-0.662785	0.320833
C131	C	0.067314	-1.368942	-0.620737
C132	C	0.092499	-1.477892	-0.590259
H133	H	0.067313	-1.366580	-0.709647
H134	H	0.033150	-1.369715	-0.591094
H135	H	0.084405	-1.296641	-0.582153
H136	H	0.075406	-1.550193	-0.628835
H137	H	0.126669	-1.477130	-0.619916
C138	C	-0.804551	-1.256446	-0.044082
C139	C	-0.769811	-1.323877	0.023378
H140	H	-0.786440	-1.204287	-0.096249
H141	H	-0.825375	-1.313799	-0.095006
H142	H	-0.825391	-1.205504	0.013263
H143	H	-0.748973	-1.374826	-0.033967
H144	H	-0.748978	-1.266517	0.074306
H145	H	-0.628609	-1.268942	-0.031603
C146	C	0.192429	-1.371835	-0.514916
C147	C	0.189608	-1.481601	-0.452759
H148	H	0.223821	-1.370672	-0.559368
H149	H	0.164882	-1.370301	-0.572672
H150	H	0.190506	-1.300087	-0.454854
H151	H	0.191527	-1.553349	-0.512822
H152	H	0.217164	-1.483146	-0.394997
H153	H	-0.176455	-1.488086	-0.196349
H154	H	-0.777370	-1.624568	0.324277
C155	C	-0.067339	-1.385689	0.016663
C156	C	-0.092527	-1.492289	-0.040164
H157	H	-0.067342	-1.388030	0.105576
H158	H	-0.033173	-1.384950	-0.012974
H159	H	-0.084425	-1.311792	-0.004058
H160	H	-0.075439	-1.566186	-0.019451
H161	H	-0.126699	-1.493040	-0.010516
H162	H	-0.371415	-1.701328	0.401147
C163	C	-0.441170	-1.790650	0.490534
C164	C	-0.475911	-1.723238	0.423060
H165	H	-0.459279	-1.842782	0.542730
H166	H	-0.420335	-1.841605	0.433207
H167	H	-0.420340	-1.733275	0.541441
H168	H	-0.496739	-1.780613	0.372145
H169	H	-0.496754	-1.672279	0.480393
C170	C	-0.441264	-1.179614	-0.121032
C171	C	-0.475981	-1.247037	-0.053547
H172	H	-0.459392	-1.127493	-0.173228
H173	H	-0.420440	-1.128646	-0.063712
H174	H	-0.420420	-1.236982	-0.171940
H175	H	-0.496822	-1.189668	-0.002631
H176	H	-0.496814	-1.298009	-0.110874
C177	C	-0.043661	-0.944997	-0.355694
C178	C	-0.000038	-0.904891	-0.287343
H179	H	-0.043666	-0.910016	-0.434423
H180	H	-0.043655	-1.034390	-0.369731
H181	H	-0.073249	-0.917761	-0.309289
H182	H	0.029550	-0.932134	-0.333744
H183	H	-0.000040	-0.815478	-0.273310
H184	H	0.092503	-1.491452	-0.077516
C185	C	-0.333141	-1.322140	-0.138019
C186	C	-0.363862	-1.247011	-0.053533
H187	H	-0.315031	-1.269993	-0.190199
H188	H	-0.309584	-1.367874	-0.092230
H189	H	-0.353975	-1.379493	-0.188940
H190	H	-0.343028	-1.189664	-0.002605
H191	H	-0.387422	-1.201257	-0.099326
C192	C	0.043592	-0.702012	-0.114494
C193	C	-0.000027	-0.738028	-0.051095
H194	H	0.043592	-0.613103	-0.116864
H195	H	0.073180	-0.726508	-0.071503
H196	H	0.043581	-0.741988	-0.198122
H197	H	-0.000014	-0.698059	0.032536
H198	H	-0.029622	-0.713519	-0.094084
C199	C	0.043630	-1.139821	0.665881
C200	C	0.000007	-1.065315	0.656909
H201	H	0.043634	-1.174780	0.744620
H202	H	0.043624	-1.205905	0.599362
H203	H	0.073218	-1.089296	0.659765
H204	H	-0.029581	-1.115841	0.663016
H205	H	0.000009	-0.999222	0.723446
C206	C	0.043596	-1.339411	-0.097548
C207	C	-0.000023	-1.288098	-0.036478
H208	H	0.043596	-1.428320	-0.095171
H209	H	0.043587	-1.320107	-0.182745
H210	H	0.073187	-1.304618	-0.056128
H211	H	-0.029614	-1.322885	-0.077904
H212	H	-0.000019	-1.307413	0.048735
H213	H	-0.000036	-1.157274	-0.247980
H214	H	-0.874278	-1.624581	0.324265
H215	H	-0.874311	-1.345783	0.045300
H216	H	-0.125759	-1.345638	0.045304
H217	H	-0.531649	-1.701368	0.401139
H218	H	0.000001	-0.812932	0.617538
