data_functionalizedCrystal
_audit_creation_method	'MofGen! by Chris Wilmer'
_symmetry_space_group_name_H-M	'P1'
_symmetry_Int_Tables_number	1
_symmetry_cell_setting	triclinic
loop_
_symmetry_equiv_pos_as_xyz
  x,y,z
_cell_length_a	10.654550
_cell_length_b	11.792241
_cell_length_c	9.130313
_cell_angle_alpha	89.998583
_cell_angle_beta	89.996220
_cell_angle_gamma	84.339159
loop_
_atom_site_label
_atom_site_type_symbol
_atom_site_fract_x
_atom_site_fract_y
_atom_site_fract_z
O1	O	1.667383	0.159415	-0.121920
O2	O	1.301862	0.174603	-0.121897
O3	O	1.493493	0.001859	-0.121899
O4	O	1.475752	0.332159	-0.121918
O5	O	1.493490	0.001864	0.121700
O6	O	1.301859	0.174608	0.121702
O7	O	1.667381	0.159419	0.121678
Cu8	Cu	1.484620	0.167014	0.143933
Cu9	Cu	1.484623	0.167008	-0.144151
O10	O	1.475750	0.332164	0.121680
C11	C	1.255066	0.173490	-0.000095
C12	C	1.115632	0.170154	-0.000085
C13	C	1.035858	0.271863	-0.000113
C14	C	0.904847	0.268721	-0.000138
C15	C	0.933394	0.062152	-0.000114
C16	C	1.064404	0.065295	-0.000079
C17	C	1.087087	0.376722	-0.000119
C18	C	1.007312	0.478439	-0.000148
C19	C	0.876300	0.475297	-0.000173
C20	C	0.825063	0.370438	-0.000170
C21	C	1.492377	-0.040432	-0.000100
C22	C	1.489042	-0.166454	-0.000101
C23	C	1.482908	-0.397180	-0.000125
C24	C	1.486316	-0.268787	-0.000112
C25	C	1.714177	0.160532	-0.000127
C26	C	1.853611	0.163869	-0.000146
C27	C	1.476865	0.374455	-0.000122
C28	C	1.480201	0.500476	-0.000130
N29	N	1.484627	0.167017	0.346555
N30	N	1.484625	0.166996	-0.346774
C31	C	1.569503	0.090552	0.423206
C32	C	1.569500	0.090539	0.576543
C33	C	1.399740	0.243465	0.576564
C34	C	1.399739	0.243472	0.423230
C35	C	1.654392	0.014097	0.346531
C36	C	1.739275	-0.062373	0.423182
C37	C	1.739272	-0.062387	0.576519
C38	C	1.654385	0.014070	0.653205
H39	H	1.654404	0.014104	0.221677
C40	C	1.832648	-0.146463	0.338836
H41	H	1.820506	-0.135497	0.236536
H42	H	1.818512	-0.222337	0.363951
H43	H	1.916544	-0.133416	0.363970
C44	C	1.231195	0.380176	-0.000107
H45	H	1.271369	0.304582	-0.000103
H46	H	1.255557	0.419041	0.084833
H47	H	1.255565	0.419021	-0.085075
C48	C	0.680952	0.366983	-0.000202
H49	H	0.640777	0.442576	-0.000226
H50	H	0.656561	0.328127	0.084738
H51	H	0.656613	0.328128	-0.085170
C52	C	1.832635	-0.146500	0.660832
H53	H	1.883194	-0.192023	0.593202
H54	H	1.787149	-0.194138	0.720648
H55	H	1.885188	-0.105222	0.720645
C56	C	1.654372	0.014054	0.821872
H57	H	1.591660	0.070536	0.856560
H58	H	1.734740	0.030258	0.856563
H59	H	1.636686	-0.058644	0.856547
C60	C	1.306385	0.327568	0.660915
H61	H	1.318551	0.316620	0.763213
H62	H	1.222486	0.314543	0.635798
H63	H	1.320545	0.403440	0.635786
C64	C	0.877035	-0.053182	-0.000131
H65	H	0.787585	-0.040486	-0.000172
H66	H	0.904343	-0.095108	0.084822
H67	H	0.904394	-0.095099	-0.085085
H68	H	1.330624	0.305736	0.360820
H69	H	0.811350	0.558120	-0.000182
C70	C	1.063668	0.593774	-0.000151
H71	H	1.153118	0.581081	-0.000146
H72	H	1.036317	0.635703	0.084787
H73	H	1.036349	0.635688	-0.085120
H74	H	1.129358	-0.017526	-0.000060
