data_functionalizedCrystal
_audit_creation_method	'MofGen! by Chris Wilmer'
_symmetry_space_group_name_H-M	'P1'
_symmetry_Int_Tables_number	1
_symmetry_cell_setting	triclinic
loop_
_symmetry_equiv_pos_as_xyz
  x,y,z
_cell_length_a	11.169417
_cell_length_b	11.169416
_cell_length_c	17.077396
_cell_angle_alpha	89.977334
_cell_angle_beta	89.983750
_cell_angle_gamma	90.011219
loop_
_atom_site_label
_atom_site_type_symbol
_atom_site_fract_x
_atom_site_fract_y
_atom_site_fract_z
Zn1	Zn	1.834920	-0.477779	-0.443806
Zn2	Zn	1.834822	-0.678491	-0.312554
Zn3	Zn	1.634218	-0.477823	-0.312562
Zn4	Zn	1.634213	-0.678422	-0.443785
O5	O	1.734543	-0.578129	-0.378177
O6	O	2.002857	-0.504414	-0.426401
O7	O	1.808172	-0.651919	-0.202708
O8	O	1.660885	-0.309868	-0.329984
O9	O	2.002785	-0.651876	-0.329970
O10	O	1.808340	-0.309835	-0.426409
O11	O	1.660790	-0.504490	-0.202714
O12	O	1.466268	-0.504423	-0.329963
O13	O	1.660876	-0.651759	-0.553635
O14	O	1.466264	-0.651802	-0.426372
O15	O	1.808335	-0.504347	-0.553650
O16	O	1.808168	-0.846431	-0.329949
O17	O	1.660781	-0.846381	-0.426364
C18	C	1.422719	-0.578111	-0.378167
C19	C	1.289319	-0.578132	-0.378181
C20	C	1.734496	-0.889953	-0.378171
C21	C	1.734585	-1.023353	-0.378194
C22	C	2.047586	-0.578148	-0.378187
C23	C	2.180986	-0.578156	-0.378192
C24	C	1.734616	-0.578040	-0.582921
C25	C	1.734647	-0.578003	-0.670171
C26	C	1.734624	-0.265086	-0.378200
C27	C	1.734658	-0.131686	-0.378210
C28	C	1.811431	-0.501239	-0.711171
C29	C	1.811446	-0.501199	-0.793151
C30	C	1.734681	-0.577930	-0.834130
C31	C	1.657888	-0.654697	-0.793125
C32	C	1.657869	-0.654730	-0.711146
C33	C	1.657936	-0.654624	-0.963995
C34	C	1.657957	-0.654593	-1.045980
C35	C	1.811514	-0.501094	-1.046000
C36	C	1.811494	-0.501127	-0.964021
C37	C	1.734702	-0.577896	-0.923021
C38	C	1.734540	-0.578130	-0.174229
C39	C	1.734742	-0.577830	-0.086979
H40	H	1.873974	-0.438694	-0.826529
H41	H	1.595446	-0.717071	-1.079343
H42	H	1.874009	-0.438653	-0.930658
H43	H	1.595381	-0.717168	-0.826497
O44	O	1.575111	-0.737424	-0.919772
H45	H	1.514050	-0.683714	-0.882428
O46	O	1.894332	-0.418278	-1.090214
H47	H	1.881439	-0.431130	-1.154103
H48	H	1.595331	-0.717226	-0.677765
H49	H	1.873946	-0.438760	-0.677811
