data_functionalizedCrystal
_audit_creation_method	'MofGen! by Chris Wilmer'
_symmetry_space_group_name_H-M	'P1'
_symmetry_Int_Tables_number	1
_symmetry_cell_setting	triclinic
loop_
_symmetry_equiv_pos_as_xyz
  x,y,z
_cell_length_a	29.839135
_cell_length_b	29.839131
_cell_length_c	29.839126
_cell_angle_alpha	89.970347
_cell_angle_beta	89.970753
_cell_angle_gamma	90.037758
loop_
_atom_site_label
_atom_site_type_symbol
_atom_site_fract_x
_atom_site_fract_y
_atom_site_fract_z
Zn1	Zn	0.686800	-0.178867	-0.254023
Zn2	Zn	0.936800	0.071133	-0.004023
Zn3	Zn	1.186800	0.321133	0.245977
Zn4	Zn	1.436800	0.571133	0.495977
Zn5	Zn	0.686722	-0.253985	-0.178883
Zn6	Zn	0.936722	-0.003985	0.071117
Zn7	Zn	1.186722	0.246015	0.321117
Zn8	Zn	1.436722	0.496015	0.571117
Zn9	Zn	0.611665	-0.178873	-0.178901
Zn10	Zn	0.861665	0.071127	0.071099
Zn11	Zn	1.111665	0.321127	0.321099
Zn12	Zn	1.361665	0.571127	0.571099
Zn13	Zn	0.611639	-0.253974	-0.253980
Zn14	Zn	0.861639	-0.003974	-0.003980
Zn15	Zn	1.111639	0.246026	0.246020
Zn16	Zn	1.361639	0.496026	0.496020
O17	O	0.649206	-0.216425	-0.216447
O18	O	0.899206	0.033575	0.033553
O19	O	1.149206	0.283575	0.283553
O20	O	1.399206	0.533575	0.533553
O21	O	0.749657	-0.188833	-0.244066
O22	O	0.999657	0.061167	0.005934
O23	O	1.249657	0.311167	0.255934
O24	O	1.499657	0.561167	0.505934
O25	O	0.676744	-0.244028	-0.116019
O26	O	0.926744	0.005972	0.133981
O27	O	1.176744	0.255972	0.383981
O28	O	1.426744	0.505972	0.633981
O29	O	0.621675	-0.116005	-0.188892
O30	O	0.871675	0.133995	0.061108
O31	O	1.121675	0.383995	0.311108
O32	O	1.371675	0.633995	0.561108
O33	O	0.749600	-0.244022	-0.188861
O34	O	0.999600	0.005978	0.061139
O35	O	1.249600	0.255978	0.311139
O36	O	1.499600	0.505978	0.561139
O37	O	0.676877	-0.116001	-0.244084
O38	O	0.926877	0.133999	0.005916
O39	O	1.176877	0.383999	0.255916
O40	O	1.426877	0.633999	0.505916
O41	O	0.621600	-0.188843	-0.116032
O42	O	0.871600	0.061157	0.133968
O43	O	1.121600	0.311157	0.383968
O44	O	1.371600	0.561157	0.633968
O45	O	0.548794	-0.188833	-0.188850
O46	O	0.798794	0.061167	0.061150
O47	O	1.048794	0.311167	0.311150
O48	O	1.298794	0.561167	0.561150
O49	O	0.621631	-0.244004	-0.316853
O50	O	0.871631	0.005996	-0.066853
O51	O	1.121631	0.255996	0.183147
O52	O	1.371631	0.505996	0.433147
O53	O	0.548775	-0.244010	-0.244010
O54	O	0.798775	0.005990	0.005990
O55	O	1.048775	0.255990	0.255990
O56	O	1.298775	0.505990	0.505990
O57	O	0.676851	-0.188823	-0.316885
O58	O	0.926851	0.061177	-0.066885
O59	O	1.176851	0.311177	0.183115
O60	O	1.426851	0.561177	0.433115
O61	O	0.676719	-0.316850	-0.188819
O62	O	0.926719	-0.066850	0.061181
O63	O	1.176719	0.183150	0.311181
O64	O	1.426719	0.433150	0.561181
O65	O	0.621555	-0.316842	-0.243993
O66	O	0.871555	-0.066842	0.006007
O67	O	1.121555	0.183158	0.256007
O68	O	1.371555	0.433158	0.506007
C69	C	0.649138	-0.333147	-0.216409
C70	C	0.899138	-0.083147	0.033591
C71	C	1.149138	0.166853	0.283591
C72	C	1.399138	0.416853	0.533591
C73	C	0.649150	-0.383082	-0.216408
C74	C	0.899150	-0.133082	0.033592
C75	C	1.149150	0.116918	0.283592
C76	C	1.399150	0.366918	0.533592
C77	C	0.532484	-0.216421	-0.216428
C78	C	0.782484	0.033579	0.033572
C79	C	1.032484	0.283579	0.283572
C80	C	1.282484	0.533579	0.533572
C81	C	0.482549	-0.216430	-0.216430
C82	C	0.732549	0.033570	0.033570
C83	C	0.982549	0.283570	0.283570
C84	C	1.232549	0.533570	0.533570
C85	C	0.677944	-0.692688	-0.245226
C86	C	0.927944	-0.442688	0.004774
C87	C	1.177944	-0.192688	0.254774
C88	C	1.427944	0.057312	0.504774
C89	C	0.677992	-0.880361	-0.245253
C90	C	0.927992	-0.630361	0.004747
C91	C	1.177992	-0.380361	0.254747
C92	C	1.427992	-0.130361	0.504747
O93	O	0.702407	-0.904594	-0.269728
O94	O	0.952407	-0.654594	-0.019728
O95	O	1.202407	-0.404594	0.230272
O96	O	1.452407	-0.154594	0.480272
N97	N	0.649283	-0.903867	-0.216497
N98	N	0.899283	-0.653867	0.033503
N99	N	1.149283	-0.403867	0.283503
N100	N	1.399283	-0.153867	0.533503
C101	C	0.620557	-0.880451	-0.187734
C102	C	0.870557	-0.630451	0.062266
C103	C	1.120557	-0.380451	0.312266
C104	C	1.370557	-0.130451	0.562266
O105	O	0.596135	-0.904751	-0.163279
O106	O	0.846135	-0.654751	0.086721
O107	O	1.096135	-0.404751	0.336721
O108	O	1.346135	-0.154751	0.586721
C109	C	0.620506	-0.692779	-0.187709
C110	C	0.870506	-0.442779	0.062291
C111	C	1.120506	-0.192779	0.312291
C112	C	1.370506	0.057221	0.562291
C113	C	0.649221	-0.669276	-0.216464
C114	C	0.899221	-0.419276	0.033536
C115	C	1.149221	-0.169276	0.283536
C116	C	1.399221	0.080724	0.533536
C117	C	0.706656	-0.669184	-0.273980
C118	C	0.956656	-0.419184	-0.023980
C119	C	1.206656	-0.169184	0.226020
C120	C	1.456656	0.080816	0.476020
C121	C	0.706645	-0.622269	-0.273971
C122	C	0.956645	-0.372269	-0.023971
C123	C	1.206645	-0.122269	0.226029
C124	C	1.456645	0.127731	0.476029
C125	C	0.677922	-0.598857	-0.245209
C126	C	0.927922	-0.348857	0.004791
C127	C	1.177922	-0.098857	0.254791
C128	C	1.427922	0.151143	0.504791
C129	C	0.649210	-0.622360	-0.216456
C130	C	0.899210	-0.372360	0.033544
C131	C	1.149210	-0.122360	0.283544
C132	C	1.399210	0.127640	0.533544
C133	C	0.591778	-0.669364	-0.158949
C134	C	0.841778	-0.419364	0.091051
C135	C	1.091778	-0.169364	0.341051
C136	C	1.341778	0.080636	0.591051
C137	C	0.591767	-0.622443	-0.158946
C138	C	0.841767	-0.372443	0.091054
C139	C	1.091767	-0.122443	0.341054
C140	C	1.341767	0.127557	0.591054
C141	C	0.620482	-0.598940	-0.187701
C142	C	0.870482	-0.348940	0.062299
C143	C	1.120482	-0.098940	0.312299
C144	C	1.370482	0.151060	0.562299
C145	C	0.620476	-0.552033	-0.187685
C146	C	0.870476	-0.302033	0.062315
C147	C	1.120476	-0.052033	0.312315
C148	C	1.370476	0.197967	0.562315
N149	N	0.649186	-0.528527	-0.216442
N150	N	0.899186	-0.278527	0.033558
N151	N	1.149186	-0.028527	0.283558
N152	N	1.399186	0.221473	0.533558
C153	C	0.677909	-0.551939	-0.245203
C154	C	0.927909	-0.301939	0.004797
C155	C	1.177909	-0.051939	0.254797
C156	C	1.427909	0.198061	0.504797
C157	C	0.620586	-0.978982	-0.187748
C158	C	0.870586	-0.728982	0.062252
C159	C	1.120586	-0.478982	0.312252
C160	C	1.370586	-0.228982	0.562252
C161	C	0.620599	-1.025900	-0.187753
C162	C	0.870599	-0.775900	0.062247
C163	C	1.120599	-0.525900	0.312247
C164	C	1.370599	-0.275900	0.562247
C165	C	0.678034	-1.025806	-0.245274
C166	C	0.928034	-0.775806	0.004726
C167	C	1.178034	-0.525806	0.254726
C168	C	1.428034	-0.275806	0.504726
C169	C	0.678023	-0.978887	-0.245266
C170	C	0.928023	-0.728887	0.004734
C171	C	1.178023	-0.478887	0.254734
C172	C	1.428023	-0.228887	0.504734
C173	C	0.649296	-0.955476	-0.216504
C174	C	0.899296	-0.705476	0.033496
C175	C	1.149296	-0.455476	0.283496
C176	C	1.399296	-0.205476	0.533496
C177	C	0.677884	-0.453413	-0.245183
C178	C	0.927884	-0.203413	0.004817
C179	C	1.177884	0.046587	0.254817
C180	C	1.427884	0.296587	0.504817
C181	C	0.677872	-0.406494	-0.245170
C182	C	0.927872	-0.156494	0.004830
C183	C	1.177872	0.093506	0.254830
C184	C	1.427872	0.343506	0.504830
C185	C	0.620436	-0.406591	-0.187651
C186	C	0.870436	-0.156591	0.062349
C187	C	1.120436	0.093409	0.312349
C188	C	1.370436	0.343409	0.562349
C189	C	0.620449	-0.453507	-0.187662
C190	C	0.870449	-0.203507	0.062338
C191	C	1.120449	0.046493	0.312338
C192	C	1.370449	0.296493	0.562338
C193	C	0.649175	-0.476917	-0.216431
C194	C	0.899175	-0.226917	0.033569
C195	C	1.149175	0.023083	0.283569
C196	C	1.399175	0.273083	0.533569
O197	O	0.596071	-0.527770	-0.163227
O198	O	0.846071	-0.277770	0.086773
O199	O	1.096071	-0.027770	0.336773
O200	O	1.346071	0.222230	0.586773
O201	O	0.702320	-0.527632	-0.269662
O202	O	0.952320	-0.277632	-0.019662
O203	O	1.202320	-0.027632	0.230338
O204	O	1.452320	0.222368	0.480338
C205	C	0.677954	-0.739603	-0.245235
C206	C	0.927954	-0.489603	0.004765
C207	C	1.177954	-0.239603	0.254765
C208	C	1.427954	0.010397	0.504765
C209	C	0.649242	-0.763107	-0.216482
C210	C	0.899242	-0.513107	0.033518
C211	C	1.149242	-0.263107	0.283518
C212	C	1.399242	-0.013107	0.533518
C213	C	0.620519	-0.739695	-0.187720
C214	C	0.870519	-0.489695	0.062280
C215	C	1.120519	-0.239695	0.312280
C216	C	1.370519	0.010305	0.562280
C217	C	0.649255	-0.810024	-0.216487
C218	C	0.899255	-0.560024	0.033513
C219	C	1.149255	-0.310024	0.283513
C220	C	1.399255	-0.060024	0.533513
C221	C	0.677978	-0.833437	-0.245249
C222	C	0.927978	-0.583437	0.004751
C223	C	1.177978	-0.333437	0.254751
C224	C	1.427978	-0.083437	0.504751
C225	C	0.706688	-0.809931	-0.274006
C226	C	0.956688	-0.559931	-0.024006
C227	C	1.206688	-0.309931	0.225994
C228	C	1.456688	-0.059931	0.475994
C229	C	0.706677	-0.763015	-0.273997
C230	C	0.956677	-0.513015	-0.023997
C231	C	1.206677	-0.263015	0.226003
C232	C	1.456677	-0.013015	0.476003
C233	C	0.591810	-0.763200	-0.158964
C234	C	0.841810	-0.513200	0.091036
C235	C	1.091810	-0.263200	0.341036
C236	C	1.341810	-0.013200	0.591036
C237	C	0.591823	-0.810116	-0.158974
C238	C	0.841823	-0.560116	0.091026
C239	C	1.091823	-0.310116	0.341026
C240	C	1.341823	-0.060116	0.591026
C241	C	0.620546	-0.833528	-0.187736
C242	C	0.870546	-0.583528	0.062264
C243	C	1.120546	-0.333528	0.312264
C244	C	1.370546	-0.083528	0.562264
C245	C	0.172933	-0.187731	-0.245235
C246	C	0.422933	0.062269	0.004765
C247	C	0.672933	0.312269	0.254765
C248	C	0.922933	0.562269	0.504765
C249	C	-0.014740	-0.187734	-0.245247
C250	C	0.235260	0.062266	0.004753
C251	C	0.485260	0.312266	0.254753
C252	C	0.735260	0.562266	0.504753
O253	O	-0.038982	-0.163323	-0.269717
O254	O	0.211018	0.086677	-0.019717
O255	O	0.461018	0.336677	0.230283
O256	O	0.711018	0.586677	0.480283
N257	N	-0.038236	-0.216425	-0.216464
N258	N	0.211764	0.033575	0.033536
N259	N	0.461764	0.283575	0.283536
N260	N	0.711764	0.533575	0.533536
C261	C	-0.014810	-0.245115	-0.187672
C262	C	0.235190	0.004885	0.062328
C263	C	0.485190	0.254885	0.312328
C264	C	0.735190	0.504885	0.562328
O265	O	-0.039101	-0.269515	-0.163187
O266	O	0.210899	-0.019515	0.086813
O267	O	0.460899	0.230485	0.336813
O268	O	0.710899	0.480485	0.586813
C269	C	0.172862	-0.245109	-0.187658
C270	C	0.422862	0.004891	0.062342
C271	C	0.672862	0.254891	0.312342
C272	C	0.922862	0.504891	0.562342
C273	C	0.196355	-0.216420	-0.216447
C274	C	0.446355	0.033580	0.033553
C275	C	0.696355	0.283580	0.283553
C276	C	0.946355	0.533580	0.533553
C277	C	0.196426	-0.159044	-0.274021
C278	C	0.446426	0.090956	-0.024021
C279	C	0.696426	0.340956	0.225979
C280	C	0.946426	0.590956	0.475979
C281	C	0.243341	-0.159045	-0.274019
C282	C	0.493341	0.090955	-0.024019
C283	C	0.743341	0.340955	0.225981
C284	C	0.993341	0.590955	0.475981
C285	C	0.266764	-0.187734	-0.245231
C286	C	0.516764	0.062266	0.004769
C287	C	0.766764	0.312266	0.254769
C288	C	1.016764	0.562266	0.504769
C289	C	0.243271	-0.216421	-0.216445
C290	C	0.493271	0.033579	0.033555
C291	C	0.743271	0.283579	0.283555
C292	C	0.993271	0.533579	0.533555
C293	C	0.196287	-0.273796	-0.158864
C294	C	0.446287	-0.023796	0.091136
C295	C	0.696287	0.226204	0.341136
C296	C	0.946287	0.476204	0.591136
C297	C	0.243208	-0.273791	-0.158862
C298	C	0.493208	-0.023791	0.091138
C299	C	0.743208	0.226209	0.341138
C300	C	0.993208	0.476209	0.591138
C301	C	0.266701	-0.245102	-0.187652
C302	C	0.516701	0.004898	0.062348
C303	C	0.766701	0.254898	0.312348
C304	C	1.016701	0.504898	0.562348
C305	C	0.313609	-0.245111	-0.187655
C306	C	0.563609	0.004889	0.062345
C307	C	0.813609	0.254889	0.312345
C308	C	1.063609	0.504889	0.562345
N309	N	0.337104	-0.216420	-0.216439
N310	N	0.587104	0.033580	0.033561
N311	N	0.837104	0.283580	0.283561
N312	N	1.087104	0.533580	0.533561
C313	C	0.313682	-0.187732	-0.245227
C314	C	0.563682	0.062268	0.004773
C315	C	0.813682	0.312268	0.254773
C316	C	1.063682	0.562268	0.504773
C317	C	-0.113341	-0.245116	-0.187683
C318	C	0.136659	0.004884	0.062317
C319	C	0.386659	0.254884	0.312317
C320	C	0.636659	0.504884	0.562317
C321	C	-0.160258	-0.245118	-0.187687
C322	C	0.089742	0.004882	0.062313
C323	C	0.339742	0.254882	0.312313
C324	C	0.589742	0.504882	0.562313
C325	C	-0.160185	-0.187737	-0.245262
C326	C	0.089815	0.062263	0.004738
C327	C	0.339815	0.312263	0.254738
C328	C	0.589815	0.562263	0.504738
C329	C	-0.113267	-0.187738	-0.245259
C330	C	0.136733	0.062262	0.004741
C331	C	0.386733	0.312262	0.254741
C332	C	0.636733	0.562262	0.504741
C333	C	-0.089845	-0.216426	-0.216467
C334	C	0.160155	0.033574	0.033533
C335	C	0.410155	0.283574	0.283533
C336	C	0.660155	0.533574	0.533533
C337	C	0.412207	-0.187737	-0.245221
C338	C	0.662207	0.062263	0.004779
C339	C	0.912207	0.312263	0.254779
C340	C	1.162207	0.562263	0.504779
C341	C	0.459127	-0.187742	-0.245218
C342	C	0.709127	0.062258	0.004782
C343	C	0.959127	0.312258	0.254782
C344	C	1.209127	0.562258	0.504782
C345	C	0.459050	-0.245121	-0.187642
C346	C	0.709050	0.004879	0.062358
C347	C	0.959050	0.254879	0.312358
C348	C	1.209050	0.504879	0.562358
C349	C	0.412134	-0.245118	-0.187647
C350	C	0.662134	0.004882	0.062353
C351	C	0.912134	0.254882	0.312353
C352	C	1.162134	0.504882	0.562353
C353	C	0.388714	-0.216422	-0.216438
C354	C	0.638714	0.033578	0.033562
C355	C	0.888714	0.283578	0.283562
C356	C	1.138714	0.533578	0.533562
O357	O	0.337880	-0.269506	-0.163195
O358	O	0.587880	-0.019506	0.086805
O359	O	0.837880	0.230494	0.336805
O360	O	1.087880	0.480494	0.586805
O361	O	0.337980	-0.163329	-0.269702
O362	O	0.587980	0.086671	-0.019702
O363	O	0.837980	0.336671	0.230298
O364	O	1.087980	0.586671	0.480298
C365	C	0.126017	-0.187730	-0.245236
C366	C	0.376017	0.062270	0.004764
C367	C	0.626017	0.312270	0.254764
C368	C	0.876017	0.562270	0.504764
C369	C	0.102524	-0.216417	-0.216450
C370	C	0.352524	0.033583	0.033550
C371	C	0.602524	0.283583	0.283550
C372	C	0.852524	0.533583	0.533550
C373	C	0.125947	-0.245106	-0.187662
C374	C	0.375947	0.004894	0.062338
C375	C	0.625947	0.254894	0.312338
C376	C	0.875947	0.504894	0.562338
C377	C	0.055606	-0.216419	-0.216454
C378	C	0.305606	0.033581	0.033546
C379	C	0.555606	0.283581	0.283546
C380	C	0.805606	0.533581	0.533546
C381	C	0.032184	-0.187731	-0.245242
C382	C	0.282184	0.062269	0.004758
C383	C	0.532184	0.312269	0.254758
C384	C	0.782184	0.562269	0.504758
C385	C	0.055679	-0.159040	-0.274026
C386	C	0.305679	0.090960	-0.024026
C387	C	0.555679	0.340960	0.225974
C388	C	0.805679	0.590960	0.475974
C389	C	0.102595	-0.159042	-0.274025
C390	C	0.352595	0.090958	-0.024025
C391	C	0.602595	0.340958	0.225975
C392	C	0.852595	0.590958	0.475975
C393	C	0.102451	-0.273796	-0.158878
C394	C	0.352451	-0.023796	0.091122
C395	C	0.602451	0.226204	0.341122
C396	C	0.852451	0.476204	0.591122
C397	C	0.055536	-0.273793	-0.158883
C398	C	0.305536	-0.023793	0.091117
C399	C	0.555536	0.226207	0.341117
C400	C	0.805536	0.476207	0.591117
C401	C	0.032113	-0.245105	-0.187671
C402	C	0.282113	0.004895	0.062329
C403	C	0.532113	0.254895	0.312329
C404	C	0.782113	0.504895	0.562329
C405	C	0.766385	-0.216428	-0.216467
C406	C	1.016385	0.033572	0.033533
C407	C	1.266385	0.283572	0.283533
C408	C	1.516385	0.533572	0.533533
C409	C	0.816319	-0.216430	-0.216475
C410	C	1.066319	0.033570	0.033525
C411	C	1.316319	0.283570	0.283525
C412	C	1.566319	0.533570	0.533525
C413	C	0.649247	-0.216412	-0.333625
C414	C	0.899247	0.033588	-0.083625
C415	C	1.149247	0.283588	0.166375
C416	C	1.399247	0.533588	0.416375
C417	C	0.649264	-0.216406	-0.383560
C418	C	0.899264	0.033594	-0.133560
C419	C	1.149264	0.283594	0.116440
C420	C	1.399264	0.533594	0.366440
C421	C	0.649287	-0.099246	-0.216495
C422	C	0.899287	0.150754	0.033505
C423	C	1.149287	0.400754	0.283505
C424	C	1.399287	0.650754	0.533505
C425	C	0.649322	-0.049312	-0.216515
C426	C	0.899322	0.200688	0.033485
C427	C	1.149322	0.450688	0.283485
C428	C	1.399322	0.700688	0.533485
C429	C	0.677971	-0.245081	-0.740143
C430	C	0.927971	0.004919	-0.490143
C431	C	1.177971	0.254919	-0.240143
C432	C	1.427971	0.504919	0.009857
C433	C	0.677972	-0.245112	-0.552470
C434	C	0.927972	0.004888	-0.302470
C435	C	1.177972	0.254888	-0.052470
C436	C	1.427972	0.504888	0.197530
O437	O	0.702376	-0.269563	-0.528202
O438	O	0.952376	-0.019563	-0.278202
O439	O	1.202376	0.230437	-0.028202
O440	O	1.452376	0.480437	0.221798
N441	N	0.649262	-0.216385	-0.529005
N442	N	0.899262	0.033615	-0.279005
N443	N	1.149262	0.283615	-0.029005
N444	N	1.399262	0.533615	0.220995
C445	C	0.620547	-0.187649	-0.552461
C446	C	0.870547	0.062351	-0.302461
C447	C	1.120547	0.312351	-0.052461
C448	C	1.370547	0.562351	0.197539
O449	O	0.596124	-0.163219	-0.528197
O450	O	0.846124	0.086781	-0.278197
O451	O	1.096124	0.336781	-0.028197
O452	O	1.346124	0.586781	0.221803
C453	C	0.620544	-0.187621	-0.740134
C454	C	0.870544	0.062379	-0.490134
C455	C	1.120544	0.312379	-0.240134
C456	C	1.370544	0.562379	0.009866
C457	C	0.649260	-0.216347	-0.763596
C458	C	0.899260	0.033653	-0.513596
C459	C	1.149260	0.283653	-0.263596
C460	C	1.399260	0.533653	-0.013596
C461	C	0.706684	-0.273805	-0.763606
C462	C	0.956684	-0.023805	-0.513606
C463	C	1.206684	0.226195	-0.263606
C464	C	1.456684	0.476195	-0.013606
C465	C	0.706685	-0.273795	-0.810521
C466	C	0.956685	-0.023795	-0.560521
C467	C	1.206685	0.226205	-0.310521
C468	C	1.456685	0.476205	-0.060521
C469	C	0.677974	-0.245061	-0.833974
C470	C	0.927974	0.004939	-0.583974
C471	C	1.177974	0.254939	-0.333974
C472	C	1.427974	0.504939	-0.083974
C473	C	0.649261	-0.216337	-0.810512
C474	C	0.899261	0.033663	-0.560512
C475	C	1.149261	0.283663	-0.310512
C476	C	1.399261	0.533663	-0.060512
C477	C	0.591828	-0.158888	-0.763589
C478	C	0.841828	0.091112	-0.513589
C479	C	1.091828	0.341112	-0.263589
C480	C	1.341828	0.591112	-0.013589
C481	C	0.591829	-0.158884	-0.810510
C482	C	0.841829	0.091116	-0.560510
C483	C	1.091829	0.341116	-0.310510
C484	C	1.341829	0.591116	-0.060510
C485	C	0.620544	-0.187610	-0.833972
C486	C	0.870544	0.062390	-0.583972
C487	C	1.120544	0.312390	-0.333972
C488	C	1.370544	0.562390	-0.083972
C489	C	0.620551	-0.187593	-0.880880
C490	C	0.870551	0.062407	-0.630880
C491	C	1.120551	0.312407	-0.380880
C492	C	1.370551	0.562407	-0.130880
N493	N	0.649261	-0.216321	-0.904345
N494	N	0.899261	0.033679	-0.654345
N495	N	1.149261	0.283679	-0.404345
N496	N	1.399261	0.533679	-0.154345
C497	C	0.677973	-0.245055	-0.880892
C498	C	0.927973	0.004945	-0.630892
C499	C	1.177973	0.254945	-0.380892
C500	C	1.427973	0.504945	-0.130892
C501	C	0.620551	-0.187666	-0.453931
C502	C	0.870551	0.062334	-0.203931
C503	C	1.120551	0.312334	0.046069
C504	C	1.370551	0.562334	0.296069
C505	C	0.620552	-0.187672	-0.407013
C506	C	0.870552	0.062328	-0.157013
C507	C	1.120552	0.312328	0.092987
C508	C	1.370552	0.562328	0.342987
C509	C	0.677977	-0.245136	-0.407025
C510	C	0.927977	0.004864	-0.157025
C511	C	1.177977	0.254864	0.092975
C512	C	1.427977	0.504864	0.342975
C513	C	0.677978	-0.245127	-0.453944
C514	C	0.927978	0.004873	-0.203944
C515	C	1.177978	0.254873	0.046056
C516	C	1.427978	0.504873	0.296056
C517	C	0.649262	-0.216393	-0.477396
C518	C	0.899262	0.033607	-0.227396
C519	C	1.149262	0.283607	0.022604
C520	C	1.399262	0.533607	0.272604
C521	C	0.677974	-0.245032	-0.979418
C522	C	0.927974	0.004968	-0.729418
C523	C	1.177974	0.254968	-0.479418
C524	C	1.427974	0.504968	-0.229418
C525	C	0.677974	-0.245018	-1.026338
C526	C	0.927974	0.004982	-0.776338
C527	C	1.177974	0.254982	-0.526338
C528	C	1.427974	0.504982	-0.276338
C529	C	0.620547	-0.187556	-1.026321
C530	C	0.870547	0.062444	-0.776321
C531	C	1.120547	0.312444	-0.526321
C532	C	1.370547	0.562444	-0.276321
C533	C	0.620549	-0.187568	-0.979406
C534	C	0.870549	0.062432	-0.729406
C535	C	1.120549	0.312432	-0.479406
C536	C	1.370549	0.562432	-0.229406
C537	C	0.649263	-0.216309	-0.955955
C538	C	0.899263	0.033691	-0.705955
C539	C	1.149263	0.283691	-0.455955
C540	C	1.399263	0.533691	-0.205955
O541	O	0.596156	-0.163159	-0.905177
O542	O	0.846156	0.086841	-0.655177
O543	O	1.096156	0.336841	-0.405177
O544	O	1.346156	0.586841	-0.155177
O545	O	0.702385	-0.269489	-0.905165
O546	O	0.952385	-0.019489	-0.655165
O547	O	1.202385	0.230511	-0.405165
O548	O	1.452385	0.480511	-0.155165
C549	C	0.677970	-0.245091	-0.693228
C550	C	0.927970	0.004909	-0.443228
C551	C	1.177970	0.254909	-0.193228
C552	C	1.427970	0.504909	0.056772
C553	C	0.649257	-0.216366	-0.669765
C554	C	0.899257	0.033634	-0.419765
C555	C	1.149257	0.283634	-0.169765
C556	C	1.399257	0.533634	0.080235
C557	C	0.620546	-0.187632	-0.693218
C558	C	0.870546	0.062368	-0.443218
C559	C	1.120546	0.312368	-0.193218
C560	C	1.370546	0.562368	0.056782
C561	C	0.649259	-0.216373	-0.622847
C562	C	0.899259	0.033627	-0.372847
C563	C	1.149259	0.283627	-0.122847
C564	C	1.399259	0.533627	0.127153
C565	C	0.677970	-0.245107	-0.599394
C566	C	0.927970	0.004893	-0.349394
C567	C	1.177970	0.254893	-0.099394
C568	C	1.427970	0.504893	0.150606
C569	C	0.706680	-0.273835	-0.622860
C570	C	0.956680	-0.023835	-0.372860
C571	C	1.206680	0.226165	-0.122860
C572	C	1.456680	0.476165	0.127140
C573	C	0.706682	-0.273825	-0.669775
C574	C	0.956682	-0.023825	-0.419775
C575	C	1.206682	0.226175	-0.169775
C576	C	1.456682	0.476175	0.080225
C577	C	0.591835	-0.158905	-0.669753
C578	C	0.841835	0.091095	-0.419753
C579	C	1.091835	0.341095	-0.169753
C580	C	1.341835	0.591095	0.080247
C581	C	0.591837	-0.158917	-0.622837
C582	C	0.841837	0.091083	-0.372837
C583	C	1.091837	0.341083	-0.122837
C584	C	1.341837	0.591083	0.127163
C585	C	0.620548	-0.187651	-0.599385
C586	C	0.870548	0.062349	-0.349385
C587	C	1.120548	0.312349	-0.099385
C588	C	1.370548	0.562349	0.150615
C589	C	0.649192	-0.216405	-0.099725
C590	C	0.899192	0.033595	0.150275
C591	C	1.149192	0.283595	0.400275
C592	C	1.399192	0.533595	0.650275
C593	C	0.649262	-0.216284	-0.049790
C594	C	0.899262	0.033716	0.200210
C595	C	1.149262	0.283716	0.450210
C596	C	1.399262	0.533716	0.700210
H597	H	0.701257	-0.387359	-0.268586
H598	H	0.951257	-0.137359	-0.018586
H599	H	1.201257	0.112641	0.231414
H600	H	1.451257	0.362641	0.481414
H601	H	0.478253	-0.164379	-0.268663
H602	H	0.728253	0.085621	-0.018663
H603	H	0.978253	0.335621	0.231337
H604	H	1.228253	0.585621	0.481337
C605	C	0.589016	-1.051750	-0.156121
C606	C	0.839016	-0.801750	0.093879
C607	C	1.089016	-0.551750	0.343879
C608	C	1.339016	-0.301750	0.593879
H609	H	0.593137	-1.083047	-0.160239
H610	H	0.843137	-0.833047	0.089761
H611	H	1.093137	-0.583047	0.339761
H612	H	1.343137	-0.333047	0.589761
H613	H	0.558828	-1.044082	-0.162667
H614	H	0.808828	-0.794082	0.087333
H615	H	1.058828	-0.544082	0.337333
H616	H	1.308828	-0.294082	0.587333
H617	H	0.595605	-1.044073	-0.125940
H618	H	0.845605	-0.794073	0.124060
H619	H	1.095605	-0.544073	0.374060
H620	H	1.345605	-0.294073	0.624060
H621	H	0.597192	-0.959923	-0.164326
H622	H	0.847192	-0.709923	0.085674
H623	H	1.097192	-0.459923	0.335674
H624	H	1.347192	-0.209923	0.585674
C625	C	0.709561	-0.276617	-1.052146
C626	C	0.959561	-0.026617	-0.802146
C627	C	1.209561	0.223383	-0.552146
C628	C	1.459561	0.473383	-0.302146
H629	H	0.705454	-0.272495	-1.083448
H630	H	0.955454	-0.022495	-0.833448
H631	H	1.205454	0.227505	-0.583448
H632	H	1.455454	0.477505	-0.333448
H633	H	0.702967	-0.306804	-1.044444
H634	H	0.952967	-0.056804	-0.794444
H635	H	1.202967	0.193196	-0.544444
H636	H	1.452967	0.443196	-0.294444
H637	H	0.739751	-0.270040	-1.044472
H638	H	0.989751	-0.020040	-0.794472
H639	H	1.239751	0.229960	-0.544472
H640	H	1.489751	0.479960	-0.294472
H641	H	0.121719	-0.135680	-0.297467
H642	H	0.371719	0.114320	-0.047467
H643	H	0.621719	0.364320	0.202533
H644	H	0.871719	0.614320	0.452533
H645	H	0.262276	-0.297152	-0.135415
H646	H	0.512276	-0.047152	0.114585
H647	H	0.762276	0.202848	0.364585
H648	H	1.012276	0.452848	0.614585
H649	H	0.730059	-0.743882	-0.297412
H650	H	0.980059	-0.493882	-0.047412
H651	H	1.230059	-0.243882	0.202588
H652	H	1.480059	0.006118	0.452588
H653	H	0.701273	-0.472468	-0.268612
H654	H	0.951273	-0.222468	-0.018612
H655	H	1.201273	0.027532	0.231388
H656	H	1.451273	0.277532	0.481388
C657	C	0.029909	-0.127483	-0.305691
C658	C	0.279909	0.122517	-0.055691
C659	C	0.529909	0.372517	0.194309
C660	C	0.779909	0.622517	0.444309
H661	H	-0.001398	-0.131592	-0.301564
H662	H	0.248602	0.118408	-0.051564
H663	H	0.498602	0.368408	0.198436
H664	H	0.748602	0.618408	0.448436
H665	H	0.037607	-0.134097	-0.335864
H666	H	0.287607	0.115903	-0.085864
H667	H	0.537607	0.365903	0.164136
H668	H	0.787607	0.615903	0.414136
H669	H	0.037612	-0.097286	-0.299171
H670	H	0.287612	0.152714	-0.049171
H671	H	0.537612	0.402714	0.200829
H672	H	0.787612	0.652714	0.450829
C673	C	0.560242	-0.127275	-0.836304
C674	C	0.810242	0.122725	-0.586304
C675	C	1.060242	0.372725	-0.336304
C676	C	1.310242	0.622725	-0.086304
H677	H	0.543145	-0.110167	-0.815608
H678	H	0.793145	0.139833	-0.565608
H679	H	1.043145	0.389833	-0.315608
H680	H	1.293145	0.639833	-0.065608
H681	H	0.540657	-0.144455	-0.854593
H682	H	0.790657	0.105545	-0.604593
H683	H	1.040657	0.355545	-0.354593
H684	H	1.290657	0.605545	-0.104593
H685	H	0.577442	-0.107693	-0.854620
H686	H	0.827442	0.142307	-0.604620
H687	H	1.077442	0.392307	-0.354620
H688	H	1.327442	0.642307	-0.104620
C689	C	0.588967	-0.155951	-1.052125
C690	C	0.838967	0.094049	-0.802125
C691	C	1.088967	0.344049	-0.552125
C692	C	1.338967	0.594049	-0.302125
H693	H	0.593079	-0.160066	-1.083428
H694	H	0.843079	0.089934	-0.833428
H695	H	1.093079	0.339934	-0.583428
H696	H	1.343079	0.589934	-0.333428
H697	H	0.595557	-0.125766	-1.044453
H698	H	0.845557	0.124234	-0.794453
H699	H	1.095557	0.374234	-0.544453
H700	H	1.345557	0.624234	-0.294453
H701	H	0.558776	-0.162533	-1.044421
H702	H	0.808776	0.087467	-0.794421
H703	H	1.058776	0.337467	-0.544421
H704	H	1.308776	0.587467	-0.294421
H705	H	0.730065	-0.297206	-0.744516
H706	H	0.980065	-0.047206	-0.494516
H707	H	1.230065	0.202794	-0.244516
H708	H	1.480065	0.452794	0.005484
H709	H	0.393005	-0.268484	-0.164210
H710	H	0.643005	-0.018484	0.085790
H711	H	0.893005	0.231516	0.335790
H712	H	1.143005	0.481516	0.585790
H713	H	0.568396	-0.688493	-0.135533
H714	H	0.818396	-0.438493	0.114467
H715	H	1.068396	-0.188493	0.364467
H716	H	1.318396	0.061507	0.614467
H717	H	0.730065	-0.297217	-0.688874
H718	H	0.980065	-0.047217	-0.438874
H719	H	1.230065	0.202783	-0.188874
H720	H	1.480065	0.452783	0.061126
C721	C	0.128210	-0.305358	-0.127212
C722	C	0.378210	-0.055358	0.122788
C723	C	0.628210	0.194642	0.372788
C724	C	0.878210	0.444642	0.622788
H725	H	0.107494	-0.322445	-0.110074
H726	H	0.357494	-0.072445	0.139926
H727	H	0.607494	0.177555	0.389926
H728	H	0.857494	0.427555	0.639926
H729	H	0.146515	-0.288150	-0.107668
H730	H	0.396515	-0.038150	0.142332
H731	H	0.646515	0.211850	0.392332
H732	H	0.896515	0.461850	0.642332
H733	H	0.146506	-0.324961	-0.144362
H734	H	0.396506	-0.074961	0.105638
H735	H	0.646506	0.175039	0.355638
H736	H	0.896506	0.425039	0.605638
H737	H	0.478129	-0.268479	-0.164205
H738	H	0.728129	-0.018479	0.085795
H739	H	0.978129	0.231521	0.335795
H740	H	1.228129	0.481521	0.585795
C741	C	0.560167	-0.596694	-0.127307
C742	C	0.810167	-0.346694	0.122693
C743	C	1.060167	-0.096694	0.372693
C744	C	1.310167	0.153306	0.622693
H745	H	0.543072	-0.617414	-0.110182
H746	H	0.793072	-0.367414	0.139818
H747	H	1.043072	-0.117414	0.389818
H748	H	1.293072	0.132586	0.639818
H749	H	0.540581	-0.578396	-0.144469
H750	H	0.790581	-0.328396	0.105531
H751	H	1.040581	-0.078396	0.355531
H752	H	1.290581	0.171604	0.605531
H753	H	0.577358	-0.578390	-0.107742
H754	H	0.827358	-0.328390	0.142258
H755	H	1.077358	-0.078390	0.392258
H756	H	1.327358	0.171610	0.642258
H757	H	0.597172	-0.164171	-0.960302
H758	H	0.847172	0.085829	-0.710302
H759	H	1.097172	0.335829	-0.460302
H760	H	1.347172	0.585829	-0.210302
H761	H	0.036412	-0.297160	-0.135440
H762	H	0.286412	-0.047160	0.114560
H763	H	0.536412	0.202840	0.364560
H764	H	0.786412	0.452840	0.614560
C765	C	0.709560	-0.276645	-0.953629
C766	C	0.959560	-0.026645	-0.703629
C767	C	1.209560	0.223355	-0.453629
C768	C	1.459560	0.473355	-0.203629
H769	H	0.726661	-0.293745	-0.974327
H770	H	0.976661	-0.043745	-0.724327
H771	H	1.226661	0.206255	-0.474327
H772	H	1.476661	0.456255	-0.224327
H773	H	0.692366	-0.296226	-0.935311
H774	H	0.942366	-0.046226	-0.685311
H775	H	1.192366	0.203774	-0.435311
H776	H	1.442366	0.453774	-0.185311
H777	H	0.729149	-0.259461	-0.935343
H778	H	0.979149	-0.009461	-0.685343
H779	H	1.229149	0.240539	-0.435343
H780	H	1.479149	0.490539	-0.185343
C781	C	0.560216	-0.737453	-0.127320
C782	C	0.810216	-0.487453	0.122680
C783	C	1.060216	-0.237453	0.372680
C784	C	1.310216	0.012547	0.622680
H785	H	0.543124	-0.758175	-0.110195
H786	H	0.793124	-0.508175	0.139805
H787	H	1.043124	-0.258175	0.389805
H788	H	1.293124	-0.008175	0.639805
H789	H	0.540626	-0.719154	-0.144477
H790	H	0.790626	-0.469154	0.105523
H791	H	1.040626	-0.219154	0.355523
H792	H	1.290626	0.030846	0.605523
H793	H	0.577411	-0.719152	-0.107757
H794	H	0.827411	-0.469152	0.142243
H795	H	1.077411	-0.219152	0.392243
H796	H	1.327411	0.030848	0.642243
H797	H	0.730025	-0.603135	-0.297387
H798	H	0.980025	-0.353135	-0.047387
H799	H	1.230025	-0.103135	0.202613
H800	H	1.480025	0.146865	0.452613
H801	H	0.730045	-0.688242	-0.297404
H802	H	0.980045	-0.438242	-0.047404
H803	H	1.230045	-0.188242	0.202596
H804	H	1.480045	0.061758	0.452596
C805	C	0.738266	-0.305401	-0.836324
C806	C	0.988266	-0.055401	-0.586324
C807	C	1.238266	0.194599	-0.336324
C808	C	1.488266	0.444599	-0.086324
H809	H	0.755359	-0.322517	-0.815632
H810	H	1.005359	-0.072517	-0.565632
H811	H	1.255359	0.177483	-0.315632
H812	H	1.505359	0.427483	-0.065632
H813	H	0.757855	-0.288221	-0.854646
H814	H	1.007855	-0.038221	-0.604646
H815	H	1.257855	0.211779	-0.354646
H816	H	1.507855	0.461779	-0.104646
H817	H	0.721062	-0.324975	-0.854608
H818	H	0.971062	-0.074975	-0.604608
H819	H	1.221062	0.175025	-0.354608
H820	H	1.471062	0.425025	-0.104608
H821	H	0.701360	-0.268518	-0.473044
H822	H	0.951360	-0.018518	-0.223044
H823	H	1.201360	0.231482	0.026956
H824	H	1.451360	0.481482	0.276956
C825	C	0.386452	-0.156177	-0.276895
C826	C	0.636452	0.093823	-0.026895
C827	C	0.886452	0.343823	0.223105
C828	C	1.136452	0.593823	0.473105
H829	H	0.407168	-0.139097	-0.294040
H830	H	0.657168	0.110903	-0.044040
H831	H	0.907168	0.360903	0.205960
H832	H	1.157168	0.610903	0.455960
H833	H	0.368151	-0.136573	-0.259756
H834	H	0.618151	0.113427	-0.009756
H835	H	0.868151	0.363427	0.240244
H836	H	1.118151	0.613427	0.490244
H837	H	0.368151	-0.173394	-0.296439
H838	H	0.618151	0.076606	-0.046439
H839	H	0.868151	0.326606	0.203561
H840	H	1.118151	0.576606	0.453561
C841	C	0.709555	-0.276746	-0.381221
C842	C	0.959555	-0.026746	-0.131221
C843	C	1.209555	0.223254	0.118779
C844	C	1.459555	0.473254	0.368779
H845	H	0.705438	-0.272636	-0.349919
H846	H	0.955438	-0.022636	-0.099919
H847	H	1.205438	0.227364	0.150081
H848	H	1.455438	0.477364	0.400081
H849	H	0.739747	-0.270178	-0.388924
H850	H	0.989747	-0.020178	-0.138924
H851	H	1.239747	0.229822	0.111076
H852	H	1.489747	0.479822	0.361076
H853	H	0.702952	-0.306931	-0.388895
H854	H	0.952952	-0.056931	-0.138895
H855	H	1.202952	0.193069	0.111105
H856	H	1.452952	0.443069	0.361105
C857	C	0.709601	-0.953038	-0.276904
C858	C	0.959601	-0.703038	-0.026904
C859	C	1.209601	-0.453038	0.223096
C860	C	1.459601	-0.203038	0.473096
H861	H	0.726704	-0.973705	-0.294036
H862	H	0.976704	-0.723705	-0.044036
H863	H	1.226704	-0.473705	0.205964
H864	H	1.476704	-0.223705	0.455964
H865	H	0.729181	-0.934724	-0.259743
H866	H	0.979181	-0.684724	-0.009743
H867	H	1.229181	-0.434724	0.240257
H868	H	1.479181	-0.184724	0.490257
H869	H	0.692394	-0.934744	-0.296461
H870	H	0.942394	-0.684744	-0.046461
H871	H	1.192394	-0.434744	0.203539
H872	H	1.442394	-0.184744	0.453539
C873	C	0.588967	-0.156071	-0.381209
C874	C	0.838967	0.093929	-0.131209
C875	C	1.088967	0.343929	0.118791
C876	C	1.338967	0.593929	0.368791
H877	H	0.571866	-0.138963	-0.401900
H878	H	0.821866	0.111037	-0.151900
H879	H	1.071866	0.361037	0.098100
H880	H	1.321866	0.611037	0.348100
H881	H	0.606161	-0.136497	-0.362921
H882	H	0.856161	0.113503	-0.112921
H883	H	1.106161	0.363503	0.137079
H884	H	1.356161	0.613503	0.387079
H885	H	0.569379	-0.173263	-0.362892
H886	H	0.819379	0.076737	-0.112892
H887	H	1.069379	0.326737	0.137108
H888	H	1.319379	0.576737	0.387108
C889	C	0.709627	-1.051565	-0.276913
C890	C	0.959627	-0.801565	-0.026913
C891	C	1.209627	-0.551565	0.223087
C892	C	1.459627	-0.301565	0.473087
H893	H	0.705517	-1.082873	-0.272798
H894	H	0.955517	-0.832873	-0.022798
H895	H	1.205517	-0.582873	0.227202
H896	H	1.455517	-0.332873	0.477202
H897	H	0.739815	-1.043855	-0.270373
H898	H	0.989815	-0.793855	-0.020373
H899	H	1.239815	-0.543855	0.229627
H900	H	1.489815	-0.293855	0.479627
H901	H	0.703029	-1.043864	-0.307092
H902	H	0.953029	-0.793864	-0.057092
H903	H	1.203029	-0.543864	0.192908
H904	H	1.453029	-0.293864	0.442908
C905	C	0.588965	-0.156053	-0.479722
C906	C	0.838965	0.093947	-0.229722
C907	C	1.088965	0.343947	0.020278
C908	C	1.338965	0.593947	0.270278
H909	H	0.571873	-0.138944	-0.459024
H910	H	0.821873	0.111056	-0.209024
H911	H	1.071873	0.361056	0.040976
H912	H	1.321873	0.611056	0.290976
H913	H	0.569376	-0.173230	-0.498009
H914	H	0.819376	0.076770	-0.248009
H915	H	1.069376	0.326770	0.001991
H916	H	1.319376	0.576770	0.251991
H917	H	0.606166	-0.136473	-0.498039
H918	H	0.856166	0.113527	-0.248039
H919	H	1.106166	0.363527	0.001961
H920	H	1.356166	0.613527	0.251961
C921	C	0.269178	-0.127481	-0.305681
C922	C	0.519178	0.122519	-0.055681
C923	C	0.769178	0.372519	0.194319
C924	C	1.019178	0.622519	0.444319
H925	H	0.248503	-0.110394	-0.322821
H926	H	0.498503	0.139606	-0.072821
H927	H	0.748503	0.389606	0.177179
H928	H	0.998503	0.639606	0.427179
H929	H	0.287483	-0.144687	-0.325225
H930	H	0.537483	0.105313	-0.075225
H931	H	0.787483	0.355313	0.174775
H932	H	1.037483	0.605313	0.424775
H933	H	0.287480	-0.107879	-0.288529
H934	H	0.537480	0.142121	-0.038529
H935	H	0.787480	0.392121	0.211471
H936	H	1.037480	0.642121	0.461471
C937	C	0.560239	-0.127289	-0.737790
C938	C	0.810239	0.122711	-0.487790
C939	C	1.060239	0.372711	-0.237790
C940	C	1.310239	0.622711	0.012210
H941	H	0.543139	-0.110182	-0.758484
H942	H	0.793139	0.139818	-0.508484
H943	H	1.043139	0.389818	-0.258484
H944	H	1.293139	0.639818	-0.008484
H945	H	0.577432	-0.107714	-0.719502
H946	H	0.827432	0.142286	-0.469502
H947	H	1.077432	0.392286	-0.219502
H948	H	1.327432	0.642286	0.030498
H949	H	0.540650	-0.144480	-0.719473
H950	H	0.790650	0.105520	-0.469473
H951	H	1.040650	0.355520	-0.219473
H952	H	1.290650	0.605520	0.030527
H953	H	0.730060	-0.297229	-0.603756
H954	H	0.980060	-0.047229	-0.353756
H955	H	1.230060	0.202771	-0.103756
H956	H	1.480060	0.452771	0.146244
C957	C	0.170668	-0.127487	-0.305694
C958	C	0.420668	0.122513	-0.055694
C959	C	0.670668	0.372513	0.194306
C960	C	0.920668	0.622513	0.444306
H961	H	0.191386	-0.110407	-0.322837
H962	H	0.441386	0.139593	-0.072837
H963	H	0.691386	0.389593	0.177163
H964	H	0.941386	0.639593	0.427163
H965	H	0.152365	-0.107884	-0.288555
H966	H	0.402365	0.142116	-0.038555
H967	H	0.652365	0.392116	0.211445
H968	H	0.902365	0.642116	0.461445
H969	H	0.152370	-0.144705	-0.325239
H970	H	0.402370	0.105295	-0.075239
H971	H	0.652370	0.355295	0.174761
H972	H	0.902370	0.605295	0.424761
H973	H	0.597071	-0.472644	-0.164244
H974	H	0.847071	-0.222644	0.085756
H975	H	1.097071	0.027356	0.335756
H976	H	1.347071	0.277356	0.585756
C977	C	0.588841	-0.380832	-0.156018
C978	C	0.838841	-0.130832	0.093982
C979	C	1.088841	0.119168	0.343982
C980	C	1.338841	0.369168	0.593982
H981	H	0.592946	-0.349524	-0.160137
H982	H	0.842946	-0.099524	0.089863
H983	H	1.092946	0.150476	0.339863
H984	H	1.342946	0.400476	0.589863
H985	H	0.595427	-0.388532	-0.125839
H986	H	0.845427	-0.138532	0.124161
H987	H	1.095427	0.111468	0.374161
H988	H	1.345427	0.361468	0.624161
H989	H	0.558654	-0.388543	-0.162571
H990	H	0.808654	-0.138543	0.087429
H991	H	1.058654	0.111457	0.337429
H992	H	1.308654	0.361457	0.587429
C993	C	0.560246	-0.127317	-0.597034
C994	C	0.810246	0.122683	-0.347034
C995	C	1.060246	0.372683	-0.097034
C996	C	1.310246	0.622683	0.152966
H997	H	0.543145	-0.110208	-0.617725
H998	H	0.793145	0.139792	-0.367725
H999	H	1.043145	0.389792	-0.117725
H1000	H	1.293145	0.639792	0.132275
H1001	H	0.577437	-0.107743	-0.578743
H1002	H	0.827437	0.142257	-0.328743
H1003	H	1.077437	0.392257	-0.078743
H1004	H	1.327437	0.642257	0.171257
H1005	H	0.540658	-0.144512	-0.578720
H1006	H	0.790658	0.105488	-0.328720
H1007	H	1.040658	0.355488	-0.078720
H1008	H	1.290658	0.605488	0.171280
H1009	H	0.568441	-0.829248	-0.135554
H1010	H	0.818441	-0.579248	0.114446
H1011	H	1.068441	-0.329248	0.364446
H1012	H	1.318441	-0.079248	0.614446
C1013	C	0.738281	-0.835690	-0.305644
C1014	C	0.988281	-0.585690	-0.055644
C1015	C	1.238281	-0.335690	0.194356
C1016	C	1.488281	-0.085690	0.444356
H1017	H	0.734170	-0.866998	-0.301530
H1018	H	0.984170	-0.616998	-0.051530
H1019	H	1.234170	-0.366998	0.198470
H1020	H	1.484170	-0.116998	0.448470
H1021	H	0.768469	-0.827982	-0.299101
H1022	H	1.018469	-0.577982	-0.049101
H1023	H	1.268469	-0.327982	0.200899
H1024	H	1.518469	-0.077982	0.450899
H1025	H	0.731686	-0.827988	-0.335823
H1026	H	0.981686	-0.577988	-0.085823
H1027	H	1.231686	-0.327988	0.164177
H1028	H	1.481686	-0.077988	0.414177
C1029	C	-0.087429	-0.156177	-0.276924
C1030	C	0.162571	0.093823	-0.026924
C1031	C	0.412571	0.343823	0.223076
C1032	C	0.662571	0.593823	0.473076
H1033	H	-0.108102	-0.139092	-0.294066
H1034	H	0.141898	0.110908	-0.044066
H1035	H	0.391898	0.360908	0.205934
H1036	H	0.641898	0.610908	0.455934
H1037	H	-0.069123	-0.173387	-0.296464
H1038	H	0.180877	0.076613	-0.046464
H1039	H	0.430877	0.326613	0.203536
H1040	H	0.680877	0.576613	0.453536
H1041	H	-0.069127	-0.136573	-0.259773
H1042	H	0.180873	0.113427	-0.009773
H1043	H	0.430873	0.363427	0.240227
H1044	H	0.680873	0.613427	0.490227
C1045	C	-0.185956	-0.156178	-0.276925
C1046	C	0.064044	0.093822	-0.026925
C1047	C	0.314044	0.343822	0.223075
C1048	C	0.564044	0.593822	0.473075
H1049	H	-0.217262	-0.160289	-0.272800
H1050	H	0.032738	0.089711	-0.022800
H1051	H	0.282738	0.339711	0.227200
H1052	H	0.532738	0.589711	0.477200
H1053	H	-0.178256	-0.162790	-0.307099
H1054	H	0.071744	0.087210	-0.057099
H1055	H	0.321744	0.337210	0.192901
H1056	H	0.571744	0.587210	0.442901
H1057	H	-0.178253	-0.125983	-0.270402
H1058	H	0.071747	0.124017	-0.020402
H1059	H	0.321747	0.374017	0.229598
H1060	H	0.571747	0.624017	0.479598
H1061	H	0.568454	-0.135506	-0.688843
H1062	H	0.818454	0.114494	-0.438843
H1063	H	1.068454	0.364494	-0.188843
H1064	H	1.318454	0.614494	0.061157
H1065	H	-0.094275	-0.268479	-0.164235
H1066	H	0.155725	-0.018479	0.085765
H1067	H	0.405725	0.231521	0.335765
H1068	H	0.655725	0.481521	0.585765
C1069	C	-0.186098	-0.276681	-0.156026
C1070	C	0.063902	-0.026681	0.093974
C1071	C	0.313902	0.223319	0.343974
C1072	C	0.563902	0.473319	0.593974
H1073	H	-0.217396	-0.272580	-0.160151
H1074	H	0.032604	-0.022580	0.089849
H1075	H	0.282604	0.227420	0.339849
H1076	H	0.532604	0.477420	0.589849
H1077	H	-0.178421	-0.270064	-0.125853
H1078	H	0.071579	-0.020064	0.124147
H1079	H	0.321579	0.229936	0.374147
H1080	H	0.571579	0.479936	0.624147
H1081	H	-0.178421	-0.306876	-0.162546
H1082	H	0.071579	-0.056876	0.087454
H1083	H	0.321579	0.193124	0.337454
H1084	H	0.571579	0.443124	0.587454
H1085	H	0.177167	-0.297158	-0.135421
H1086	H	0.427167	-0.047158	0.114579
H1087	H	0.677167	0.202842	0.364579
H1088	H	0.927167	0.452842	0.614579
