data_functionalizedCrystal
_audit_creation_method	'MofGen! by Chris Wilmer'
_symmetry_space_group_name_H-M	'P1'
_symmetry_Int_Tables_number	1
_symmetry_cell_setting	triclinic
loop_
_symmetry_equiv_pos_as_xyz
  x,y,z
_cell_length_a	25.639242
_cell_length_b	19.805405
_cell_length_c	19.805399
_cell_angle_alpha	90.030709
_cell_angle_beta	90.018568
_cell_angle_gamma	90.017340
loop_
_atom_site_label
_atom_site_type_symbol
_atom_site_fract_x
_atom_site_fract_y
_atom_site_fract_z
Zn1	Zn	-0.799283	0.269633	-0.382742
Zn2	Zn	-0.465949	0.602967	-0.049408
Zn3	Zn	-0.132616	0.936300	0.283925
Zn4	Zn	-0.799221	0.382824	-0.269550
Zn5	Zn	-0.465888	0.716158	0.063783
Zn6	Zn	-0.132554	1.049491	0.397116
Zn7	Zn	-0.711855	0.269637	-0.269563
Zn8	Zn	-0.378522	0.602970	0.063770
Zn9	Zn	-0.045189	0.936303	0.397104
Zn10	Zn	-0.711823	0.382768	-0.382694
Zn11	Zn	-0.378490	0.716101	-0.049360
Zn12	Zn	-0.045156	1.049434	0.283973
O13	O	-0.755545	0.326216	-0.326137
O14	O	-0.422212	0.659549	0.007196
O15	O	-0.088879	0.992882	0.340529
O16	O	-0.872440	0.284671	-0.367741
O17	O	-0.539106	0.618004	-0.034408
O18	O	-0.205773	0.951337	0.298925
O19	O	-0.787619	0.367835	-0.174835
O20	O	-0.454286	0.701168	0.158498
O21	O	-0.120953	1.034502	0.491831
O22	O	-0.723492	0.174920	-0.284602
O23	O	-0.390159	0.508253	0.048731
O24	O	-0.056825	0.841586	0.382065
O25	O	-0.872394	0.367832	-0.284580
O26	O	-0.539061	0.701165	0.048753
O27	O	-0.205728	1.034498	0.382087
O28	O	-0.787725	0.174917	-0.367754
O29	O	-0.454391	0.508250	-0.034421
O30	O	-0.121058	0.841584	0.298913
O31	O	-0.723432	0.284677	-0.174845
O32	O	-0.390099	0.618010	0.158489
O33	O	-0.056765	0.951343	0.491822
O34	O	-0.638686	0.284622	-0.284555
O35	O	-0.305352	0.617955	0.048778
O36	O	0.027981	0.951288	0.382111
O37	O	-0.723437	0.367735	-0.477417
O38	O	-0.390104	0.701068	-0.144083
O39	O	-0.056770	1.034402	0.189250
O40	O	-0.638662	0.367738	-0.367672
O41	O	-0.305329	0.701072	-0.034339
O42	O	0.028005	1.034405	0.298995
O43	O	-0.787693	0.284616	-0.477452
O44	O	-0.454360	0.617949	-0.144119
O45	O	-0.121027	0.951282	0.189215
O46	O	-0.787588	0.477533	-0.284533
O47	O	-0.454255	0.810867	0.048800
O48	O	-0.120922	1.144200	0.382133
O49	O	-0.723377	0.477492	-0.367659
O50	O	-0.390044	0.810825	-0.034326
O51	O	-0.056710	1.144159	0.299007
C52	C	-0.619703	0.326175	-0.326110
C53	C	-0.286370	0.659508	0.007223
C54	C	0.046964	0.992841	0.340557
C55	C	-0.561589	0.326174	-0.326115
C56	C	-0.228256	0.659507	0.007219
C57	C	0.105078	0.992840	0.340552
C58	C	-0.310427	0.282977	-0.369501
C59	C	0.022906	0.616310	-0.036168
C60	C	0.356240	0.949643	0.297165
C61	C	-0.365031	0.282972	-0.369500
C62	C	-0.031698	0.616305	-0.036166
C63	C	0.301635	0.949638	0.297167
O64	O	-0.393295	0.246222	-0.406393
O65	O	-0.059962	0.579555	-0.073060
O66	O	0.273372	0.912889	0.260274
N67	N	-0.392315	0.326196	-0.326131
N68	N	-0.058982	0.659530	0.007202
N69	N	0.274352	0.992863	0.340535
C70	C	-0.364991	0.369434	-0.282766
C71	C	-0.031658	0.702767	0.050567
C72	C	0.301675	1.036101	0.383900
O73	O	-0.393212	0.406200	-0.245878
O74	O	-0.059879	0.739533	0.087455
O75	O	0.273454	1.072867	0.420788
C76	C	-0.310388	0.369442	-0.282772
C77	C	0.022945	0.702775	0.050561
C78	C	0.356279	1.036108	0.383894
C79	C	-0.283107	0.326209	-0.326139
C80	C	0.050226	0.659543	0.007195
C81	C	0.383559	0.992876	0.340528
C82	C	-0.283146	0.239748	-0.412865
C83	C	0.050187	0.573082	-0.079532
C84	C	0.383520	0.906415	0.253802
C85	C	-0.228546	0.239753	-0.412866
C86	C	0.104788	0.573086	-0.079532
C87	C	0.438121	0.906419	0.253801
C88	C	-0.201226	0.282985	-0.369503
C89	C	0.132107	0.616319	-0.036170
C90	C	0.465441	0.949652	0.297164
C91	C	-0.228507	0.326214	-0.326139
C92	C	0.104827	0.659547	0.007194
C93	C	0.438160	0.992880	0.340527
C94	C	-0.283066	0.412682	-0.239411
C95	C	0.050268	0.746015	0.093922
C96	C	0.383601	1.079349	0.427255
C97	C	-0.228459	0.412687	-0.239421
C98	C	0.104875	0.746020	0.093912
C99	C	0.438208	1.079353	0.427245
C100	C	-0.201178	0.369454	-0.282788
C101	C	0.132156	0.702788	0.050546
C102	C	0.465489	1.036121	0.383879
C103	C	-0.146587	0.369450	-0.282777
C104	C	0.186747	0.702784	0.050556
C105	C	0.520080	1.036117	0.383889
N106	N	-0.119303	0.326226	-0.326146
N107	N	0.214030	0.659559	0.007187
N108	N	0.547364	0.992892	0.340521
C109	C	-0.146623	0.282993	-0.369509
C110	C	0.186711	0.616326	-0.036175
C111	C	0.520044	0.949660	0.297158
C112	C	-0.479662	0.369415	-0.282759
C113	C	-0.146329	0.702748	0.050575
C114	C	0.187005	1.036082	0.383908
C115	C	-0.534264	0.369404	-0.282749
C116	C	-0.200931	0.702737	0.050584
C117	C	0.132402	1.036071	0.383918
C118	C	-0.534301	0.282943	-0.369483
C119	C	-0.200967	0.616276	-0.036150
C120	C	0.132366	0.949609	0.297183
C121	C	-0.479697	0.282950	-0.369489
C122	C	-0.146364	0.616284	-0.036156
C123	C	0.186969	0.949617	0.297178
C124	C	-0.452378	0.326190	-0.326127
C125	C	-0.119045	0.659523	0.007206
C126	C	0.214288	0.992857	0.340540
C127	C	-0.031958	0.283005	-0.369506
C128	C	0.301376	0.616338	-0.036173
C129	C	0.634709	0.949672	0.297160
C130	C	0.022648	0.283011	-0.369501
C131	C	0.355981	0.616344	-0.036168
C132	C	0.689314	0.949678	0.297165
C133	C	0.022679	0.369475	-0.282770
C134	C	0.356013	0.702808	0.050563
C135	C	0.689346	1.036141	0.383897
C136	C	-0.031921	0.369466	-0.282772
C137	C	0.301412	0.702800	0.050561
C138	C	0.634745	1.036133	0.383894
C139	C	-0.059238	0.326229	-0.326146
C140	C	0.274095	0.659563	0.007187
C141	C	0.607428	0.992896	0.340521
O142	O	-0.118288	0.406183	-0.245905
O143	O	0.215045	0.739517	0.087429
O144	O	0.548378	1.072850	0.420762
O145	O	-0.118395	0.246240	-0.406397
O146	O	0.214938	0.579573	-0.073063
O147	O	0.548271	0.912906	0.260270
C148	C	0.108082	0.326249	-0.326155
C149	C	0.441415	0.659583	0.007178
C150	C	0.774748	0.992916	0.340511
C151	C	0.049968	0.326244	-0.326139
C152	C	0.383301	0.659577	0.007195
C153	C	0.716634	0.992910	0.340528
C154	C	-0.755487	0.502072	-0.326104
C155	C	-0.422153	0.835405	0.007229
C156	C	-0.088820	1.168738	0.340562
C157	C	-0.755509	0.577304	-0.326113
C158	C	-0.422176	0.910637	0.007220
C159	C	-0.088843	1.243970	0.340554
C160	C	-0.755568	0.326169	-0.502680
C161	C	-0.422235	0.659502	-0.169347
C162	C	-0.088902	0.992835	0.163987
C163	C	-0.755578	0.326149	-0.577912
C164	C	-0.422245	0.659482	-0.244579
C165	C	-0.088912	0.992815	0.088755
C166	C	-0.755619	0.149673	-0.326185
C167	C	-0.422285	0.483006	0.007148
C168	C	-0.088952	0.816339	0.340482
C169	C	-0.755650	0.074441	-0.326205
C170	C	-0.422317	0.407774	0.007128
C171	C	-0.088983	0.741107	0.340461
C172	C	-0.788976	0.612647	-0.282875
C173	C	-0.455643	0.945980	0.050459
C174	C	-0.122310	1.279314	0.383792
C175	C	-0.788999	0.683335	-0.282890
C176	C	-0.455665	1.016669	0.050444
C177	C	-0.122332	1.350002	0.383777
C178	C	-0.755551	0.718679	-0.326140
C179	C	-0.422217	1.052012	0.007193
C180	C	-0.088884	1.385346	0.340527
C181	C	-0.722082	0.683331	-0.369383
C182	C	-0.388749	1.016664	-0.036050
C183	C	-0.055415	1.349997	0.297283
C184	C	-0.722063	0.612644	-0.369371
C185	C	-0.388730	0.945977	-0.036038
C186	C	-0.055396	1.279310	0.297295
C187	C	-0.722159	0.968404	-0.369433
C188	C	-0.388826	1.301737	-0.036100
C189	C	-0.055493	1.635071	0.297233
C190	C	-0.722180	1.039096	-0.369441
C191	C	-0.388846	1.372429	-0.036107
C192	C	-0.055513	1.705763	0.297226
C193	C	-0.789095	1.039096	-0.282952
C194	C	-0.455762	1.372429	0.050381
C195	C	-0.122428	1.705762	0.383715
C196	C	-0.789076	0.968409	-0.282940
C197	C	-0.455742	1.301742	0.050394
C198	C	-0.122409	1.635075	0.383727
C199	C	-0.755609	0.933066	-0.326185
C200	C	-0.422276	1.266400	0.007148
C201	C	-0.088943	1.599733	0.340482
C202	C	-0.755586	0.856418	-0.326169
C203	C	-0.422253	1.189751	0.007164
C204	C	-0.088920	1.523085	0.340497
C205	C	-0.755571	0.795326	-0.326153
C206	C	-0.422237	1.128660	0.007180
C207	C	-0.088904	1.461993	0.340514
C208	C	-0.722165	0.282844	-0.613261
C209	C	-0.388832	0.616177	-0.279927
C210	C	-0.055499	0.949511	0.053406
C211	C	-0.722173	0.282831	-0.683949
C212	C	-0.388839	0.616164	-0.350616
C213	C	-0.055506	0.949497	-0.017282
C214	C	-0.755596	0.326119	-0.719288
C215	C	-0.422262	0.659453	-0.385954
C216	C	-0.088929	0.992786	-0.052621
C217	C	-0.789010	0.369429	-0.683934
C218	C	-0.455677	0.702762	-0.350601
C219	C	-0.122343	1.036095	-0.017267
C220	C	-0.789000	0.369445	-0.613247
C221	C	-0.455666	0.702778	-0.279914
C222	C	-0.122333	1.036112	0.053420
C223	C	-0.789051	0.369365	-0.969008
C224	C	-0.455718	0.702699	-0.635674
C225	C	-0.122385	1.036032	-0.302341
C226	C	-0.789060	0.369345	-1.039700
C227	C	-0.455727	0.702678	-0.706366
C228	C	-0.122393	1.036011	-0.373033
C229	C	-0.722224	0.282751	-1.039710
C230	C	-0.388891	0.616085	-0.706376
C231	C	-0.055558	0.949418	-0.373043
C232	C	-0.722214	0.282767	-0.969023
C233	C	-0.388881	0.616101	-0.635689
C234	C	-0.055547	0.949434	-0.302356
C235	C	-0.755626	0.326079	-0.933675
C236	C	-0.422293	0.659412	-0.600342
C237	C	-0.088959	0.992746	-0.267008
C238	C	-0.755617	0.326094	-0.857027
C239	C	-0.422284	0.659427	-0.523693
C240	C	-0.088951	0.992760	-0.190360
C241	C	-0.755608	0.326102	-0.795935
C242	C	-0.422274	0.659435	-0.462602
C243	C	-0.088941	0.992768	-0.129268
C244	C	-0.755553	0.326213	-0.150281
C245	C	-0.422219	0.659547	0.183052
C246	C	-0.088886	0.992880	0.516385
C247	C	-0.755644	0.326043	-0.075050
C248	C	-0.422311	0.659376	0.258284
C249	C	-0.088978	0.992710	0.591617
H250	H	-0.054135	0.404664	-0.247454
H251	H	0.279199	0.737997	0.085880
H252	H	0.612532	1.071330	0.419213
C253	C	-0.685372	0.929537	-0.417039
C254	C	-0.352038	1.262870	-0.083706
C255	C	-0.018705	1.596204	0.249628
N256	N	-0.657671	0.900260	-0.452911
N257	N	-0.324338	1.233593	-0.119578
N258	N	0.008995	1.566926	0.213756
H259	H	-0.694951	0.247589	-0.584493
H260	H	-0.361618	0.580923	-0.251160
H261	H	-0.028285	0.914256	0.082174
C262	C	-0.449616	0.416975	-0.235044
C263	C	-0.116283	0.750308	0.098289
C264	C	0.217050	1.083641	0.431623
N265	N	-0.426989	0.452796	-0.199104
N266	N	-0.093655	0.786129	0.134229
N267	N	0.239678	1.119463	0.467563
C268	C	-0.564363	0.235391	-0.417189
C269	C	-0.231029	0.568724	-0.083855
C270	C	0.102304	0.902057	0.249478
N271	N	-0.587007	0.199578	-0.453119
N272	N	-0.253674	0.532911	-0.119786
N273	N	0.079659	0.866244	0.213548
H274	H	-0.694943	1.067871	-0.404665
H275	H	-0.361610	1.401204	-0.071332
H276	H	-0.028276	1.734538	0.262001
C277	C	-0.685421	0.235185	-0.722829
C278	C	-0.352088	0.568518	-0.389496
C279	C	-0.018754	0.901852	-0.056163
N280	N	-0.657740	0.199294	-0.752113
N281	N	-0.324406	0.532628	-0.418780
N282	N	0.008927	0.865961	-0.085447
H283	H	-0.816221	0.404679	-0.712712
H284	H	-0.482888	0.738012	-0.379379
H285	H	-0.149554	1.071345	-0.046046
H286	H	-0.695017	0.247487	-1.068498
H287	H	-0.361684	0.580820	-0.735165
H288	H	-0.028350	0.914154	-0.401831
H289	H	-0.694850	0.712113	-0.404601
H290	H	-0.361517	1.045447	-0.071268
H291	H	-0.028184	1.378780	0.262065
C292	C	-0.061998	0.235438	-0.417216
C293	C	0.271335	0.568771	-0.083882
C294	C	0.604668	0.902104	0.249451
N295	N	-0.084625	0.199606	-0.453146
N296	N	0.248708	0.532939	-0.119813
N297	N	0.582042	0.866273	0.213520
C298	C	0.052741	0.417029	-0.235074
C299	C	0.386075	0.750363	0.098259
C300	C	0.719408	1.083696	0.431593
N301	N	0.075386	0.452851	-0.199153
N302	N	0.408719	0.786185	0.134180
N303	N	0.742052	1.119518	0.467514
C304	C	-0.825826	0.416972	-1.078571
C305	C	-0.492493	0.750305	-0.745237
C306	C	-0.159160	1.083639	-0.411904
N307	N	-0.853517	0.452844	-1.107848
N308	N	-0.520184	0.786177	-0.774515
N309	N	-0.186850	1.119510	-0.441182
H310	H	-0.206339	0.204551	-0.448182
H311	H	0.126995	0.537885	-0.114849
H312	H	0.460328	0.871218	0.218484
H313	H	-0.816310	0.939634	-0.247719
H314	H	-0.482977	1.272967	0.085614
H315	H	-0.149644	1.606301	0.418948
C316	C	-0.825835	0.416972	-0.930135
C317	C	-0.492502	0.750305	-0.596801
C318	C	-0.159168	1.083639	-0.263468
N319	N	-0.853552	0.452818	-0.900853
N320	N	-0.520219	0.786151	-0.567520
N321	N	-0.186886	1.119485	-0.234187
C322	C	-0.825759	0.417080	-0.574364
C323	C	-0.492425	0.750414	-0.241031
C324	C	-0.159092	1.083747	0.092303
N325	N	-0.853447	0.452962	-0.545078
N326	N	-0.520113	0.786295	-0.211745
N327	N	-0.186780	1.119628	0.121589
C328	C	-0.685446	0.235147	-0.930154
C329	C	-0.352112	0.568481	-0.596821
C330	C	-0.018779	0.901814	-0.263487
N331	N	-0.657749	0.199281	-0.900879
N332	N	-0.324416	0.532615	-0.567546
N333	N	0.008918	0.865948	-0.234213
C334	C	0.052653	0.235452	-0.417212
C335	C	0.385987	0.568785	-0.083879
C336	C	0.719320	0.902119	0.249455
N337	N	0.075252	0.199633	-0.453148
N338	N	0.408585	0.532966	-0.119815
N339	N	0.741918	0.866300	0.213518
H340	H	-0.694811	0.583868	-0.404581
H341	H	-0.361478	0.917201	-0.071248
H342	H	-0.028145	1.250534	0.262086
H343	H	-0.305384	0.204543	-0.448180
H344	H	0.027949	0.537876	-0.114846
H345	H	0.361282	0.871209	0.218487
H346	H	-0.556472	0.404601	-0.247428
H347	H	-0.223138	0.737934	0.085905
H348	H	0.110195	1.071268	0.419238
C349	C	-0.313062	0.460245	-0.191706
C350	C	0.020271	0.793578	0.141627
C351	C	0.353604	1.126911	0.474960
N352	N	-0.335655	0.496073	-0.155774
N353	N	-0.002322	0.829407	0.177560
N354	N	0.331012	1.162740	0.510893
C355	C	-0.198411	0.460252	-0.191716
C356	C	0.134922	0.793586	0.141618
C357	C	0.468255	1.126919	0.474951
N358	N	-0.175781	0.496077	-0.155782
N359	N	0.157553	0.829410	0.177551
N360	N	0.490886	1.162743	0.510885
C361	C	-0.449694	0.235396	-0.417200
C362	C	-0.116360	0.568730	-0.083866
C363	C	0.216973	0.902063	0.249467
N364	N	-0.427097	0.199579	-0.453139
N365	N	-0.093764	0.532912	-0.119806
N366	N	0.239569	0.866245	0.213528
H367	H	-0.816211	0.583875	-0.247652
H368	H	-0.482878	0.917208	0.085681
H369	H	-0.149545	1.250541	0.419014
H370	H	-0.816251	0.712109	-0.247680
H371	H	-0.482917	1.045442	0.085653
H372	H	-0.149584	1.378775	0.418987
H373	H	-0.816347	1.067880	-0.247742
H374	H	-0.483014	1.401213	0.085591
H375	H	-0.149680	1.734546	0.418925
