data_functionalizedCrystal
_audit_creation_method	'MofGen! by Chris Wilmer'
_symmetry_space_group_name_H-M	'P1'
_symmetry_Int_Tables_number	1
_symmetry_cell_setting	triclinic
loop_
_symmetry_equiv_pos_as_xyz
  x,y,z
_cell_length_a	21.295419
_cell_length_b	29.839132
_cell_length_c	21.295411
_cell_angle_alpha	89.977422
_cell_angle_beta	90.024539
_cell_angle_gamma	89.939935
loop_
_atom_site_label
_atom_site_type_symbol
_atom_site_fract_x
_atom_site_fract_y
_atom_site_fract_z
Zn1	Zn	0.962291	0.178727	0.355907
Zn2	Zn	1.295624	0.512060	0.689240
Zn3	Zn	1.628958	0.845394	1.022574
Zn4	Zn	0.962166	0.253843	0.250631
Zn5	Zn	1.295500	0.587176	0.583964
Zn6	Zn	1.628833	0.920509	0.917297
Zn7	Zn	0.857014	0.178747	0.250652
Zn8	Zn	1.190348	0.512080	0.583985
Zn9	Zn	1.523681	0.845414	0.917319
Zn10	Zn	0.856956	0.253850	0.355862
Zn11	Zn	1.190290	0.587184	0.689196
Zn12	Zn	1.523623	0.920517	1.022529
O13	O	0.909607	0.216292	0.303263
O14	O	1.242940	0.549625	0.636596
O15	O	1.576274	0.882958	0.969930
O16	O	1.050364	0.188680	0.341952
O17	O	1.383697	0.522013	0.675285
O18	O	1.717031	0.855347	1.008618
O19	O	0.948190	0.243886	0.162544
O20	O	1.281523	0.577219	0.495877
O21	O	1.614856	0.910553	0.829211
O22	O	0.871056	0.115877	0.264642
O23	O	1.204389	0.449210	0.597975
O24	O	1.537722	0.782544	0.931309
O25	O	1.050272	0.243867	0.264606
O26	O	1.383606	0.577200	0.597939
O27	O	1.716939	0.910534	0.931272
O28	O	0.948402	0.115863	0.341972
O29	O	1.281735	0.449196	0.675306
O30	O	1.615069	0.782529	1.008639
O31	O	0.870935	0.188714	0.162560
O32	O	1.204268	0.522047	0.495893
O33	O	1.537601	0.855380	0.829226
O34	O	0.768917	0.188721	0.264599
O35	O	1.102250	0.522054	0.597932
O36	O	1.435584	0.855388	0.931265
O37	O	0.870957	0.243880	0.443958
O38	O	1.204291	0.577213	0.777291
O39	O	1.537624	0.910547	1.110624
O40	O	0.768875	0.243899	0.341896
O41	O	1.102208	0.577232	0.675230
O42	O	1.435541	0.910566	1.008563
O43	O	0.948346	0.188687	0.443991
O44	O	1.281680	0.522021	0.777324
O45	O	1.615013	0.855354	1.110657
O46	O	0.948134	0.316711	0.264562
O47	O	1.281467	0.650044	0.597896
O48	O	1.614800	0.983377	0.931229
O49	O	0.870836	0.316716	0.341876
O50	O	1.204170	0.650050	0.675209
O51	O	1.537503	0.983383	1.008542
C52	C	0.746055	0.216313	0.303245
C53	C	1.079389	0.549647	0.636579
C54	C	1.412722	0.882980	0.969912
C55	C	0.676087	0.216333	0.303253
C56	C	1.009421	0.549667	0.636586
C57	C	1.342754	0.883000	0.969919
C58	C	0.643291	0.187644	0.343589
C59	C	0.976624	0.520978	0.676922
C60	C	1.309957	0.854311	1.010256
C61	C	0.577548	0.187632	0.343592
C62	C	0.910882	0.520966	0.676925
C63	C	1.244215	0.854299	1.010258
C64	C	0.544605	0.216317	0.303264
C65	C	0.877938	0.549651	0.636598
C66	C	1.211271	0.882984	0.969931
C67	C	0.577409	0.245008	0.262920
C68	C	0.910743	0.578341	0.596253
C69	C	1.244076	0.911675	0.929587
C70	C	0.643150	0.245016	0.262914
C71	C	0.976484	0.578350	0.596248
C72	C	1.309817	0.911683	0.929581
N73	N	0.441315	0.255624	0.298344
N74	N	0.774648	0.588958	0.631677
N75	N	1.107982	0.922291	0.965010
N76	N	0.378864	0.255616	0.298353
N77	N	0.712197	0.588949	0.631686
N78	N	1.045530	0.922282	0.965019
C79	C	0.346530	0.216294	0.303278
C80	C	0.679863	0.549627	0.636611
C81	C	1.013197	0.882961	0.969945
N82	N	0.379007	0.176981	0.308206
N83	N	0.712340	0.510314	0.641540
N84	N	1.045674	0.843647	0.974873
N85	N	0.441464	0.176990	0.308201
N86	N	0.774798	0.510324	0.641534
N87	N	1.108131	0.843657	0.974867
C88	C	0.473319	0.216311	0.303266
C89	C	0.806653	0.549645	0.636599
C90	C	1.139986	0.882978	0.969932
C91	C	0.242448	0.187590	0.343619
C92	C	0.575781	0.520923	0.676953
C93	C	0.909115	0.854256	1.010286
C94	C	0.176704	0.187577	0.343617
C95	C	0.510038	0.520910	0.676951
C96	C	0.843371	0.854243	1.010284
C97	C	0.176567	0.244957	0.262949
C98	C	0.509900	0.578290	0.596282
C99	C	0.843233	0.911623	0.929616
C100	C	0.242309	0.244965	0.262948
C101	C	0.575642	0.578299	0.596281
C102	C	0.908976	0.911632	0.929614
C103	C	0.275246	0.216282	0.303286
C104	C	0.608579	0.549616	0.636620
C105	C	0.941912	0.882949	0.969953
C106	C	0.909482	0.333014	0.303226
C107	C	1.242816	0.666348	0.636559
C108	C	1.576149	0.999681	0.969892
C109	C	0.909487	0.382949	0.303231
C110	C	1.242820	0.716282	0.636564
C111	C	1.576153	1.049615	0.969897
C112	C	0.949884	0.692577	0.263039
C113	C	1.283217	1.025910	0.596372
C114	C	1.616551	1.359243	0.929706
C115	C	0.949944	0.880250	0.263053
C116	C	1.283277	1.213583	0.596387
C117	C	1.616611	1.546916	0.929720
O118	O	0.984224	0.904501	0.228870
O119	O	1.317557	1.237835	0.562203
O120	O	1.650890	1.571168	0.895537
N121	N	0.909673	0.903734	0.303273
N122	N	1.243006	1.237067	0.636607
N123	N	1.576340	1.570400	0.969940
C124	C	0.869387	0.880297	0.343495
C125	C	1.202720	1.213630	0.676829
C126	C	1.536053	1.546963	1.010162
O127	O	0.835140	0.904578	0.377710
O128	O	1.168473	1.237911	0.711043
O129	O	1.501806	1.571244	1.044377
C130	C	0.869330	0.692625	0.343484
C131	C	1.202664	1.025958	0.676817
C132	C	1.535997	1.359291	1.010151
C133	C	0.909600	0.669143	0.303257
C134	C	1.242933	1.002476	0.636590
C135	C	1.576266	1.335810	0.969923
C136	C	0.990151	0.669095	0.222816
C137	C	1.323484	1.002428	0.556149
C138	C	1.656817	1.335761	0.889482
C139	C	0.990133	0.622179	0.222810
C140	C	1.323466	0.955513	0.556143
C141	C	1.656799	1.288846	0.889477
C142	C	0.949848	0.598746	0.263028
C143	C	1.283182	0.932079	0.596361
C144	C	1.616515	1.265412	0.929695
C145	C	0.909582	0.622227	0.303251
C146	C	1.242915	0.955561	0.636585
C147	C	1.576248	1.288894	0.969918
C148	C	0.829048	0.669189	0.383709
C149	C	1.162381	1.002522	0.717042
C150	C	1.495714	1.335855	1.050376
C151	C	0.829038	0.622268	0.383704
C152	C	1.162372	0.955601	0.717037
C153	C	1.495705	1.288934	1.050370
C154	C	0.869308	0.598786	0.343476
C155	C	1.202641	0.932119	0.676810
C156	C	1.535974	1.265452	1.010143
C157	C	0.869280	0.551878	0.343463
C158	C	1.202613	0.885212	0.676797
C159	C	1.535946	1.218545	1.010130
N160	N	0.909551	0.528394	0.303243
N161	N	1.242884	0.861728	0.636577
N162	N	1.576217	1.195061	0.969910
C163	C	0.949835	0.551828	0.263026
C164	C	1.283169	0.885161	0.596359
C165	C	1.616502	1.218495	0.929692
C166	C	0.869418	0.978827	0.343498
C167	C	1.202752	1.312161	0.676831
C168	C	1.536085	1.645494	1.010164
C169	C	0.869432	1.025745	0.343500
C170	C	1.202765	1.359079	0.676833
C171	C	1.536098	1.692412	1.010167
C172	C	0.949990	1.025695	0.263059
C173	C	1.283323	1.359028	0.596392
C174	C	1.616657	1.692361	0.929725
C175	C	0.949973	0.978776	0.263054
C176	C	1.283306	1.312109	0.596387
C177	C	1.616640	1.645443	0.929720
C178	C	0.909690	0.955343	0.303278
C179	C	1.243023	1.288677	0.636611
C180	C	1.576356	1.622010	0.969945
C181	C	0.949794	0.453302	0.263017
C182	C	1.283128	0.786635	0.596350
C183	C	1.616461	1.119969	0.929683
C184	C	0.949771	0.406382	0.263013
C185	C	1.283104	0.739716	0.596346
C186	C	1.616438	1.073049	0.929679
C187	C	0.869215	0.406437	0.343456
C188	C	1.202549	0.739770	0.676790
C189	C	1.535882	1.073104	1.010123
C190	C	0.869236	0.453352	0.343458
C191	C	1.202569	0.786686	0.676791
C192	C	1.535903	1.120019	1.010125
C193	C	0.909531	0.476784	0.303236
C194	C	1.242864	0.810117	0.636569
C195	C	1.576197	1.143451	0.969903
O196	O	0.835023	0.527598	0.377634
O197	O	1.168356	0.860931	0.710967
O198	O	1.501690	1.194264	1.044300
O199	O	0.984087	0.527539	0.228826
O200	O	1.317420	0.860872	0.562159
O201	O	1.650754	1.194205	0.895493
C202	C	0.949902	0.739492	0.263045
C203	C	1.283235	1.072825	0.596378
C204	C	1.616569	1.406159	0.929711
C205	C	0.909635	0.762974	0.303268
C206	C	1.242969	1.096307	0.636601
C207	C	1.576302	1.429640	0.969935
C208	C	0.869351	0.739540	0.343486
C209	C	1.202684	1.072873	0.676819
C210	C	1.536018	1.406207	1.010152
C211	C	0.909649	0.809892	0.303270
C212	C	1.242982	1.143225	0.636604
C213	C	1.576315	1.476558	0.969937
C214	C	0.949933	0.833325	0.263052
C215	C	1.283266	1.166659	0.596386
C216	C	1.616600	1.499992	0.929719
C217	C	0.990204	0.809841	0.222832
C218	C	1.323538	1.143174	0.556166
C219	C	1.656871	1.476508	0.889499
C220	C	0.990186	0.762926	0.222827
C221	C	1.323520	1.096259	0.556160
C222	C	1.656853	1.429592	0.889494
C223	C	0.829080	0.763024	0.383706
C224	C	1.162413	1.096358	0.717039
C225	C	1.495746	1.429691	1.050372
C226	C	0.829100	0.809940	0.383708
C227	C	1.162434	1.143273	0.717041
C228	C	1.495767	1.476606	1.050374
C229	C	0.869385	0.833373	0.343490
C230	C	1.202718	1.166707	0.676823
C231	C	1.536051	1.500040	1.010156
C232	C	1.073797	0.216270	0.303281
C233	C	1.407131	0.549604	0.636614
C234	C	1.740464	0.882937	0.969948
C235	C	1.143765	0.216261	0.303289
C236	C	1.477099	0.549595	0.636622
C237	C	1.810432	0.882928	0.969956
C238	C	0.909726	1.099113	0.303301
C239	C	1.243059	1.432447	0.636634
C240	C	1.576392	1.765780	0.969968
C241	C	0.909716	1.049179	0.303282
C242	C	1.243049	1.382512	0.636616
C243	C	1.576383	1.715846	0.969949
C244	C	0.909659	0.216282	0.467453
C245	C	1.242993	0.549616	0.800787
C246	C	1.576326	0.882949	1.134120
C247	C	0.909682	0.216278	0.537422
C248	C	1.243015	0.549612	0.870755
C249	C	1.576348	0.882945	1.204088
C250	C	0.909591	0.216269	0.139711
C251	C	1.242925	0.549602	0.473045
C252	C	1.576258	0.882935	0.806378
C253	C	0.909691	0.216146	0.069744
C254	C	1.243024	0.549480	0.403077
C255	C	1.576358	0.882813	0.736410
C256	C	0.949976	0.187538	0.570306
C257	C	1.283309	0.520871	0.903640
C258	C	1.616643	0.854205	1.236973
C259	C	0.949975	0.187519	0.636049
C260	C	1.283309	0.520852	0.969382
C261	C	1.616642	0.854185	1.302715
C262	C	0.909686	0.216247	0.668904
C263	C	1.243020	0.549581	1.002237
C264	C	1.576353	0.882914	1.335571
C265	C	0.869384	0.244989	0.636011
C266	C	1.202717	0.578323	0.969345
C267	C	1.536051	0.911656	1.302678
C268	C	0.869382	0.245005	0.570270
C269	C	1.202715	0.578338	0.903603
C270	C	1.536048	0.911671	1.236937
N271	N	0.904816	0.255549	0.772119
N272	N	1.238149	0.588882	1.105452
N273	N	1.571482	0.922215	1.438785
N274	N	0.904822	0.255533	0.834570
N275	N	1.238155	0.588866	1.167903
N276	N	1.571488	0.922199	1.501237
C277	C	0.909690	0.216202	0.866979
C278	C	1.243024	0.549535	1.200312
C279	C	1.576357	0.882868	1.533646
N280	N	0.914565	0.176886	0.834577
N281	N	1.247899	0.510220	1.167910
N282	N	1.581232	0.843553	1.501244
N283	N	0.914563	0.176903	0.772120
N284	N	1.247896	0.510236	1.105453
N285	N	1.581229	0.843570	1.438787
C286	C	0.909684	0.216233	0.740190
C287	C	1.243018	0.549567	1.073523
C288	C	1.576351	0.882900	1.406856
C289	C	0.949986	0.187438	0.971149
C290	C	1.283320	0.520771	1.304483
C291	C	1.616653	0.854105	1.637816
C292	C	0.949981	0.187418	1.036893
C293	C	1.283314	0.520751	1.370226
C294	C	1.616648	0.854084	1.703560
C295	C	0.869393	0.244893	1.036854
C296	C	1.202726	0.578226	1.370188
C297	C	1.536060	0.911559	1.703521
C298	C	0.869395	0.244909	0.971112
C299	C	1.202728	0.578242	1.304445
C300	C	1.536062	0.911575	1.637779
C301	C	0.909695	0.216182	0.938263
C302	C	1.243028	0.549516	1.271597
C303	C	1.576362	0.882849	1.604930
H304	H	0.982563	0.387265	0.230253
H305	H	1.315896	0.720598	0.563586
H306	H	1.649230	1.053932	0.896919
H307	H	0.150003	0.164212	0.376463
H308	H	0.483336	0.497545	0.709796
H309	H	0.816669	0.830879	1.043130
Br310	Br	0.814569	0.485222	0.398037
Br311	Br	1.147902	0.818555	0.731370
Br312	Br	1.481236	1.151888	1.064704
Br313	Br	1.004666	0.148550	0.525729
Br314	Br	1.337999	0.481884	0.859062
Br315	Br	1.671333	0.815217	1.192395
H316	H	0.982793	0.164012	1.063667
H317	H	1.316126	0.497345	1.397000
H318	H	1.649459	0.830678	1.730333
Br319	Br	0.131865	0.283882	0.208211
Br320	Br	0.465198	0.617215	0.541545
Br321	Br	0.798531	0.950549	0.874878
H322	H	0.982787	0.164113	0.662829
H323	H	1.316120	0.497446	0.996162
H324	H	1.649453	0.830779	1.329495
Br325	Br	0.533029	0.148693	0.398335
Br326	Br	0.866362	0.482026	0.731669
Br327	Br	1.199695	0.815360	1.065002
Br328	Br	0.286822	0.283899	0.208198
Br329	Br	0.620155	0.617232	0.541531
Br330	Br	0.953489	0.950566	0.874864
Br331	Br	1.044796	0.590319	0.168222
Br332	Br	1.378130	0.923652	0.501556
Br333	Br	1.711463	1.256985	0.834889
Br334	Br	1.004675	0.148452	0.926565
Br335	Br	1.338009	0.481785	1.259898
Br336	Br	1.671342	0.815118	1.593232
Br337	Br	1.004480	0.485094	0.208429
Br338	Br	1.337814	0.818428	0.541763
Br339	Br	1.671147	1.151761	0.875096
Br340	Br	1.044831	0.700889	0.168228
Br341	Br	1.378165	1.034222	0.501562
Br342	Br	1.711498	1.367555	0.834895
Br343	Br	0.814769	1.057608	0.398087
Br344	Br	1.148102	1.390941	0.731420
Br345	Br	1.481435	1.724274	1.064753
Br346	Br	1.004626	0.946913	0.208457
Br347	Br	1.337959	1.280246	0.541791
Br348	Br	1.671292	1.613580	0.875124
Br349	Br	0.532702	0.283935	0.208185
Br350	Br	0.866035	0.617268	0.541518
Br351	Br	1.199369	0.950601	0.874852
Br352	Br	0.814691	0.284012	0.525638
Br353	Br	1.148024	0.617345	0.858971
Br354	Br	1.481357	0.950678	1.192304
Br355	Br	0.814706	0.283877	1.081437
Br356	Br	1.148039	0.617210	1.414770
Br357	Br	1.481373	0.950543	1.748103
Br358	Br	0.814742	0.947032	0.398093
Br359	Br	1.148075	1.280366	0.731426
Br360	Br	1.481409	1.613699	1.064760
Br361	Br	0.774400	0.701045	0.438313
Br362	Br	1.107733	1.034378	0.771646
Br363	Br	1.441066	1.367711	1.104980
Br364	Br	0.814707	0.283916	0.926479
Br365	Br	1.148041	0.617250	1.259813
Br366	Br	1.481374	0.950583	1.593146
H367	H	0.982791	1.044782	0.230312
H368	H	1.316125	1.378116	0.563645
H369	H	1.649458	1.711449	0.896978
H370	H	0.796303	0.829055	0.416465
H371	H	1.129636	1.162388	0.749798
H372	H	1.462969	1.495721	1.083131
H373	H	0.669853	0.268379	0.230067
H374	H	1.003186	0.601712	0.563400
H375	H	1.336520	0.935046	0.896733
H376	H	0.796235	0.603191	0.416461
H377	H	1.129569	0.936524	0.749794
H378	H	1.462902	1.269857	1.083128
H379	H	0.836414	0.387350	0.376199
H380	H	1.169747	0.720683	0.709533
H381	H	1.503081	1.054017	1.042866
H382	H	1.022978	0.743810	0.190070
H383	H	1.356311	1.077144	0.523404
H384	H	1.689644	1.410477	0.856737
Br385	Br	0.287152	0.148661	0.398359
Br386	Br	0.620485	0.481995	0.731692
Br387	Br	0.953819	0.815328	1.065026
H388	H	0.670104	0.164288	0.376435
H389	H	1.003437	0.497622	0.709769
H390	H	1.336771	0.830955	1.043102
Br391	Br	1.044873	0.841653	0.168249
Br392	Br	1.378206	1.174987	0.501582
Br393	Br	1.711539	1.508320	0.834916
H394	H	0.796276	0.743948	0.416457
H395	H	1.129609	1.077282	0.749790
H396	H	1.462943	1.410615	1.083123
H397	H	0.836579	0.268379	0.662766
H398	H	1.169912	0.601712	0.996100
H399	H	1.503245	0.935046	1.329433
