data_functionalizedCrystal
_audit_creation_method	'MofGen! by Chris Wilmer'
_symmetry_space_group_name_H-M	'P1'
_symmetry_Int_Tables_number	1
_symmetry_cell_setting	triclinic
loop_
_symmetry_equiv_pos_as_xyz
  x,y,z
_cell_length_a	16.974800
_cell_length_b	16.992695
_cell_length_c	9.730223
_cell_angle_alpha	89.998169
_cell_angle_beta	93.656614
_cell_angle_gamma	87.021674
loop_
_atom_site_label
_atom_site_type_symbol
_atom_site_fract_x
_atom_site_fract_y
_atom_site_fract_z
O1	O	1.055459	0.099873	0.003147
O2	O	0.826057	0.112613	-0.022381
O3	O	0.939838	-0.007898	-0.009708
O4	O	0.941678	0.220385	-0.009526
O5	O	0.939837	-0.007895	0.218871
O6	O	0.826055	0.112616	0.206199
O7	O	1.055458	0.099876	0.231727
Zn8	Zn	0.940757	0.106247	0.255255
Zn9	Zn	0.940758	0.106243	-0.045909
O10	O	0.941676	0.220388	0.219054
C11	C	0.796567	0.112132	0.088627
C12	C	0.708698	0.110684	0.078850
C13	C	0.667421	0.110004	0.198858
C14	C	0.584860	0.108631	0.189675
C15	C	0.543577	0.107945	0.060482
C16	C	0.584860	0.108623	-0.059536
C17	C	0.667420	0.109990	-0.050351
C18	C	0.296659	0.103850	0.019651
C19	C	0.214093	0.102486	0.010476
C20	C	0.214100	0.102493	0.259687
C21	C	0.296661	0.103865	0.268860
C22	C	0.337937	0.104538	0.148843
N23	N	0.459186	0.106544	0.051092
N24	N	0.422326	0.105933	0.158235
C25	C	0.937472	-0.037107	0.104318
C26	C	0.930412	-0.124143	0.103532
C27	C	0.998528	-0.174460	0.111113
C28	C	0.991890	-0.256239	0.110362
C29	C	0.917135	-0.287700	0.102038
C30	C	0.849015	-0.237376	0.094452
C31	C	0.855653	-0.155598	0.095194
C32	C	0.889621	-0.531266	0.098958
C33	C	0.882987	-0.613050	0.098220
C34	C	1.025863	-0.631908	0.114127
C35	C	1.032495	-0.550128	0.114877
C36	C	0.964374	-0.499812	0.107283
N37	N	0.910349	-0.371291	0.101274
N38	N	0.971162	-0.416222	0.108038
C39	C	1.084948	0.100358	0.120715
C40	C	1.172817	0.101805	0.130484
C41	C	0.944043	0.249596	0.105025
C42	C	0.951103	0.336632	0.105802
N43	N	0.940761	0.106249	0.460792
N44	N	0.940759	0.106234	-0.251445
C45	C	0.991159	0.052904	0.538331
C46	C	0.991156	0.052895	0.682213
C47	C	0.890357	0.159581	0.671005
C48	C	0.890356	0.159587	0.527125
C49	C	1.049357	-0.008688	0.544803
C50	C	1.049354	-0.008698	0.688686
H51	H	0.180484	0.101943	0.357398
H52	H	0.551257	0.108064	0.287399
H53	H	0.330268	0.104420	0.374063
C54	C	0.781764	-0.100873	0.087187
C55	C	0.781407	-0.053360	0.204726
C56	C	0.713356	-0.002931	0.197381
H57	H	0.736233	-0.131222	0.082189
H58	H	0.781384	-0.068533	0.007473
H59	H	0.781780	-0.085696	0.284418
H60	H	0.826923	-0.022994	0.209747
H61	H	0.712976	0.029409	0.117668
H62	H	0.667831	-0.033287	0.192380
H63	H	0.713109	0.029317	0.277123
H64	H	0.701026	0.110545	-0.148075
C65	C	0.712100	0.110706	0.339257
C66	C	0.658277	0.109793	0.442388
C67	C	0.699404	0.110425	0.571742
H68	H	0.741165	0.156925	0.347867
H69	H	0.747435	0.065520	0.348444
H70	H	0.622956	0.154974	0.433204
H71	H	0.629209	0.063577	0.433823
H72	H	0.734740	0.065239	0.580930
H73	H	0.728469	0.156645	0.580338
H74	H	0.662893	0.109798	0.641732
H75	H	0.180483	0.101929	-0.094734
C76	C	0.835602	0.217586	0.443182
C77	C	0.791477	0.264307	0.532075
C78	C	0.741034	0.317752	0.454798
H79	H	0.800843	0.189487	0.383182
H80	H	0.866080	0.250259	0.390475
H81	H	0.761000	0.231638	0.584759
H82	H	0.826214	0.292422	0.592076
H83	H	0.771512	0.350425	0.402091
H84	H	0.706281	0.289647	0.394801
H85	H	0.711094	0.349463	0.515101
H86	H	0.834151	-0.490308	0.092775
H87	H	1.032585	-0.068825	0.503889
H88	H	0.849317	0.203007	0.725029
H89	H	1.047357	-0.297205	0.116538
C90	C	1.131324	0.008262	0.749975
C91	C	1.160855	-0.055196	0.833103
C92	C	1.236363	-0.039605	0.889572
H93	H	1.128335	0.054763	0.803976
H94	H	1.165509	0.015370	0.677880
H95	H	1.126679	-0.062294	0.905188
H96	H	1.163863	-0.101703	0.779133
H97	H	1.270547	-0.032497	0.817476
H98	H	1.233366	0.006897	0.943567
H99	H	1.256412	-0.082661	0.945970
H100	H	0.330256	0.104397	-0.078075
C101	C	1.113636	-0.515925	0.124184
C102	C	1.121624	-0.469546	0.242691
C103	C	1.196363	-0.438032	0.251325
H104	H	1.119274	-0.484359	0.045195
H105	H	1.153282	-0.557581	0.128667
H106	H	1.081989	-0.427896	0.238197
H107	H	1.116001	-0.501095	0.321701
H108	H	1.236009	-0.479688	0.255807
H109	H	1.201994	-0.406469	0.172330
H110	H	1.201795	-0.406567	0.331737
C111	C	1.099791	-0.686577	0.122069
C112	C	1.100164	-0.734057	0.004490
C113	C	1.168262	-0.784419	0.011743
H114	H	1.100245	-0.718948	0.201734
H115	H	1.145284	-0.656155	0.127058
H116	H	1.054684	-0.764476	-0.000485
H117	H	1.099722	-0.701707	-0.075193
H118	H	1.213755	-0.753998	0.016732
H119	H	1.168710	-0.816785	0.091412
H120	H	1.168528	-0.816635	-0.068037
C121	C	0.539896	0.107914	-0.199678
C122	C	0.458756	0.106594	-0.182040
C123	C	0.417312	0.105955	-0.311111
H124	H	0.556474	0.062449	-0.249129
H125	H	0.550236	0.153854	-0.249741
H126	H	0.448422	0.060659	-0.131999
H127	H	0.442155	0.152056	-0.132612
H128	H	0.427652	0.151894	-0.361173
H129	H	0.433896	0.060489	-0.360551
H130	H	0.362254	0.105066	-0.299161
H131	H	1.107772	0.009849	0.506676
H132	H	0.788148	-0.262997	0.087667
C133	C	0.801839	-0.647249	0.089462
C134	C	0.793841	-0.693629	0.206191
C135	C	0.719099	-0.725136	0.198184
H136	H	0.796202	-0.678814	0.009219
H137	H	0.762196	-0.605590	0.085115
H138	H	0.833473	-0.735283	0.210524
H139	H	0.799463	-0.662082	0.286451
H140	H	0.679456	-0.683477	0.193837
H141	H	0.713469	-0.756697	0.117937
H142	H	0.713660	-0.756603	0.277388
C143	C	1.019669	-0.084471	0.744630
C144	C	0.999992	-0.134656	0.635027
C145	C	0.972664	-0.204471	0.686514
H146	H	0.974246	-0.072628	0.794520
H147	H	1.059913	-0.109640	0.804001
H148	H	0.959751	-0.109492	0.575679
H149	H	1.045403	-0.146521	0.585127
H150	H	1.012908	-0.229640	0.745886
H151	H	0.927243	-0.192620	0.736404
H152	H	0.959317	-0.238533	0.612158
C153	C	1.079763	-0.140460	0.120084
C154	C	1.137994	-0.202033	0.126521
C155	C	1.212838	-0.170745	0.134760
H156	H	1.085438	-0.108964	0.200404
H157	H	1.085362	-0.108972	0.040963
H158	H	1.132397	-0.233508	0.205634
H159	H	1.132344	-0.233534	0.046210
H160	H	1.218437	-0.139257	0.055639
H161	H	1.218505	-0.139250	0.215080
H162	H	1.252356	-0.212517	0.139116
