data_functionalizedCrystal
_audit_creation_method	'MofGen! by Chris Wilmer'
_symmetry_space_group_name_H-M	'P1'
_symmetry_Int_Tables_number	1
_symmetry_cell_setting	triclinic
loop_
_symmetry_equiv_pos_as_xyz
  x,y,z
_cell_length_a	13.635800
_cell_length_b	10.943632
_cell_length_c	12.200783
_cell_angle_alpha	76.564055
_cell_angle_beta	72.857917
_cell_angle_gamma	71.161120
loop_
_atom_site_label
_atom_site_type_symbol
_atom_site_fract_x
_atom_site_fract_y
_atom_site_fract_z
V1	V	1.859200	-0.178916	0.357632
O2	O	1.841818	0.008303	0.350853
O3	O	1.849548	-0.354477	0.355159
O4	O	1.761580	-0.176293	0.513620
O5	O	1.930394	-0.171114	0.191294
V6	V	2.108642	-0.156507	0.337740
O7	O	1.972980	-0.228072	0.401267
O8	O	2.219960	-0.107351	0.294105
O9	O	2.006691	0.019054	0.340213
O10	O	2.184722	-0.343726	0.344520
O11	O	2.096146	-0.164309	0.504078
O12	O	2.094658	-0.159130	0.181752
V13	V	2.359200	-0.178916	0.357632
O14	O	2.341818	0.008303	0.350853
O15	O	2.349548	-0.354477	0.355159
O16	O	2.261580	-0.176293	0.513620
O17	O	2.430394	-0.171114	0.191294
V18	V	2.608642	-0.156507	0.337740
O19	O	2.472980	-0.228072	0.401267
O20	O	2.719960	-0.107351	0.294105
O21	O	2.506691	0.019054	0.340213
O22	O	2.684722	-0.343726	0.344520
O23	O	2.596146	-0.164309	0.504078
O24	O	2.594658	-0.159130	0.181752
C25	C	1.777963	-0.397271	0.349510
C26	C	1.810225	-0.540795	0.348528
C27	C	1.736276	-0.617943	0.341995
C28	C	1.827104	-0.690515	0.249392
C29	C	1.776890	-0.723960	0.439392
C30	C	1.900650	-0.611464	0.255860
C31	C	1.850399	-0.644915	0.445944
C32	C	1.941292	-0.717450	0.353323
C33	C	1.665752	-0.169978	0.551642
C34	C	1.626676	-0.168995	0.679163
C35	C	1.909948	0.061841	0.345859
C36	C	1.867302	0.205364	0.346849
C37	C	2.022161	-0.165449	0.143724
C38	C	2.050856	-0.166426	0.016202
C39	C	1.555112	-0.167197	0.912637
C40	C	1.594931	-0.168197	0.782715
C41	C	2.074161	-0.167218	-0.087360
C42	C	2.103388	-0.168207	-0.217283
C43	C	2.165752	-0.169978	0.551642
C44	C	2.126676	-0.168995	0.679163
C45	C	2.277963	-0.397271	0.349510
C46	C	2.310225	-0.540795	0.348528
C47	C	2.409948	0.061841	0.345859
C48	C	2.367302	0.205364	0.346849
C49	C	2.522161	-0.165449	0.143724
C50	C	2.550856	-0.166426	0.016202
C51	C	2.236276	-0.617943	0.341995
C52	C	2.327104	-0.690515	0.249392
C53	C	2.276890	-0.723960	0.439392
C54	C	2.400650	-0.611464	0.255860
C55	C	2.350399	-0.644915	0.445944
C56	C	2.441292	-0.717450	0.353323
H57	H	1.649338	-0.574455	0.337097
C58	C	2.558808	-0.775858	0.359749
N59	N	2.647321	-0.819852	0.364583
H60	H	2.359870	-0.624191	0.529055
H61	H	2.317592	-0.711207	0.166281
H62	H	2.149338	-0.574455	0.337097
H63	H	2.452671	-0.562634	0.178218
C64	C	1.863185	-0.616902	0.558224
N65	N	1.872804	-0.595799	0.642803
C66	C	1.706629	-0.790110	0.544157
N67	N	1.653702	-0.839928	0.623062
H68	H	2.224883	-0.772942	0.516930
C69	C	1.814253	-0.718483	0.137119
N70	N	1.804565	-0.739547	0.052559
H71	H	1.952671	-0.562634	0.178218
H72	H	2.028279	-0.760678	0.358079
