data_functionalizedCrystal
_audit_creation_method	'MofGen! by Chris Wilmer'
_symmetry_space_group_name_H-M	'P1'
_symmetry_Int_Tables_number	1
_symmetry_cell_setting	triclinic
loop_
_symmetry_equiv_pos_as_xyz
  x,y,z
_cell_length_a	12.811438
_cell_length_b	14.044220
_cell_length_c	11.892095
_cell_angle_alpha	94.243827
_cell_angle_beta	80.666371
_cell_angle_gamma	88.595284
loop_
_atom_site_label
_atom_site_type_symbol
_atom_site_fract_x
_atom_site_fract_y
_atom_site_fract_z
O1	O	1.420301	0.112339	-0.239597
O2	O	1.920301	0.612339	0.260403
O3	O	1.113964	0.128242	-0.208198
O4	O	1.613964	0.628242	0.291802
O5	O	1.262534	-0.017681	-0.223415
O6	O	1.762534	0.482319	0.276585
O7	O	1.271731	0.258262	-0.224380
O8	O	1.771731	0.758262	0.275620
O9	O	1.250144	-0.005533	-0.034139
O10	O	1.750144	0.494467	0.465861
O11	O	1.101574	0.140390	-0.018922
O12	O	1.601574	0.640390	0.481078
O13	O	1.407912	0.124487	-0.050321
O14	O	1.907912	0.624487	0.449679
Zn15	Zn	1.252776	0.134367	-0.004570
Zn16	Zn	1.752776	0.634367	0.495430
Zn17	Zn	1.269100	0.118361	-0.253950
Zn18	Zn	1.769100	0.618361	0.246050
O19	O	1.259342	0.270410	-0.035104
O20	O	1.759342	0.770410	0.464896
C21	C	1.068328	0.133797	-0.109517
C22	C	1.568328	0.633797	0.390483
C23	C	0.950804	0.132240	-0.097471
C24	C	1.450804	0.632240	0.402529
C25	C	0.778406	0.136667	0.022676
C26	C	1.278406	0.636667	0.522676
C27	C	0.888830	0.138131	0.011363
C28	C	1.388830	0.638131	0.511363
C29	C	0.902346	0.124887	-0.194998
C30	C	1.402346	0.624887	0.305002
C31	C	0.791922	0.123423	-0.183684
C32	C	1.291922	0.623423	0.316316
C33	C	0.729956	0.129312	-0.074844
C34	C	1.229956	0.629312	0.425156
C35	C	0.619530	0.127841	-0.063531
C36	C	1.119530	0.627841	0.436469
C37	C	0.633048	0.114604	-0.269891
C38	C	1.133048	0.614604	0.230109
C39	C	0.743472	0.116068	-0.281204
C40	C	1.243472	0.616068	0.218796
C41	C	1.252313	-0.046911	-0.128364
C42	C	1.752313	0.453089	0.371636
C43	C	1.240306	-0.152105	-0.127132
C44	C	1.740306	0.347895	0.372868
C45	C	1.218355	-0.344709	-0.124898
C46	C	1.718355	0.155291	0.375102
C47	C	1.303517	-0.402569	-0.133631
C48	C	1.803517	0.097431	0.366369
C49	C	1.291303	-0.509740	-0.132388
C50	C	1.791303	-0.009740	0.367612
C51	C	1.230567	-0.237527	-0.126141
C52	C	1.730567	0.262473	0.373859
C53	C	1.453548	0.118931	-0.149004
C54	C	1.953548	0.618931	0.350996
C55	C	1.571073	0.120488	-0.161058
C56	C	2.071073	0.620488	0.338942
C57	C	1.269562	0.299639	-0.130158
C58	C	1.769562	0.799639	0.369842
C59	C	1.281570	0.404833	-0.131397
C60	C	1.781570	0.904833	0.368603
N61	N	1.241644	0.145290	0.165625
N62	N	1.741644	0.645290	0.665625
N63	N	1.280240	0.107431	-0.424145
N64	N	1.780240	0.607431	0.075855
C65	C	1.357700	0.031371	0.390386
C66	C	1.857700	0.531371	0.890386
C67	C	1.349927	0.039012	0.509524
C68	C	1.849927	0.539012	1.009524
C69	C	1.218319	0.168210	0.523041
C70	C	1.718319	0.668210	1.023041
C71	C	1.226092	0.160568	0.403903
C72	C	1.726092	0.660568	0.903903
C73	C	1.295786	0.092147	0.337579
C74	C	1.795786	0.592147	0.837579
C75	C	1.303565	0.084511	0.218439
C76	C	1.803565	0.584511	0.718439
C77	C	1.171951	0.213703	0.231959
C78	C	1.671951	0.713703	0.731959
C79	C	1.164178	0.221345	0.351097
C80	C	1.664178	0.721345	0.851097
H81	H	0.593588	0.108618	-0.349299
H82	H	1.093588	0.608618	0.150701
H83	H	0.727952	0.141467	0.111298
H84	H	1.227952	0.641467	0.611298
H85	H	0.928273	0.144123	0.090774
H86	H	1.428273	0.644123	0.590774
H87	H	1.136279	-0.375660	-0.116488
H88	H	1.636279	0.124340	0.383512
H89	H	1.360316	0.028801	0.164438
H90	H	1.860316	0.528801	0.664438
H91	H	1.161568	0.223911	0.577059
H92	H	1.661568	0.723911	1.077059
H93	H	1.414456	-0.024334	0.336383
H94	H	1.914456	0.475666	0.836383
H95	H	1.121540	0.263195	0.188951
H96	H	1.621540	0.763195	0.688951
H97	H	1.400342	-0.010479	0.552515
H98	H	1.900342	0.489521	1.052515
H99	H	0.793939	0.111277	-0.369819
H100	H	1.293939	0.611277	0.130181
H101	H	0.569078	0.132642	0.025092
H102	H	1.069078	0.632642	0.525092
H103	H	0.952817	0.120101	-0.283611
H104	H	1.452817	0.620101	0.216389
H105	H	1.107431	0.277050	0.405112
H106	H	1.607431	0.777050	0.905112
H107	H	1.385604	-0.371621	-0.142120
H108	H	1.885604	0.128379	0.357880
