data_functionalizedCrystal
_audit_creation_method	'MofGen! by Chris Wilmer'
_symmetry_space_group_name_H-M	'P1'
_symmetry_Int_Tables_number	1
_symmetry_cell_setting	triclinic
loop_
_symmetry_equiv_pos_as_xyz
  x,y,z
_cell_length_a	18.101398
_cell_length_b	18.101395
_cell_length_c	13.897441
_cell_angle_alpha	89.969302
_cell_angle_beta	89.972785
_cell_angle_gamma	90.026371
loop_
_atom_site_label
_atom_site_type_symbol
_atom_site_fract_x
_atom_site_fract_y
_atom_site_fract_z
Zn1	Zn	1.132142	-0.294899	-0.545547
Zn2	Zn	1.132032	-0.418755	-0.384248
Zn3	Zn	1.008295	-0.294922	-0.384247
Zn4	Zn	1.008252	-0.418693	-0.545483
O5	O	1.070180	-0.356817	-0.464881
O6	O	1.235760	-0.311346	-0.524178
O7	O	1.115590	-0.402363	-0.249266
O8	O	1.024788	-0.191286	-0.405671
O9	O	1.235679	-0.402342	-0.405672
O10	O	1.115778	-0.191270	-0.524177
O11	O	1.024681	-0.311384	-0.249266
O12	O	0.904656	-0.311324	-0.405608
O13	O	1.024714	-0.402237	-0.680473
O14	O	0.904625	-0.402258	-0.524067
O15	O	1.115736	-0.311286	-0.680520
O16	O	1.115548	-0.522380	-0.405610
O17	O	1.024607	-0.522335	-0.524068
C18	C	0.877770	-0.356787	-0.464831
C19	C	0.795456	-0.356792	-0.464832
C20	C	0.496365	-0.356839	-0.464913
C21	C	0.527685	-0.299339	-0.390746
C22	C	0.613303	-0.299493	-0.390429
C23	C	0.644747	-0.356815	-0.464873
C24	C	0.613628	-0.434828	-0.437101
C25	C	0.527983	-0.434509	-0.436585
C26	C	0.527983	-0.337003	-0.567028
C27	C	0.613634	-0.335266	-0.566470
C28	C	0.728607	-0.356806	-0.464852
C29	C	0.412505	-0.356852	-0.464932
C30	C	1.070081	-0.549228	-0.464853
C31	C	1.070106	-0.631542	-0.464873
C32	C	1.070269	-0.930633	-0.464925
C33	C	1.013184	-0.899310	-0.539641
C34	C	1.012913	-0.813692	-0.539407
C35	C	1.070188	-0.782251	-0.464900
C36	C	1.049055	-0.813405	-0.363238
C37	C	1.048687	-0.899050	-0.363685
C38	C	1.148612	-0.898982	-0.490976
C39	C	1.148151	-0.813331	-0.493206
C40	C	1.070144	-0.698391	-0.464880
C41	C	1.070311	-1.014492	-0.464939
C42	C	1.263342	-0.356848	-0.464932
C43	C	1.345656	-0.356861	-0.464954
C44	C	1.070233	-0.356752	-0.716475
C45	C	1.070255	-0.356724	-0.823689
C46	C	1.070300	-0.163655	-0.464931
C47	C	1.070351	-0.081341	-0.464952
C48	C	1.070275	-0.356674	-1.019984
C49	C	1.070262	-0.356704	-0.910751
C50	C	1.070170	-0.356829	-0.214267
C51	C	1.070292	-0.356648	-0.107054
H52	H	0.634344	-0.241643	-0.407837
H53	H	0.507115	-0.241312	-0.407962
H54	H	0.633994	-0.478818	-0.489430
N55	N	0.977968	-0.786597	-0.335046
N56	N	0.951065	-0.805219	-0.255806
H57	H	0.900858	-0.786288	-0.235899
H58	H	0.506133	-0.312304	-0.315520
H59	H	0.633754	-0.312606	-0.314764
H60	H	0.955468	-0.920893	-0.522601
H61	H	0.954844	-0.793265	-0.522150
H62	H	0.991419	-0.919089	-0.341618
N63	N	0.502881	-0.455613	-0.342936
N64	N	0.548614	-0.470473	-0.278412
H65	H	0.530890	-0.485378	-0.212268
H66	H	1.088461	-0.919773	-0.306118
H67	H	0.635041	-0.374093	-0.624692
N68	N	1.029650	-0.925035	-0.634522
N69	N	1.083644	-0.966761	-0.648188
H70	H	1.095289	-0.984916	-0.715205
N71	N	1.099578	-0.787858	-0.291504
N72	N	1.151848	-0.746305	-0.314561
H73	H	1.187532	-0.728262	-0.263901
N74	N	1.029502	-0.787271	-0.633974
N75	N	1.041359	-0.832084	-0.700609
H76	H	1.053073	-0.813428	-0.767403
H77	H	1.167878	-0.920528	-0.563845
H78	H	0.507263	-0.478801	-0.488250
H79	H	0.635040	-0.451941	-0.363257
N80	N	0.500913	-0.266884	-0.598700
N81	N	0.457983	-0.230675	-0.546389
H82	H	0.438863	-0.181150	-0.568748
H83	H	1.164088	-0.792966	-0.568023
H84	H	0.633979	-0.277857	-0.587412
H85	H	1.192932	-0.791924	-0.442754
H86	H	0.507729	-0.378884	-0.622290
N87	N	1.201958	-0.924391	-0.422701
N88	N	1.182466	-0.965630	-0.355123
H89	H	1.220136	-0.983578	-0.306898
