data_functionalizedCrystal
_audit_creation_method	'MofGen! by Chris Wilmer'
_symmetry_space_group_name_H-M	'P1'
_symmetry_Int_Tables_number	1
_symmetry_cell_setting	triclinic
loop_
_symmetry_equiv_pos_as_xyz
  x,y,z
_cell_length_a	19.805407
_cell_length_b	12.594516
_cell_length_c	19.805399
_cell_angle_alpha	89.979203
_cell_angle_beta	89.980427
_cell_angle_gamma	90.016053
loop_
_atom_site_label
_atom_site_type_symbol
_atom_site_fract_x
_atom_site_fract_y
_atom_site_fract_z
Zn1	Zn	1.034784	-0.423767	-0.382752
Zn2	Zn	1.034720	-0.601760	-0.269577
Zn3	Zn	0.921599	-0.423796	-0.269576
Zn4	Zn	0.921583	-0.601704	-0.382723
O5	O	0.978172	-0.512757	-0.326157
O6	O	1.129492	-0.447389	-0.367751
O7	O	1.019694	-0.578189	-0.174860
O8	O	0.936647	-0.274846	-0.284601
O9	O	1.129445	-0.578160	-0.284602
O10	O	1.019804	-0.274825	-0.367750
O11	O	0.936584	-0.447439	-0.174860
O12	O	0.826880	-0.447385	-0.284573
O13	O	0.936620	-0.578064	-0.477444
O14	O	0.826869	-0.578092	-0.367702
O15	O	1.019788	-0.447335	-0.477464
O16	O	1.019678	-0.750698	-0.284574
O17	O	0.936557	-0.750657	-0.367703
C18	C	0.802316	-0.512736	-0.326135
C19	C	0.727084	-0.512753	-0.326142
C20	C	0.978127	-0.789298	-0.326150
C21	C	0.978170	-0.907603	-0.326170
C22	C	0.691751	-0.580915	-0.369357
C23	C	0.621063	-0.580917	-0.369366
C24	C	0.585708	-0.512762	-0.326157
C25	C	0.621045	-0.444592	-0.282940
C26	C	0.691733	-0.444586	-0.282934
C27	C	0.335972	-0.444615	-0.282962
C28	C	0.265280	-0.444629	-0.282970
C29	C	0.265302	-0.580947	-0.369394
C30	C	0.335989	-0.580941	-0.369389
C31	C	0.371321	-0.512768	-0.326175
C32	C	0.447969	-0.512765	-0.326166
C33	C	0.509061	-0.512769	-0.326162
C34	C	0.932956	-0.976872	-0.371352
C35	C	0.916467	-1.047728	-0.309590
C36	C	0.994721	-1.047546	-0.387943
C37	C	0.961649	-0.976901	-0.264375
C38	C	1.039931	-0.976712	-0.342770
C39	C	1.023465	-1.047536	-0.280965
C40	C	1.154714	-0.512778	-0.326179
C41	C	1.229946	-0.512787	-0.326189
C42	C	0.978209	-0.512690	-0.502700
C43	C	0.978226	-0.512661	-0.577932
C44	C	0.978235	-0.235136	-0.326178
C45	C	0.978261	-0.116830	-0.326188
C46	C	1.021533	-0.444587	-0.613288
C47	C	1.021539	-0.444556	-0.683976
C48	C	0.978242	-0.512605	-0.719307
C49	C	0.934931	-0.580683	-0.683947
C50	C	0.934921	-0.580707	-0.613259
C51	C	0.934969	-0.580583	-0.969020
C52	C	0.934984	-0.580556	-1.039712
C53	C	1.021588	-0.444432	-1.039737
C54	C	1.021578	-0.444457	-0.969050
C55	C	0.978264	-0.512530	-0.933695
C56	C	0.978256	-0.512561	-0.857046
C57	C	0.978253	-0.512580	-0.795955
C58	C	0.978173	-0.512747	-0.150301
C59	C	0.978288	-0.512475	-0.075069
H60	H	0.592298	-0.636423	-0.404556
H61	H	0.720532	-0.636419	-0.404541
H62	H	1.061740	-1.078369	-0.242720
H63	H	0.236527	-0.636453	-0.404584
O64	O	0.944899	-0.939865	-0.202091
C65	C	0.945041	-0.827923	-0.202837
H66	H	0.937469	-0.798591	-0.256765
H67	H	0.995417	-0.797555	-0.182778
C68	C	0.896676	-0.822312	-0.091665
C69	C	0.887370	-0.786286	-0.157900
H70	H	0.861104	-0.796627	-0.063944
H71	H	0.896583	-0.897730	-0.091161
H72	H	0.938658	-0.797003	-0.074959
H73	H	0.845393	-0.811607	-0.174608
H74	H	0.887455	-0.710871	-0.158405
H75	H	0.364771	-0.636444	-0.404572
O76	O	0.892934	-0.646750	-0.718370
C77	C	0.902217	-0.632116	-0.788342
H78	H	0.954462	-0.597263	-0.798010
H79	H	0.862086	-0.575421	-0.808399
C80	C	0.831824	-0.782603	-0.812747
C81	C	0.895995	-0.739805	-0.824622
H82	H	0.827983	-0.849029	-0.835128
H83	H	0.825568	-0.792461	-0.765606
H84	H	0.798389	-0.735347	-0.829462
H85	H	0.929428	-0.787054	-0.807901
H86	H	0.902257	-0.729957	-0.871762
H87	H	1.056837	-0.389047	-0.940287
H88	H	0.236496	-0.389122	-0.247783
O89	O	1.063614	-0.378382	-0.579075
C90	C	1.101850	-0.318310	-0.625443
H91	H	1.074133	-0.314606	-0.675825
H92	H	1.153248	-0.357290	-0.632968
C93	C	1.145668	-0.209588	-0.535988
C94	C	1.111624	-0.205031	-0.597867
H95	H	1.151701	-0.139714	-0.518977
H96	H	1.119911	-0.250062	-0.504748
H97	H	1.188496	-0.242076	-0.542267
H98	H	1.068793	-0.172556	-0.591585
H99	H	1.137375	-0.164549	-0.629105
O100	O	0.370182	-0.378361	-0.240922
C101	C	0.323817	-0.318191	-0.202800
H102	H	0.273425	-0.361797	-0.200410
H103	H	0.316314	-0.237411	-0.227678
C104	C	0.413269	-0.249124	-0.133713
C105	C	0.351378	-0.302686	-0.130774
H106	H	0.430270	-0.239555	-0.089285
H107	H	0.444506	-0.289658	-0.159398
H108	H	0.407008	-0.181814	-0.154448
H109	H	0.357641	-0.370000	-0.110047
H110	H	0.320141	-0.262163	-0.105083
O111	O	0.586777	-0.378437	-0.240873
C112	C	0.604005	-0.401571	-0.173386
H113	H	0.655323	-0.442476	-0.171934
H114	H	0.564205	-0.456252	-0.150534
C115	C	0.544235	-0.247481	-0.134282
C116	C	0.607267	-0.297713	-0.132498
H117	H	0.546244	-0.183418	-0.109059
H118	H	0.532625	-0.231896	-0.179749
H119	H	0.511075	-0.293059	-0.115240
H120	H	0.640424	-0.252140	-0.151548
H121	H	0.618882	-0.313288	-0.087033
O122	O	0.892933	-0.646996	-0.578939
C123	C	0.907699	-0.753071	-0.596217
H124	H	0.961771	-0.758436	-0.615666
H125	H	0.871407	-0.780884	-0.637233
C126	C	0.833399	-0.817537	-0.509526
C127	C	0.899813	-0.824127	-0.533408
H128	H	0.828532	-0.861369	-0.470784
H129	H	0.823449	-0.746072	-0.497886
H130	H	0.803163	-0.840712	-0.543712
H131	H	0.930046	-0.800939	-0.499225
H132	H	0.909768	-0.895590	-0.545040
O133	O	0.726133	-0.378525	-0.240920
C134	C	0.766983	-0.439031	-0.197126
H135	H	0.777569	-0.519742	-0.220911
H136	H	0.739719	-0.450623	-0.146955
C137	C	0.821130	-0.281309	-0.155718
C138	C	0.834137	-0.380436	-0.184934
H139	H	0.862553	-0.245164	-0.148194
H140	H	0.793608	-0.240544	-0.185221
H141	H	0.798409	-0.290983	-0.113912
H142	H	0.856850	-0.370761	-0.226742
H143	H	0.861666	-0.421198	-0.155438
O144	O	0.854166	-1.084897	-0.292953
C145	C	0.806597	-1.048879	-0.340694
H146	H	0.833475	-1.028937	-0.390003
H147	H	0.780303	-0.974877	-0.320534
C148	C	0.720834	-1.160933	-0.292908
C149	C	0.753845	-1.136449	-0.353472
H150	H	0.688292	-1.214947	-0.300788
H151	H	0.752880	-1.185196	-0.260742
H152	H	0.698928	-1.099257	-0.276114
H153	H	0.775757	-1.198121	-0.370260
H154	H	0.721801	-1.112198	-0.385641
H155	H	0.894652	-0.945843	-0.409505
O156	O	1.102154	-0.939513	-0.359654
C157	C	1.119368	-0.975464	-0.424834
H158	H	1.071396	-0.995396	-0.453992
H159	H	1.152240	-1.049459	-0.420599
C160	C	1.217491	-0.863372	-0.426554
C161	C	1.158570	-0.887845	-0.462368
H162	H	1.241675	-0.809328	-0.449707
H163	H	1.205895	-0.839154	-0.382640
H164	H	1.244876	-0.925042	-0.423028
H165	H	1.131182	-0.826180	-0.465887
H166	H	1.170162	-0.912051	-0.506284
H167	H	1.008682	-1.078577	-0.440176
O168	O	1.063509	-0.378306	-0.718346
C169	C	1.024993	-0.309551	-0.759237
H170	H	0.971682	-0.302991	-0.737925
H171	H	1.022664	-0.342424	-0.812811
C172	C	1.123557	-0.206957	-0.786501
C173	C	1.058081	-0.198894	-0.760321
H174	H	1.143968	-0.138700	-0.787173
H175	H	1.149507	-0.253281	-0.758954
H176	H	1.121607	-0.234356	-0.831143
H177	H	1.060032	-0.171509	-0.715677
H178	H	1.032132	-0.152563	-0.787861
H179	H	1.056853	-0.389000	-1.068531
H180	H	0.899723	-0.635972	-1.068477
H181	H	0.899710	-0.636028	-0.940243
