data_functionalizedCrystal
_audit_creation_method	'MofGen! by Chris Wilmer'
_symmetry_space_group_name_H-M	'P1'
_symmetry_Int_Tables_number	1
_symmetry_cell_setting	triclinic
loop_
_symmetry_equiv_pos_as_xyz
  x,y,z
_cell_length_a	17.699083
_cell_length_b	17.699083
_cell_length_c	16.776229
_cell_angle_alpha	90.007545
_cell_angle_beta	90.001114
_cell_angle_gamma	83.283015
loop_
_atom_site_label
_atom_site_type_symbol
_atom_site_fract_x
_atom_site_fract_y
_atom_site_fract_z
O1	O	-1.004078	-0.095713	-0.066178
O2	O	-0.670745	0.237620	0.267155
O3	O	-0.337412	0.570954	0.600489
O4	O	-0.783700	-0.108165	-0.066204
O5	O	-0.450367	0.225168	0.267129
O6	O	-0.117033	0.558501	0.600462
O7	O	-0.900116	0.008250	-0.066183
O8	O	-0.566782	0.341583	0.267150
O9	O	-0.233449	0.674917	0.600483
O10	O	-0.887663	-0.212128	-0.066199
O11	O	-0.554330	0.121205	0.267134
O12	O	-0.220996	0.454538	0.600468
O13	O	-0.900100	0.008257	0.066393
O14	O	-0.566767	0.341590	0.399726
O15	O	-0.233433	0.674924	0.733060
O16	O	-0.783685	-0.108158	0.066372
O17	O	-0.450351	0.225175	0.399705
O18	O	-0.117018	0.558508	0.733039
O19	O	-1.004063	-0.095706	0.066398
O20	O	-0.670730	0.237627	0.399732
O21	O	-0.337396	0.570961	0.733065
Zn22	Zn	-0.893871	-0.101931	0.087435
Zn23	Zn	-0.560538	0.231402	0.420768
Zn24	Zn	-0.227205	0.564736	0.754101
Zn25	Zn	-0.893892	-0.101940	-0.087241
Zn26	Zn	-0.560558	0.231393	0.246093
Zn27	Zn	-0.227225	0.564726	0.579426
O28	O	-0.887648	-0.212121	0.066378
O29	O	-0.554314	0.121212	0.399711
O30	O	-0.220981	0.454545	0.733044
C31	C	-0.755495	-0.107716	0.000081
C32	C	-0.422162	0.225618	0.333414
C33	C	-0.088829	0.558951	0.666747
C34	C	-0.671477	-0.106377	0.000071
C35	C	-0.338144	0.226956	0.333404
C36	C	-0.004811	0.560290	0.666737
C37	C	-0.899662	0.036451	0.000105
C38	C	-0.566328	0.369784	0.333438
C39	C	-0.232995	0.703117	0.666772
C40	C	-0.898323	0.120469	0.000105
C41	C	-0.564990	0.453802	0.333438
C42	C	-0.231656	0.787135	0.666772
C43	C	-1.032268	-0.096156	0.000112
C44	C	-0.698934	0.237178	0.333445
C45	C	-0.365601	0.570511	0.666778
C46	C	-1.116286	-0.097494	0.000116
C47	C	-0.782953	0.235839	0.333450
C48	C	-0.449619	0.569172	0.666783
C49	C	-0.622856	-0.174710	0.000066
C50	C	-0.289523	0.158623	0.333400
C51	C	0.043810	0.491956	0.666733
C52	C	-0.543913	-0.173448	0.000077
C53	C	-0.210580	0.159885	0.333410
C54	C	0.122754	0.493218	0.666743
C55	C	-0.513592	-0.103852	0.000086
C56	C	-0.180259	0.229482	0.333419
C57	C	0.153074	0.562815	0.666753
C58	C	-0.562219	-0.035513	0.000093
C59	C	-0.228886	0.297820	0.333426
C60	C	0.104447	0.631154	0.666760
C61	C	-0.641161	-0.036776	0.000088
C62	C	-0.307828	0.296557	0.333421
C63	C	0.025505	0.629891	0.666755
C64	C	-0.243856	-0.030418	0.000113
C65	C	0.089477	0.302915	0.333446
C66	C	0.422810	0.636249	0.666780
C67	C	-0.164908	-0.029160	0.000115
C68	C	0.168425	0.304173	0.333449
C69	C	0.501758	0.637507	0.666782
C70	C	-0.146608	-0.167090	0.000101
C71	C	0.186725	0.166243	0.333435
C72	C	0.520058	0.499577	0.666768
C73	C	-0.225550	-0.168353	0.000097
C74	C	0.107783	0.164980	0.333430
C75	C	0.441117	0.498314	0.666763
C76	C	-0.274170	-0.100015	0.000108
C77	C	0.059163	0.233319	0.333441
C78	C	0.392496	0.566652	0.666774
C79	C	-0.359769	-0.101384	0.000098
C80	C	-0.026436	0.231949	0.333431
C81	C	0.306897	0.565282	0.666765
C82	C	-0.427995	-0.102481	0.000090
C83	C	-0.094661	0.230852	0.333423
C84	C	0.238672	0.564185	0.666757
C85	C	-0.888102	-0.240322	0.000087
C86	C	-0.554768	0.093011	0.333421
C87	C	-0.221435	0.426345	0.666754
C88	C	-0.889440	-0.324340	0.000082
C89	C	-0.556107	0.008993	0.333415
C90	C	-0.222773	0.342327	0.666749
N91	N	-0.893863	-0.101924	0.206646
N92	N	-0.560530	0.231409	0.539979
N93	N	-0.227196	0.564743	0.873313
C94	C	-0.966656	0.169090	0.000114
C95	C	-0.633323	0.502423	0.333448
C96	C	-0.299990	0.835756	0.666781
C97	C	-0.965394	0.248033	0.000107
C98	C	-0.632061	0.581366	0.333440
C99	C	-0.298727	0.914700	0.666774
C100	C	-0.895798	0.278354	0.000096
C101	C	-0.562464	0.611687	0.333430
C102	C	-0.229131	0.945020	0.666763
C103	C	-0.827459	0.229727	0.000085
C104	C	-0.494126	0.563060	0.333418
C105	C	-0.160792	0.896393	0.666751
C106	C	-0.828722	0.150785	0.000086
C107	C	-0.495389	0.484118	0.333420
C108	C	-0.162055	0.817451	0.666753
C109	C	-0.822364	0.548090	0.000078
C110	C	-0.489030	0.881423	0.333411
C111	C	-0.155697	1.214756	0.666744
C112	C	-0.821106	0.627038	0.000078
C113	C	-0.487773	0.960371	0.333412
C114	C	-0.154439	1.293704	0.666745
C115	C	-0.959036	0.645338	0.000099
C116	C	-0.625703	0.978671	0.333432
C117	C	-0.292369	1.312004	0.666765
C118	C	-0.960299	0.566396	0.000100
C119	C	-0.626966	0.899729	0.333433
C120	C	-0.293632	1.233063	0.666767
C121	C	-0.891961	0.517776	0.000084
C122	C	-0.558627	0.851109	0.333418
C123	C	-0.225294	1.184442	0.666751
C124	C	-0.893330	0.432177	0.000090
C125	C	-0.559997	0.765510	0.333424
C126	C	-0.226664	1.098843	0.666757
C127	C	-0.894427	0.363951	0.000096
C128	C	-0.561094	0.697285	0.333429
C129	C	-0.227761	1.030618	0.666762
N130	N	-0.893906	-0.101941	-0.206452
N131	N	-0.560573	0.231392	0.126882
N132	N	-0.227239	0.564725	0.460215
C133	C	-0.945428	-0.050396	0.248372
C134	C	-0.612094	0.282937	0.581706
C135	C	-0.278761	0.616270	0.915039
C136	C	-0.945432	-0.050396	0.331824
C137	C	-0.612098	0.282938	0.665158
C138	C	-0.278765	0.616271	0.998491
C139	C	-0.893875	-0.101927	0.373549
C140	C	-0.560541	0.231406	0.706882
C141	C	-0.227208	0.564740	1.040215
C142	C	-0.842305	-0.153457	0.331817
C143	C	-0.508971	0.179876	0.665150
C144	C	-0.175638	0.513210	0.998483
C145	C	-0.842297	-0.153454	0.248366
C146	C	-0.508964	0.179880	0.581699
C147	C	-0.175631	0.513213	0.915033
C148	C	-0.842332	-0.153472	0.668364
C149	C	-0.508999	0.179861	1.001697
C150	C	-0.175665	0.513195	1.335030
C151	C	-0.842345	-0.153473	0.751820
C152	C	-0.509011	0.179860	1.085154
C153	C	-0.175678	0.513194	1.418487
C154	C	-0.945466	-0.050414	0.751822
C155	C	-0.612133	0.282919	1.085156
C156	C	-0.278800	0.616252	1.418489
C157	C	-0.945459	-0.050411	0.668372
C158	C	-0.612126	0.282923	1.001705
C159	C	-0.278792	0.616256	1.335038
C160	C	-0.893887	-0.101938	0.626647
C161	C	-0.560554	0.231396	0.959980
C162	C	-0.227220	0.564729	1.293313
C163	C	-0.893882	-0.101937	0.536158
C164	C	-0.560549	0.231397	0.869492
C165	C	-0.227215	0.564730	1.202825
C166	C	-0.893882	-0.101932	0.464036
C167	C	-0.560549	0.231401	0.797369
C168	C	-0.227216	0.564735	1.130702
H169	H	-0.647537	-0.231384	0.000058
H170	H	-0.314204	0.101949	0.333391
H171	H	0.019130	0.435283	0.666725
Cl172	Cl	-0.742813	0.089661	0.000071
Cl173	Cl	-0.409480	0.422994	0.333405
Cl174	Cl	-0.076147	0.756327	0.666738
Cl175	Cl	-1.054154	0.130980	0.000136
Cl176	Cl	-0.720821	0.464314	0.333469
Cl177	Cl	-0.387488	0.797647	0.666803
Cl178	Cl	-0.739966	0.267844	0.000061
Cl179	Cl	-0.406632	0.601178	0.333395
Cl180	Cl	-0.073299	0.934511	0.666728
Cl181	Cl	-0.524102	0.051980	0.000109
Cl182	Cl	-0.190768	0.385314	0.333443
Cl183	Cl	0.142565	0.718647	0.666776
H184	H	-0.987419	-0.008438	0.365798
H185	H	-0.654085	0.324896	0.699131
H186	H	-0.320752	0.658229	1.032464
H187	H	-0.250232	-0.225025	0.000085
H188	H	0.083101	0.108308	0.333419
H189	H	0.416434	0.441641	0.666752
Cl190	Cl	-1.010250	0.014386	0.195928
Cl191	Cl	-0.676917	0.347720	0.529261
Cl192	Cl	-0.343583	0.681053	0.862594
Cl193	Cl	-1.010278	0.014371	0.615921
Cl194	Cl	-0.676945	0.347704	0.949255
Cl195	Cl	-0.343611	0.681038	1.282588
Cl196	Cl	-0.733606	0.665153	0.000063
Cl197	Cl	-0.400273	0.998487	0.333396
Cl198	Cl	-0.066940	1.331820	0.666730
Cl199	Cl	-0.482792	-0.259357	0.000066
Cl200	Cl	-0.149459	0.073976	0.333399
Cl201	Cl	0.183874	0.407309	0.666733
H202	H	-0.987457	-0.008456	0.785804
H203	H	-0.654124	0.324878	1.119137
H204	H	-0.320790	0.658211	1.452470
H205	H	-0.800358	-0.195437	0.785791
H206	H	-0.467024	0.137896	1.119124
H207	H	-0.133691	0.471229	1.452458
H208	H	-0.107012	-0.222734	0.000097
H209	H	0.226322	0.110599	0.333430
H210	H	0.559655	0.443933	0.666763
H211	H	-0.800342	-0.195428	0.634398
H212	H	-0.467008	0.137905	0.967731
H213	H	-0.133675	0.471238	1.301065
H214	H	-1.021038	0.287618	0.000116
H215	H	-0.687705	0.620951	0.333450
H216	H	-0.354372	0.954284	0.666783
H217	H	-0.140225	0.027517	0.000124
H218	H	0.193108	0.360850	0.333457
H219	H	0.526442	0.694184	0.666791
Cl220	Cl	-1.047795	0.528283	0.000111
Cl221	Cl	-0.714462	0.861616	0.333444
Cl222	Cl	-0.381128	1.194950	0.666778
H223	H	-0.800322	-0.195412	0.365793
H224	H	-0.466989	0.137921	0.699127
H225	H	-0.133655	0.471254	1.032460
H226	H	-0.800308	-0.195412	0.214393
H227	H	-0.466974	0.137922	0.547726
H228	H	-0.133641	0.471255	0.881060
H229	H	-0.766718	0.508512	0.000065
H230	H	-0.433385	0.841845	0.333398
H231	H	-0.100052	1.175179	0.666732
Cl232	Cl	-1.044948	0.706465	0.000115
Cl233	Cl	-0.711615	1.039799	0.333449
Cl234	Cl	-0.378282	1.373132	0.666782
Cl235	Cl	-0.304969	0.055494	0.000126
Cl236	Cl	0.028365	0.388827	0.333460
Cl237	Cl	0.361698	0.722160	0.666793
H238	H	-0.680748	0.018868	0.000091
H239	H	-0.347415	0.352201	0.333425
H240	H	-0.014082	0.685535	0.666758
