data_functionalizedCrystal
_audit_creation_method	'MofGen! by Chris Wilmer'
_symmetry_space_group_name_H-M	'P1'
_symmetry_Int_Tables_number	1
_symmetry_cell_setting	triclinic
loop_
_symmetry_equiv_pos_as_xyz
  x,y,z
_cell_length_a	18.050591
_cell_length_b	18.050590
_cell_length_c	21.395355
_cell_angle_alpha	90.018036
_cell_angle_beta	90.029394
_cell_angle_gamma	90.015000
loop_
_atom_site_label
_atom_site_type_symbol
_atom_site_fract_x
_atom_site_fract_y
_atom_site_fract_z
Zn1	Zn	1.135413	-0.295816	0.354344
Zn2	Zn	1.635413	0.204184	0.854344
Zn3	Zn	1.135324	-0.419988	0.249568
Zn4	Zn	1.635324	0.080012	0.749568
Zn5	Zn	1.011211	-0.295808	0.249572
Zn6	Zn	1.511211	0.204192	0.749572
Zn7	Zn	1.011201	-0.419961	0.354299
Zn8	Zn	1.511201	0.080039	0.854299
O9	O	1.073287	-0.357893	0.301946
O10	O	1.573287	0.142107	0.801946
O11	O	1.239326	-0.312302	0.340463
O12	O	1.739326	0.187698	0.840463
O13	O	1.118827	-0.403523	0.161891
O14	O	1.618827	0.096477	0.661891
O15	O	1.027729	-0.191885	0.263491
O16	O	1.527729	0.308115	0.763491
O17	O	1.239260	-0.403530	0.263484
O18	O	1.739260	0.096470	0.763484
O19	O	1.118979	-0.191890	0.340467
O20	O	1.618979	0.308110	0.840467
O21	O	1.027642	-0.312289	0.161894
O22	O	1.527642	0.187711	0.661894
O23	O	0.907285	-0.312263	0.263447
O24	O	1.407285	0.187737	0.763447
O25	O	1.027711	-0.403485	0.441983
O26	O	1.527711	0.096515	0.941983
O27	O	0.907278	-0.403477	0.340390
O28	O	1.407278	0.096523	0.840390
O29	O	1.118969	-0.312276	0.442016
O30	O	1.618969	0.187724	0.942016
O31	O	1.118817	-0.523909	0.263440
O32	O	1.618817	-0.023909	0.763440
O33	O	1.027625	-0.523889	0.340386
O34	O	1.527625	-0.023889	0.840386
C35	C	0.880335	-0.357867	0.301915
C36	C	1.380335	0.142133	0.801915
C37	C	0.797789	-0.357874	0.301916
C38	C	1.297789	0.142126	0.801916
C39	C	0.548946	-0.308220	0.260174
C40	C	1.048946	0.191780	0.760174
C41	C	0.598387	-0.290145	0.317355
C42	C	1.098387	0.209855	0.817355
C43	C	0.500669	-0.357912	0.301967
C44	C	1.000669	0.142088	0.801967
C45	C	0.598310	-0.375933	0.244765
C46	C	1.098310	0.124067	0.744765
C47	C	0.646654	-0.357891	0.301939
C48	C	1.146654	0.142109	0.801939
C49	C	0.549022	-0.339802	0.359179
C50	C	1.049022	0.160198	0.859179
C51	C	0.548941	-0.425621	0.286550
C52	C	1.048941	0.074379	0.786550
C53	C	0.598360	-0.407572	0.343770
C54	C	1.098360	0.092428	0.843770
C55	C	0.416571	-0.357922	0.301983
C56	C	0.916571	0.142078	0.801983
C57	C	0.730751	-0.357881	0.301930
C58	C	1.230751	0.142119	0.801930
C59	C	1.073230	-0.550845	0.301921
C60	C	1.573230	-0.050845	0.801921
C61	C	1.073274	-0.633391	0.301931
C62	C	1.573274	-0.133391	0.801931
C63	C	1.122967	-0.832825	0.260147
C64	C	1.622967	-0.332825	0.760147
C65	C	1.141114	-0.882171	0.317332
C66	C	1.641114	-0.382171	0.817332
C67	C	1.073316	-0.784521	0.301956
C68	C	1.573316	-0.284521	0.801956
C69	C	1.055245	-0.882257	0.244797
C70	C	1.555245	-0.382257	0.744797
C71	C	1.073358	-0.930506	0.301975
C72	C	1.573358	-0.430506	0.801975
C73	C	1.091498	-0.832780	0.359172
C74	C	1.591498	-0.332780	0.859172
C75	C	1.005596	-0.832861	0.286598
C76	C	1.505596	-0.332861	0.786598
C77	C	1.023718	-0.882185	0.343822
C78	C	1.523718	-0.382185	0.843822
C79	C	1.073294	-0.700423	0.301944
C80	C	1.573294	-0.200423	0.801944
C81	C	1.073380	-1.014603	0.301994
C82	C	1.573380	-0.514603	0.801994
C83	C	1.266993	-0.357920	0.301978
C84	C	1.766993	0.142080	0.801978
C85	C	1.349539	-0.357931	0.301991
C86	C	1.849539	0.142069	0.801991
C87	C	1.073349	-0.357878	0.465369
C88	C	1.573349	0.142122	0.965369
C89	C	1.073375	-0.357872	0.535011
C90	C	1.573375	0.142128	1.035011
C91	C	1.073365	-0.164188	0.301985
C92	C	1.573365	0.335812	0.801985
C93	C	1.073398	-0.081642	0.302001
C94	C	1.573398	0.418358	0.802001
C95	C	1.073269	-0.357855	0.139158
C96	C	1.573269	0.142145	0.639158
C97	C	1.073386	-0.357652	0.069517
C98	C	1.573386	0.142348	0.569517
C99	C	1.120891	-0.310377	0.567742
C100	C	1.620891	0.189623	1.067742
C101	C	1.120890	-0.310345	0.633177
C102	C	1.620890	0.189655	1.133177
C103	C	1.073381	-0.357821	0.665879
C104	C	1.573381	0.142179	1.165879
C105	C	1.025856	-0.405319	0.633140
C106	C	1.525856	0.094681	1.133140
C107	C	1.025853	-0.405344	0.567705
C108	C	1.525853	0.094656	1.067705
C109	C	1.067497	-0.424690	0.769545
C110	C	1.567497	0.075310	1.269545
C111	C	1.067505	-0.424666	0.834978
C112	C	1.567505	0.075334	1.334978
C113	C	1.073386	-0.357743	0.867700
C114	C	1.573386	0.142257	1.367700
C115	C	1.079273	-0.290841	0.834981
C116	C	1.579273	0.209159	1.334981
C117	C	1.079271	-0.290867	0.769547
C118	C	1.579271	0.209133	1.269547
C119	C	1.073379	-0.357799	0.736831
C120	C	1.573379	0.142201	1.236831
C121	C	1.120903	-0.310210	0.971384
C122	C	1.620903	0.189790	1.471384
C123	C	1.120897	-0.310176	1.036821
C124	C	1.620897	0.189824	1.536821
C125	C	1.025866	-0.405156	1.036781
C126	C	1.525866	0.094844	1.536781
C127	C	1.025869	-0.405183	0.971346
C128	C	1.525869	0.094817	1.471346
C129	C	1.073391	-0.357711	0.938651
C130	C	1.573391	0.142289	1.438651
H131	H	0.619918	-0.449586	0.379142
H132	H	1.119918	0.050414	0.879142
H133	H	0.527252	-0.266174	0.224886
H134	H	1.027252	0.233826	0.724886
H135	H	0.527461	-0.324484	0.407556
H136	H	1.027461	0.175516	0.907556
Cl137	Cl	1.115237	-0.799373	0.433836
Cl138	Cl	1.615237	-0.299373	0.933836
H139	H	1.198401	-0.903833	0.330334
H140	H	1.698401	-0.403833	0.830334
H141	H	0.987156	-0.444019	0.541056
H142	H	1.487156	0.055981	1.041056
Cl143	Cl	1.031619	-0.915812	0.170154
Cl144	Cl	1.531619	-0.415812	0.670154
H145	H	0.987171	-0.443972	0.659769
H146	H	1.487171	0.056028	1.159769
H147	H	0.620092	-0.232874	0.330394
H148	H	1.120092	0.267126	0.830394
Cl149	Cl	0.515379	-0.514014	0.266402
Cl150	Cl	1.015379	-0.014014	0.766402
H151	H	0.619963	-0.391183	0.196401
H152	H	1.119963	0.108817	0.696401
H153	H	1.159589	-0.271496	1.063469
H154	H	1.659589	0.228504	1.563469
Cl155	Cl	1.086669	-0.206704	0.876110
Cl156	Cl	1.586669	0.293296	1.376110
Cl157	Cl	0.958918	-0.915440	0.398484
Cl158	Cl	1.458918	-0.415440	0.898484
Cl159	Cl	1.187812	-0.799360	0.205614
Cl160	Cl	1.687812	-0.299360	0.705614
H161	H	1.062510	-0.479173	0.742908
H162	H	1.562510	0.020827	1.242908
Cl163	Cl	1.180614	-0.250618	0.674334
Cl164	Cl	1.680614	0.249382	1.174334
Cl165	Cl	0.917171	-0.799395	0.266499
Cl166	Cl	1.417171	-0.299395	0.766499
H167	H	1.159594	-0.271551	0.944762
H168	H	1.659594	0.228449	1.444762
Cl169	Cl	1.180629	-0.250693	0.526643
Cl170	Cl	1.680629	0.249307	1.026643
H171	H	1.084063	-0.236394	0.742910
H172	H	1.584063	0.263606	1.242910
H173	H	0.987176	-0.443805	1.063406
H174	H	1.487176	0.056195	1.563406
H175	H	0.987180	-0.443863	0.944696
H176	H	1.487180	0.056137	1.444696
H177	H	1.062716	-0.479141	0.861612
H178	H	1.562716	0.020859	1.361612
