data_functionalizedCrystal
_audit_creation_method	'MofGen! by Chris Wilmer'
_symmetry_space_group_name_H-M	'P1'
_symmetry_Int_Tables_number	1
_symmetry_cell_setting	triclinic
loop_
_symmetry_equiv_pos_as_xyz
  x,y,z
_cell_length_a	10.540539
_cell_length_b	15.944551
_cell_length_c	9.616153
_cell_angle_alpha	89.996788
_cell_angle_beta	89.995174
_cell_angle_gamma	84.012115
loop_
_atom_site_label
_atom_site_type_symbol
_atom_site_fract_x
_atom_site_fract_y
_atom_site_fract_z
O1	O	1.684280	0.118370	-0.115583
O2	O	1.314716	0.129523	-0.115601
O3	O	1.509590	0.001731	-0.115579
O4	O	1.489406	0.246161	-0.115605
O5	O	1.509563	0.001734	0.115712
O6	O	1.314689	0.129525	0.115690
O7	O	1.684254	0.118372	0.115708
Zn8	Zn	1.499467	0.123949	0.152422
Zn9	Zn	1.499502	0.123946	-0.152315
O10	O	1.489379	0.246163	0.115686
C11	C	1.267411	0.128688	0.000043
C12	C	1.126497	0.126185	0.000036
C13	C	0.944375	0.030298	0.000587
C14	C	1.090959	0.032835	0.000051
C15	C	1.064228	0.171108	-0.132042
C16	C	0.917727	0.167922	-0.132138
C17	C	0.917182	0.169824	0.130883
C18	C	1.064152	0.170684	0.132615
C19	C	1.508739	-0.029566	0.000067
C20	C	1.506227	-0.122827	0.000067
C21	C	1.379430	-0.338440	0.000042
C22	C	1.438297	-0.399105	0.114086
C23	C	1.501682	-0.293580	0.000056
C24	C	1.438352	-0.399091	-0.113950
C25	C	1.497283	-0.458519	0.000040
C26	C	1.560583	-0.353017	0.114194
C27	C	1.560621	-0.352996	-0.113944
C28	C	1.619577	-0.413643	0.000128
C29	C	1.504213	-0.198563	0.000067
C30	C	1.494762	-0.553535	0.000039
C31	C	1.731559	0.119207	0.000061
C32	C	1.872473	0.121710	0.000058
C33	C	1.490231	0.277461	0.000037
C34	C	1.492743	0.370722	0.000027
N35	N	1.499452	0.123951	0.360396
N36	N	1.499527	0.123937	-0.360289
C37	C	1.394895	0.192081	0.580755
C38	C	1.395120	0.192337	0.419587
C39	C	1.631904	0.143890	0.418850
C40	C	1.631333	0.144372	0.580067
C41	C	1.472882	0.035659	0.580316
C42	C	1.469828	0.036231	0.419089
H43	H	0.914679	-0.006426	-0.093599
H44	H	1.411676	0.257205	0.621247
Br45	Br	1.230267	0.172380	0.645395
Br46	Br	1.352152	-0.433095	-0.274632
Br47	Br	1.099965	0.285362	-0.140283
H48	H	1.378404	0.016683	0.621050
Br49	Br	1.670465	0.251717	0.642716
Br50	Br	1.230999	0.172400	0.353713
Br51	Br	1.102973	0.284125	0.145896
Br52	Br	1.788854	-0.467904	0.000233
H53	H	1.412127	0.257832	0.381001
H54	H	0.868844	0.235058	-0.138140
Br55	Br	1.135932	0.119095	-0.295869
Br56	Br	1.764870	0.064770	0.645074
H57	H	1.612295	-0.332559	-0.210358
Br58	Br	1.764770	0.063423	0.354955
Br59	Br	0.836942	0.282206	0.132359
Br60	Br	1.646683	-0.319190	0.275066
H61	H	1.134043	-0.002512	0.094731
H62	H	1.655935	0.207567	0.378454
H63	H	1.133200	-0.002764	-0.094786
Br64	Br	0.865277	0.119471	0.297749
Br65	Br	1.210299	-0.283934	0.000210
Br66	Br	1.307432	0.011038	0.355421
H67	H	1.386578	-0.419520	0.210495
Br68	Br	1.588596	-0.052352	0.351964
Br69	Br	1.600057	-0.048878	0.643855
H70	H	0.889980	0.134718	-0.230861
Br71	Br	0.897545	-0.031169	0.158465
H72	H	1.105550	0.137866	0.230326
