data_functionalizedCrystal
_audit_creation_method	'MofGen! by Chris Wilmer'
_symmetry_space_group_name_H-M	'P1'
_symmetry_Int_Tables_number	1
_symmetry_cell_setting	triclinic
loop_
_symmetry_equiv_pos_as_xyz
  x,y,z
_cell_length_a	14.971486
_cell_length_b	15.944551
_cell_length_c	13.448316
_cell_angle_alpha	89.992444
_cell_angle_beta	89.998199
_cell_angle_gamma	83.556434
loop_
_atom_site_label
_atom_site_type_symbol
_atom_site_fract_x
_atom_site_fract_y
_atom_site_fract_z
O1	O	1.186829	0.109463	-0.082580
O2	O	0.926415	0.122572	-0.082607
O3	O	1.063733	-0.006250	-0.082584
O4	O	1.049511	0.238286	-0.082603
O5	O	1.063716	-0.006258	0.082800
O6	O	0.926398	0.122564	0.082777
O7	O	1.186812	0.109456	0.082804
Cu8	Cu	1.056603	0.116009	0.097891
Cu9	Cu	1.056624	0.116018	-0.097694
O10	O	1.049494	0.238278	0.082781
C11	C	0.893082	0.121982	0.000081
C12	C	0.793787	0.120225	0.000071
C13	C	0.736480	0.195904	0.000067
C14	C	0.643182	0.194249	0.000082
C15	C	0.607194	0.116913	0.000094
C16	C	0.664508	0.041227	0.000102
C17	C	0.757804	0.042884	0.000094
C18	C	0.470049	0.037780	0.000116
C19	C	0.376747	0.036123	0.000122
C20	C	0.355428	0.189145	0.000104
C21	C	0.448724	0.190801	0.000096
C22	C	0.506032	0.115116	0.000101
C23	C	1.063134	-0.037549	0.000108
C24	C	1.061364	-0.130797	0.000109
C25	C	0.972017	-0.345738	0.000086
C26	C	1.013498	-0.406720	0.081634
C27	C	1.058162	-0.301526	0.000101
C28	C	1.013536	-0.406696	-0.081421
C29	C	1.055062	-0.466441	0.000089
C30	C	1.099667	-0.361279	0.081717
C31	C	1.099692	-0.361248	-0.081412
C32	C	1.141236	-0.422212	0.000156
C33	C	1.059945	-0.206522	0.000109
C34	C	1.053286	-0.561444	0.000088
C35	C	1.220145	0.110046	0.000113
C36	C	1.319440	0.111802	0.000117
C37	C	1.050093	0.269576	0.000087
C38	C	1.051863	0.362824	0.000080
N39	N	1.056595	0.116002	0.235456
N40	N	1.056639	0.116019	-0.235258
C41	C	1.117419	0.058983	0.287506
C42	C	1.117425	0.058982	0.391610
C43	C	1.056610	0.116005	0.443660
C44	C	0.995780	0.173027	0.391602
C45	C	0.995771	0.173023	0.287501
C46	C	0.995805	0.173033	0.608582
C47	C	0.995815	0.173038	0.712691
C48	C	1.117459	0.058992	0.712691
C49	C	1.117449	0.058988	0.608590
C50	C	1.056620	0.116011	0.556539
H51	H	0.308763	0.250771	0.000103
H52	H	0.516708	-0.023852	0.000122
C53	C	0.624921	-0.043844	0.000115
C54	C	0.563714	-0.066027	0.085998
C55	C	0.524129	-0.151099	0.086008
C56	C	0.545752	-0.213989	0.000135
C57	C	0.606962	-0.191807	-0.085754
C58	C	0.646547	-0.106735	-0.085764
H59	H	0.547705	-0.019471	0.149572
H60	H	0.478817	-0.167519	0.149590
H61	H	0.516449	-0.276965	0.000142
H62	H	0.622972	-0.238363	-0.149328
H63	H	0.691860	-0.090315	-0.149346
H64	H	0.804463	-0.018742	0.000097
C65	C	1.184368	-0.003737	0.769945
C66	C	1.251269	-0.066458	0.712698
C67	C	1.318178	-0.129180	0.769959
C68	C	1.318186	-0.129182	0.884466
C69	C	1.251282	-0.066459	0.941719
C70	C	1.184373	-0.003736	0.884459
H71	H	1.251266	-0.066459	0.627927
H72	H	1.367705	-0.175612	0.727575
H73	H	1.367716	-0.175613	0.926854
H74	H	1.251285	-0.066458	1.026490
H75	H	1.134846	0.042696	0.926842
H76	H	0.977096	-0.426804	-0.150369
H77	H	0.900512	-0.312499	0.000160
C78	C	0.928865	0.235747	0.230242
C79	C	0.862002	0.298501	0.287492
C80	C	0.795090	0.361224	0.230235
C81	C	0.795043	0.361193	0.115727
C82	C	0.861910	0.298436	0.058471
C83	C	0.928821	0.235713	0.115728
H84	H	0.862034	0.298526	0.372263
H85	H	0.745592	0.407680	0.272620
H86	H	0.745512	0.407624	0.073342
H87	H	0.861877	0.298411	-0.026300
H88	H	0.978320	0.189257	0.073342
H89	H	1.212804	-0.455303	0.000210
C90	C	0.964273	-0.433944	0.174762
C91	C	0.954308	-0.527887	0.192269
C92	C	0.905079	-0.555107	0.285393
C93	C	0.865814	-0.488385	0.361010
C94	C	0.875778	-0.394436	0.343505
C95	C	0.925008	-0.367216	0.250381
H96	H	0.983375	-0.577285	0.136290
H97	H	0.897703	-0.624655	0.298350
H98	H	0.829371	-0.508535	0.429946
H99	H	0.846711	-0.345038	0.399484
H100	H	0.932384	-0.297668	0.237424
C101	C	0.580148	0.277500	0.000071
C102	C	0.513072	0.297407	-0.085804
C103	C	0.450040	0.380664	-0.085814
C104	C	0.454084	0.444014	0.000050
C105	C	0.521163	0.424109	0.085931
C106	C	0.584196	0.340852	0.085941
H107	H	0.510076	0.250510	-0.149372
H108	H	0.400383	0.395398	-0.149389
H109	H	0.407424	0.505646	0.000042
H110	H	0.524160	0.471006	0.149499
H111	H	0.633852	0.326118	0.149517
C112	C	1.148835	-0.334239	0.174962
C113	C	1.159555	-0.240419	0.192221
C114	C	1.208719	-0.213377	0.285466
C115	C	1.247162	-0.280155	0.361451
C116	C	1.236444	-0.373981	0.344195
C117	C	1.187280	-0.401023	0.250950
H118	H	1.131096	-0.190981	0.135969
H119	H	1.216653	-0.143920	0.298240
H120	H	1.283556	-0.260136	0.430477
H121	H	1.264903	-0.423419	0.400446
H122	H	1.179345	-0.470480	0.238175
H123	H	0.347448	-0.026851	0.000133
H124	H	0.765774	0.258881	0.000056
H125	H	0.478022	0.253775	0.000076
H126	H	1.136104	-0.341080	-0.150351
H127	H	0.946293	0.219471	0.755065
C128	C	1.184317	-0.003745	0.230256
C129	C	1.149364	-0.068042	0.158707
C130	C	1.216262	-0.130774	0.101461
C131	C	1.318113	-0.129209	0.115763
C132	C	1.353072	-0.064910	0.187315
C133	C	1.286174	-0.002178	0.244561
H134	H	1.073963	-0.069202	0.148117
H135	H	1.190383	-0.178372	0.048493
H136	H	1.367635	-0.175647	0.073385
H137	H	1.428473	-0.063750	0.197905
H138	H	1.312053	0.045420	0.297529
H139	H	0.946269	0.219464	0.566206
C140	C	1.184344	-0.003735	0.551329
C141	C	1.182847	-0.099391	0.565653
C142	C	1.249740	-0.162115	0.508390
C143	C	1.318131	-0.129185	0.436803
C144	C	1.319631	-0.033525	0.422476
C145	C	1.252738	0.029200	0.479739
H146	H	1.132218	-0.123772	0.618648
H147	H	1.248629	-0.232930	0.518997
H148	H	1.367649	-0.175618	0.394414
H149	H	1.370260	-0.009143	0.369480
H150	H	1.253848	0.100014	0.469132
H151	H	1.166951	0.012552	0.433989
H152	H	0.946260	0.219453	0.433988
