data_functionalizedCrystal
_audit_creation_method	'MofGen! by Chris Wilmer'
_symmetry_space_group_name_H-M	'P1'
_symmetry_Int_Tables_number	1
_symmetry_cell_setting	triclinic
loop_
_symmetry_equiv_pos_as_xyz
  x,y,z
_cell_length_a	12.478026
_cell_length_b	12.477950
_cell_length_c	21.606444
_cell_angle_alpha	63.146278
_cell_angle_beta	84.700949
_cell_angle_gamma	60.562632
loop_
_atom_site_label
_atom_site_type_symbol
_atom_site_fract_x
_atom_site_fract_y
_atom_site_fract_z
Zr1	Zr	1.136825	1.078117	-0.084350
O2	O	0.984027	1.283603	-0.164070
O3	O	1.170452	0.872633	-0.066806
O4	O	1.189509	1.078121	-0.185985
O5	O	0.964968	1.078111	0.056963
O6	O	1.366628	1.078121	-0.195430
O7	O	0.964969	1.078115	-0.044890
O8	O	1.332538	0.710541	0.017760
O9	O	0.999058	1.445692	-0.156227
O10	O	1.332940	0.957151	-0.058043
O11	O	1.200757	0.957147	0.025017
O12	O	1.223194	1.199083	-0.115301
O13	O	1.091011	1.199080	-0.032240
Zr14	Zr	1.419308	1.078111	0.063030
Zr15	Zr	1.419310	1.078117	-0.099414
Zr16	Zr	1.136822	1.078111	0.078094
Zr17	Zr	1.160798	1.336629	-0.071842
Zr18	Zr	1.395334	0.819598	0.050522
O19	O	1.385681	1.283595	0.045486
O20	O	1.385684	1.283604	-0.185488
O21	O	0.984023	1.283594	0.066905
O22	O	1.572106	0.872625	0.142749
O23	O	1.572109	0.872633	-0.088225
O24	O	1.170448	0.872624	0.164168
O25	O	1.591165	1.078116	-0.078283
O26	O	1.366623	1.078107	0.164665
O27	O	1.189504	1.078107	0.174110
O28	O	1.591163	1.078113	0.023570
O29	O	1.223596	1.445692	-0.168201
O30	O	1.332537	0.710536	0.146881
O31	O	1.557075	0.710536	0.134907
O32	O	1.557076	0.710541	0.005786
O33	O	0.999056	1.445687	-0.027106
O34	O	1.223594	1.445687	-0.039080
O35	O	1.332938	0.957145	0.093980
O36	O	1.465121	0.957148	0.010920
O37	O	1.355376	1.199080	-0.046338
O38	O	1.223192	1.199077	0.036723
C39	C	1.248079	0.754754	-0.026305
C40	C	1.237902	0.645009	-0.031615
C41	C	0.924720	1.078113	0.008182
C42	C	0.804798	1.078113	0.014577
C43	C	1.631412	1.078115	-0.029503
C44	C	1.751334	1.078115	-0.035898
C45	C	1.278069	1.078122	-0.213853
C46	C	1.278070	1.078124	-0.282814
C47	C	1.308053	1.401474	0.004985
C48	C	1.318230	1.511219	0.010295
C49	C	1.375647	1.078127	-0.320416
C50	C	1.375650	1.078117	-0.385209
C51	C	1.278071	1.078115	-0.412403
C52	C	1.180488	1.078108	-0.374795
C53	C	1.180491	1.078107	-0.310000
C54	C	1.180477	1.078106	-0.636105
C55	C	1.180480	1.078111	-0.700906
C56	C	1.375636	1.078116	-0.711314
C57	C	1.375638	1.078116	-0.646519
C58	C	1.278060	1.078102	-0.608916
C59	C	1.278059	1.078110	-0.538658
C60	C	1.278066	1.078117	-0.482661
C61	C	1.278063	1.078106	0.192532
C62	C	1.278062	1.078104	0.261494
C63	C	1.601425	0.754755	-0.045148
C64	C	1.711170	0.645010	-0.056853
C65	C	1.248076	0.754746	0.176887
C66	C	1.237898	0.644998	0.240539
C67	C	1.601422	0.754747	0.158045
C68	C	1.711166	0.644999	0.215301
C69	C	0.954710	1.401481	-0.179365
C70	C	0.844966	1.511229	-0.236622
C71	C	0.954707	1.401473	0.023828
C72	C	0.844962	1.511218	0.035532
C73	C	1.308056	1.401481	-0.198207
C74	C	1.318234	1.511229	-0.261859
C75	C	1.302116	0.593458	0.306435
C76	C	1.292548	0.490353	0.366250
C77	C	1.218770	0.438782	0.360166
C78	C	1.154545	0.490333	0.294263
C79	C	1.164106	0.593443	0.234451
C80	C	1.831714	0.593462	0.198833
C81	C	1.934842	0.490357	0.252625
C82	C	1.917420	0.438784	0.322886
C83	C	1.796860	0.490331	0.339355
C84	C	1.693735	0.593441	0.285563
C85	C	0.724420	1.562778	-0.220152
C86	C	0.621295	1.665915	-0.273943
C87	C	0.638717	1.717494	-0.344204
C88	C	0.759276	1.665940	-0.360673
C89	C	0.862399	1.562812	-0.306882
C90	C	1.392023	1.562767	-0.255753
C91	C	1.401611	1.665873	-0.315557
C92	C	1.337402	1.717447	-0.381465
C93	C	1.263610	1.665899	-0.387569
C94	C	1.254030	1.562788	-0.327767
C95	C	1.754426	0.504160	-0.010556
C96	C	1.857530	0.401029	-0.021551
C97	C	1.917383	0.438749	-0.078841
C98	C	1.874118	0.579613	-0.125142
C99	C	1.771010	0.682742	-0.114149
C100	C	0.785141	1.473454	0.092828
C101	C	0.682034	1.576557	0.103840
C102	C	0.638744	1.717423	0.057553
C103	C	0.698575	1.755187	0.000254
C104	C	0.801686	1.652085	-0.010755
H105	H	0.797308	1.078109	-0.084004
H106	H	1.595583	0.635389	0.298982
O107	O	0.778061	1.721567	-0.436456
H108	H	0.686092	1.801924	-0.471087
O109	O	1.075224	1.078109	-0.595559
H110	H	1.091617	1.078096	-0.545931
O111	O	0.491277	1.721481	-0.256164
H112	H	0.447179	1.835224	-0.275346
H113	H	1.455092	1.078122	-0.741936
O114	O	0.527488	1.828741	-0.402219
H115	H	0.440741	1.855911	-0.378956
O116	O	1.778084	0.434674	0.415138
H117	H	1.827968	0.454443	0.444957
O118	O	1.461288	1.507150	-0.184672
H119	H	1.526986	1.393397	-0.162824
O120	O	1.938539	0.620291	-0.187005
H121	H	2.017457	0.524905	-0.186886
H122	H	0.758826	1.078104	0.062691
H123	H	0.960551	1.520841	-0.320301
O124	O	1.194353	1.721508	-0.458651
H125	H	1.128636	1.835256	-0.480499
O126	O	1.724377	0.834660	-0.164077
H127	H	1.783337	0.843549	-0.205752
H128	H	1.455103	1.078138	-0.298282
O129	O	2.028652	0.327551	0.380901
H130	H	2.091827	0.367126	0.379593
O131	O	0.617499	1.535807	0.165634
H132	H	0.684918	1.473159	0.215276
H133	H	1.461697	1.707833	-0.310572
O134	O	1.480875	1.078158	-0.425777
H135	H	1.548713	1.078190	-0.395989
O136	O	0.831824	1.321524	0.142758
H137	H	0.772900	1.312608	0.184450
H138	H	1.345213	1.801407	-0.430154
H139	H	1.845923	0.635438	0.141626
O140	O	1.904179	0.249108	0.028396
H141	H	1.985921	0.183720	0.011129
H142	H	0.663314	1.869893	-0.037430
H143	H	2.032998	0.448398	0.239204
H144	H	1.455093	1.078125	-0.624382
H145	H	0.850382	1.682854	-0.057414
H146	H	1.101016	1.078107	-0.723044
H147	H	1.101040	1.078097	-0.396938
O148	O	1.174423	1.507220	-0.334354
H149	H	1.131379	1.560425	-0.390231
H150	H	0.554783	1.801362	0.066524
O151	O	1.689870	0.463459	0.051233
H152	H	1.737274	0.348187	0.081566
H153	H	1.210996	0.354823	0.408875
O154	O	1.075258	1.078098	-0.269433
H155	H	0.985624	1.172528	-0.301711
O156	O	1.419655	0.470690	0.063199
H157	H	1.412010	0.566141	0.059200
H158	H	1.161338	0.675590	-0.071557
O159	O	1.381689	0.649076	0.313006
H160	H	1.424716	0.595913	0.368883
O161	O	0.705614	1.507165	-0.144373
H162	H	0.604460	1.560364	-0.141968
H163	H	2.001336	0.354761	-0.087786
O164	O	1.361845	0.434740	0.437324
H165	H	1.414774	0.487905	0.431497
H166	H	1.094476	0.448329	0.289320
H167	H	1.111815	0.635394	0.180797
