data_functionalizedCrystal
_audit_creation_method	'MofGen! by Chris Wilmer'
_symmetry_space_group_name_H-M	'P1'
_symmetry_Int_Tables_number	1
_symmetry_cell_setting	triclinic
loop_
_symmetry_equiv_pos_as_xyz
  x,y,z
_cell_length_a	14.560432
_cell_length_b	12.970454
_cell_length_c	12.970454
_cell_angle_alpha	59.999644
_cell_angle_beta	90.000744
_cell_angle_gamma	60.001316
loop_
_atom_site_label
_atom_site_type_symbol
_atom_site_fract_x
_atom_site_fract_y
_atom_site_fract_z
Zr1	Zr	0.884749	1.128547	-0.135308
O2	O	0.738103	1.343635	-0.299933
O3	O	0.929704	0.913458	-0.084840
O4	O	0.929703	1.128549	-0.299932
O5	O	0.738104	1.128542	0.084826
O6	O	1.080840	1.128554	-0.299933
O7	O	0.738103	1.128543	-0.084841
O8	O	1.080842	0.743794	0.084828
O9	O	0.738103	1.513302	-0.299934
O10	O	1.061669	1.001931	-0.063318
O11	O	0.948877	1.001927	0.063303
O12	O	0.948876	1.255170	-0.189940
O13	O	0.836084	1.255166	-0.063319
Zr14	Zr	1.125797	1.128553	0.135292
Zr15	Zr	1.125796	1.128554	-0.135308
Zr16	Zr	0.884750	1.128546	0.135292
Zr17	Zr	0.884749	1.399147	-0.135309
Zr18	Zr	1.125797	0.857953	0.135293
O19	O	1.080842	1.343643	0.084825
O20	O	1.080840	1.343645	-0.299934
O21	O	0.738104	1.343633	0.084825
O22	O	1.272443	0.913466	0.299917
O23	O	1.272442	0.913468	-0.084841
O24	O	0.929705	0.913456	0.299918
O25	O	1.272442	1.128558	-0.084842
O26	O	1.080843	1.128551	0.299916
O27	O	0.929705	1.128546	0.299917
O28	O	1.272442	1.128558	0.084825
O29	O	0.929703	1.513308	-0.299934
O30	O	1.080843	0.743793	0.299918
O31	O	1.272443	0.743798	0.299918
O32	O	1.272442	0.743799	0.084827
O33	O	0.738103	1.513301	-0.084843
O34	O	0.929704	1.513307	-0.084843
O35	O	1.061670	1.001930	0.189924
O36	O	1.174461	1.001934	0.063303
O37	O	1.061669	1.255173	-0.063319
O38	O	0.948877	1.255169	0.063302
C39	C	1.005273	0.790071	-0.000006
C40	C	1.005273	0.675194	-0.000006
C41	C	0.703760	1.128541	-0.000007
C42	C	0.601429	1.128538	-0.000007
C43	C	0.719168	0.864154	0.132175
C44	C	0.729961	0.731967	0.198260
C45	C	0.633809	0.731973	0.198257
C46	C	0.526855	0.864181	0.132164
C47	C	0.516062	0.996368	0.066079
C48	C	0.612223	0.996348	0.066087
C49	C	0.398324	1.260749	-0.066094
C50	C	0.494475	1.260746	-0.066099
C51	C	0.291370	1.392957	-0.132186
C52	C	0.280576	1.525148	-0.198280
C53	C	0.376736	1.525136	-0.198275
C54	C	0.483682	1.392934	-0.132184
C55	C	1.306786	1.128559	-0.000009
C56	C	1.409117	1.128562	-0.000009
C57	C	1.005271	1.128552	-0.338487
C58	C	1.005271	1.128552	-0.453364
C59	C	1.005273	1.467029	-0.000010
C60	C	1.005273	1.581906	-0.000010
C61	C	1.005274	1.128548	0.338471
C62	C	1.005275	1.128548	0.453348
C63	C	1.306786	0.790080	-0.000007
C64	C	1.409117	0.675206	-0.000006
C65	C	1.005274	0.790069	0.338473
C66	C	1.005274	0.675192	0.453350
C67	C	1.306787	0.790078	0.338472
C68	C	1.409118	0.675204	0.453350
C69	C	0.703758	1.467022	-0.338488
C70	C	0.601427	1.581897	-0.453365
C71	C	0.703760	1.467021	-0.000009
C72	C	0.601429	1.581894	-0.000009
C73	C	1.005272	1.467031	-0.338489
C74	C	1.005271	1.581908	-0.453366
C75	C	1.457174	0.527774	0.093470
C76	C	1.553315	0.419823	0.093475
C77	C	1.601401	0.459307	0.000007
C78	C	1.553336	0.606753	-0.093480
C79	C	1.457192	0.714702	-0.093488
C80	C	1.457182	0.527772	0.507297
C81	C	1.553344	0.419819	0.615224
C82	C	1.601436	0.459300	0.669207
C83	C	1.553367	0.606746	0.615250
C84	C	1.457212	0.714696	0.507320
C85	C	0.553372	1.729328	-0.507322
C86	C	0.457231	1.837281	-0.615273
C87	C	0.409143	1.797800	-0.669260
C88	C	0.457207	1.650353	-0.615298
C89	C	0.553351	1.542403	-0.507354
C90	C	0.553372	1.542365	0.093475
C91	C	0.457231	1.650286	0.093501
C92	C	0.409144	1.797736	0.000035
C93	C	0.457209	1.837265	-0.093455
C94	C	0.553353	1.729345	-0.093474
H95	H	0.797467	0.864136	0.132174
H96	H	1.418034	0.495597	0.169587
H97	H	0.367936	1.632780	-0.252073
F98	F	0.586024	1.392910	-0.132179
F99	F	1.604455	0.262908	0.192983
F100	F	0.406012	1.608356	-0.672767
F101	F	0.406016	1.994200	-0.192923
H102	H	0.592509	1.422311	0.169586
F103	F	0.306816	1.912707	-0.784144
H104	H	0.418108	1.618073	0.169631
H105	H	1.418083	0.834740	0.463408
F106	F	0.306817	1.912580	0.000071
H107	H	1.592502	0.638882	-0.169579
F108	F	1.406054	0.871611	-0.192988
F109	F	0.604479	1.385495	-0.449935
F110	F	1.406017	0.485721	0.449862
H111	H	1.679686	0.371394	0.000026
F112	F	0.406092	1.994195	-0.672681
H113	H	0.642602	0.624334	0.252074
F114	F	1.604481	0.262905	0.672633
H115	H	1.679731	0.371385	0.757092
H116	H	1.592539	0.638872	0.659219
H117	H	0.817052	0.624326	0.252074
F118	F	0.424524	0.864180	0.132183
F119	F	0.189037	1.392961	-0.132178
F120	F	0.166750	1.665837	-0.268603
F121	F	0.604534	1.771380	-0.449885
F122	F	0.604483	1.771438	-0.192985
