data_functionalizedCrystal
_audit_creation_method	'MofGen! by Chris Wilmer'
_symmetry_space_group_name_H-M	'P1'
_symmetry_Int_Tables_number	1
_symmetry_cell_setting	triclinic
loop_
_symmetry_equiv_pos_as_xyz
  x,y,z
_cell_length_a	13.897449
_cell_length_b	15.297327
_cell_length_c	15.298259
_cell_angle_alpha	88.343348
_cell_angle_beta	99.660142
_cell_angle_gamma	99.707995
loop_
_atom_site_label
_atom_site_type_symbol
_atom_site_fract_x
_atom_site_fract_y
_atom_site_fract_z
Zn1	Zn	1.323204	-0.262948	-0.555562
Zn2	Zn	1.823204	0.237052	-0.055562
Zn3	Zn	1.313689	-0.434796	-0.434423
Zn4	Zn	1.813689	0.065204	0.065577
Zn5	Zn	1.184291	-0.288339	-0.409109
Zn6	Zn	1.684291	0.211661	0.090891
Zn7	Zn	1.130075	-0.409394	-0.580847
Zn8	Zn	1.630075	0.090606	-0.080847
O9	O	1.237815	-0.348869	-0.494985
O10	O	1.737815	0.151131	0.005015
O11	O	1.456920	-0.285748	-0.539505
O12	O	1.956920	0.214252	-0.039505
O13	O	1.315231	-0.436625	-0.308495
O14	O	1.815231	0.063375	0.191505
O15	O	1.229389	-0.162389	-0.407361
O16	O	1.729389	0.337611	0.092639
O17	O	1.449930	-0.412005	-0.450504
O18	O	1.949930	0.087995	0.049496
O19	O	1.331448	-0.143734	-0.514959
O20	O	1.831448	0.356266	-0.014959
O21	O	1.220163	-0.329024	-0.289897
O22	O	1.720163	0.170976	0.210103
O23	O	1.042121	-0.304392	-0.431878
O24	O	1.542121	0.195608	0.068122
O25	O	1.136987	-0.368710	-0.700062
O26	O	1.636987	0.131290	-0.200062
O27	O	1.002289	-0.393331	-0.558053
O28	O	1.502289	0.106669	-0.058053
O29	O	1.278878	-0.261117	-0.681486
O30	O	1.778878	0.238883	-0.181486
O31	O	1.262661	-0.554008	-0.475022
O32	O	1.762661	-0.054008	0.024978
O33	O	1.127761	-0.535345	-0.582599
O34	O	1.627761	-0.035345	-0.082599
C35	C	1.188318	-0.576457	-0.534320
C36	C	1.688318	-0.076457	-0.034320
C37	C	1.167227	-0.673815	-0.551176
C38	C	1.667227	-0.173815	-0.051176
C39	C	0.987206	-0.348861	-0.494963
C40	C	1.487206	0.151139	0.005037
C41	C	0.879987	-0.348875	-0.494978
C42	C	1.379987	0.151125	0.005022
C43	C	1.388907	-0.986967	-0.374806
C44	C	1.888907	-0.486967	0.125194
C45	C	1.408723	-0.895495	-0.358964
C46	C	1.908723	-0.395495	0.141036
C47	C	1.348352	-0.840071	-0.407016
C48	C	1.848352	-0.340071	0.092984
C49	C	1.268159	-0.876127	-0.470912
C50	C	1.768159	-0.376127	0.029088
C51	C	1.248336	-0.967609	-0.486751
C52	C	1.748336	-0.467609	0.013249
C53	C	1.207781	-0.820712	-0.518961
C54	C	1.707781	-0.320712	-0.018961
C55	C	1.127588	-0.856769	-0.582858
C56	C	1.627588	-0.356769	-0.082858
C57	C	1.107770	-0.948242	-0.598694
C58	C	1.607770	-0.448242	-0.098694
C59	C	1.168142	-1.003666	-0.550642
C60	C	1.668142	-0.503666	-0.050642
C61	C	1.227604	-0.729231	-0.503122
C62	C	1.727604	-0.229231	-0.003122
C63	C	1.087033	-0.709873	-0.615067
C64	C	1.587033	-0.209873	-0.115067
C65	C	1.067216	-0.801345	-0.630910
C66	C	1.567216	-0.301345	-0.130910
C67	C	0.683687	-0.348874	-0.495002
C68	C	1.183687	0.151126	0.004998
C69	C	0.792923	-0.348872	-0.494986
C70	C	1.292923	0.151128	0.005014
C71	C	1.489402	-0.348878	-0.495008
C72	C	1.989402	0.151122	0.004992
C73	C	1.596613	-0.348882	-0.495018
C74	C	2.096613	0.151118	0.004982
C75	C	1.202946	-0.309248	-0.723444
C76	C	1.702946	0.190752	-0.223444
C77	C	1.188087	-0.292364	-0.820799
C78	C	1.688087	0.207636	-0.320799
C79	C	1.287528	-0.120389	-0.455516
C80	C	1.787528	0.379611	0.044484
C81	C	1.308713	-0.023024	-0.438697
C82	C	1.808713	0.476976	0.061303
C83	C	1.344192	-0.468868	-1.133953
C84	C	1.844192	0.031132	-0.633953
C85	C	1.358147	-0.484738	-1.042484
C86	C	1.858147	0.015262	-0.542484
C87	C	1.315633	-0.436645	-0.987058
C88	C	1.815633	0.063355	-0.487058
C89	C	1.259162	-0.372681	-1.023111
C90	C	1.759162	0.127319	-0.523111
C91	C	1.245200	-0.356816	-1.114590
C92	C	1.745200	0.143184	-0.614590
C93	C	1.216641	-0.324592	-0.967695
C94	C	1.716641	0.175408	-0.467695
C95	C	1.160170	-0.260629	-1.003748
C96	C	1.660170	0.239371	-0.503748
C97	C	1.146211	-0.244765	-1.095218
C98	C	1.646211	0.255235	-0.595218
C99	C	1.188724	-0.292858	-1.150644
C100	C	1.688724	0.207142	-0.650644
C101	C	1.230604	-0.340458	-0.876216
C102	C	1.730604	0.159542	-0.376216
C103	C	1.131611	-0.228405	-0.856853
C104	C	1.631611	0.271595	-0.356853
C105	C	1.117657	-0.212536	-0.948322
C106	C	1.617657	0.287464	-0.448322
C107	C	1.272617	-0.388273	-0.267404
C108	C	1.772617	0.111727	0.232596
C109	C	1.287717	-0.404910	-0.170007
C110	C	1.787717	0.095090	0.329993
H111	H	1.364490	-0.765591	-0.394112
H112	H	1.864490	-0.265591	0.105888
H113	H	1.152014	-1.078151	-0.563540
H114	H	1.652014	-0.578151	-0.063540
H115	H	1.071677	-0.160457	-0.977689
H116	H	1.571677	0.339543	-0.477689
O117	O	1.495219	-0.856609	-0.290060
O118	O	1.995219	-0.356609	0.209940
H119	H	1.485422	-0.886137	-0.224351
H120	H	1.985422	-0.386137	0.275649
H121	H	1.037871	-0.664746	-0.654194
H122	H	1.537871	-0.164746	-0.154194
H123	H	1.276590	-0.392533	-0.846870
H124	H	1.776590	0.107467	-0.346870
O125	O	1.390041	-0.520736	-1.193729
O126	O	1.890041	-0.020736	-0.693729
H127	H	1.370847	-0.498954	-1.263391
H128	H	1.870847	0.001046	-0.763391
H129	H	1.404114	-0.536825	-1.013138
H130	H	1.904114	-0.036825	-0.513138
H131	H	1.292896	-0.699882	-0.451097
H132	H	1.792896	-0.199882	0.048903
O133	O	1.454038	-1.046737	-0.323004
O134	O	1.954038	-0.546737	0.176996
H135	H	1.426790	-1.116401	-0.344765
H136	H	1.926790	-0.616401	0.155235
H137	H	1.100218	-0.192690	-1.124570
H138	H	1.600218	0.307310	-0.624570
O139	O	1.021274	-0.987138	-0.667605
O140	O	1.521274	-0.487138	-0.167605
H141	H	0.982628	-0.933232	-0.698363
H142	H	1.482628	-0.433232	-0.198363
H143	H	1.326998	-0.449571	-0.912581
H144	H	1.826998	0.050429	-0.412581
O145	O	1.173964	-0.275669	-1.249291
O146	O	1.673964	0.224331	-0.749291
H147	H	1.136495	-0.337503	-1.284957
H148	H	1.636495	0.162497	-0.784957
H149	H	1.001923	-0.830715	-0.682935
H150	H	1.501923	-0.330715	-0.182935
O151	O	1.085758	-0.176522	-0.797084
O152	O	1.585758	0.323478	-0.297084
H153	H	1.104964	-0.198291	-0.727419
H154	H	1.604964	0.301709	-0.227419
