data_functionalizedCrystal
_audit_creation_method	'MofGen! by Chris Wilmer'
_symmetry_space_group_name_H-M	'P1'
_symmetry_Int_Tables_number	1
_symmetry_cell_setting	triclinic
loop_
_symmetry_equiv_pos_as_xyz
  x,y,z
_cell_length_a	10.654545
_cell_length_b	10.967829
_cell_length_c	9.730223
_cell_angle_alpha	77.867717
_cell_angle_beta	89.997167
_cell_angle_gamma	84.599203
loop_
_atom_site_label
_atom_site_type_symbol
_atom_site_fract_x
_atom_site_fract_y
_atom_site_fract_z
O1	O	1.667818	0.175250	-0.155779
O2	O	2.167818	0.675250	0.344221
O3	O	1.302336	0.191955	-0.159740
O4	O	1.802336	0.691955	0.340260
O5	O	1.493506	0.002025	-0.114750
O6	O	1.993506	0.502025	0.385250
O7	O	1.476648	0.365180	-0.200769
O8	O	1.976648	0.865180	0.299231
O9	O	1.493493	0.002020	0.113832
O10	O	1.993493	0.502020	0.613832
O11	O	1.302324	0.191950	0.068841
O12	O	1.802324	0.691950	0.568841
O13	O	1.667805	0.175245	0.072803
O14	O	2.167805	0.675245	0.572803
Zn15	Zn	1.485063	0.183597	0.107114
Zn16	Zn	1.985063	0.683597	0.607114
Zn17	Zn	1.485079	0.183604	-0.194052
Zn18	Zn	1.985079	0.683604	0.305948
O19	O	1.476636	0.365175	0.027812
O20	O	1.976636	0.865175	0.527812
C21	C	1.255532	0.190727	-0.045160
C22	C	1.755532	0.690727	0.454840
C23	C	1.116089	0.187061	-0.044294
C24	C	1.616089	0.687061	0.455706
C25	C	1.050578	0.185333	0.080715
C26	C	1.550578	0.685333	0.580715
C27	C	0.919559	0.181867	0.081536
C28	C	1.419559	0.681867	0.581536
C29	C	0.919573	0.181864	-0.167674
C30	C	1.419573	0.681864	0.332326
C31	C	1.050591	0.185321	-0.168491
C32	C	1.550591	0.685321	0.331509
C33	C	1.492272	-0.044478	0.010553
C34	C	1.992272	0.455522	0.510553
C35	C	1.488599	-0.183035	0.043363
C36	C	1.988599	0.316965	0.543363
C37	C	1.486969	-0.244799	-0.060422
C38	C	1.986969	0.255201	0.439578
C39	C	1.483173	-0.388004	-0.026513
C40	C	1.983173	0.111996	0.473487
C41	C	1.714609	0.176473	-0.041780
C42	C	2.214609	0.676473	0.458220
C43	C	1.854052	0.180139	-0.042656
C44	C	2.354052	0.680139	0.457344
C45	C	1.477870	0.411678	-0.097493
C46	C	1.977870	0.911678	0.402507
C47	C	1.481542	0.550235	-0.130313
C48	C	1.981542	1.050235	0.369687
N49	N	1.485061	0.183591	0.312652
N50	N	1.985061	0.683591	0.812652
N51	N	1.485091	0.183599	-0.399587
N52	N	1.985091	0.683599	0.100413
C53	C	1.569740	0.099526	0.404491
C54	C	2.069740	0.599526	0.904491
C55	C	1.569752	0.099527	0.548374
C56	C	2.069752	0.599527	1.048374
C57	C	1.400403	0.267669	0.508563
C58	C	1.900403	0.767669	1.008563
C59	C	1.400385	0.267661	0.364684
C60	C	1.900385	0.767661	0.864684
H61	H	1.103903	0.186750	0.181844
H62	H	1.603903	0.686750	0.681844
Br63	Br	1.480802	-0.476556	0.163440
Br64	Br	1.980802	0.023444	0.663440
H65	H	0.866226	0.180460	0.183331
H66	H	1.366226	0.680460	0.683331
H67	H	1.482941	-0.396629	-0.244280
H68	H	1.982941	0.103371	0.255720
Br69	Br	0.830680	0.179465	-0.336209
Br70	Br	1.330680	0.679465	0.163791
H71	H	1.103932	0.186725	-0.270294
H72	H	1.603932	0.686725	0.229706
H73	H	1.487178	-0.236174	0.157321
H74	H	1.987178	0.263826	0.657321
H75	H	1.331464	0.336118	0.550942
H76	H	1.831464	0.836118	1.050942
Br77	Br	1.684672	-0.014572	0.673013
Br78	Br	2.184672	0.485428	1.173013
H79	H	1.331423	0.336118	0.289902
H80	H	1.831423	0.836118	0.789902
H81	H	1.488377	-0.191657	-0.174380
H82	H	1.988377	0.308343	0.325620
H83	H	1.638686	0.031070	0.362131
H84	H	2.138686	0.531070	0.862131
