data_functionalizedCrystal
_audit_creation_method	'MofGen! by Chris Wilmer'
_symmetry_space_group_name_H-M	'P1'
_symmetry_Int_Tables_number	1
_symmetry_cell_setting	triclinic
loop_
_symmetry_equiv_pos_as_xyz
  x,y,z
_cell_length_a	21.295418
_cell_length_b	21.295417
_cell_length_c	21.295411
_cell_angle_alpha	89.978356
_cell_angle_beta	90.043738
_cell_angle_gamma	89.953681
loop_
_atom_site_label
_atom_site_type_symbol
_atom_site_fract_x
_atom_site_fract_y
_atom_site_fract_z
Zn1	Zn	0.962356	0.250415	0.356234
Zn2	Zn	0.962258	0.355667	0.250959
Zn3	Zn	0.857079	0.250445	0.250943
Zn4	Zn	0.857048	0.355680	0.356155
O5	O	0.909685	0.303052	0.303573
O6	O	1.050432	0.264360	0.342308
O7	O	0.948278	0.341716	0.162867
O8	O	0.871098	0.162351	0.264937
O9	O	1.050361	0.341688	0.264963
O10	O	0.948444	0.162330	0.342293
O11	O	0.871003	0.264410	0.162856
O12	O	0.768985	0.264422	0.264861
O13	O	0.871046	0.341709	0.444255
O14	O	0.768963	0.341738	0.342160
O15	O	0.948415	0.264372	0.444313
O16	O	0.948248	0.443758	0.264887
O17	O	0.870951	0.443767	0.342175
C18	C	0.746134	0.303085	0.303500
C19	C	0.676166	0.303114	0.303484
C20	C	0.909603	0.466603	0.303538
C21	C	0.909625	0.536571	0.303544
C22	C	0.643304	0.343426	0.343674
C23	C	0.577561	0.343410	0.343702
C24	C	0.544683	0.303090	0.303530
C25	C	0.577553	0.262770	0.263337
C26	C	0.643294	0.262783	0.263315
N27	N	0.441407	0.298163	0.248472
N28	N	0.378956	0.298155	0.248495
C29	C	0.346608	0.303050	0.303596
N30	N	0.379072	0.307965	0.358675
N31	N	0.441529	0.307976	0.358650
C32	C	0.473398	0.303072	0.303550
C33	C	0.242461	0.343346	0.343820
C34	C	0.176717	0.343326	0.343849
C35	C	0.176710	0.262690	0.263479
C36	C	0.242453	0.262707	0.263455
C37	C	0.275324	0.303038	0.303625
C38	C	0.909738	0.303038	0.467763
C39	C	0.909760	0.303033	0.537731
C40	C	1.073876	0.303019	0.303646
C41	C	1.143844	0.303005	0.303677
C42	C	0.909785	0.138861	0.303622
C43	C	0.909828	0.068893	0.303642
C44	C	0.949910	0.569412	0.263342
C45	C	0.949939	0.635155	0.263356
C46	C	0.909673	0.668054	0.303566
C47	C	0.869386	0.635205	0.343776
C48	C	0.869362	0.569464	0.343765
N49	N	0.854606	0.771336	0.308340
N50	N	0.854630	0.833787	0.308347
C51	C	0.909743	0.866129	0.303602
N52	N	0.964832	0.833659	0.298838
N53	N	0.964807	0.771202	0.298828
C54	C	0.909695	0.739339	0.303582
C55	C	0.950063	0.970255	0.263413
C56	C	0.950094	1.035999	0.263431
C57	C	0.869535	1.036048	0.343848
C58	C	0.869510	0.970305	0.343833
C59	C	0.909773	0.937413	0.303612
C60	C	0.909670	0.303019	0.140021
C61	C	0.909769	0.302848	0.070054
C62	C	0.950044	0.262761	0.570629
C63	C	0.950043	0.262734	0.636371
C64	C	0.909765	0.302989	0.669214
C65	C	0.869473	0.343263	0.636308
C66	C	0.869470	0.343285	0.570567
N67	N	0.904908	0.358058	0.772428
N68	N	0.904914	0.358036	0.834879
C69	C	0.909769	0.302926	0.867289
N70	N	0.914629	0.247837	0.834888
N71	N	0.914627	0.247860	0.772430
C72	C	0.909763	0.302970	0.740499
C73	C	0.950054	0.262621	0.971472
C74	C	0.950049	0.262593	1.037216
C75	C	0.869482	0.343128	1.037151
C76	C	0.869484	0.343151	0.971409
C77	C	0.909773	0.302898	0.938573
H78	H	0.670063	0.376266	0.376384
O79	O	0.830183	0.667091	0.382805
C80	C	0.767444	0.651118	0.368958
H81	H	0.766133	0.603399	0.344751
H82	H	0.746269	0.688159	0.336574
C83	C	0.730893	0.706700	0.460011
C84	C	0.729284	0.648089	0.430284
H85	H	0.707353	0.704834	0.497839
H86	H	0.773162	0.717464	0.469339
H87	H	0.713249	0.737562	0.433018
H88	H	0.746935	0.617230	0.457274
H89	H	0.687017	0.637320	0.420962
O90	O	0.989212	0.223703	0.668405
C91	C	1.029854	0.259532	0.706446
H92	H	1.007616	0.307235	0.716273
H93	H	1.076497	0.266453	0.681142
C94	C	1.068595	0.166291	0.756836
C95	C	1.041279	0.224879	0.768910
H96	H	1.075645	0.144914	0.795366
H97	H	1.041215	0.142152	0.731206
H98	H	1.107461	0.172066	0.735748
H99	H	1.002411	0.219102	0.789990
H100	H	1.068653	0.249016	0.794545
O101	O	0.274476	0.223574	0.224468
C102	C	0.339550	0.232243	0.233049
H103	H	0.348562	0.252931	0.281588
H104	H	0.358130	0.265716	0.195643
C105	C	0.362292	0.143141	0.167766
C106	C	0.373362	0.168545	0.227385
H107	H	0.383150	0.103850	0.164270
H108	H	0.318450	0.137302	0.161982
H109	H	0.377775	0.171041	0.136601
H110	H	0.357871	0.140649	0.258548
H111	H	0.417202	0.174378	0.233174
H112	H	0.982902	1.062737	0.230695
H113	H	0.836704	0.943564	0.376567
H114	H	0.836680	0.375898	1.063891
H115	H	0.149942	0.229857	0.230773
O116	O	0.989196	0.223598	0.538831
C117	C	1.024763	0.188058	0.581970
H118	H	0.998982	0.185870	0.628815
H119	H	1.072557	0.211099	0.588994
C120	C	1.065540	0.123753	0.498791
C121	C	1.033873	0.121062	0.556325
H122	H	1.071163	0.082428	0.482971
H123	H	1.041580	0.147699	0.469727
H124	H	1.105366	0.142957	0.504652
H125	H	0.994046	0.101866	0.550461
H126	H	1.057827	0.097112	0.585388
O127	O	0.989242	0.223450	1.069077
C128	C	1.024789	0.187920	1.025995
H129	H	1.026950	0.213720	0.979133
H130	H	1.001771	0.140116	1.018986
C131	C	1.089137	0.147142	1.109259
C132	C	1.091796	0.178833	1.051705
H133	H	1.130470	0.141534	1.125119
H134	H	1.065187	0.171077	1.138286
H135	H	1.069953	0.107308	1.103411
H136	H	1.110973	0.218668	1.057556
H137	H	1.115751	0.154904	1.022680
O138	O	0.830377	0.382218	0.939351
C139	C	0.839024	0.373617	0.874285
H140	H	0.859668	0.325036	0.865323
H141	H	0.872524	0.410955	0.855652
C142	C	0.749972	0.439081	0.851491
C143	C	0.775323	0.379410	0.840484
H144	H	0.710680	0.442657	0.830640
H145	H	0.744148	0.444878	0.895328
H146	H	0.777895	0.470189	0.835964
H147	H	0.747404	0.348304	0.856018
H148	H	0.781141	0.373609	0.796649
O149	O	0.830315	0.537530	0.382884
C150	C	0.866119	0.499424	0.423567
H151	H	0.915703	0.519174	0.427522
H152	H	0.868278	0.449609	0.404095
C153	C	0.774433	0.474153	0.484111
C154	C	0.835332	0.498413	0.488972
H155	H	0.755441	0.473527	0.524455
H156	H	0.750310	0.499824	0.456701
H157	H	0.776240	0.432643	0.467881
H158	H	0.833523	0.539925	0.505194
H159	H	0.859454	0.472749	0.516387
O160	O	0.675191	0.223693	0.224179
C161	C	0.659029	0.237343	0.161421
H162	H	0.640899	0.287623	0.158157
H163	H	0.620887	0.203560	0.145043
C164	C	0.739656	0.168218	0.123411
C165	C	0.717394	0.229974	0.119401
H166	H	0.775657	0.163669	0.097489
H167	H	0.750544	0.159019	0.165692
H168	H	0.707866	0.140072	0.109763
H169	H	0.749182	0.258118	0.133055
H170	H	0.706513	0.239177	0.077121
O171	O	0.830442	1.068095	0.382852
C172	C	0.839115	1.133163	0.374256
H173	H	0.859756	1.142146	0.325703
H174	H	0.872629	1.151756	0.411639
C175	C	0.750082	1.155956	0.439590
C176	C	0.775429	1.166990	0.379954
H177	H	0.710799	1.176823	0.443107
H178	H	0.744240	1.112119	0.445383
H179	H	0.778016	1.171451	0.470736
H180	H	0.747499	1.151489	0.348810
H181	H	0.781265	1.210826	0.374155
H182	H	0.982857	0.229842	0.944736
O183	O	0.989235	0.938396	0.224327
C184	C	1.024791	0.981484	0.188837
H185	H	1.026979	1.028328	0.214635
H186	H	1.001763	0.988534	0.141002
C187	C	1.089092	0.898214	0.148155
C188	C	1.091785	0.955747	0.179842
H189	H	1.130417	0.882337	0.142603
H190	H	1.065136	0.869184	0.172063
H191	H	1.069900	0.904096	0.108295
H192	H	1.110969	0.949862	0.219703
H193	H	1.115746	0.984775	0.155940
O194	O	0.830438	0.382437	0.668236
C195	C	0.866254	0.423066	0.706297
H196	H	0.915829	0.426950	0.686519
H197	H	0.868437	0.403588	0.756124
C198	C	0.774572	0.483741	0.731570
C199	C	0.835459	0.488516	0.707276
H200	H	0.755575	0.524113	0.732177
H201	H	0.750441	0.456367	0.705930
H202	H	0.776399	0.467507	0.773091
H203	H	0.833630	0.504742	0.665754
H204	H	0.859589	0.515894	0.732909
H205	H	0.836663	0.376078	0.543782
H206	H	0.550800	0.376236	0.376431
O207	O	0.545645	0.223516	0.224380
C208	C	0.561794	0.160799	0.238237
H209	H	0.579925	0.157696	0.288525
H210	H	0.599932	0.144300	0.204505
C211	C	0.481157	0.122581	0.169243
C212	C	0.503420	0.118769	0.231010
H213	H	0.445150	0.096654	0.164783
H214	H	0.470278	0.164835	0.159905
H215	H	0.512944	0.108833	0.141140
H216	H	0.471636	0.132525	0.259111
H217	H	0.514292	0.076517	0.240352
O218	O	0.274300	0.382536	0.382904
C219	C	0.231193	0.418120	0.418378
H220	H	0.184359	0.392329	0.420621
H221	H	0.224127	0.465895	0.395244
C222	C	0.314440	0.458968	0.482595
C223	C	0.256919	0.427289	0.485354
H224	H	0.330309	0.464627	0.523907
H225	H	0.343482	0.434996	0.458694
H226	H	0.308543	0.498777	0.463313
H227	H	0.262818	0.387478	0.504627
H228	H	0.227878	0.451254	0.509259
O229	O	0.989125	0.667101	0.224382
C230	C	1.029770	0.705086	0.260261
H231	H	1.033656	0.685243	0.309839
H232	H	1.010308	0.754925	0.262423
C233	C	1.090439	0.730432	0.168668
C234	C	1.095216	0.706057	0.229559
H235	H	1.130808	0.731033	0.149729
H236	H	1.063054	0.704842	0.144495
H237	H	1.074218	0.771962	0.170478
H238	H	1.111429	0.664525	0.227747
H239	H	1.122605	0.731639	0.253731
O240	O	0.144766	0.382398	0.382959
C241	C	0.106811	0.346616	0.423692
H242	H	0.126677	0.297047	0.427670
H243	H	0.056966	0.344407	0.404253
C244	C	0.081446	0.438354	0.484187
C245	C	0.105849	0.377474	0.489076
H246	H	0.080850	0.457389	0.524518
H247	H	0.107015	0.462461	0.456743
H248	H	0.039911	0.436504	0.467985
H249	H	0.147386	0.379325	0.505270
H250	H	0.080287	0.353367	0.516524
H251	H	0.982696	0.542633	0.230593
