data_functionalizedCrystal
_audit_creation_method	'MofGen! by Chris Wilmer'
_symmetry_space_group_name_H-M	'P1'
_symmetry_Int_Tables_number	1
_symmetry_cell_setting	triclinic
loop_
_symmetry_equiv_pos_as_xyz
  x,y,z
_cell_length_a	16.109317
_cell_length_b	13.596369
_cell_length_c	14.519709
_cell_angle_alpha	90.006934
_cell_angle_beta	96.425820
_cell_angle_gamma	89.999264
loop_
_atom_site_label
_atom_site_type_symbol
_atom_site_fract_x
_atom_site_fract_y
_atom_site_fract_z
O1	O	-1.103329	0.081689	0.118615
O2	O	-0.861295	0.081714	0.133351
O3	O	-0.988729	0.081692	-0.008269
O4	O	-0.975895	0.081711	0.260235
O5	O	-0.988717	-0.081891	-0.008276
O6	O	-0.861282	-0.081869	0.133344
O7	O	-1.103317	-0.081894	0.118607
Zn8	Zn	-0.982297	-0.107854	0.125974
Zn9	Zn	-0.982314	0.107674	0.125984
O10	O	-0.975882	-0.081872	0.260227
C11	C	-0.830313	-0.000074	0.132748
C12	C	-0.738015	-0.000065	0.130950
N13	N	-0.982292	-0.254946	0.125967
C14	C	-0.438938	0.089092	0.125149
C15	C	-0.525662	0.089097	0.126831
C16	C	-0.525667	-0.089250	0.126811
C17	C	-0.438945	-0.089254	0.125121
C18	C	-0.395583	-0.000079	0.124295
C19	C	-0.569029	-0.000072	0.127667
C20	C	-0.663059	-0.000068	0.129492
C21	C	-0.301547	-0.000083	0.122468
C22	C	-0.982313	-0.656237	0.125985
C23	C	-0.982305	-0.544585	0.125983
C24	C	-0.982303	-0.455595	0.125977
C25	C	-0.982294	-0.343936	0.125974
C26	C	-0.134299	-0.000099	0.119212
C27	C	-0.226596	-0.000086	0.121012
C28	C	-0.988125	-0.000100	-0.042631
C29	C	-0.986333	-0.000100	-0.145008
N30	N	-0.982326	0.254765	0.125984
C31	C	-0.979734	-0.000074	-0.519891
C32	C	-0.981566	-0.000082	-0.415586
C33	C	-0.983033	-0.000088	-0.332453
C34	C	-0.984866	-0.000094	-0.228142
C35	C	-0.976487	-0.000078	0.294590
C36	C	-0.978279	-0.000072	0.396967
H37	H	-0.403635	0.161704	0.124475
H38	H	-0.560959	0.161709	0.127525
H39	H	-0.560984	-0.161853	0.127485
H40	H	-0.403644	-0.161872	0.124425
