data_functionalizedCrystal
_audit_creation_method	'MofGen! by Chris Wilmer'
_symmetry_space_group_name_H-M	'P1'
_symmetry_Int_Tables_number	1
_symmetry_cell_setting	triclinic
loop_
_symmetry_equiv_pos_as_xyz
  x,y,z
_cell_length_a	11.792254
_cell_length_b	11.792241
_cell_length_c	9.482900
_cell_angle_alpha	99.398500
_cell_angle_beta	80.645607
_cell_angle_gamma	84.196007
loop_
_atom_site_label
_atom_site_type_symbol
_atom_site_fract_x
_atom_site_fract_y
_atom_site_fract_z
O1	O	1.524481	0.137975	-0.120894
O2	O	2.024481	0.637975	0.379106
O3	O	1.194142	0.153992	-0.120898
O4	O	1.694142	0.653992	0.379102
O5	O	1.367326	-0.019185	-0.120886
O6	O	1.867326	0.480815	0.379114
O7	O	1.351297	0.311152	-0.120906
O8	O	1.851297	0.811152	0.379094
O9	O	1.332150	0.016133	0.120904
O10	O	1.832150	0.516133	0.620904
O11	O	1.158965	0.189310	0.120892
O12	O	1.658965	0.689310	0.620892
O13	O	1.489304	0.173293	0.120896
O14	O	1.989304	0.673293	0.620896
Cu15	Cu	1.320923	0.184526	0.142971
Cu16	Cu	1.820923	0.684526	0.642971
Cu17	Cu	1.362524	0.142758	-0.142973
Cu18	Cu	1.862524	0.642758	0.357027
O19	O	1.316120	0.346470	0.120884
O20	O	1.816120	0.846470	0.620884
C21	C	1.134263	0.170642	-0.000003
C22	C	1.634263	0.670642	0.499997
C23	C	1.008250	0.167622	-0.000004
C24	C	1.508250	0.667622	0.499996
C25	C	0.905915	0.165167	-0.000010
C26	C	1.405915	0.665167	0.499990
C27	C	0.777528	0.162098	-0.000011
C28	C	1.277528	0.662098	0.499989
C29	C	1.348731	-0.043817	0.000009
C30	C	1.848731	0.456183	0.500009
C31	C	1.345717	-0.169831	0.000007
C32	C	1.845717	0.330169	0.500007
C33	C	1.340178	-0.400547	-0.000017
C34	C	1.840178	0.099453	0.499983
C35	C	1.343255	-0.272160	-0.000004
C36	C	1.843255	0.227840	0.499996
C37	C	1.549184	0.156642	-0.000002
C38	C	2.049184	0.656642	0.499998
C39	C	1.675198	0.159661	-0.000011
C40	C	2.175198	0.659661	0.499989
C41	C	1.334716	0.371102	-0.000014
C42	C	1.834716	0.871102	0.499986
C43	C	1.337731	0.497114	-0.000022
C44	C	1.837731	0.997114	0.499978
N45	N	1.291672	0.213903	0.344090
N46	N	1.791672	0.713903	0.844090
N47	N	1.391784	0.113373	-0.344091
N48	N	1.891784	0.613373	0.155909
C49	C	1.353888	0.151417	0.416293
C50	C	1.853888	0.651417	0.916293
C51	C	1.329558	0.175868	0.583709
C52	C	1.829558	0.675868	1.083709
H53	H	1.425161	0.079814	0.354170
H54	H	1.925161	0.579814	0.854170
H55	H	1.463062	0.041766	0.593789
H56	H	1.963062	0.541766	1.093789
H57	H	1.258272	0.247467	0.645828
H58	H	1.758272	0.747467	1.145828
C59	C	1.195373	0.310627	0.428013
C60	C	1.695373	0.810627	0.928013
N61	N	1.122839	0.383482	0.491222
N62	N	1.622839	0.883482	0.991222
