data_functionalizedCrystal
_audit_creation_method	'MofGen! by Chris Wilmer'
_symmetry_space_group_name_H-M	'P1'
_symmetry_Int_Tables_number	1
_symmetry_cell_setting	triclinic
loop_
_symmetry_equiv_pos_as_xyz
  x,y,z
_cell_length_a	9.065218
_cell_length_b	14.472310
_cell_length_c	9.065215
_cell_angle_alpha	90.000018
_cell_angle_beta	94.984709
_cell_angle_gamma	90.013153
loop_
_atom_site_label
_atom_site_type_symbol
_atom_site_fract_x
_atom_site_fract_y
_atom_site_fract_z
O1	O	1.960419	0.076841	-0.216347
O2	O	1.531134	0.076842	-0.234094
O3	O	1.754651	0.076838	-0.010578
O4	O	1.736901	0.076846	-0.439863
O5	O	1.754593	-0.076844	-0.010590
O6	O	1.531075	-0.076840	-0.234106
O7	O	1.960360	-0.076841	-0.216360
Cu8	Cu	1.745713	-0.090873	-0.225234
Cu9	Cu	1.745781	0.090874	-0.225219
O10	O	1.736842	-0.076836	-0.439876
C11	C	1.476118	0.000002	-0.232394
C12	C	1.312275	0.000002	-0.227295
N13	N	1.745675	-0.218703	-0.225244
C14	C	1.745779	-0.592795	-0.225213
C15	C	1.625767	-0.553626	-0.344400
C16	C	1.626054	-0.446538	-0.344845
C17	C	1.745726	-0.407204	-0.225228
C18	C	1.900135	-0.446040	-0.260913
C19	C	1.899464	-0.553162	-0.261763
C20	C	1.712751	-0.553327	-0.070002
C21	C	1.709234	-0.446199	-0.070987
C22	C	1.745706	-0.302315	-0.225234
C23	C	1.745810	-0.697683	-0.225211
C24	C	2.015376	0.000002	-0.218059
C25	C	2.179219	0.000008	-0.223159
C26	C	1.752917	-0.000002	0.044403
C27	C	1.747819	0.000001	0.208246
N28	N	1.745830	0.218705	-0.225198
C29	C	1.738576	0.000006	-0.494856
C30	C	1.743674	0.000009	-0.658699
H31	H	1.510692	-0.579414	-0.323161
O32	O	1.817033	-0.583431	0.036023
C33	C	1.786311	-0.547646	0.174736
H34	H	1.716196	-0.482520	0.157604
H35	H	1.723252	-0.601373	0.236446
C36	C	2.018762	-0.603939	0.287079
C37	C	1.932657	-0.523947	0.266039
H38	H	2.109034	-0.589324	0.343404
H39	H	2.039459	-0.628052	0.193628
H40	H	1.966197	-0.648705	0.338500
H41	H	1.985215	-0.479187	0.214603
H42	H	1.911972	-0.499826	0.359484
H43	H	1.511345	-0.420282	-0.323280
O44	O	1.806719	-0.414217	0.039794
C45	C	1.910499	-0.355559	-0.020010
H46	H	1.916803	-0.372727	-0.142032
H47	H	1.874633	-0.280578	-0.008718
C48	C	2.056056	-0.348497	0.214110
C49	C	2.063807	-0.369588	0.064243
H50	H	2.150622	-0.357146	0.266084
H51	H	1.986134	-0.388012	0.254404
H52	H	2.026161	-0.286013	0.223499
H53	H	2.093682	-0.432073	0.054855
H54	H	2.133737	-0.330082	0.023949
O55	O	1.651295	-0.416060	-0.482308
C56	C	1.538708	-0.448896	-0.586243
H57	H	1.486238	-0.513271	-0.540581
H58	H	1.450637	-0.393185	-0.608155
C59	C	1.670016	-0.393999	-0.787944
C60	C	1.605580	-0.473069	-0.731865
H61	H	1.711262	-0.408906	-0.877773
H62	H	1.745866	-0.371872	-0.717921
H63	H	1.596612	-0.347580	-0.806191
H64	H	1.678987	-0.519482	-0.713602
H65	H	1.529743	-0.495204	-0.801889
O66	O	1.581118	-0.585639	-0.029949
C67	C	1.516850	-0.644510	-0.141649
H68	H	1.563220	-0.627261	-0.251297
H69	H	1.543707	-0.719409	-0.111025
C70	C	1.290778	-0.652126	-0.022247
C71	C	1.347721	-0.630936	-0.156920
H72	H	1.186451	-0.643757	-0.031664
H73	H	1.334077	-0.612466	0.053012
H74	H	1.313173	-0.714541	0.003259
H75	H	1.325342	-0.568519	-0.182415
H76	H	1.304414	-0.670585	-0.232184
H77	H	1.646791	-0.580534	-0.458887
H78	H	1.928255	-0.578135	-0.375020
H79	H	1.991666	-0.579070	-0.178486
O80	O	2.009487	-0.415602	-0.160423
C81	C	2.113978	-0.364829	-0.233733
H82	H	2.107876	-0.386462	-0.355029
H83	H	2.088684	-0.287901	-0.226132
C84	C	2.278026	-0.357494	-0.011252
C85	C	2.270540	-0.384069	-0.160227
H86	H	2.374600	-0.369358	0.034093
H87	H	2.207626	-0.391697	0.038142
H88	H	2.256939	-0.293388	-0.004938
H89	H	2.291607	-0.448176	-0.166538
H90	H	2.340947	-0.349877	-0.209620
H91	H	1.929562	-0.419201	-0.372892
H92	H	1.595638	-0.420817	-0.043954
