data_functionalizedCrystal
_audit_creation_method	'MofGen! by Chris Wilmer'
_symmetry_space_group_name_H-M	'P1'
_symmetry_Int_Tables_number	1
_symmetry_cell_setting	triclinic
loop_
_symmetry_equiv_pos_as_xyz
  x,y,z
_cell_length_a	14.519709
_cell_length_b	14.519709
_cell_length_c	9.730223
_cell_angle_alpha	90.002325
_cell_angle_beta	89.998206
_cell_angle_gamma	96.319856
loop_
_atom_site_label
_atom_site_type_symbol
_atom_site_fract_x
_atom_site_fract_y
_atom_site_fract_z
O1	O	-0.120891	1.223866	-0.114091
O2	O	-0.135127	0.955389	-0.114131
O3	O	0.006229	1.096746	-0.114123
O4	O	-0.262248	1.082509	-0.114100
O5	O	0.006233	1.096737	0.114457
O6	O	-0.135124	0.955380	0.114449
O7	O	-0.120887	1.223857	0.114488
Zn8	Zn	-0.128005	1.089617	0.150761
Zn9	Zn	-0.128010	1.089629	-0.150403
O10	O	-0.262244	1.082500	0.114480
C11	C	-0.134462	0.921025	0.000153
C12	C	-0.132474	0.818643	0.000137
C13	C	-0.125154	0.443748	0.000199
C14	C	-0.127187	0.548056	0.000181
C15	C	-0.128814	0.631192	0.000167
C16	C	-0.130847	0.735507	0.000152
C17	C	-0.296605	1.083168	0.000193
C18	C	-0.398987	1.085156	0.000203
C19	C	-0.773883	1.092476	0.000149
C20	C	-0.669575	1.090443	0.000165
C21	C	-0.586438	1.088816	0.000177
C22	C	-0.482123	1.086783	0.000190
C23	C	0.040591	1.096078	0.000161
C24	C	0.142972	1.094090	0.000142
C25	C	-0.121553	1.258221	0.000201
C26	C	-0.123541	1.360602	0.000208
N27	N	-0.128001	1.089616	0.356297
N28	N	-0.128006	1.089638	-0.355940
C29	C	-0.065434	1.152229	0.428227
C30	C	-0.065435	1.152239	0.572110
C31	C	-0.190576	1.027017	0.572121
C32	C	-0.190570	1.027004	0.428240
H33	H	-0.014485	1.203210	0.369654
H34	H	-0.241520	0.976041	0.630711
N35	N	-0.001513	1.216199	0.645562
N36	N	0.054347	1.272090	0.581305
H37	H	0.099497	1.317264	0.633179
H38	H	-0.241520	0.976012	0.369671
