data_functionalizedCrystal
_audit_creation_method	'MofGen! by Chris Wilmer'
_symmetry_space_group_name_H-M	'P1'
_symmetry_Int_Tables_number	1
_symmetry_cell_setting	triclinic
loop_
_symmetry_equiv_pos_as_xyz
  x,y,z
_cell_length_a	12.645330
_cell_length_b	12.645331
_cell_length_c	12.759393
_cell_angle_alpha	89.985103
_cell_angle_beta	89.969902
_cell_angle_gamma	90.016927
loop_
_atom_site_label
_atom_site_type_symbol
_atom_site_fract_x
_atom_site_fract_y
_atom_site_fract_z
Zn1	Zn	-0.421998	1.620722	-0.593893
Zn2	Zn	-0.599302	1.620607	-0.418218
Zn3	Zn	-0.422051	1.443440	-0.418243
Zn4	Zn	-0.599218	1.443419	-0.593870
O5	O	-0.510642	1.532047	-0.506056
O6	O	-0.445531	1.769054	-0.570588
O7	O	-0.575847	1.597065	-0.271200
O8	O	-0.273697	1.467014	-0.441564
O9	O	-0.575796	1.768969	-0.441520
O10	O	-0.273658	1.597263	-0.570613
O11	O	-0.445621	1.466901	-0.271219
O12	O	-0.445539	1.295090	-0.441541
O13	O	-0.575651	1.466978	-0.740894
O14	O	-0.575703	1.295074	-0.570574
O15	O	-0.445449	1.597242	-0.740911
O16	O	-0.747638	1.597045	-0.441498
O17	O	-0.747576	1.466866	-0.570549
C18	C	-0.510618	1.256617	-0.506058
C19	C	-0.510633	1.138787	-0.506085
C20	C	-0.592968	0.971249	-0.586835
C21	C	-0.592703	1.093809	-0.587173
C22	C	-0.398976	1.094309	-0.536333
C23	C	-0.399478	0.971710	-0.536902
C24	C	-0.539057	0.971543	-0.394829
C25	C	-0.541499	1.094149	-0.395429
C26	C	-0.786072	1.531969	-0.506041
C27	C	-0.903902	1.532033	-0.506070
C28	C	-1.071471	1.450475	-0.587506
C29	C	-0.948911	1.450058	-0.587244
C30	C	-0.948506	1.501790	-0.395350
C31	C	-1.071104	1.501292	-0.395845
C32	C	-1.070990	1.644334	-0.534455
C33	C	-0.948383	1.643646	-0.536876
C34	C	-0.234137	1.532153	-0.506094
C35	C	-0.116307	1.532199	-0.506110
C36	C	-0.510535	1.532121	-0.780089
C37	C	-0.510489	1.532152	-0.896866
C38	C	-0.510667	1.808552	-0.506054
C39	C	-0.510678	1.926382	-0.506053
C40	C	-0.442668	1.464400	-0.951737
C41	C	-0.442636	1.464425	-1.061461
C42	C	-0.578248	1.599963	-1.061433
C43	C	-0.578285	1.599932	-0.951711
C44	C	-0.510672	1.532034	-0.233088
C45	C	-0.510419	1.532208	-0.116312
H46	H	-0.675503	1.123881	-0.568216
H47	H	-0.919354	1.559426	-0.333047
H48	H	-1.101827	1.671923	-0.613819
H49	H	-0.917739	1.707740	-0.481908
H50	H	-0.387465	1.409210	-0.907086
H51	H	-0.387410	1.409254	-1.106133
H52	H	-0.676043	0.941758	-0.568087
H53	H	-0.633444	1.655147	-1.106102
H54	H	-0.633517	1.655107	-0.907034
H55	H	-0.574429	0.940457	-0.668769
H56	H	-0.335996	1.123442	-0.479333
H57	H	-0.485911	1.124767	-0.332011
H58	H	-0.573920	1.123157	-0.669586
H59	H	-0.375408	0.943134	-0.618211
H60	H	-0.374467	1.125032	-0.616762
H61	H	-0.619090	0.940622	-0.367335
H62	H	-0.919677	1.366926	-0.568466
H63	H	-1.100875	1.469224	-0.669874
H64	H	-0.335967	0.942030	-0.480761
H65	H	-0.917896	1.420672	-0.370902
H66	H	-0.623662	1.123232	-0.372615
H67	H	-0.479117	0.942527	-0.334638
H68	H	-1.102372	1.367863	-0.568968
H69	H	-0.918750	1.468980	-0.669343
H70	H	-1.100768	1.558233	-0.333130
H71	H	-1.099797	1.419320	-0.371831
H72	H	-0.919225	1.666454	-0.618360
H73	H	-1.099984	1.705220	-0.475171
