data_functionalizedCrystal
_audit_creation_method	'MofGen! by Chris Wilmer'
_symmetry_space_group_name_H-M	'P1'
_symmetry_Int_Tables_number	1
_symmetry_cell_setting	triclinic
loop_
_symmetry_equiv_pos_as_xyz
  x,y,z
_cell_length_a	18.101398
_cell_length_b	18.050589
_cell_length_c	18.101390
_cell_angle_alpha	89.971488
_cell_angle_beta	89.975319
_cell_angle_gamma	90.023488
loop_
_atom_site_label
_atom_site_type_symbol
_atom_site_fract_x
_atom_site_fract_y
_atom_site_fract_z
Zn1	Zn	1.132138	-0.295725	-0.418861
Zn2	Zn	1.382138	-0.045725	-0.168861
Zn3	Zn	1.632138	0.204275	0.081139
Zn4	Zn	1.882138	0.454275	0.331139
Zn5	Zn	1.132040	-0.419930	-0.295029
Zn6	Zn	1.382040	-0.169930	-0.045029
Zn7	Zn	1.632040	0.080070	0.204971
Zn8	Zn	1.882040	0.330070	0.454971
Zn9	Zn	1.008297	-0.295749	-0.295023
Zn10	Zn	1.258297	-0.045749	-0.045023
Zn11	Zn	1.508297	0.204251	0.204977
Zn12	Zn	1.758297	0.454251	0.454977
Zn13	Zn	1.008254	-0.419867	-0.418818
Zn14	Zn	1.258254	-0.169867	-0.168818
Zn15	Zn	1.508254	0.080133	0.081182
Zn16	Zn	1.758254	0.330133	0.331182
O17	O	1.070182	-0.357818	-0.356933
O18	O	1.320182	-0.107818	-0.106933
O19	O	1.570182	0.142182	0.143067
O20	O	1.820182	0.392182	0.393067
O21	O	1.235758	-0.312217	-0.402456
O22	O	1.485758	-0.062217	-0.152456
O23	O	1.735758	0.187783	0.097544
O24	O	1.985758	0.437783	0.347544
O25	O	1.115601	-0.403494	-0.191396
O26	O	1.365601	-0.153494	0.058604
O27	O	1.615601	0.096506	0.308604
O28	O	1.865601	0.346506	0.558604
O29	O	1.024783	-0.191821	-0.311465
O30	O	1.274783	0.058179	-0.061465
O31	O	1.524783	0.308179	0.188535
O32	O	1.774783	0.558179	0.438535
O33	O	1.235686	-0.403471	-0.311477
O34	O	1.485686	-0.153471	-0.061477
O35	O	1.735686	0.096529	0.188523
O36	O	1.985686	0.346529	0.438523
O37	O	1.115770	-0.191803	-0.402449
O38	O	1.365770	0.058197	-0.152449
O39	O	1.615770	0.308197	0.097551
O40	O	1.865770	0.558197	0.347551
O41	O	1.024688	-0.312258	-0.191391
O42	O	1.274688	-0.062258	0.058609
O43	O	1.524688	0.187742	0.308609
O44	O	1.774688	0.437742	0.558609
O45	O	0.904658	-0.312197	-0.311423
O46	O	1.154658	-0.062197	-0.061423
O47	O	1.404658	0.187803	0.188577
O48	O	1.654658	0.437803	0.438577
O49	O	1.024711	-0.403363	-0.522457
O50	O	1.274711	-0.153363	-0.272457
O51	O	1.524711	0.096637	-0.022457
O52	O	1.774711	0.346637	0.227543
O53	O	0.904627	-0.403386	-0.402375
O54	O	1.154627	-0.153386	-0.152375
O55	O	1.404627	0.096614	0.097625
O56	O	1.654627	0.346614	0.347625
O57	O	1.115729	-0.312156	-0.522489
O58	O	1.365729	-0.062156	-0.272489
O59	O	1.615729	0.187844	-0.022489
O60	O	1.865729	0.437844	0.227511
O61	O	1.115560	-0.523847	-0.311435
O62	O	1.365560	-0.273847	-0.061435
O63	O	1.615560	-0.023847	0.188565
O64	O	1.865560	0.226153	0.438565
O65	O	1.024616	-0.523800	-0.402382
O66	O	1.274616	-0.273800	-0.152382
O67	O	1.524616	-0.023800	0.097618
O68	O	1.774616	0.226200	0.347618
C69	C	0.877772	-0.357788	-0.356894
C70	C	1.127772	-0.107788	-0.106894
C71	C	1.377772	0.142212	0.143106
C72	C	1.627772	0.392212	0.393106
C73	C	0.795458	-0.357793	-0.356895
C74	C	1.045458	-0.107793	-0.106895
C75	C	1.295458	0.142207	0.143105
C76	C	1.545458	0.392207	0.393105
C77	C	0.496367	-0.357839	-0.356957
C78	C	0.746367	-0.107839	-0.106957
C79	C	0.996367	0.142161	0.143043
C80	C	1.246367	0.392161	0.393043
C81	C	0.527687	-0.300178	-0.300012
C82	C	0.777687	-0.050178	-0.050012
C83	C	1.027687	0.199822	0.199988
C84	C	1.277687	0.449822	0.449988
C85	C	0.613305	-0.300333	-0.299769
C86	C	0.863305	-0.050333	-0.049769
C87	C	1.113305	0.199667	0.200231
C88	C	1.363305	0.449667	0.450231
C89	C	0.644749	-0.357815	-0.356927
C90	C	0.894749	-0.107815	-0.106927
C91	C	1.144749	0.142185	0.143073
C92	C	1.394749	0.392185	0.393073
C93	C	0.613635	-0.436048	-0.335608
C94	C	0.863635	-0.186048	-0.085608
C95	C	1.113635	0.063952	0.164392
C96	C	1.363635	0.313952	0.414392
C97	C	0.527990	-0.435728	-0.335212
C98	C	0.777990	-0.185728	-0.085212
C99	C	1.027990	0.064272	0.164788
C100	C	1.277990	0.314272	0.414788
C101	C	0.527981	-0.337947	-0.435355
C102	C	0.777981	-0.087947	-0.185355
C103	C	1.027981	0.162053	0.064645
C104	C	1.277981	0.412053	0.314645
C105	C	0.613632	-0.336205	-0.434927
C106	C	0.863632	-0.086205	-0.184927
C107	C	1.113632	0.163795	0.065073
C108	C	1.363632	0.413795	0.315073
C109	C	0.728609	-0.357807	-0.356910
C110	C	0.978609	-0.107807	-0.106910
C111	C	1.228609	0.142193	0.143090
C112	C	1.478609	0.392193	0.393090
C113	C	0.412507	-0.357853	-0.356972
C114	C	0.662507	-0.107853	-0.106972
C115	C	0.912507	0.142147	0.143028
C116	C	1.162507	0.392147	0.393028
C117	C	1.070093	-0.550770	-0.356921
C118	C	1.320093	-0.300770	-0.106921
C119	C	1.570093	-0.050770	0.143079
C120	C	1.820093	0.199230	0.393079
C121	C	1.070122	-0.633316	-0.356940
C122	C	1.320122	-0.383316	-0.106940
C123	C	1.570122	-0.133316	0.143060
C124	C	1.820122	0.116684	0.393060
C125	C	1.020715	-0.832768	-0.406380
C126	C	1.270715	-0.582768	-0.156380
C127	C	1.520715	-0.332768	0.093620
C128	C	1.770715	-0.082768	0.343620
C129	C	1.002663	-0.882213	-0.338801
C130	C	1.252663	-0.632213	-0.088801
C131	C	1.502663	-0.382213	0.161199
C132	C	1.752663	-0.132213	0.411199
C133	C	1.070195	-0.784446	-0.356950
C134	C	1.320195	-0.534446	-0.106950
C135	C	1.570195	-0.284446	0.143050
C136	C	1.820195	-0.034446	0.393050
C137	C	1.088284	-0.882083	-0.424536
C138	C	1.338284	-0.632083	-0.174536
C139	C	1.588284	-0.382083	0.075464
C140	C	1.838284	-0.132083	0.325464
C141	C	1.070264	-0.930431	-0.356965
C142	C	1.320264	-0.680431	-0.106965
C143	C	1.570264	-0.430431	0.143035
C144	C	1.820264	-0.180431	0.393035
C145	C	1.052107	-0.832803	-0.289335
C146	C	1.302107	-0.582803	-0.039335
C147	C	1.552107	-0.332803	0.210665
C148	C	1.802107	-0.082803	0.460665
C149	C	1.137760	-0.832669	-0.375116
C150	C	1.387760	-0.582669	-0.125116
C151	C	1.637760	-0.332669	0.124884
C152	C	1.887760	-0.082669	0.374884
C153	C	1.119733	-0.882092	-0.307491
C154	C	1.369733	-0.632092	-0.057491
C155	C	1.619733	-0.382092	0.192509
C156	C	1.869733	-0.132092	0.442509
C157	C	1.070154	-0.700348	-0.356942
C158	C	1.320154	-0.450348	-0.106942
C159	C	1.570154	-0.200348	0.143058
C160	C	1.820154	0.049652	0.393058
C161	C	1.070306	-1.014528	-0.356965
C162	C	1.320306	-0.764528	-0.106965
C163	C	1.570306	-0.514528	0.143035
C164	C	1.820306	-0.264528	0.393035
C165	C	1.263344	-0.357849	-0.356972
C166	C	1.513344	-0.107849	-0.106972
C167	C	1.763344	0.142151	0.143028
C168	C	2.013344	0.392151	0.393028
C169	C	1.345658	-0.357862	-0.356989
C170	C	1.595658	-0.107862	-0.106989
C171	C	1.845658	0.142138	0.143011
C172	C	2.095658	0.392138	0.393011
C173	C	1.070226	-0.357750	-0.550095
C174	C	1.320226	-0.107750	-0.300095
C175	C	1.570226	0.142250	-0.050095
C176	C	1.820226	0.392250	0.199905
C177	C	1.070245	-0.357721	-0.632409
C178	C	1.320245	-0.107721	-0.382409
C179	C	1.570245	0.142279	-0.132409
C180	C	1.820245	0.392279	0.117591
C181	C	1.070292	-0.164112	-0.356961
C182	C	1.320292	0.085888	-0.106961
C183	C	1.570292	0.335888	0.143039
C184	C	1.820292	0.585888	0.393039
C185	C	1.070339	-0.081566	-0.356974
C186	C	1.320339	0.168434	-0.106974
C187	C	1.570339	0.418434	0.143026
C188	C	1.820339	0.668434	0.393026
C189	C	1.070285	-0.357675	-0.931500
C190	C	1.320285	-0.107675	-0.681500
C191	C	1.570285	0.142325	-0.431500
C192	C	1.820285	0.392325	-0.181500
C193	C	1.127739	-0.300492	-0.900195
C194	C	1.377739	-0.050492	-0.650195
C195	C	1.627739	0.199508	-0.400195
C196	C	1.877739	0.449508	-0.150195
C197	C	1.127560	-0.300280	-0.814577
C198	C	1.377560	-0.050280	-0.564577
C199	C	1.627560	0.199720	-0.314577
C200	C	1.877560	0.449720	-0.064577
C201	C	1.070266	-0.357698	-0.783117
C202	C	1.320266	-0.107698	-0.533117
C203	C	1.570266	0.142302	-0.283117
C204	C	1.820266	0.392302	-0.033117
C205	C	0.992248	-0.336428	-0.814182
C206	C	1.242248	-0.086428	-0.564182
C207	C	1.492248	0.163572	-0.314182
C208	C	1.742248	0.413572	-0.064182
C209	C	0.992592	-0.336000	-0.899828
C210	C	1.242592	-0.086000	-0.649828
C211	C	1.492592	0.164000	-0.399828
C212	C	1.742592	0.414000	-0.149828
C213	C	1.090162	-0.436274	-0.899920
C214	C	1.340162	-0.186274	-0.649920
C215	C	1.590162	0.063726	-0.399920
C216	C	1.840162	0.313726	-0.149920
C217	C	1.091874	-0.435873	-0.814270
C218	C	1.341874	-0.185873	-0.564270
C219	C	1.591874	0.064127	-0.314270
C220	C	1.841874	0.314127	-0.064270
C221	C	1.070250	-0.357712	-0.699258
C222	C	1.320250	-0.107712	-0.449258
C223	C	1.570250	0.142288	-0.199258
C224	C	1.820250	0.392288	0.050742
C225	C	1.070296	-0.357659	-1.015360
C226	C	1.320296	-0.107659	-0.765360
C227	C	1.570296	0.142341	-0.515360
C228	C	1.820296	0.392341	-0.265360
C229	C	1.070181	-0.357832	-0.164522
C230	C	1.320181	-0.107832	0.085478
C231	C	1.570181	0.142168	0.335478
C232	C	1.820181	0.392168	0.585478
C233	C	1.070306	-0.357651	-0.082209
C234	C	1.320306	-0.107651	0.167791
C235	C	1.570306	0.142349	0.417791
C236	C	1.820306	0.392349	0.667791
H237	H	0.506138	-0.313180	-0.242258
H238	H	0.756138	-0.063180	0.007742
H239	H	1.006138	0.186820	0.257742
H240	H	1.256138	0.436820	0.507742
H241	H	0.978810	-0.811110	-0.448122
H242	H	1.228810	-0.561110	-0.198122
H243	H	1.478810	-0.311110	0.051878
H244	H	1.728810	-0.061110	0.301878
C245	C	0.969816	-0.258390	-0.926834
C246	C	1.219816	-0.008390	-0.676834
C247	C	1.469816	0.241610	-0.426834
C248	C	1.719816	0.491610	-0.176834
H249	H	0.969817	-0.257447	-0.979310
H250	H	1.219817	-0.007447	-0.729310
H251	H	1.469817	0.242553	-0.479310
H252	H	1.719817	0.492553	-0.229310
H253	H	1.003867	-0.222701	-0.908729
H254	H	1.253867	0.027299	-0.658729
H255	H	1.503867	0.277299	-0.408729
H256	H	1.753867	0.527299	-0.158729
H257	H	0.921698	-0.247149	-0.909129
H258	H	1.171698	0.002851	-0.659129
H259	H	1.421698	0.252851	-0.409129
H260	H	1.671698	0.502851	-0.159129
C261	C	1.205718	-0.318233	-0.786197
C262	C	1.455718	-0.068233	-0.536197
C263	C	1.705718	0.181767	-0.286197
C264	C	1.955718	0.431767	-0.036197
H265	H	1.205715	-0.318121	-0.733713
H266	H	1.455715	-0.068121	-0.483713
H267	H	1.705715	0.181879	-0.233713
H268	H	1.955715	0.431879	0.016287
H269	H	1.239437	-0.281948	-0.803801
H270	H	1.489437	-0.031948	-0.553801
H271	H	1.739437	0.218052	-0.303801
H272	H	1.989437	0.468052	-0.053801
H273	H	1.220220	-0.365709	-0.803564
H274	H	1.470220	-0.115709	-0.553564
H275	H	1.720220	0.134291	-0.303564
H276	H	1.970220	0.384291	-0.053564
C277	C	0.640942	-0.318090	-0.221292
C278	C	0.890942	-0.068090	0.028708
C279	C	1.140942	0.181910	0.278708
C280	C	1.390942	0.431910	0.528708
H281	H	0.599826	-0.325247	-0.189437
H282	H	0.849826	-0.075247	0.060563
H283	H	1.099826	0.174753	0.310563
H284	H	1.349826	0.424753	0.560563
H285	H	0.670080	-0.278075	-0.203614
H286	H	0.920080	-0.028075	0.046386
H287	H	1.170080	0.221925	0.296386
H288	H	1.420080	0.471925	0.546386
H289	H	0.669962	-0.361916	-0.222406
H290	H	0.919962	-0.111916	0.027594
H291	H	1.169962	0.138084	0.277594
H292	H	1.419962	0.388084	0.527594
H293	H	1.103556	-0.903730	-0.481687
H294	H	1.353556	-0.653730	-0.231687
H295	H	1.603556	-0.403730	0.018313
H296	H	1.853556	-0.153730	0.268313
C297	C	0.500952	-0.458508	-0.257788
C298	C	0.750952	-0.208508	-0.007788
C299	C	1.000952	0.041492	0.242212
C300	C	1.250952	0.291492	0.492212
H301	H	0.542311	-0.467867	-0.226872
H302	H	0.792311	-0.217867	0.023128
H303	H	1.042311	0.032133	0.273128
H304	H	1.292311	0.282133	0.523128
H305	H	0.471713	-0.502061	-0.261470
H306	H	0.721713	-0.252061	-0.011470
H307	H	0.971713	-0.002061	0.238530
H308	H	1.221713	0.247939	0.488530
H309	H	0.472163	-0.419636	-0.237249
H310	H	0.722163	-0.169636	0.012751
H311	H	0.972163	0.080364	0.262751
H312	H	1.222163	0.330364	0.512751
H313	H	0.506406	-0.281892	-0.454739
H314	H	0.756406	-0.031892	-0.204739
H315	H	1.006406	0.218108	0.045261
H316	H	1.256406	0.468108	0.295261
C317	C	1.206150	-0.318255	-0.928032
C318	C	1.456150	-0.068255	-0.678032
C319	C	1.706150	0.181745	-0.428032
C320	C	1.956150	0.431745	-0.178032
H321	H	1.239994	-0.283115	-0.908513
H322	H	1.489994	-0.033115	-0.658513
H323	H	1.739994	0.216885	-0.408513
H324	H	1.989994	0.466885	-0.158513
H325	H	1.207033	-0.316054	-0.980459
H326	H	1.457033	-0.066054	-0.730459
H327	H	1.707033	0.183946	-0.480459
H328	H	1.957033	0.433946	-0.230459
H329	H	1.219806	-0.366557	-0.912288
H330	H	1.469806	-0.116557	-0.662288
H331	H	1.719806	0.133443	-0.412288
H332	H	1.969806	0.383443	-0.162288
C333	C	0.925519	-0.911614	-0.318046
C334	C	1.175519	-0.661614	-0.068046
C335	C	1.425519	-0.411614	0.181954
C336	C	1.675519	-0.161614	0.431954
H337	H	0.890394	-0.894731	-0.353209
H338	H	1.140394	-0.644731	-0.103209
H339	H	1.390394	-0.394731	0.146791
H340	H	1.640394	-0.144731	0.396791
H341	H	0.912352	-0.894017	-0.270379
H342	H	1.162352	-0.644017	-0.020379
H343	H	1.412352	-0.394017	0.229621
H344	H	1.662352	-0.144017	0.479621
H345	H	0.926216	-0.964239	-0.317764
H346	H	1.176216	-0.714239	-0.067764
H347	H	1.426216	-0.464239	0.182236
H348	H	1.676216	-0.214239	0.432236
C349	C	0.500618	-0.394676	-0.492676
C350	C	0.750618	-0.144676	-0.242676
C351	C	1.000618	0.105324	0.007324
C352	C	1.250618	0.355324	0.257324
H353	H	0.470074	-0.430313	-0.468986
H354	H	0.720074	-0.180313	-0.218986
H355	H	0.970074	0.069687	0.031014
H356	H	1.220074	0.319687	0.281014
H357	H	0.541803	-0.418831	-0.514517
H358	H	0.791803	-0.168831	-0.264517
H359	H	1.041803	0.081169	-0.014517
H360	H	1.291803	0.331169	0.235483
H361	H	0.473077	-0.369882	-0.529879
H362	H	0.723077	-0.119882	-0.279879
H363	H	0.973077	0.130118	-0.029879
H364	H	1.223077	0.380118	0.220121
C365	C	0.932795	-0.389809	-0.927805
C366	C	1.182795	-0.139809	-0.677805
C367	C	1.432795	0.110191	-0.427805
C368	C	1.682795	0.360191	-0.177805
H369	H	0.908396	-0.411830	-0.886826
H370	H	1.158396	-0.161830	-0.636826
H371	H	1.408396	0.088170	-0.386826
H372	H	1.658396	0.338170	-0.136826
H373	H	0.955162	-0.427361	-0.956963
H374	H	1.205162	-0.177361	-0.706963
H375	H	1.455162	0.072639	-0.456963
H376	H	1.705162	0.322639	-0.206963
H377	H	0.897922	-0.363423	-0.956876
H378	H	1.147922	-0.113423	-0.706876
H379	H	1.397922	0.136577	-0.456876
H380	H	1.647922	0.386577	-0.206876
H381	H	1.114403	-0.242052	-0.794098
H382	H	1.364403	0.007948	-0.544098
H383	H	1.614403	0.257948	-0.294098
H384	H	1.864403	0.507948	-0.044098
C385	C	1.110196	-0.222267	-0.929276
C386	C	1.360196	0.027733	-0.679276
C387	C	1.610196	0.277733	-0.429276
C388	C	1.860196	0.527733	-0.179276
H389	H	1.145170	-0.188061	-0.910101
H390	H	1.395170	0.061939	-0.660101
H391	H	1.645170	0.311939	-0.410101
H392	H	1.895170	0.561939	-0.160101
H393	H	1.061966	-0.208320	-0.913972
H394	H	1.311966	0.041680	-0.663972
H395	H	1.561966	0.291680	-0.413972
H396	H	1.811966	0.541680	-0.163972
H397	H	1.112644	-0.222160	-0.981702
H398	H	1.362644	0.027840	-0.731702
H399	H	1.612644	0.277840	-0.481702
H400	H	1.862644	0.527840	-0.231702
H401	H	0.635039	-0.375141	-0.479629
H402	H	0.885039	-0.125141	-0.229629
H403	H	1.135039	0.124859	0.020371
H404	H	1.385039	0.374859	0.270371
C405	C	1.176300	-0.911174	-0.250972
C406	C	1.426300	-0.661174	-0.000972
C407	C	1.676300	-0.411174	0.249028
C408	C	1.926300	-0.161174	0.499028
H409	H	1.212505	-0.940098	-0.275690
H410	H	1.462505	-0.690098	-0.025690
H411	H	1.712505	-0.440098	0.224310
H412	H	1.962505	-0.190098	0.474310
H413	H	1.151740	-0.940851	-0.215231
H414	H	1.401740	-0.690851	0.034769
H415	H	1.651740	-0.440851	0.284769
H416	H	1.901740	-0.190851	0.534769
H417	H	1.199560	-0.870509	-0.227133
H418	H	1.449560	-0.620509	0.022867
H419	H	1.699560	-0.370509	0.272867
H420	H	1.949560	-0.120509	0.522867
H421	H	0.507270	-0.480145	-0.374880
H422	H	0.757270	-0.230145	-0.124880
H423	H	1.007270	0.019855	0.125120
H424	H	1.257270	0.269855	0.375120
C425	C	0.641152	-0.495646	-0.389877
C426	C	0.891152	-0.245646	-0.139877
C427	C	1.141152	0.004354	0.110123
C428	C	1.391152	0.254354	0.360123
H429	H	0.671937	-0.473292	-0.426103
H430	H	0.921937	-0.223292	-0.176103
H431	H	1.171937	0.026708	0.073897
H432	H	1.421937	0.276708	0.323897
H433	H	0.600039	-0.518333	-0.413356
H434	H	0.850039	-0.268333	-0.163356
H435	H	1.100039	-0.018333	0.086644
H436	H	1.350039	0.231667	0.336644
H437	H	0.668472	-0.532075	-0.363649
H438	H	0.918472	-0.282075	-0.113649
H439	H	1.168472	-0.032075	0.136351
H440	H	1.418472	0.217925	0.386351
C441	C	1.165697	-0.462412	-0.929110
C442	C	1.415697	-0.212412	-0.679110
C443	C	1.665697	0.037588	-0.429110
C444	C	1.915697	0.287588	-0.179110
H445	H	1.176638	-0.509942	-0.909392
H446	H	1.426638	-0.259942	-0.659392
H447	H	1.676638	-0.009942	-0.409392
H448	H	1.926638	0.240058	-0.159392
H449	H	1.202833	-0.428254	-0.914456
H450	H	1.452833	-0.178254	-0.664456
H451	H	1.702833	0.071746	-0.414456
H452	H	1.952833	0.321746	-0.164456
H453	H	1.164217	-0.465174	-0.981497
H454	H	1.414217	-0.215174	-0.731497
H455	H	1.664217	0.034826	-0.481497
H456	H	1.914217	0.284826	-0.231497
H457	H	0.635050	-0.453209	-0.278915
H458	H	0.885050	-0.203209	-0.028915
H459	H	1.135050	0.046791	0.221085
H460	H	1.385050	0.296791	0.471085
H461	H	1.149288	-0.451912	-0.793967
H462	H	1.399288	-0.201912	-0.543967
H463	H	1.649288	0.048088	-0.293967
H464	H	1.899288	0.298088	-0.043967
H465	H	1.053070	-0.480769	-0.792853
H466	H	1.303070	-0.230769	-0.542853
H467	H	1.553070	0.019231	-0.292853
H468	H	1.803070	0.269231	-0.042853
C469	C	0.969072	-0.259667	-0.785233
C470	C	1.219072	-0.009667	-0.535233
C471	C	1.469072	0.240333	-0.285233
C472	C	1.719072	0.490333	-0.035233
H473	H	0.921784	-0.247288	-0.804340
H474	H	1.171784	0.002712	-0.554340
H475	H	1.421784	0.252712	-0.304340
H476	H	1.671784	0.502712	-0.054340
H477	H	1.004113	-0.223664	-0.800697
H478	H	1.254113	0.026336	-0.550697
H479	H	1.504113	0.276336	-0.300697
H480	H	1.754113	0.526336	-0.050697
H481	H	0.967010	-0.260697	-0.732800
H482	H	1.217010	-0.010697	-0.482800
H483	H	1.467010	0.239303	-0.232800
H484	H	1.717010	0.489303	0.017200
H485	H	1.036769	-0.811246	-0.232168
H486	H	1.286769	-0.561246	0.017832
H487	H	1.536769	-0.311246	0.267832
H488	H	1.786769	-0.061246	0.517832
H489	H	0.948278	-0.376795	-0.793803
H490	H	1.198278	-0.126795	-0.543803
H491	H	1.448278	0.123205	-0.293803
H492	H	1.698278	0.373205	-0.043803
C493	C	0.641111	-0.258434	-0.456649
C494	C	0.891111	-0.008434	-0.206649
C495	C	1.141111	0.241566	0.043351
C496	C	1.391111	0.491566	0.293351
H497	H	0.671425	-0.239210	-0.418349
H498	H	0.921425	0.010790	-0.168349
H499	H	1.171425	0.260790	0.081651
H500	H	1.421425	0.510790	0.331651
H501	H	0.599963	-0.226615	-0.463930
H502	H	0.849963	0.023385	-0.213930
H503	H	1.099963	0.273385	0.036070
H504	H	1.349963	0.523385	0.286070
H505	H	0.668915	-0.261503	-0.501065
H506	H	0.918915	-0.011503	-0.251065
H507	H	1.168915	0.238497	-0.001065
H508	H	1.418915	0.488497	0.248935
H509	H	0.507114	-0.241988	-0.313227
H510	H	0.757114	0.008012	-0.063227
H511	H	1.007114	0.258012	0.186773
H512	H	1.257114	0.508012	0.436773
H513	H	1.194851	-0.810893	-0.390500
H514	H	1.444851	-0.560893	-0.140500
H515	H	1.694851	-0.310893	0.109500
H516	H	1.944851	-0.060893	0.359500
C517	C	1.033636	-0.493836	-0.927265
C518	C	1.283636	-0.243836	-0.677265
C519	C	1.533636	0.006164	-0.427265
C520	C	1.783636	0.256164	-0.177265
H521	H	1.045933	-0.541216	-0.907996
H522	H	1.295933	-0.291216	-0.657996
H523	H	1.545933	-0.041216	-0.407996
H524	H	1.795933	0.208784	-0.157996
H525	H	1.034467	-0.495557	-0.979708
H526	H	1.284467	-0.245557	-0.729708
H527	H	1.534467	0.004443	-0.479708
H528	H	1.784467	0.254443	-0.229708
H529	H	0.985632	-0.480246	-0.910949
H530	H	1.235632	-0.230246	-0.660949
H531	H	1.485632	0.019754	-0.410949
H532	H	1.735632	0.269754	-0.160949
C533	C	0.641729	-0.221961	-0.317803
C534	C	0.891729	0.028039	-0.067803
C535	C	1.141729	0.278039	0.182197
C536	C	1.391729	0.528039	0.432197
H537	H	0.600933	-0.189740	-0.325341
H538	H	0.850933	0.060260	-0.075341
H539	H	1.100933	0.310260	0.174659
H540	H	1.350933	0.560260	0.424659
H541	H	0.671011	-0.223565	-0.361334
H542	H	0.921011	0.026435	-0.111334
H543	H	1.171011	0.276435	0.138666
H544	H	1.421011	0.526435	0.388666
H545	H	0.670768	-0.204218	-0.277843
H546	H	0.920768	0.045782	-0.027843
H547	H	1.170768	0.295782	0.222157
H548	H	1.420768	0.545782	0.472157
