data_functionalizedCrystal
_audit_creation_method	'MofGen! by Chris Wilmer'
_symmetry_space_group_name_H-M	'P1'
_symmetry_Int_Tables_number	1
_symmetry_cell_setting	triclinic
loop_
_symmetry_equiv_pos_as_xyz
  x,y,z
_cell_length_a	19.805407
_cell_length_b	25.639239
_cell_length_c	19.805399
_cell_angle_alpha	89.971274
_cell_angle_beta	89.980427
_cell_angle_gamma	90.038686
loop_
_atom_site_label
_atom_site_type_symbol
_atom_site_fract_x
_atom_site_fract_y
_atom_site_fract_z
Zn1	Zn	1.034678	-0.208163	-0.382714
Zn2	Zn	1.034569	-0.295597	-0.269524
Zn3	Zn	0.921493	-0.208177	-0.269539
Zn4	Zn	0.921432	-0.295569	-0.382670
O5	O	0.978043	-0.251877	-0.326112
O6	O	1.129380	-0.219767	-0.367711
O7	O	1.019548	-0.284018	-0.174809
O8	O	0.936578	-0.135010	-0.284576
O9	O	1.129300	-0.284004	-0.284551
O10	O	1.019735	-0.135000	-0.367726
O11	O	0.936472	-0.219791	-0.174820
O12	O	0.826768	-0.219764	-0.284534
O13	O	0.936475	-0.283957	-0.477393
O14	O	0.826723	-0.283971	-0.367651
O15	O	1.019676	-0.219740	-0.477425
O16	O	1.019489	-0.368758	-0.284508
O17	O	0.936368	-0.368738	-0.367637
C18	C	0.802187	-0.251867	-0.326090
C19	C	0.726955	-0.251875	-0.326097
C20	C	0.691605	-0.285357	-0.369306
C21	C	0.620917	-0.285358	-0.369315
C22	C	0.585579	-0.251879	-0.326112
C23	C	0.620934	-0.218393	-0.282901
C24	C	0.691621	-0.218390	-0.282895
C25	C	0.335860	-0.218404	-0.282923
C26	C	0.265168	-0.218411	-0.282931
C27	C	0.265156	-0.285373	-0.369343
C28	C	0.335843	-0.285370	-0.369338
C29	C	0.371192	-0.251882	-0.326129
C30	C	0.447840	-0.251881	-0.326121
C31	C	0.508932	-0.251883	-0.326117
C32	C	0.977929	-0.387719	-0.326081
C33	C	0.977942	-0.445833	-0.326090
C34	C	1.021437	-0.806194	-0.282901
C35	C	1.021463	-0.860799	-0.282910
O36	O	1.058326	-0.889034	-0.246154
N37	N	0.978162	-0.888116	-0.326157
C38	C	0.934836	-0.860825	-0.369402
O39	O	0.898008	-0.889075	-0.406189
C40	C	0.934814	-0.806222	-0.369396
C41	C	0.978113	-0.778908	-0.326141
C42	C	1.064733	-0.778880	-0.239650
C43	C	1.064706	-0.724279	-0.239640
C44	C	1.021382	-0.696993	-0.282881
C45	C	0.978086	-0.724307	-0.326132
C46	C	0.891492	-0.778933	-0.412645
C47	C	0.891474	-0.724326	-0.412635
C48	C	0.934773	-0.697012	-0.369381
C49	C	0.934735	-0.642421	-0.369363
N50	N	0.978036	-0.615104	-0.326116
C51	C	1.021360	-0.642390	-0.282875
C52	C	0.934887	-0.975496	-0.369413
C53	C	0.934906	-1.030098	-0.369416
C54	C	1.021533	-1.030068	-0.282924
C55	C	1.021511	-0.975464	-0.282918
C56	C	0.978188	-0.948179	-0.326166
C57	C	1.021299	-0.527725	-0.282857
C58	C	1.021266	-0.473119	-0.282849
C59	C	0.934641	-0.473155	-0.369343
C60	C	0.934671	-0.527756	-0.369349
C61	C	0.978006	-0.555039	-0.326104
O62	O	0.897893	-0.614151	-0.406101
O63	O	1.058188	-0.614134	-0.246101
C64	C	1.154585	-0.251887	-0.326134
C65	C	1.229817	-0.251891	-0.326144
C66	C	0.978081	-0.251844	-0.502655
C67	C	0.978097	-0.251830	-0.577887
C68	C	0.978175	-0.115504	-0.326158
C69	C	0.978232	-0.057389	-0.326177
C70	C	1.021421	-0.218390	-0.613249
C71	C	1.021428	-0.218375	-0.683937
C72	C	0.978114	-0.251802	-0.719262
C73	C	0.934785	-0.285243	-0.683895
C74	C	0.934775	-0.285255	-0.613208
C75	C	0.934823	-0.285194	-0.968969
C76	C	0.934838	-0.285181	-1.039661
C77	C	1.021476	-0.218314	-1.039698
C78	C	1.021466	-0.218326	-0.969011
C79	C	0.978135	-0.251765	-0.933650
C80	C	0.978127	-0.251780	-0.857001
C81	C	0.978125	-0.251790	-0.795909
C82	C	0.978044	-0.251872	-0.150256
C83	C	0.978159	-0.251738	-0.075024
H84	H	1.056587	-0.549933	-0.247644
H85	H	1.056694	-0.191171	-0.584492
H86	H	0.720372	-0.312622	-0.404485
O87	O	0.586500	-0.317910	-0.411190
C88	C	0.506665	-0.388531	-0.420122
C89	C	0.545589	-0.351690	-0.372622
H90	H	0.473590	-0.415859	-0.388959
H91	H	0.473560	-0.364594	-0.455564
H92	H	0.544073	-0.412440	-0.451014
H93	H	0.508230	-0.327774	-0.341687
H94	H	0.578704	-0.375657	-0.337225
O95	O	0.230713	-0.317851	-0.411301
C96	C	0.121811	-0.347559	-0.449586
C97	C	0.160731	-0.310743	-0.402050
H98	H	0.065224	-0.341832	-0.442112
H99	H	0.135693	-0.338433	-0.504198
H100	H	0.135712	-0.389699	-0.437603
H101	H	0.146851	-0.268590	-0.413971
H102	H	0.146846	-0.319913	-0.347451
H103	H	1.056812	-1.052294	-0.247717
O104	O	0.892789	-0.317766	-0.578777
C105	C	0.883614	-0.388385	-0.498965
C106	C	0.931240	-0.351594	-0.537906
H107	H	0.914683	-0.415752	-0.465923
H108	H	0.848254	-0.364412	-0.465827
H109	H	0.852641	-0.412254	-0.536362
H110	H	0.962257	-0.327717	-0.500558
H111	H	0.966556	-0.375597	-0.571054
H112	H	0.899515	-0.312458	-0.712663
O113	O	0.849485	-0.697797	-0.454718
C114	C	0.840297	-0.636090	-0.546058
C115	C	0.887926	-0.666109	-0.498455
H116	H	0.871357	-0.610454	-0.581421
H117	H	0.809369	-0.664970	-0.577021
H118	H	0.804896	-0.610593	-0.514934
H119	H	0.923368	-0.691607	-0.529526
H120	H	0.918807	-0.637200	-0.467489
H121	H	1.100016	-0.801091	-0.204438
H122	H	0.364612	-0.312634	-0.404516
H123	H	0.899550	-0.312430	-0.940187
O124	O	1.063579	-0.185877	-0.718183
C125	C	1.149492	-0.119536	-0.710760
C126	C	1.101800	-0.156324	-0.671893
H127	H	1.180396	-0.095625	-0.673352
H128	H	1.184908	-0.143514	-0.743835
H129	H	1.118441	-0.092209	-0.743874
H130	H	1.132797	-0.183658	-0.638742
H131	H	1.066383	-0.132314	-0.638861
O132	O	1.063466	-0.185770	-1.074078
C133	C	1.072658	-0.115183	-1.153937
C134	C	1.025027	-0.151995	-1.115034
H135	H	1.041599	-0.087874	-1.187070
H136	H	1.103603	-0.091258	-1.116576
H137	H	1.108043	-0.139194	-1.187001
H138	H	0.989600	-0.128025	-1.081969
H139	H	0.994129	-0.175922	-1.152432
O140	O	0.230945	-0.185835	-0.240942
C141	C	0.238412	-0.119431	-0.155207
C142	C	0.277254	-0.156284	-0.202733
H143	H	0.275836	-0.095537	-0.124292
H144	H	0.205370	-0.092095	-0.186321
H145	H	0.205267	-0.143409	-0.119789
H146	H	0.310436	-0.132348	-0.238160
H147	H	0.310254	-0.183622	-0.171576
O148	O	0.370263	-0.185950	-0.240913
C149	C	0.449996	-0.178816	-0.149505
C150	C	0.411088	-0.215630	-0.197053
H151	H	0.483002	-0.202797	-0.114023
H152	H	0.483169	-0.151511	-0.180600
H153	H	0.412579	-0.154881	-0.118660
H154	H	0.448457	-0.239598	-0.227908
H155	H	0.377905	-0.242900	-0.165919
O156	O	1.063562	-0.185805	-0.934801
C157	C	1.149524	-0.119498	-0.942300
C158	C	1.101876	-0.156294	-0.981124
H159	H	1.180523	-0.095636	-0.979735
H160	H	1.118502	-0.092129	-0.909229
H161	H	1.184859	-0.143518	-0.909185
H162	H	1.066532	-0.132316	-1.014276
H163	H	1.132940	-0.183665	-1.014153
H164	H	0.592156	-0.191131	-0.247727
H165	H	0.899563	-0.312402	-1.068421
O166	O	0.726038	-0.185939	-0.240887
C167	C	0.805785	-0.178811	-0.149490
C168	C	0.766863	-0.215622	-0.197031
H169	H	0.838791	-0.202796	-0.114011
H170	H	0.838959	-0.151512	-0.180591
H171	H	0.768377	-0.154871	-0.118641
H172	H	0.804223	-0.239596	-0.227890
H173	H	0.733679	-0.242887	-0.165891
O174	O	1.063394	-0.446668	-0.240809
C175	C	1.149289	-0.452410	-0.154993
C176	C	1.101627	-0.482429	-0.202577
H177	H	1.180203	-0.481310	-0.124059
H178	H	1.184696	-0.426816	-0.186062
H179	H	1.118213	-0.426875	-0.119595
H180	H	1.132648	-0.507992	-0.237984
H181	H	1.066218	-0.507990	-0.171465
H182	H	1.099966	-0.702043	-0.204421
O183	O	0.892760	-0.948936	-0.411326
C184	C	0.801308	-0.887388	-0.420339
C185	C	0.848982	-0.917421	-0.372797
H186	H	0.765892	-0.861909	-0.389207
H187	H	0.832307	-0.861748	-0.455752
H188	H	0.770397	-0.916306	-0.451261
H189	H	0.879903	-0.888541	-0.341832
H190	H	0.817944	-0.943069	-0.337430
O191	O	1.063638	-0.949014	-0.240882
C192	C	1.149529	-0.954762	-0.155061
C193	C	1.101864	-0.984778	-0.202646
H194	H	1.180437	-0.983664	-0.124125
H195	H	1.184941	-0.929172	-0.186131
H196	H	1.118455	-0.929223	-0.119666
H197	H	1.132883	-1.010345	-0.238051
H198	H	1.066449	-1.010334	-0.171534
O199	O	0.892587	-0.554211	-0.411427
C200	C	0.806640	-0.548472	-0.497192
C201	C	0.854269	-0.518452	-0.449577
H202	H	0.775637	-0.519574	-0.528038
H203	H	0.837678	-0.573974	-0.532664
H204	H	0.771309	-0.574099	-0.466083
H205	H	0.889610	-0.492797	-0.480631
H206	H	0.823189	-0.492983	-0.414102
O207	O	0.892818	-1.056547	-0.411492
C208	C	0.806865	-1.050800	-0.497250
C209	C	0.854504	-1.020784	-0.449640
H210	H	0.775865	-1.021898	-0.528095
H211	H	0.837895	-1.076306	-0.532724
H212	H	0.771531	-1.076422	-0.466138
H213	H	0.889847	-0.995134	-0.480697
H214	H	0.823431	-0.995311	-0.414164
H215	H	0.856230	-0.801163	-0.447864
H216	H	0.899365	-0.450930	-0.404548
