data_functionalizedCrystal
_audit_creation_method	'MofGen! by Chris Wilmer'
_symmetry_space_group_name_H-M	'P1'
_symmetry_Int_Tables_number	1
_symmetry_cell_setting	triclinic
loop_
_symmetry_equiv_pos_as_xyz
  x,y,z
_cell_length_a	25.639242
_cell_length_b	25.639239
_cell_length_c	25.639233
_cell_angle_alpha	89.981253
_cell_angle_beta	89.977834
_cell_angle_gamma	90.034213
loop_
_atom_site_label
_atom_site_type_symbol
_atom_site_fract_x
_atom_site_fract_y
_atom_site_fract_z
Zn1	Zn	0.799225	-0.208277	-0.295742
Zn2	Zn	1.299225	0.291723	0.204258
Zn3	Zn	0.799149	-0.295696	-0.208307
Zn4	Zn	1.299149	0.204304	0.291693
Zn5	Zn	0.711801	-0.208269	-0.208306
Zn6	Zn	1.211801	0.291731	0.291694
Zn7	Zn	0.711746	-0.295676	-0.295696
Zn8	Zn	1.211746	0.204324	0.204304
O9	O	0.755480	-0.251979	-0.252013
O10	O	1.255480	0.248021	0.247987
O11	O	0.872380	-0.219884	-0.284163
O12	O	1.372380	0.280116	0.215837
O13	O	0.787553	-0.284103	-0.135141
O14	O	1.287553	0.215897	0.364859
O15	O	0.723453	-0.135105	-0.219924
O16	O	1.223453	0.364895	0.280076
O17	O	0.872324	-0.284111	-0.219924
O18	O	1.372324	0.215889	0.280076
O19	O	0.787683	-0.135111	-0.284163
O20	O	1.287683	0.364889	0.215837
O21	O	0.723379	-0.219871	-0.135141
O22	O	1.223379	0.280129	0.364859
O23	O	0.638629	-0.219853	-0.219880
O24	O	1.138629	0.280147	0.280120
O25	O	0.723360	-0.284078	-0.368868
O26	O	1.223360	0.215922	0.131132
O27	O	0.638589	-0.284070	-0.284085
O28	O	1.138589	0.215930	0.215915
O29	O	0.787630	-0.219866	-0.368901
O30	O	1.287630	0.280134	0.131099
O31	O	0.787499	-0.368858	-0.219880
O32	O	1.287499	0.131142	0.280120
O33	O	0.723286	-0.368844	-0.284085
O34	O	1.223286	0.131156	0.215915
C35	C	0.619638	-0.251959	-0.251977
C36	C	1.119638	0.248041	0.248023
C37	C	0.561524	-0.251963	-0.251975
C38	C	1.061524	0.248037	0.248025
C39	C	0.755392	-0.387822	-0.251989
C40	C	1.255392	0.112178	0.248011
C41	C	0.755403	-0.445936	-0.251996
C42	C	1.255403	0.054064	0.248004
C43	C	0.201149	-0.285473	-0.285413
C44	C	0.701149	0.214527	0.214587
C45	C	0.146544	-0.285477	-0.285421
C46	C	0.646544	0.214523	0.214579
O47	O	0.118297	-0.313943	-0.313821
O48	O	0.618297	0.186057	0.186179
N49	N	0.119241	-0.251994	-0.252047
N50	N	0.619241	0.248006	0.247953
C51	C	0.146545	-0.218502	-0.218666
C52	C	0.646545	0.281498	0.281334
O53	O	0.118308	-0.190022	-0.190280
O54	O	0.618308	0.309978	0.309720
C55	C	0.201149	-0.218496	-0.218661
C56	C	0.701149	0.281504	0.281339
C57	C	0.228449	-0.251985	-0.252034
C58	C	0.728449	0.248015	0.247966
C59	C	0.228449	-0.318959	-0.318783
C60	C	0.728449	0.181041	0.181217
C61	C	0.283049	-0.318956	-0.318774
C62	C	0.783049	0.181044	0.181226
C63	C	0.310350	-0.285468	-0.285395
C64	C	0.810350	0.214532	0.214605
C65	C	0.283049	-0.251983	-0.252024
C66	C	0.783049	0.248017	0.247976
C67	C	0.228452	-0.185002	-0.185283
C68	C	0.728452	0.314998	0.314717
C69	C	0.283059	-0.185000	-0.185281
C70	C	0.783059	0.315000	0.314719
C71	C	0.310359	-0.218488	-0.218654
C72	C	0.810359	0.281512	0.281346
C73	C	0.364950	-0.218492	-0.218636
C74	C	0.864950	0.281508	0.281364
N75	N	0.392253	-0.251974	-0.252010
N76	N	0.892253	0.248026	0.247990
C77	C	0.364953	-0.285463	-0.285389
C78	C	0.864953	0.214537	0.214611
C79	C	0.031875	-0.218515	-0.218680
C80	C	0.531875	0.281485	0.281320
C81	C	-0.022728	-0.218523	-0.218683
C82	C	0.477272	0.281477	0.281317
C83	C	-0.022725	-0.285497	-0.285438
C84	C	0.477275	0.214503	0.214562
C85	C	0.031878	-0.285492	-0.285433
C86	C	0.531878	0.214508	0.214567
C87	C	0.059178	-0.251998	-0.252054
C88	C	0.559178	0.248002	0.247946
C89	C	0.479618	-0.285455	-0.285368
C90	C	0.979618	0.214545	0.214632
C91	C	0.534223	-0.285451	-0.285354
C92	C	1.034223	0.214549	0.214646
C93	C	0.534216	-0.218475	-0.218601
C94	C	1.034216	0.281525	0.281399
C95	C	0.479615	-0.218481	-0.218612
C96	C	0.979615	0.281519	0.281388
C97	C	0.452318	-0.251972	-0.252000
C98	C	0.952318	0.248028	0.248000
O99	O	0.393232	-0.190038	-0.190252
O100	O	0.893232	0.309962	0.309748
O101	O	0.393197	-0.313933	-0.313776
O102	O	0.893197	0.186067	0.186224
C103	C	0.789004	-0.806294	-0.218638
C104	C	1.289004	-0.306294	0.281362
C105	C	0.789024	-0.860898	-0.218645
C106	C	1.289024	-0.360898	0.281355
O107	O	0.817502	-0.889131	-0.190257
O108	O	1.317502	-0.389131	0.309743
N109	N	0.755572	-0.888218	-0.252048
N110	N	1.255572	-0.388218	0.247952
C111	C	0.722102	-0.860932	-0.285449
C112	C	1.222102	-0.360932	0.214551
O113	O	0.693651	-0.889184	-0.313861
O114	O	1.193651	-0.389184	0.186139
C115	C	0.722085	-0.806328	-0.285444
C116	C	1.222085	-0.306328	0.214556
C117	C	0.755535	-0.779011	-0.252036
C118	C	1.255535	-0.279011	0.247964
C119	C	0.822452	-0.778976	-0.185233
C120	C	1.322452	-0.278976	0.314767
C121	C	0.822431	-0.724376	-0.185226
C122	C	1.322431	-0.224376	0.314774
C123	C	0.788962	-0.697093	-0.218623
C124	C	1.288962	-0.197093	0.281377
C125	C	0.755514	-0.724410	-0.252028
C126	C	1.255514	-0.224410	0.247972
C127	C	0.688617	-0.779042	-0.318847
C128	C	1.188617	-0.279042	0.181153
C129	C	0.688603	-0.724435	-0.318840
C130	C	1.188603	-0.224435	0.181160
C131	C	0.722053	-0.697118	-0.285432
C132	C	1.222053	-0.197118	0.214568
C133	C	0.722024	-0.642527	-0.285418
C134	C	1.222024	-0.142527	0.214582
N135	N	0.755475	-0.615206	-0.252016
N136	N	1.255475	-0.115206	0.247984
C137	C	0.788944	-0.642490	-0.218618
C138	C	1.288944	-0.142490	0.281382
C139	C	0.722141	-0.975602	-0.285457
C140	C	1.222141	-0.475602	0.214543
C141	C	0.722155	-1.030204	-0.285459
C142	C	1.222155	-0.530204	0.214541
C143	C	0.789078	-1.030167	-0.218656
C144	C	1.289078	-0.530167	0.281344
C145	C	0.789061	-0.975564	-0.218652
C146	C	1.289061	-0.475564	0.281348
C147	C	0.755593	-0.948282	-0.252055
C148	C	1.255593	-0.448282	0.247945
C149	C	0.788897	-0.527824	-0.218605
C150	C	1.288897	-0.027824	0.281395
C151	C	0.788872	-0.473219	-0.218599
C152	C	1.288872	0.026781	0.281401
C153	C	0.721951	-0.473261	-0.285403
C154	C	1.221951	0.026739	0.214597
C155	C	0.721974	-0.527862	-0.285408
C156	C	1.221974	-0.027862	0.214592
C157	C	0.755452	-0.555142	-0.252007
C158	C	1.255452	-0.055142	0.247993
O159	O	0.693562	-0.614260	-0.313793
O160	O	1.193562	-0.114260	0.186207
O161	O	0.817396	-0.614231	-0.190216
O162	O	1.317396	-0.114231	0.309784
C163	C	0.891853	-0.252000	-0.252049
C164	C	1.391853	0.248000	0.247951
C165	C	0.949967	-0.252009	-0.252064
C166	C	1.449967	0.247991	0.247936
C167	C	0.755497	-0.251970	-0.388386
C168	C	1.255497	0.248030	0.111614
C169	C	0.755504	-0.251966	-0.446500
C170	C	1.255504	0.248034	0.053500
C171	C	0.755583	-0.115606	-0.252048
C172	C	1.255583	0.384394	0.247952
C173	C	0.755627	-0.057492	-0.252064
C174	C	1.255627	0.442508	0.247936
C175	C	0.789012	-0.218432	-0.806886
C176	C	1.289012	0.281568	-0.306886
C177	C	0.789019	-0.218417	-0.861491
C178	C	1.289019	0.281583	-0.361491
O179	O	0.817466	-0.189967	-0.889747
O180	O	1.317466	0.310033	-0.389747
N181	N	0.755562	-0.251844	-0.888783
N182	N	1.255562	0.248156	-0.388783
C183	C	0.722093	-0.285283	-0.861468
C184	C	1.222093	0.214717	-0.361468
O185	O	0.693636	-0.313713	-0.889695
O186	O	1.193636	0.186287	-0.389695
C187	C	0.722084	-0.285294	-0.806864
C188	C	1.222084	0.214706	-0.306864
C189	C	0.755547	-0.251870	-0.779575
C190	C	1.255547	0.248130	-0.279575
C191	C	0.822472	-0.185009	-0.779597
C192	C	1.322472	0.314991	-0.279597
C193	C	0.822466	-0.185025	-0.724997
C194	C	1.322466	0.314975	-0.224997
C195	C	0.789000	-0.218462	-0.697685
C196	C	1.289000	0.281538	-0.197685
C197	C	0.755541	-0.251885	-0.724974
C198	C	1.255541	0.248115	-0.224974
C199	C	0.688613	-0.318731	-0.779550
C200	C	1.188613	0.181269	-0.279550
C201	C	0.688607	-0.318739	-0.724943
C202	C	1.188607	0.181261	-0.224943
C203	C	0.722069	-0.285314	-0.697654
C204	C	1.222069	0.214686	-0.197654
C205	C	0.722070	-0.285338	-0.643063
C206	C	1.222070	0.214662	-0.143063
N207	N	0.755526	-0.251912	-0.615771
N208	N	1.255526	0.248088	-0.115771
C209	C	0.788992	-0.218474	-0.643082
C210	C	1.288992	0.281526	-0.143082
C211	C	0.722113	-0.285256	-0.976138
C212	C	1.222113	0.214744	-0.476138
C213	C	0.722124	-0.285247	-1.030741
C214	C	1.222124	0.214753	-0.530741
C215	C	0.789049	-0.218381	-1.030760
C216	C	1.289049	0.281619	-0.530760
C217	C	0.789041	-0.218392	-0.976157
C218	C	1.289041	0.281608	-0.476157
C219	C	0.755570	-0.251829	-0.948846
C220	C	1.255570	0.248171	-0.448846
C221	C	0.788977	-0.218509	-0.528417
C222	C	1.288977	0.281491	-0.028417
C223	C	0.788970	-0.218529	-0.473811
C224	C	1.288970	0.281471	0.026189
C225	C	0.722043	-0.285393	-0.473797
C226	C	1.222043	0.214607	0.026203
C227	C	0.722052	-0.285375	-0.528397
C228	C	1.222052	0.214625	-0.028397
C229	C	0.755521	-0.251929	-0.555706
C230	C	1.255521	0.248071	-0.055706
O231	O	0.693635	-0.313773	-0.614771
O232	O	1.193635	0.186227	-0.114771
O233	O	0.817439	-0.190044	-0.614847
O234	O	1.317439	0.309956	-0.114847
C235	C	0.755494	-0.251951	-0.116170
C236	C	1.255494	0.248049	0.383830
C237	C	0.755588	-0.251807	-0.058057
C238	C	1.255588	0.248193	0.441943
H239	H	0.556449	-0.312723	-0.312530
H240	H	1.056449	0.187277	0.187470
C241	C	0.198427	-0.355808	-0.355501
C242	C	0.698427	0.144192	0.144499
N243	N	0.175818	-0.383569	-0.383154
N244	N	0.675818	0.116431	0.116846
H245	H	0.694881	-0.312471	-1.052955
H246	H	1.194881	0.187529	-0.552955
C247	C	0.825860	-0.945520	-0.181902
C248	C	1.325860	-0.445520	0.318098
N249	N	0.853580	-0.922894	-0.154222
N250	N	1.353580	-0.422894	0.345778
C251	C	0.825848	-0.181619	-0.946144
C252	C	1.325848	0.318381	-0.446144
N253	N	0.853571	-0.153918	-0.923541
N254	N	1.353571	0.346082	-0.423541
H255	H	-0.044951	-0.191258	-0.191502
H256	H	0.455049	0.308742	0.308498
C257	C	0.825798	-0.181719	-0.558448
C258	C	1.325798	0.318281	-0.058448
N259	N	0.853534	-0.154012	-0.581068
N260	N	1.353534	0.345988	-0.081068
C261	C	0.651784	-0.694428	-0.355587
C262	C	1.151784	-0.194428	0.144413
N263	N	0.624052	-0.671828	-0.383264
N264	N	1.124052	-0.171828	0.116736
C265	C	0.313072	-0.355794	-0.355489
C266	C	0.813072	0.144206	0.144511
N267	N	0.335682	-0.383542	-0.383146
N268	N	0.835682	0.116458	0.116854
H269	H	0.816298	-0.191153	-1.053007
H270	H	1.316298	0.308847	-0.553007
C271	C	0.859271	-0.808979	-0.148487
C272	C	1.359271	-0.308979	0.351513
N273	N	0.887002	-0.831574	-0.120804
N274	N	1.387002	-0.331574	0.379196
C275	C	0.564257	-0.181634	-0.181891
C276	C	1.064257	0.318366	0.318109
N277	N	0.586885	-0.153880	-0.154246
N278	N	1.086885	0.346120	0.345754
H279	H	0.849714	-0.157806	-0.702783
H280	H	1.349714	0.342194	-0.202783
C281	C	0.859292	-0.148224	-0.809631
C282	C	1.359292	0.351776	-0.309631
N283	N	0.887030	-0.120517	-0.832249
N284	N	1.387030	0.379483	-0.332249
C285	C	0.651796	-0.355497	-0.809556
C286	C	1.151796	0.144503	-0.309556
N287	N	0.624062	-0.383190	-0.832155
N288	N	1.124062	0.116810	-0.332155
C289	C	0.685295	-0.322047	-0.946102
C290	C	1.185295	0.177953	-0.446102
N291	N	0.657564	-0.349757	-0.923481
N292	N	1.157564	0.150243	-0.423481
H293	H	0.816111	-0.450979	-0.191392
H294	H	1.316111	0.049021	0.308608
C295	C	0.685139	-0.443239	-0.322141
C296	C	1.185139	0.056761	0.177859
N297	N	0.657415	-0.420625	-0.349815
N298	N	1.157415	0.079375	0.150185
C299	C	0.651787	-0.355525	-0.694905
C300	C	1.151787	0.144475	-0.194905
N301	N	0.624055	-0.383233	-0.672281
N302	N	1.124055	0.116767	-0.172281
H303	H	0.694809	-0.312597	-0.550617
H304	H	1.194809	0.187403	-0.050617
C305	C	0.685230	-0.322170	-0.443744
C306	C	1.185230	0.177830	0.056256
N307	N	0.657499	-0.349867	-0.421106
N308	N	1.157499	0.150133	0.078894
C309	C	0.825899	-1.060189	-0.181922
C310	C	1.325899	-0.560189	0.318078
N311	N	0.853632	-1.082803	-0.154257
N312	N	1.353632	-0.582803	0.345743
C313	C	0.825721	-0.557825	-0.181859
C314	C	1.325721	-0.057825	0.318141
N315	N	0.853454	-0.580421	-0.154179
N316	N	1.353454	-0.080421	0.345821
C317	C	0.651820	-0.809079	-0.355601
C318	C	1.151820	-0.309079	0.144399
N319	N	0.624103	-0.831702	-0.383287
N320	N	1.124103	-0.331702	0.116713
C321	C	0.685352	-1.060248	-0.322206
C322	C	1.185352	-0.560248	0.177794
N323	N	0.657633	-1.082874	-0.349887
N324	N	1.157633	-0.582874	0.150113
H325	H	0.054103	-0.312760	-0.312609
H326	H	0.554103	0.187240	0.187391
C327	C	0.449599	-0.322301	-0.322092
C328	C	0.949599	0.177699	0.177908
N329	N	0.426988	-0.350057	-0.349750
N330	N	0.926988	0.149943	0.150250
C331	C	0.859225	-0.694334	-0.148470
C332	C	1.359225	-0.194334	0.351530
N333	N	0.886939	-0.671710	-0.120781
N334	N	1.386939	-0.171710	0.379219
C335	C	0.685323	-0.945597	-0.322207
C336	C	1.185323	-0.445597	0.177793
N337	N	0.657595	-0.922999	-0.349890
N338	N	1.157595	-0.422999	0.150110
H339	H	-0.044963	-0.312763	-0.312619
H340	H	0.455037	0.187237	0.187381
H341	H	0.054099	-0.191241	-0.191496
H342	H	0.554099	0.308759	0.308504
H343	H	0.206233	-0.157734	-0.158106
H344	H	0.706233	0.342266	0.341894
H345	H	0.305283	-0.157721	-0.158103
H346	H	0.805283	0.342279	0.341897
C347	C	0.685176	-0.557912	-0.322156
C348	C	1.185176	-0.057912	0.177844
N349	N	0.657462	-0.580542	-0.349840
N350	N	1.157462	-0.080542	0.150160
H351	H	0.816221	-0.191310	-0.451595
H352	H	1.316221	0.308690	0.048405
H353	H	0.457387	-0.191213	-0.191436
H354	H	0.957387	0.308787	0.308564
