data_functionalizedCrystal
_audit_creation_method	'MofGen! by Chris Wilmer'
_symmetry_space_group_name_H-M	'P1'
_symmetry_Int_Tables_number	1
_symmetry_cell_setting	triclinic
loop_
_symmetry_equiv_pos_as_xyz
  x,y,z
_cell_length_a	30.700809
_cell_length_b	30.711276
_cell_length_c	30.700862
_cell_angle_alpha	59.998386
_cell_angle_beta	89.999414
_cell_angle_gamma	60.000191
loop_
_atom_site_label
_atom_site_type_symbol
_atom_site_fract_x
_atom_site_fract_y
_atom_site_fract_z
O1	O	-0.371254	-0.311651	0.012944
O2	O	-0.307913	-0.222487	-0.012907
O3	O	-0.307911	-0.311650	0.076286
O4	O	-0.371257	-0.222488	-0.076249
O5	O	-0.235466	-0.384070	0.076286
O6	O	-0.235468	-0.294907	-0.012907
O7	O	-0.298809	-0.384071	0.012944
Zn8	Zn	-0.255636	-0.350987	0.000018
Zn9	Zn	-0.351086	-0.255571	0.000019
O10	O	-0.298812	-0.294908	-0.076249
C11	C	-0.234796	-0.137097	-0.018777
C12	C	-0.261674	-0.083360	-0.015076
C13	C	-0.182374	-0.163176	-0.019143
C14	C	-0.234798	-0.215942	-0.018783
C15	C	-0.261678	-0.246507	-0.015089
C16	C	-0.182376	-0.241901	-0.019150
C17	C	-0.155920	-0.215947	-0.018777
C18	C	-0.098463	-0.246515	-0.015075
C19	C	-0.261132	-0.163172	-0.019150
C20	C	-0.574961	-0.535511	0.039265
C21	C	-0.548506	-0.588283	0.039634
C22	C	-0.496086	-0.535509	0.039262
C23	C	-0.469751	-0.588281	0.039632
C24	C	-0.496085	-0.614360	0.039265
C25	C	-0.548507	-0.509552	0.039632
C26	C	-0.765169	-0.393516	0.024987
C27	C	-0.819034	-0.364488	0.020950
C28	C	-0.846055	-0.389406	0.018925
C29	C	-0.904462	-0.357927	0.014538
C30	C	-0.819206	-0.443357	0.020941
C31	C	-0.765344	-0.472385	0.024984
C32	C	-0.738325	-0.447463	0.027007
C33	C	-0.447920	-0.790230	0.024988
C34	C	-0.423094	-0.840041	0.020951
C35	C	-0.371150	-0.865027	0.018921
C36	C	-0.344230	-0.919028	0.014536
C37	C	-0.344030	-0.840201	0.020935
C38	C	-0.368852	-0.790399	0.024981
C39	C	-0.420803	-0.765414	0.027004
C40	C	-0.447922	-0.393510	0.024977
C41	C	-0.423099	-0.364475	0.020931
C42	C	-0.371152	-0.389391	0.018903
C43	C	-0.344235	-0.357911	0.014513
C44	C	-0.344034	-0.443338	0.020916
C45	C	-0.368860	-0.472368	0.024960
C46	C	-0.420804	-0.447452	0.026995
C47	C	-0.679920	-0.478941	0.031387
C48	C	-0.633366	-0.504032	0.034880
C49	C	-0.469171	-0.504029	0.034875
C50	C	-0.447717	-0.478936	0.031380
C51	C	-0.469170	-0.668361	0.034880
C52	C	-0.447716	-0.711408	0.031386
C53	C	-0.496432	-0.071057	-0.503890
C54	C	-0.548853	-0.018285	-0.530226
C55	C	-0.496432	-0.071056	-0.425015
C56	C	-0.548854	-0.018284	-0.451470
C57	C	-0.575308	0.007793	-0.503892
C58	C	-0.470097	-0.097014	-0.451469
C59	C	-0.368666	-0.213054	-0.552051
C60	C	-0.343664	-0.242084	-0.576877
C61	C	-0.370616	-0.217167	-0.628824
C62	C	-0.343513	-0.248647	-0.655741
C63	C	-0.422570	-0.163216	-0.655945
C64	C	-0.447565	-0.134187	-0.631122
C65	C	-0.420611	-0.159108	-0.579173
C66	C	-0.765518	0.183662	-0.631659
C67	C	-0.819384	0.233473	-0.656662
C68	C	-0.846408	0.258459	-0.629712
C69	C	-0.904813	0.312461	-0.656813
C70	C	-0.819559	0.233635	-0.577758
C71	C	-0.765694	0.183833	-0.552761
C72	C	-0.738677	0.158847	-0.579717
C73	C	-0.368668	-0.213052	-0.234803
C74	C	-0.343669	-0.242086	-0.180935
C75	C	-0.370621	-0.217169	-0.153914
C76	C	-0.343519	-0.248648	-0.095506
C77	C	-0.422573	-0.163222	-0.180762
C78	C	-0.447570	-0.134193	-0.234627
C79	C	-0.420610	-0.159111	-0.261646
C80	C	-0.447720	-0.127629	-0.552258
C81	C	-0.469327	-0.102536	-0.530805
C82	C	-0.469328	-0.102535	-0.366609
C83	C	-0.447721	-0.127627	-0.320054
C84	C	-0.633714	0.061794	-0.530997
C85	C	-0.680269	0.104841	-0.552605
O86	O	0.076277	-0.384081	0.012960
O87	O	-0.076257	-0.294916	-0.012894
O88	O	0.012931	-0.384083	0.076300
O89	O	-0.012910	-0.294914	-0.076234
O90	O	0.012933	-0.311666	0.076306
O91	O	-0.076254	-0.222499	-0.012888
O92	O	0.076280	-0.311664	0.012966
Zn93	Zn	0.000013	-0.255584	0.000040
Zn94	Zn	0.000010	-0.350996	0.000032
O95	O	-0.012908	-0.222497	-0.076228
O96	O	-0.298805	0.063292	0.012964
O97	O	-0.235462	-0.063346	-0.012888
O98	O	-0.235465	-0.063353	0.076305
O99	O	-0.298803	0.063300	-0.076229
O100	O	-0.307912	-0.063350	0.076299
O101	O	-0.307909	-0.063342	-0.012895
O102	O	-0.371252	0.063295	0.012958
Zn103	Zn	-0.351083	-0.000023	0.000031
Zn104	Zn	-0.255631	-0.000027	0.000039
O105	O	-0.371250	0.063303	-0.076236
O106	O	-1.076607	0.456783	-0.692421
O107	O	-0.924074	0.330140	-0.629074
O108	O	-1.013262	0.330138	-0.629073
O109	O	-0.987418	0.456785	-0.692422
O110	O	-1.013261	0.330136	-0.701518
O111	O	-0.924072	0.330138	-0.701518
O112	O	-1.076605	0.456781	-0.764865
Zn113	Zn	-1.000338	0.393459	-0.744694
Zn114	Zn	-1.000340	0.393461	-0.649245
O115	O	-0.987417	0.456783	-0.764866
O116	O	-0.307911	-0.311650	-0.764507
O117	O	-0.371254	-0.222491	-0.701165
O118	O	-0.371252	-0.311652	-0.701162
O119	O	-0.307912	-0.222489	-0.764510
O120	O	-0.298806	-0.384074	-0.628716
O121	O	-0.298807	-0.294912	-0.628719
O122	O	-0.235464	-0.384072	-0.692061
Zn123	Zn	-0.255634	-0.350991	-0.648887
Zn124	Zn	-0.351085	-0.255572	-0.744338
O125	O	-0.235466	-0.294910	-0.692064
C126	C	-0.155920	-0.469469	0.234827
C127	C	-0.098464	-0.523208	0.261706
C128	C	-0.182375	-0.443392	0.261162
C129	C	-0.234797	-0.390619	0.155950
C130	C	-0.261676	-0.360052	0.098494
C131	C	-0.261132	-0.364662	0.182405
C132	C	-0.234797	-0.390620	0.234826
C133	C	-0.261675	-0.360052	0.261704
C134	C	-0.182375	-0.443391	0.182406
C135	C	0.018810	-0.390643	0.234846
C136	C	0.015111	-0.360079	0.261727
C137	C	0.019176	-0.443414	0.261179
C138	C	0.018812	-0.390637	0.155967
C139	C	0.015115	-0.360067	0.098511
C140	C	0.019178	-0.443408	0.182420
C141	C	0.018807	-0.469488	0.234841
C142	C	0.015106	-0.523226	0.261717
C143	C	0.019180	-0.364683	0.182425
C144	C	-0.234799	-0.215977	0.234834
C145	C	-0.261678	-0.246545	0.261708
C146	C	-0.182376	-0.241940	0.261172
C147	C	-0.234798	-0.137119	0.155964
C148	C	-0.261676	-0.083372	0.098509
C149	C	-0.182375	-0.163202	0.182421
C150	C	-0.155921	-0.215981	0.234841
C151	C	-0.098464	-0.246554	0.261721
C152	C	-0.261134	-0.163198	0.182415
C153	C	-0.039199	0.007461	-0.503869
C154	C	-0.039568	-0.018614	-0.530207
C155	C	-0.039203	-0.071390	-0.424995
C156	C	-0.039572	-0.097344	-0.451452
C157	C	-0.039201	-0.071385	-0.503874
C158	C	-0.039570	-0.018618	-0.451448
C159	C	-0.024912	0.183325	-0.552025
C160	C	-0.020873	0.233135	-0.576849
C161	C	-0.018844	0.258123	-0.628796
C162	C	-0.014454	0.312124	-0.655711
C163	C	-0.020859	0.233301	-0.655918
C164	C	-0.024906	0.183500	-0.631097
C165	C	-0.026932	0.158512	-0.579148
C166	C	-0.024920	-0.133799	-0.631644
C167	C	-0.020882	-0.162650	-0.656647
C168	C	-0.018855	-0.216605	-0.629699
C169	C	-0.014470	-0.247897	-0.656801
C170	C	-0.020872	-0.241704	-0.577746
C171	C	-0.024919	-0.212847	-0.552747
C172	C	-0.026939	-0.158893	-0.579702
C173	C	-0.024929	-0.133823	-0.234783
C174	C	-0.020887	-0.162684	-0.180915
C175	C	-0.018862	-0.216639	-0.153896
C176	C	-0.014477	-0.247936	-0.095488
C177	C	-0.020875	-0.241733	-0.180745
C178	C	-0.024915	-0.212872	-0.234610
C179	C	-0.026947	-0.158912	-0.261627
C180	C	-0.031316	0.104507	-0.552235
C181	C	-0.034811	0.061462	-0.530782
C182	C	-0.034820	-0.102682	-0.366590
C183	C	-0.031328	-0.127624	-0.320035
C184	C	-0.034816	-0.102672	-0.530980
C185	C	-0.031322	-0.127610	-0.552588
O186	O	-0.012940	-0.294936	0.371303
O187	O	0.012923	-0.384099	0.307961
O188	O	-0.076273	-0.294935	0.307950
O189	O	0.076257	-0.384100	0.371315
O190	O	-0.076265	-0.222515	0.235508
O191	O	0.012932	-0.311679	0.235520
O192	O	-0.012931	-0.222517	0.298862
Zn193	Zn	0.000002	-0.255600	0.255689
Zn194	Zn	-0.000010	-0.351016	0.351134
O195	O	0.076266	-0.311681	0.298873
C196	C	-0.574962	0.464558	-0.503864
C197	C	-0.548506	0.490518	-0.530195
C198	C	-0.496085	0.385697	-0.424987
C199	C	-0.469749	0.411776	-0.451438
C200	C	-0.496084	0.464555	-0.503857
C201	C	-0.548507	0.411779	-0.451444
C202	C	-0.765173	0.526994	-0.552039
C203	C	-0.819039	0.555852	-0.576867
C204	C	-0.846061	0.609814	-0.628812
C205	C	-0.904469	0.641114	-0.655732
C206	C	-0.819211	0.634913	-0.655928
C207	C	-0.765348	0.606050	-0.631102
C208	C	-0.738329	0.552088	-0.579155
C209	C	-0.447916	0.606561	-0.631604
C210	C	-0.423088	0.635592	-0.656601
C211	C	-0.371143	0.610674	-0.629648
C212	C	-0.344222	0.642150	-0.656742
C213	C	-0.344023	0.556716	-0.577696
C214	C	-0.368845	0.527681	-0.552704
C215	C	-0.420798	0.552613	-0.579664
C216	C	-0.447920	0.209802	-0.234786
C217	C	-0.423096	0.159988	-0.180919
C218	C	-0.371148	0.134996	-0.153895
C219	C	-0.344230	0.080987	-0.095489
C220	C	-0.344029	0.159823	-0.180737
C221	C	-0.368856	0.209637	-0.234602
C222	C	-0.420801	0.234620	-0.261624
C223	C	-0.679923	0.520797	-0.552238
C224	C	-0.633367	0.495853	-0.530781
C225	C	-0.469169	0.331687	-0.366583
C226	C	-0.447714	0.288634	-0.320030
C227	C	-0.469167	0.496035	-0.530956
C228	C	-0.447712	0.521128	-0.552558
H229	H	-0.161137	-0.141349	-0.019737
H230	H	-0.161136	-0.141377	0.161182
C231	C	-0.735450	-0.366103	0.027218
C232	C	-0.730608	-0.358640	0.072623
C233	C	-0.700888	-0.331229	0.074852
C234	C	-0.676011	-0.311281	0.031677
C235	C	-0.680853	-0.318744	-0.013731
C236	C	-0.710573	-0.346155	-0.015961
H237	H	-0.749024	-0.373407	0.104586
H238	H	-0.697304	-0.325705	0.108467
H239	H	-0.654011	-0.290990	0.033328
H240	H	-0.662437	-0.303977	-0.045695
H241	H	-0.714157	-0.351679	-0.049575
C242	C	-0.452927	-0.867341	0.018729
C243	C	-0.463619	-0.867786	-0.030005
C244	C	-0.493454	-0.895084	-0.032229
C245	C	-0.512597	-0.921936	0.014280
C246	C	-0.501906	-0.921492	0.063017
C247	C	-0.472071	-0.894194	0.065241
H248	H	-0.449447	-0.847908	-0.064437
H249	H	-0.501368	-0.895413	-0.068308
H250	H	-0.534682	-0.942144	0.012633
H251	H	-0.516077	-0.941371	0.097449
H252	H	-0.464157	-0.893866	0.101320
C253	C	-0.040374	-0.154710	-0.422764
C254	C	-0.040769	-0.183403	-0.364977
C255	C	-0.041570	-0.240767	-0.336292
C256	C	-0.041975	-0.269439	-0.365393
C257	C	-0.041580	-0.240746	-0.423183
C258	C	-0.040779	-0.183382	-0.451869
H259	H	-0.040469	-0.162179	-0.343432
H260	H	-0.041862	-0.262008	-0.293512
H261	H	-0.042568	-0.311903	-0.344158
H262	H	-0.041880	-0.261970	-0.444728
H263	H	-0.040486	-0.162141	-0.494649
H264	H	-0.026563	0.162985	-0.509727
H265	H	-0.445184	-0.320548	0.019287
H266	H	-0.840890	-0.320560	0.019306
H267	H	-0.161141	-0.284407	0.304244
H268	H	-0.426680	-0.610102	0.040221
C269	C	-0.018675	-0.135078	-0.151385
C270	C	-0.061855	-0.114997	-0.126555
C271	C	-0.059648	-0.087386	-0.097027
C272	C	-0.014261	-0.079858	-0.092329
C273	C	0.028922	-0.099939	-0.117160
C274	C	0.026715	-0.127550	-0.146688
H275	H	-0.095456	-0.120570	-0.130032
H276	H	-0.091615	-0.072521	-0.078645
H277	H	-0.012627	-0.059419	-0.070471
H278	H	0.062523	-0.094366	-0.113684
H279	H	0.058682	-0.142415	-0.165070
C280	C	-0.027122	0.156197	-0.660928
C281	C	0.016055	0.088210	-0.637841
C282	C	0.013841	0.060906	-0.667673
C283	C	-0.031548	0.101588	-0.720591
C284	C	-0.074728	0.169579	-0.743681
C285	C	-0.072514	0.196884	-0.713850
H286	H	0.049657	0.058091	-0.598665
H287	H	0.045806	0.010574	-0.650580
H288	H	-0.033187	0.081375	-0.742674
H289	H	-0.108330	0.199698	-0.782857
H290	H	-0.104479	0.247215	-0.730943
C291	C	-0.319320	-0.133692	-0.019955
C292	C	-0.333628	-0.127669	0.025717
C293	C	-0.391813	-0.098193	0.024912
C294	C	-0.435690	-0.074740	-0.021566
C295	C	-0.421383	-0.080762	-0.067242
C296	C	-0.363197	-0.110238	-0.066437
H297	H	-0.301147	-0.145032	0.060126
H298	H	-0.402404	-0.093735	0.058724
H299	H	-0.478762	-0.052920	-0.022163
H300	H	-0.453864	-0.063399	-0.101651
H301	H	-0.352607	-0.114696	-0.100249
H302	H	-0.026581	-0.089888	-0.256777
H303	H	-0.301733	-0.860548	0.019286
C304	C	-0.505060	-0.762754	0.027223
C305	C	-0.532370	-0.707968	0.031666
C306	C	-0.589508	-0.680489	0.033900
C307	C	-0.619336	-0.707796	0.031691
C308	C	-0.592027	-0.762585	0.027247
C309	C	-0.534888	-0.790064	0.025013
H310	H	-0.510289	-0.687751	0.033302
H311	H	-0.609725	-0.639930	0.037189
H312	H	-0.661634	-0.687454	0.033345
H313	H	-0.614107	-0.782802	0.025612
H314	H	-0.514672	-0.830623	0.021724
H315	H	0.019773	-0.322218	0.161189
C316	C	-0.848929	-0.470764	0.018714
C317	C	-0.873810	-0.490703	0.061887
C318	C	-0.903532	-0.518113	0.059660
C319	C	-0.908372	-0.525584	0.014259
C320	C	-0.883490	-0.505644	-0.028917
C321	C	-0.853768	-0.478234	-0.026690
H322	H	-0.870228	-0.485174	0.095498
H323	H	-0.921952	-0.532874	0.091622
H324	H	-0.930374	-0.545874	0.012610
H325	H	-0.887072	-0.511174	-0.062528
H326	H	-0.835348	-0.463474	-0.058652
C327	C	-0.319320	-0.133714	0.153722
C328	C	-0.363205	-0.066846	0.133308
C329	C	-0.421389	-0.037365	0.104617
C330	C	-0.435686	-0.074752	0.096340
C331	C	-0.391800	-0.141624	0.116755
C332	C	-0.333616	-0.171105	0.145445
H333	H	-0.352623	-0.039166	0.139434
H334	H	-0.453877	0.012138	0.089505
H335	H	-0.478757	-0.052929	0.075101
H336	H	-0.402383	-0.169303	0.110628
H337	H	-0.301129	-0.220608	0.160557
C338	C	-0.040370	0.010859	-0.422750
C339	C	-0.040762	0.069020	-0.451835
C340	C	-0.041563	0.098495	-0.423137
C341	C	-0.041971	0.069809	-0.365355
C342	C	-0.041580	0.011646	-0.336267
C343	C	-0.040779	-0.017829	-0.364965
H344	H	-0.040460	0.090257	-0.494612
H345	H	-0.041853	0.141551	-0.444670
H346	H	-0.042564	0.091629	-0.344111
H347	H	-0.041882	-0.009591	-0.293490
H348	H	-0.040489	-0.060885	-0.343432
H349	H	-0.040160	0.003216	-0.573279
C350	C	-0.018648	0.260431	-0.547014
C351	C	0.026748	0.219740	-0.494098
C352	C	0.028975	0.247034	-0.464261
C353	C	-0.014196	0.315020	-0.487340
C354	C	-0.059596	0.355716	-0.540258
C355	C	-0.061822	0.328421	-0.570095
H356	H	0.058708	0.169409	-0.477011
H357	H	0.062583	0.216909	-0.425088
H358	H	-0.012548	0.335225	-0.465253
H359	H	-0.091556	0.406046	-0.557345
H360	H	-0.095430	0.358547	-0.609269
H361	H	-0.569747	-0.610106	0.040228
H362	H	-0.346767	-0.770191	0.026621
C363	C	-0.339030	-0.531708	0.027177
C364	C	-0.281892	-0.559117	0.024947
C365	C	-0.252062	-0.618457	0.027162
C366	C	-0.279369	-0.650388	0.031607
C367	C	-0.336510	-0.622979	0.033837
C368	C	-0.366340	-0.563639	0.031622
H369	H	-0.261675	-0.535480	0.021657
H370	H	-0.209763	-0.638747	0.025511
H371	H	-0.257287	-0.694315	0.033246
H372	H	-0.356727	-0.646617	0.037127
H373	H	-0.408639	-0.543350	0.033273
H374	H	-0.841239	0.253681	-0.698962
H375	H	-0.301736	-0.463624	0.019263
C376	C	-0.153685	-0.299281	-0.019929
C377	C	-0.101988	-0.359227	0.025756
C378	C	-0.073299	-0.416612	0.024988
C379	C	-0.096306	-0.414052	-0.021466
C380	C	-0.148006	-0.354104	-0.067154
C381	C	-0.176695	-0.296719	-0.066386
H382	H	-0.084954	-0.361124	0.060147
H383	H	-0.035027	-0.460989	0.058810
H384	H	-0.075068	-0.456532	-0.022034
H385	H	-0.165040	-0.352206	-0.101545
H386	H	-0.214967	-0.252341	-0.100208
H387	H	-0.026564	-0.233284	-0.510448
H388	H	-0.019210	0.253653	-0.698214
C389	C	-0.577552	0.011197	-0.422779
C390	C	-0.548467	-0.017489	-0.364990
C391	C	-0.577167	0.011990	-0.336300
C392	C	-0.634951	0.070156	-0.365398
C393	C	-0.664039	0.098845	-0.423190
C394	C	-0.635340	0.069366	-0.451881
H395	H	-0.505689	-0.060549	-0.343447
H396	H	-0.555634	-0.009248	-0.293519
H397	H	-0.656196	0.091978	-0.344160
H398	H	-0.706818	0.141906	-0.444733
H399	H	-0.656873	0.090604	-0.494662
H400	H	-0.026568	-0.089866	-0.653596
H401	H	-0.019237	-0.142213	-0.698946
C402	C	-0.018650	-0.301083	-0.151028
C403	C	0.030080	-0.360852	-0.101798
C404	C	0.032305	-0.420200	-0.072084
C405	C	-0.014200	-0.419778	-0.091601
C406	C	-0.062933	-0.360007	-0.140834
C407	C	-0.065158	-0.300659	-0.170548
H408	H	0.064509	-0.361166	-0.087348
H409	H	0.068381	-0.464446	-0.035638
H410	H	-0.012552	-0.463711	-0.069605
H411	H	-0.097362	-0.359693	-0.155284
H412	H	-0.101234	-0.256412	-0.206993
C413	C	0.019974	-0.472906	0.319365
C414	C	0.066441	-0.496360	0.363254
C415	C	0.067239	-0.525854	0.421438
C416	C	0.021570	-0.531893	0.435732
C417	C	-0.024899	-0.508439	0.391841
C418	C	-0.025697	-0.478945	0.333658
H419	H	0.100250	-0.491890	0.352674
H420	H	0.101639	-0.543216	0.453929
H421	H	0.022161	-0.553726	0.478803
H422	H	-0.058709	-0.512909	0.402421
H423	H	-0.060098	-0.461583	0.301167
H424	H	-0.490217	0.230142	-0.256784
H425	H	-0.019230	-0.285631	-0.555806
C426	C	-0.153689	-0.472869	0.153707
C427	C	-0.145436	-0.435467	0.101996
C428	C	-0.116753	-0.464940	0.073295
C429	C	-0.096323	-0.531814	0.096307
C430	C	-0.104576	-0.569219	0.148022
C431	C	-0.133259	-0.539747	0.176722
H432	H	-0.160560	-0.385959	0.084959
H433	H	-0.110644	-0.437250	0.035013
H434	H	-0.075091	-0.553632	0.075061
H435	H	-0.089452	-0.618727	0.165059
H436	H	-0.139367	-0.567437	0.215004
H437	H	-0.489870	-0.090268	-0.256484
H438	H	-0.489864	-0.090259	-0.653209
C439	C	-0.411560	0.382286	-0.422747
C440	C	-0.382465	0.324116	-0.364964
C441	C	-0.324279	0.294627	-0.336276
C442	C	-0.295187	0.323310	-0.365371
C443	C	-0.324282	0.381484	-0.423158
C444	C	-0.382469	0.410972	-0.451845
H445	H	-0.404001	0.302880	-0.343422
H446	H	-0.302741	0.251563	-0.293498
H447	H	-0.252114	0.301481	-0.344135
H448	H	-0.302746	0.402719	-0.444699
H449	H	-0.404006	0.454037	-0.494623
H450	H	-0.026556	-0.233307	-0.256467
C451	C	-0.848572	0.528250	-0.547039
C452	C	-0.897751	0.566274	-0.536343
C453	C	-0.927283	0.538671	-0.506513
C454	C	-0.907638	0.473044	-0.487378
C455	C	-0.858456	0.435016	-0.498073
C456	C	-0.828924	0.462619	-0.527903
H457	H	-0.912296	0.614858	-0.550509
H458	H	-0.963691	0.566822	-0.498596
H459	H	-0.929499	0.452611	-0.465296
H460	H	-0.843911	0.386432	-0.483907
H461	H	-0.792517	0.434468	-0.535820
H462	H	0.019779	-0.465234	0.161179
H463	H	-0.569746	0.532985	-0.573266
C464	C	-0.577197	0.382290	-0.422755
C465	C	-0.634984	0.410978	-0.451845
C466	C	-0.663671	0.381488	-0.423155
C467	C	-0.634572	0.323310	-0.365376
C468	C	-0.576781	0.294619	-0.336282
C469	C	-0.548094	0.324109	-0.364972
H470	H	-0.656528	0.454047	-0.494620
H471	H	-0.706451	0.402727	-0.444693
H472	H	-0.655808	0.301480	-0.344138
H473	H	-0.555237	0.251549	-0.293507
H474	H	-0.505314	0.302870	-0.343435
H475	H	-0.570087	0.003544	-0.573301
H476	H	-0.445183	0.139782	-0.159066
H477	H	-0.743179	0.483055	-0.509743
H478	H	-0.304201	-0.322192	0.161160
H479	H	-0.841216	0.678847	-0.698222
H480	H	-0.743490	0.626486	-0.653184
C481	C	-0.505057	0.633978	-0.661260
C482	C	-0.534886	0.693321	-0.718402
C483	C	-0.592026	0.720736	-0.748054
C484	C	-0.619338	0.688807	-0.720565
C485	C	-0.589509	0.629461	-0.663420
C486	C	-0.532368	0.602046	-0.633768
H487	H	-0.514668	0.716960	-0.738754
H488	H	-0.614108	0.764668	-0.790357
H489	H	-0.661637	0.709101	-0.742516
H490	H	-0.609726	0.605822	-0.643068
H491	H	-0.510287	0.558114	-0.591465
C492	C	-0.411900	-0.154358	-0.422783
C493	C	-0.382798	-0.183032	-0.451878
C494	C	-0.324598	-0.240362	-0.423198
C495	C	-0.295501	-0.269019	-0.365423
C496	C	-0.324603	-0.240345	-0.336326
C497	C	-0.382802	-0.183015	-0.365006
H498	H	-0.404337	-0.161818	-0.494649
H499	H	-0.303055	-0.261588	-0.444738
H500	H	-0.252418	-0.311458	-0.344193
H501	H	-0.303063	-0.261559	-0.293555
H502	H	-0.404345	-0.161789	-0.343466
C503	C	-0.286521	-0.301422	-0.151403
C504	C	-0.240526	-0.300896	-0.171056
C505	C	-0.183376	-0.360229	-0.141525
C506	C	-0.172222	-0.420089	-0.092340
C507	C	-0.218219	-0.420618	-0.072685
C508	C	-0.275369	-0.361285	-0.102216
H509	H	-0.248782	-0.256582	-0.207467
H510	H	-0.149327	-0.359837	-0.156075
H511	H	-0.129916	-0.464012	-0.070480
H512	H	-0.209963	-0.464932	-0.036274
H513	H	-0.309418	-0.361677	-0.087666
C514	C	-0.286522	-0.301429	-0.547043
C515	C	-0.240518	-0.300926	-0.527900
C516	C	-0.183376	-0.360273	-0.498065
C517	C	-0.172238	-0.420124	-0.487373
C518	C	-0.218244	-0.420630	-0.506516
C519	C	-0.275386	-0.361283	-0.536351
H520	H	-0.248761	-0.256618	-0.535814
H521	H	-0.149320	-0.359898	-0.483894
H522	H	-0.129939	-0.464056	-0.465287
H523	H	-0.210001	-0.464937	-0.498602
H524	H	-0.309442	-0.361658	-0.550523
C525	C	-0.452215	-0.135810	-0.713084
C526	C	-0.462771	-0.173975	-0.724133
C527	C	-0.492419	-0.146566	-0.781273
C528	C	-0.511511	-0.080991	-0.827365
C529	C	-0.500955	-0.042822	-0.816318
C530	C	-0.471307	-0.070231	-0.759177
H531	H	-0.448638	-0.222521	-0.690012
H532	H	-0.500233	-0.174821	-0.789451
H533	H	-0.533458	-0.060701	-0.869664
H534	H	-0.515088	0.005724	-0.850439
H535	H	-0.463493	-0.041975	-0.751000
H536	H	-0.569749	-0.467085	0.040220
C537	C	-0.735798	0.156184	-0.661311
C538	C	-0.765324	0.183489	-0.718455
C539	C	-0.735602	0.156008	-0.748104
C540	C	-0.676354	0.101221	-0.720608
C541	C	-0.646824	0.073913	-0.663461
C542	C	-0.676546	0.101394	-0.633812
H543	H	-0.809186	0.224048	-0.738812
H544	H	-0.757462	0.176223	-0.790408
H545	H	-0.654352	0.080878	-0.742556
H546	H	-0.602962	0.033354	-0.643104
H547	H	-0.654686	0.081178	-0.591508
H548	H	-0.445174	0.679524	-0.698898
H549	H	-0.346709	-0.233340	-0.256801
H550	H	-0.301723	0.536422	-0.555753
C551	C	-0.849280	0.261119	-0.548112
C552	C	-0.898506	0.261610	-0.537554
C553	C	-0.928229	0.289093	-0.507906
C554	C	-0.908724	0.316084	-0.488817
C555	C	-0.859495	0.315594	-0.499374
C556	C	-0.829773	0.288111	-0.529022
H557	H	-0.912947	0.241629	-0.551686
H558	H	-0.964672	0.289456	-0.500091
H559	H	-0.930726	0.336429	-0.466870
H560	H	-0.845054	0.335575	-0.485242
H561	H	-0.793330	0.287748	-0.536837
C562	C	-0.286884	0.132335	-0.151016
C563	C	-0.242056	0.064307	-0.126146
C564	C	-0.184913	0.036820	-0.096427
C565	C	-0.172599	0.077361	-0.091579
C566	C	-0.217428	0.145393	-0.116449
C567	C	-0.274570	0.172880	-0.146168
H568	H	-0.251171	0.034292	-0.129735
H569	H	-0.151728	-0.013542	-0.078016
H570	H	-0.130298	0.057014	-0.069579
H571	H	-0.208313	0.175408	-0.112861
H572	H	-0.307756	0.223242	-0.164579
H573	H	-0.490220	-0.373215	0.026628
H574	H	-0.743487	-0.516312	0.026628
H575	H	-0.346713	-0.233351	-0.509753
H576	H	-0.346761	0.483749	-0.510407
C577	C	-0.452227	-0.135808	-0.151044
C578	C	-0.462784	-0.173972	-0.101814
C579	C	-0.492439	-0.146558	-0.072099
C580	C	-0.511538	-0.080980	-0.091612
C581	C	-0.500981	-0.042811	-0.140844
C582	C	-0.471326	-0.070225	-0.170560
H583	H	-0.448646	-0.222521	-0.087367
H584	H	-0.500253	-0.174813	-0.035654
H585	H	-0.533490	-0.060686	-0.069615
H586	H	-0.515119	0.005737	-0.155292
H587	H	-0.463512	-0.041970	-0.207005
H588	H	-0.743837	0.163627	-0.510462
H589	H	-0.346770	0.229846	-0.256454
H590	H	-0.161134	-0.465220	0.304234
