data_functionalizedCrystal
_audit_creation_method	'MofGen! by Chris Wilmer'
_symmetry_space_group_name_H-M	'P1'
_symmetry_Int_Tables_number	1
_symmetry_cell_setting	triclinic
loop_
_symmetry_equiv_pos_as_xyz
  x,y,z
_cell_length_a	19.121112
_cell_length_b	19.120786
_cell_length_c	13.032268
_cell_angle_alpha	85.590044
_cell_angle_beta	84.956563
_cell_angle_gamma	89.915581
loop_
_atom_site_label
_atom_site_type_symbol
_atom_site_fract_x
_atom_site_fract_y
_atom_site_fract_z
Zn1	Zn	1.003820	-0.376321	0.630554
Zn2	Zn	1.014778	-0.478848	0.449990
Zn3	Zn	0.902570	-0.356671	0.450661
Zn4	Zn	0.882862	-0.487314	0.615778
O5	O	0.951008	-0.424788	0.536746
O6	O	1.102854	-0.394602	0.612505
O7	O	1.012727	-0.450875	0.305410
O8	O	0.919663	-0.261695	0.480989
O9	O	1.110905	-0.469929	0.479845
O10	O	0.994051	-0.276132	0.613156
O11	O	0.930289	-0.361112	0.305904
O12	O	0.802376	-0.369320	0.466662
O13	O	0.886074	-0.484357	0.762407
O14	O	0.787896	-0.465303	0.587972
O15	O	0.974941	-0.402811	0.773262
O16	O	0.993617	-0.577554	0.465517
O17	O	0.896700	-0.583773	0.587321
C18	C	0.769834	-0.416098	0.525787
C19	C	0.692325	-0.412399	0.521122
C20	C	0.254324	-0.388937	0.491578
C21	C	0.327152	-0.392417	0.495967
C22	C	0.356050	-0.444194	0.561209
C23	C	0.312116	-0.492491	0.622074
C24	C	0.239289	-0.489007	0.617690
C25	C	0.575564	-0.457212	0.577604
C26	C	0.648396	-0.460693	0.581980
C27	C	0.663427	-0.360618	0.455874
C28	C	0.590599	-0.357142	0.451492
C29	C	0.546670	-0.405436	0.512361
C30	C	0.430492	-0.447754	0.565693
C31	C	0.472230	-0.401873	0.507881
C32	C	0.944226	-0.605968	0.524767
C33	C	0.941385	-0.683483	0.519680
C34	C	0.978742	-0.727359	0.586154
C35	C	0.976070	-0.800193	0.581377
C36	C	0.936045	-0.829149	0.510120
C37	C	0.898683	-0.785268	0.443643
C38	C	0.901352	-0.712436	0.448426
C39	C	0.926048	-1.048682	0.492237
C40	C	0.923385	-1.121520	0.487456
C41	C	1.000771	-1.136440	0.625192
C42	C	1.003439	-1.063605	0.629965
C43	C	0.966075	-1.019731	0.563492
C44	C	0.933314	-0.903597	0.505232
C45	C	0.968802	-0.945285	0.568385
C46	C	1.132889	-0.433513	0.547748
C47	C	1.210395	-0.437231	0.552437
C48	C	0.927087	-0.446720	0.806394
C49	C	0.916893	-0.456066	0.921302
C50	C	0.957833	-0.242904	0.548795
C51	C	0.960742	-0.165396	0.553930
C52	C	0.974878	-0.402894	0.268152
C53	C	0.985214	-0.393358	0.153266
C54	C	0.956318	-0.419885	0.977903
C55	C	0.945783	-0.429544	1.096667
H56	H	0.539806	-0.496539	0.627164
O57	O	0.196716	-0.535991	0.676847
C58	C	0.189485	-0.635584	0.802451
C59	C	0.237779	-0.582433	0.735483
H60	H	0.222664	-0.673137	0.849891
H61	H	0.158246	-0.666551	0.750494
H62	H	0.151781	-0.606376	0.856601
H63	H	0.275525	-0.611585	0.681325
H64	H	0.268969	-0.551467	0.787502
O65	O	0.706178	-0.313802	0.396704
C66	C	0.801090	-0.296846	0.262686
C67	C	0.752733	-0.349945	0.329644
H68	H	0.838732	-0.326046	0.208437
H69	H	0.832388	-0.265943	0.314648
H70	H	0.767911	-0.259228	0.215351
H71	H	0.785859	-0.387608	0.376988
H72	H	0.721431	-0.380797	0.277626
H73	H	1.006497	-0.835913	0.635500
H74	H	0.895626	-1.012965	0.438110
O75	O	1.042333	-1.035596	0.699273
C76	C	1.118854	-1.058080	0.835326
C77	C	1.074815	-1.089894	0.756909
H78	H	1.145139	-1.101964	0.881931
H79	H	1.083300	-1.026878	0.889718
H80	H	1.160768	-1.021834	0.792324
H81	H	1.032897	-1.126171	0.799825
H82	H	1.110414	-1.121055	0.702521
H83	H	0.900728	-0.927181	0.447212
O84	O	0.458643	-0.497964	0.629122
C85	C	0.528125	-0.522779	0.773022
C86	C	0.496295	-0.465846	0.701247
H87	H	0.558562	-0.496833	0.831367
H88	H	0.565115	-0.556941	0.725162
H89	H	0.484213	-0.556717	0.815718
H90	H	0.540160	-0.431859	0.658535
H91	H	0.459288	-0.431735	0.749162
O92	O	0.884439	-1.149536	0.418207
C93	C	0.807989	-1.127054	0.282064
C94	C	0.852050	-1.095234	0.360450
H95	H	0.781802	-1.083166	0.235331
H96	H	0.766008	-1.163260	0.324991
H97	H	0.843583	-1.158300	0.227787
H98	H	0.816511	-1.063955	0.414747
H99	H	0.894036	-1.059068	0.317456
H100	H	0.567076	-0.314984	0.398357
O101	O	1.034871	-0.347916	1.106307
C102	C	1.157686	-0.317086	1.082403
C103	C	1.101524	-0.368591	1.135674
H104	H	1.211589	-0.333791	1.106109
H105	H	1.145740	-0.261972	1.106580
H106	H	1.157306	-0.317391	0.995012
H107	H	1.101873	-0.368348	1.223073
H108	H	1.113490	-0.423681	1.111413
H109	H	1.011339	-0.703788	0.644175
H110	H	0.671922	-0.502858	0.635113
O111	O	0.867414	-0.501636	0.968420
C112	C	0.843752	-0.605166	1.083708
C113	C	0.899861	-0.553617	1.030400
H114	H	0.869962	-0.647197	1.133848
H115	H	0.815715	-0.630961	1.022663
H116	H	0.804028	-0.575468	1.134135
H117	H	0.939629	-0.583264	0.979978
H118	H	0.927844	-0.527822	1.091498
O119	O	1.005817	-0.374301	0.930877
C120	C	1.047072	-0.254632	0.907581
C121	C	0.990958	-0.306177	0.960884
H122	H	1.035087	-0.199546	0.931839
H123	H	1.046735	-0.254886	0.820178
H124	H	1.100971	-0.271320	0.931324
H125	H	0.937031	-0.289526	0.937224
H126	H	0.991357	-0.305916	1.048277
O127	O	0.444252	-0.351604	0.444362
C128	C	0.438770	-0.302240	0.269490
C129	C	0.470526	-0.359192	0.341315
H130	H	0.459989	-0.308365	0.186160
H131	H	0.453592	-0.248183	0.292270
H132	H	0.379172	-0.308042	0.276869
H133	H	0.530127	-0.353457	0.333973
H134	H	0.455648	-0.413228	0.318515
H135	H	1.031190	-1.172170	0.679312
H136	H	0.904224	-0.467668	1.136129
O137	O	0.859753	-0.813482	0.374559
C138	C	0.763819	-0.890116	0.349435
C139	C	0.807860	-0.858230	0.427787
H140	H	0.721844	-0.926290	0.392440
H141	H	0.799367	-0.921385	0.295128
H142	H	0.737610	-0.846231	0.302726
H143	H	0.834075	-0.902071	0.474567
H144	H	0.772278	-0.826943	0.482024
O145	O	0.226369	-0.338577	0.428178
C146	C	0.248975	-0.239707	0.303521
C147	C	0.280723	-0.296697	0.375293
H148	H	0.292906	-0.205842	0.260728
H149	H	0.212055	-0.205483	0.351386
H150	H	0.218456	-0.265643	0.245260
H151	H	0.311277	-0.270821	0.433567
H152	H	0.317604	-0.330916	0.327361
H153	H	0.870930	-0.676712	0.394297
H154	H	0.335650	-0.534646	0.675200
O155	O	0.369848	-0.345447	0.437002
C156	C	0.456839	-0.254134	0.434499
C157	C	0.408507	-0.307286	0.501401
H158	H	0.488119	-0.223277	0.486536
H159	H	0.423711	-0.216482	0.387131
H160	H	0.494505	-0.283334	0.380284
H161	H	0.370833	-0.278145	0.555674
H162	H	0.441680	-0.344936	0.548697
O163	O	1.007582	-0.917082	0.637652
C164	C	1.007510	-0.846635	0.783233
C165	C	0.963508	-0.878529	0.704841
H166	H	0.971892	-0.815470	0.837590
H167	H	1.049434	-0.810362	0.740312
H168	H	1.033777	-0.890511	0.829879
H169	H	0.937195	-0.834699	0.658173
H170	H	0.921624	-0.914819	0.747824
