data_functionalizedCrystal
_audit_creation_method	'MofGen! by Chris Wilmer'
_symmetry_space_group_name_H-M	'P1'
_symmetry_Int_Tables_number	1
_symmetry_cell_setting	triclinic
loop_
_symmetry_equiv_pos_as_xyz
  x,y,z
_cell_length_a	16.120530
_cell_length_b	16.120444
_cell_length_c	11.169409
_cell_angle_alpha	92.861568
_cell_angle_beta	87.078668
_cell_angle_gamma	90.168401
loop_
_atom_site_label
_atom_site_type_symbol
_atom_site_fract_x
_atom_site_fract_y
_atom_site_fract_z
Zn1	Zn	1.254510	-0.395528	-0.798929
Zn2	Zn	1.247340	-0.534608	-0.607853
Zn3	Zn	1.115438	-0.388516	-0.587601
Zn4	Zn	1.108360	-0.527482	-0.797833
O5	O	1.181412	-0.461534	-0.698054
O6	O	1.369925	-0.419894	-0.782516
O7	O	1.229805	-0.515276	-0.437217
O8	O	1.139849	-0.273084	-0.607617
O9	O	1.364657	-0.522075	-0.642133
O10	O	1.242025	-0.278235	-0.762879
O11	O	1.132897	-0.407943	-0.422338
O12	O	0.998134	-0.401034	-0.606554
O13	O	1.127785	-0.509930	-0.965928
O14	O	0.992933	-0.503131	-0.761011
O15	O	1.235161	-0.412985	-0.966733
O16	O	1.222942	-0.650025	-0.641071
O17	O	1.120833	-0.644790	-0.780649
C18	C	0.965361	-0.450549	-0.681467
C19	C	0.872932	-0.445870	-0.674401
C20	C	1.170364	-0.677580	-0.712966
C21	C	1.165713	-0.770010	-0.719392
C22	C	1.205741	-0.982989	-0.664994
C23	C	1.157238	-0.939235	-0.731137
C24	C	1.161955	-0.845069	-0.724600
C25	C	1.201025	-1.077163	-0.671530
C26	C	0.703704	-0.437308	-0.661509
C27	C	0.659958	-0.485821	-0.734691
C28	C	0.565793	-0.481057	-0.727517
C29	C	0.797877	-0.442071	-0.668680
C30	C	1.398307	-0.472562	-0.714706
C31	C	1.490735	-0.477261	-0.721803
C32	C	1.181484	-0.461445	-1.011095
C33	C	1.181514	-0.461407	-1.144495
C34	C	1.192527	-0.244645	-0.683111
C35	C	1.197263	-0.152219	-0.676743
C36	C	1.181392	-0.461564	-0.386230
C37	C	1.181535	-0.461376	-0.252827
H38	H	1.250804	-0.949730	-0.603461
C39	C	0.659302	-0.377300	-0.570641
C40	C	0.607017	-0.421860	-0.493117
C41	C	0.566097	-0.366613	-0.409384
H42	H	0.627217	-0.339405	-0.611462
H43	H	0.699103	-0.347499	-0.525590
H44	H	0.567222	-0.451646	-0.538163
H45	H	0.639082	-0.459751	-0.452268
H46	H	0.605898	-0.336812	-0.364333
H47	H	0.534017	-0.328721	-0.450216
H48	H	0.530623	-0.396839	-0.356768
C49	C	0.704156	-0.546005	-0.825530
C50	C	0.645286	-0.589817	-0.891655
C51	C	0.685974	-0.645257	-0.975349
H52	H	0.736170	-0.583950	-0.784691
H53	H	0.739669	-0.515941	-0.878307
H54	H	0.609787	-0.619879	-0.838885
H55	H	0.613270	-0.551893	-0.932519
H56	H	0.721488	-0.615194	-1.028126
H57	H	0.717987	-0.683197	-0.934500
H58	H	0.646038	-0.674985	-1.020232
H59	H	1.112171	-0.972498	-0.792674
