data_functionalizedCrystal
_audit_creation_method	'MofGen! by Chris Wilmer'
_symmetry_space_group_name_H-M	'P1'
_symmetry_Int_Tables_number	1
_symmetry_cell_setting	triclinic
loop_
_symmetry_equiv_pos_as_xyz
  x,y,z
_cell_length_a	14.044220
_cell_length_b	14.519709
_cell_length_c	12.996460
_cell_angle_alpha	89.999966
_cell_angle_beta	89.993022
_cell_angle_gamma	91.565489
loop_
_atom_site_label
_atom_site_type_symbol
_atom_site_fract_x
_atom_site_fract_y
_atom_site_fract_z
O1	O	0.124273	-1.233893	-0.085435
O2	O	0.374273	-0.983893	0.164565
O3	O	0.624273	-0.733893	0.414565
O4	O	0.874273	-0.483893	0.664565
O5	O	0.138907	-0.966596	-0.085466
O6	O	0.388907	-0.716596	0.164534
O7	O	0.638907	-0.466596	0.414534
O8	O	0.888907	-0.216596	0.664534
O9	O	-0.006401	-1.096232	-0.085441
O10	O	0.243599	-0.846232	0.164559
O11	O	0.493599	-0.596232	0.414559
O12	O	0.743599	-0.346232	0.664559
O13	O	0.269581	-1.104256	-0.085460
O14	O	0.519581	-0.854256	0.164540
O15	O	0.769581	-0.604256	0.414540
O16	O	1.019581	-0.354256	0.664540
O17	O	-0.006409	-1.096217	0.085693
O18	O	0.243591	-0.846217	0.335693
O19	O	0.493591	-0.596217	0.585693
O20	O	0.743591	-0.346217	0.835693
O21	O	0.138899	-0.966581	0.085667
O22	O	0.388899	-0.716581	0.335667
O23	O	0.638899	-0.466581	0.585667
O24	O	0.888899	-0.216581	0.835667
O25	O	0.124265	-1.233877	0.085699
O26	O	0.374265	-0.983877	0.335699
O27	O	0.624265	-0.733877	0.585699
O28	O	0.874265	-0.483877	0.835699
Cu29	Cu	0.131581	-1.100228	0.101309
Cu30	Cu	0.381581	-0.850228	0.351309
Cu31	Cu	0.631581	-0.600228	0.601309
Cu32	Cu	0.881581	-0.350228	0.851309
Cu33	Cu	0.131591	-1.100246	-0.101076
Cu34	Cu	0.381591	-0.850246	0.148924
Cu35	Cu	0.631591	-0.600246	0.398924
Cu36	Cu	0.881591	-0.350246	0.648924
O37	O	0.269573	-1.104241	0.085674
O38	O	0.519573	-0.854241	0.335674
O39	O	0.769573	-0.604241	0.585674
O40	O	1.019573	-0.354241	0.835674
C41	C	0.138221	-0.932174	0.000097
C42	C	0.388221	-0.682174	0.250097
C43	C	0.638221	-0.432174	0.500097
C44	C	0.888221	-0.182174	0.750097
C45	C	0.136177	-0.829628	0.000085
C46	C	0.386177	-0.579628	0.250085
C47	C	0.636177	-0.329628	0.500085
C48	C	0.886177	-0.079628	0.750085
C49	C	-0.041726	-1.092712	0.000126
C50	C	0.208274	-0.842712	0.250126
C51	C	0.458274	-0.592712	0.500126
C52	C	0.708274	-0.342712	0.750126
C53	C	-0.146969	-1.082235	0.000126
C54	C	0.103031	-0.832235	0.250126
C55	C	0.353031	-0.582235	0.500126
C56	C	0.603031	-0.332235	0.750126
C57	C	0.124951	-1.268300	0.000134
C58	C	0.374951	-1.018300	0.250134
C59	C	0.624951	-0.768300	0.500134
C60	C	0.874951	-0.518300	0.750134
C61	C	0.126995	-1.370846	0.000139
C62	C	0.376995	-1.120846	0.250139
C63	C	0.626995	-0.870846	0.500139
C64	C	0.876995	-0.620846	0.750139
C65	C	-0.339663	-1.063081	0.000109
C66	C	-0.089663	-0.813081	0.250109
C67	C	0.160337	-0.563081	0.500109
C68	C	0.410337	-0.313081	0.750109
C69	C	-0.397170	-1.137389	0.000115
C70	C	-0.147170	-0.887389	0.250115
C71	C	0.102830	-0.637389	0.500115
C72	C	0.352830	-0.387389	0.750115
C73	C	-0.504392	-1.126731	0.000105
C74	C	-0.254392	-0.876731	0.250105
C75	C	-0.004392	-0.626731	0.500105
C76	C	0.245608	-0.376731	0.750105
C77	C	-0.232432	-1.073737	0.000118
C78	C	0.017568	-0.823737	0.250118
C79	C	0.267568	-0.573737	0.500118
C80	C	0.517568	-0.323737	0.750118
C81	C	0.304898	-1.107761	0.000104
C82	C	0.554898	-0.857761	0.250104
C83	C	0.804898	-0.607761	0.500104
C84	C	1.054898	-0.357761	0.750104
C85	C	0.410141	-1.118238	0.000098
C86	C	0.660141	-0.868238	0.250098
C87	C	0.910141	-0.618238	0.500098
C88	C	1.160141	-0.368238	0.750098
N89	N	0.131574	-1.100221	0.243656
N90	N	0.381574	-0.850221	0.493656
N91	N	0.631574	-0.600221	0.743656
N92	N	0.881574	-0.350221	0.993656
C93	C	0.128653	-0.454125	0.000132
C94	C	0.378653	-0.204125	0.250132
C95	C	0.628653	0.045875	0.500132
C96	C	0.878653	0.295875	0.750132
C97	C	0.130743	-0.558601	0.000119
C98	C	0.380743	-0.308601	0.250119
C99	C	0.630743	-0.058601	0.500119
C100	C	0.880743	0.191399	0.750119
C101	C	0.132415	-0.641873	0.000107
C102	C	0.382415	-0.391873	0.250107
C103	C	0.632415	-0.141873	0.500107
C104	C	0.882415	0.108127	0.750107
C105	C	0.134505	-0.746356	0.000096
C106	C	0.384505	-0.496356	0.250096
C107	C	0.634505	-0.246356	0.500096
C108	C	0.884505	0.003644	0.750096
N109	N	0.131591	-1.100259	-0.243424
N110	N	0.381591	-0.850259	0.006576
N111	N	0.631591	-0.600259	0.256576
N112	N	0.881591	-0.350259	0.506576
C113	C	0.131592	-1.100245	0.663470
C114	C	0.381592	-0.850245	0.913470
C115	C	0.631592	-0.600245	1.163470
C116	C	0.881592	-0.350245	1.413470
C117	C	0.131590	-1.100236	0.546665
C118	C	0.381590	-0.850236	0.796665
C119	C	0.631590	-0.600236	1.046665
C120	C	0.881590	-0.350236	1.296665
C121	C	0.131584	-1.100233	0.453567
C122	C	0.381584	-0.850233	0.703567
C123	C	0.631584	-0.600233	0.953567
C124	C	0.881584	-0.350233	1.203567
C125	C	0.131580	-1.100224	0.336754
C126	C	0.381580	-0.850224	0.586754
C127	C	0.631580	-0.600224	0.836754
C128	C	0.881580	-0.350224	1.086754
H129	H	-0.370954	-0.991465	0.000098
H130	H	-0.120954	-0.741465	0.250098
H131	H	0.129046	-0.491465	0.500098
H132	H	0.379046	-0.241465	0.750098
O133	O	-0.355720	-1.232259	0.000136
O134	O	-0.105720	-0.982259	0.250136
O135	O	0.144280	-0.732259	0.500136
O136	O	0.394280	-0.482259	0.750136
H137	H	-0.379968	-1.270259	-0.069615
H138	H	-0.129968	-1.020259	0.180385
H139	H	0.120032	-0.770259	0.430385
H140	H	0.370032	-0.520259	0.680385
