data_functionalizedCrystal
_audit_creation_method	'MofGen! by Chris Wilmer'
_symmetry_space_group_name_H-M	'P1'
_symmetry_Int_Tables_number	1
_symmetry_cell_setting	triclinic
loop_
_symmetry_equiv_pos_as_xyz
  x,y,z
_cell_length_a	10.654550
_cell_length_b	15.944551
_cell_length_c	9.730223
_cell_angle_alpha	89.994648
_cell_angle_beta	89.999957
_cell_angle_gamma	83.991834
loop_
_atom_site_label
_atom_site_type_symbol
_atom_site_fract_x
_atom_site_fract_y
_atom_site_fract_z
O1	O	1.666313	0.117976	-0.114191
O2	O	1.300689	0.129216	-0.114216
O3	O	1.493485	0.001379	-0.114190
O4	O	1.473516	0.245813	-0.114216
O5	O	1.493473	0.001376	0.114390
O6	O	1.300676	0.129213	0.114364
O7	O	1.666300	0.117973	0.114389
Zn8	Zn	1.483486	0.123592	0.150669
Zn9	Zn	1.483503	0.123597	-0.150495
O10	O	1.473504	0.245810	0.114363
C11	C	1.253895	0.128389	0.000071
C12	C	1.114484	0.125920	0.000061
C13	C	1.034024	0.201189	0.000057
C14	C	0.903034	0.198863	0.000081
C15	C	0.932975	0.045995	0.000108
C16	C	1.063963	0.048321	0.000094
C17	C	1.492650	-0.029921	0.000100
C18	C	1.490165	-0.123182	0.000100
C19	C	1.364720	-0.338764	0.000073
C20	C	1.422966	-0.399446	0.112781
C21	C	1.485668	-0.293933	0.000090
C22	C	1.423007	-0.399426	-0.112581
C23	C	1.481317	-0.458871	0.000073
C24	C	1.543948	-0.353387	0.112890
C25	C	1.543972	-0.353360	-0.112573
C26	C	1.602306	-0.414024	0.000163
C27	C	1.488172	-0.198917	0.000100
C28	C	1.478822	-0.553887	0.000072
C29	C	1.713094	0.118800	0.000099
C30	C	1.852505	0.121269	0.000100
C31	C	1.474339	0.277110	0.000070
C32	C	1.476824	0.370371	0.000061
N33	N	1.483484	0.123589	0.356205
N34	N	1.483514	0.123594	-0.356032
C35	C	1.568883	0.067007	0.428142
C36	C	1.568896	0.067007	0.572025
C37	C	1.398106	0.180179	0.572021
C38	C	1.398089	0.180174	0.428140
H39	H	1.075154	0.264375	0.000041
H40	H	1.328541	0.226250	0.369565
H41	H	0.837528	0.260155	0.000081
O42	O	1.141951	-0.024878	0.000035
C43	C	1.069275	-0.093868	0.000089
H44	H	0.971509	-0.073124	-0.043182
H45	H	1.117593	-0.146652	-0.066267
H46	H	1.059957	-0.117616	0.109756
H47	H	1.638434	0.020932	0.630593
H48	H	0.891824	-0.017184	0.000143
H49	H	1.371805	-0.419852	0.208059
H50	H	1.328581	0.226250	0.630605
O51	O	1.244935	-0.299754	0.000434
C52	C	1.181616	-0.323120	0.119466
H53	H	1.253703	-0.344695	0.202113
H54	H	1.117017	-0.266709	0.158792
H55	H	1.122928	-0.376849	0.093747
O56	O	1.604797	-0.329286	0.226838
C57	C	1.541277	-0.353291	0.345328
H58	H	1.484044	-0.407668	0.319066
H59	H	1.613143	-0.374192	0.428550
H60	H	1.475283	-0.297426	0.384182
O61	O	1.722195	-0.452859	0.000484
C62	C	1.785477	-0.429363	0.119452
H63	H	1.713375	-0.407876	0.202125
H64	H	1.850275	-0.485679	0.158793
H65	H	1.843952	-0.375537	0.093643
H66	H	1.371840	-0.419798	-0.207874
O67	O	1.604772	-0.329006	-0.226381
C68	C	1.540700	-0.352230	-0.344983
H69	H	1.438314	-0.359589	-0.317988
H70	H	1.543773	-0.301285	-0.426767
H71	H	1.588201	-0.414595	-0.386099
O72	O	1.651727	0.012083	0.358050
C73	C	1.633356	0.024177	0.215630
H74	H	1.586493	0.090682	0.195945
H75	H	1.728430	0.015357	0.160907
H76	H	1.570291	-0.023730	0.174874
