data_functionalizedCrystal
_audit_creation_method	'MofGen! by Chris Wilmer'
_symmetry_space_group_name_H-M	'P1'
_symmetry_Int_Tables_number	1
_symmetry_cell_setting	triclinic
loop_
_symmetry_equiv_pos_as_xyz
  x,y,z
_cell_length_a	12.594517
_cell_length_b	29.839131
_cell_length_c	29.839125
_cell_angle_alpha	89.988394
_cell_angle_beta	89.985782
_cell_angle_gamma	90.041220
loop_
_atom_site_label
_atom_site_type_symbol
_atom_site_fract_x
_atom_site_fract_y
_atom_site_fract_z
Zn1	Zn	1.627005	-0.178946	-0.254012
Zn2	Zn	1.626839	-0.254050	-0.178882
Zn3	Zn	1.449030	-0.178934	-0.178894
Zn4	Zn	1.448912	-0.254049	-0.253983
O5	O	1.537946	-0.216495	-0.216443
O6	O	1.775928	-0.188914	-0.244053
O7	O	1.603232	-0.244081	-0.116017
O8	O	1.472758	-0.116069	-0.188876
O9	O	1.775806	-0.244092	-0.188856
O10	O	1.603515	-0.116077	-0.244065
O11	O	1.472597	-0.188894	-0.116025
O12	O	1.300069	-0.188893	-0.188848
O13	O	1.472556	-0.244091	-0.316854
O14	O	1.299982	-0.244080	-0.244015
O15	O	1.603400	-0.188913	-0.316875
O16	O	1.603117	-0.316917	-0.188827
O17	O	1.472395	-0.316916	-0.244003
C18	C	1.261405	-0.216486	-0.216430
C19	C	1.143100	-0.216493	-0.216435
C20	C	1.073863	-0.186436	-0.186486
C21	C	1.003013	-0.227411	-0.175431
C22	C	1.003152	-0.175538	-0.227497
C23	C	1.073807	-0.257489	-0.205358
C24	C	1.073953	-0.205589	-0.257443
C25	C	1.003134	-0.246592	-0.246404
C26	C	1.537754	-0.333217	-0.216421
C27	C	1.537769	-0.383152	-0.216426
C28	C	1.606137	-0.692783	-0.187755
C29	C	1.606268	-0.880456	-0.187772
O30	O	1.664245	-0.904710	-0.163377
N31	N	1.538167	-0.903937	-0.216477
C32	C	1.470033	-0.880497	-0.245181
O33	O	1.412119	-0.904775	-0.269600
C34	C	1.469908	-0.692825	-0.245166
C35	C	1.538006	-0.669346	-0.216456
C36	C	1.674231	-0.669304	-0.159047
C37	C	1.674193	-0.622389	-0.159042
C38	C	1.606062	-0.598952	-0.187743
C39	C	1.537968	-0.622431	-0.216450
C40	C	1.401780	-0.669385	-0.273872
C41	C	1.401756	-0.622464	-0.273866
C42	C	1.469855	-0.598986	-0.245157
C43	C	1.469799	-0.552078	-0.245146
N44	N	1.537901	-0.528597	-0.216441
C45	C	1.606032	-0.552034	-0.187740
C46	C	1.470102	-0.979027	-0.245187
C47	C	1.470132	-1.025945	-0.245190
C48	C	1.606369	-1.025901	-0.187781
C49	C	1.606333	-0.978982	-0.187776
C50	C	1.538203	-0.955546	-0.216482
C51	C	1.605947	-0.453508	-0.187729
C52	C	1.605900	-0.406589	-0.187725
C53	C	1.469668	-0.406637	-0.245135
C54	C	1.469710	-0.453552	-0.245138
C55	C	1.537858	-0.476987	-0.216434
O56	O	1.411862	-0.527795	-0.269531
O57	O	1.663954	-0.527748	-0.163331
C58	C	1.606175	-0.739698	-0.187760
C59	C	1.538081	-0.763177	-0.216467
C60	C	1.469950	-0.739740	-0.245169
C61	C	1.538111	-0.810095	-0.216471
C62	C	1.606242	-0.833531	-0.187770
C63	C	1.674344	-0.810050	-0.159065
C64	C	1.674306	-0.763135	-0.159059
C65	C	1.401849	-0.763221	-0.273874
C66	C	1.401891	-0.810137	-0.273877
C67	C	1.470022	-0.833573	-0.245175
C68	C	1.815567	-0.216504	-0.216456
C69	C	1.933873	-0.216508	-0.216462
C70	C	1.537983	-0.216503	-0.333621
C71	C	1.537999	-0.216507	-0.383556
C72	C	1.538168	-0.099316	-0.216475
C73	C	1.538263	-0.049382	-0.216489
C74	C	1.469942	-0.245135	-0.740132
C75	C	1.469904	-0.245187	-0.552459
O76	O	1.411935	-0.269612	-0.528185
N77	N	1.538022	-0.216465	-0.529001
C78	C	1.606150	-0.187727	-0.552464
O79	O	1.664081	-0.163295	-0.528206
C80	C	1.606182	-0.187673	-0.740137
C81	C	1.538067	-0.216400	-0.763592
C82	C	1.401832	-0.273859	-0.763587
C83	C	1.401846	-0.273848	-0.810503
C84	C	1.469971	-0.245112	-0.833963
C85	C	1.538081	-0.216388	-0.810507
C86	C	1.674304	-0.158932	-0.763599
C87	C	1.674304	-0.158921	-0.810520
C88	C	1.606189	-0.187647	-0.833975
C89	C	1.606221	-0.187641	-0.880883
N90	N	1.538102	-0.216363	-0.904341
C91	C	1.469977	-0.245098	-0.880881
C92	C	1.606130	-0.187757	-0.453934
C93	C	1.606124	-0.187771	-0.407016
C94	C	1.469876	-0.245231	-0.407013
C95	C	1.469888	-0.245219	-0.453932
C96	C	1.538012	-0.216479	-0.477391
C97	C	1.470013	-0.245072	-0.979406
C98	C	1.470037	-0.245059	-1.026326
C99	C	1.606280	-0.187598	-1.026324
C100	C	1.606261	-0.187612	-0.979409
C101	C	1.538119	-0.216351	-0.955951
O102	O	1.664151	-0.163225	-0.905186
O103	O	1.412039	-0.269519	-0.905147
C104	C	1.469928	-0.245147	-0.693216
C105	C	1.538038	-0.216423	-0.669761
C106	C	1.606163	-0.187687	-0.693221
C107	C	1.538032	-0.216436	-0.622843
C108	C	1.469907	-0.245172	-0.599383
C109	C	1.401789	-0.273894	-0.622841
C110	C	1.401803	-0.273882	-0.669756
C111	C	1.674282	-0.158965	-0.669763
C112	C	1.674263	-0.158980	-0.622848
C113	C	1.606138	-0.187715	-0.599388
C114	C	1.537971	-0.216454	-0.099720
C115	C	1.538162	-0.216324	-0.049786
H116	H	1.104715	-0.292141	-0.195975
H117	H	1.661749	-0.164204	-1.045434
H118	H	1.414516	-0.268470	-0.960313
O119	O	1.679439	-0.478781	-0.156767
H120	H	1.726768	-0.454567	-0.136803
O121	O	1.679620	-0.156757	-0.479229
H122	H	1.632034	-0.133886	-0.500595
H123	H	1.414620	-0.959949	-0.268563
O124	O	0.962228	-0.280305	-0.279964
H125	H	0.990673	-0.314260	-0.270686
O126	O	1.328285	-0.304879	-0.597535
H127	H	1.346459	-0.340140	-0.606534
H128	H	1.346428	-0.829249	-0.297255
O129	O	1.679739	-0.156631	-0.954111
H130	H	1.733855	-0.176743	-0.932741
O131	O	1.747759	-0.127969	-0.695064
H132	H	1.801878	-0.148070	-0.716447
H133	H	1.346369	-0.744142	-0.297246
O134	O	1.679608	-0.156794	-0.381721
H135	H	1.632015	-0.133943	-0.360336
H136	H	1.414422	-0.268611	-0.473026
O137	O	1.115276	-0.193346	-0.303350
H138	H	1.087034	-0.159312	-0.312447
O139	O	1.747741	-0.127996	-0.597551
H140	H	1.729541	-0.092736	-0.606554
H141	H	1.729717	-0.688381	-0.135675
O142	O	1.747771	-0.127948	-0.738307
H143	H	1.795127	-0.107963	-0.762510
O144	O	1.328316	-0.304847	-0.738295
H145	H	1.346499	-0.340105	-0.747305
H146	H	1.729647	-0.603275	-0.135665
O147	O	1.328321	-0.304863	-0.695049
H148	H	1.375910	-0.327721	-0.716427
O149	O	0.962040	-0.129654	-0.239883
H150	H	0.990381	-0.104762	-0.214963
O151	O	1.396558	-0.276040	-1.051626
H152	H	1.349176	-0.296019	-1.027427
H153	H	1.729775	-0.135514	-0.829618
H154	H	1.104918	-0.161043	-0.161129
O155	O	1.679359	-0.381264	-0.156762
H156	H	1.726749	-0.405447	-0.136810
O157	O	1.747768	-0.737817	-0.128096
H158	H	1.801871	-0.716412	-0.148224
O159	O	1.328361	-0.304824	-0.835799
H160	H	1.280984	-0.324800	-0.811597
H161	H	0.971854	-0.236643	-0.140763
H162	H	1.661785	-0.959869	-0.164398
O163	O	1.679860	-1.051189	-0.156830
H164	H	1.661670	-1.042212	-0.121560
O165	O	1.396245	-0.478874	-0.276100
H166	H	1.342136	-0.500277	-0.255973
O167	O	1.396677	-1.051267	-0.276152
H168	H	1.349308	-1.027083	-0.296111
H169	H	1.346322	-0.688494	-0.297249
O170	O	1.396385	-0.276222	-0.381707
H171	H	1.407824	-0.271399	-0.345142
H172	H	1.346278	-0.603385	-0.297244
H173	H	1.414193	-0.387547	-0.268502
O174	O	1.747852	-0.835332	-0.128116
H175	H	1.736441	-0.871901	-0.132952
