data_functionalizedCrystal
_audit_creation_method	'MofGen! by Chris Wilmer'
_symmetry_space_group_name_H-M	'P1'
_symmetry_Int_Tables_number	1
_symmetry_cell_setting	triclinic
loop_
_symmetry_equiv_pos_as_xyz
  x,y,z
_cell_length_a	16.992694
_cell_length_b	10.723023
_cell_length_c	15.455301
_cell_angle_alpha	92.976057
_cell_angle_beta	92.821270
_cell_angle_gamma	87.567885
loop_
_atom_site_label
_atom_site_type_symbol
_atom_site_fract_x
_atom_site_fract_y
_atom_site_fract_z
O1	O	1.044902	0.269907	0.072019
O2	O	1.544902	0.769907	0.572019
O3	O	0.816602	0.267004	0.072045
O4	O	1.316602	0.767004	0.572045
O5	O	0.936018	0.087333	0.072028
O6	O	1.436018	0.587333	0.572028
O7	O	0.925486	0.449579	0.072036
O8	O	1.425486	0.949579	0.572036
O9	O	0.929824	0.076960	-0.072234
O10	O	1.429824	0.576960	0.427766
O11	O	0.810408	0.256631	-0.072217
O12	O	1.310408	0.756631	0.427783
O13	O	1.038708	0.259534	-0.072243
O14	O	1.538708	0.759534	0.427757
Cu15	Cu	0.923992	0.257136	-0.085402
Cu16	Cu	1.423992	0.757136	0.414598
Cu17	Cu	0.931317	0.269403	0.085204
Cu18	Cu	1.431317	0.769403	0.585204
O19	O	0.919292	0.439206	-0.072226
O20	O	1.419292	0.939206	0.427774
C21	C	0.784272	0.258082	-0.000083
C22	C	1.284272	0.758082	0.499917
C23	C	0.697169	0.246935	-0.000073
C24	C	1.197169	0.746935	0.499927
C25	C	0.932155	0.035581	-0.000102
C26	C	1.432155	0.535581	0.499898
C27	C	0.929862	-0.103171	-0.000099
C28	C	1.429862	0.396829	0.499901
C29	C	0.647507	0.354495	-0.000071
C30	C	1.147507	0.854495	0.499929
C31	C	0.565663	0.344013	-0.000084
C32	C	1.065663	0.844013	0.499916
C33	C	0.533484	0.225969	-0.000091
C34	C	1.033484	0.725969	0.499909
C35	C	0.583152	0.118400	-0.000096
C36	C	1.083152	0.618400	0.499904
C37	C	0.664994	0.128884	-0.000090
C38	C	1.164994	0.628884	0.499910
C39	C	0.289651	0.182519	-0.000116
C40	C	0.789651	0.682519	0.499884
C41	C	0.207803	0.172044	-0.000119
C42	C	0.707803	0.672044	0.499881
C43	C	0.190320	0.397657	-0.000108
C44	C	0.690320	0.897657	0.499892
C45	C	0.272164	0.408131	-0.000097
C46	C	0.772164	0.908131	0.499903
C47	C	0.321825	0.300562	-0.000106
C48	C	0.821825	0.800562	0.499894
N49	N	0.449827	0.215251	-0.000101
N50	N	0.949827	0.715251	0.499899
N51	N	0.405480	0.311280	-0.000103
N52	N	0.905480	0.811280	0.499897
C53	C	0.932049	-0.159651	0.074634
C54	C	1.432049	0.340349	0.574634
C55	C	0.929679	-0.303058	0.074639
C56	C	1.429679	0.196942	0.574639
C57	C	1.071037	0.268457	-0.000113
C58	C	1.571037	0.768457	0.499887
C59	C	1.158141	0.279604	-0.000117
C60	C	1.658141	0.779604	0.499883
C61	C	0.923155	0.490958	-0.000094
C62	C	1.423155	0.990958	0.499906
C63	C	0.925448	0.629710	-0.000091
C64	C	1.425448	1.129710	0.499909
N65	N	0.918846	0.248507	-0.205398
N66	N	1.418846	0.748507	0.294602
C67	C	0.964886	0.325758	-0.250792
C68	C	1.464886	0.825758	0.249208
C69	C	0.961004	0.319226	-0.341600
C70	C	1.461004	0.819226	0.158400
C71	C	0.911079	0.235449	-0.387012
C72	C	1.411079	0.735449	0.112988
C73	C	0.865038	0.158190	-0.341611
C74	C	1.365038	0.658190	0.158389
C75	C	0.868924	0.164717	-0.250805
C76	C	1.368924	0.664717	0.249195
C77	C	0.894315	0.207290	-0.658593
C78	C	1.394315	0.707290	-0.158593
C79	C	0.890430	0.200772	-0.749406
C80	C	1.390430	0.700772	-0.249406
C81	C	0.986398	0.361806	-0.749388
C82	C	1.486398	0.861806	-0.249388
C83	C	0.990277	0.368331	-0.658580
C84	C	1.490277	0.868331	-0.158580
C85	C	0.944239	0.291068	-0.613188
C86	C	1.444239	0.791068	-0.113188
N87	N	0.907108	0.228773	-0.479832
N88	N	1.407108	0.728773	0.020168
N89	N	0.948214	0.297738	-0.520369
N90	N	1.448214	0.797738	-0.020369
N91	N	0.936470	0.278022	0.205200
N92	N	1.436470	0.778022	0.705200
H93	H	0.673701	0.450619	-0.000064
H94	H	1.173701	0.950619	0.499936
H95	H	0.931551	-0.351651	0.138621
H96	H	1.431551	0.148349	0.638621
Br97	Br	0.922343	-0.289319	-0.106743
Br98	Br	1.422343	0.210681	0.393257
H99	H	0.525231	0.431600	-0.000081
H100	H	1.025231	0.931600	0.499919
H101	H	0.298359	0.504255	-0.000081
H102	H	0.798359	1.004255	0.499919
H103	H	0.926231	-0.160984	-0.064077
H104	H	1.426231	0.339016	0.435923
Br105	Br	1.032642	0.439465	-0.189170
Br106	Br	1.532642	0.939465	0.310830
H107	H	0.181606	0.075914	-0.000124
H108	H	0.681606	0.575914	0.499876
Br109	Br	0.122920	0.543635	-0.000097
Br110	Br	0.622920	1.043635	0.499903
Br111	Br	0.357038	0.036531	-0.000130
Br112	Br	0.857038	0.536531	0.499870
H113	H	0.998496	0.382129	-0.378556
H114	H	1.498496	0.882129	0.121444
Br115	Br	1.057996	0.482091	-0.596956
Br116	Br	1.557996	0.982091	-0.096956
Br117	Br	0.797284	0.044486	-0.403241
Br118	Br	1.297284	0.544486	0.096759
Br119	Br	0.806451	0.059856	-0.189198
Br120	Br	1.306451	0.559856	0.310802
H121	H	1.023880	0.424709	-0.786357
H122	H	1.523880	0.924709	-0.286357
H123	H	0.556944	0.022285	-0.000115
H124	H	1.056944	0.522285	0.499885
Br125	Br	0.822669	0.087068	-0.811037
Br126	Br	1.322669	0.587068	-0.311037
H127	H	0.856828	0.144376	-0.621646
H128	H	1.356828	0.644376	-0.121646
H129	H	0.935671	-0.101837	0.138613
H130	H	1.435671	0.398163	0.638613
Br131	Br	0.732393	-0.017098	-0.000100
Br132	Br	1.232393	0.482902	0.499900
