data_functionalizedCrystal
_audit_creation_method	'MofGen! by Chris Wilmer'
_symmetry_space_group_name_H-M	'P1'
_symmetry_Int_Tables_number	1
_symmetry_cell_setting	triclinic
loop_
_symmetry_equiv_pos_as_xyz
  x,y,z
_cell_length_a	14.395555
_cell_length_b	14.395555
_cell_length_c	14.395555
_cell_angle_alpha	59.995802
_cell_angle_beta	90.000325
_cell_angle_gamma	60.001260
loop_
_atom_site_label
_atom_site_type_symbol
_atom_site_fract_x
_atom_site_fract_y
_atom_site_fract_z
Zr1	Zr	0.894944	1.016759	-0.121877
O2	O	0.746618	1.210571	-0.270220
O3	O	0.940410	0.822959	-0.076400
O4	O	0.940414	1.016767	-0.270207
O5	O	0.746615	1.016753	0.076462
O6	O	1.093288	1.016760	-0.270198
O7	O	0.746614	1.016763	-0.076413
O8	O	1.093280	0.670072	0.076486
O9	O	0.746623	1.363441	-0.270222
O10	O	1.073893	0.902662	-0.057001
O11	O	0.959806	0.902660	0.057082
O12	O	0.959811	1.130844	-0.171100
O13	O	0.845724	1.130842	-0.057017
Zr14	Zr	1.138762	1.016733	0.121955
Zr15	Zr	1.138760	1.016748	-0.121864
Zr16	Zr	0.894946	1.016744	0.121942
Zr17	Zr	0.894951	1.260569	-0.121881
Zr18	Zr	1.138755	0.772923	0.121958
O19	O	1.093296	1.210533	0.076478
O20	O	1.093294	1.210556	-0.270201
O21	O	0.746621	1.210549	0.076459
O22	O	1.287088	0.822921	0.270297
O23	O	1.287085	0.822943	-0.076382
O24	O	0.940412	0.822936	0.270279
O25	O	1.287091	1.016739	-0.076385
O26	O	1.093292	1.016725	0.270284
O27	O	0.940418	1.016732	0.270276
O28	O	1.287092	1.016729	0.076491
O29	O	0.940424	1.363432	-0.270212
O30	O	1.093282	0.670060	0.270289
O31	O	1.287083	0.670051	0.270300
O32	O	1.287082	0.670064	0.076496
O33	O	0.746624	1.363428	-0.076419
O34	O	0.940426	1.363420	-0.076408
O35	O	1.073895	0.902648	0.171177
O36	O	1.187982	0.902650	0.057094
O37	O	1.073900	1.130832	-0.057005
O38	O	0.959813	1.130830	0.057079
C39	C	1.016844	0.711778	0.000043
C40	C	1.016841	0.608274	0.000045
C41	C	0.954639	0.547681	0.062252
C42	C	0.909556	0.561946	-0.045031
C43	C	1.061897	0.409613	0.107296
C44	C	0.971695	0.623966	-0.107301
C45	C	1.124095	0.471570	0.045103
C46	C	1.079039	0.485882	-0.062244
C47	C	0.711876	1.016760	0.000023
C48	C	0.608369	1.016764	0.000017
C49	C	0.485578	1.141179	-0.062185
C50	C	0.454740	1.078989	-0.107261
C51	C	0.454784	1.078950	0.045085
C52	C	0.578895	0.954573	-0.045122
C53	C	0.578935	0.954552	0.107283
C54	C	0.548171	0.892271	0.062234
C55	C	1.321830	1.016732	0.000055
C56	C	1.425337	1.016728	0.000060
C57	C	1.016851	1.016766	-0.304942
C58	C	1.016850	1.016772	-0.408449
C59	C	1.016862	1.321714	0.000034
C60	C	1.016865	1.425218	0.000033
C61	C	0.954648	1.141164	-0.593148
C62	C	0.909550	1.079004	-0.500120
C63	C	1.061895	1.078965	-0.500119
C64	C	0.971696	0.954558	-0.499807
C65	C	1.124101	0.954537	-0.499821
C66	C	1.079030	0.892286	-0.406775
C67	C	1.016855	1.016726	0.305019
C68	C	1.016856	1.016720	0.408526
C69	C	1.321821	0.711764	0.000060
C70	C	1.425325	0.608256	0.000067
C71	C	1.016846	0.711758	0.305024
C72	C	1.016844	0.608248	0.408533
C73	C	1.321823	0.711744	0.305040
C74	C	1.425328	0.608230	0.408554
C75	C	0.711883	1.321748	-0.304962
C76	C	0.608379	1.425262	-0.408477
C77	C	0.711885	1.321728	0.000018
C78	C	0.608381	1.425236	0.000011
C79	C	1.016860	1.321734	-0.304946
C80	C	1.016862	1.425244	-0.408455
C81	C	1.548118	0.547690	0.062247
C82	C	1.578975	0.409578	0.107305
C83	C	1.578885	0.561992	-0.045043
C84	C	1.454819	0.471444	0.045188
C85	C	1.454731	0.623932	-0.107220
C86	C	1.485515	0.485829	-0.062188
C87	C	0.954634	0.547666	0.406916
C88	C	1.061910	0.409554	0.499946
C89	C	0.909600	0.561894	0.499943
C90	C	1.124184	0.471437	0.500200
C91	C	0.971796	0.623850	0.500183
C92	C	1.079136	0.485747	0.593231
C93	C	1.423712	0.547613	0.531351
C94	C	1.516700	0.409511	0.562153
C95	C	1.516773	0.561783	0.562190
C96	C	1.516952	0.471429	0.437993
C97	C	1.517010	0.623775	0.438033
C98	C	1.610015	0.485682	0.468762
H99	H	0.933495	0.715540	-0.198050
H100	H	0.401280	1.131553	0.083182
H101	H	0.902109	0.574758	0.327150
H102	H	1.131623	0.787008	-0.327115
C103	C	0.883491	0.584475	0.133208
H104	H	0.930427	0.566628	0.194584
H105	H	0.822972	0.675304	0.086506
H106	H	0.853195	0.534173	0.162322
C107	C	1.515810	0.420975	0.365879
H108	H	1.581574	0.333691	0.401977
H109	H	1.449592	0.422126	0.358611
H110	H	1.515577	0.475978	0.292559
C111	C	0.920279	0.747665	0.498850
H112	H	0.975332	0.765678	0.499302
H113	H	0.855663	0.820155	0.432232
H114	H	0.898068	0.733540	0.564209
H115	H	0.818861	0.599138	-0.083153
H116	H	1.214781	0.901983	-0.500769
C117	C	1.651299	0.285764	0.229810
H118	H	1.658013	0.213604	0.236068
H119	H	1.724816	0.266844	0.247768
H120	H	1.615670	0.300463	0.281173
H121	H	1.401480	0.434026	0.083398
C122	C	0.651240	0.883586	0.229770
H123	H	0.607909	0.927926	0.261676
H124	H	0.673112	0.795651	0.274296
H125	H	0.717303	0.883433	0.228899
C126	C	0.582845	0.750028	0.133328
H127	H	0.553791	0.735517	0.194730
H128	H	0.552695	0.735999	0.086726
H129	H	0.663458	0.690809	0.162411
H130	H	1.099989	1.131582	-0.499238
C131	C	1.515723	0.747571	0.365774
H132	H	1.514747	0.780442	0.409137
H133	H	1.581786	0.726011	0.343911
H134	H	1.449815	0.812655	0.299703
H135	H	1.131639	0.458940	-0.114929
H136	H	0.901980	1.246354	-0.672938
C137	C	1.717596	0.449140	0.434123
H138	H	1.718238	0.416338	0.390784
H139	H	1.717718	0.524886	0.389733
H140	H	1.783209	0.383622	0.500494
H141	H	0.460137	1.246384	-0.114867
C142	C	0.787030	1.150056	-0.498886
H143	H	0.742928	1.238447	-0.564282
H144	H	0.754603	1.106713	-0.499316
H145	H	0.787974	1.148867	-0.432305
H146	H	1.459857	0.458817	-0.114803
C147	C	1.517926	0.285750	0.634411
H148	H	1.452555	0.307023	0.657435
H149	H	1.517449	0.253811	0.590601
H150	H	1.584524	0.220074	0.699792
H151	H	1.401197	0.715602	-0.197888
C152	C	1.582473	0.584267	0.133421
H153	H	1.625715	0.508831	0.209612
H154	H	1.626883	0.615750	0.102161
H155	H	1.516003	0.650773	0.132416
C156	C	1.518035	0.611979	0.634502
H157	H	1.452650	0.633080	0.657503
H158	H	1.584625	0.545646	0.699882
H159	H	1.517583	0.688203	0.590718
H160	H	1.632360	0.599233	-0.083157
C161	C	0.787073	0.612145	0.501164
H162	H	0.742978	0.633242	0.435775
H163	H	0.788001	0.545839	0.567757
H164	H	0.754642	0.688381	0.500686
H165	H	1.214769	0.434397	0.083250
C166	C	1.113395	0.285775	0.501217
H167	H	1.069104	0.307044	0.435842
H168	H	1.189157	0.253797	0.500767
H169	H	1.113661	0.220129	0.567818
C170	C	1.113380	0.285856	0.229834
H171	H	1.069088	0.307146	0.273929
H172	H	1.113674	0.220184	0.228920
H173	H	1.189138	0.253907	0.262262
C174	C	0.382429	1.150022	-0.229773
H175	H	0.375720	1.090836	-0.236040
H176	H	0.308911	1.222573	-0.247731
H177	H	0.418061	1.180466	-0.281130
C178	C	0.650963	0.883605	-0.096738
H179	H	0.716712	0.884092	-0.096476
H180	H	0.673361	0.795458	-0.052880
H181	H	0.607276	0.927508	-0.172720
C182	C	0.920081	0.883574	-0.500881
H183	H	0.920361	0.884030	-0.567101
H184	H	0.963925	0.795437	-0.435112
H185	H	0.844098	0.927490	-0.501118
H186	H	1.214926	0.434058	0.499381
H187	H	1.131824	0.458710	0.672866
H188	H	1.343952	0.574710	0.556788
