data_functionalizedCrystal
_audit_creation_method	'MofGen! by Chris Wilmer'
_symmetry_space_group_name_H-M	'P1'
_symmetry_Int_Tables_number	1
_symmetry_cell_setting	triclinic
loop_
_symmetry_equiv_pos_as_xyz
  x,y,z
_cell_length_a	10.489741
_cell_length_b	14.971486
_cell_length_c	13.448316
_cell_angle_alpha	90.001801
_cell_angle_beta	89.993703
_cell_angle_gamma	95.923349
loop_
_atom_site_label
_atom_site_type_symbol
_atom_site_fract_x
_atom_site_fract_y
_atom_site_fract_z
O1	O	0.166222	-1.187893	-0.082577
O2	O	0.186128	-0.927607	-0.082604
O3	O	-0.009491	-1.063673	-0.082584
O4	O	0.361841	-1.051827	-0.082597
O5	O	-0.009503	-1.063655	0.082800
O6	O	0.186116	-0.927589	0.082780
O7	O	0.166210	-1.187876	0.082807
Cu8	Cu	0.176162	-1.057731	0.097894
Cu9	Cu	0.176176	-1.057752	-0.097691
O10	O	0.361829	-1.051810	0.082787
C11	C	0.185232	-0.894268	0.000085
C12	C	0.182564	-0.794956	0.000074
C13	C	-0.057019	-1.062769	0.000107
C14	C	-0.198617	-1.060093	0.000105
C15	C	0.167106	-1.221215	0.000116
C16	C	0.169774	-1.320527	0.000120
C17	C	-0.265755	-0.973518	0.000089
C18	C	-0.358357	-1.014406	0.081636
C19	C	-0.358320	-1.014444	-0.081419
C20	C	-0.289354	-1.101017	0.081720
C21	C	-0.289307	-1.101043	-0.081409
C22	C	-0.381882	-1.141994	0.000158
C23	C	0.409357	-1.052713	0.000094
C24	C	0.550955	-1.055390	0.000089
N25	N	0.176151	-1.057723	0.235459
C26	C	0.297485	-0.738385	0.000072
C27	C	0.294971	-0.645071	0.000087
C28	C	0.177534	-0.608330	0.000097
C29	C	0.062604	-0.664909	0.000103
C30	C	0.065120	-0.758221	0.000095
C31	C	0.057369	-0.470416	0.000117
C32	C	0.054853	-0.377098	0.000123
C33	C	0.287220	-0.357267	0.000108
C34	C	0.289736	-0.450579	0.000101
C35	C	0.174805	-0.507151	0.000104
N36	N	0.176177	-1.057766	-0.235255
C37	C	0.089567	-1.117992	0.287508
C38	C	0.089566	-1.117998	0.391611
C39	C	0.176156	-1.057738	0.443663
C40	C	0.262745	-0.997462	0.391607
C41	C	0.262739	-0.997453	0.287505
C42	C	0.262753	-0.997487	0.608587
C43	C	0.262761	-0.997497	0.712695
C44	C	0.089580	-1.118032	0.712693
C45	C	0.089574	-1.118023	0.608591
C46	C	0.176165	-1.057748	0.556542
H47	H	-0.388950	-0.977767	0.150571
H48	H	-0.388855	-0.977809	-0.150368
C49	C	0.386554	-0.205424	0.000122
C50	C	0.413556	-0.295086	0.000106
H51	H	0.464547	-0.167035	0.000121
H52	H	0.338411	-0.194208	-0.057540
H53	H	0.338410	-0.194218	0.057807
H54	H	0.461692	-0.306293	-0.057583
H55	H	0.461720	-0.306306	0.057774
C56	C	0.426951	-0.528631	0.085097
C57	C	0.421293	-0.582884	0.000075
H58	H	0.504945	-0.490243	0.085089
H59	H	0.356658	-0.493402	0.085103
H60	H	0.423111	-0.565457	0.142760
H61	H	0.425124	-0.546058	-0.057589
H62	H	0.491606	-0.618117	0.000059
H63	H	-0.215280	-0.902336	0.000164
C64	C	-0.174581	-0.406068	0.000153
C65	C	-0.074233	-0.336710	0.000140
H66	H	-0.254272	-0.381132	0.000168
H67	H	-0.168774	-0.442050	-0.057518
H68	H	-0.168759	-0.442052	0.057828
H69	H	-0.080049	-0.300731	-0.057540
H70	H	-0.080043	-0.300714	0.057817
C71	C	-0.074591	-0.586861	-0.084903
C72	C	-0.068959	-0.532607	0.000118
H73	H	-0.152575	-0.625259	-0.084901
H74	H	-0.070744	-0.550043	-0.142561
H75	H	-0.004280	-0.622089	-0.084897
H76	H	-0.139265	-0.497375	0.000107
H77	H	-0.072819	-0.569429	0.057791
C78	C	0.526914	-0.709400	0.000069
C79	C	0.426577	-0.778765	0.000063
H80	H	0.606611	-0.734329	0.000072
H81	H	0.521106	-0.673417	-0.057597
H82	H	0.521082	-0.673419	0.057749
H83	H	0.432403	-0.814742	-0.057621
H84	H	0.432388	-0.814762	0.057735
C85	C	-0.115168	-1.152436	0.174084
C86	C	-0.248322	-1.150412	0.174899
H87	H	-0.089837	-1.182923	0.231613
H88	H	-0.090993	-1.182992	0.116262
H89	H	-0.074374	-1.092762	0.173843
H90	H	-0.289117	-1.210086	0.175133
H91	H	-0.272510	-1.119857	0.232737
C92	C	-0.164815	-0.768456	0.000093
C93	C	-0.061205	-0.820408	0.000089
H94	H	-0.242804	-0.806849	0.000085
H95	H	-0.160971	-0.731654	0.057765
H96	H	-0.160948	-0.731643	-0.057581
H97	H	-0.065067	-0.857217	0.057766
H98	H	-0.065052	-0.857225	-0.057590
H99	H	0.385363	-0.480489	0.000083
C100	C	-0.282357	-1.105008	-0.259787
C101	C	-0.247945	-1.150461	-0.174470
H102	H	-0.256810	-1.135510	-0.317244
H103	H	-0.372591	-1.103194	-0.260789
H104	H	-0.240986	-1.045498	-0.259196
H105	H	-0.289323	-1.209969	-0.175057
H106	H	-0.157694	-1.152285	-0.173469
C107	C	-0.081579	-1.237162	0.381152
C108	C	-0.005591	-1.184262	0.448823
H109	H	-0.140318	-1.278078	0.416474
H110	H	-0.127567	-1.199642	0.340567
H111	H	-0.028384	-1.269656	0.340531
H112	H	-0.058786	-1.151763	0.489440
H113	H	0.040399	-1.221787	0.489425
C114	C	-0.131117	-1.169168	0.744742
C115	C	-0.005606	-1.184291	0.769894
H116	H	-0.189872	-1.210080	0.780055
H117	H	-0.145114	-1.109398	0.761822
H118	H	-0.143488	-1.177785	0.675291
H119	H	0.006768	-1.175667	0.839345
H120	H	0.008396	-1.244075	0.752821
H121	H	-0.432131	-1.213239	0.000211
H122	H	-0.033015	-0.634987	0.000126
C123	C	0.433902	-0.878322	0.702247
C124	C	0.357918	-0.931242	0.769914
H125	H	0.492637	-0.837413	0.737574
H126	H	0.479894	-0.915831	0.661640
H127	H	0.380704	-0.845822	0.661648
H128	H	0.411116	-0.963748	0.810508
H129	H	0.311923	-0.893729	0.810538
H130	H	0.333261	-0.948402	0.566212
C131	C	0.290138	-0.875931	0.508703
C132	C	0.357925	-0.931224	0.448825
H133	H	0.348903	-0.835043	0.544030
H134	H	0.236979	-0.843414	0.468105
H135	H	0.238575	-0.911839	0.554596
H136	H	0.409481	-0.895316	0.402927
H137	H	0.411106	-0.963743	0.489427
C138	C	0.433932	-0.878320	0.297958
C139	C	0.357921	-0.931208	0.230289
H140	H	0.492697	-0.837425	0.262633
H141	H	0.380764	-0.845812	0.338570
H142	H	0.479901	-0.915858	0.338551
H143	H	0.311944	-0.893670	0.189700
H144	H	0.411096	-0.963718	0.189659
H145	H	0.019060	-1.167067	0.245134
H146	H	0.019072	-1.167095	0.566211
