data_functionalizedCrystal
_audit_creation_method	'MofGen! by Chris Wilmer'
_symmetry_space_group_name_H-M	'P1'
_symmetry_Int_Tables_number	1
_symmetry_cell_setting	triclinic
loop_
_symmetry_equiv_pos_as_xyz
  x,y,z
_cell_length_a	16.109301
_cell_length_b	15.186229
_cell_length_c	16.109304
_cell_angle_alpha	89.997472
_cell_angle_beta	83.462059
_cell_angle_gamma	90.002891
loop_
_atom_site_label
_atom_site_type_symbol
_atom_site_fract_x
_atom_site_fract_y
_atom_site_fract_z
O1	O	1.103135	0.073167	0.106861
O2	O	1.436468	0.406501	0.440195
O3	O	1.769802	0.739834	0.773528
O4	O	0.861073	0.073181	0.120161
O5	O	1.194406	0.406514	0.453494
O6	O	1.527740	0.739847	0.786827
O7	O	0.988752	0.073174	-0.007520
O8	O	1.322086	0.406507	0.325814
O9	O	1.655419	0.739841	0.659147
O10	O	0.975456	0.073174	0.234542
O11	O	1.308789	0.406507	0.567875
O12	O	1.642122	0.739841	0.901209
O13	O	0.988737	-0.073283	-0.007513
O14	O	1.322071	0.260050	0.325821
O15	O	1.655404	0.593384	0.659154
O16	O	0.861058	-0.073277	0.120168
O17	O	1.194391	0.260057	0.453501
O18	O	1.527725	0.593390	0.786835
O19	O	1.103120	-0.073290	0.106869
O20	O	1.436453	0.260043	0.440202
O21	O	1.769787	0.593377	0.773535
Zn22	Zn	0.982087	-0.096537	0.113519
Zn23	Zn	1.315420	0.236797	0.446853
Zn24	Zn	1.648753	0.570130	0.780186
Zn25	Zn	0.982106	0.096427	0.113510
Zn26	Zn	1.315440	0.429761	0.446843
Zn27	Zn	1.648773	0.763094	0.780177
O28	O	0.975441	-0.073283	0.234549
O29	O	1.308774	0.260050	0.567882
O30	O	1.642107	0.593383	0.901216
C31	C	0.830091	-0.000046	0.119626
C32	C	1.163424	0.333287	0.452959
C33	C	1.496757	0.666620	0.786292
C34	C	0.737795	-0.000041	0.118010
C35	C	1.071129	0.333292	0.451344
C36	C	1.404462	0.666626	0.784677
N37	N	0.982079	-0.228229	0.113525
N38	N	1.315413	0.105104	0.446859
N39	N	1.648746	0.438437	0.780192
C40	C	0.988206	-0.000052	-0.038491
C41	C	1.321539	0.333281	0.294842
C42	C	1.654873	0.666614	0.628176
C43	C	0.986590	-0.000046	-0.130786
C44	C	1.319923	0.333287	0.202547
C45	C	1.653257	0.666620	0.535880
C46	C	0.515524	-0.000051	0.190018
C47	C	0.848857	0.333282	0.523351
C48	C	1.182190	0.666615	0.856685
C49	C	0.428803	-0.000057	0.188494
C50	C	0.762137	0.333276	0.521827
C51	C	1.095470	0.666610	0.855161
C52	C	0.448676	-0.000053	0.037005
C53	C	0.782009	0.333280	0.370339
C54	C	1.115343	0.666614	0.703672
C55	C	0.535395	-0.000054	0.038530
C56	C	0.868728	0.333280	0.371864
C57	C	1.202062	0.666613	0.705197
C58	C	0.568816	-0.000048	0.115039
C59	C	0.902149	0.333285	0.448372
C60	C	1.235483	0.666618	0.781706
C61	C	0.395377	-0.000053	0.111990
C62	C	0.728710	0.333280	0.445324
C63	C	1.062044	0.666613	0.778657
C64	C	0.301351	-0.000059	0.110337
C65	C	0.634684	0.333274	0.443670
C66	C	0.968018	0.666607	0.777004
C67	C	0.662848	-0.000044	0.116693
C68	C	0.996181	0.333290	0.450026
C69	C	1.329515	0.666623	0.783359
C70	C	1.134102	-0.000061	0.107404
C71	C	1.467436	0.333272	0.440737
C72	C	1.800769	0.666606	0.774070
C73	C	1.226398	-0.000061	0.109019
C74	C	1.559731	0.333273	0.442352
C75	C	1.893064	0.666606	0.775686
C76	C	1.032504	-0.453955	0.163954
C77	C	1.365837	-0.120622	0.497287
C78	C	1.699170	0.212712	0.830620
C79	C	1.032513	-0.546145	0.163948
C80	C	1.365846	-0.212811	0.497281
C81	C	1.699179	0.120522	0.830614
C82	C	0.931694	-0.546148	0.063063
C83	C	1.265027	-0.212815	0.396397
C84	C	1.598361	0.120519	0.729730
C85	C	0.931690	-0.453960	0.063066
C86	C	1.265023	-0.120627	0.396399
C87	C	1.598357	0.212707	0.729732
C88	C	0.982093	-0.407866	0.113515
C89	C	1.315427	-0.074532	0.446849
C90	C	1.648760	0.258801	0.780182
C91	C	0.982106	-0.592243	0.113507
C92	C	1.315440	-0.258910	0.446841
C93	C	1.648773	0.074423	0.780174
C94	C	0.982116	-0.692200	0.113501
C95	C	1.315449	-0.358866	0.446834
C96	C	1.648782	-0.025533	0.780167
C97	C	0.982085	-0.307903	0.113521
C98	C	1.315419	0.025430	0.446855
C99	C	1.648752	0.358763	0.780188
N100	N	0.982120	0.228120	0.113497
N101	N	1.315454	0.561453	0.446831
N102	N	1.648787	0.894787	0.780164
C103	C	0.982864	0.079784	-0.343128
C104	C	1.316198	0.413118	-0.009794
C105	C	1.649531	0.746451	0.323539
C106	C	0.981338	0.079784	-0.429848
C107	C	1.314672	0.413117	-0.096514
C108	C	1.648005	0.746450	0.236819
C109	C	0.981326	-0.079892	-0.429837
C110	C	1.314660	0.253441	-0.096503
C111	C	1.647993	0.586775	0.236830
C112	C	0.982846	-0.079890	-0.343117
C113	C	1.316180	0.253443	-0.009784
C114	C	1.649513	0.586776	0.323549
C115	C	0.983620	-0.000050	-0.299766
C116	C	1.316953	0.333284	0.033568
C117	C	1.650286	0.666617	0.366901
C118	C	0.980573	-0.000052	-0.473205
C119	C	1.313907	0.333281	-0.139872
C120	C	1.647240	0.666615	0.193462
C121	C	0.978919	-0.000053	-0.567231
C122	C	1.312252	0.333280	-0.233898
C123	C	1.645585	0.666613	0.099436
C124	C	0.985273	-0.000048	-0.205734
C125	C	1.318606	0.333285	0.127600
C126	C	1.651939	0.666619	0.460933
C127	C	0.975987	-0.000055	0.265520
C128	C	1.309320	0.333278	0.598854
C129	C	1.642654	0.666612	0.932187
C130	C	0.977603	-0.000055	0.357816
C131	C	1.310937	0.333278	0.691149
C132	C	1.644270	0.666612	1.024482
H133	H	0.542732	-0.000053	0.252316
H134	H	0.876065	0.333280	0.585650
H135	H	1.209399	0.666613	0.918983
Cl136	Cl	1.095890	-0.604081	0.227357
Cl137	Cl	1.429223	-0.270748	0.560691
Cl138	Cl	1.762557	0.062585	0.894024
Cl139	Cl	1.095874	-0.396011	0.227369
Cl140	Cl	1.429208	-0.062678	0.560702
Cl141	Cl	1.762541	0.270655	0.894036
Cl142	Cl	0.868327	-0.604101	-0.000349
Cl143	Cl	1.201660	-0.270768	0.332984
Cl144	Cl	1.534994	0.062566	0.666318
Cl145	Cl	0.980387	0.180151	-0.484356
Cl146	Cl	1.313720	0.513485	-0.151023
Cl147	Cl	1.647054	0.846818	0.182311
H148	H	0.385416	-0.000061	0.249550
H149	H	0.718749	0.333272	0.582883
H150	H	1.052082	0.666606	0.916216
Cl151	Cl	0.406654	-0.000054	-0.059172
Cl152	Cl	0.739988	0.333279	0.274162
Cl153	Cl	1.073321	0.666613	0.607495
Cl154	Cl	0.868310	-0.396015	-0.000346
Cl155	Cl	1.201643	-0.062681	0.332987
Cl156	Cl	1.534977	0.270652	0.666321
H157	H	0.983492	0.144796	-0.307833
H158	H	1.316825	0.478129	0.025501
H159	H	1.650158	0.811463	0.358834
H160	H	0.980698	-0.144896	-0.465145
H161	H	1.314032	0.188438	-0.131811
H162	H	1.647365	0.521771	0.201522
Cl163	Cl	0.602396	-0.000057	-0.055737
Cl164	Cl	0.935730	0.333276	0.277597
Cl165	Cl	1.269063	0.666610	0.610930
H166	H	0.983457	-0.144905	-0.307811
H167	H	1.316790	0.188429	0.025523
H168	H	1.650123	0.521762	0.358856
