data_functionalizedCrystal
_audit_creation_method	'MofGen! by Chris Wilmer'
_symmetry_space_group_name_H-M	'P1'
_symmetry_Int_Tables_number	1
_symmetry_cell_setting	triclinic
loop_
_symmetry_equiv_pos_as_xyz
  x,y,z
_cell_length_a	10.540539
_cell_length_b	16.109301
_cell_length_c	15.186229
_cell_angle_alpha	90.005167
_cell_angle_beta	90.000217
_cell_angle_gamma	96.006514
loop_
_atom_site_label
_atom_site_type_symbol
_atom_site_fract_x
_atom_site_fract_y
_atom_site_fract_z
O1	O	1.684215	-0.117165	-0.073159
O2	O	1.314645	-0.128205	-0.073177
O3	O	1.509582	-0.001716	-0.073159
O4	O	1.489277	-0.243654	-0.073178
O5	O	1.509569	-0.001714	0.073299
O6	O	1.314632	-0.128203	0.073280
O7	O	1.684202	-0.117163	0.073298
Zn8	Zn	1.499415	-0.122683	0.096542
Zn9	Zn	1.499432	-0.122685	-0.096421
O10	O	1.489264	-0.243652	0.073280
C11	C	1.267347	-0.127376	0.000049
C12	C	1.126434	-0.124899	0.000043
C13	C	1.731500	-0.117992	0.000070
C14	C	1.872413	-0.120469	0.000070
C15	C	1.508753	0.029265	0.000070
C16	C	1.506287	0.121575	0.000071
C17	C	2.054486	-0.215379	0.000372
C18	C	1.907904	-0.212868	0.000056
C19	C	1.934686	-0.076003	-0.083565
C20	C	2.081185	-0.079157	-0.083650
C21	C	2.081767	-0.077276	0.082899
C22	C	1.934797	-0.076425	0.084019
C23	C	1.490093	-0.274633	0.000049
C24	C	1.492559	-0.366943	0.000042
N25	N	1.499412	-0.122681	0.228235
C26	C	1.616226	0.343175	0.000063
C27	C	1.613899	0.429910	0.000055
C28	C	1.382612	0.411450	0.000048
C29	C	1.384940	0.324717	0.000049
C30	C	1.501751	0.290582	0.000061
C31	C	1.497096	0.464050	0.000052
C32	C	1.494572	0.558091	0.000044
C33	C	1.504275	0.196535	0.000067
N34	N	1.499444	-0.122681	-0.228114
C35	C	1.585760	-0.066691	0.453966
C36	C	1.585764	-0.066689	0.546156
C37	C	1.413087	-0.178673	0.546148
C38	C	1.413078	-0.178671	0.453960
C39	C	1.499422	-0.122680	0.407872
C40	C	1.499435	-0.122681	0.592249
C41	C	1.499439	-0.122679	0.692205
C42	C	1.499417	-0.122681	0.307909
H43	H	2.082581	-0.251879	0.060340
H44	H	1.656064	-0.021099	0.416443
H45	H	1.656067	-0.021096	0.583683
H46	H	1.342790	-0.224261	0.583683
H47	H	1.342765	-0.224265	0.416428
H48	H	1.893412	-0.108918	0.145892
H49	H	1.864814	-0.247860	0.060007
H50	H	1.865633	-0.248100	-0.059997
O51	O	1.725185	0.480913	-0.000057
C52	C	1.796096	0.465336	-0.075915
H53	H	1.764902	0.399735	-0.101201
H54	H	1.778763	0.512865	-0.129033
C55	C	1.977420	0.553305	-0.021809
C56	C	1.939114	0.472730	-0.052862
H57	H	2.065641	0.557869	-0.007591
H58	H	1.929645	0.563802	0.029296
H59	H	1.962965	0.592903	-0.066079
H60	H	1.953554	0.433134	-0.008588
H61	H	1.986895	0.462226	-0.103959
H62	H	2.084161	-0.251730	-0.059275
O63	O	2.114487	-0.118319	-0.158208
C64	C	2.247600	-0.121709	-0.159243
H65	H	2.295648	-0.070134	-0.115518
H66	H	2.270280	-0.184983	-0.133526
C67	C	2.238451	-0.172957	-0.307883
C68	C	2.297466	-0.109606	-0.254185
H69	H	2.269212	-0.165495	-0.366448
H70	H	2.148770	-0.170676	-0.307185
H71	H	2.257356	-0.225679	-0.286442
H72	H	2.278547	-0.056886	-0.275620
H73	H	2.387146	-0.111877	-0.254888
O74	O	1.729659	0.309977	0.000221
C75	C	1.737922	0.260350	0.076061
H76	H	1.671598	0.281253	0.129078
H77	H	1.708621	0.192135	0.058913
C78	C	1.957578	0.244379	0.045335
C79	C	1.876126	0.270057	0.110454
H80	H	2.042829	0.250362	0.066549
H81	H	1.952011	0.277811	-0.005762
H82	H	1.933145	0.187535	0.031050
H83	H	1.900549	0.326902	0.124730
H84	H	1.881700	0.236634	0.161555
H85	H	1.287509	0.439253	0.000040
O86	O	1.883218	-0.112732	-0.157843
C87	C	1.825410	-0.053338	-0.207951
H88	H	1.800504	-0.000607	-0.163169
H89	H	1.894254	-0.026942	-0.261318
C90	C	1.733500	-0.160115	-0.306089
C91	C	1.702900	-0.095352	-0.251086
H92	H	1.657934	-0.186031	-0.332701
H93	H	1.772451	-0.200130	-0.272333
H94	H	1.790873	-0.138108	-0.350554
H95	H	1.645543	-0.117361	-0.206616
H96	H	1.663938	-0.055342	-0.284836
O97	O	1.273850	0.273503	0.000008
C98	C	1.300957	0.189631	0.000029
H99	H	1.400662	0.185720	-0.027694
H100	H	1.296132	0.164585	0.070291
C101	C	1.079938	0.141936	-0.023364
C102	C	1.202395	0.137132	-0.057420
H103	H	1.019138	0.109550	-0.058798
H104	H	1.061674	0.198441	-0.023375
H105	H	1.075936	0.121065	0.035187
H106	H	1.206400	0.158012	-0.115966
H107	H	1.220657	0.080628	-0.057420
O108	O	1.908946	0.004900	-0.087316
C109	C	1.775842	0.007885	-0.090994
H110	H	1.728228	-0.053790	-0.117742
H111	H	1.738111	0.018862	-0.022070
C112	C	1.804211	0.155381	-0.119134
C113	C	1.745733	0.079633	-0.151993
H114	H	1.785637	0.199641	-0.156757
H115	H	1.893886	0.153371	-0.116652
H116	H	1.772763	0.164517	-0.061697
H117	H	1.777193	0.070494	-0.209423
H118	H	1.656062	0.081643	-0.154485
O119	O	2.118959	-0.113072	0.158435
C120	C	2.186050	-0.181733	0.137531
H121	H	2.157602	-0.205487	0.068868
H122	H	2.292970	-0.161562	0.139191
C123	C	2.188275	-0.222723	0.289543
C124	C	2.153326	-0.251901	0.205212
H125	H	2.168095	-0.266005	0.331293
H126	H	2.143079	-0.176463	0.303627
H127	H	2.277374	-0.205913	0.290914
H128	H	2.064227	-0.268700	0.203839
H129	H	2.198507	-0.298166	0.191129
O130	O	1.907135	0.003950	0.090213
C131	C	1.964960	0.041003	0.166337
H132	H	1.983225	-0.009739	0.215671
H133	H	2.059343	0.077966	0.147787
C134	C	1.853522	0.162410	0.147313
C135	C	1.875946	0.100089	0.207909
H136	H	1.798619	0.198860	0.172955
H137	H	1.814568	0.137449	0.096025
H138	H	1.932182	0.193204	0.131860
H139	H	1.797289	0.069290	0.223353
H140	H	1.914886	0.125046	0.259201
H141	H	2.130100	-0.012705	-0.087456
H142	H	2.129940	-0.010536	0.083462
