data_functionalizedCrystal
_audit_creation_method	'MofGen! by Chris Wilmer'
_symmetry_space_group_name_H-M	'P1'
_symmetry_Int_Tables_number	1
_symmetry_cell_setting	triclinic
loop_
_symmetry_equiv_pos_as_xyz
  x,y,z
_cell_length_a	15.297475
_cell_length_b	21.295417
_cell_length_c	15.296720
_cell_angle_alpha	99.639335
_cell_angle_beta	91.617114
_cell_angle_gamma	80.331503
loop_
_atom_site_label
_atom_site_type_symbol
_atom_site_fract_x
_atom_site_fract_y
_atom_site_fract_z
Zn1	Zn	1.253322	-0.489899	-0.726527
Zn2	Zn	1.753322	0.010101	-0.226527
Zn3	Zn	1.278570	-0.580539	-0.580029
Zn4	Zn	1.778570	-0.080539	-0.080029
Zn5	Zn	1.132206	-0.454537	-0.554773
Zn6	Zn	1.632206	0.045463	-0.054773
Zn7	Zn	1.106797	-0.574351	-0.701159
Zn8	Zn	1.606797	-0.074351	-0.201159
O9	O	1.192724	-0.524831	-0.640622
O10	O	1.692724	-0.024831	-0.140622
O11	O	1.379247	-0.519311	-0.728280
O12	O	1.879247	-0.019311	-0.228280
O13	O	1.280354	-0.551615	-0.454106
O14	O	1.780354	-0.051615	0.045894
O15	O	1.148339	-0.371152	-0.577603
O16	O	1.648339	0.128848	-0.077603
O17	O	1.397796	-0.585904	-0.620649
O18	O	1.897796	-0.085904	-0.120649
O19	O	1.237323	-0.397133	-0.703790
O20	O	1.737323	0.102867	-0.203790
O21	O	1.172821	-0.459042	-0.435550
O22	O	1.672821	0.040958	0.064450
O23	O	1.006260	-0.453042	-0.553004
O24	O	1.506260	0.046958	-0.053004
O25	O	1.105034	-0.575358	-0.827097
O26	O	1.605034	-0.075358	-0.327097
O27	O	0.987593	-0.541069	-0.660554
O28	O	1.487593	-0.041069	-0.160554
O29	O	1.212686	-0.513312	-0.845734
O30	O	1.712686	-0.013312	-0.345734
O31	O	1.255717	-0.667793	-0.596050
O32	O	1.755717	-0.167793	-0.096050
O33	O	1.129516	-0.663248	-0.685044
O34	O	1.629516	-0.163248	-0.185044
C35	C	0.965144	-0.492547	-0.601286
C36	C	1.465144	0.007453	-0.101286
C37	C	0.867781	-0.478753	-0.584479
C38	C	1.367781	0.021247	-0.084479
C39	C	1.192620	-0.688363	-0.640558
C40	C	1.692620	-0.188363	-0.140558
C41	C	1.192651	-0.758337	-0.640574
C42	C	1.692651	-0.258337	-0.140574
C43	C	0.554611	-0.623425	-0.760748
C44	C	1.054611	-0.123425	-0.260748
C45	C	0.646089	-0.636390	-0.776537
C46	C	1.146089	-0.136390	-0.276537
C47	C	0.701516	-0.596982	-0.728524
C48	C	1.201516	-0.096982	-0.228524
C49	C	0.665457	-0.544607	-0.664719
C50	C	1.165457	-0.044607	-0.164719
C51	C	0.573971	-0.531644	-0.648924
C52	C	1.073971	-0.031644	-0.148924
C53	C	0.720876	-0.505200	-0.616700
C54	C	1.220876	-0.005200	-0.116700
C55	C	0.684816	-0.452825	-0.552895
C56	C	1.184816	0.047175	-0.052895
C57	C	0.593339	-0.439865	-0.537103
C58	C	1.093339	0.060135	-0.037103
C59	C	0.537912	-0.479273	-0.585116
C60	C	1.037912	0.020727	-0.085116
C61	C	0.812362	-0.518163	-0.632495
C62	C	1.312362	-0.018163	-0.132495
C63	C	0.831721	-0.426382	-0.520671
C64	C	1.331721	0.073618	-0.020671
C65	C	0.740243	-0.413417	-0.504882
C66	C	1.240243	0.086583	-0.004882
C67	C	1.238945	-0.804673	-0.706314
C68	C	1.738945	-0.304673	-0.206314
C69	C	1.238973	-0.870423	-0.706341
C70	C	1.738973	-0.370423	-0.206341
C71	C	1.192717	-0.889832	-0.640614
C72	C	1.692717	-0.389832	-0.140614
C73	C	1.146412	-0.843485	-0.574868
C74	C	1.646412	-0.343485	-0.074868
C75	C	1.146379	-0.777737	-0.574848
C76	C	1.646379	-0.277737	-0.074848
N77	N	1.199377	-0.984508	-0.562817
N78	N	1.699377	-0.484508	-0.062817
N79	N	1.199413	-1.046967	-0.562840
N80	N	1.699413	-0.546967	-0.062840
C81	C	1.192812	-1.087925	-0.640671
C82	C	1.692812	-0.587925	-0.140671
N83	N	1.186191	-1.064068	-0.718484
N84	N	1.686191	-0.564068	-0.218484
N85	N	1.186159	-1.001604	-0.718462
N86	N	1.686159	-0.501604	-0.218462
C87	C	1.192747	-0.961123	-0.640629
C88	C	1.692747	-0.461123	-0.140629
C89	C	1.239139	-1.205555	-0.706446
C90	C	1.739139	-0.705555	-0.206446
C91	C	1.239159	-1.271305	-0.706473
C92	C	1.739159	-0.771305	-0.206473
C93	C	1.146605	-1.244366	-0.574993
C94	C	1.646605	-0.744366	-0.074993
C95	C	1.146578	-1.178618	-0.574973
C96	C	1.646578	-0.678618	-0.074973
C97	C	1.192850	-1.159217	-0.640699
C98	C	1.692850	-0.659217	-0.140699
C99	C	1.421192	-0.557242	-0.680112
C100	C	1.921192	-0.057242	-0.180112
C101	C	1.518552	-0.571054	-0.696940
C102	C	2.018552	-0.071054	-0.196940
C103	C	1.153209	-0.547589	-0.869086
C104	C	1.653209	-0.047589	-0.369086
C105	C	1.136371	-0.557287	-0.966444
C106	C	1.636371	-0.057287	-0.466444
C107	C	1.192849	-0.360667	-0.640709
C108	C	1.692849	0.139333	-0.140709
C109	C	1.192902	-0.290710	-0.640746
C110	C	1.692902	0.209290	-0.140746
C111	C	1.313105	-0.455413	-1.279696
C112	C	1.813105	0.044587	-0.779696
C113	C	1.328932	-0.446303	-1.188224
C114	C	1.828932	0.053697	-0.688224
C115	C	1.280793	-0.474048	-1.132775
C116	C	1.780793	0.025952	-0.632775
C117	C	1.216825	-0.510905	-1.168805
C118	C	1.716825	-0.010905	-0.668805
C119	C	1.201002	-0.520020	-1.260287
C120	C	1.701002	-0.020020	-0.760287
C121	C	1.168689	-0.538655	-1.113366
C122	C	1.668689	-0.038655	-0.613366
C123	C	1.104721	-0.575512	-1.149396
C124	C	1.604721	-0.075512	-0.649396
C125	C	1.088901	-0.584625	-1.240869
C126	C	1.588901	-0.084625	-0.740869
C127	C	1.137040	-0.556880	-1.296318
C128	C	1.637040	-0.056880	-0.796318
C129	C	1.184512	-0.529540	-1.021884
C130	C	1.684512	-0.029540	-0.521884
C131	C	1.072409	-0.594147	-1.002475
C132	C	1.572409	-0.094147	-0.502475
C133	C	1.056583	-0.603257	-1.093947
C134	C	1.556583	-0.103257	-0.593947
C135	C	1.232135	-0.502124	-0.413055
C136	C	1.732135	-0.002124	0.086945
C137	C	1.249143	-0.492273	-0.315727
C138	C	1.749143	0.007727	0.184273
H139	H	0.841712	-0.560807	-0.684446
H140	H	1.341712	-0.060807	-0.184446
C141	C	1.254870	-0.488993	-0.982260
C142	C	1.754870	0.011007	-0.482260
N143	N	1.307865	-0.458449	-0.952416
N144	N	1.807865	0.041551	-0.452416
H145	H	0.509476	-0.655509	-0.799828
H146	H	1.009476	-0.155509	-0.299828
H147	H	0.463421	-0.468719	-0.572266
H148	H	0.963421	0.031281	-0.072266
H149	H	0.776001	-0.607540	-0.741383
H150	H	1.276001	-0.107540	-0.241383
H151	H	1.276620	-0.788880	-0.759834
H152	H	1.776620	-0.288880	-0.259834
C153	C	0.553676	-0.382252	-0.466914
C154	C	1.053676	0.117748	0.033086
N155	N	0.523804	-0.338856	-0.414050
N156	N	1.023804	0.161144	0.085950
H157	H	1.033212	-0.616741	-0.957328
H158	H	1.533212	-0.116741	-0.457328
C159	C	0.700566	-0.355808	-0.434695
C160	C	1.200566	0.144192	0.065305
N161	N	0.670680	-0.312417	-0.381830
N162	N	1.170680	0.187583	0.118170
H163	H	0.675443	-0.679034	-0.828485
H164	H	1.175443	-0.179034	-0.328485
C165	C	1.290024	-1.184212	-0.778755
C166	C	1.790024	-0.684212	-0.278755
N167	N	1.328349	-1.168138	-0.833221
N168	N	1.828349	-0.668138	-0.333221
H169	H	1.276857	-1.309033	-0.760011
H170	H	1.776857	-0.809033	-0.260011
C171	C	1.095708	-1.265712	-0.502702
C172	C	1.595708	-0.765712	-0.002702
N173	N	1.057366	-1.281792	-0.448255
N174	N	1.557366	-0.781792	0.051745
H175	H	1.004499	-0.633266	-1.123296
H176	H	1.504499	-0.133266	-0.623296
C177	C	1.366046	-0.424894	-1.340694
C178	C	1.866046	0.075106	-0.840694
N179	N	1.405922	-0.401904	-1.386639
N180	N	1.905922	0.098096	-0.886639
H181	H	0.876851	-0.394293	-0.481574
H182	H	1.376851	0.105707	0.018426
C183	C	1.095570	-0.864838	-0.502540
C184	C	1.595570	-0.364838	-0.002540
N185	N	1.057287	-0.880921	-0.448052
N186	N	1.557287	-0.380921	0.051948
H187	H	1.124158	-0.564295	-1.370803
H188	H	1.624158	-0.064295	-0.870803
H189	H	1.276662	-0.908157	-0.759884
H190	H	1.776662	-0.408157	-0.259884
H191	H	1.108679	-0.740007	-0.521314
H192	H	1.608679	-0.240007	-0.021314
H193	H	1.108885	-1.140887	-0.521438
H194	H	1.608885	-0.640887	-0.021438
C195	C	1.399286	-0.405755	-1.148596
C196	C	1.899286	0.094245	-0.648596
N197	N	1.452278	-0.375209	-1.118747
N198	N	1.952278	0.124791	-0.618747
H199	H	1.293682	-0.466628	-1.058295
H200	H	1.793682	0.033372	-0.558295
C201	C	1.018538	-0.625172	-1.280501
C202	C	1.518538	-0.125172	-0.780501
N203	N	0.965539	-0.655711	-1.310349
N204	N	1.465539	-0.155711	-0.810349
