data_functionalizedCrystal
_audit_creation_method	'MofGen! by Chris Wilmer'
_symmetry_space_group_name_H-M	'P1'
_symmetry_Int_Tables_number	1
_symmetry_cell_setting	triclinic
loop_
_symmetry_equiv_pos_as_xyz
  x,y,z
_cell_length_a	14.853569
_cell_length_b	14.853568
_cell_length_c	13.930277
_cell_angle_alpha	90.002819
_cell_angle_beta	90.003399
_cell_angle_gamma	96.364624
loop_
_atom_site_label
_atom_site_type_symbol
_atom_site_fract_x
_atom_site_fract_y
_atom_site_fract_z
O1	O	1.196356	-0.117715	-0.079777
O2	O	0.933897	-0.131735	-0.079787
O3	O	1.072137	0.006505	-0.079787
O4	O	1.058116	-0.255955	-0.079778
O5	O	1.072141	0.006518	0.079875
O6	O	0.933901	-0.131722	0.079875
O7	O	1.196360	-0.117702	0.079885
Zn8	Zn	1.065132	-0.124710	0.105230
Zn9	Zn	1.065126	-0.124727	-0.105132
O10	O	1.058120	-0.255942	0.079884
C11	C	0.900310	-0.131093	0.000042
C12	C	0.800227	-0.129189	0.000038
C13	C	1.071504	0.040100	0.000041
C14	C	1.069599	0.140183	0.000031
C15	C	0.763850	-0.046178	0.000031
C16	C	0.742561	-0.210410	0.000048
C17	C	0.648527	-0.208624	0.000049
C18	C	0.612150	-0.125613	0.000043
C19	C	0.669807	-0.044389	0.000035
C20	C	0.590862	-0.289847	0.000066
C21	C	0.496822	-0.288064	0.000068
C22	C	0.460444	-0.205052	0.000055
C23	C	0.518107	-0.123824	0.000047
C24	C	0.481730	-0.040813	0.000040
C25	C	0.539393	0.040415	0.000025
C26	C	0.633429	0.038623	0.000022
C27	C	0.366407	-0.203259	0.000058
C28	C	0.387688	-0.039024	0.000044
C29	C	0.979433	0.552718	0.000040
C30	C	1.143666	0.573998	0.000046
C31	C	1.145456	0.479964	0.000042
C32	C	1.064233	0.422303	0.000038
C33	C	0.981221	0.458675	0.000038
C34	C	1.228467	0.443584	0.000051
C35	C	1.230261	0.349545	0.000048
C36	C	1.149037	0.291882	0.000037
C37	C	1.066021	0.328260	0.000037
C38	C	0.984799	0.270598	0.000033
C39	C	0.901782	0.306974	0.000025
C40	C	0.899997	0.401012	0.000028
C41	C	1.150822	0.197845	0.000035
C42	C	0.986587	0.176556	0.000032
C43	C	1.229947	-0.118344	0.000053
C44	C	1.330030	-0.120249	0.000052
C45	C	1.058753	0.710463	0.000051
C46	C	1.060655	0.610379	0.000043
N47	N	1.065122	-0.124732	-0.248698
C48	C	1.003790	-0.185815	-0.298961
C49	C	1.126458	-0.063644	-0.298939
C50	C	1.126462	-0.063635	-0.399435
C51	C	1.065130	-0.124718	-0.449699
C52	C	1.003794	-0.185810	-0.399466
C53	C	1.187803	-0.002551	-0.449675
C54	C	1.187810	-0.002540	-0.550177
C55	C	1.126473	-0.063619	-0.600442
C56	C	1.065134	-0.124712	-0.550204
C57	C	1.003802	-0.185795	-0.600467
C58	C	0.942458	-0.246885	-0.550231
C59	C	0.942458	-0.246889	-0.449732
C60	C	1.126474	-0.063615	-0.700941
C61	C	1.003806	-0.185790	-0.700972
N62	N	1.065142	-0.124698	0.248796
H63	H	0.358078	0.028574	0.000034
H64	H	1.297858	0.319937	0.000053
H65	H	0.892514	-0.296627	-0.408823
F66	F	0.877192	-0.311897	-0.603735
H67	H	1.176423	-0.013880	-0.741839
H68	H	1.176397	-0.013917	-0.258012
F69	F	1.314903	0.504955	0.000073
H70	H	0.920444	0.129613	0.000024
H71	H	0.680385	0.104755	0.000012
H72	H	0.953842	-0.235551	-0.258056
F73	F	1.253079	0.062450	-0.396181
F74	F	0.435462	-0.374513	0.000079
F75	F	1.253095	0.062479	-0.603633
H76	H	0.620488	-0.357430	0.000077
F77	F	1.239168	0.159134	0.000058
F78	F	0.305044	-0.289702	0.000084
F79	F	0.825217	0.040267	0.000013
F80	F	1.230103	0.635366	0.000064
H81	H	0.772185	-0.277994	0.000060
F82	F	0.500667	0.128759	0.000027
H83	H	0.953859	-0.235528	-0.741891
F84	F	0.815342	0.245596	0.000029
F85	F	0.811653	0.439732	0.000017
F86	F	0.891085	0.591431	0.000023
