data_functionalizedCrystal
_audit_creation_method	'MofGen! by Chris Wilmer'
_symmetry_space_group_name_H-M	'P1'
_symmetry_Int_Tables_number	1
_symmetry_cell_setting	triclinic
loop_
_symmetry_equiv_pos_as_xyz
  x,y,z
_cell_length_a	15.995300
_cell_length_b	17.038274
_cell_length_c	15.500227
_cell_angle_alpha	86.974526
_cell_angle_beta	87.154472
_cell_angle_gamma	92.708204
loop_
_atom_site_label
_atom_site_type_symbol
_atom_site_fract_x
_atom_site_fract_y
_atom_site_fract_z
O1	O	1.121816	-0.096958	-0.071992
O2	O	1.455150	0.236375	0.261342
O3	O	1.788483	0.569709	0.594675
O4	O	0.878924	-0.109444	-0.071988
O5	O	1.212258	0.223889	0.261345
O6	O	1.545591	0.557223	0.594678
O7	O	0.998925	0.010613	-0.071966
O8	O	1.332259	0.343947	0.261367
O9	O	1.665592	0.677280	0.594701
O10	O	1.001815	-0.217015	-0.072014
O11	O	1.335149	0.116318	0.261319
O12	O	1.668482	0.449651	0.594653
O13	O	0.991641	0.003357	0.071921
O14	O	1.324975	0.336690	0.405255
O15	O	1.658308	0.670023	0.738588
O16	O	0.871640	-0.116701	0.071899
O17	O	1.204974	0.216633	0.405232
O18	O	1.538307	0.549966	0.738566
O19	O	1.114532	-0.104215	0.071896
O20	O	1.447866	0.229119	0.405229
O21	O	1.781199	0.562452	0.738562
Cu22	Cu	0.992421	-0.111120	0.085035
Cu23	Cu	1.325755	0.222213	0.418369
Cu24	Cu	1.659088	0.555546	0.751702
Cu25	Cu	1.001035	-0.102538	-0.085128
Cu26	Cu	1.334369	0.230795	0.248205
Cu27	Cu	1.667702	0.564128	0.581539
O28	O	0.994531	-0.224272	0.071873
O29	O	1.327865	0.109061	0.405207
O30	O	1.661198	0.442395	0.738540
C31	C	0.844051	-0.112563	-0.000044
C32	C	1.177384	0.220770	0.333289
C33	C	1.510717	0.554103	0.666623
C34	C	0.750989	-0.111037	-0.000042
C35	C	1.084323	0.222297	0.333292
C36	C	1.417656	0.555630	0.666625
C37	C	0.580606	-0.108217	-0.000048
C38	C	0.913939	0.225117	0.333286
C39	C	1.247272	0.558450	0.666619
C40	C	0.539230	-0.193700	-0.000064
C41	C	0.872563	0.139633	0.333270
C42	C	1.205897	0.472967	0.666603
C43	C	0.442448	-0.192124	-0.000392
C44	C	0.775781	0.141209	0.332941
C45	C	1.109114	0.474543	0.666275
C46	C	0.412851	-0.105442	-0.000053
C47	C	0.746185	0.227892	0.333281
C48	C	1.079518	0.561225	0.666614
C49	C	0.455114	-0.058894	-0.082048
C50	C	0.788447	0.274439	0.251285
C51	C	1.121781	0.607772	0.584618
C52	C	0.551905	-0.061054	-0.082115
C53	C	0.885238	0.272279	0.251218
C54	C	1.218571	0.605612	0.584551
C55	C	0.543810	-0.068041	0.081517
C56	C	0.877143	0.265292	0.414851
C57	C	1.210477	0.598625	0.748184
C58	C	0.446812	-0.068103	0.082593
C59	C	0.780145	0.265230	0.415926
C60	C	1.113479	0.598563	0.749260
C61	C	0.318044	-0.103868	-0.000058
C62	C	0.651378	0.229465	0.333275
C63	C	0.984711	0.562798	0.666608
C64	C	0.675413	-0.109787	-0.000048
C65	C	1.008746	0.223546	0.333286
C66	C	1.342080	0.556880	0.666619
C67	C	0.992657	0.036113	-0.000018
C68	C	1.325990	0.369446	0.333315
C69	C	1.659324	0.702780	0.666649
C70	C	0.984822	0.122906	-0.000005
C71	C	1.318155	0.456239	0.333328
C72	C	1.651488	0.789573	0.666662
C73	C	1.056751	0.173014	0.000002
C74	C	1.390084	0.506348	0.333335
C75	C	1.723417	0.839681	0.666668
C76	C	1.049384	0.254565	0.000006
C77	C	1.382717	0.587899	0.333339
C78	C	1.716051	0.921232	0.666673
C79	C	0.970087	0.286006	0.000009
C80	C	1.303421	0.619339	0.333343
C81	C	1.636754	0.952672	0.666676
C82	C	0.898153	0.235891	-0.000000
C83	C	1.231487	0.569225	0.333333
C84	C	1.564820	0.902558	0.666667
C85	C	0.905521	0.154342	-0.000010
C86	C	1.238854	0.487676	0.333323
C87	C	1.572188	0.821009	0.666656
C88	C	0.944059	0.531764	0.000035
C89	C	1.277392	0.865098	0.333368
C90	C	1.610726	1.198431	0.666702
C91	C	0.936697	0.613320	0.000048
C92	C	1.270030	0.946653	0.333381
C93	C	1.603363	1.279986	0.666715
C94	C	1.087928	0.631988	0.000052
C95	C	1.421262	0.965321	0.333386
C96	C	1.754595	1.298655	0.666719
C97	C	1.095289	0.550436	0.000047
C98	C	1.428622	0.883770	0.333381
C99	C	1.761956	1.217103	0.666714
C100	C	1.023355	0.500329	0.000033
C101	C	1.356688	0.833663	0.333367
C102	C	1.690022	1.166996	0.666700
C103	C	0.962555	0.369364	0.000016
C104	C	1.295889	0.702697	0.333350
C105	C	1.629222	1.036030	0.666683
C106	C	1.030888	0.416973	0.000020
C107	C	1.364221	0.750307	0.333353
C108	C	1.697555	1.083640	0.666687
C109	C	1.149406	-0.101095	-0.000051
C110	C	1.482739	0.232238	0.333283
C111	C	1.816073	0.565571	0.666616
C112	C	1.242468	-0.102622	-0.000059
C113	C	1.575801	0.230712	0.333275
C114	C	1.909135	0.564045	0.666608
N115	N	0.986369	-0.117156	0.204719
N116	N	1.319702	0.216177	0.538053
N117	N	1.653035	0.549511	0.871386
C118	C	1.000797	0.750226	-0.000039
C119	C	1.334131	1.083560	0.333295
C120	C	1.667464	1.416893	0.666628
C121	C	1.008626	0.663428	0.000055
C122	C	1.341959	0.996761	0.333388
C123	C	1.675292	1.330095	0.666722
N124	N	1.007094	-0.096497	-0.204812
N125	N	1.340428	0.236837	0.128521
N126	N	1.673761	0.570170	0.461855
C127	C	1.037237	-0.066302	0.250005
C128	C	1.370571	0.267031	0.583339
C129	C	1.703904	0.600364	0.916672
C130	C	1.032668	-0.070874	0.340577
C131	C	1.366001	0.262459	0.673911
C132	C	1.699335	0.595793	1.007244
C133	C	0.977234	-0.126304	0.385862
C134	C	1.310567	0.207029	0.719195
C135	C	1.643900	0.540363	1.052528
C136	C	0.926359	-0.177160	0.340569
C137	C	1.259693	0.156173	0.673902
C138	C	1.593026	0.489507	1.007236
C139	C	0.930925	-0.172584	0.249999
C140	C	1.264258	0.160750	0.583332
C141	C	1.597592	0.494083	0.916665
C142	C	0.960785	-0.142776	0.659325
C143	C	1.294119	0.190557	0.992659
C144	C	1.627452	0.523890	1.325992
C145	C	0.956225	-0.147350	0.749902
C146	C	1.289559	0.185983	1.083235
C147	C	1.622892	0.519316	1.416569
C148	C	1.062534	-0.041063	0.749904
C149	C	1.395867	0.292270	1.083237
C150	C	1.729200	0.625604	1.416571
C151	C	1.067098	-0.036495	0.659332
C152	C	1.400431	0.296839	0.992665
C153	C	1.733765	0.630172	1.325999
C154	C	1.016220	-0.087348	0.614047
C155	C	1.349554	0.245985	0.947381
C156	C	1.682887	0.579319	1.280714
C157	C	0.972564	-0.130980	0.478441
C158	C	1.305897	0.202353	0.811774
C159	C	1.639230	0.535686	1.145107
C160	C	1.020887	-0.082667	0.521470
C161	C	1.354220	0.250666	0.854803
C162	C	1.687553	0.583999	1.188137
H163	H	0.557192	-0.231019	0.058726
H164	H	0.890526	0.102315	0.392059
H165	H	1.223859	0.435648	0.725392
H166	H	0.897991	0.394972	0.000021
H167	H	1.231325	0.728305	0.333354
H168	H	1.564658	1.061638	0.666688
H169	H	0.571061	-0.005055	0.082319
H170	H	0.904394	0.328278	0.415653
H171	H	1.237727	0.661611	0.748986
F172	F	0.582770	-0.096948	-0.162551
F173	F	0.916103	0.236385	0.170783
F174	F	1.249436	0.569718	0.504116
H175	H	0.872120	0.638914	0.000065
H176	H	1.205453	0.972247	0.333398
H177	H	1.538787	1.305581	0.666731
H178	H	1.107956	0.295361	0.000014
H179	H	1.441290	0.628694	0.333347
H180	H	1.774623	0.962027	0.666680
H181	H	1.082382	-0.021169	0.213141
H182	H	1.415715	0.312165	0.546474
H183	H	1.749048	0.645498	0.879807
H184	H	1.121322	0.147422	0.000004
H185	H	1.454656	0.480755	0.333338
H186	H	1.787989	0.814089	0.666671
H187	H	1.074089	-0.029465	0.377449
H188	H	1.407422	0.303869	0.710782
H189	H	1.740755	0.637202	1.044115
H190	H	0.431901	-0.084881	-0.143312
H191	H	0.765234	0.248452	0.190021
H192	H	1.098568	0.581786	0.523355
H193	H	0.419957	-0.222323	-0.059526
H194	H	0.753290	0.111010	0.273807
H195	H	1.086624	0.444343	0.607141
H196	H	0.418608	-0.102134	0.143255
H197	H	0.751941	0.231199	0.476588
H198	H	1.085274	0.564533	0.809921
H199	H	1.112237	0.008641	0.622463
H200	H	1.445570	0.341974	0.955797
H201	H	1.778904	0.675307	1.289130
F202	F	1.179688	0.516983	0.000022
F203	F	1.513022	0.850316	0.333355
F204	F	1.846355	1.183649	0.666688
F205	F	1.115279	0.383510	0.000011
F206	F	1.448612	0.716844	0.333345
F207	F	1.781945	1.050177	0.666678
H208	H	0.564222	-0.224580	-0.058789
H209	H	0.897556	0.108753	0.274545
H210	H	1.230889	0.442086	0.607878
H211	H	0.911082	-0.192491	0.786768
H212	H	1.244415	0.140842	1.120102
H213	H	1.577749	0.474175	1.453435
H214	H	0.919360	-0.184185	0.622462
H215	H	1.252694	0.149149	0.955795
H216	H	1.586027	0.482482	1.289128
H217	H	1.103955	0.000340	0.786783
H218	H	1.437288	0.333674	1.120116
H219	H	1.770621	0.667007	1.453450
F220	F	0.867499	0.478447	0.000018
F221	F	1.200833	0.811780	0.333351
F222	F	1.534166	1.145114	0.666684
F223	F	0.404456	-0.239561	0.076413
F224	F	0.737789	0.093772	0.409746
F225	F	1.071123	0.427106	0.743080
F226	F	1.164480	0.685321	0.000066
F227	F	1.497813	1.018654	0.333399
F228	F	1.831147	1.351988	0.666733
F229	F	1.079879	-0.023674	0.473274
F230	F	1.413212	0.309660	0.806607
F231	F	1.746546	0.642993	1.139941
H232	H	0.881219	-0.222290	0.377445
H233	H	1.214552	0.111044	0.710778
H234	H	1.547886	0.444377	1.044111
F235	F	0.813760	0.269355	-0.000006
F236	F	1.147093	0.602689	0.333327
F237	F	1.480426	0.936022	0.666660
F238	F	0.876780	-0.226708	0.201803
F239	F	1.210114	0.106626	0.535137
F240	F	1.543447	0.439959	0.868470
H241	H	0.927429	-0.176114	0.515319
H242	H	1.260763	0.157220	0.848652
H243	H	1.594096	0.490553	1.181985
F244	F	0.588477	0.021221	-0.086673
F245	F	0.921810	0.354554	0.246660
F246	F	1.255143	0.687888	0.579994
H247	H	0.436618	0.004952	-0.084854
H248	H	0.769951	0.338285	0.248479
H249	H	1.103285	0.671619	0.581812
H250	H	0.426707	-0.005156	0.087800
H251	H	0.760041	0.328178	0.421134
H252	H	1.093374	0.661511	0.754467
F253	F	0.569112	-0.108925	0.162777
F254	F	0.902445	0.224409	0.496111
F255	F	1.235778	0.557742	0.829444
H256	H	0.846948	0.113544	-0.000016
H257	H	1.180282	0.446877	0.333317
H258	H	1.513615	0.780211	0.666650
