data_functionalizedCrystal
_audit_creation_method	'MofGen! by Chris Wilmer'
_symmetry_space_group_name_H-M	'P1'
_symmetry_Int_Tables_number	1
_symmetry_cell_setting	triclinic
loop_
_symmetry_equiv_pos_as_xyz
  x,y,z
_cell_length_a	15.625020
_cell_length_b	14.185569
_cell_length_c	10.654560
_cell_angle_alpha	103.283453
_cell_angle_beta	84.354809
_cell_angle_gamma	94.305604
loop_
_atom_site_label
_atom_site_type_symbol
_atom_site_fract_x
_atom_site_fract_y
_atom_site_fract_z
O1	O	1.081421	0.476843	0.326493
O2	O	0.840366	0.389147	0.316134
O3	O	0.966432	0.435008	0.139199
O4	O	0.955355	0.430983	0.503429
O5	O	1.003673	0.281721	0.086937
O6	O	0.877607	0.235860	0.263872
O7	O	1.118662	0.323557	0.274231
Cu8	Cu	1.001535	0.265712	0.264280
Cu9	Cu	0.957493	0.446992	0.326086
O10	O	0.992596	0.277696	0.451167
C11	C	0.828120	0.301275	0.285291
C12	C	0.736149	0.267815	0.271235
C13	C	0.626816	0.137105	0.222935
C14	C	0.713235	0.168555	0.236147
C15	C	0.672646	0.335665	0.293117
C16	C	0.586222	0.304230	0.279904
C17	C	0.563315	0.204949	0.244814
C18	C	0.522721	0.372073	0.301783
C19	C	0.436304	0.340639	0.288577
C20	C	0.413389	0.241362	0.253492
C21	C	0.476899	0.173515	0.231608
C22	C	0.545629	0.471354	0.336881
C23	C	0.482127	0.539197	0.358760
C24	C	0.395710	0.507764	0.345545
C25	C	0.372795	0.408487	0.310461
C26	C	0.332200	0.575611	0.367429
C27	C	0.245784	0.544178	0.354223
C28	C	0.286378	0.377053	0.297255
N29	N	1.032517	0.138212	0.220809
C30	C	0.835490	-0.301114	0.497211
C31	C	0.858964	-0.397595	0.464291
C32	C	0.970619	-0.356938	0.307681
C33	C	0.947151	-0.260452	0.340583
C34	C	0.879586	-0.232548	0.435350
C35	C	0.991247	-0.191886	0.278722
C36	C	0.967784	-0.095407	0.311627
C37	C	0.900223	-0.067494	0.406393
C38	C	0.856123	-0.136069	0.468255
C39	C	1.058815	-0.219791	0.183963
C40	C	1.102912	-0.151225	0.122102
C41	C	1.079444	-0.054746	0.155000
C42	C	1.011884	-0.026833	0.249765
C43	C	1.123545	0.013829	0.093138
C44	C	1.100082	0.110308	0.126042
C45	C	0.988421	0.069646	0.282670
C46	C	1.130907	0.411431	0.305075
C47	C	1.222877	0.444897	0.319134
N48	N	0.926517	0.574494	0.369548
C49	C	0.984237	0.358070	0.066179
C50	C	0.981797	0.357187	-0.073537
C51	C	0.998673	0.272384	-0.298950
C52	C	1.000955	0.273213	-0.167670
C53	C	0.960348	0.440333	-0.110688
C54	C	0.958061	0.439501	-0.241966
C55	C	1.017841	0.188408	-0.393079
C56	C	1.039288	0.105261	-0.355937
C57	C	1.041570	0.106090	-0.224657
C58	C	1.022404	0.190067	-0.130519
C59	C	0.974791	0.354636	0.524188
C60	C	0.977229	0.355525	0.663906
H61	H	0.615995	0.496944	0.347641
C62	C	1.146276	-0.253537	-0.083653
C63	C	1.177172	-0.181909	0.017929
H64	H	1.192120	-0.272475	-0.147971
H65	H	1.123380	-0.308172	-0.051511
H66	H	1.102384	-0.228535	-0.120384
H67	H	1.221060	-0.206913	0.054666
H68	H	1.200081	-0.127264	-0.014217
H69	H	0.691309	0.416501	0.321692
H70	H	0.343022	0.215770	0.242747
H71	H	1.178562	-0.008902	0.015987
H72	H	1.077919	-0.298351	0.157180
C73	C	0.783138	0.038943	0.084849
C74	C	0.783044	0.093978	0.212084
H75	H	0.826239	-0.007090	0.069996
H76	H	0.728400	0.006016	0.071975
H77	H	0.794854	0.080583	0.026286
H78	H	0.771322	0.052339	0.270648
H79	H	0.837795	0.126907	0.224970
C80	C	1.074573	0.258581	-0.570786
C81	C	1.015316	0.187498	-0.537379
H82	H	1.073012	0.258016	-0.659871
H83	H	1.060089	0.320479	-0.520038
H84	H	1.130809	0.245444	-0.555124
H85	H	0.959079	0.200639	-0.553032
H86	H	1.029795	0.125585	-0.588143
C87	C	0.596574	0.661591	0.404292
C88	C	0.507313	0.648325	0.397322
H89	H	0.612120	0.728964	0.428088
H90	H	0.613173	0.630278	0.467201
H91	H	0.624964	0.634541	0.322303
H92	H	0.478923	0.675369	0.479314
H93	H	0.490706	0.679651	0.334409
C94	C	1.085694	0.262608	0.067902
C95	C	1.024906	0.190977	0.013788
H96	H	1.087235	0.263172	0.156990
H97	H	1.140887	0.249094	0.024189
H98	H	1.070174	0.324140	0.059243
H99	H	1.040428	0.129444	0.022438
H100	H	0.969701	0.204485	0.057514
C101	C	0.770566	-0.006226	0.588221
C102	C	0.781846	-0.105388	0.572412
H103	H	0.724709	0.012712	0.652514
H104	H	0.822071	0.029730	0.614286
H105	H	0.757254	0.006126	0.508586
H106	H	0.795164	-0.117739	0.652046
H107	H	0.730330	-0.141356	0.546354
H108	H	1.135991	0.166137	0.075669
C109	C	1.005804	-0.061965	-0.227662
C110	C	1.065140	0.014695	-0.183829
H111	H	1.020363	-0.118389	-0.202464
H112	H	0.949626	-0.045040	-0.190936
H113	H	1.007194	-0.074464	-0.319317
H114	H	1.063746	0.027200	-0.092172
H115	H	1.121333	-0.002232	-0.220549
H116	H	0.944744	0.508703	-0.034032
H117	H	0.350864	0.656446	0.396012
H118	H	1.054885	0.036887	-0.432591
H119	H	0.194078	0.599423	0.372043
H120	H	0.933397	0.092363	0.359829
H121	H	0.881123	0.011067	0.433186
C122	C	0.918100	0.604757	-0.172462
C123	C	0.934450	0.530876	-0.282802
H124	H	0.903514	0.661164	-0.197675
H125	H	0.871641	0.584041	-0.118931
H126	H	0.968067	0.619181	-0.125960
H127	H	0.884482	0.516447	-0.329299
H128	H	0.980914	0.551596	-0.336353
H129	H	0.823050	-0.453420	0.514676
C130	C	0.171928	0.254663	0.251712
C131	C	0.261189	0.267920	0.258679
H132	H	0.156379	0.187293	0.227893
H133	H	0.143543	0.281701	0.333694
H134	H	0.155330	0.285994	0.188806
H135	H	0.277787	0.236596	0.321592
H136	H	0.289584	0.240871	0.176685
C137	C	0.525697	0.011465	0.176604
C138	C	0.451711	0.064382	0.193029
H139	H	0.510144	-0.055905	0.152795
H140	H	0.564450	0.029342	0.110498
H141	H	0.552666	0.025060	0.255390
H142	H	0.424746	0.050792	0.114239
H143	H	0.412943	0.046498	0.259139
C144	C	0.780864	-0.288655	0.718739
C145	C	0.761219	-0.270427	0.601377
H146	H	0.735016	-0.269701	0.783044
H147	H	0.788514	-0.355921	0.707996
H148	H	0.832378	-0.252688	0.744779
H149	H	0.709708	-0.306400	0.575332
H150	H	0.753558	-0.203149	0.612119
C151	C	1.025212	-0.369390	0.086155
C152	C	1.044876	-0.387622	0.203504
H153	H	1.071056	-0.388329	0.021840
H154	H	0.973704	-0.405356	0.060127
H155	H	1.017553	-0.302115	0.096913
H156	H	1.052529	-0.454899	0.192749
H157	H	1.096399	-0.351657	0.229538
H158	H	0.608164	0.056260	0.194377
