data_functionalizedCrystal
_audit_creation_method	'MofGen! by Chris Wilmer'
_symmetry_space_group_name_H-M	'P1'
_symmetry_Int_Tables_number	1
_symmetry_cell_setting	triclinic
loop_
_symmetry_equiv_pos_as_xyz
  x,y,z
_cell_length_a	15.995300
_cell_length_b	17.038274
_cell_length_c	14.472310
_cell_angle_alpha	90.008499
_cell_angle_beta	89.985388
_cell_angle_gamma	92.708204
loop_
_atom_site_label
_atom_site_type_symbol
_atom_site_fract_x
_atom_site_fract_y
_atom_site_fract_z
O1	O	1.118188	-0.100585	-0.076892
O2	O	0.875296	-0.113071	-0.076889
O3	O	0.995298	0.006987	-0.076865
O4	O	0.998186	-0.220644	-0.076916
O5	O	0.995266	0.006980	0.076817
O6	O	0.875264	-0.113078	0.076793
O7	O	1.118155	-0.100592	0.076790
Cu8	Cu	0.996707	-0.106836	0.090824
Cu9	Cu	0.996745	-0.106828	-0.090923
O10	O	0.998154	-0.220651	0.076766
C11	C	0.844048	-0.112565	-0.000047
C12	C	0.750987	-0.111039	-0.000044
C13	C	0.580603	-0.108219	-0.000051
C14	C	0.539227	-0.193703	-0.000068
C15	C	0.442428	-0.192144	-0.000419
C16	C	0.412849	-0.105444	-0.000056
C17	C	0.450979	-0.063029	-0.087634
C18	C	0.547766	-0.065192	-0.087705
C19	C	0.547918	-0.063934	0.087066
C20	C	0.450974	-0.063942	0.088215
C21	C	0.318041	-0.103871	-0.000062
C22	C	0.675411	-0.109789	-0.000051
C23	C	0.992656	0.036112	-0.000019
C24	C	0.984822	0.122906	-0.000005
C25	C	1.056751	0.173014	0.000002
C26	C	1.049384	0.254565	0.000006
C27	C	0.970088	0.286006	0.000010
C28	C	0.898153	0.235891	-0.000000
C29	C	0.905520	0.154342	-0.000011
C30	C	0.944061	0.531766	0.000037
C31	C	0.936699	0.613322	0.000051
C32	C	1.087931	0.631991	0.000056
C33	C	1.095291	0.550439	0.000050
C34	C	1.023357	0.500331	0.000035
C35	C	0.962556	0.369364	0.000018
C36	C	1.030889	0.416974	0.000021
C37	C	1.149404	-0.101098	-0.000054
C38	C	1.242465	-0.102625	-0.000063
C39	C	1.000795	0.750224	-0.000041
C40	C	1.008628	0.663431	0.000059
N41	N	0.996686	-0.106841	0.218655
N42	N	0.996772	-0.106816	-0.218754
C43	C	0.996744	-0.106824	0.592746
C44	C	0.932287	-0.170850	0.553567
C45	C	0.932463	-0.171083	0.446479
C46	C	0.996714	-0.106833	0.407155
C47	C	1.085349	-0.124636	0.445986
C48	C	1.084994	-0.125091	0.553107
C49	C	0.973332	-0.024806	0.553294
C50	C	0.971367	-0.025353	0.446167
C51	C	0.996703	-0.106836	0.302267
C52	C	0.996761	-0.106823	0.697634
H53	H	0.432342	0.000676	-0.090630
H54	H	1.146496	0.672797	0.000066
H55	H	0.909788	-0.007683	0.580367
Br56	Br	1.117901	-0.224786	0.594717
Br57	Br	0.398916	-0.247700	0.104187
H58	H	0.431132	-0.000732	0.093777
H59	H	0.416957	-0.225323	-0.063578
Br60	Br	0.575945	-0.250109	-0.104608
Br61	Br	0.594111	0.039429	-0.093912
Br62	Br	1.147008	0.322568	0.000016
Br63	Br	1.164373	0.130353	0.000010
Br64	Br	0.407239	-0.111554	-0.196699
Br65	Br	0.829075	0.655991	0.000066
H66	H	0.575209	-0.000908	0.087923
H67	H	1.014818	0.024523	0.419403
H68	H	1.134765	-0.080296	0.579022
H69	H	0.570409	-0.092081	0.153467
Br70	Br	0.409062	-0.115565	0.196209
H71	H	0.906137	-0.011842	0.420789
H72	H	1.020269	0.022840	0.578630
Br73	Br	1.167610	-0.048977	0.403537
Br74	Br	0.581957	-0.116129	-0.197256
H75	H	1.159863	0.524846	0.000048
Br76	Br	0.957922	-0.271730	0.598373
H77	H	0.885486	0.490978	0.000025
Br78	Br	0.574701	-0.251206	0.104138
H79	H	1.105414	-0.183769	0.419135
H80	H	0.866766	-0.160478	0.420227
H81	H	0.833588	0.261497	-0.000003
Br82	Br	0.807898	0.086335	-0.000029
Br83	Br	0.958351	-0.272540	0.403722
Br84	Br	0.854942	0.412041	0.000014
H85	H	1.095452	0.391372	-0.000002
H86	H	0.866393	-0.160420	0.579359
