data_functionalizedCrystal
_audit_creation_method	'MofGen! by Chris Wilmer'
_symmetry_space_group_name_H-M	'P1'
_symmetry_Int_Tables_number	1
_symmetry_cell_setting	triclinic
loop_
_symmetry_equiv_pos_as_xyz
  x,y,z
_cell_length_a	16.959455
_cell_length_b	16.959454
_cell_length_c	19.805399
_cell_angle_alpha	89.977613
_cell_angle_beta	89.980097
_cell_angle_gamma	90.019023
loop_
_atom_site_label
_atom_site_type_symbol
_atom_site_fract_x
_atom_site_fract_y
_atom_site_fract_z
Zn1	Zn	1.208409	-0.314722	-0.382750
Zn2	Zn	1.708409	0.185278	0.117250
Zn3	Zn	1.208324	-0.446904	-0.269572
Zn4	Zn	1.708324	0.053096	0.230428
Zn5	Zn	1.076230	-0.314741	-0.269574
Zn6	Zn	1.576230	0.185259	0.230426
Zn7	Zn	1.076202	-0.446860	-0.382718
Zn8	Zn	1.576202	0.053140	0.117282
O9	O	1.142291	-0.380807	-0.326154
O10	O	1.642291	0.119193	0.173846
O11	O	1.319008	-0.332267	-0.367749
O12	O	1.819008	0.167733	0.132251
O13	O	1.190777	-0.429399	-0.174856
O14	O	1.690777	0.070601	0.325144
O15	O	1.093811	-0.204128	-0.284601
O16	O	1.593811	0.295872	0.215399
O17	O	1.318946	-0.429381	-0.284598
O18	O	1.818946	0.070619	0.215402
O19	O	1.190922	-0.204114	-0.367751
O20	O	1.690922	0.295886	0.132249
O21	O	1.093728	-0.332300	-0.174857
O22	O	1.593728	0.167700	0.325143
O23	O	0.965615	-0.332257	-0.284570
O24	O	1.465615	0.167743	0.215430
O25	O	1.093763	-0.429305	-0.477439
O26	O	1.593763	0.070695	0.022561
O27	O	0.965595	-0.429324	-0.367697
O28	O	1.465595	0.070676	0.132303
O29	O	1.190895	-0.332224	-0.477462
O30	O	1.690895	0.167776	0.022538
O31	O	1.190750	-0.557509	-0.284567
O32	O	1.690750	-0.057509	0.215433
O33	O	1.093681	-0.557477	-0.367695
O34	O	1.593681	-0.057477	0.132305
C35	C	0.936925	-0.380788	-0.326131
C36	C	1.436925	0.119212	0.173869
C37	C	0.849068	-0.380799	-0.326137
C38	C	1.349068	0.119201	0.173863
C39	C	0.807781	-0.330189	-0.282926
C40	C	1.307781	0.169811	0.217074
C41	C	0.807801	-0.431415	-0.369358
C42	C	1.307801	0.068585	0.130642
C43	C	0.725255	-0.431424	-0.369368
C44	C	1.225255	0.068576	0.130632
C45	C	0.683969	-0.380814	-0.326157
C46	C	1.183969	0.119186	0.173843
C47	C	0.725228	-0.330194	-0.282936
C48	C	1.225228	0.169806	0.217064
C49	C	0.683990	-0.482037	-0.412592
C50	C	1.183990	0.017963	0.087408
C51	C	0.601439	-0.482048	-0.412605
C52	C	1.101439	0.017952	0.087395
C53	C	0.560151	-0.431441	-0.369390
C54	C	1.060151	0.068559	0.130610
C55	C	0.601415	-0.380820	-0.326167
C56	C	1.101415	0.119180	0.173833
C57	C	0.560128	-0.330209	-0.282956
C58	C	1.060128	0.169791	0.217044
C59	C	0.601391	-0.279592	-0.239729
C60	C	1.101391	0.220408	0.260271
C61	C	0.683940	-0.279587	-0.239721
C62	C	1.183940	0.220413	0.260279
C63	C	0.477602	-0.431445	-0.369398
C64	C	0.977602	0.068555	0.130602
C65	C	0.477575	-0.330215	-0.282966
C66	C	0.977575	0.169785	0.217034
C67	C	1.142225	-0.586173	-0.326142
C68	C	1.642225	-0.086173	0.173858
C69	C	1.142269	-0.674030	-0.326160
C70	C	1.642269	-0.174030	0.173840
C71	C	1.091820	-1.045518	-0.369434
C72	C	1.591820	-0.545518	0.130566
C73	C	1.192982	-1.045492	-0.282942
C74	C	1.692982	-0.545492	0.217058
C75	C	1.192954	-0.962947	-0.282936
C76	C	1.692954	-0.462947	0.217064
C77	C	1.142358	-0.921683	-0.326179
C78	C	1.642358	-0.421683	0.173821
C79	C	1.091789	-0.962965	-0.369427
C80	C	1.591789	-0.462965	0.130573
C81	C	1.243516	-0.921658	-0.239683
C82	C	1.743516	-0.421658	0.260317
C83	C	1.243490	-0.839107	-0.239675
C84	C	1.743490	-0.339107	0.260325
C85	C	1.192897	-0.797842	-0.282921
C86	C	1.692897	-0.297842	0.217079
C87	C	1.142327	-0.839129	-0.326172
C88	C	1.642327	-0.339129	0.173828
C89	C	1.091731	-0.797865	-0.369415
C90	C	1.591731	-0.297865	0.130585
C91	C	1.041164	-0.839151	-0.412670
C92	C	1.541164	-0.339151	0.087330
C93	C	1.041196	-0.921700	-0.412674
C94	C	1.541196	-0.421700	0.087326
C95	C	1.192865	-0.715294	-0.282917
C96	C	1.692865	-0.215294	0.217083
C97	C	1.091700	-0.715312	-0.369408
C98	C	1.591700	-0.215312	0.130592
C99	C	1.348459	-0.380827	-0.326177
C100	C	1.848459	0.119173	0.173823
C101	C	1.436316	-0.380835	-0.326187
C102	C	1.936316	0.119165	0.173813
C103	C	1.142335	-0.380757	-0.502696
C104	C	1.642335	0.119243	-0.002696
C105	C	1.142354	-0.380736	-0.577928
C106	C	1.642354	0.119264	-0.077928
C107	C	1.142379	-0.174639	-0.326180
C108	C	1.642379	0.325361	0.173820
C109	C	1.142416	-0.086782	-0.326191
C110	C	1.642416	0.413218	0.173809
C111	C	1.192932	-0.330183	-0.613286
C112	C	1.692932	0.169817	-0.113286
C113	C	1.192940	-0.330160	-0.683974
C114	C	1.692940	0.169840	-0.183974
C115	C	1.142374	-0.380695	-0.719304
C116	C	1.642374	0.119305	-0.219304
C117	C	1.091791	-0.431250	-0.683942
C118	C	1.591791	0.068750	-0.183942
C119	C	1.091779	-0.431268	-0.613254
C120	C	1.591779	0.068732	-0.113254
C121	C	1.091835	-0.431176	-0.969015
C122	C	1.591835	0.068824	-0.469015
C123	C	1.091852	-0.431155	-1.039707
C124	C	1.591852	0.068845	-0.539707
C125	C	1.192996	-0.330068	-1.039735
C126	C	1.692996	0.169932	-0.539735
C127	C	1.192985	-0.330087	-0.969048
C128	C	1.692985	0.169913	-0.469048
C129	C	1.142399	-0.380638	-0.933692
C130	C	1.642399	0.119362	-0.433692
C131	C	1.142389	-0.380661	-0.857043
C132	C	1.642389	0.119339	-0.357043
C133	C	1.142386	-0.380676	-0.795951
C134	C	1.642386	0.119324	-0.295951
C135	C	1.142292	-0.380800	-0.150298
C136	C	1.642292	0.119200	0.349702
C137	C	1.142427	-0.380598	-0.075066
C138	C	1.642427	0.119402	0.424934
H139	H	0.841422	-0.472617	-0.404541
H140	H	1.341422	0.027383	0.095459
C141	C	0.351071	-0.476395	-0.407793
C142	C	0.851071	0.023605	0.092207
C143	C	0.432246	-0.487076	-0.416909
C144	C	0.932246	0.012924	0.083091
H145	H	0.323072	-0.510739	-0.437130
H146	H	0.823072	-0.010739	0.062870
H147	H	0.337520	-0.487906	-0.362308
H148	H	0.837520	0.012094	0.137692
H149	H	0.337569	-0.423299	-0.417772
H150	H	0.837569	0.076701	0.082228
H151	H	0.445749	-0.540171	-0.406926
H152	H	0.945749	-0.040171	0.093074
H153	H	0.445802	-0.475571	-0.462405
H154	H	0.945802	0.024429	0.037595
C155	C	1.046899	-0.476112	-0.792286
C156	C	1.546899	0.023888	-0.292286
C157	C	1.036206	-0.486799	-0.722775
C158	C	1.536206	0.013201	-0.222775
H159	H	1.012587	-0.510412	-0.816258
H160	H	1.512587	-0.010412	-0.316258
H161	H	1.035355	-0.423006	-0.803874
H162	H	1.535355	0.076994	-0.303874
H163	H	1.100007	-0.487685	-0.803870
H164	H	1.600007	0.012315	-0.303870
H165	H	0.983100	-0.475220	-0.711190
H166	H	1.483100	0.024780	-0.211190
H167	H	1.047745	-0.539917	-0.711183
H168	H	1.547745	-0.039917	-0.211183
C169	C	1.030181	-1.014501	-0.503708
C170	C	1.530181	-0.514501	-0.003708
C171	C	0.985612	-0.967085	-0.460209
C172	C	1.485612	-0.467085	0.039791
H173	H	0.995863	-1.042526	-0.533049
H174	H	1.495863	-0.542526	-0.033049
H175	H	1.064579	-0.982262	-0.529628
H176	H	1.564579	-0.482262	-0.029628
H177	H	1.060317	-1.050883	-0.477946
H178	H	1.560317	-0.550883	0.022054
H179	H	0.955480	-0.930700	-0.485972
H180	H	1.455480	-0.430700	0.014028
H181	H	0.951201	-0.999328	-0.434287
H182	H	1.451201	-0.499328	0.065713
C183	C	0.991822	-0.531211	-0.620323
C184	C	1.491822	-0.031211	-0.120323
C185	C	1.036196	-0.486851	-0.574387
C186	C	1.536196	0.013149	-0.074387
H187	H	0.957512	-0.565530	-0.596326
H188	H	1.457512	-0.065530	-0.096326
H189	H	0.961598	-0.496766	-0.647887
H190	H	1.461598	0.003234	-0.147887
H191	H	1.026264	-0.561431	-0.647900
H192	H	1.526264	-0.061431	-0.147900
H193	H	1.001754	-0.456626	-0.546812
H194	H	1.501754	0.043374	-0.046812
H195	H	1.066422	-0.521300	-0.546811
H196	H	1.566422	-0.021300	-0.046811
H197	H	0.717543	-0.238377	-0.204529
H198	H	1.217543	0.261623	0.295471
C199	C	0.985493	-0.442154	-0.889509
C200	C	1.485493	0.057846	-0.389509
C201	C	1.036237	-0.486739	-0.930150
C202	C	1.536237	0.013261	-0.430150
H203	H	0.951166	-0.476458	-0.865515
H204	H	1.451166	0.023542	-0.365515
H205	H	1.015609	-0.412065	-0.858359
H206	H	1.515609	0.087935	-0.358359
H207	H	0.955281	-0.407710	-0.917095
H208	H	1.455281	0.092290	-0.417095
H209	H	1.066453	-0.521179	-0.902563
H210	H	1.566453	-0.021179	-0.402563
H211	H	1.006118	-0.516842	-0.961303
H212	H	1.506118	-0.016842	-0.461303
H213	H	0.567765	-0.238381	-0.204550
H214	H	1.067765	0.261619	0.295450
C215	C	0.985546	-0.442101	-1.119195
C216	C	1.485546	0.057899	-0.619195
C217	C	1.036266	-0.486704	-1.078547
C218	C	1.536266	0.013296	-0.578547
H219	H	0.951237	-0.476395	-1.143176
H220	H	1.451237	0.023605	-0.643176
H221	H	0.955319	-0.407675	-1.091621
H222	H	1.455319	0.092325	-0.591621
H223	H	1.015685	-0.411993	-1.150363
H224	H	1.515685	0.088007	-0.650363
H225	H	1.006127	-0.516807	-1.047376
H226	H	1.506127	-0.016807	-0.547376
H227	H	1.066495	-0.521144	-1.106124
H228	H	1.566495	-0.021144	-0.606124
C229	C	1.343499	-0.913347	-0.154182
C230	C	1.843499	-0.413347	0.345818
C231	C	1.299127	-0.967014	-0.192151
C232	C	1.799127	-0.467014	0.307849
H233	H	1.377829	-0.941353	-0.124835
H234	H	1.877829	-0.441353	0.375165
H235	H	1.373702	-0.881112	-0.183691
H236	H	1.873702	-0.381112	0.316309
H237	H	1.309057	-0.881189	-0.128262
H238	H	1.809057	-0.381189	0.371738
H239	H	1.333569	-0.999168	-0.218075
H240	H	1.833569	-0.499168	0.281925
H241	H	1.268922	-0.999263	-0.162639
H242	H	1.768922	-0.499263	0.337361
C243	C	1.254510	-0.746322	-0.148628
C244	C	1.754510	-0.246322	0.351372
C245	C	1.299076	-0.793732	-0.192133
C246	C	1.799076	-0.293732	0.307867
H247	H	1.288829	-0.718313	-0.119276
H248	H	1.788829	-0.218313	0.380724
H249	H	1.224384	-0.709934	-0.174380
H250	H	1.724384	-0.209934	0.325620
H251	H	1.220103	-0.778570	-0.122713
H252	H	1.720103	-0.278570	0.377287
H253	H	1.333480	-0.761484	-0.218051
H254	H	1.833480	-0.261484	0.281949
H255	H	1.329216	-0.830124	-0.166378
H256	H	1.829216	-0.330124	0.333622
C257	C	0.934308	-0.285227	-0.244526
C258	C	1.434308	0.214773	0.255474
C259	C	0.853133	-0.274549	-0.235415
C260	C	1.353133	0.225451	0.264585
H261	H	0.962304	-0.250873	-0.215197
H262	H	1.462304	0.249127	0.284803
H263	H	0.947812	-0.338314	-0.234542
H264	H	1.447812	0.161686	0.265458
H265	H	0.947861	-0.273724	-0.290019
H266	H	1.447861	0.226276	0.209981
H267	H	0.839579	-0.286058	-0.189923
H268	H	1.339579	0.213942	0.310077
H269	H	0.839623	-0.221450	-0.245395
H270	H	1.339623	0.278550	0.254605
C271	C	1.237892	-1.172022	-0.244507
C272	C	1.737892	-0.672022	0.255493
C273	C	1.248561	-1.090848	-0.235383
C274	C	1.748561	-0.590848	0.264617
H275	H	1.272201	-1.200023	-0.215138
H276	H	1.772201	-0.700023	0.284862
H277	H	1.184790	-1.185567	-0.234584
H278	H	1.684790	-0.685567	0.265416
H279	H	1.249465	-1.185528	-0.289987
H280	H	1.749465	-0.685528	0.210013
H281	H	1.236982	-1.077341	-0.189904
H282	H	1.736982	-0.577341	0.310096
H283	H	1.301675	-1.077297	-0.245301
H284	H	1.801675	-0.577297	0.254699
C285	C	1.231528	-0.196249	-0.947317
C286	C	1.731528	0.303751	-0.447317
C287	C	1.248565	-0.274530	-0.930218
C288	C	1.748565	0.225470	-0.430218
H289	H	1.265837	-0.161948	-0.923344
H290	H	1.765837	0.338052	-0.423344
H291	H	1.238775	-0.189014	-0.994471
H292	H	1.738775	0.310986	-0.494471
H293	H	1.178420	-0.184694	-0.935721
H294	H	1.678420	0.315306	-0.435721
H295	H	1.301672	-0.286087	-0.941819
H296	H	1.801672	0.213913	-0.441819
H297	H	1.241325	-0.281769	-0.883054
H298	H	1.741325	0.218231	-0.383054
C299	C	0.485847	-0.230154	-0.197529
C300	C	0.985847	0.269846	0.302471
C301	C	0.432195	-0.274580	-0.235468
C302	C	0.932195	0.225420	0.264532
H303	H	0.457831	-0.195804	-0.168209
H304	H	0.957831	0.304196	0.331791
H305	H	0.518015	-0.264555	-0.171587
H306	H	1.018015	0.235445	0.328413
H307	H	0.518074	-0.199962	-0.227063
H308	H	1.018074	0.300038	0.272937
H309	H	0.399972	-0.304776	-0.205933
H310	H	0.899972	0.195224	0.294067
H311	H	0.400014	-0.240174	-0.261411
H312	H	0.900014	0.259826	0.238589
H313	H	1.234111	-0.289035	-0.584525
H314	H	1.734111	0.210965	-0.084525
H315	H	1.050501	-0.681720	-0.404624
H316	H	1.550501	-0.181720	0.095376
H317	H	0.717612	-0.523239	-0.447774
H318	H	1.217612	-0.023239	0.052226
C319	C	1.237924	-0.285135	-1.148106
C320	C	1.737924	0.214865	-0.648106
C321	C	1.248593	-0.274490	-1.078601
C322	C	1.748593	0.225510	-0.578601
H323	H	1.272244	-0.250821	-1.172097
H324	H	1.772244	0.249179	-0.672097
H325	H	1.249473	-0.338234	-1.159685
H326	H	1.749473	0.161766	-0.659685
H327	H	1.184820	-0.273556	-1.159675
H328	H	1.684820	0.226444	-0.659675
H329	H	1.301696	-0.286074	-1.067031
H330	H	1.801696	0.213926	-0.567031
H331	H	1.237050	-0.221378	-1.067017
H332	H	1.737050	0.278622	-0.567017
C333	C	1.203864	-0.622504	-0.191875
C334	C	1.703864	-0.122504	0.308125
C335	C	1.248439	-0.669912	-0.235375
C336	C	1.748439	-0.169912	0.264625
H337	H	1.238176	-0.594491	-0.162521
H338	H	1.738176	-0.094491	0.337479
H339	H	1.173738	-0.586119	-0.217631
H340	H	1.673738	-0.086119	0.282369
H341	H	1.169455	-0.654753	-0.165963
H342	H	1.669455	-0.154753	0.334037
H343	H	1.282844	-0.637661	-0.261290
H344	H	1.782844	-0.137661	0.238710
H345	H	1.278578	-0.706300	-0.209616
H346	H	1.778578	-0.206300	0.290384
C347	C	0.609760	-0.582116	-0.498033
C348	C	1.109760	-0.082116	0.001967
C349	C	0.556087	-0.537694	-0.460110
C350	C	1.056087	-0.037694	0.039890
H351	H	0.581759	-0.616474	-0.527355
H352	H	1.081759	-0.116474	-0.027355
H353	H	0.641973	-0.547713	-0.523971
H354	H	1.141973	-0.047713	-0.023971
H355	H	0.641939	-0.612298	-0.468488
H356	H	1.141939	-0.112298	0.031512
H357	H	0.523912	-0.507508	-0.489655
H358	H	1.023912	-0.007508	0.010345
H359	H	0.523860	-0.572102	-0.434170
H360	H	1.023860	-0.072102	0.065830
C361	C	0.996205	-0.712615	-0.451055
C362	C	1.496205	-0.212615	0.048945
C363	C	0.985550	-0.793788	-0.460202
C364	C	1.485550	-0.293788	0.039798
H365	H	0.961875	-0.684610	-0.480402
H366	H	1.461875	-0.184610	0.019598
H367	H	0.984660	-0.699133	-0.405572
H368	H	1.484660	-0.199133	0.094428
H369	H	1.049305	-0.699053	-0.461001
H370	H	1.549305	-0.199053	0.038999
H371	H	0.932451	-0.807352	-0.450252
H372	H	1.432451	-0.307352	0.049748
H373	H	0.997090	-0.807276	-0.505696
H374	H	1.497090	-0.307276	-0.005696
H375	H	1.050652	-1.079137	-0.404653
H376	H	1.550652	-0.579137	0.095347
H377	H	1.234127	-0.288997	-0.712759
H378	H	1.734127	0.211003	-0.212759
