data_functionalizedCrystal
_audit_creation_method	'MofGen! by Chris Wilmer'
_symmetry_space_group_name_H-M	'P1'
_symmetry_Int_Tables_number	1
_symmetry_cell_setting	triclinic
loop_
_symmetry_equiv_pos_as_xyz
  x,y,z
_cell_length_a	19.805407
_cell_length_b	29.839131
_cell_length_c	19.805399
_cell_angle_alpha	90.025395
_cell_angle_beta	90.020409
_cell_angle_gamma	90.043643
loop_
_atom_site_label
_atom_site_type_symbol
_atom_site_fract_x
_atom_site_fract_y
_atom_site_fract_z
Zn1	Zn	1.034664	-0.178840	0.382745
Zn2	Zn	1.034548	-0.253968	0.269561
Zn3	Zn	0.921478	-0.178855	0.269568
Zn4	Zn	0.921412	-0.253947	0.382706
O5	O	0.978026	-0.216403	0.326145
O6	O	1.129365	-0.188809	0.367744
O7	O	1.019529	-0.244019	0.174845
O8	O	0.936569	-0.115986	0.284600
O9	O	1.129280	-0.244005	0.284589
O10	O	1.019726	-0.115975	0.367751
O11	O	0.936457	-0.188834	0.174850
O12	O	0.826753	-0.188814	0.284563
O13	O	0.936455	-0.243969	0.477428
O14	O	0.826704	-0.243983	0.367685
O15	O	1.019661	-0.188788	0.477456
O16	O	1.019464	-0.316832	0.284551
O17	O	0.936343	-0.316817	0.367678
C18	C	0.802170	-0.216398	0.326121
C19	C	0.726938	-0.216407	0.326126
C20	C	0.265194	-0.187716	0.369537
C21	C	0.335883	-0.187717	0.369532
C22	C	0.371176	-0.216409	0.326167
C23	C	0.335777	-0.245107	0.282809
C24	C	0.265090	-0.245108	0.282818
C25	C	0.620850	-0.245103	0.282773
C26	C	0.691542	-0.245099	0.282766
C27	C	0.691643	-0.187712	0.369487
C28	C	0.620956	-0.187713	0.369496
C29	C	0.585563	-0.216412	0.326141
C30	C	0.508915	-0.216411	0.326148
C31	C	0.447823	-0.216408	0.326156
C32	C	0.977902	-0.333125	0.326124
C33	C	0.977912	-0.383060	0.326138
C34	C	0.934772	-0.739654	0.369426
C35	C	0.934683	-0.551981	0.369405
O36	O	0.897857	-0.527723	0.406198
N37	N	0.977983	-0.528505	0.326158
C38	C	1.021312	-0.551949	0.282917
O39	O	1.058145	-0.527675	0.246137
C40	C	1.021405	-0.739622	0.282942
C41	C	0.978097	-0.763096	0.326187
C42	C	0.891468	-0.763128	0.412669
C43	C	0.891488	-0.810044	0.412671
C44	C	0.934813	-0.833485	0.369431
C45	C	0.978117	-0.810011	0.326189
C46	C	1.064737	-0.763065	0.239704
C47	C	1.064757	-0.809986	0.239715
C48	C	1.021449	-0.833461	0.282960
C49	C	1.021461	-0.880368	0.282951
N50	N	0.978161	-0.903844	0.326198
C51	C	0.934837	-0.880403	0.369438
C52	C	1.021260	-0.453419	0.282905
C53	C	1.021236	-0.406501	0.282898
C54	C	0.934607	-0.406536	0.369388
C55	C	0.934628	-0.453455	0.369391
C56	C	0.977959	-0.476895	0.326153
C57	C	0.934882	-0.978929	0.369439
C58	C	0.934904	-1.025848	0.369436
C59	C	1.021535	-1.025809	0.282949
C60	C	1.021511	-0.978894	0.282949
C61	C	0.978182	-0.955455	0.326200
O62	O	1.058273	-0.904655	0.246183
O63	O	0.898020	-0.904686	0.406223
C64	C	0.934752	-0.692739	0.369424
C65	C	0.978056	-0.669265	0.326182
C66	C	1.021380	-0.692706	0.282942
C67	C	0.978032	-0.622347	0.326175
C68	C	0.934708	-0.598906	0.369415
C69	C	0.891408	-0.622382	0.412662
C70	C	0.891428	-0.669297	0.412664
C71	C	1.064681	-0.669230	0.239695
C72	C	1.064657	-0.622314	0.239696
C73	C	1.021332	-0.598873	0.282936
C74	C	1.154568	-0.216408	0.326170
C75	C	1.229800	-0.216410	0.326181
C76	C	0.978168	-0.099224	0.326181
C77	C	0.978228	-0.049290	0.326196
C78	C	0.978064	-0.216374	0.502688
C79	C	0.978080	-0.216362	0.577920
C80	C	0.978027	-0.216398	0.150289
C81	C	0.978142	-0.216284	0.075057
C82	C	1.021406	-0.187629	0.613280
C83	C	1.021413	-0.187616	0.683968
C84	C	0.978097	-0.216339	0.719296
C85	C	0.934766	-0.245074	0.683930
C86	C	0.934756	-0.245084	0.613243
C87	C	0.934804	-0.245032	0.969004
C88	C	0.934818	-0.245020	1.039696
C89	C	1.021461	-0.187563	1.039729
C90	C	1.021451	-0.187574	0.969042
C91	C	0.978118	-0.216307	0.933683
C92	C	0.978110	-0.216320	0.857035
C93	C	0.978107	-0.216328	0.795943
H94	H	0.720468	-0.164346	0.404791
H95	H	0.856189	-0.744047	0.447883
O96	O	0.844674	-0.597091	0.459292
H97	H	0.814556	-0.621293	0.489363
O98	O	0.226913	-0.276056	0.236053
H99	H	0.194709	-0.255919	0.201678
O100	O	1.068260	-1.051100	0.236314
H101	H	1.098369	-1.026898	0.206237
O102	O	0.374051	-0.156763	0.416294
H103	H	0.406243	-0.176897	0.450684
O104	O	0.888015	-0.276071	0.575105
H105	H	0.899575	-0.311331	0.588654
H106	H	1.099922	-0.603205	0.204475
O107	O	0.888034	-0.275998	0.930870
H108	H	0.857908	-0.295963	0.967313
H109	H	0.364518	-0.268470	0.247503
O110	O	0.888195	-1.051168	0.416083
H111	H	0.858072	-1.026982	0.446154
H112	H	0.899494	-0.268459	0.712699
O113	O	0.888140	-0.953651	0.416076
H114	H	0.858028	-0.977862	0.446135
H115	H	0.592042	-0.268470	0.247469
O116	O	1.067999	-0.478699	0.236267
H117	H	1.037742	-0.500113	0.201806
H118	H	1.056743	-0.164166	1.068527
O119	O	0.582888	-0.156767	0.416268
H120	H	0.619376	-0.136816	0.446420
H121	H	1.056695	-0.164219	0.712756
H122	H	0.856163	-0.688406	0.447880
O123	O	1.111409	-0.694512	0.193056
H124	H	1.099822	-0.685533	0.139924
H125	H	1.056494	-0.387392	0.247677
O126	O	0.844785	-0.835360	0.459320
H127	H	0.814664	-0.811171	0.489388
O128	O	0.887924	-0.478773	0.416039
H129	H	0.857799	-0.454586	0.446105
O130	O	1.068171	-0.156594	0.930937
H131	H	1.098297	-0.136609	0.967402
H132	H	0.720276	-0.268466	0.247452
O133	O	1.068233	-0.953579	0.236312
H134	H	1.102639	-0.932177	0.266653
O135	O	0.887875	-0.381253	0.416030
H136	H	0.918142	-0.359846	0.450493
H137	H	1.056681	-0.164240	0.584522
O138	O	1.111456	-0.737753	0.193068
H139	H	1.141589	-0.761943	0.163015
H140	H	0.899542	-0.268411	1.068457
H141	H	1.100046	-0.829069	0.204506
H142	H	0.236463	-0.164348	0.404845
