data_functionalizedCrystal
_audit_creation_method	'MofGen! by Chris Wilmer'
_symmetry_space_group_name_H-M	'P1'
_symmetry_Int_Tables_number	1
_symmetry_cell_setting	triclinic
loop_
_symmetry_equiv_pos_as_xyz
  x,y,z
_cell_length_a	19.077409
_cell_length_b	19.120786
_cell_length_c	19.076919
_cell_angle_alpha	89.730680
_cell_angle_beta	94.476475
_cell_angle_gamma	94.860823
loop_
_atom_site_label
_atom_site_type_symbol
_atom_site_fract_x
_atom_site_fract_y
_atom_site_fract_z
Zn1	Zn	1.051342	-0.251293	-0.345107
Zn2	Zn	1.551342	0.248707	0.154893
Zn3	Zn	1.051370	-0.363840	-0.222595
Zn4	Zn	1.551370	0.136160	0.277405
Zn5	Zn	0.938197	-0.251317	-0.231955
Zn6	Zn	1.438197	0.248683	0.268045
Zn7	Zn	0.928397	-0.373634	-0.344754
Zn8	Zn	1.428397	0.126366	0.155246
O9	O	0.992327	-0.310021	-0.286103
O10	O	1.492327	0.189979	0.213897
O11	O	1.150163	-0.262114	-0.325086
O12	O	1.650163	0.237886	0.174914
O13	O	1.040471	-0.344824	-0.125358
O14	O	1.540471	0.155176	0.374642
O15	O	0.957295	-0.153022	-0.251029
O16	O	1.457295	0.346978	0.248971
O17	O	1.150184	-0.344801	-0.235077
O18	O	1.650184	0.155199	0.264923
O19	O	1.040423	-0.153005	-0.334162
O20	O	1.540423	0.346995	0.165838
O21	O	0.957322	-0.262154	-0.132234
O22	O	1.457322	0.237846	0.367766
O23	O	0.838080	-0.271651	-0.250687
O24	O	1.338080	0.228349	0.249313
O25	O	0.940593	-0.361495	-0.443280
O26	O	1.440593	0.138505	0.056720
O27	O	0.830880	-0.361518	-0.333561
O28	O	1.330880	0.138482	0.166439
O29	O	1.030920	-0.271612	-0.443539
O30	O	1.530920	0.228388	0.056461
O31	O	1.030968	-0.463430	-0.234736
O32	O	1.530968	0.036570	0.265264
O33	O	0.940620	-0.470627	-0.324485
O34	O	1.440620	0.029373	0.175515
C35	C	0.808858	-0.317650	-0.293102
C36	C	1.308858	0.182350	0.206898
C37	C	0.730367	-0.320932	-0.296112
C38	C	1.230367	0.179068	0.203888
C39	C	0.288149	-0.344413	-0.317736
C40	C	0.788149	0.155587	0.182264
C41	C	0.361899	-0.341335	-0.314894
C42	C	0.861899	0.158665	0.185106
C43	C	0.402500	-0.292938	-0.270403
C44	C	0.902500	0.207062	0.229597
C45	C	0.369347	-0.247621	-0.228746
C46	C	0.869347	0.252379	0.271254
C47	C	0.295598	-0.250704	-0.231584
C48	C	0.795598	0.249296	0.268416
C49	C	0.623465	-0.278698	-0.257293
C50	C	1.123465	0.221302	0.242707
C51	C	0.697219	-0.275617	-0.254459
C52	C	1.197219	0.224383	0.245541
C53	C	0.689767	-0.369332	-0.340607
C54	C	1.189767	0.130668	0.159393
C55	C	0.616017	-0.372407	-0.343444
C56	C	1.116017	0.127593	0.156556
C57	C	0.582870	-0.327093	-0.301784
C58	C	1.082870	0.172907	0.198216
N59	N	0.477884	-0.289788	-0.267499
N60	N	0.977884	0.210212	0.232501
N61	N	0.507486	-0.330247	-0.304685
N62	N	1.007486	0.169753	0.195315
C63	C	0.984752	-0.492514	-0.278571
C64	C	1.484752	0.007486	0.221429
C65	C	0.981575	-0.570584	-0.275370
C66	C	1.481575	-0.070584	0.224630
C67	C	1.023328	-0.607195	-0.317187
C68	C	1.523328	-0.107195	0.182813
C69	C	1.020340	-0.680549	-0.314180
C70	C	1.520340	-0.180549	0.185820
C71	C	0.975603	-0.717292	-0.269353
C72	C	1.475603	-0.217292	0.230647
C73	C	0.933846	-0.680676	-0.227535
C74	C	1.433846	-0.180676	0.272465
C75	C	0.936830	-0.607323	-0.230545
C76	C	1.436830	-0.107323	0.269455
C77	C	0.964425	-0.938775	-0.258099
C78	C	1.464425	-0.438775	0.241901
C79	C	0.961445	-1.012133	-0.255090
C80	C	1.461445	-0.512133	0.244910
C81	C	1.047939	-1.012001	-0.341737
C82	C	1.547939	-0.512001	0.158263
C83	C	1.050922	-0.938647	-0.344741
C84	C	1.550922	-0.438647	0.155259
C85	C	1.009162	-0.902037	-0.302925
C86	C	1.509162	-0.402037	0.197075
C87	C	0.972550	-0.792272	-0.266277
C88	C	1.472550	-0.292272	0.233723
C89	C	1.012213	-0.827059	-0.306005
C90	C	1.512213	-0.327059	0.193995
C91	C	1.176512	-0.302362	-0.279077
C92	C	1.676512	0.197638	0.220923
C93	C	1.255001	-0.299099	-0.276083
C94	C	1.755001	0.200901	0.223917
C95	C	0.984660	-0.317643	-0.469658
C96	C	1.484660	0.182357	0.030342
C97	C	0.981393	-0.320891	-0.547878
C98	C	1.481393	0.179109	-0.047878
C99	C	0.999949	-0.126815	-0.293679
C100	C	1.499949	0.373185	0.206321
C101	C	1.003197	-0.048744	-0.296907
C102	C	1.503197	0.451256	0.203093
C103	C	1.026885	-0.275622	-0.584762
C104	C	1.526885	0.224378	-0.084762
C105	C	1.023807	-0.278672	-0.658259
C106	C	1.523807	0.221328	-0.158259
C107	C	0.975240	-0.326995	-0.694870
C108	C	1.475240	0.173005	-0.194870
C109	C	0.929743	-0.372266	-0.657980
C110	C	1.429743	0.127734	-0.157980
C111	C	0.932819	-0.369212	-0.584485
C112	C	1.432819	0.130788	-0.084485
C113	C	0.960997	-0.341142	-0.914662
C114	C	1.460997	0.158858	-0.414662
C115	C	0.957926	-0.344194	-0.988162
C116	C	1.457926	0.155806	-0.488162
C117	C	1.051989	-0.250598	-0.988435
C118	C	1.551989	0.249402	-0.488435
C119	C	1.055063	-0.247552	-0.914938
C120	C	1.555063	0.252448	-0.414938
C121	C	1.009564	-0.292820	-0.878056
C122	C	1.509564	0.207180	-0.378056
N123	N	0.972094	-0.330115	-0.769995
N124	N	1.472094	0.169885	-0.269995
N125	N	1.012707	-0.289697	-0.802932
N126	N	1.512707	0.210303	-0.302932
C127	C	1.000006	-0.302376	-0.103263
C128	C	1.500006	0.197624	0.396737
C129	C	1.003418	-0.298924	-0.025046
C130	C	1.503418	0.201076	0.474954
H131	H	0.716763	-0.406225	-0.374523
H132	H	1.216763	0.093775	0.125477
C133	C	1.073853	-0.228873	-0.698828
C134	C	1.573853	0.271127	-0.198828
N135	N	1.111549	-0.191362	-0.729384
N136	N	1.611549	0.308638	-0.229384
H137	H	0.930424	-0.908973	-0.224050
H138	H	1.430424	-0.408973	0.275950
C139	C	0.259135	-0.200852	-0.185765
C140	C	0.759135	0.299148	0.314235
N141	N	0.231673	-0.163303	-0.151251
N142	N	0.731673	0.336697	0.348749
H143	H	1.081936	-1.041817	-0.375782
H144	H	1.581936	-0.541817	0.124218
C145	C	0.912226	-1.052548	-0.205778
C146	C	1.412226	-0.552548	0.294222
N147	N	0.875156	-1.082989	-0.168637
N148	N	1.375156	-0.582989	0.331363
H149	H	0.890197	-0.411609	-0.687795
H150	H	1.390197	0.088391	-0.187795
H151	H	0.897417	-0.710598	-0.191039
H152	H	1.397417	-0.210598	0.308961
H153	H	0.402409	-0.208218	-0.192517
H154	H	0.902409	0.291782	0.307483
C155	C	0.741879	-0.222378	-0.205510
C156	C	1.241879	0.277622	0.294490
N157	N	0.775516	-0.182280	-0.168643
N158	N	1.275516	0.317720	0.331357
C159	C	1.072544	-0.566785	-0.366499
C160	C	1.572544	-0.066785	0.133501
N161	N	1.109613	-0.536350	-0.403645
N162	N	1.609613	-0.036350	0.096355
H163	H	0.582964	-0.411819	-0.379672
H164	H	1.082964	0.088181	0.120328
C165	C	0.904494	-0.397353	-1.028432
C166	C	1.404494	0.102647	-0.528432
N167	N	0.864252	-0.437391	-1.058764
N168	N	1.364252	0.062609	-0.558764
C169	C	0.890900	-0.567051	-0.184543
C170	C	1.390900	-0.067051	0.315457
N171	N	0.856302	-0.536720	-0.149894
N172	N	1.356302	-0.036720	0.350106
C173	C	0.910944	-0.390938	-0.874101
C174	C	1.410944	0.109062	-0.374101
N175	N	0.873240	-0.428445	-0.843548
N176	N	1.373240	0.071555	-0.343548
C177	C	1.102026	-0.200798	-1.029012
C178	C	1.602026	0.299202	-0.529012
N179	N	1.139712	-0.163282	-1.059575
N180	N	1.639712	0.336718	-0.559575
C181	C	0.587014	-0.228841	-0.211475
C182	C	1.087014	0.271159	0.288525
N183	N	0.559556	-0.191284	-0.176966
N184	N	1.059556	0.308716	0.323034
C185	C	1.066281	-0.720817	-0.360173
C186	C	1.566281	-0.220817	0.139827
N187	N	1.100889	-0.751146	-0.394813
N188	N	1.600889	-0.251146	0.105187
C189	C	0.923406	-0.832691	-0.216903
C190	C	1.423406	-0.332691	0.283097
N191	N	0.886413	-0.863135	-0.179693
N192	N	1.386413	-0.363135	0.320307
H193	H	1.048635	-0.797141	-0.342506
H194	H	1.548635	-0.297141	0.157494
H195	H	1.087351	-0.908732	-0.381243
H196	H	1.587351	-0.408732	0.118757
H197	H	1.066435	-0.236274	-0.554958
H198	H	1.566435	0.263726	-0.054958
H199	H	1.094613	-0.208204	-0.885134
H200	H	1.594613	0.291796	-0.385134
H201	H	0.255097	-0.383820	-0.353969
H202	H	0.755097	0.116180	0.146031
C203	C	0.398359	-0.391187	-0.360713
C204	C	0.898359	0.108813	0.139287
N205	N	0.425819	-0.428739	-0.395225
N206	N	0.925819	0.071261	0.104775
C207	C	0.882775	-0.419014	-0.543913
C208	C	1.382775	0.080986	-0.043913
N209	N	0.845080	-0.456524	-0.513355
N210	N	1.345080	0.043476	-0.013355
