data_functionalizedCrystal
_audit_creation_method	'MofGen! by Chris Wilmer'
_symmetry_space_group_name_H-M	'P1'
_symmetry_Int_Tables_number	1
_symmetry_cell_setting	triclinic
loop_
_symmetry_equiv_pos_as_xyz
  x,y,z
_cell_length_a	11.792254
_cell_length_b	11.792254
_cell_length_c	10.868271
_cell_angle_alpha	89.994692
_cell_angle_beta	89.995741
_cell_angle_gamma	84.198598
loop_
_atom_site_label
_atom_site_type_symbol
_atom_site_fract_x
_atom_site_fract_y
_atom_site_fract_z
O1	O	1.506907	0.155636	-0.102322
O2	O	2.006907	0.655636	0.397678
O3	O	1.176568	0.171654	-0.102325
O4	O	1.676568	0.671654	0.397675
O5	O	1.349747	-0.001524	-0.102314
O6	O	1.849747	0.498476	0.397686
O7	O	1.333729	0.328814	-0.102332
O8	O	1.833729	0.828814	0.397668
O9	O	1.349732	-0.001531	0.102330
O10	O	1.849732	0.498469	0.602330
O11	O	1.176554	0.171647	0.102320
O12	O	1.676554	0.671647	0.602320
O13	O	1.506893	0.155629	0.102323
O14	O	2.006893	0.655629	0.602323
Zn15	Zn	1.341721	0.163637	0.134813
Zn16	Zn	1.841721	0.663637	0.634813
Zn17	Zn	1.341740	0.163646	-0.134815
Zn18	Zn	1.841740	0.663646	0.365185
O19	O	1.333714	0.328807	0.102313
O20	O	1.833714	0.828807	0.602313
C21	C	1.134271	0.170642	-0.000003
C22	C	1.634271	0.670642	0.499997
C23	C	1.008257	0.167621	-0.000003
C24	C	1.508257	0.667621	0.499997
C25	C	0.905921	0.165168	-0.000008
C26	C	1.405921	0.665168	0.499992
C27	C	0.777534	0.162099	-0.000009
C28	C	1.277534	0.662099	0.499991
C29	C	1.348730	-0.043818	0.000008
C30	C	1.848730	0.456182	0.500008
C31	C	1.345710	-0.169832	0.000006
C32	C	1.845710	0.330168	0.500006
C33	C	1.343256	-0.272168	0.000002
C34	C	1.843256	0.227832	0.500002
C35	C	1.340188	-0.400555	-0.000009
C36	C	1.840188	0.099445	0.499991
C37	C	1.549190	0.156642	-0.000002
C38	C	2.049190	0.656642	0.499998
C39	C	1.675204	0.159662	-0.000009
C40	C	2.175204	0.659662	0.499991
C41	C	1.334731	0.371102	-0.000012
C42	C	1.834731	0.871102	0.499988
C43	C	1.337751	0.497115	-0.000019
C44	C	1.837751	0.997115	0.499981
N45	N	1.341716	0.163630	0.318827
N46	N	1.841716	0.663630	0.818827
N47	N	1.341753	0.163644	-0.318829
N48	N	1.841753	0.663644	0.181171
C49	C	1.341734	0.163644	0.569833
C50	C	1.841734	0.663644	1.069833
C51	C	1.341721	0.163640	0.430156
C52	C	1.841721	0.663640	0.930156
