data_functionalizedCrystal
_audit_creation_method	'MofGen! by Chris Wilmer'
_symmetry_space_group_name_H-M	'P1'
_symmetry_Int_Tables_number	1
_symmetry_cell_setting	triclinic
loop_
_symmetry_equiv_pos_as_xyz
  x,y,z
_cell_length_a	8.597187
_cell_length_b	7.088929
_cell_length_c	9.065218
_cell_angle_alpha	83.685725
_cell_angle_beta	94.826766
_cell_angle_gamma	91.336285
loop_
_atom_site_label
_atom_site_type_symbol
_atom_site_fract_x
_atom_site_fract_y
_atom_site_fract_z
O1	O	2.036169	0.494382	-0.266704
O2	O	2.369502	0.827715	0.066629
O3	O	2.702836	1.161048	0.399962
O4	O	1.586868	0.420375	-0.276644
O5	O	1.920201	0.753708	0.056690
O6	O	2.253534	1.087041	0.390023
O7	O	1.820806	0.458904	-0.057193
O8	O	2.154139	0.792237	0.276141
O9	O	2.487472	1.125571	0.609474
O10	O	1.802231	0.455852	-0.486155
O11	O	2.135564	0.789186	-0.152822
O12	O	2.468898	1.122519	0.180511
O13	O	1.852068	0.146078	-0.027797
O14	O	2.185402	0.479411	0.305537
O15	O	2.518735	0.812745	0.638870
O16	O	1.618130	0.107549	-0.247248
O17	O	1.951463	0.440882	0.086086
O18	O	2.284797	0.774215	0.419419
O19	O	2.067432	0.181555	-0.237308
O20	O	2.400765	0.514889	0.096025
O21	O	2.734098	0.848222	0.429358
Cu22	Cu	1.845635	0.115988	-0.239594
Cu23	Cu	2.178969	0.449322	0.093739
Cu24	Cu	2.512302	0.782655	0.427073
Cu25	Cu	1.808664	0.485942	-0.274358
Cu26	Cu	2.141997	0.819275	0.058975
Cu27	Cu	2.475330	1.152608	0.392309
O28	O	1.833493	0.143026	-0.456759
O29	O	2.166827	0.476359	-0.123426
O30	O	2.500160	0.809693	0.209907
C31	C	1.544948	0.254482	-0.259240
C32	C	1.878282	0.587816	0.074093
C33	C	2.211615	0.921149	0.407427
C34	C	1.373466	0.226237	-0.251161
C35	C	1.706799	0.559570	0.082173
C36	C	2.040132	0.892903	0.415506
N37	N	1.871650	-0.144215	-0.215142
N38	N	2.204984	0.189118	0.118191
N39	N	2.538317	0.522452	0.451524
C40	C	2.109350	0.347452	-0.254712
C41	C	2.442684	0.680785	0.078621
C42	C	2.776017	1.014119	0.411954
C43	C	2.280832	0.375710	-0.262793
C44	C	2.614165	0.709043	0.070541
C45	C	2.947498	1.042377	0.403874
C46	C	1.834652	0.302200	0.012523
C47	C	2.167985	0.635533	0.345856
C48	C	2.501318	0.968867	0.679189
C49	C	1.829313	0.301330	0.176458
C50	C	2.162647	0.634663	0.509791
C51	C	2.495980	0.967997	0.843124
N52	N	1.782661	0.746147	-0.298798
N53	N	2.115994	1.079480	0.034535
N54	N	2.449327	1.412814	0.367868
C55	C	1.819647	0.299734	-0.526475
C56	C	2.152980	0.633068	-0.193142
C57	C	2.486314	0.966401	0.140192
C58	C	1.824984	0.300617	-0.690411
C59	C	2.158318	0.633950	-0.357078
C60	C	2.491651	0.967284	-0.023744
H61	H	1.321581	0.076668	-0.235038
H62	H	1.654914	0.410001	0.098295
H63	H	1.988248	0.743335	0.431629
H64	H	1.963895	-0.210678	-0.128456
H65	H	2.297229	0.122655	0.204878
H66	H	2.630562	0.455989	0.538211
H67	H	1.690433	-0.187396	-0.385490
H68	H	2.023767	0.145937	-0.052157
H69	H	2.357100	0.479270	0.281177
F70	F	1.348648	0.571222	-0.283889
F71	F	1.681981	0.904556	0.049444
F72	F	2.015315	1.237889	0.382777
