data_functionalizedCrystal
_audit_creation_method	'MofGen! by Chris Wilmer'
_symmetry_space_group_name_H-M	'P1'
_symmetry_Int_Tables_number	1
_symmetry_cell_setting	triclinic
loop_
_symmetry_equiv_pos_as_xyz
  x,y,z
_cell_length_a	10.723023
_cell_length_b	13.101039
_cell_length_c	10.723024
_cell_angle_alpha	86.604576
_cell_angle_beta	84.467709
_cell_angle_gamma	93.389222
loop_
_atom_site_label
_atom_site_type_symbol
_atom_site_fract_x
_atom_site_fract_y
_atom_site_fract_z
O1	O	1.663994	0.085201	0.168195
O2	O	2.163994	0.585201	0.668195
O3	O	1.300842	0.085205	0.184949
O4	O	1.800842	0.585205	0.684949
O5	O	1.490794	0.085200	-0.005004
O6	O	1.990794	0.585200	0.494996
O7	O	1.474042	0.085207	0.358148
O8	O	1.974042	0.585207	0.858148
O9	O	1.477166	-0.085230	0.008648
O10	O	1.977166	0.414770	0.508648
O11	O	1.287213	-0.085224	0.198600
O12	O	1.787213	0.414776	0.698600
O13	O	1.650365	-0.085228	0.181846
O14	O	2.150365	0.414772	0.681846
Zn15	Zn	1.466625	-0.112285	0.192391
Zn16	Zn	1.966625	0.387715	0.692391
Zn17	Zn	1.484582	0.112263	0.174404
Zn18	Zn	1.984582	0.612263	0.674404
O19	O	1.460413	-0.085222	0.371799
O20	O	1.960413	0.414778	0.871799
C21	C	1.247528	-0.000009	0.190556
C22	C	1.747528	0.499991	0.690556
C23	C	1.108974	-0.000007	0.186908
C24	C	1.608974	0.499993	0.686908
C25	C	1.040142	-0.088294	0.192354
C26	C	1.540142	0.411706	0.692354
C27	C	0.896939	-0.088294	0.188584
C28	C	1.396939	0.411706	0.688584
N29	N	1.454380	-0.265533	0.204666
N30	N	1.954380	0.234467	0.704666
C31	C	1.437719	-0.474576	0.221377
C32	C	1.937719	0.025424	0.721377
C33	C	1.513494	-0.525454	0.145412
C34	C	2.013494	-0.025454	0.645412
C35	C	1.504224	-0.641772	0.154711
C36	C	2.004224	-0.141772	0.654711
C37	C	1.446988	-0.358247	0.212080
C38	C	1.946988	0.141753	0.712080
C39	C	1.703679	-0.000012	0.176239
C40	C	2.203679	0.499988	0.676239
C41	C	1.842234	-0.000006	0.179886
C42	C	2.342234	0.499994	0.679886
C43	C	1.482761	-0.000014	-0.044678
C44	C	1.982761	0.499986	0.455322
C45	C	1.479114	-0.000010	-0.183233
C46	C	1.979114	0.499990	0.316767
N47	N	1.496837	0.265511	0.162120
N48	N	1.996837	0.765511	0.662120
C49	C	1.585401	-0.000010	-0.258215
C50	C	2.085401	0.499990	0.241785
C51	C	1.581634	-0.000006	-0.401419
C52	C	2.081634	0.499994	0.098581
C53	C	1.468447	-0.000006	0.411473
C54	C	1.968447	0.499994	0.911473
C55	C	1.472094	-0.000003	0.550027
C56	C	1.972094	0.499997	1.050027
H57	H	0.901392	0.075583	0.175237
H58	H	1.401392	0.575583	0.675237
Br59	Br	1.118611	-0.214282	0.204769
Br60	Br	1.618611	0.285718	0.704769
H61	H	1.585329	-0.481654	0.073394
H62	H	2.085329	0.018346	0.573394
Br63	Br	1.320421	-0.000016	-0.342595
Br64	Br	1.820421	0.499984	0.157405
H65	H	1.061886	0.075578	0.179452
H66	H	1.561886	0.575578	0.679452
H67	H	0.837771	-0.163880	0.193247
H68	H	1.337771	0.336120	0.693247
H69	H	1.365890	-0.518370	0.293392
H70	H	1.865890	-0.018370	0.793392
H71	H	1.679187	-0.000017	-0.216393
H72	H	2.179187	0.499983	0.283607
H73	H	1.672624	-0.000011	-0.465852
H74	H	2.172624	0.499989	0.034148
H75	H	1.385328	-0.000003	-0.225055
H76	H	1.885328	0.499997	0.274945
