data_functionalizedCrystal
_audit_creation_method	'MofGen! by Chris Wilmer'
_symmetry_space_group_name_H-M	'P1'
_symmetry_Int_Tables_number	1
_symmetry_cell_setting	triclinic
loop_
_symmetry_equiv_pos_as_xyz
  x,y,z
_cell_length_a	14.560438
_cell_length_b	14.628931
_cell_length_c	14.628931
_cell_angle_alpha	60.000000
_cell_angle_beta	90.001411
_cell_angle_gamma	60.001476
loop_
_atom_site_label
_atom_site_type_symbol
_atom_site_fract_x
_atom_site_fract_y
_atom_site_fract_z
Zr1	Zr	0.884754	1.000593	-0.119948
O2	O	0.738109	1.191296	-0.265911
O3	O	0.929709	0.809888	-0.075202
O4	O	0.929709	1.000594	-0.265908
O5	O	0.738108	1.000591	0.075226
O6	O	1.080848	1.000596	-0.265905
O7	O	0.738108	1.000591	-0.075205
O8	O	1.080847	0.659460	0.075232
O9	O	0.738109	1.341728	-0.265911
O10	O	1.061674	0.888331	-0.056117
O11	O	0.948881	0.888329	0.056147
O12	O	0.948882	1.112860	-0.168385
O13	O	0.836089	1.112858	-0.056121
Zr14	Zr	1.125802	1.000598	0.119977
Zr15	Zr	1.125802	1.000597	-0.119944
Zr16	Zr	0.884754	1.000594	0.119973
Zr17	Zr	0.884755	1.240515	-0.119948
Zr18	Zr	1.125802	0.760676	0.119977
O19	O	1.080847	1.191303	0.075231
O20	O	1.080848	1.191302	-0.265906
O21	O	0.738108	1.191297	0.075226
O22	O	1.272448	0.809895	0.265940
O23	O	1.272448	0.809894	-0.075197
O24	O	0.929708	0.809889	0.265935
O25	O	1.272448	1.000600	-0.075197
O26	O	1.080847	1.000598	0.265937
O27	O	0.929709	1.000595	0.265935
O28	O	1.272448	1.000600	0.075235
O29	O	0.929710	1.341731	-0.265908
O30	O	1.080846	0.659460	0.265938
O31	O	1.272447	0.659463	0.265941
O32	O	1.272448	0.659463	0.075235
O33	O	0.738109	1.341728	-0.075206
O34	O	0.929710	1.341732	-0.075203
O35	O	1.061674	0.888331	0.168414
O36	O	1.174467	0.888333	0.056150
O37	O	1.061675	1.112862	-0.056117
O38	O	0.948882	1.112860	0.056146
C39	C	1.005278	0.700490	0.000015
C40	C	1.005277	0.598637	0.000015
C41	C	1.061230	0.553229	-0.055675
C42	C	1.061231	0.447959	-0.055676
C43	C	0.703764	1.000590	0.000010
C44	C	0.601433	1.000589	0.000008
C45	C	0.612230	0.883389	0.058610
C46	C	0.516075	0.883395	0.058620
C47	C	0.398328	1.117811	-0.058583
C48	C	0.494482	1.117804	-0.058586
C49	C	0.719181	0.766174	0.117204
C50	C	0.729984	0.648965	0.175810
C51	C	0.633829	0.648971	0.175820
C52	C	0.526871	0.766187	0.117225
C53	C	1.306792	1.000601	0.000019
C54	C	1.409124	1.000602	0.000021
C55	C	1.005279	1.000595	-0.300090
C56	C	1.005279	1.000594	-0.401943
C57	C	1.005279	1.300701	0.000014
C58	C	1.005279	1.402554	0.000014
C59	C	0.949326	1.111976	-0.503044
C60	C	0.949325	1.111978	-0.608316
C61	C	1.005278	1.000596	0.300119
C62	C	1.005277	1.000597	0.401972
C63	C	1.306792	0.700495	0.000020
C64	C	1.409123	0.598644	0.000022
C65	C	1.005277	0.700491	0.300120
C66	C	1.005277	0.598639	0.401973
C67	C	1.306792	0.700496	0.300125
C68	C	1.409122	0.598645	0.401979
C69	C	0.703765	1.300695	-0.300095
C70	C	0.601434	1.402546	-0.401950
C71	C	0.703764	1.300696	0.000009
C72	C	0.601433	1.402547	0.000008
C73	C	1.005279	1.300700	-0.300091
C74	C	1.005279	1.402553	-0.401944
C75	C	1.398793	0.553235	-0.055670
C76	C	1.504556	0.447966	-0.055669
C77	C	1.061230	0.553231	0.503074
C78	C	1.061231	0.447960	0.608346
C79	C	1.510698	0.553238	0.391699
C80	C	1.616463	0.447970	0.496970
H81	H	0.957368	0.441603	0.047690
C82	C	1.522405	0.605996	0.274524
N83	N	1.531226	0.645730	0.186267
C84	C	0.940561	0.545875	0.064428
N85	N	0.891812	0.506138	0.112944
C86	C	1.488412	0.455312	0.609733
N87	N	1.399742	0.495049	0.618515
H88	H	1.053184	0.905238	-0.393322
C89	C	1.125924	0.606014	-0.120111
N90	N	1.174643	0.645780	-0.168656
H91	H	1.703600	0.408916	0.488341
C92	C	0.884608	1.240807	-0.725486
N93	N	0.835862	1.337846	-0.813742
H94	H	1.311649	0.592296	-0.103354
H95	H	0.957370	0.559584	0.393352
H96	H	1.400462	0.559592	0.488716
H97	H	0.642630	0.553534	0.223549
C98	C	1.492839	0.395209	-0.120081
N99	N	1.484014	0.355470	-0.168598
C100	C	0.884621	1.240803	-0.514698
N101	N	0.835885	1.337839	-0.523479
C102	C	1.070059	0.871762	-0.480862
N103	N	1.118876	0.774724	-0.392605
C104	C	1.526849	0.545885	0.064438
N105	N	1.615520	0.506146	0.112959
C106	C	1.125948	0.605991	0.514728
N107	N	1.174699	0.645726	0.523508
H108	H	1.109130	0.408914	-0.103360
C109	C	1.125950	0.395207	0.725515
N110	N	1.174697	0.355472	0.813772
C111	C	0.940576	0.455284	0.480892
N112	N	0.891847	0.495000	0.392635
C113	C	0.824959	0.766157	0.117199
N114	N	0.904630	0.766145	0.117194
H115	H	0.817073	0.553533	0.223524
H116	H	0.485686	1.213238	-0.106284
H117	H	0.311238	1.213242	-0.106291
C118	C	0.421101	0.766186	0.117243
N119	N	0.341436	0.766184	0.117253
H120	H	1.614803	0.441601	0.047714
