data_functionalizedCrystal
_audit_creation_method	'MofGen! by Chris Wilmer'
_symmetry_space_group_name_H-M	'P1'
_symmetry_Int_Tables_number	1
_symmetry_cell_setting	triclinic
loop_
_symmetry_equiv_pos_as_xyz
  x,y,z
_cell_length_a	14.971486
_cell_length_b	14.519709
_cell_length_c	14.048226
_cell_angle_alpha	89.999235
_cell_angle_beta	90.003819
_cell_angle_gamma	83.647137
loop_
_atom_site_label
_atom_site_type_symbol
_atom_site_fract_x
_atom_site_fract_y
_atom_site_fract_z
O1	O	0.117249	1.223798	0.079037
O2	O	0.131057	0.955313	0.079066
O3	O	-0.006043	1.096752	0.079044
O4	O	0.254349	1.082359	0.079059
O5	O	-0.006044	1.096738	-0.079277
O6	O	0.131056	0.955299	-0.079255
O7	O	0.117248	1.223785	-0.079284
Zn8	Zn	0.124152	1.089540	-0.104407
Zn9	Zn	0.124153	1.089558	0.104189
O10	O	0.254348	1.082346	-0.079262
C11	C	-0.039369	1.096101	-0.000116
C12	C	-0.138667	1.094172	-0.000115
C13	C	0.130413	0.920947	-0.000091
C14	C	0.128485	0.818567	-0.000080
C15	C	-0.195845	1.177264	-0.000125
C16	C	-0.289146	1.175446	-0.000115
C17	C	-0.325266	1.090536	-0.000102
C18	C	-0.268080	1.007438	-0.000090
C19	C	-0.174781	1.009257	-0.000093
C20	C	-0.462545	1.003653	-0.000086
C21	C	-0.555850	1.001834	-0.000085
C22	C	-0.576909	1.169842	-0.000108
C23	C	-0.483610	1.171661	-0.000111
C24	C	-0.426431	1.088563	-0.000100
C25	C	0.121386	0.443675	-0.000123
C26	C	0.123357	0.547982	-0.000111
C27	C	0.124935	0.631118	-0.000101
C28	C	0.126907	0.735431	-0.000090
C29	C	0.287674	1.082996	-0.000100
C30	C	0.386972	1.084925	-0.000094
C31	C	0.117892	1.258151	-0.000125
C32	C	0.119820	1.360531	-0.000130
N33	N	0.124150	1.089534	-0.246767
C34	C	0.178523	1.145523	-0.296584
C35	C	0.178519	1.145535	-0.396242
C36	C	0.124147	1.089553	-0.446081
C37	C	0.069768	1.033562	-0.396257
C38	C	0.069767	1.033556	-0.296601
C39	C	0.069774	1.033577	-0.603971
C40	C	0.069775	1.033582	-0.703634
C41	C	0.178525	1.145556	-0.703612
C42	C	0.178525	1.145550	-0.603956
C43	C	0.124147	1.089558	-0.554139
N44	N	0.124148	1.089570	0.246549
H45	H	-0.166444	1.246407	-0.000141
H46	H	-0.335698	1.243107	-0.000125
H47	H	-0.454205	1.240802	-0.000128
Cl48	Cl	-0.648791	1.274308	-0.000117
Cl49	Cl	0.246882	1.215904	-0.233939
H50	H	0.025492	0.987964	-0.256041
H51	H	-0.128227	0.941595	-0.000085
Cl52	Cl	-0.313488	0.900693	-0.000062
H53	H	0.025492	0.987985	-0.436843
Cl54	Cl	0.001415	0.963209	-0.766287
Cl55	Cl	0.246901	1.215907	-0.541303
Cl56	Cl	0.246878	1.215922	-0.458865
Cl57	Cl	0.001398	0.963200	-0.541345
Cl58	Cl	-0.601257	0.895088	-0.000070
Cl59	Cl	-0.390663	0.899185	-0.000072
H60	H	0.222805	1.191144	-0.744178
