data_functionalizedCrystal
_audit_creation_method	'MofGen! by Chris Wilmer'
_symmetry_space_group_name_H-M	'P1'
_symmetry_Int_Tables_number	1
_symmetry_cell_setting	triclinic
loop_
_symmetry_equiv_pos_as_xyz
  x,y,z
_cell_length_a	12.759401
_cell_length_b	12.759400
_cell_length_c	12.759393
_cell_angle_alpha	89.969552
_cell_angle_beta	89.980324
_cell_angle_gamma	90.016209
loop_
_atom_site_label
_atom_site_type_symbol
_atom_site_fract_x
_atom_site_fract_y
_atom_site_fract_z
Zn1	Zn	1.606253	-0.418173	-0.594020
Zn2	Zn	1.606148	-0.593889	-0.418340
Zn3	Zn	1.430556	-0.418229	-0.418355
Zn4	Zn	1.430544	-0.593815	-0.593978
O5	O	1.518375	-0.506026	-0.506173
O6	O	1.753260	-0.441490	-0.570727
O7	O	1.582817	-0.570641	-0.271321
O8	O	1.453912	-0.271200	-0.441682
O9	O	1.753183	-0.570587	-0.441656
O10	O	1.582996	-0.271160	-0.570742
O11	O	1.453810	-0.441585	-0.271332
O12	O	1.283533	-0.441514	-0.441640
O13	O	1.453891	-0.570462	-0.741004
O14	O	1.283525	-0.570516	-0.570669
O15	O	1.582984	-0.441418	-0.741036
O16	O	1.582805	-0.740900	-0.441615
O17	O	1.453789	-0.740846	-0.570655
C18	C	1.245408	-0.506014	-0.506152
C19	C	1.128631	-0.506033	-0.506168
C20	C	1.518313	-0.778994	-0.506151
C21	C	1.518383	-0.895770	-0.506177
C22	C	1.073792	-0.573307	-0.573248
C23	C	0.964068	-0.573311	-0.573269
C24	C	0.964032	-0.438765	-0.439122
C25	C	1.073754	-0.438756	-0.439107
C26	C	1.585636	-0.950626	-0.439060
C27	C	1.585700	-1.060350	-0.439093
C28	C	1.451250	-1.060354	-0.573362
C29	C	1.451191	-0.950632	-0.573334
C30	C	1.652827	-0.895764	-0.371904
C31	C	1.720085	-0.950620	-0.304781
C32	C	1.720149	-1.060344	-0.304813
C33	C	1.652956	-1.115212	-0.371969
C34	C	1.792409	-0.506040	-0.506195
C35	C	1.909185	-0.506046	-0.506204
C36	C	1.518448	-0.505926	-0.780207
C37	C	1.518479	-0.505883	-0.896984
C38	C	1.518467	-0.231993	-0.506218
C39	C	1.518506	-0.115217	-0.506237
C40	C	1.585656	-0.573057	-0.951837
C41	C	1.585688	-0.573012	-1.061561
C42	C	1.451356	-0.438616	-1.061568
C43	C	1.451330	-0.438657	-0.951846
C44	C	1.652805	-0.640283	-0.896974
C45	C	1.719987	-0.707464	-0.951828
C46	C	1.720018	-0.707419	-1.061552
C47	C	1.652868	-0.640194	-1.116423
C48	C	1.518364	-0.506051	-0.233206
C49	C	1.518536	-0.505798	-0.116430
H50	H	1.118470	-0.628086	-0.627857
O51	O	1.378652	-0.891463	-0.645724
H52	H	1.389910	-0.805950	-0.634429
O53	O	0.904985	-0.645930	-0.645614
H54	H	0.855028	-0.599039	-0.699209
O55	O	1.378773	-1.119539	-0.645774
H56	H	1.396738	-1.098416	-0.728245
H57	H	1.774664	-0.762190	-0.907146
O58	O	0.904827	-0.366240	-0.366769
H59	H	0.854849	-0.312854	-0.413875
H60	H	1.118405	-0.383967	-0.384482
O61	O	1.652760	-0.777420	-0.371876
H62	H	1.710785	-0.748485	-0.313911
H63	H	1.774797	-0.905940	-0.250111
O64	O	1.378942	-0.366102	-1.120742
H65	H	1.390245	-0.377361	-1.206255
H66	H	1.774921	-1.105004	-0.250166
H67	H	1.652784	-0.640330	-0.807632
O68	O	1.653019	-1.233559	-0.372007
H69	H	1.711071	-1.262489	-0.314050
H70	H	1.774728	-0.762113	-1.106211
O71	O	1.652967	-0.640117	-1.234769
H72	H	1.631730	-0.719338	-1.263726
O73	O	1.378874	-0.366211	-0.892670
H74	H	1.332174	-0.319469	-0.949251
