data_functionalizedCrystal
_audit_creation_method	'MofGen! by Chris Wilmer'
_symmetry_space_group_name_H-M	'P1'
_symmetry_Int_Tables_number	1
_symmetry_cell_setting	triclinic
loop_
_symmetry_equiv_pos_as_xyz
  x,y,z
_cell_length_a	18.266242
_cell_length_b	15.995350
_cell_length_c	15.995350
_cell_angle_alpha	83.492375
_cell_angle_beta	89.995886
_cell_angle_gamma	89.994611
loop_
_atom_site_label
_atom_site_type_symbol
_atom_site_fract_x
_atom_site_fract_y
_atom_site_fract_z
O1	O	0.060815	-1.110991	-0.107928
O2	O	0.060830	-0.867216	-0.121255
O3	O	0.060821	-0.995767	0.007296
O4	O	0.060824	-0.982440	-0.236479
O5	O	-0.060940	-0.995745	0.007303
O6	O	-0.060932	-0.867194	-0.121249
O7	O	-0.060947	-1.110969	-0.107921
Zn8	Zn	-0.080272	-0.989078	-0.114584
Zn9	Zn	0.080155	-0.989107	-0.114593
O10	O	-0.060938	-0.982418	-0.236473
C11	C	-0.000049	-0.836010	-0.120701
C12	C	-0.000043	-0.743060	-0.119049
N13	N	-0.189759	-0.989064	-0.114577
C14	C	-0.000058	-0.995205	0.038494
C15	C	-0.000054	-0.993553	0.131444
C16	C	-0.228071	-1.046006	-0.057683
C17	C	-0.304716	-1.046011	-0.057679
C18	C	-0.343046	-0.989083	-0.114584
C19	C	-0.304724	-0.932131	-0.171483
C20	C	-0.228080	-0.932122	-0.171480
N21	N	-0.463377	-0.978426	-0.188673
N22	N	-0.536185	-0.978440	-0.188673
C23	C	-0.573968	-0.989107	-0.114596
N24	N	-0.536192	-0.999776	-0.040516
N25	N	-0.463378	-0.999766	-0.040517
C26	C	-0.426153	-0.989087	-0.114594
C27	C	-0.695388	-1.046057	-0.057693
C28	C	-0.772034	-1.046056	-0.057688
C29	C	-0.772040	-0.932180	-0.171499
C30	C	-0.695395	-0.932177	-0.171497
C31	C	-0.657074	-0.989120	-0.114595
N32	N	0.189642	-0.989127	-0.114593
C33	C	-0.000066	-1.142175	-0.108476
C34	C	-0.000067	-1.235125	-0.110127
C35	C	-0.000059	-0.405312	-0.113117
C36	C	-0.000331	-0.452746	-0.021565
C37	C	-0.000052	-0.549436	-0.023217
C38	C	-0.000052	-0.572873	-0.116060
C39	C	0.069478	-0.531798	-0.161220
C40	C	0.069531	-0.435162	-0.158920
C41	C	-0.068935	-0.434799	-0.160804
C42	C	-0.069849	-0.531744	-0.160782
C43	C	-0.000045	-0.667570	-0.117727
C44	C	-0.000060	-0.310614	-0.111452
C45	C	-0.000057	-0.982980	-0.267671
C46	C	-0.000057	-0.984631	-0.360621
C47	C	-0.000056	-0.987621	0.469192
C48	C	0.000223	-0.896069	0.421758
C49	C	-0.000052	-0.897721	0.325068
C50	C	-0.000054	-0.990564	0.301631
C51	C	-0.069588	-1.035708	0.342713
C52	C	-0.069646	-1.033408	0.439348
C53	C	0.068820	-1.035324	0.439699
C54	C	0.069739	-1.035302	0.342754
C55	C	-0.000056	-0.992231	0.206934
C56	C	-0.000059	-0.985956	0.563890
H57	H	-0.335916	-1.092381	-0.011347
H58	H	0.069285	-1.102825	0.471460
C59	C	-0.813738	-0.870328	-0.233149
C60	C	-0.857765	-0.819096	-0.188516
C61	C	-0.896197	-0.762111	-0.245278
H62	H	-0.780023	-0.836334	-0.267060
H63	H	-0.843672	-0.900424	-0.268012
H64	H	-0.827834	-0.789003	-0.153667
H65	H	-0.891493	-0.853067	-0.154608
H66	H	-0.926131	-0.792207	-0.280141
H67	H	-0.862477	-0.728123	-0.279186
H68	H	-0.926079	-0.727349	-0.215003
H69	H	0.049793	-0.862234	0.296643
H70	H	-0.072176	-1.103916	0.328587
C71	C	-0.138525	-0.568008	-0.116909
C72	C	-0.200358	-0.530836	-0.157346
C73	C	-0.263633	-0.564218	-0.116945
H74	H	-0.139909	-0.627079	-0.119137
H75	H	-0.138125	-0.556782	-0.059844
H76	H	-0.200759	-0.542068	-0.214396
H77	H	-0.198998	-0.471768	-0.155120
H78	H	-0.263233	-0.552993	-0.059880
H79	H	-0.265010	-0.623288	-0.119175
H80	H	-0.305594	-0.538996	-0.144370
H81	H	-0.121621	-1.000470	0.457653
H82	H	0.050087	-0.859486	0.440287
C83	C	-0.069534	-0.392616	-0.250871
C84	C	-0.067262	-0.454211	-0.306421
C85	C	-0.067799	-0.415385	-0.389394
H86	H	-0.112918	-0.360192	-0.260417
H87	H	-0.028042	-0.356927	-0.259932
H88	H	-0.108750	-0.489885	-0.297364
H89	H	-0.023881	-0.486638	-0.296902
H90	H	-0.026307	-0.379697	-0.398455
H91	H	-0.111185	-0.382963	-0.398931
H92	H	-0.066252	-0.457171	-0.427095
H93	H	0.121522	-1.005401	0.460236
C94	C	-0.065863	-0.847539	0.448052
C95	C	-0.063287	-0.843142	0.534928
C96	C	-0.124159	-0.798456	0.559184
H97	H	-0.065346	-0.792266	0.419195
H98	H	-0.109423	-0.875494	0.434443
H99	H	-0.019738	-0.815185	0.548530
H100	H	-0.063814	-0.898402	0.563806
H101	H	-0.167719	-0.826412	0.545575
H102	H	-0.123637	-0.743187	0.530322
H103	H	-0.122423	-0.795474	0.618132
H104	H	-0.121330	-1.004335	0.314334
C105	C	0.065813	-0.426804	0.027066
C106	C	0.108690	-0.497763	0.052271
C107	C	0.169623	-0.473898	0.097077
H108	H	0.094024	-0.387006	-0.007860
H109	H	0.049846	-0.402291	0.075302
H110	H	0.124657	-0.522263	0.004042
H111	H	0.080501	-0.537569	0.087208
H112	H	0.153657	-0.449384	0.145313
H113	H	0.197828	-0.434099	0.062146
H114	H	0.198720	-0.522039	0.114191
H115	H	-0.664199	-0.885813	-0.217829
H116	H	-0.074049	-0.547108	-0.228486
H117	H	-0.196872	-1.092370	-0.011348
C118	C	-0.066533	-0.849933	0.287846
C119	C	-0.043481	-0.782449	0.230466
C120	C	-0.104707	-0.738401	0.196172
H121	H	-0.096359	-0.886566	0.259727
H122	H	-0.093872	-0.829183	0.331630
H123	H	-0.016154	-0.803198	0.186689
H124	H	-0.013663	-0.745796	0.258565
H125	H	-0.132046	-0.717651	0.239955
H126	H	-0.134529	-0.775041	0.168057
H127	H	-0.089074	-0.692604	0.157241
H128	H	-0.072803	-1.100623	0.471597
C129	C	0.073087	-0.550678	-0.252147
C130	C	0.137722	-0.594576	-0.264843
C131	C	0.141075	-0.611975	-0.348596
H132	H	0.032136	-0.583976	-0.264020
H133	H	0.072480	-0.499397	-0.288478
H134	H	0.138322	-0.645850	-0.228524
H135	H	0.178684	-0.561293	-0.252988
H136	H	0.140468	-0.560694	-0.384927
H137	H	0.100121	-0.645271	-0.360462
H138	H	0.184933	-0.641755	-0.357224
H139	H	0.121223	-0.560182	-0.129859
C140	C	-0.346467	-0.870417	-0.233231
C141	C	-0.421789	-0.882629	-0.221073
C142	C	-0.460265	-0.825796	-0.277946
H143	H	-0.334008	-0.814501	-0.224158
H144	H	-0.333940	-0.879512	-0.289136
H145	H	-0.434312	-0.873528	-0.165181
H146	H	-0.434271	-0.938534	-0.230153
H147	H	-0.447737	-0.834890	-0.333851
H148	H	-0.447800	-0.769883	-0.268868
H149	H	-0.511375	-0.834079	-0.269710
H150	H	-0.803229	-1.092422	-0.011353
H151	H	-0.196886	-0.885752	-0.217811
C152	C	0.073903	-0.392200	-0.248547
C153	C	0.138357	-0.416787	-0.286361
C154	C	0.142421	-0.377222	-0.368918
H155	H	0.032846	-0.407980	-0.279656
H156	H	0.074008	-0.332895	-0.247788
H157	H	0.138245	-0.476079	-0.287126
H158	H	0.179425	-0.401006	-0.255277
H159	H	0.142526	-0.317917	-0.368158
H160	H	0.101361	-0.393005	-0.400019
H161	H	0.186155	-0.393892	-0.394582
C162	C	-0.653908	-1.107907	0.004185
C163	C	-0.703869	-1.157756	0.054035
C164	C	-0.665687	-1.214734	0.111053
H165	H	-0.623999	-1.142837	-0.025856
H166	H	-0.624032	-1.077807	0.039103
H167	H	-0.733733	-1.187854	0.019121
H168	H	-0.733780	-1.122850	0.084094
H169	H	-0.635812	-1.184634	0.145972
H170	H	-0.635780	-1.249657	0.081005
H171	H	-0.699580	-1.248558	0.144888
H172	H	-0.049894	-0.577856	0.012281
H173	H	-0.050194	-0.434215	0.015033
C174	C	0.138855	-0.410929	-0.114950
C175	C	0.180299	-0.483264	-0.090707
C176	C	0.244161	-0.460980	-0.050188
H177	H	0.166737	-0.372990	-0.152293
H178	H	0.126176	-0.384695	-0.066552
H179	H	0.192980	-0.509485	-0.139099
H180	H	0.152439	-0.521211	-0.053355
H181	H	0.231482	-0.434746	-0.001790
H182	H	0.272036	-0.423040	-0.087536
H183	H	0.272285	-0.510055	-0.033727
H184	H	0.049876	-0.577303	0.012515
H185	H	-0.121637	-0.414254	-0.130871
H186	H	0.121178	-1.002296	0.315502
H187	H	0.073935	-1.103008	0.327391
