data_functionalizedCrystal
_audit_creation_method	'MofGen! by Chris Wilmer'
_symmetry_space_group_name_H-M	'P1'
_symmetry_Int_Tables_number	1
_symmetry_cell_setting	triclinic
loop_
_symmetry_equiv_pos_as_xyz
  x,y,z
_cell_length_a	18.050589
_cell_length_b	13.897449
_cell_length_c	13.897449
_cell_angle_alpha	90.008641
_cell_angle_beta	90.007547
_cell_angle_gamma	90.029048
loop_
_atom_site_label
_atom_site_type_symbol
_atom_site_fract_x
_atom_site_fract_y
_atom_site_fract_z
Zn1	Zn	-0.295768	1.474492	0.545467
Zn2	Zn	-0.419929	1.474397	0.384177
Zn3	Zn	-0.295759	1.313222	0.384178
Zn4	Zn	-0.419923	1.313133	0.545422
O5	O	-0.357845	1.393811	0.464811
O6	O	-0.312245	1.609461	0.524090
O7	O	-0.403456	1.453015	0.249195
O8	O	-0.191835	1.334692	0.405594
O9	O	-0.403465	1.609392	0.405591
O10	O	-0.191843	1.453176	0.524092
O11	O	-0.312228	1.334601	0.249197
O12	O	-0.312223	1.178229	0.405549
O13	O	-0.403455	1.334539	0.680409
O14	O	-0.403446	1.178163	0.524014
O15	O	-0.312239	1.453089	0.680443
O16	O	-0.523852	1.452929	0.405546
O17	O	-0.523848	1.334448	0.524012
C18	C	-0.357833	1.143197	0.464777
C19	C	-0.357846	1.035983	0.464786
C20	C	-0.357849	0.948913	0.464802
C21	C	-0.357854	0.839680	0.464831
C22	C	-0.550797	1.393695	0.464795
C23	C	-0.633343	1.393733	0.464820
C24	C	-0.832818	1.329367	0.529220
C25	C	-0.882239	1.305872	0.441200
C26	C	-0.784473	1.393828	0.464833
C27	C	-0.882133	1.417369	0.552863
C28	C	-0.930458	1.393917	0.464853
C29	C	-0.832807	1.370287	0.376767
C30	C	-0.832696	1.481825	0.488489
C31	C	-0.882096	1.458364	0.400409
C32	C	-0.700375	1.393774	0.464823
C33	C	-1.014554	1.393972	0.464853
C34	C	-0.164139	1.393954	0.464848
C35	C	-0.081593	1.394015	0.464864
C36	C	-0.357848	1.393815	0.716404
C37	C	-0.357849	1.393816	0.823618
C38	C	-0.357857	1.645404	0.464845
C39	C	-0.357862	1.752618	0.464860
C40	C	-0.357852	1.393792	1.019913
C41	C	-0.357853	1.393802	0.910681
C42	C	-0.357857	1.393798	1.214197
C43	C	-0.357851	1.393791	1.106983
H44	H	-0.904018	1.231498	0.421210
H45	H	-0.810920	1.556183	0.508521
O46	O	-0.806949	1.346442	0.288006
C47	C	-0.728843	1.346666	0.289071
H48	H	-0.708393	1.335865	0.365924
H49	H	-0.707329	1.285843	0.241664
H50	H	-0.707648	1.418468	0.260487
H51	H	-0.903597	1.512915	0.345904
O52	O	-0.907857	1.441144	0.641710
C53	C	-0.847534	1.456855	0.704240
H54	H	-0.796253	1.476000	0.660353
H55	H	-0.861160	1.518533	0.755339
H56	H	-0.836411	1.388741	0.747591
O57	O	-0.807032	1.264113	0.593977
C58	C	-0.832295	1.171481	0.568692
H59	H	-0.846165	1.169734	0.488683
H60	H	-0.787164	1.116413	0.584722
H61	H	-0.883984	1.153391	0.612225
