data_functionalizedCrystal
_audit_creation_method	'MofGen! by Chris Wilmer'
_symmetry_space_group_name_H-M	'P1'
_symmetry_Int_Tables_number	1
_symmetry_cell_setting	triclinic
loop_
_symmetry_equiv_pos_as_xyz
  x,y,z
_cell_length_a	27.731988
_cell_length_b	19.188924
_cell_length_c	26.809956
_cell_angle_alpha	89.993348
_cell_angle_beta	90.004168
_cell_angle_gamma	97.119837
loop_
_atom_site_label
_atom_site_type_symbol
_atom_site_fract_x
_atom_site_fract_y
_atom_site_fract_z
O1	O	-0.641206	0.082879	-0.041344
O2	O	-0.307873	0.416212	0.291990
O3	O	0.025460	0.749545	0.625323
O4	O	-0.500447	0.095554	-0.041375
O5	O	-0.167114	0.428887	0.291958
O6	O	0.166220	0.762221	0.625291
O7	O	-0.574890	-0.012467	-0.041353
O8	O	-0.241557	0.320867	0.291981
O9	O	0.091776	0.654200	0.625314
O10	O	-0.566763	0.190900	-0.041366
O11	O	-0.233430	0.524233	0.291967
O12	O	0.099904	0.857566	0.625300
O13	O	-0.574868	-0.012467	0.041606
O14	O	-0.241534	0.320867	0.374940
O15	O	0.091799	0.654200	0.708273
O16	O	-0.500424	0.095554	0.041584
O17	O	-0.167091	0.428888	0.374917
O18	O	0.166242	0.762221	0.708251
O19	O	-0.641183	0.082879	0.041616
O20	O	-0.307850	0.416212	0.374949
O21	O	0.025483	0.749545	0.708282
Zn22	Zn	-0.570800	0.089216	0.054771
Zn23	Zn	-0.237467	0.422550	0.388105
Zn24	Zn	0.095866	0.755883	0.721438
Zn25	Zn	-0.570830	0.089216	-0.054531
Zn26	Zn	-0.237497	0.422550	0.278802
Zn27	Zn	0.095836	0.755883	0.612136
O28	O	-0.566740	0.190900	0.041593
O29	O	-0.233407	0.524233	0.374926
O30	O	0.099927	0.857566	0.708260
C31	C	-0.482427	0.095295	0.000100
C32	C	-0.149094	0.428628	0.333434
C33	C	0.184239	0.761961	0.666767
C34	C	-0.428769	0.094513	0.000088
C35	C	-0.095435	0.427846	0.333422
C36	C	0.237898	0.761179	0.666755
C37	C	-0.045603	0.088845	-0.045110
C38	C	0.287731	0.422178	0.288223
C39	C	0.621064	0.755512	0.621556
C40	C	-0.247270	0.091826	-0.045123
C41	C	0.086064	0.425159	0.288210
C42	C	0.419397	0.758492	0.621544
O43	O	-0.273355	0.092183	-0.083582
O44	O	0.059979	0.425516	0.249751
O45	O	0.393312	0.758849	0.583084
N46	N	-0.272479	0.092198	0.000097
N47	N	0.060855	0.425532	0.333431
N48	N	0.394188	0.758865	0.666764
C49	C	-0.247268	0.091822	0.045324
C50	C	0.086065	0.425155	0.378657
C51	C	0.419398	0.758488	0.711990
O52	O	-0.273338	0.092200	0.083786
O53	O	0.059995	0.425533	0.417119
O54	O	0.393328	0.758867	0.750453
C55	C	-0.045603	0.088836	0.045336
C56	C	0.287731	0.422170	0.378669
C57	C	0.621064	0.755503	0.712002
C58	C	-0.020396	0.088470	0.000113
C59	C	0.312938	0.421804	0.333446
C60	C	0.646271	0.755137	0.666779
C61	C	-0.020396	0.088479	-0.090330
C62	C	0.312938	0.421812	0.243003
C63	C	0.646271	0.755145	0.576337
C64	C	0.030018	0.087737	-0.090326
C65	C	0.363352	0.421071	0.243007
C66	C	0.696685	0.754404	0.576340
C67	C	0.055225	0.087363	-0.045103
C68	C	0.388559	0.420696	0.288230
C69	C	0.721892	0.754029	0.621563
C70	C	0.030018	0.087729	0.000116
C71	C	0.363352	0.421063	0.333450
C72	C	0.696685	0.754396	0.666783
C73	C	-0.020394	0.088454	0.090562
C74	C	0.312940	0.421788	0.423895
C75	C	0.646273	0.755121	0.757228
C76	C	0.030026	0.087706	0.090561
C77	C	0.363359	0.421039	0.423894
C78	C	0.696692	0.754373	0.757227
C79	C	0.055233	0.087340	0.045338
C80	C	0.388566	0.420674	0.378671
C81	C	0.721899	0.754007	0.712004
C82	C	0.105639	0.086613	0.045343
C83	C	0.438973	0.419947	0.378676
C84	C	0.772306	0.753280	0.712009
N85	N	0.130848	0.086240	0.000123
N86	N	0.464182	0.419574	0.333456
N87	N	0.797515	0.752907	0.666789
C88	C	0.105641	0.086615	-0.045100
C89	C	0.438975	0.419948	0.288233
C90	C	0.772308	0.753282	0.621566
C91	C	-0.353146	0.093390	0.045314
C92	C	-0.019812	0.426724	0.378648
C93	C	0.313521	0.760057	0.711981
C94	C	-0.403562	0.094138	0.045312
C95	C	-0.070228	0.427471	0.378645
C96	C	0.263105	0.760805	0.711978
C97	C	-0.403560	0.094141	-0.045135
C98	C	-0.070226	0.427474	0.288198
C99	C	0.263107	0.760807	0.621531
C100	C	-0.353142	0.093398	-0.045132
C101	C	-0.019809	0.426731	0.288201
C102	C	0.313524	0.760065	0.621535
C103	C	-0.327937	0.093017	0.000094
C104	C	0.005397	0.426351	0.333428
C105	C	0.338730	0.759684	0.666761
C106	C	0.211515	0.085059	-0.045089
C107	C	0.544848	0.418392	0.288244
C108	C	0.878181	0.751726	0.621577
C109	C	0.261933	0.084321	-0.045082
C110	C	0.595267	0.417654	0.288251
C111	C	0.928600	0.750987	0.621585
C112	C	0.261927	0.084314	0.045365
C113	C	0.595260	0.417648	0.378698
C114	C	0.928593	0.750981	0.712031
C115	C	0.211513	0.085056	0.045357
C116	C	0.544846	0.418390	0.378691
C117	C	0.878179	0.751723	0.712024
C118	C	0.186308	0.085426	0.000126
C119	C	0.519641	0.418760	0.333460
C120	C	0.852974	0.752093	0.666793
O121	O	0.131755	0.086248	0.083782
O122	O	0.465088	0.419581	0.417116
O123	O	0.798421	0.752914	0.750449
O124	O	0.131719	0.086221	-0.083557
O125	O	0.465052	0.419554	0.249776
O126	O	0.798385	0.752888	0.583110
C127	C	-0.096017	0.089586	-0.045114
C128	C	0.237316	0.422920	0.288219
C129	C	0.570650	0.756253	0.621553
C130	C	-0.121224	0.089953	0.000105
C131	C	0.212109	0.423286	0.333439
C132	C	0.545443	0.756620	0.666772
C133	C	-0.096017	0.089578	0.045329
C134	C	0.237316	0.422912	0.378662
C135	C	0.570650	0.756245	0.711995
C136	C	-0.171640	0.090700	0.000103
C137	C	0.161693	0.424034	0.333436
C138	C	0.495027	0.757367	0.666769
C139	C	-0.196847	0.091075	-0.045120
C140	C	0.136486	0.424409	0.288213
C141	C	0.469820	0.757742	0.621546
C142	C	-0.171638	0.090702	-0.090341
C143	C	0.161695	0.424036	0.242993
C144	C	0.495029	0.757369	0.576326
C145	C	-0.121224	0.089961	-0.090337
C146	C	0.212109	0.423294	0.242996
C147	C	0.545443	0.756628	0.576330
C148	C	-0.121226	0.089951	0.090549
C149	C	0.212107	0.423284	0.423882
C150	C	0.545441	0.756618	0.757215
C151	C	-0.171640	0.090693	0.090541
C152	C	0.161693	0.424027	0.423875
C153	C	0.495027	0.757360	0.757208
C154	C	-0.196847	0.091068	0.045318
C155	C	0.136486	0.424401	0.378652
C156	C	0.469820	0.757735	0.711985
C157	C	-0.574616	-0.038476	0.000127
C158	C	-0.241283	0.294857	0.333461
C159	C	0.092050	0.628191	0.666794
C160	C	-0.573828	-0.115976	0.000128
C161	C	-0.240495	0.217358	0.333462
C162	C	0.092839	0.550691	0.666795
C163	C	0.340798	0.083145	0.000137
C164	C	0.674131	0.416478	0.333471
C165	C	1.007464	0.749811	0.666804
C166	C	0.287141	0.083946	0.000141
C167	C	0.620474	0.417279	0.333474
C168	C	0.953807	0.750613	0.666808
C169	C	-0.573472	-0.152372	-0.045093
C170	C	-0.240139	0.180961	0.288240
C171	C	0.093194	0.514295	0.621574
C172	C	-0.572725	-0.225190	-0.045097
C173	C	-0.239391	0.108144	0.288237
C174	C	0.093942	0.441477	0.621570
C175	C	-0.572342	-0.261610	0.000123
C176	C	-0.239009	0.071723	0.333456
C177	C	0.094324	0.405057	0.666790
C178	C	-0.572695	-0.225204	0.045350
C179	C	-0.239362	0.108129	0.378684
C180	C	0.093971	0.441462	0.712017
C181	C	-0.573438	-0.152387	0.045353
C182	C	-0.240105	0.180946	0.378686
C183	C	0.093229	0.514280	0.712020
N184	N	-0.598675	-0.381450	0.033785
N185	N	-0.265341	-0.048116	0.367119
N186	N	0.067992	0.285217	0.700452
N187	N	-0.597970	-0.450623	0.033780
N188	N	-0.264637	-0.117290	0.367113
N189	N	0.068696	0.216044	0.700446
C190	C	-0.570103	-0.481004	0.000118
C191	C	-0.236770	-0.147671	0.333451
C192	C	0.096563	0.185662	0.666784
N193	N	-0.542974	-0.439600	-0.033546
N194	N	-0.209640	-0.106267	0.299788
N195	N	0.123693	0.227067	0.633121
N196	N	-0.543681	-0.370421	-0.033542
N197	N	-0.210347	-0.037087	0.299792
N198	N	0.122986	0.296246	0.633125
C199	C	-0.571537	-0.340568	0.000125
C200	C	-0.238203	-0.007235	0.333459
C201	C	0.095130	0.326098	0.666792
C202	C	-0.568936	-0.596358	-0.045111
C203	C	-0.235603	-0.263025	0.288222
C204	C	0.097730	0.070309	0.621556
C205	C	-0.568186	-0.669176	-0.045113
C206	C	-0.234852	-0.335843	0.288220
C207	C	0.098481	-0.002510	0.621554
C208	C	-0.568161	-0.669191	0.045335
C209	C	-0.234828	-0.335857	0.378669
C210	C	0.098506	-0.002524	0.712002
C211	C	-0.568907	-0.596373	0.045336
C212	C	-0.235574	-0.263039	0.378670
C213	C	0.097760	0.070294	0.712003
C214	C	-0.569297	-0.559961	0.000112
C215	C	-0.235963	-0.226628	0.333445
C216	C	0.097370	0.106706	0.666778
C217	C	-0.567014	0.216909	0.000112
C218	C	-0.233681	0.550242	0.333445
C219	C	0.099652	0.883576	0.666778
C220	C	-0.567803	0.294408	0.000107
C221	C	-0.234469	0.627742	0.333441
C222	C	0.098864	0.961075	0.666774
N223	N	-0.570783	0.089216	0.129367
N224	N	-0.237450	0.422549	0.462701
N225	N	0.095883	0.755883	0.796034
N226	N	-0.570851	0.089211	-0.129127
N227	N	-0.237518	0.422545	0.204206
N228	N	0.095815	0.755878	0.537540
C229	C	-0.600050	0.131255	0.473997
C230	C	-0.266716	0.464589	0.807331
C231	C	0.066617	0.797922	1.140664
C232	C	-0.600065	0.131255	0.682875
C233	C	-0.266732	0.464588	1.016208
C234	C	0.066601	0.797921	1.349542
O235	O	-0.624936	0.166990	0.709882
O236	O	-0.291602	0.500324	1.043216
O237	O	0.041731	0.833657	1.376549
N238	N	-0.570842	0.089209	0.708994
N239	N	-0.237509	0.422543	1.042328
N240	N	0.095825	0.755876	1.375661
C241	C	-0.541615	0.047157	0.682891
C242	C	-0.208282	0.380491	1.016224
C243	C	0.125052	0.713824	1.349558
O244	O	-0.516763	0.011390	0.709900
O245	O	-0.183430	0.344723	1.043233
O246	O	0.149904	0.678056	1.376567
C247	C	-0.541602	0.047155	0.474014
C248	C	-0.208269	0.380488	0.807348
C249	C	0.125064	0.713821	1.140681
C250	C	-0.570824	0.089208	0.447898
C251	C	-0.237490	0.422542	0.781231
C252	C	0.095843	0.755875	1.114564
C253	C	-0.629269	0.173305	0.447881
C254	C	-0.295936	0.506638	0.781214
C255	C	0.037398	0.839972	1.114547
C256	C	-0.629263	0.173307	0.395664
C257	C	-0.295930	0.506641	0.728998
C258	C	0.037404	0.839974	1.062331
C259	C	-0.600037	0.131261	0.369565
C260	C	-0.266704	0.464594	0.702898
C261	C	0.066630	0.797927	1.036231
C262	C	-0.570818	0.089211	0.395681
C263	C	-0.237484	0.422544	0.729015
C264	C	0.095849	0.755878	1.062348
C265	C	-0.512378	0.005100	0.447912
C266	C	-0.179045	0.338433	0.781245
C267	C	0.154288	0.671766	1.114579
C268	C	-0.512379	0.005102	0.395689
C269	C	-0.179045	0.338435	0.729023
C270	C	0.154288	0.671768	1.062356
C271	C	-0.541600	0.047155	0.369573
C272	C	-0.208267	0.380488	0.702906
C273	C	0.125066	0.713822	1.036239
C274	C	-0.541586	0.047167	0.317365
C275	C	-0.208252	0.380500	0.650699
C276	C	0.125081	0.713833	0.984032
N277	N	-0.570809	0.089212	0.291246
N278	N	-0.237476	0.422545	0.624579
N279	N	0.095858	0.755879	0.957913
C280	C	-0.600035	0.131259	0.317346
C281	C	-0.266701	0.464592	0.650679
C282	C	0.066632	0.797926	0.984012
C283	C	-0.541623	0.047163	0.792554
C284	C	-0.208290	0.380496	1.125888
C285	C	0.125044	0.713830	1.459221
C286	C	-0.541625	0.047164	0.844773
C287	C	-0.208292	0.380498	1.178107
C288	C	0.125041	0.713831	1.511440
C289	C	-0.600076	0.131261	0.844754
C290	C	-0.266743	0.464594	1.178087
C291	C	0.066590	0.797927	1.511420
C292	C	-0.600071	0.131263	0.792534
C293	C	-0.266738	0.464596	1.125867
C294	C	0.066596	0.797929	1.459200
C295	C	-0.570846	0.089208	0.766435
C296	C	-0.237513	0.422542	1.099768
C297	C	0.095820	0.755875	1.433102
C298	C	-0.600019	0.131262	0.207688
C299	C	-0.266686	0.464595	0.541021
C300	C	0.066647	0.797929	0.874354
C301	C	-0.600009	0.131263	0.155467
C302	C	-0.266676	0.464596	0.488800
C303	C	0.066658	0.797930	0.822134
C304	C	-0.541560	0.047164	0.155491
C305	C	-0.208227	0.380497	0.488824
C306	C	0.125107	0.713831	0.822158
C307	C	-0.541568	0.047165	0.207707
C308	C	-0.208235	0.380499	0.541041
C309	C	0.125098	0.713832	0.874374
C310	C	-0.570802	0.089216	0.233805
C311	C	-0.237468	0.422550	0.567138
C312	C	0.095865	0.755883	0.900471
O313	O	-0.516732	0.011444	0.290326
O314	O	-0.183399	0.344777	0.623659
O315	O	0.149934	0.678110	0.956993
O316	O	-0.624891	0.167010	0.290328
O317	O	-0.291558	0.500343	0.623661
O318	O	0.041775	0.833676	0.956995
C319	C	-0.600056	0.131253	0.526214
C320	C	-0.266722	0.464586	0.859547
C321	C	0.066611	0.797919	1.192880
C322	C	-0.570836	0.089203	0.552330
C323	C	-0.237503	0.422536	0.885664
C324	C	0.095830	0.755870	1.218997
C325	C	-0.541610	0.047156	0.526231
C326	C	-0.208277	0.380490	0.859564
C327	C	0.125056	0.713823	1.192897
C328	C	-0.570839	0.089205	0.604549
C329	C	-0.237505	0.422538	0.937883
C330	C	0.095828	0.755871	1.271216
C331	C	-0.600064	0.131252	0.630649
C332	C	-0.266731	0.464585	0.963982
C333	C	0.066602	0.797918	1.297316
C334	C	-0.629288	0.173297	0.604530
C335	C	-0.295954	0.506630	0.937863
C336	C	0.037379	0.839964	1.271196
C337	C	-0.629281	0.173300	0.552313
C338	C	-0.295948	0.506633	0.885647
C339	C	0.037385	0.839966	1.218980
C340	C	-0.512387	0.005111	0.552350
C341	C	-0.179054	0.338444	0.885683
C342	C	0.154279	0.671777	1.219017
C343	C	-0.512395	0.005112	0.604566
C344	C	-0.179062	0.338446	0.937900
C345	C	0.154271	0.671779	1.271233
C346	C	-0.541621	0.047159	0.630666
C347	C	-0.208288	0.380492	0.963999
C348	C	0.125046	0.713826	1.297333
H349	H	-0.332622	0.093100	-0.081957
H350	H	0.000711	0.426433	0.251377
H351	H	0.334045	0.759767	0.584710
H352	H	-0.567846	-0.698843	0.082154
H353	H	-0.234513	-0.365509	0.415488
H354	H	0.098821	-0.032176	0.748821
H355	H	-0.040909	0.088750	0.127387
H356	H	0.292424	0.422083	0.460721
H357	H	0.625758	0.755417	0.794054
H358	H	0.282460	0.084012	0.082184
H359	H	0.615793	0.417345	0.415517
H360	H	0.949126	0.750679	0.748851
H361	H	-0.623824	0.165503	0.228930
H362	H	-0.290491	0.498837	0.562263
H363	H	0.042843	0.832170	0.895597
H364	H	-0.569200	-0.566739	0.082160
H365	H	-0.235867	-0.233406	0.415494
H366	H	0.097466	0.099928	0.748827
H367	H	-0.488588	-0.029131	0.531105
H368	H	-0.155255	0.304202	0.864438
H369	H	0.178078	0.637536	1.197772
H370	H	-0.569251	-0.566710	-0.081935
H371	H	-0.235918	-0.233376	0.251398
H372	H	0.097416	0.099957	0.584731
H373	H	-0.424092	0.094448	-0.081958
H374	H	-0.090758	0.427781	0.251376
H375	H	0.242575	0.761115	0.584709
O376	O	-0.196051	0.091097	-0.134316
O377	O	0.137282	0.424430	0.199018
O378	O	0.470615	0.757764	0.532351
C379	C	-0.162999	0.090593	-0.174234
C380	C	0.170334	0.423926	0.159100
C381	C	0.503667	0.757259	0.492433
H382	H	-0.125008	0.112176	-0.160982
H383	H	0.208325	0.445509	0.172352
H384	H	0.541658	0.778843	0.505685
H385	H	-0.174428	0.124718	-0.205863
H386	H	0.158905	0.458052	0.127471
H387	H	0.492239	0.791385	0.460804
H388	H	-0.162834	0.034478	-0.188135
H389	H	0.170499	0.367811	0.145198
H390	H	0.503832	0.701145	0.478532
O391	O	0.286341	0.083934	-0.089059
O392	O	0.619675	0.417267	0.244275
O393	O	0.953008	0.750601	0.577608
C394	C	0.253279	0.084439	-0.128972
C395	C	0.586612	0.417772	0.204361
C396	C	0.919946	0.751106	0.537694
H397	H	0.215292	0.062854	-0.115714
H398	H	0.548625	0.396187	0.217620
H399	H	0.881958	0.729520	0.550953
H400	H	0.264701	0.050316	-0.160599
H401	H	0.598034	0.383649	0.172734
H402	H	0.931367	0.716983	0.506067
H403	H	0.253110	0.140555	-0.142880
H404	H	0.586443	0.473888	0.190453
H405	H	0.919776	0.807221	0.523786
H406	H	0.190999	0.085361	-0.081921
H407	H	0.524332	0.418694	0.251412
H408	H	0.857665	0.752028	0.584746
O409	O	-0.513167	0.006255	0.233002
O410	O	-0.179833	0.339589	0.566335
O411	O	0.153500	0.672922	0.899668
C412	C	-0.487359	-0.030837	0.198764
C413	C	-0.154026	0.302497	0.532097
C414	C	0.179307	0.635830	0.865430
H415	H	-0.507373	-0.035108	0.161536
H416	H	-0.174040	0.298225	0.494869
H417	H	0.159294	0.631558	0.828203
H418	H	-0.484483	-0.085715	0.213851
H419	H	-0.151149	0.247619	0.547184
H420	H	0.182184	0.580952	0.880518
H421	H	-0.449355	-0.001683	0.193218
H422	H	-0.116022	0.331650	0.526551
H423	H	0.217312	0.664984	0.859885
H424	H	-0.488584	-0.029146	0.469167
H425	H	-0.155250	0.304188	0.802500
H426	H	0.178083	0.637521	1.135834
O427	O	-0.483943	-0.035768	0.370415
O428	O	-0.150609	0.297565	0.703749
O429	O	0.182724	0.630899	1.037082
C430	C	-0.458165	-0.072894	0.404669
C431	C	-0.124831	0.260439	0.738002
C432	C	0.208502	0.593772	1.071335
H433	H	-0.455286	-0.043960	0.441890
H434	H	-0.121953	0.289373	0.775223
H435	H	0.211381	0.622707	1.108556
H436	H	-0.420163	-0.076839	0.389591
H437	H	-0.086829	0.256494	0.722924
H438	H	0.246504	0.589827	1.056257
H439	H	-0.478199	-0.127904	0.410223
H440	H	-0.144865	0.205429	0.743557
H441	H	0.188468	0.538763	1.076890
O442	O	-0.572239	-0.260530	0.089290
O443	O	-0.238905	0.072803	0.422624
O444	O	0.094428	0.406136	0.755957
C445	C	-0.530563	-0.234357	0.116796
C446	C	-0.197229	0.098976	0.450130
C447	C	0.136104	0.432310	0.783463
H448	H	-0.501520	-0.208484	0.090329
H449	H	-0.168187	0.124849	0.423662
H450	H	0.165147	0.458182	0.756996
H451	H	-0.516020	-0.279437	0.137305
H452	H	-0.182686	0.053896	0.470638
H453	H	0.150647	0.387229	0.803972
H454	H	-0.540447	-0.193986	0.144997
H455	H	-0.207114	0.139347	0.478331
H456	H	0.126220	0.472681	0.811664
O457	O	-0.096680	0.089679	0.134448
O458	O	0.236653	0.423012	0.467781
O459	O	0.569986	0.756345	0.801115
C460	C	-0.061918	0.149751	0.137162
C461	C	0.271415	0.483084	0.470495
C462	C	0.604748	0.816417	0.803828
H463	H	-0.052492	0.169810	0.097898
H464	H	0.280841	0.503143	0.431232
H465	H	0.614174	0.836476	0.764565
H466	H	-0.027728	0.135622	0.156308
H467	H	0.305605	0.468955	0.489641
H468	H	0.638939	0.802289	0.822974
H469	H	-0.077424	0.192395	0.159473
H470	H	0.255909	0.525728	0.492807
H471	H	0.589243	0.859062	0.826140
O472	O	-0.628504	0.172128	0.767244
O473	O	-0.295170	0.505461	1.100577
O474	O	0.038163	0.838794	1.433910
C475	C	-0.654286	0.209252	0.801484
C476	C	-0.320953	0.542585	1.134817
C477	C	0.012380	0.875919	1.468151
H478	H	-0.657168	0.180317	0.838709
H479	H	-0.323835	0.513651	1.172042
H480	H	0.009499	0.846984	1.505376
H481	H	-0.692287	0.213195	0.786396
H482	H	-0.358953	0.546529	1.119729
H483	H	-0.025620	0.879862	1.453062
H484	H	-0.634254	0.264262	0.807035
H485	H	-0.300920	0.597596	1.140368
H486	H	0.032413	0.930929	1.473701
O487	O	-0.573852	-0.116966	0.089252
O488	O	-0.240518	0.216368	0.422585
O489	O	0.092815	0.549701	0.755918
C490	C	-0.616143	-0.083237	0.091976
C491	C	-0.282810	0.250096	0.425309
C492	C	0.050524	0.583429	0.758642
H493	H	-0.630221	-0.075115	0.052716
H494	H	-0.296887	0.258218	0.386049
H495	H	0.036446	0.591551	0.719382
H496	H	-0.607248	-0.030152	0.111114
H497	H	-0.273915	0.303182	0.444448
H498	H	0.059419	0.636515	0.777781
H499	H	-0.645157	-0.117170	0.114299
H500	H	-0.311824	0.216163	0.447632
H501	H	0.021509	0.549496	0.780966
H502	H	-0.567894	-0.698809	-0.081939
H503	H	-0.234561	-0.365475	0.251394
H504	H	0.098773	-0.032142	0.584728
H505	H	-0.573789	-0.122730	-0.081918
H506	H	-0.240455	0.210603	0.251415
H507	H	0.092878	0.543937	0.584748
O508	O	-0.657698	0.214170	0.370376
O509	O	-0.324365	0.547503	0.703709
O510	O	0.008968	0.880837	1.037042
C511	C	-0.683484	0.251287	0.404618
C512	C	-0.350150	0.584621	0.737952
C513	C	-0.016817	0.917954	1.071285
H514	H	-0.686362	0.222350	0.441843
H515	H	-0.353029	0.555683	0.775176
H516	H	-0.019695	0.889016	1.108509
H517	H	-0.721485	0.255225	0.389532
H518	H	-0.388152	0.588558	0.722865
H519	H	-0.054819	0.921892	1.056198
H520	H	-0.663455	0.306300	0.410171
H521	H	-0.330122	0.639633	0.743504
H522	H	0.003211	0.972966	1.076837
H523	H	-0.653077	0.207544	0.531054
H524	H	-0.319743	0.540877	0.864387
H525	H	0.013590	0.874211	1.197720
O526	O	0.054422	0.087341	-0.134301
O527	O	0.387756	0.420675	0.199032
O528	O	0.721089	0.754008	0.532366
C529	C	0.021356	0.087845	-0.174211
C530	C	0.354689	0.421178	0.159122
C531	C	0.688022	0.754512	0.492456
H532	H	-0.016631	0.066269	-0.160946
H533	H	0.316702	0.399602	0.172388
H534	H	0.650035	0.732936	0.505721
H535	H	0.032770	0.053713	-0.205836
H536	H	0.366103	0.387046	0.127497
H537	H	0.699437	0.720379	0.460830
H538	H	0.021190	0.143959	-0.188124
H539	H	0.354523	0.477292	0.145209
H540	H	0.687856	0.810625	0.478543
H541	H	-0.623804	0.165511	0.134205
H542	H	-0.290471	0.498845	0.467538
H543	H	0.042862	0.832178	0.800872
H544	H	-0.192159	0.090997	0.127370
H545	H	0.141175	0.424330	0.460704
H546	H	0.474508	0.757663	0.794037
H547	H	-0.040914	0.088781	-0.127158
H548	H	0.292419	0.422115	0.206175
H549	H	0.625752	0.755448	0.539509
H550	H	-0.424080	0.094447	0.082137
H551	H	-0.090747	0.427781	0.415470
H552	H	0.242587	0.761114	0.748803
O553	O	-0.484075	-0.035782	0.629988
O554	O	-0.150742	0.297552	0.963321
O555	O	0.182591	0.630885	1.296655
C556	C	-0.513658	-0.083742	0.660179
C557	C	-0.180325	0.249592	0.993512
C558	C	0.153008	0.582925	1.326846
H559	H	-0.549474	-0.062376	0.667997
H560	H	-0.216141	0.270957	1.001331
H561	H	0.117192	0.604290	1.334664
H562	H	-0.494248	-0.091331	0.696902
H563	H	-0.160914	0.242002	1.030235
H564	H	0.172419	0.575335	1.363569
H565	H	-0.521174	-0.136298	0.640052
H566	H	-0.187840	0.197035	0.973385
H567	H	0.145493	0.530368	1.306719
H568	H	-0.653071	0.207545	0.469126
H569	H	-0.319737	0.540878	0.802459
H570	H	0.013596	0.874211	1.135792
O571	O	-0.328736	0.093059	0.089295
O572	O	0.004598	0.426392	0.422628
O573	O	0.337931	0.759726	0.755962
C574	C	-0.361804	0.093533	0.129201
C575	C	-0.028471	0.426866	0.462534
C576	C	0.304863	0.760200	0.795868
H577	H	-0.395690	0.116177	0.115932
H578	H	-0.062357	0.449510	0.449265
H579	H	0.270977	0.782844	0.782599
H580	H	-0.344098	0.127230	0.160829
H581	H	-0.010764	0.460564	0.494163
H582	H	0.322569	0.793897	0.827496
H583	H	-0.372364	0.037577	0.143110
H584	H	-0.039031	0.370911	0.476444
H585	H	0.294303	0.704244	0.809777
H586	H	0.050546	0.087402	0.127390
H587	H	0.383879	0.420736	0.460724
H588	H	0.717213	0.754069	0.794057
O589	O	-0.628457	0.172037	0.870189
O590	O	-0.295124	0.505370	1.203522
O591	O	0.038210	0.838703	1.536856
C592	C	-0.622181	0.163027	0.921878
C593	C	-0.288848	0.496360	1.255211
C594	C	0.044486	0.829694	1.588544
H595	H	-0.608508	0.110288	0.929010
H596	H	-0.275175	0.443621	1.262343
H597	H	0.058158	0.776954	1.595677
H598	H	-0.658406	0.164401	0.941722
H599	H	-0.325073	0.497734	1.275055
H600	H	0.008260	0.831067	1.608388
H601	H	-0.594554	0.207106	0.936698
H602	H	-0.261221	0.540440	1.270032
H603	H	0.072113	0.873773	1.603365
O604	O	0.187096	0.085383	0.089331
O605	O	0.520429	0.418716	0.422664
O606	O	0.853762	0.752049	0.755997
C607	C	0.220160	0.084914	0.129246
C608	C	0.553493	0.418247	0.462579
C609	C	0.886827	0.751580	0.795912
H610	H	0.254051	0.062281	0.115989
H611	H	0.587385	0.395614	0.449323
H612	H	0.920718	0.728948	0.782656
H613	H	0.202454	0.051210	0.160874
H614	H	0.535787	0.384543	0.494207
H615	H	0.869120	0.717876	0.827540
H616	H	0.230711	0.140870	0.143151
H617	H	0.564045	0.474203	0.476484
H618	H	0.897378	0.807536	0.809818
O619	O	-0.513147	0.006418	0.130076
O620	O	-0.179813	0.339751	0.463410
O621	O	0.153520	0.673085	0.796743
C622	C	-0.480062	0.049327	0.099879
C623	C	-0.146729	0.382661	0.433212
C624	C	0.186605	0.715994	0.766545
H625	H	-0.494985	0.100987	0.092055
H626	H	-0.161652	0.434320	0.425388
H627	H	0.171681	0.767654	0.758722
H628	H	-0.474746	0.021316	0.063158
H629	H	-0.141412	0.354649	0.396492
H630	H	0.191921	0.687983	0.729825
H631	H	-0.443702	0.060376	0.120002
H632	H	-0.110369	0.393710	0.453336
H633	H	0.222964	0.727043	0.786669
O634	O	-0.572385	-0.260448	-0.089071
O635	O	-0.239052	0.072885	0.244262
O636	O	0.094281	0.406218	0.577595
C637	C	-0.572864	-0.212691	-0.128986
C638	C	-0.239531	0.120642	0.204347
C639	C	0.093802	0.453976	0.537680
H640	H	-0.588705	-0.163855	-0.115732
H641	H	-0.255372	0.169478	0.217601
H642	H	0.077962	0.502812	0.550934
H643	H	-0.596105	-0.238427	-0.160619
H644	H	-0.262772	0.094906	0.172715
H645	H	0.070562	0.428239	0.506048
H646	H	-0.534172	-0.197173	-0.142884
H647	H	-0.200839	0.136160	0.190449
H648	H	0.132495	0.469493	0.523783
H649	H	-0.517825	0.012928	0.866033
H650	H	-0.184491	0.346262	1.199366
H651	H	0.148842	0.679595	1.532700
H652	H	-0.517823	0.012915	0.771309
H653	H	-0.184490	0.346249	1.104643
H654	H	0.148843	0.679582	1.437976
H655	H	-0.100705	0.089663	-0.127162
H656	H	0.232629	0.422996	0.206171
H657	H	0.565962	0.756330	0.539504
O658	O	-0.657735	0.214035	0.629910
O659	O	-0.324402	0.547369	0.963244
O660	O	0.008932	0.880702	1.296577
C661	C	-0.690800	0.171114	0.660122
C662	C	-0.357466	0.504448	0.993455
C663	C	-0.024133	0.837781	1.326788
H664	H	-0.696107	0.115504	0.644383
H665	H	-0.362774	0.448838	0.977717
H666	H	-0.029441	0.782171	1.311050
H667	H	-0.727163	0.193050	0.660713
H668	H	-0.393830	0.526384	0.994046
H669	H	-0.060497	0.859717	1.327379
H670	H	-0.675866	0.170082	0.699698
H671	H	-0.342533	0.503415	1.033032
H672	H	-0.009199	0.836748	1.366365
