data_functionalizedCrystal
_audit_creation_method	'MofGen! by Chris Wilmer'
_symmetry_space_group_name_H-M	'P1'
_symmetry_Int_Tables_number	1
_symmetry_cell_setting	triclinic
loop_
_symmetry_equiv_pos_as_xyz
  x,y,z
_cell_length_a	12.827893
_cell_length_b	12.759400
_cell_length_c	12.827885
_cell_angle_alpha	90.030494
_cell_angle_beta	90.019272
_cell_angle_gamma	90.014655
loop_
_atom_site_label
_atom_site_type_symbol
_atom_site_fract_x
_atom_site_fract_y
_atom_site_fract_z
Zn1	Zn	1.597675	-0.418216	0.590844
Zn2	Zn	1.597571	-0.593932	0.416102
Zn3	Zn	1.422916	-0.418267	0.416117
Zn4	Zn	1.422904	-0.593854	0.590802
O5	O	1.510266	-0.506067	0.503466
O6	O	1.743897	-0.441537	0.567675
O7	O	1.574365	-0.570684	0.269868
O8	O	1.446147	-0.271240	0.439319
O9	O	1.743821	-0.570634	0.439293
O10	O	1.574541	-0.271202	0.567690
O11	O	1.446046	-0.441624	0.269879
O12	O	1.276678	-0.441548	0.439278
O13	O	1.446125	-0.570501	0.737043
O14	O	1.276669	-0.570550	0.567618
O15	O	1.574529	-0.441461	0.737074
O16	O	1.574352	-0.740942	0.439252
O17	O	1.446025	-0.740885	0.567603
C18	C	1.238756	-0.506047	0.503446
C19	C	1.122603	-0.506064	0.503462
C20	C	1.070842	-0.569998	0.566871
C21	C	0.950791	-0.570017	0.566889
C22	C	1.510204	-0.779035	0.503444
C23	C	1.510273	-0.895811	0.503470
C24	C	1.577168	-0.950668	0.436711
C25	C	1.577232	-1.060392	0.436743
C26	C	1.443499	-1.060393	0.570296
C27	C	1.443440	-0.950671	0.570268
C28	C	1.644001	-0.895809	0.369913
C29	C	1.710899	-0.950666	0.303148
C30	C	1.710964	-1.060390	0.303180
C31	C	1.644129	-1.115257	0.369977
C32	C	1.782836	-0.506088	0.503487
C33	C	1.898990	-0.506097	0.503495
C34	C	1.510337	-0.505966	0.776036
C35	C	1.510368	-0.505923	0.892190
C36	C	1.510357	-0.232034	0.503511
C37	C	1.510396	-0.115257	0.503530
C38	C	1.510256	-0.506092	0.231956
C39	C	1.510428	-0.505839	0.115803
C40	C	1.573913	-0.442058	0.943989
C41	C	1.573946	-0.442012	1.064040
H42	H	1.643953	-0.806466	0.369876
Br43	Br	1.801612	-0.876208	0.212513
H44	H	1.388970	-0.906006	0.624630
Br45	Br	1.419752	-0.596990	1.041570
Br46	Br	0.973168	-0.414866	0.412996
Br47	Br	1.664636	-0.350882	1.138280
Br48	Br	0.876606	-0.661262	0.657368
H49	H	1.115403	-0.624717	0.621148
H50	H	1.455982	-0.560560	0.936718
H51	H	1.644195	-1.204602	0.370006
Br52	Br	1.801764	-1.134837	0.212585
Br53	Br	1.352799	-1.134854	0.660942
H54	H	1.078042	-0.451337	0.449194
Br55	Br	1.664522	-0.350944	0.869783
