data_functionalizedCrystal
_audit_creation_method	'MofGen! by Chris Wilmer'
_symmetry_space_group_name_H-M	'P1'
_symmetry_Int_Tables_number	1
_symmetry_cell_setting	triclinic
loop_
_symmetry_equiv_pos_as_xyz
  x,y,z
_cell_length_a	16.120490
_cell_length_b	16.120444
_cell_length_c	11.169417
_cell_angle_alpha	87.114796
_cell_angle_beta	92.899011
_cell_angle_gamma	90.165174
loop_
_atom_site_label
_atom_site_type_symbol
_atom_site_fract_x
_atom_site_fract_y
_atom_site_fract_z
Zn1	Zn	1.254309	-0.395826	0.798891
Zn2	Zn	1.587643	-0.062493	1.132224
Zn3	Zn	1.920976	0.270840	1.465558
Zn4	Zn	1.247188	-0.534851	0.607815
Zn5	Zn	1.580521	-0.201517	0.941148
Zn6	Zn	1.913855	0.131816	1.274481
Zn7	Zn	1.115291	-0.388746	0.587567
Zn8	Zn	1.448624	-0.055413	0.920900
Zn9	Zn	1.781958	0.277920	1.254233
Zn10	Zn	1.108159	-0.527772	0.797800
Zn11	Zn	1.441493	-0.194438	1.131133
Zn12	Zn	1.774826	0.138895	1.464466
O13	O	1.181237	-0.461799	0.698018
O14	O	1.514570	-0.128465	1.031351
O15	O	1.847904	0.204868	1.364685
O16	O	1.369728	-0.420194	0.782475
O17	O	1.703062	-0.086860	1.115808
O18	O	2.036395	0.246473	1.449142
O19	O	1.229696	-0.515469	0.437179
O20	O	1.563029	-0.182136	0.770513
O21	O	1.896363	0.151198	1.103846
O22	O	1.139697	-0.273321	0.607582
O23	O	1.473030	0.060013	0.940916
O24	O	1.806364	0.393346	1.274249
O25	O	1.364496	-0.522334	0.642092
O26	O	1.697830	-0.189001	0.975425
O27	O	2.031163	0.144332	1.308759
O28	O	1.241833	-0.278522	0.762841
O29	O	1.575167	0.054811	1.096175
O30	O	1.908500	0.388144	1.429508
O31	O	1.132792	-0.408127	0.422303
O32	O	1.466125	-0.074794	0.755637
O33	O	1.799458	0.258540	1.088970
O34	O	0.997981	-0.401263	0.606524
O35	O	1.331314	-0.067929	0.939857
O36	O	1.664648	0.265404	1.273191
O37	O	1.127542	-0.510269	0.965894
O38	O	1.460875	-0.176936	1.299227
O39	O	1.794209	0.156397	1.632561
O40	O	0.992741	-0.503404	0.760981
O41	O	1.326075	-0.170071	1.094315
O42	O	1.659408	0.163263	1.427648
O43	O	1.234918	-0.413330	0.966696
O44	O	1.568251	-0.079996	1.300029
O45	O	1.901585	0.253337	1.633362
O46	O	1.222781	-0.650276	0.641034
O47	O	1.556114	-0.316943	0.974367
O48	O	1.889447	0.016390	1.307700
O49	O	1.120637	-0.645075	0.780615
O50	O	1.453970	-0.311742	1.113948
O51	O	1.787303	0.021591	1.447282
C52	C	0.965189	-0.450798	0.681438
C53	C	1.298523	-0.117464	1.014771
C54	C	1.631856	0.215869	1.348105
C55	C	0.872762	-0.446111	0.674375
C56	C	1.206096	-0.112778	1.007708
C57	C	1.539429	0.220555	1.341041
C58	C	0.659780	-0.486101	0.734658
C59	C	0.993113	-0.152768	1.067991
C60	C	1.326447	0.180566	1.401324
C61	C	0.703542	-0.437563	0.661478
C62	C	1.036875	-0.104230	0.994811
C63	C	1.370208	0.229104	1.328145
C64	C	0.797705	-0.442321	0.668656
C65	C	1.131038	-0.108987	1.001989
C66	C	1.464371	0.224346	1.335322
C67	C	0.565608	-0.481344	0.727481
C68	C	0.898941	-0.148011	1.060815
C69	C	1.232275	0.185322	1.394148
C70	C	1.170185	-0.677849	0.712931
C71	C	1.503518	-0.344516	1.046264
C72	C	1.836851	-0.011182	1.379598
C73	C	1.165532	-0.770280	0.719357
C74	C	1.498866	-0.436947	1.052690
C75	C	1.832199	-0.103613	1.386023
C76	C	1.205574	-0.983246	0.664958
C77	C	1.538907	-0.649912	0.998291
C78	C	1.872240	-0.316579	1.331625
C79	C	1.157054	-0.939508	0.731103
C80	C	1.490387	-0.606175	1.064436
C81	C	1.823721	-0.272842	1.397769
C82	C	1.161773	-0.845341	0.724565
C83	C	1.495106	-0.512008	1.057899
C84	C	1.828440	-0.178674	1.391232
C85	C	1.200856	-1.077422	0.671494
C86	C	1.534189	-0.744088	1.004827
C87	C	1.867523	-0.410755	1.338160
C88	C	1.398128	-0.472843	0.714664
C89	C	1.731461	-0.139510	1.047997
C90	C	2.064795	0.193823	1.381330
C91	C	1.490554	-0.477550	0.721757
C92	C	1.823887	-0.144217	1.055090
C93	C	2.157221	0.189117	1.388424
C94	C	1.181229	-0.461800	1.011060
C95	C	1.514562	-0.128466	1.344393
C96	C	1.847895	0.204867	1.677727
C97	C	1.181225	-0.461800	1.144460
C98	C	1.514559	-0.128467	1.477793
C99	C	1.847892	0.204867	1.811126
C100	C	1.192355	-0.244906	0.683075
C101	C	1.525688	0.088427	1.016408
C102	C	1.859022	0.421761	1.349742
C103	C	1.197093	-0.152479	0.676707
C104	C	1.530426	0.180854	1.010040
C105	C	1.863759	0.514188	1.343374
C106	C	1.181234	-0.461812	1.386194
C107	C	1.514568	-0.128479	1.719528
C108	C	1.847901	0.204854	2.052861
C109	C	1.181228	-0.461801	1.252793
C110	C	1.514561	-0.128468	1.586126
C111	C	1.847894	0.204865	1.919460
H112	H	0.693031	-0.531226	0.802693
H113	H	1.026364	-0.197892	1.136027
H114	H	1.359698	0.135441	1.469360
H115	H	0.670288	-0.392435	0.593436
H116	H	1.003622	-0.059102	0.926769
H117	H	1.336955	0.274232	1.260102
H118	H	1.250653	-0.949972	0.603423
H119	H	1.583986	-0.616638	0.936756
H120	H	1.917319	-0.283305	1.270090
H121	H	1.111971	-0.972786	0.792640
H122	H	1.445304	-0.639453	1.125973
H123	H	1.778638	-0.306119	1.459307
