data_functionalizedCrystal
_audit_creation_method	'MofGen! by Chris Wilmer'
_symmetry_space_group_name_H-M	'P1'
_symmetry_Int_Tables_number	1
_symmetry_cell_setting	triclinic
loop_
_symmetry_equiv_pos_as_xyz
  x,y,z
_cell_length_a	10.686220
_cell_length_b	10.686685
_cell_length_c	11.169409
_cell_angle_alpha	85.655528
_cell_angle_beta	85.651653
_cell_angle_gamma	89.688259
loop_
_atom_site_label
_atom_site_type_symbol
_atom_site_fract_x
_atom_site_fract_y
_atom_site_fract_z
Zn1	Zn	1.956151	-0.351966	0.561788
Zn2	Zn	1.972122	-0.561767	0.375266
Zn3	Zn	1.746374	-0.368150	0.377582
Zn4	Zn	1.762455	-0.577763	0.592349
O5	O	1.859276	-0.464911	0.476746
O6	O	2.133808	-0.366330	0.523286
O7	O	1.942131	-0.536162	0.207632
O8	O	1.760787	-0.190477	0.390197
O9	O	2.145543	-0.520469	0.386249
O10	O	1.914909	-0.178587	0.525532
O11	O	1.776274	-0.393912	0.209334
O12	O	1.572968	-0.409423	0.419830
O13	O	1.788195	-0.547732	0.756235
O14	O	1.584783	-0.563424	0.577619
O15	O	1.930503	-0.381840	0.733783
O16	O	1.957724	-0.739415	0.415883
O17	O	1.803683	-0.751167	0.575372
C18	C	1.533361	-0.489916	0.502293
C19	C	1.393935	-0.500644	0.513252
C20	C	1.884216	-0.790800	0.498716
C21	C	1.895000	-0.930208	0.508146
C22	C	2.186463	-0.439810	0.451100
C23	C	2.325891	-0.429113	0.440172
C24	C	1.859361	-0.464765	0.789772
C25	C	1.859398	-0.464702	0.923165
C26	C	1.834272	-0.137747	0.454714
C27	C	1.823618	0.001671	0.445325
C28	C	1.859256	-0.464962	0.164927
C29	C	1.859435	-0.464652	0.031491
H30	H	1.345520	-0.570102	0.584203
H31	H	1.754255	-0.949995	0.384324
O32	O	1.389999	-0.337109	0.346188
H33	H	1.493121	-0.342826	0.352048
O34	O	1.986876	-0.994212	0.588951
H35	H	1.981203	-1.097337	0.583931
