data_functionalizedCrystal
_audit_creation_method	'MofGen! by Chris Wilmer'
_symmetry_space_group_name_H-M	'P1'
_symmetry_Int_Tables_number	1
_symmetry_cell_setting	triclinic
loop_
_symmetry_equiv_pos_as_xyz
  x,y,z
_cell_length_a	6.817900
_cell_length_b	14.125369
_cell_length_c	10.992410
_cell_angle_alpha	94.596211
_cell_angle_beta	108.764651
_cell_angle_gamma	100.397648
loop_
_atom_site_label
_atom_site_type_symbol
_atom_site_fract_x
_atom_site_fract_y
_atom_site_fract_z
V1	V	-4.071574	-0.133113	-0.400088
O2	O	-4.074427	0.006397	-0.392992
O3	O	-4.007211	-0.263941	-0.396852
O4	O	-4.049822	-0.131066	-0.574808
O5	O	-4.031520	-0.127399	-0.213803
V6	V	-4.553817	-0.116426	-0.377868
O7	O	-4.335639	-0.169718	-0.448830
O8	O	-4.739949	-0.079822	-0.329125
O9	O	-4.394973	0.014402	-0.381104
O10	O	-4.668361	-0.255936	-0.384964
O11	O	-4.711268	-0.122141	-0.564152
O12	O	-4.352362	-0.118474	-0.203147
C13	C	-3.847466	-0.295835	-0.390411
C14	C	-3.876307	-0.402788	-0.388930
C15	C	-4.115548	-0.650929	-0.391694
C16	C	-3.929223	-0.598611	-0.386267
C17	C	-3.899781	-0.489645	-0.387749
C18	C	-4.144998	-0.759905	-0.390212
C19	C	-3.901820	-0.126337	-0.617411
C20	C	-3.965214	-0.125529	-0.760242
C21	C	-3.834698	-0.118163	-0.955394
C22	C	-3.768751	-0.119402	-0.806905
C23	C	-4.132818	-0.220391	-0.836986
C24	C	-4.197401	-0.219552	-0.985556
C25	C	-4.134055	-0.035864	-0.948221
C26	C	-4.063490	-0.035415	-0.799210
C27	C	-4.218059	0.046290	-0.387541
C28	C	-4.168458	0.153242	-0.389030
C29	C	-4.163705	-0.123206	-0.160538
C30	C	-4.079550	-0.124009	-0.017705
H31	H	-4.252942	-0.613886	-0.397452
H32	H	-3.791817	-0.635656	-0.380506
N33	N	-3.609953	-0.033829	-0.740325
N34	N	-3.547167	0.027228	-0.803456
H35	H	-3.435009	0.087667	-0.756440
N36	N	-3.715302	-0.032001	-0.979343
N37	N	-3.809266	0.026103	-1.042622
H38	H	-3.724945	0.086958	-1.059543
N39	N	-3.777959	-0.197613	-1.015307
N40	N	-3.917067	-0.258523	-1.103699
H41	H	-3.877004	-0.314637	-1.146017
H42	H	-4.311933	-0.039312	-0.989049
H43	H	-4.065608	-0.287297	-0.811127
N44	N	-3.671190	-0.199957	-0.775479
N45	N	-3.651668	-0.255440	-0.863276
H46	H	-3.582768	-0.312338	-0.841085
N47	N	-4.151060	-0.303272	-1.043318
N48	N	-4.296812	-0.364574	-1.127454
H49	H	-4.264078	-0.423702	-1.168246
N50	N	-4.422394	-0.229896	-1.039038
N51	N	-4.497858	-0.164941	-1.096730
H52	H	-4.656757	-0.172255	-1.134505
N53	N	-4.033883	0.054501	-0.974090
N54	N	-3.836171	0.077395	-0.941072
H55	H	-3.765402	0.141212	-0.959341
N56	N	-4.318279	-0.230304	-0.800813
N57	N	-4.329018	-0.167415	-0.717868
H58	H	-4.459999	-0.174412	-0.692318
H59	H	-3.942733	0.034761	-0.747118
H60	H	-4.205960	-0.034300	-0.766702
