data_functionalizedCrystal
_audit_creation_method	'MofGen! by Chris Wilmer'
_symmetry_space_group_name_H-M	'P1'
_symmetry_Int_Tables_number	1
_symmetry_cell_setting	triclinic
loop_
_symmetry_equiv_pos_as_xyz
  x,y,z
_cell_length_a	29.999520
_cell_length_b	29.998686
_cell_length_c	29.995014
_cell_angle_alpha	60.005185
_cell_angle_beta	60.010401
_cell_angle_gamma	59.993433
loop_
_atom_site_label
_atom_site_type_symbol
_atom_site_fract_x
_atom_site_fract_y
_atom_site_fract_z
O1	O	0.061772	-0.651300	0.544623
O2	O	0.561772	-0.151300	1.044623
O3	O	0.023267	-0.507084	0.438819
O4	O	0.523267	-0.007084	0.938819
O5	O	0.114589	-0.598332	0.438743
O6	O	0.614589	-0.098332	0.938743
O7	O	-0.029550	-0.560051	0.544699
O8	O	0.470450	-0.060051	1.044699
O9	O	0.144886	-0.568039	0.468961
O10	O	0.644886	-0.068039	0.968961
O11	O	0.053564	-0.476791	0.469038
O12	O	0.553564	0.023209	0.969038
O13	O	0.092069	-0.621007	0.574841
O14	O	0.592069	-0.121007	1.074841
Zn15	Zn	0.077627	-0.544089	0.526737
Zn16	Zn	0.577627	-0.044089	1.026737
Zn17	Zn	0.037709	-0.584002	0.486923
Zn18	Zn	0.537709	-0.084002	0.986923
O19	O	0.000748	-0.529758	0.574918
O20	O	0.500748	-0.029758	1.074918
N21	N	0.104871	-0.516854	0.553912
N22	N	0.604871	-0.016854	1.053912
N23	N	0.010470	-0.611242	0.459748
N24	N	0.510470	-0.111242	0.959748
C25	C	0.143162	-0.478782	0.827124
C26	C	0.643162	0.021218	1.327124
C27	C	0.378203	-0.478734	0.591892
C28	C	0.878203	0.021266	1.091892
C29	C	0.143005	-0.478752	0.591997
C30	C	0.643005	0.021248	1.091997
C31	C	0.142986	-0.243586	0.592008
C32	C	0.642986	0.256414	1.092008
C33	C	0.180857	-0.357087	0.629814
C34	C	0.680857	0.142913	1.129814
C35	C	0.180866	-0.440920	0.629807
C36	C	0.680866	0.059080	1.129807
C37	C	0.201840	-0.419964	0.650755
C38	C	0.701840	0.080036	1.150755
C39	C	0.293272	-0.404201	0.602606
C40	C	0.793272	0.095799	1.102606
C41	C	0.350426	-0.423248	0.583534
C42	C	0.850426	0.076752	1.083534
C43	C	0.350451	-0.515727	0.618798
C44	C	0.850451	-0.015727	1.118798
C45	C	0.293297	-0.496678	0.637872
C46	C	0.793297	0.003322	1.137872
C47	C	0.194628	-0.328499	0.573626
C48	C	0.694628	0.171501	1.073626
C49	C	0.175551	-0.271340	0.554591
C50	C	0.675551	0.228660	1.054591
C51	C	0.128936	-0.271362	0.647935
C52	C	0.628936	0.228638	1.147935
C53	C	0.148014	-0.328521	0.666970
C54	C	0.648014	0.171479	1.166970
C55	C	0.124672	-0.427119	0.643641
C56	C	0.624672	0.072881	1.143641
C57	C	0.105611	-0.446170	0.624592
C58	C	0.605611	0.053830	1.124592
C59	C	0.198934	-0.492820	0.577889
C60	C	0.698934	0.007180	1.077889
C61	C	0.217998	-0.473770	0.596931
C62	C	0.717998	0.026230	1.096931
C63	C	0.124740	-0.427136	0.742229
C64	C	0.624740	0.072864	1.242229
C65	C	0.105728	-0.446202	0.799386
C66	C	0.605728	0.053798	1.299386
C67	C	0.199085	-0.492863	0.799337
C68	C	0.699085	0.007137	1.299337
C69	C	0.218096	-0.473798	0.742178
C70	C	0.718096	0.026202	1.242178
C71	C	0.180923	-0.440933	0.713626
C72	C	0.680923	0.059067	1.213626
C73	C	0.264710	-0.440915	0.629773
C74	C	0.764710	0.059085	1.129773
C75	C	0.121509	-0.499370	0.889991
C76	C	0.621509	0.000630	1.389991
C77	C	0.441068	-0.498953	0.570621
C78	C	0.941068	0.001047	1.070621
C79	C	0.121297	-0.499349	0.571429
C80	C	0.621297	0.000651	1.071429
C81	C	0.121653	-0.180715	0.571802
C82	C	0.621653	0.319285	1.071802
C83	C	-0.111071	-0.648912	0.421584
C84	C	0.388929	-0.148912	0.921584
C85	C	-0.027286	-0.649018	0.421777
C86	C	0.472714	-0.149018	0.921777
C87	C	-0.048200	-0.669944	0.400740
C88	C	0.451800	-0.169944	0.900740
C89	C	-0.064036	-0.761340	0.448814
C90	C	0.435964	-0.261340	0.948814
C91	C	-0.045033	-0.818500	0.467893
C92	C	0.454967	-0.318500	0.967893
C93	C	0.047447	-0.818609	0.432797
C94	C	0.547447	-0.318609	0.932797
C95	C	0.028444	-0.761451	0.413717
C96	C	0.528444	-0.261451	0.913717
C97	C	-0.139731	-0.662677	0.477755
C98	C	0.360269	-0.162677	0.977755
C99	C	-0.196885	-0.643554	0.496701
C100	C	0.303115	-0.143554	0.996701
C101	C	-0.196717	-0.596907	0.403303
C102	C	0.303283	-0.096907	0.903303
C103	C	-0.139562	-0.616030	0.384357
C104	C	0.360438	-0.116030	0.884357
C105	C	-0.041053	-0.592827	0.407952
C106	C	0.458947	-0.092827	0.907952
C107	C	-0.022041	-0.573809	0.427083
C108	C	0.477959	-0.073809	0.927083
C109	C	0.024504	-0.667167	0.473848
C110	C	0.524504	-0.167167	0.973848
C111	C	0.005492	-0.686188	0.454725
C112	C	0.505492	-0.186188	0.954725
C113	C	-0.040886	-0.592836	0.309259
C114	C	0.459114	-0.092836	0.809259
C115	C	-0.021740	-0.573821	0.252102
C116	C	0.478260	-0.073821	0.752102
C117	C	0.024886	-0.667185	0.252163
C118	C	0.524886	-0.167185	0.752163
C119	C	0.005743	-0.686199	0.309322
C120	C	0.505743	-0.186199	0.809322
C121	C	-0.027145	-0.649023	0.337868
C122	C	0.472855	-0.149023	0.837868
C123	C	-0.027299	-0.732818	0.421728
C124	C	0.472701	-0.232818	0.921728
N125	N	0.492511	-0.516826	0.553742
N126	N	0.992511	-0.016826	1.053742
O127	O	0.679283	-0.525926	0.419277
O128	O	1.179283	-0.025926	0.919277
O129	O	0.679465	-0.632059	0.563349
O130	O	1.179465	-0.132059	1.063349
O131	O	0.679393	-0.631817	0.471975
O132	O	1.179393	-0.131817	0.971975
O133	O	0.679355	-0.526168	0.510650
O134	O	1.179355	-0.026168	1.010650
O135	O	0.588593	-0.601610	0.502313
O136	O	1.088593	-0.101610	1.002313
O137	O	0.588665	-0.601852	0.593686
O138	O	1.088665	-0.101852	1.093686
O139	O	0.588483	-0.495720	0.449614
O140	O	1.088483	0.004280	0.949614
Zn141	Zn	0.574158	-0.543990	0.526467
Zn142	Zn	1.074158	-0.043990	1.026467
Zn143	Zn	0.693790	-0.583788	0.486496
Zn144	Zn	1.193790	-0.083788	0.986496
O145	O	0.588555	-0.495962	0.540987
O146	O	1.088555	0.004038	1.040987
N147	N	0.775436	-0.610952	0.459215
N148	N	1.275436	-0.110952	0.959215
N149	N	0.104844	-0.129269	0.553931
N150	N	0.604844	0.370731	1.053931
O151	O	-0.029548	0.057600	0.544709
O152	O	0.470452	0.557600	1.044709
O153	O	0.114530	0.057617	0.438578
O154	O	0.614530	0.557617	0.938578
O155	O	0.023130	0.057594	0.438850
O156	O	0.523130	0.557594	0.938850
O157	O	0.061852	0.057623	0.544437
O158	O	0.561852	0.557623	1.044437
O159	O	0.053431	-0.033213	0.469115
O160	O	0.553431	0.466787	0.969115
O161	O	0.144831	-0.033190	0.468843
O162	O	0.644831	0.466810	0.968843
O163	O	0.000753	-0.033207	0.574974
O164	O	0.500753	0.466793	1.074974
Zn165	Zn	0.077603	-0.047616	0.526714
Zn166	Zn	0.577603	0.452384	1.026714
Zn167	Zn	0.037680	0.072026	0.486838
Zn168	Zn	0.537680	0.572026	0.986838
O169	O	0.092153	-0.033184	0.574702
O170	O	0.592153	0.466816	1.074702
N171	N	0.010432	0.153679	0.459622
N172	N	0.510432	0.653679	0.959622
N173	N	0.105130	-0.516904	0.941437
N174	N	0.605130	-0.016904	1.441437
O175	O	0.095923	-0.651280	1.128292
O176	O	0.595923	-0.151280	1.628292
O177	O	-0.010184	-0.507155	1.128318
O178	O	0.489816	-0.007155	1.628318
O179	O	-0.009938	-0.598539	1.128284
O180	O	0.490062	-0.098539	1.628284
O181	O	0.095677	-0.559897	1.128326
O182	O	0.595677	-0.059897	1.628326
O183	O	0.020315	-0.568257	1.037481
O184	O	0.520315	-0.068257	1.537481
O185	O	0.020068	-0.476874	1.037515
O186	O	0.520068	0.023126	1.537515
O187	O	0.126176	-0.620999	1.037489
O188	O	0.626176	-0.120999	1.537489
Zn189	Zn	0.077925	-0.544128	1.023085
Zn190	Zn	0.577925	-0.044128	1.523085
Zn191	Zn	0.038066	-0.584026	1.142722
Zn192	Zn	0.538066	-0.084026	1.642722
O193	O	0.125929	-0.529616	1.037523
O194	O	0.625929	-0.029616	1.537523
N195	N	0.010860	-0.611256	1.224371
N196	N	0.510860	-0.111256	1.724371
C197	C	0.034807	-0.473765	0.439352
C198	C	0.534807	0.026235	0.939352
C199	C	0.147897	-0.586765	0.439257
C200	C	0.647897	-0.086765	0.939257
C201	C	0.080529	-0.654326	0.574308
C202	C	0.580529	-0.154326	1.074308
C203	C	-0.032561	-0.541326	0.574403
C204	C	0.467439	-0.041326	1.074403
C205	C	0.634087	-0.631571	0.596668
C206	C	1.134087	-0.131571	1.096668
C207	C	0.633999	-0.631272	0.483513
C208	C	1.133999	-0.131272	0.983513
C209	C	0.633858	-0.496206	0.416295
C210	C	1.133858	0.003794	0.916295
C211	C	0.633949	-0.496507	0.529449
C212	C	1.133949	0.003493	1.029449
C213	C	0.147793	0.012327	0.439058
C214	C	0.647793	0.512327	0.939058
C215	C	0.034644	0.012187	0.439432
C216	C	0.534644	0.512187	0.939432
C217	C	-0.032548	0.012195	0.574457
C218	C	0.467452	0.512195	1.074457
C219	C	0.080639	0.012222	0.574120
C220	C	0.580639	0.512222	1.074120
C221	C	-0.009670	-0.473857	1.082920
C222	C	0.490330	0.026143	1.582920
C223	C	-0.009359	-0.587018	1.082860
C224	C	0.490641	-0.087018	1.582860
C225	C	0.125662	-0.654297	1.082887
C226	C	0.625662	-0.154297	1.582887
C227	C	0.125358	-0.541129	1.082927
C228	C	0.625358	-0.041129	1.582927
H229	H	0.094465	-0.400370	0.718985
H230	H	0.594465	0.099630	1.218985
O231	O	0.197033	0.012602	0.399157
O232	O	0.697033	0.512602	0.899157
C233	C	0.196957	0.012707	0.352137
C234	C	0.696957	0.512707	0.852137
H235	H	0.164763	-0.004663	0.364247
H236	H	0.664763	0.495337	0.864247
H237	H	0.238861	-0.013455	0.331538
H238	H	0.738861	0.486545	0.831538
H239	H	0.187184	0.056322	0.322604
H240	H	0.687184	0.556322	0.822604
O241	O	0.165389	-0.703673	1.082804
O242	O	0.665389	-0.203673	1.582804
C243	C	0.178077	-0.713459	1.035758
C244	C	0.678077	-0.213459	1.535758
H245	H	0.141986	-0.687979	1.020077
H246	H	0.641986	-0.187979	1.520077
H247	H	0.186996	-0.758608	1.046320
H248	H	0.686996	-0.258608	1.546320
H249	H	0.215505	-0.701704	1.002835
H250	H	0.715505	-0.201704	1.502835
H251	H	0.158538	-0.532861	1.082933
H252	H	0.658538	-0.032861	1.582933
O253	O	0.024840	0.012202	0.399788
O254	O	0.524840	0.512202	0.899788
C255	C	0.071711	0.012191	0.352671
C256	C	0.571711	0.512191	0.852671
H257	H	0.097787	0.029391	0.353122
H258	H	0.597787	0.529391	0.853122
H259	H	0.058890	0.038548	0.314772
H260	H	0.558890	0.538548	0.814772
H261	H	0.096359	-0.031374	0.352017
H262	H	0.596359	0.468626	0.852017
O263	O	0.051136	-0.432813	0.827105
O264	O	0.551136	0.067187	1.327105
C265	C	0.027385	-0.452367	0.813161
C266	C	0.527385	0.047633	1.313161
H267	H	0.054463	-0.457964	0.771656
H268	H	0.554463	0.042036	1.271656
H269	H	-0.014664	-0.421730	0.811224
H270	H	0.485336	0.078270	1.311224
H271	H	0.023151	-0.493216	0.845326
H272	H	0.523151	0.006784	1.345326
O273	O	0.235271	-0.524793	0.826984
O274	O	0.735271	-0.024793	1.326984
C275	C	0.288935	-0.532864	0.789479
C276	C	0.788935	-0.032864	1.289479
H277	H	0.288804	-0.526475	0.748744
H278	H	0.788804	-0.026475	1.248744
H279	H	0.316096	-0.576212	0.805972
H280	H	0.816096	-0.076212	1.305972
H281	H	0.305301	-0.502435	0.783392
H282	H	0.805301	-0.002435	1.283392
H283	H	0.263847	-0.485039	0.718893
H284	H	0.763847	0.014961	1.218893
H285	H	0.088930	0.012231	0.607291
H286	H	0.588930	0.512231	1.107291
H287	H	0.634015	-0.664461	0.475235
H288	H	1.134015	-0.164461	0.975235
O289	O	0.633812	-0.456519	0.366898
O290	O	1.133812	0.043481	0.866898
C291	C	0.633781	-0.476171	0.332928
C292	C	1.133781	0.023829	0.832928
H293	H	0.651017	-0.522679	0.347690
H294	H	1.151017	-0.022679	0.847690
H295	H	0.660094	-0.459404	0.289183
H296	H	1.160094	0.040596	0.789183
H297	H	0.590208	-0.462323	0.334442
H298	H	1.090208	0.037677	0.834442
H299	H	0.088756	-0.695753	0.607538
H300	H	0.588756	-0.195753	1.107538
H301	H	-0.042983	-0.432464	1.082928
H302	H	0.457017	0.067536	1.582928
H303	H	-0.073962	-0.533167	0.607674
H304	H	0.426038	-0.033167	1.107674
H305	H	-0.033252	-0.528055	0.415829
H306	H	0.466748	-0.028055	0.915829
O307	O	-0.048860	-0.596942	1.082775
O308	O	0.451140	-0.096942	1.582775
C309	C	-0.028972	-0.650612	1.082759
C310	C	0.471028	-0.150612	1.582759
H311	H	0.017533	-0.664993	1.065599
H312	H	0.517533	-0.164993	1.565599
H313	H	-0.045569	-0.651379	1.056354
H314	H	0.454431	-0.151379	1.556354
H315	H	-0.042798	-0.678864	1.126308
H316	H	0.457202	-0.178864	1.626308
O317	O	-0.081951	0.012295	0.614159
O318	O	0.418049	0.512295	1.114159
C319	C	-0.123125	0.059314	0.595491
C320	C	0.376875	0.559314	1.095491
H321	H	-0.104529	0.092182	0.561483
H322	H	0.395471	0.592182	1.061483
H323	H	-0.155702	0.075109	0.630685
H324	H	0.344298	0.575109	1.130685
H325	H	-0.142437	0.048673	0.579210
H326	H	0.357563	0.548673	1.079210
O327	O	0.088529	-0.395193	0.675549
O328	O	0.588529	0.104807	1.175549
C329	C	0.034843	-0.387107	0.683680
C330	C	0.534843	0.112893	1.183680
H331	H	0.034923	-0.393485	0.649223
H332	H	0.534923	0.106515	1.149223
H333	H	0.007700	-0.343760	0.683995
H334	H	0.507700	0.156240	1.183995
H335	H	0.018494	-0.417537	0.724395
H336	H	0.518494	0.082463	1.224395
O337	O	0.024899	-0.424323	0.399757
O338	O	0.524899	0.075677	0.899757
C339	C	-0.028752	-0.390452	0.419571
C340	C	0.471248	0.109548	0.919571
H341	H	-0.054623	-0.416799	0.454635
H342	H	0.445377	0.083201	0.954635
H343	H	-0.047088	-0.364277	0.385345
H344	H	0.452912	0.135723	0.885345
H345	H	-0.027928	-0.362893	0.434754
H346	H	0.472072	0.137107	0.934754
H347	H	0.633941	-0.463320	0.537725
H348	H	1.133941	0.036680	1.037725
H349	H	0.229173	-0.519573	0.551126
H350	H	0.729173	-0.019573	1.051126
O351	O	0.051036	-0.432865	0.638049
O352	O	0.551036	0.067135	1.138049
C353	C	0.037251	-0.480898	0.666827
C354	C	0.537251	0.019102	1.166827
H355	H	0.074922	-0.516805	0.656496
H356	H	0.574922	-0.016805	1.156496
H357	H	0.004094	-0.475788	0.654680
H358	H	0.504094	0.024212	1.154680
H359	H	0.021588	-0.488940	0.712574
H360	H	0.521588	0.011060	1.212574
O361	O	0.096969	-0.243551	0.683977
O362	O	0.596969	0.256449	1.183977
C363	C	0.046129	-0.210512	0.675791
C364	C	0.546129	0.289488	1.175791
H365	H	0.050700	-0.201941	0.632423
H366	H	0.550700	0.298059	1.132423
H367	H	0.031481	-0.170321	0.682157
H368	H	0.531481	0.329679	1.182157
H369	H	0.015095	-0.232558	0.706173
H370	H	0.515095	0.267442	1.206173
O371	O	0.197281	-0.596584	0.399578
O372	O	0.697281	-0.096584	0.899578
C373	C	0.207037	-0.640761	0.386961
C374	C	0.707037	-0.140761	0.886961
H375	H	0.181524	-0.666992	0.423065
H376	H	0.681524	-0.166992	0.923065
H377	H	0.252172	-0.666475	0.378102
H378	H	0.752172	-0.166475	0.878102
H379	H	0.195306	-0.624538	0.349513
H380	H	0.695306	-0.124538	0.849513
O381	O	0.272603	-0.487229	0.583450
O382	O	0.772603	0.012771	1.083450
C383	C	0.301290	-0.520288	0.550329
C384	C	0.801290	-0.020288	1.050329
H385	H	0.274044	-0.541088	0.557642
H386	H	0.774044	-0.041088	1.057642
H387	H	0.339464	-0.552612	0.561000
H388	H	0.839464	-0.052612	1.061000
H389	H	0.313560	-0.493899	0.505563
H390	H	0.813560	0.006101	1.005563
O391	O	0.265635	-0.532414	0.664229
O392	O	0.765635	-0.032414	1.164229
C393	C	0.303126	-0.585718	0.667294
C394	C	0.803126	-0.085718	1.167294
H395	H	0.343853	-0.583540	0.633524
H396	H	0.843853	-0.083540	1.133524
H397	H	0.286606	-0.609178	0.662126
H398	H	0.786606	-0.109178	1.162126
H399	H	0.309234	-0.607540	0.708707
H400	H	0.809234	-0.107540	1.208707
H401	H	0.373680	-0.393351	0.561411
H402	H	0.873680	0.106649	1.061411
O403	O	0.378251	-0.569879	0.626562
O404	O	0.878251	-0.069879	1.126562
C405	C	0.411296	-0.577640	0.575539
C406	C	0.911296	-0.077640	1.075539
H407	H	0.394044	-0.541453	0.542594
H408	H	0.894044	-0.041453	1.042594
H409	H	0.411952	-0.616732	0.577138
H410	H	0.911952	-0.116732	1.077138
H411	H	0.454614	-0.581010	0.565626
H412	H	0.954614	-0.081010	1.065626
H413	H	0.270000	-0.358795	0.596010
H414	H	0.770000	0.141205	1.096010
H415	H	0.221368	-0.351757	0.543370
H416	H	0.721368	0.148243	1.043370
H417	H	0.634133	-0.664888	0.638048
H418	H	1.134133	-0.164888	1.138048
H419	H	0.186762	-0.248063	0.508836
H420	H	0.686762	0.251937	1.008836
H421	H	0.136793	-0.351798	0.712725
H422	H	0.636793	0.148202	1.212725
H423	H	-0.032937	-0.528066	0.228816
H424	H	0.467063	-0.028066	0.728816
H425	H	0.051655	-0.697459	0.228927
H426	H	0.551655	-0.197459	0.728927
O427	O	-0.072746	-0.556704	0.336970
O428	O	0.427254	-0.056704	0.836970
C429	C	-0.043874	-0.523701	0.323061
C430	C	0.456126	-0.023701	0.823061
H431	H	0.001851	-0.545820	0.307419
H432	H	0.501851	-0.045820	0.807419
H433	H	-0.054146	-0.515056	0.360666
H434	H	0.445854	-0.015056	0.860666
H435	H	-0.055981	-0.483542	0.289852
H436	H	0.444019	0.016458	0.789852
O437	O	0.019026	-0.740787	0.337088
O438	O	0.519026	-0.240787	0.837088
C439	C	-0.000481	-0.764492	0.323041
C440	C	0.499519	-0.264492	0.823041
H441	H	-0.035681	-0.731916	0.307248
H442	H	0.464319	-0.231916	0.807248
H443	H	-0.015379	-0.798155	0.360613
H444	H	0.484621	-0.298155	0.860613
H445	H	0.033843	-0.782573	0.289904
H446	H	0.533843	-0.282573	0.789904
O447	O	-0.072964	-0.556770	0.376012
O448	O	0.427036	-0.056770	0.876012
C449	C	-0.123800	-0.564924	0.401906
C450	C	0.376200	-0.064924	0.901906
H451	H	-0.119252	-0.608289	0.432120
H452	H	0.380748	-0.108289	0.932120
H453	H	-0.138381	-0.558547	0.369938
H454	H	0.361619	-0.058547	0.869938
H455	H	-0.154874	-0.534530	0.424598
H456	H	0.345126	-0.034530	0.924598
O457	O	0.056322	-0.703350	0.505864
O458	O	0.556322	-0.203350	1.005864
C459	C	0.064406	-0.757022	0.513944
C460	C	0.564406	-0.257022	1.013944
H461	H	0.029978	-0.756875	0.507472
H462	H	0.529978	-0.256875	1.007472
H463	H	0.064628	-0.784148	0.557320
H464	H	0.564628	-0.284148	1.057320
H465	H	0.105150	-0.773442	0.483578
H466	H	0.605150	-0.273442	0.983578
H467	H	0.016700	-0.731943	0.465981
H468	H	0.516700	-0.231943	0.965981
H469	H	0.092838	-0.841923	0.426277
H470	H	0.592838	-0.341923	0.926277
O471	O	0.064203	-0.733828	0.387437
O472	O	0.564203	-0.233828	0.887437
C473	C	0.117478	-0.771360	0.384450
C474	C	0.617478	-0.271360	0.884450
H475	H	0.115246	-0.812084	0.418211
H476	H	0.615246	-0.312084	0.918211
H477	H	0.140919	-0.754877	0.389689
H478	H	0.640919	-0.254877	0.889689
H479	H	0.139349	-0.777466	0.343035
H480	H	0.639349	-0.277466	0.843035
H481	H	-0.074948	-0.841721	0.489940
H482	H	0.425052	-0.341721	0.989940
O483	O	-0.111994	-0.694559	0.513863
O484	O	0.388006	-0.194559	1.013863
C485	C	-0.078941	-0.668623	0.505723
C486	C	0.421059	-0.168623	1.005723
H487	H	-0.070301	-0.638445	0.462344
H488	H	0.429699	-0.138445	0.962344
H489	H	-0.038788	-0.700572	0.512162
H490	H	0.461212	-0.200572	1.012162
H491	H	-0.101004	-0.645881	0.536082
H492	H	0.398996	-0.145881	1.036082
H493	H	-0.220220	-0.654760	0.542443
H494	H	0.279780	-0.154760	1.042443
O495	O	-0.118172	-0.733546	0.456507
O496	O	0.381828	-0.233546	0.956507
C497	C	-0.135567	-0.747503	0.430771
C498	C	0.364433	-0.247503	0.930771
H499	H	-0.099028	-0.763267	0.397052
H500	H	0.400972	-0.263267	0.897052
H501	H	-0.166985	-0.709890	0.412377
H502	H	0.333015	-0.209890	0.912377
H503	H	-0.154754	-0.780636	0.462072
H504	H	0.345246	-0.280636	0.962072
O505	O	-0.224339	-0.565033	0.367093
O506	O	0.275661	-0.065033	0.867093
C507	C	-0.210349	-0.593911	0.334049
C508	C	0.289651	-0.093911	0.834049
H509	H	-0.168877	-0.627222	0.333560
H510	H	0.331123	-0.127222	0.833560
H511	H	-0.208319	-0.564599	0.290684
H512	H	0.291681	-0.064599	0.790684
H513	H	-0.242536	-0.613260	0.351181
H514	H	0.257464	-0.113260	0.851181
O515	O	-0.111657	-0.602758	0.329802
O516	O	0.388343	-0.102758	0.829802
C517	C	-0.078611	-0.650806	0.316025
C518	C	0.421389	-0.150806	0.816025
H519	H	-0.070128	-0.686717	0.353727
H520	H	0.429872	-0.186717	0.853727
H521	H	-0.038380	-0.645750	0.282944
H522	H	0.461620	-0.145750	0.782944
H523	H	-0.100600	-0.658804	0.300264
H524	H	0.399400	-0.158804	0.800264
