data_functionalizedCrystal
_audit_creation_method	'MofGen! by Chris Wilmer'
_symmetry_space_group_name_H-M	'P1'
_symmetry_Int_Tables_number	1
_symmetry_cell_setting	triclinic
loop_
_symmetry_equiv_pos_as_xyz
  x,y,z
_cell_length_a	14.519709
_cell_length_b	14.519709
_cell_length_c	12.996460
_cell_angle_alpha	89.999398
_cell_angle_beta	90.001234
_cell_angle_gamma	96.319855
loop_
_atom_site_label
_atom_site_type_symbol
_atom_site_fract_x
_atom_site_fract_y
_atom_site_fract_z
O1	O	0.120885	-1.223870	0.085435
O2	O	0.370885	-0.973870	0.335435
O3	O	0.620885	-0.723870	0.585435
O4	O	0.870885	-0.473870	0.835435
O5	O	0.135121	-0.955394	0.085467
O6	O	0.385121	-0.705394	0.335467
O7	O	0.635121	-0.455394	0.585467
O8	O	0.885121	-0.205394	0.835467
O9	O	-0.006235	-1.096750	0.085441
O10	O	0.243765	-0.846750	0.335441
O11	O	0.493765	-0.596750	0.585441
O12	O	0.743765	-0.346750	0.835441
O13	O	0.262242	-1.082514	0.085461
O14	O	0.512242	-0.832514	0.335461
O15	O	0.762242	-0.582514	0.585461
O16	O	1.012242	-0.332514	0.835461
O17	O	-0.006227	-1.096732	-0.085693
O18	O	0.243773	-0.846732	0.164307
O19	O	0.493773	-0.596732	0.414307
O20	O	0.743773	-0.346732	0.664307
O21	O	0.135130	-0.955375	-0.085667
O22	O	0.385130	-0.705375	0.164333
O23	O	0.635130	-0.455375	0.414333
O24	O	0.885130	-0.205375	0.664333
O25	O	0.120893	-1.223852	-0.085699
O26	O	0.370893	-0.973852	0.164301
O27	O	0.620893	-0.723852	0.414301
O28	O	0.870893	-0.473852	0.664301
Cu29	Cu	0.128012	-1.089612	-0.101309
Cu30	Cu	0.378012	-0.839612	0.148691
Cu31	Cu	0.628012	-0.589612	0.398691
Cu32	Cu	0.878012	-0.339612	0.648691
Cu33	Cu	0.128002	-1.089634	0.101077
Cu34	Cu	0.378002	-0.839634	0.351077
Cu35	Cu	0.628002	-0.589634	0.601077
Cu36	Cu	0.878002	-0.339634	0.851077
O37	O	0.262250	-1.082496	-0.085673
O38	O	0.512250	-0.832496	0.164327
O39	O	0.762250	-0.582496	0.414327
O40	O	1.012250	-0.332496	0.664327
C41	C	-0.040591	-1.096078	-0.000126
C42	C	0.209409	-0.846078	0.249874
C43	C	0.459409	-0.596078	0.499874
C44	C	0.709409	-0.346078	0.749874
C45	C	-0.142972	-1.094090	-0.000126
C46	C	0.107028	-0.844090	0.249874
C47	C	0.357028	-0.594090	0.499874
C48	C	0.607028	-0.344090	0.749874
C49	C	0.134462	-0.921025	-0.000096
C50	C	0.384462	-0.671025	0.249904
C51	C	0.634462	-0.421025	0.499904
C52	C	0.884462	-0.171025	0.749904
C53	C	0.132474	-0.818643	-0.000084
C54	C	0.382474	-0.568643	0.249916
C55	C	0.632474	-0.318643	0.499916
C56	C	0.882474	-0.068643	0.749916
C57	C	0.121553	-1.258221	-0.000134
C58	C	0.371553	-1.008221	0.249866
C59	C	0.621553	-0.758221	0.499866
C60	C	0.871553	-0.508221	0.749866
C61	C	0.123541	-1.360602	-0.000139
C62	C	0.373541	-1.110602	0.249861
C63	C	0.623541	-0.860602	0.499861
C64	C	0.873541	-0.610602	0.749861
C65	C	-0.517868	-1.086770	-0.000099
C66	C	-0.267868	-0.836770	0.249901
C67	C	-0.017868	-0.586770	0.499901
C68	C	0.232132	-0.336770	0.749901
C69	C	-0.413560	-1.088803	-0.000107
C70	C	-0.163560	-0.838803	0.249893
C71	C	0.086440	-0.588803	0.499893
C72	C	0.336440	-0.338803	0.749893
C73	C	-0.330423	-1.090430	-0.000114
C74	C	-0.080423	-0.840430	0.249886
C75	C	0.169577	-0.590430	0.499886
C76	C	0.419577	-0.340430	0.749886
C77	C	-0.226109	-1.092463	-0.000120
C78	C	0.023891	-0.842463	0.249880
C79	C	0.273891	-0.592463	0.499880
C80	C	0.523891	-0.342463	0.749880
C81	C	0.296606	-1.083168	-0.000103
C82	C	0.546606	-0.833168	0.249897
C83	C	0.796606	-0.583168	0.499897
C84	C	1.046606	-0.333168	0.749897
C85	C	0.398987	-1.085156	-0.000096
C86	C	0.648987	-0.835156	0.249904
C87	C	0.898987	-0.585156	0.499904
C88	C	1.148987	-0.335156	0.749904
N89	N	0.128018	-1.089604	-0.243656
N90	N	0.378018	-0.839604	0.006344
N91	N	0.628018	-0.589604	0.256344
N92	N	0.878018	-0.339604	0.506344
C93	C	0.125154	-0.443748	-0.000132
C94	C	0.375154	-0.193748	0.249868
C95	C	0.625154	0.056252	0.499868
C96	C	0.875154	0.306252	0.749868
C97	C	0.127187	-0.548056	-0.000118
C98	C	0.377187	-0.298056	0.249882
C99	C	0.627187	-0.048056	0.499882
C100	C	0.877187	0.201944	0.749882
C101	C	0.128814	-0.631192	-0.000107
C102	C	0.378814	-0.381192	0.249893
C103	C	0.628814	-0.131192	0.499893
C104	C	0.878814	0.118808	0.749893
C105	C	0.130847	-0.735507	-0.000095
C106	C	0.380847	-0.485507	0.249905
C107	C	0.630847	-0.235507	0.499905
C108	C	0.880847	0.014493	0.749905
C109	C	0.128021	-1.089608	-0.336762
C110	C	0.378021	-0.839608	-0.086762
C111	C	0.628021	-0.589608	0.163238
C112	C	0.878021	-0.339608	0.413238
C113	C	0.128015	-1.089616	-0.453567
C114	C	0.378015	-0.839616	-0.203567
C115	C	0.628015	-0.589616	0.046433
C116	C	0.878015	-0.339616	0.296433
C117	C	0.128004	-1.089628	-0.546665
C118	C	0.378004	-0.839628	-0.296665
C119	C	0.628004	-0.589628	-0.046665
C120	C	0.878004	-0.339628	0.203335
C121	C	0.127999	-1.089638	-0.663478
C122	C	0.377999	-0.839638	-0.413478
C123	C	0.627999	-0.589638	-0.163478
C124	C	0.877999	-0.339638	0.086522
N125	N	0.127989	-1.089649	0.243424
N126	N	0.377989	-0.839649	0.493424
N127	N	0.627989	-0.589649	0.743424
N128	N	0.877989	-0.339649	0.993424
