data_functionalizedCrystal
_audit_creation_method	'MofGen! by Chris Wilmer'
_symmetry_space_group_name_H-M	'P1'
_symmetry_Int_Tables_number	1
_symmetry_cell_setting	triclinic
loop_
_symmetry_equiv_pos_as_xyz
  x,y,z
_cell_length_a	19.288840
_cell_length_b	19.288865
_cell_length_c	17.766277
_cell_angle_alpha	90.006751
_cell_angle_beta	90.013814
_cell_angle_gamma	83.131131
loop_
_atom_site_label
_atom_site_type_symbol
_atom_site_fract_x
_atom_site_fract_y
_atom_site_fract_z
O1	O	-0.921362	-0.086561	-0.062728
O2	O	-0.671362	0.163439	0.187272
O3	O	-0.421362	0.413439	0.437272
O4	O	-0.171362	0.663439	0.687272
O5	O	-0.719099	-0.098268	-0.062704
O6	O	-0.469099	0.151732	0.187296
O7	O	-0.219099	0.401732	0.437296
O8	O	0.030901	0.651732	0.687296
O9	O	-0.826075	0.008716	-0.062702
O10	O	-0.576075	0.258716	0.187298
O11	O	-0.326075	0.508716	0.437298
O12	O	-0.076075	0.758716	0.687298
O13	O	-0.814386	-0.193546	-0.062730
O14	O	-0.564386	0.056454	0.187270
O15	O	-0.314386	0.306454	0.437270
O16	O	-0.064386	0.556454	0.687270
O17	O	-0.826061	0.008712	0.062487
O18	O	-0.576061	0.258712	0.312487
O19	O	-0.326061	0.508712	0.562487
O20	O	-0.076061	0.758712	0.812487
O21	O	-0.719085	-0.098272	0.062485
O22	O	-0.469085	0.151728	0.312485
O23	O	-0.219085	0.401728	0.562485
O24	O	0.030915	0.651728	0.812485
O25	O	-0.921348	-0.086565	0.062460
O26	O	-0.671348	0.163435	0.312460
O27	O	-0.421348	0.413435	0.562460
O28	O	-0.171348	0.663435	0.812460
Cu29	Cu	-0.820215	-0.092419	0.073903
Cu30	Cu	-0.570215	0.157581	0.323903
Cu31	Cu	-0.320215	0.407581	0.573903
Cu32	Cu	-0.070215	0.657581	0.823903
Cu33	Cu	-0.820232	-0.092414	-0.074147
Cu34	Cu	-0.570232	0.157586	0.175853
Cu35	Cu	-0.320232	0.407586	0.425853
Cu36	Cu	-0.070232	0.657586	0.675853
O37	O	-0.814372	-0.193549	0.062458
O38	O	-0.564372	0.056451	0.312458
O39	O	-0.314372	0.306451	0.562458
O40	O	-0.064372	0.556451	0.812458
C41	C	-0.693215	-0.097896	-0.000106
C42	C	-0.443215	0.152104	0.249894
C43	C	-0.193215	0.402104	0.499894
C44	C	0.056785	0.652104	0.749894
C45	C	-0.616110	-0.096774	-0.000096
C46	C	-0.366110	0.153226	0.249904
C47	C	-0.116110	0.403226	0.499904
C48	C	0.133890	0.653226	0.749904
C49	C	-0.825692	0.034591	-0.000105
C50	C	-0.575692	0.284591	0.249895
C51	C	-0.325692	0.534591	0.499895
C52	C	-0.075692	0.784591	0.749895
C53	C	-0.824563	0.111694	-0.000099
C54	C	-0.574563	0.361694	0.249901
C55	C	-0.324563	0.611694	0.499901
C56	C	-0.074563	0.861694	0.749901
C57	C	-0.947232	-0.086937	-0.000139
C58	C	-0.697232	0.163063	0.249861
C59	C	-0.447232	0.413063	0.499861
C60	C	-0.197232	0.663063	0.749861
C61	C	-1.024336	-0.088059	-0.000154
C62	C	-0.774336	0.161941	0.249846
C63	C	-0.524336	0.411941	0.499846
C64	C	-0.274336	0.661941	0.749846
C65	C	-0.579915	-0.096233	-0.068338
C66	C	-0.329915	0.153767	0.181662
C67	C	-0.079915	0.403767	0.431662
C68	C	0.170085	0.653767	0.681662
C69	C	-0.507468	-0.095171	-0.068347
C70	C	-0.257468	0.154829	0.181653
C71	C	-0.007468	0.404829	0.431653
C72	C	0.242532	0.654829	0.681653
C73	C	-0.471221	-0.094636	-0.000110
C74	C	-0.221221	0.155364	0.249890
C75	C	0.028779	0.405364	0.499890
C76	C	0.278779	0.655364	0.749890
C77	C	-0.507425	-0.095181	0.068141
C78	C	-0.257425	0.154819	0.318141
C79	C	-0.007425	0.404819	0.568141
C80	C	0.242575	0.654819	0.818141
C81	C	-0.579870	-0.096250	0.068148
C82	C	-0.329870	0.153750	0.318148
C83	C	-0.079870	0.403750	0.568148
C84	C	0.170130	0.653750	0.818148
C85	C	-0.361888	-0.052260	0.052164
C86	C	-0.111888	0.197740	0.302164
C87	C	0.138112	0.447740	0.552164
C88	C	0.388112	0.697740	0.802164
C89	C	-0.289445	-0.051187	0.052155
C90	C	-0.039445	0.198813	0.302155
C91	C	0.210555	0.448813	0.552155
C92	C	0.460555	0.698813	0.802155
C93	C	-0.247778	-0.091342	-0.000129
C94	C	0.002222	0.158658	0.249871
C95	C	0.252222	0.408658	0.499871
C96	C	0.502222	0.658658	0.749871
C97	C	-0.278563	-0.132562	-0.052416
C98	C	-0.028563	0.117438	0.197584
C99	C	0.221437	0.367438	0.447584
C100	C	0.471437	0.617438	0.697584
C101	C	-0.351008	-0.133631	-0.052408
C102	C	-0.101008	0.116369	0.197592
C103	C	0.148992	0.366369	0.447592
C104	C	0.398992	0.616369	0.697592
C105	C	-0.392667	-0.093477	-0.000110
C106	C	-0.142667	0.156523	0.249890
C107	C	0.107333	0.406523	0.499890
C108	C	0.357333	0.656523	0.749890
C109	C	-0.133027	-0.089650	-0.068386
C110	C	0.116973	0.160350	0.181614
C111	C	0.366973	0.410350	0.431614
C112	C	0.616973	0.660350	0.681614
C113	C	-0.060578	-0.088593	-0.068392
C114	C	0.189422	0.161407	0.181608
C115	C	0.439422	0.411407	0.431608
C116	C	0.689422	0.661407	0.681608
C117	C	-0.060537	-0.088596	0.068098
C118	C	0.189463	0.161404	0.318098
C119	C	0.439463	0.411404	0.568098
C120	C	0.689463	0.661404	0.818098
C121	C	-0.132984	-0.089661	0.068102
C122	C	0.117016	0.160339	0.318102
C123	C	0.367016	0.410339	0.568102
C124	C	0.617016	0.660339	0.818102
C125	C	-0.169225	-0.090185	-0.000142
C126	C	0.080775	0.159815	0.249858
C127	C	0.330775	0.409815	0.499858
C128	C	0.580775	0.659815	0.749858
N129	N	-0.820208	-0.092422	0.178034
N130	N	-0.570208	0.157578	0.428034
N131	N	-0.320208	0.407578	0.678034
N132	N	-0.070208	0.657578	0.928034
C133	C	-0.814755	-0.219424	-0.000140
C134	C	-0.564755	0.030576	0.249860
C135	C	-0.314755	0.280576	0.499860
C136	C	-0.064755	0.530576	0.749860
C137	C	-0.815884	-0.296527	-0.000152
C138	C	-0.565884	-0.046527	0.249848
C139	C	-0.315884	0.203473	0.499848
C140	C	-0.065884	0.453473	0.749848
C141	C	-0.887331	0.156396	-0.000103
C142	C	-0.637331	0.406396	0.249897
C143	C	-0.387331	0.656396	0.499897
C144	C	-0.137331	0.906396	0.749897
C145	C	-0.886270	0.228843	-0.000114
C146	C	-0.636270	0.478843	0.249886
C147	C	-0.386270	0.728843	0.499886
C148	C	-0.136270	0.978843	0.749886
C149	C	-0.822438	0.256585	-0.000107
C150	C	-0.572438	0.506585	0.249893
C151	C	-0.322438	0.756585	0.499893
C152	C	-0.072438	1.006585	0.749893
C153	C	-0.759661	0.211873	-0.000107
C154	C	-0.509661	0.461873	0.249893
C155	C	-0.259661	0.711873	0.499893
C156	C	-0.009661	0.961873	0.749893
C157	C	-0.760723	0.139428	-0.000103
C158	C	-0.510723	0.389428	0.249897
C159	C	-0.260723	0.639428	0.499897
C160	C	-0.010723	0.889428	0.749897
C161	C	-0.772252	0.364866	0.043750
C162	C	-0.522252	0.614866	0.293750
C163	C	-0.272252	0.864866	0.543750
C164	C	-0.022252	1.114866	0.793750
C165	C	-0.771193	0.437311	0.043750
C166	C	-0.521193	0.687311	0.293750
C167	C	-0.271193	0.937311	0.543750
C168	C	-0.021193	1.187311	0.793750
C169	C	-0.819158	0.480030	-0.000123
C170	C	-0.569158	0.730030	0.249877
C171	C	-0.319158	0.980030	0.499877
C172	C	-0.069158	1.230030	0.749877
C173	C	-0.868195	0.450298	-0.043988
C174	C	-0.618195	0.700298	0.206012
C175	C	-0.368195	0.950298	0.456012
C176	C	-0.118195	1.200298	0.706012
C177	C	-0.869257	0.377852	-0.043984
C178	C	-0.619257	0.627852	0.206016
C179	C	-0.369257	0.877852	0.456016
C180	C	-0.119257	1.127852	0.706016
C181	C	-0.821278	0.335139	-0.000112
C182	C	-0.571278	0.585139	0.249888
C183	C	-0.321278	0.835139	0.499888
C184	C	-0.071278	1.085139	0.749888
C185	C	-0.880781	0.603288	-0.000141
C186	C	-0.630781	0.853288	0.249859
C187	C	-0.380781	1.103288	0.499859
C188	C	-0.130781	1.353288	0.749859
C189	C	-0.879717	0.675736	-0.000158
C190	C	-0.629717	0.925736	0.249842
C191	C	-0.379717	1.175736	0.499842
C192	C	-0.129717	1.425736	0.749842
C193	C	-0.753106	0.658764	-0.000143
C194	C	-0.503106	0.908764	0.249857
C195	C	-0.253106	1.158764	0.499857
C196	C	-0.003106	1.408764	0.749857
C197	C	-0.754171	0.586318	-0.000134
C198	C	-0.504171	0.836318	0.249866
C199	C	-0.254171	1.086318	0.499866
C200	C	-0.004171	1.336318	0.749866
C201	C	-0.818010	0.558584	-0.000130
C202	C	-0.568010	0.808584	0.249870
C203	C	-0.318010	1.058584	0.499870
C204	C	-0.068010	1.308584	0.749870
N205	N	-0.820244	-0.092406	-0.178277
N206	N	-0.570244	0.157594	0.071723
N207	N	-0.320244	0.407594	0.321723
N208	N	-0.070244	0.657594	0.571723
C209	C	-0.862237	-0.134416	0.782310
C210	C	-0.612237	0.115584	1.032310
C211	C	-0.362237	0.365584	1.282310
C212	C	-0.112237	0.615584	1.532310
C213	C	-0.862230	-0.134423	0.703508
C214	C	-0.612230	0.115577	0.953508
C215	C	-0.362230	0.365577	1.203508
C216	C	-0.112230	0.615577	1.453508
C217	C	-0.820238	-0.092407	0.664122
C218	C	-0.570238	0.157593	0.914122
C219	C	-0.320238	0.407593	1.164122
C220	C	-0.070238	0.657593	1.414122
C221	C	-0.778236	-0.050394	0.703545
C222	C	-0.528236	0.199606	0.953545
C223	C	-0.278236	0.449606	1.203545
C224	C	-0.028236	0.699606	1.453545
C225	C	-0.778239	-0.050394	0.782345
C226	C	-0.528239	0.199606	1.032345
C227	C	-0.278239	0.449606	1.282345
C228	C	-0.028239	0.699606	1.532345
C229	C	-0.818512	-0.029782	0.539288
C230	C	-0.568512	0.220218	0.789288
C231	C	-0.318512	0.470218	1.039288
C232	C	-0.068512	0.720218	1.289288
C233	C	-0.818514	-0.029781	0.460489
C234	C	-0.568514	0.220219	0.710489
C235	C	-0.318514	0.470219	0.960489
C236	C	-0.068514	0.720219	1.210489
C237	C	-0.820225	-0.092408	0.421076
C238	C	-0.570225	0.157592	0.671076
C239	C	-0.320225	0.407592	0.921076
C240	C	-0.070225	0.657592	1.171076
C241	C	-0.821949	-0.155038	0.460472
C242	C	-0.571949	0.094962	0.710472
C243	C	-0.321949	0.344962	0.960472
C244	C	-0.071949	0.594962	1.210472
C245	C	-0.821952	-0.155037	0.539272
C246	C	-0.571952	0.094963	0.789272
C247	C	-0.321952	0.344963	1.039272
C248	C	-0.071952	0.594963	1.289272
C249	C	-0.820230	-0.092403	0.578677
C250	C	-0.570230	0.157597	0.828677
C251	C	-0.320230	0.407597	1.078677
C252	C	-0.070230	0.657597	1.328677
C253	C	-0.862213	-0.134429	0.296217
C254	C	-0.612213	0.115571	0.546217
C255	C	-0.362213	0.365571	0.796217
C256	C	-0.112213	0.615571	1.046217
C257	C	-0.862201	-0.134437	0.217414
C258	C	-0.612201	0.115563	0.467414
C259	C	-0.362201	0.365563	0.717414
C260	C	-0.112201	0.615563	0.967414
C261	C	-0.778212	-0.050402	0.217452
C262	C	-0.528212	0.199598	0.467452
C263	C	-0.278212	0.449598	0.717452
C264	C	-0.028212	0.699598	0.967452
C265	C	-0.778219	-0.050400	0.296254
C266	C	-0.528219	0.199600	0.546254
C267	C	-0.278219	0.449600	0.796254
C268	C	-0.028219	0.699600	1.046254
C269	C	-0.820224	-0.092413	0.335632
C270	C	-0.570224	0.157587	0.585632
C271	C	-0.320224	0.407587	0.835632
C272	C	-0.070224	0.657587	1.085632
H273	H	-0.609417	-0.096660	-0.123907
H274	H	-0.359417	0.153340	0.126093
H275	H	-0.109417	0.403340	0.376093
H276	H	0.140583	0.653340	0.626093
H277	H	-0.162456	-0.090097	0.123672
H278	H	0.087544	0.159903	0.373672
H279	H	0.337544	0.409903	0.623672
H280	H	0.587544	0.659903	0.873672
Br281	Br	-0.458334	-0.094438	-0.160968
Br282	Br	-0.208334	0.155562	0.089032
Br283	Br	0.041666	0.405562	0.339032
Br284	Br	0.291666	0.655562	0.589032
Br285	Br	-0.222024	-0.187064	-0.123376
Br286	Br	0.027976	0.062936	0.126624
Br287	Br	0.277976	0.312936	0.376624
Br288	Br	0.527976	0.562936	0.626624
Br289	Br	-0.707151	0.306897	0.103299
Br290	Br	-0.457151	0.556897	0.353299
Br291	Br	-0.207151	0.806897	0.603299
Br292	Br	0.042849	1.056897	0.853299
Br293	Br	-0.919178	-0.191476	0.163922
Br294	Br	-0.669178	0.058524	0.413922
Br295	Br	-0.419178	0.308524	0.663922
Br296	Br	-0.169178	0.558524	0.913922
H297	H	-0.932763	0.580706	-0.000141
H298	H	-0.682763	0.830706	0.249859
H299	H	-0.432763	1.080706	0.499859
H300	H	-0.182763	1.330706	0.749859
Br301	Br	-0.182214	-0.090366	-0.161000
Br302	Br	0.067786	0.159634	0.089000
Br303	Br	0.317786	0.409634	0.339000
Br304	Br	0.567786	0.659634	0.589000
Br305	Br	-0.919239	-0.191437	0.835748
Br306	Br	-0.669239	0.058563	1.085748
Br307	Br	-0.419239	0.308563	1.335748
Br308	Br	-0.169239	0.558563	1.585748
Br309	Br	-0.824288	-0.240030	0.592736
Br310	Br	-0.574288	0.009970	0.842736
Br311	Br	-0.324288	0.259970	1.092736
Br312	Br	-0.074288	0.509970	1.342736
Br313	Br	-0.935801	0.337502	-0.103515
Br314	Br	-0.685801	0.587502	0.146485
Br315	Br	-0.435801	0.837502	0.396485
Br316	Br	-0.185801	1.087502	0.646485
H317	H	-0.477908	-0.094748	0.123700
H318	H	-0.227908	0.155252	0.373700
H319	H	0.022092	0.405252	0.623700
H320	H	0.272092	0.655252	0.873700
Br321	Br	-0.721243	0.006624	0.835839
Br322	Br	-0.471243	0.256624	1.085839
Br323	Br	-0.221243	0.506624	1.335839
Br324	Br	0.028757	0.756624	1.585839
Br325	Br	-0.668980	0.525647	-0.000128
Br326	Br	-0.418980	0.775647	0.249872
Br327	Br	-0.168980	1.025647	0.499872
Br328	Br	0.081020	1.275647	0.749872
Br329	Br	-0.721213	0.006613	0.164009
Br330	Br	-0.471213	0.256613	0.414009
Br331	Br	-0.221213	0.506613	0.664009
Br332	Br	0.028787	0.756613	0.914009
H333	H	-0.744027	-0.016188	0.328345
H334	H	-0.494027	0.233812	0.578345
H335	H	-0.244027	0.483812	0.828345
H336	H	0.005973	0.733812	1.078345
Br337	Br	-0.816170	0.055213	0.407031
Br338	Br	-0.566170	0.305213	0.657031
Br339	Br	-0.316170	0.555213	0.907031
Br340	Br	-0.066170	0.805213	1.157031
H341	H	-0.823343	-0.206035	0.428383
H342	H	-0.573343	0.043965	0.678383
H343	H	-0.323343	0.293965	0.928383
H344	H	-0.073343	0.543965	1.178383
H345	H	-0.907253	0.485079	-0.079715
H346	H	-0.657253	0.735079	0.170285
H347	H	-0.407253	0.985079	0.420285
H348	H	-0.157253	1.235079	0.670285
H349	H	-0.930833	0.712132	-0.000165
H350	H	-0.680833	0.962132	0.249835
H351	H	-0.430833	1.212132	0.499835
H352	H	-0.180833	1.462132	0.749835
Br353	Br	-0.675530	0.078756	-0.000100
Br354	Br	-0.425530	0.328756	0.249900
Br355	Br	-0.175530	0.578756	0.499900
Br356	Br	0.074470	0.828756	0.749900
H357	H	-0.817112	0.021219	0.571371
H358	H	-0.567112	0.271219	0.821371
H359	H	-0.317112	0.521219	1.071371
H360	H	-0.067112	0.771219	1.321371
Br361	Br	-0.666474	0.696406	-0.000141
Br362	Br	-0.416474	0.946406	0.249859
Br363	Br	-0.166474	1.196406	0.499859
Br364	Br	0.083526	1.446406	0.749859
Br365	Br	-0.392787	-0.189571	-0.123362
Br366	Br	-0.142787	0.060429	0.126638
Br367	Br	0.107213	0.310429	0.376638
Br368	Br	0.357213	0.560429	0.626638
Br369	Br	-0.011452	-0.087867	-0.161015
Br370	Br	0.238548	0.162133	0.088985
Br371	Br	0.488548	0.412133	0.338985
Br372	Br	0.738548	0.662133	0.588985
H373	H	-0.731261	0.461512	0.079463
H374	H	-0.481261	0.711512	0.329463
H375	H	-0.231261	0.961512	0.579463
H376	H	0.018739	1.211512	0.829463
Br377	Br	-0.721241	0.006623	0.650096
Br378	Br	-0.471241	0.256623	0.900096
Br379	Br	-0.221241	0.506623	1.150096
Br380	Br	0.028759	0.756623	1.400096
Br381	Br	-0.418429	0.002239	0.123130
Br382	Br	-0.168429	0.252239	0.373130
Br383	Br	0.081571	0.502239	0.623130
Br384	Br	0.331571	0.752239	0.873130
Br385	Br	-0.011352	-0.087880	0.160707
Br386	Br	0.238648	0.162120	0.410707
Br387	Br	0.488648	0.412120	0.660707
Br388	Br	0.738648	0.662120	0.910707
H389	H	-0.707687	0.234465	-0.000103
H390	H	-0.457687	0.484465	0.249897
H391	H	-0.207687	0.734465	0.499897
H392	H	0.042313	0.984465	0.749897
Br393	Br	-0.247670	0.004736	0.123128
Br394	Br	0.002330	0.254736	0.373128
Br395	Br	0.252330	0.504736	0.623128
Br396	Br	0.502330	0.754736	0.873128
H397	H	-0.609340	-0.096692	0.123721
H398	H	-0.359340	0.153308	0.373721
H399	H	-0.109340	0.403308	0.623721
H400	H	0.140660	0.653308	0.873721
Br401	Br	-0.919236	-0.191430	0.650007
Br402	Br	-0.669236	0.058570	0.900007
Br403	Br	-0.419236	0.308570	1.150007
Br404	Br	-0.169236	0.558570	1.400007
Br405	Br	-0.973970	0.118761	-0.000118
Br406	Br	-0.723970	0.368761	0.249882
Br407	Br	-0.473970	0.618761	0.499882
Br408	Br	-0.223970	0.868761	0.749882
H409	H	-0.937386	0.265246	-0.000121
H410	H	-0.687386	0.515246	0.249879
H411	H	-0.437386	0.765246	0.499879
H412	H	-0.187386	1.015246	0.749879
Br413	Br	-0.919217	-0.191446	0.349663
Br414	Br	-0.669217	0.058554	0.599663
Br415	Br	-0.419217	0.308554	0.849663
Br416	Br	-0.169217	0.558554	1.099663
