data_functionalizedCrystal
_audit_creation_method	'MofGen! by Chris Wilmer'
_symmetry_space_group_name_H-M	'P1'
_symmetry_Int_Tables_number	1
_symmetry_cell_setting	triclinic
loop_
_symmetry_equiv_pos_as_xyz
  x,y,z
_cell_length_a	17.077404
_cell_length_b	18.101395
_cell_length_c	17.077396
_cell_angle_alpha	89.972533
_cell_angle_beta	89.980223
_cell_angle_gamma	90.026490
loop_
_atom_site_label
_atom_site_type_symbol
_atom_site_fract_x
_atom_site_fract_y
_atom_site_fract_z
Zn1	Zn	1.200010	-0.294921	-0.443854
Zn2	Zn	1.700010	0.205079	0.056146
Zn3	Zn	1.199898	-0.418769	-0.312590
Zn4	Zn	1.699898	0.081231	0.187410
Zn5	Zn	1.068742	-0.294936	-0.312601
Zn6	Zn	1.568742	0.205064	0.187399
Zn7	Zn	1.068691	-0.418715	-0.443813
Zn8	Zn	1.568691	0.081285	0.056187
O9	O	1.134335	-0.356835	-0.378215
O10	O	1.634335	0.143165	0.121785
O11	O	1.309842	-0.311366	-0.426454
O12	O	1.809842	0.188634	0.073546
O13	O	1.182474	-0.402372	-0.202745
O14	O	1.682474	0.097628	0.297255
O15	O	1.086223	-0.191301	-0.330034
O16	O	1.586223	0.308699	0.169966
O17	O	1.309760	-0.402357	-0.330015
O18	O	1.809760	0.097643	0.169985
O19	O	1.182665	-0.191290	-0.426465
O20	O	1.682665	0.308710	0.073535
O21	O	1.086114	-0.311392	-0.202753
O22	O	1.586114	0.188608	0.297247
O23	O	0.958888	-0.311340	-0.329994
O24	O	1.458888	0.188660	0.170006
O25	O	1.086136	-0.402264	-0.553666
O26	O	1.586136	0.097736	-0.053666
O27	O	0.958851	-0.402279	-0.426395
O28	O	1.458851	0.097721	0.073605
O29	O	1.182616	-0.311313	-0.553696
O30	O	1.682616	0.188687	-0.053696
O31	O	1.182425	-0.522395	-0.329976
O32	O	1.682425	-0.022395	0.170024
O33	O	1.086028	-0.522355	-0.426385
O34	O	1.586028	-0.022355	0.073615
C35	C	0.930387	-0.356806	-0.378192
C36	C	1.430387	0.143194	0.121808
C37	C	0.843137	-0.356811	-0.378201
C38	C	1.343137	0.143189	0.121799
C39	C	0.467324	-0.404294	-0.428354
C40	C	0.967324	0.095706	0.071646
C41	C	0.549305	-0.404284	-0.428342
C42	C	1.049305	0.095716	0.071658
C43	C	0.590288	-0.356855	-0.378227
C44	C	1.090288	0.143145	0.121773
C45	C	0.549288	-0.309438	-0.328115
C46	C	1.049288	0.190562	0.171885
C47	C	0.467309	-0.309452	-0.328124
C48	C	0.967309	0.190548	0.171876
C49	C	0.720158	-0.309411	-0.328102
C50	C	1.220158	0.190589	0.171898
C51	C	0.802142	-0.309396	-0.328095
C52	C	1.302142	0.190604	0.171905
C53	C	0.802154	-0.404243	-0.428321
C54	C	1.302154	0.095757	0.071679
C55	C	0.720175	-0.404257	-0.428329
C56	C	1.220175	0.095743	0.071671
C57	C	0.679179	-0.356839	-0.378218
C58	C	1.179179	0.143161	0.121782
C59	C	1.134230	-0.549246	-0.378192
C60	C	1.634230	-0.049246	0.121808
C61	C	1.134257	-0.631560	-0.378208
C62	C	1.634257	-0.131560	0.121792
C63	C	1.134429	-0.930651	-0.378250
C64	C	1.634429	-0.430651	0.121750
C65	C	1.073919	-0.899331	-0.439059
C66	C	1.573919	-0.399331	0.060941
C67	C	1.073632	-0.813714	-0.438869
C68	C	1.573632	-0.313714	0.061131
C69	C	1.134344	-0.782268	-0.378230
C70	C	1.634344	-0.282268	0.121770
C71	C	1.111947	-0.813418	-0.295500
C72	C	1.611947	-0.313418	0.204500
C73	C	1.111557	-0.899063	-0.295864
C74	C	1.611557	-0.399063	0.204136
C75	C	1.217469	-0.899001	-0.399443
C76	C	1.717469	-0.399001	0.100557
C77	C	1.216980	-0.813350	-0.401257
C78	C	1.716980	-0.313350	0.098743
C79	C	1.134297	-0.698409	-0.378213
C80	C	1.634297	-0.198409	0.121787
C81	C	1.134474	-1.014510	-0.378261
C82	C	1.634474	-0.514510	0.121739
C83	C	1.339079	-0.356866	-0.378238
C84	C	1.839079	0.143134	0.121762
C85	C	1.426329	-0.356879	-0.378248
C86	C	1.926329	0.143121	0.121752
C87	C	1.134462	-0.163673	-0.378255
C88	C	1.634462	0.336327	0.121745
C89	C	1.134516	-0.081359	-0.378272
C90	C	1.634516	0.418641	0.121728
C91	C	1.134383	-0.356781	-0.582959
C92	C	1.634383	0.143219	-0.082959
C93	C	1.134403	-0.356758	-0.670209
C94	C	1.634403	0.143242	-0.170209
C95	C	1.184641	-0.309395	-0.711216
C96	C	1.684641	0.190605	-0.211216
C97	C	1.184651	-0.309371	-0.793196
C98	C	1.684651	0.190629	-0.293196
C99	C	1.134425	-0.356713	-0.834168
C100	C	1.634425	0.143287	-0.334168
C101	C	1.084181	-0.404077	-0.793156
C102	C	1.584181	0.095923	-0.293156
C103	C	1.084168	-0.404097	-0.711177
C104	C	1.584168	0.095903	-0.211177
C105	C	1.084212	-0.404032	-0.964026
C106	C	1.584212	0.095968	-0.464026
C107	C	1.084226	-0.404013	-1.046010
C108	C	1.584226	0.095987	-0.546010
C109	C	1.184695	-0.309306	-1.046046
C110	C	1.684695	0.190694	-0.546046
C111	C	1.184683	-0.309326	-0.964067
C112	C	1.684683	0.190674	-0.464067
C113	C	1.134439	-0.356692	-0.923059
C114	C	1.634439	0.143308	-0.423059
C115	C	1.134333	-0.356836	-0.174267
C116	C	1.634333	0.143164	0.325733
C117	C	1.134465	-0.356651	-0.087017
C118	C	1.634465	0.143349	0.412983
H119	H	0.433932	-0.270840	-0.287324
H120	H	0.933932	0.229160	0.212676
H121	H	1.012743	-0.920913	-0.425197
H122	H	1.512743	-0.420913	0.074803
H123	H	1.087644	-0.792650	-0.500212
H124	H	1.587644	-0.292650	-0.000212
H125	H	1.087793	-0.919880	-0.500600
H126	H	1.587793	-0.419880	-0.000600
H127	H	1.225544	-0.270846	-0.677862
H128	H	1.725544	0.229154	-0.177862
H129	H	1.237888	-0.920550	-0.458741
H130	H	1.737888	-0.420550	0.041259
H131	H	0.835536	-0.442851	-0.469125
H132	H	1.335536	0.057149	0.030875
H133	H	0.582679	-0.442896	-0.469142
H134	H	1.082679	0.057104	0.030858
H135	H	0.686808	-0.442874	-0.469141
H136	H	1.186808	0.057126	0.030859
H137	H	1.012081	-0.793286	-0.424830
H138	H	1.512081	-0.293286	0.075170
H139	H	1.233870	-0.792988	-0.462142
H140	H	1.733870	-0.292988	0.037858
H141	H	1.154633	-0.793051	-0.248958
H142	H	1.654633	-0.293051	0.251042
H143	H	1.043326	-0.442561	-1.079368
H144	H	1.543326	0.057439	-0.579368
H145	H	0.433961	-0.442912	-0.469168
H146	H	0.933961	0.057088	0.030832
H147	H	1.050855	-0.919102	-0.277912
H148	H	1.550855	-0.419102	0.222088
H149	H	0.835509	-0.270768	-0.287294
H150	H	1.335509	0.229232	0.212706
H151	H	0.686782	-0.270796	-0.287298
H152	H	1.186782	0.229204	0.212702
H153	H	1.262551	-0.919254	-0.355154
H154	H	1.762551	-0.419254	0.144846
H155	H	0.582663	-0.270824	-0.287307
H156	H	1.082663	0.229176	0.212693
H157	H	1.153718	-0.919784	-0.249012
H158	H	1.653718	-0.419784	0.250988
H159	H	1.225562	-0.270805	-0.826581
H160	H	1.725562	0.229195	-0.326581
H161	H	1.051888	-0.792029	-0.277226
H162	H	1.551888	-0.292029	0.222774
H163	H	1.043251	-0.442657	-0.677790
H164	H	1.543251	0.057343	-0.177790
H165	H	1.264448	-0.791941	-0.360196
H166	H	1.764448	-0.291941	0.139804
H167	H	1.225585	-0.270781	-0.930709
H168	H	1.725585	0.229219	-0.430709
H169	H	1.225604	-0.270738	-1.079437
H170	H	1.725604	0.229262	-0.579437
H171	H	1.043287	-0.442591	-0.930640
H172	H	1.543287	0.057409	-0.430640
H173	H	1.043283	-0.442621	-0.826522
H174	H	1.543283	0.057379	-0.326522
