data_functionalizedCrystal
_audit_creation_method	'MofGen! by Chris Wilmer'
_symmetry_space_group_name_H-M	'P1'
_symmetry_Int_Tables_number	1
_symmetry_cell_setting	triclinic
loop_
_symmetry_equiv_pos_as_xyz
  x,y,z
_cell_length_a	14.044191
_cell_length_b	14.044220
_cell_length_c	12.996460
_cell_angle_alpha	89.993022
_cell_angle_beta	89.997003
_cell_angle_gamma	93.190327
loop_
_atom_site_label
_atom_site_type_symbol
_atom_site_fract_x
_atom_site_fract_y
_atom_site_fract_z
O1	O	1.277174	0.230202	-0.085522
O2	O	1.527174	0.480202	0.164478
O3	O	1.777174	0.730202	0.414478
O4	O	2.027174	0.980202	0.664478
O5	O	1.000501	0.221889	-0.085535
O6	O	1.250501	0.471889	0.164465
O7	O	1.500501	0.721889	0.414465
O8	O	1.750501	0.971889	0.664465
O9	O	1.134685	0.087710	-0.085518
O10	O	1.384685	0.337710	0.164482
O11	O	1.634685	0.587710	0.414482
O12	O	1.884685	0.837710	0.664482
O13	O	1.142991	0.364381	-0.085538
O14	O	1.392991	0.614381	0.164462
O15	O	1.642991	0.864381	0.414462
O16	O	1.892991	1.114381	0.664462
O17	O	1.134669	0.087700	0.085616
O18	O	1.384669	0.337700	0.335616
O19	O	1.634669	0.587700	0.585616
O20	O	1.884669	0.837700	0.835616
O21	O	1.000486	0.221880	0.085599
O22	O	1.250486	0.471880	0.335599
O23	O	1.500486	0.721880	0.585599
O24	O	1.750486	0.971880	0.835599
O25	O	1.277158	0.230192	0.085612
O26	O	1.527158	0.480192	0.335612
O27	O	1.777158	0.730192	0.585612
O28	O	2.027158	0.980192	0.835612
Cu29	Cu	1.138820	0.226035	0.101232
Cu30	Cu	1.388820	0.476035	0.351232
Cu31	Cu	1.638820	0.726035	0.601232
Cu32	Cu	1.888820	0.976035	0.851232
Cu33	Cu	1.138839	0.226046	-0.101154
Cu34	Cu	1.388839	0.476046	0.148846
Cu35	Cu	1.638839	0.726046	0.398846
Cu36	Cu	1.888839	0.976046	0.648846
O37	O	1.142975	0.364372	0.085596
O38	O	1.392975	0.614372	0.335596
O39	O	1.642975	0.864372	0.585596
O40	O	1.892975	1.114372	0.835596
C41	C	0.964872	0.218248	0.000031
C42	C	1.214872	0.468248	0.250031
C43	C	1.464872	0.718248	0.500031
C44	C	1.714872	0.968248	0.750031
C45	C	0.858728	0.207401	0.000026
C46	C	1.108728	0.457401	0.250026
C47	C	1.358728	0.707401	0.500026
C48	C	1.608728	0.957401	0.750026
C49	C	0.613270	0.264501	0.000032
C50	C	0.863270	0.514501	0.250032
C51	C	1.113270	0.764501	0.500032
C52	C	1.363270	1.014501	0.750032
C53	C	0.664395	0.187585	0.000036
C54	C	0.914395	0.437585	0.250036
C55	C	1.164395	0.687585	0.500036
C56	C	1.414395	0.937585	0.750036
C57	C	0.772532	0.198613	0.000031
C58	C	1.022532	0.448613	0.250031
C59	C	1.272532	0.698613	0.500031
C60	C	1.522532	0.948613	0.750031
C61	C	0.505123	0.253474	0.000038
C62	C	0.755123	0.503474	0.250038
C63	C	1.005123	0.753474	0.500038
C64	C	1.255123	1.003474	0.750038
C65	C	1.131041	0.052083	0.000049
C66	C	1.381041	0.302083	0.250049
C67	C	1.631041	0.552083	0.500049
C68	C	1.881041	0.802083	0.750049
C69	C	1.120197	-0.054060	0.000050
C70	C	1.370197	0.195940	0.250050
C71	C	1.620197	0.445940	0.500050
C72	C	1.870197	0.695940	0.750050
C73	C	1.100370	-0.248398	0.000034
C74	C	1.350370	0.001602	0.250034
C75	C	1.600370	0.251602	0.500034
C76	C	1.850370	0.501602	0.750034
C77	C	1.177285	-0.299526	0.000034
C78	C	1.427285	-0.049526	0.250034
C79	C	1.677285	0.200474	0.500034
C80	C	1.927285	0.450474	0.750034
C81	C	1.166253	-0.407663	0.000026
C82	C	1.416253	-0.157663	0.250026
C83	C	1.666253	0.092337	0.500026
C84	C	1.916253	0.342337	0.750026
C85	C	1.111400	-0.140252	0.000043
C86	C	1.361400	0.109748	0.250043
C87	C	1.611400	0.359748	0.500043
C88	C	1.861400	0.609748	0.750043
C89	C	1.312788	0.233834	0.000044
C90	C	1.562788	0.483834	0.250044
C91	C	1.812788	0.733834	0.500044
C92	C	2.062788	0.983834	0.750044
C93	C	1.418931	0.244681	0.000042
C94	C	1.668931	0.494681	0.250042
C95	C	1.918931	0.744681	0.500042
C96	C	2.168931	0.994681	0.750042
C97	C	1.146618	0.399998	0.000026
C98	C	1.396618	0.649998	0.250026
C99	C	1.646618	0.899998	0.500026
C100	C	1.896618	1.149998	0.750026
C101	C	1.157463	0.506142	0.000019
C102	C	1.407463	0.756142	0.250019
C103	C	1.657463	1.006142	0.500019
C104	C	1.907463	1.256142	0.750019
N105	N	1.138814	0.226027	0.243579
N106	N	1.388814	0.476027	0.493579
N107	N	1.638814	0.726027	0.743579
N108	N	1.888814	0.976027	0.993579
N109	N	1.138852	0.226047	-0.243501
N110	N	1.388852	0.476047	0.006499
N111	N	1.638852	0.726047	0.256499
N112	N	1.888852	0.976047	0.506499
C113	C	1.138838	0.226047	0.663393
C114	C	1.388838	0.476047	0.913393
C115	C	1.638838	0.726047	1.163393
C116	C	1.888838	0.976047	1.413393
C117	C	1.138829	0.226045	0.546588
C118	C	1.388829	0.476045	0.796588
C119	C	1.638829	0.726045	1.046588
C120	C	1.888829	0.976045	1.296588
C121	C	1.138826	0.226038	0.453490
C122	C	1.388826	0.476038	0.703490
C123	C	1.638826	0.726038	0.953490
C124	C	1.888826	0.976038	1.203490
C125	C	1.138816	0.226034	0.336677
C126	C	1.388816	0.476034	0.586677
C127	C	1.638816	0.726034	0.836677
C128	C	1.888816	0.976034	1.086677
H129	H	0.650711	0.338628	0.000024
H130	H	0.900711	0.588628	0.250024
H131	H	1.150711	0.838628	0.500024
H132	H	1.400711	1.088628	0.750024
H133	H	1.026242	-0.285837	0.000028
H134	H	1.276242	-0.035837	0.250028
H135	H	1.526242	0.214163	0.500028
H136	H	1.776242	0.464163	0.750028
H137	H	0.626952	0.113452	-0.000031
H138	H	0.876952	0.363452	0.249969
H139	H	1.126952	0.613452	0.499969
H140	H	1.376952	0.863452	0.749969
C141	C	1.277437	-0.248947	0.000054
C142	C	1.527437	0.001053	0.250054
C143	C	1.777437	0.251053	0.500054
C144	C	2.027437	0.501053	0.750054
N145	N	1.352869	-0.210846	0.000074
N146	N	1.602869	0.039154	0.250074
N147	N	1.852869	0.289154	0.500074
N148	N	2.102869	0.539154	0.750074
