data_functionalizedCrystal
_audit_creation_method	'MofGen! by Chris Wilmer'
_symmetry_space_group_name_H-M	'P1'
_symmetry_Int_Tables_number	1
_symmetry_cell_setting	triclinic
loop_
_symmetry_equiv_pos_as_xyz
  x,y,z
_cell_length_a	21.395364
_cell_length_b	11.169416
_cell_length_c	21.395063
_cell_angle_alpha	89.647532
_cell_angle_beta	89.932496
_cell_angle_gamma	90.008673
loop_
_atom_site_label
_atom_site_type_symbol
_atom_site_fract_x
_atom_site_fract_y
_atom_site_fract_z
Zn1	Zn	0.958213	-0.473954	-0.354309
Zn2	Zn	0.958074	-0.675821	-0.249542
Zn3	Zn	0.853349	-0.475145	-0.249542
Zn4	Zn	0.853434	-0.674588	-0.354285
O5	O	0.905767	-0.574877	-0.301920
O6	O	1.045872	-0.500750	-0.340422
O7	O	0.944089	-0.650215	-0.161861
O8	O	0.867282	-0.307037	-0.263450
O9	O	1.045770	-0.649060	-0.263450
O10	O	0.944325	-0.306162	-0.340421
O11	O	0.867148	-0.502779	-0.161861
O12	O	0.765683	-0.501584	-0.263427
O13	O	0.867427	-0.646959	-0.441969
O14	O	0.765745	-0.648114	-0.340381
O15	O	0.944407	-0.499554	-0.441987
O16	O	0.944171	-0.843607	-0.263427
O17	O	0.867292	-0.842701	-0.340381
C18	C	0.742980	-0.574845	-0.301902
C19	C	0.673339	-0.574860	-0.301909
C20	C	0.905743	-0.886702	-0.301915
C21	C	0.905789	-1.020101	-0.301934
C22	C	0.171591	-0.651316	-0.341951
C23	C	0.237027	-0.651316	-0.341945
C24	C	0.269700	-0.574903	-0.301940
C25	C	0.236933	-0.498505	-0.261927
C26	C	0.171499	-0.498515	-0.261930
C27	C	0.373365	-0.466797	-0.297081
C28	C	0.438798	-0.466785	-0.297082
C29	C	0.471521	-0.574871	-0.301926
C30	C	0.438803	-0.682973	-0.306782
C31	C	0.373369	-0.682984	-0.306785
C32	C	0.340653	-0.574884	-0.301931
C33	C	0.575233	-0.651271	-0.341926
C34	C	0.640669	-0.651273	-0.341915
C35	C	0.640575	-0.498451	-0.261900
C36	C	0.575139	-0.498459	-0.261908
C37	C	0.542472	-0.574867	-0.301924
C38	C	1.069191	-0.574910	-0.301938
C39	C	1.138832	-0.574924	-0.301946
C40	C	0.905942	-0.572986	-0.465348
C41	C	0.906016	-0.572181	-0.534992
C42	C	0.905809	-0.261834	-0.301938
C43	C	0.905827	-0.128434	-0.301946
C44	C	0.905630	-0.576673	-0.139127
C45	C	0.905677	-0.577141	-0.069483
C46	C	0.945479	-0.499530	-0.037287
C47	C	0.945525	-0.498927	0.028146
C48	C	0.905757	-0.575921	0.061381
C49	C	0.865953	-0.653547	0.029177
C50	C	0.865913	-0.654157	-0.036255
C51	C	0.849407	-0.585205	0.165205
C52	C	0.849446	-0.584587	0.230636
C53	C	0.905881	-0.574048	0.263196
C54	C	0.962279	-0.564102	0.230317
C55	C	0.962239	-0.564712	0.164884
C56	C	0.905797	-0.575269	0.132331
C57	C	0.945736	-0.495779	0.366343
C58	C	0.945783	-0.495184	0.431778
C59	C	0.866205	-0.649798	0.432807
C60	C	0.866164	-0.650399	0.367374
C61	C	0.905929	-0.573383	0.334145
H62	H	0.144998	-0.713538	-0.374533
H63	H	0.346728	-0.378776	-0.293126
Br64	Br	0.772908	-0.598067	0.275252
H65	H	0.833500	-0.717359	-0.062469
Br66	Br	0.812144	-0.755735	0.323676
H67	H	0.803448	-0.593788	0.138701
Br68	Br	0.812243	-0.754311	0.477905
Br69	Br	0.811986	-0.758049	0.074280
H70	H	0.263704	-0.713524	-0.374524
H71	H	0.667177	-0.436238	-0.229325
Br72	Br	0.328967	-0.829685	-0.313373
H73	H	0.465444	-0.770987	-0.310731
Br74	Br	0.483195	-0.320076	-0.290504
H75	H	0.977861	-0.436823	-0.064338
H76	H	0.548634	-0.713488	-0.374509
Br77	Br	0.685130	-0.754970	-0.396206
H78	H	0.548466	-0.436248	-0.229334
Br79	Br	0.281274	-0.394808	-0.207629
H80	H	0.144827	-0.436304	-0.229353
Br81	Br	0.999547	-0.393592	0.071851
H82	H	1.008233	-0.555517	0.256825
Br83	Br	1.038775	-0.551231	0.120264
Br84	Br	0.999811	-0.389856	0.475474
Br85	Br	0.999687	-0.391234	0.321243
