data_functionalizedCrystal
_audit_creation_method	'MofGen! by Chris Wilmer'
_symmetry_space_group_name_H-M	'P1'
_symmetry_Int_Tables_number	1
_symmetry_cell_setting	triclinic
loop_
_symmetry_equiv_pos_as_xyz
  x,y,z
_cell_length_a	23.532407
_cell_length_b	10.654560
_cell_length_c	9.130313
_cell_angle_alpha	90.000516
_cell_angle_beta	90.005122
_cell_angle_gamma	83.668982
loop_
_atom_site_label
_atom_site_type_symbol
_atom_site_fract_x
_atom_site_fract_y
_atom_site_fract_z
O1	O	0.756252	0.152432	-0.121611
O2	O	0.590533	0.174489	-0.121653
O3	O	0.677199	-0.019399	-0.121628
O4	O	0.669585	0.346319	-0.121636
O5	O	0.677198	-0.019393	0.121971
O6	O	0.590532	0.174494	0.121945
O7	O	0.756251	0.152437	0.121988
Cu8	Cu	0.673391	0.163466	0.144209
Cu9	Cu	0.673393	0.163460	-0.143875
O10	O	0.669584	0.346325	0.121962
C11	C	0.569313	0.173930	0.000141
C12	C	0.506084	0.172241	0.000124
C13	C	0.676639	-0.066176	0.000169
C14	C	0.674962	-0.205565	0.000161
C15	C	0.672608	-0.402027	0.132947
C16	C	0.674176	-0.271053	0.132949
C17	C	0.674174	-0.271056	-0.132636
C18	C	0.672602	-0.402025	-0.132636
C19	C	0.671828	-0.467510	0.265743
C20	C	0.672614	-0.402028	0.398541
C21	C	0.674183	-0.271055	0.398543
C22	C	0.674964	-0.205563	0.265746
C23	C	0.107662	0.276388	0.000188
C24	C	0.048251	0.274819	0.000197
O25	O	0.012137	0.371364	0.000248
N26	N	0.024872	0.159553	0.000197
C27	C	0.060907	0.045848	0.000204
O28	O	0.035566	-0.052338	0.000206
C29	C	0.120316	0.047418	0.000205
C30	C	0.143692	0.162692	0.000190
C31	C	0.131038	0.391652	0.000175
C32	C	0.190444	0.393220	0.000163
C33	C	0.226475	0.279524	0.000165
C34	C	0.203098	0.164260	0.000178
C35	C	0.156350	-0.066285	0.000222
C36	C	0.215763	-0.064705	0.000224
C37	C	0.239138	0.050569	0.000209
C38	C	0.298535	0.052132	0.000168
N39	N	0.321914	0.167398	0.000168
C40	C	0.285884	0.281094	0.000166
C41	C	-0.063857	0.042560	0.000203
C42	C	-0.123265	0.040989	0.000191
C43	C	-0.135917	0.269960	0.000188
C44	C	-0.076508	0.271530	0.000189
C45	C	-0.040478	0.157826	0.000203
C46	C	0.410642	0.284379	0.000141
C47	C	0.470054	0.285937	0.000123
C48	C	0.482701	0.056966	0.000134
C49	C	0.423294	0.055408	0.000144
C50	C	0.387265	0.169124	0.000152
O51	O	0.334684	-0.044362	0.000123
O52	O	0.311233	0.379265	0.000183
C53	C	0.777471	0.152996	0.000190
C54	C	0.840699	0.154685	0.000197
C55	C	0.670145	0.393102	0.000162
C56	C	0.671822	0.532492	0.000160
N57	N	0.673395	0.163470	0.346832
N58	N	0.673394	0.163446	-0.346497
C59	C	0.711780	0.077645	0.423495
C60	C	0.711779	0.077630	0.576832
C61	C	0.635004	0.249275	0.576829
C62	C	0.635003	0.249283	0.423495
C63	C	0.750172	-0.008169	0.346832
C64	C	0.788562	-0.093999	0.423495
C65	C	0.788560	-0.094014	0.576832
C66	C	0.750169	-0.008199	0.653505
H67	H	0.670552	-0.574155	0.265757
Cl68	Cl	0.586746	0.357154	0.673218
Cl69	Cl	-0.018568	-0.100397	0.000203
Cl70	Cl	0.671624	-0.484356	0.565475
H71	H	0.137328	-0.160153	0.000235
H72	H	0.674817	-0.217741	0.506673
H73	H	0.245096	-0.157299	0.000236
Cl74	Cl	0.750165	-0.008234	0.846274
Cl75	Cl	0.671610	-0.484351	-0.299572
Cl76	Cl	0.676937	-0.040910	0.265753
Cl77	Cl	-0.047127	0.416449	0.000175
Cl78	Cl	0.219822	0.538143	0.000155
H79	H	0.674810	-0.217722	-0.240753
Cl80	Cl	0.586743	0.357177	0.327116
Cl81	Cl	0.499437	0.430863	0.000100
Cl82	Cl	0.085753	0.534604	0.000169
Cl83	Cl	0.393906	-0.089509	0.000170
H84	H	-0.165264	0.362537	0.000193
H85	H	0.381314	0.376978	0.000152
H86	H	-0.142292	-0.052878	0.000180
H87	H	0.512047	-0.035602	0.000130
Cl88	Cl	0.750178	-0.008150	0.154066
H89	H	0.819815	-0.163875	0.361060
Cl90	Cl	0.836815	-0.201922	0.673207
