data_functionalizedCrystal
_audit_creation_method	'MofGen! by Chris Wilmer'
_symmetry_space_group_name_H-M	'P1'
_symmetry_Int_Tables_number	1
_symmetry_cell_setting	triclinic
loop_
_symmetry_equiv_pos_as_xyz
  x,y,z
_cell_length_a	19.077105
_cell_length_b	19.077068
_cell_length_c	19.076919
_cell_angle_alpha	94.470751
_cell_angle_beta	89.923776
_cell_angle_gamma	89.884684
loop_
_atom_site_label
_atom_site_type_symbol
_atom_site_fract_x
_atom_site_fract_y
_atom_site_fract_z
Zn1	Zn	1.044048	0.340450	0.453500
Zn2	Zn	1.043962	0.453600	0.340340
Zn3	Zn	0.931660	0.331023	0.330931
Zn4	Zn	0.921801	0.453176	0.453077
O5	O	0.985368	0.394562	0.394462
O6	O	1.142196	0.359583	0.442604
O7	O	1.033154	0.433572	0.240616
O8	O	0.950731	0.233799	0.343429
O9	O	1.142133	0.442714	0.359466
O10	O	1.033302	0.240725	0.433479
O11	O	0.950647	0.343516	0.233703
O12	O	0.832193	0.343104	0.343019
O13	O	0.933928	0.441990	0.551609
O14	O	0.824949	0.432849	0.432759
O15	O	1.023742	0.359171	0.551919
O16	O	1.023594	0.552019	0.359056
O17	O	0.933844	0.551707	0.441883
C18	C	0.803119	0.386908	0.386822
C19	C	0.725151	0.383651	0.383571
C20	C	0.977658	0.577398	0.401461
C21	C	0.974423	0.655619	0.404482
C22	C	0.977745	0.401585	0.578012
C23	C	0.974497	0.404578	0.656230
C24	C	0.684769	0.428912	0.428699
C25	C	0.611510	0.425842	0.425647
C26	C	0.578634	0.377515	0.377464
C27	C	0.619022	0.332250	0.332335
C28	C	0.692280	0.335317	0.335390
C29	C	0.359940	0.363323	0.363326
C30	C	0.286677	0.360262	0.360273
C31	C	0.279170	0.453853	0.453586
C32	C	0.352429	0.456918	0.456635
C33	C	0.392810	0.411651	0.411508
N34	N	0.503752	0.374378	0.374342
N35	N	0.467691	0.414785	0.414634
C36	C	1.168328	0.402247	0.402132
C37	C	1.246295	0.405522	0.405400
C38	C	0.993126	0.211015	0.387451
C39	C	0.996432	0.132798	0.384464
C40	C	1.019665	0.692509	0.362816
C41	C	1.016626	0.766007	0.365661
C42	C	0.968342	0.802612	0.410169
C43	C	0.923098	0.765717	0.451839
C44	C	0.926141	0.692221	0.448997
C45	C	0.954231	1.022406	0.423292
C46	C	0.951190	1.095907	0.426130
C47	C	1.044720	1.096192	0.339952
C48	C	1.047755	1.022695	0.337111
C49	C	1.002514	0.985806	0.378784
N50	N	0.965233	0.877738	0.413077
N51	N	1.005627	0.910681	0.375880
C52	C	0.993003	0.387518	0.211626
C53	C	0.996396	0.384333	0.133406
C54	C	1.019730	0.362866	0.693140
C55	C	1.016669	0.365675	0.766634
C56	C	0.968378	0.410200	0.803216
C57	C	0.923140	0.451913	0.766301
C58	C	0.926198	0.449100	0.692809
C59	C	0.954216	0.423233	1.022998
C60	C	0.951163	0.426044	1.096496
C61	C	1.044691	0.339805	1.096823
C62	C	1.047748	0.337000	1.023329
C63	C	1.002507	0.378710	0.986421
N64	N	0.965250	0.413073	0.878339
N65	N	1.005632	0.375832	0.911299
H66	H	0.711530	0.468267	0.467932
H67	H	0.592249	0.292898	0.293106
C68	C	0.870025	0.500901	0.806535
C69	C	0.790944	0.491434	0.792866
C70	C	0.737831	0.540431	0.833095
C71	C	0.763799	0.598895	0.886994
C72	C	0.842884	0.608364	0.900666
C73	C	0.895997	0.559368	0.860436
H74	H	0.771717	0.448153	0.752964
H75	H	0.679287	0.533420	0.822974
H76	H	0.724482	0.635165	0.916774
H77	H	0.862111	0.651645	0.940567
H78	H	0.954541	0.566378	0.870557
H79	H	0.889301	0.662185	0.482927
H80	H	0.259912	0.320900	0.321040
C81	C	0.404345	0.313542	0.313668
C82	C	0.397395	0.233353	0.316037
C83	C	0.441800	0.183574	0.266369
C84	C	0.493156	0.213983	0.214330
C85	C	0.500109	0.294176	0.211959
C86	C	0.455703	0.343956	0.261628
H87	H	0.359376	0.210839	0.354561
H88	H	0.436653	0.124210	0.268124
H89	H	0.526027	0.177133	0.177563
H90	H	0.538127	0.316690	0.173435
H91	H	0.460851	0.403320	0.259872
H92	H	0.911879	1.125710	0.462386
H93	H	1.087072	0.992892	0.300869
H94	H	1.081523	0.305846	1.126882
H95	H	0.883787	0.795527	0.488082
H96	H	1.058980	0.662710	0.326570
H97	H	1.053467	0.796040	0.331732
H98	H	0.911836	0.462303	1.126280
H99	H	0.917392	0.992377	0.457223
C100	C	1.072851	0.313888	0.652902
C101	C	1.070085	0.234036	0.659711
C102	C	1.123206	0.185054	0.619475
C103	C	1.179093	0.215925	0.572429
C104	C	1.181861	0.295781	0.565618
C105	C	1.128740	0.344762	0.605854
H106	H	1.028713	0.211180	0.694539
H107	H	1.121157	0.125939	0.624518
H108	H	1.218416	0.179665	0.542644
H109	H	1.223234	0.318637	0.530789
H110	H	1.130790	0.403877	0.600811
C111	C	1.066428	0.319790	0.807231
C112	C	1.146347	0.328499	0.800695
C113	C	1.196108	0.282609	0.841290
C114	C	1.165949	0.228010	0.888422
C115	C	1.086025	0.219299	0.894960
C116	C	1.036265	0.265189	0.854364
H117	H	1.168677	0.368919	0.765804
H118	H	1.255272	0.289058	0.836450
H119	H	1.202784	0.194040	0.918473
H120	H	1.063696	0.178879	0.929851
H121	H	0.977100	0.258740	0.859205
C122	C	0.234749	0.503639	0.503229
C123	C	0.183322	0.555563	0.472663
C124	C	0.138901	0.605349	0.522310
C125	C	0.145907	0.603211	0.602524
C126	C	0.197337	0.551285	0.633094
C127	C	0.241758	0.501500	0.583447
H128	H	0.178133	0.557147	0.413280
H129	H	0.100829	0.643787	0.499679
H130	H	0.113025	0.640066	0.639276
H131	H	0.202526	0.549701	0.692477
H132	H	0.279829	0.463061	0.606078
C133	C	0.736705	0.285530	0.285751
C134	C	0.729758	0.205343	0.288146
C135	C	0.774183	0.155551	0.238508
C136	C	0.825555	0.185946	0.186476
C137	C	0.832504	0.266136	0.184079
C138	C	0.788079	0.315928	0.233716
H139	H	0.691727	0.182840	0.326665
H140	H	0.769038	0.096189	0.240283
H141	H	0.858441	0.149087	0.149731
H142	H	0.870535	0.288640	0.145560
H143	H	0.793224	0.375291	0.231941
C144	C	0.567092	0.475633	0.475288
C145	C	0.574038	0.555819	0.472890
C146	C	0.529622	0.605612	0.522535
C147	C	0.478260	0.575219	0.574578
C148	C	0.471312	0.495029	0.576978
C149	C	0.515728	0.445236	0.527333
H150	H	0.612061	0.578321	0.434363
H151	H	0.534766	0.664974	0.520758
H152	H	0.445381	0.612079	0.611328
H153	H	0.433289	0.472526	0.615505
H154	H	0.510585	0.385873	0.529110
H155	H	1.081554	1.126235	0.306026
H156	H	0.917388	0.457207	0.992957
C157	C	0.876447	0.494987	0.652202
C158	C	0.824767	0.460249	0.598200
C159	C	0.775015	0.506137	0.557593
C160	C	0.776942	0.586762	0.570989
C161	C	0.828624	0.621505	0.624994
C162	C	0.878376	0.575617	0.665601
H163	H	0.823339	0.400561	0.588281
H164	H	0.736757	0.480417	0.517615
H165	H	0.740112	0.620731	0.540929
H166	H	0.830052	0.681193	0.634913
H167	H	0.916635	0.601336	0.705579
H168	H	0.379191	0.496273	0.495869
H169	H	1.087073	0.300745	0.993549
