data_functionalizedCrystal
_audit_creation_method	'MofGen! by Chris Wilmer'
_symmetry_space_group_name_H-M	'P1'
_symmetry_Int_Tables_number	1
_symmetry_cell_setting	triclinic
loop_
_symmetry_equiv_pos_as_xyz
  x,y,z
_cell_length_a	19.805407
_cell_length_b	19.121063
_cell_length_c	19.805399
_cell_angle_alpha	92.411105
_cell_angle_beta	89.980427
_cell_angle_gamma	92.469032
loop_
_atom_site_label
_atom_site_type_symbol
_atom_site_fract_x
_atom_site_fract_y
_atom_site_fract_z
Zn1	Zn	1.023234	-0.279631	-0.394203
Zn2	Zn	1.356567	0.053703	-0.060869
Zn3	Zn	1.689900	0.387036	0.272464
Zn4	Zn	1.018317	-0.397083	-0.285838
Zn5	Zn	1.351651	-0.063750	0.047496
Zn6	Zn	1.684984	0.269584	0.380829
Zn7	Zn	0.910048	-0.279650	-0.281028
Zn8	Zn	1.243381	0.053683	0.052305
Zn9	Zn	1.576714	0.387017	0.385638
Zn10	Zn	0.905182	-0.397046	-0.398983
Zn11	Zn	1.238516	-0.063712	-0.065650
Zn12	Zn	1.571849	0.269621	0.267684
O13	O	0.964195	-0.338352	-0.340013
O14	O	1.297529	-0.005019	-0.006680
O15	O	1.630862	0.328314	0.326654
O16	O	1.117298	-0.295218	-0.379840
O17	O	1.450631	0.038115	-0.046507
O18	O	1.783964	0.371448	0.286826
O19	O	1.003934	-0.381529	-0.190484
O20	O	1.337267	-0.048196	0.142849
O21	O	1.670601	0.285138	0.476182
O22	O	0.929156	-0.181363	-0.292028
O23	O	1.262489	0.151971	0.041306
O24	O	1.595822	0.485304	0.374639
O25	O	1.113686	-0.381510	-0.300225
O26	O	1.447019	-0.048177	0.033108
O27	O	1.780353	0.285156	0.366442
O28	O	1.012313	-0.181348	-0.375177
O29	O	1.345646	0.151985	-0.041843
O30	O	1.678980	0.485318	0.291490
O31	O	0.924388	-0.295251	-0.186951
O32	O	1.257722	0.038082	0.146383
O33	O	1.591055	0.371415	0.479716
O34	O	0.814686	-0.295215	-0.296663
O35	O	1.148019	0.038118	0.036670
O36	O	1.481353	0.371451	0.370004
O37	O	0.920863	-0.381447	-0.493065
O38	O	1.254197	-0.048113	-0.159731
O39	O	1.587530	0.285220	0.173602
O40	O	0.811111	-0.381465	-0.383324
O41	O	1.144445	-0.048132	-0.049990
O42	O	1.477778	0.285201	0.283343
O43	O	1.007595	-0.295182	-0.489553
O44	O	1.340929	0.038151	-0.156219
O45	O	1.674262	0.371484	0.177114
O46	O	0.999216	-0.495363	-0.304860
O47	O	1.332550	-0.162029	0.028473
O48	O	1.665883	0.171304	0.361807
O49	O	0.916096	-0.495335	-0.387987
O50	O	1.249430	-0.162002	-0.054654
O51	O	1.582763	0.171331	0.278679
C52	C	0.788340	-0.338339	-0.339991
C53	C	1.121673	-0.005006	-0.006657
C54	C	1.455006	0.328328	0.326676
C55	C	0.713107	-0.338350	-0.339998
C56	C	1.046441	-0.005017	-0.006664
C57	C	1.379774	0.328317	0.326669
C58	C	0.675917	-0.383328	-0.385055
C59	C	1.009250	-0.049995	-0.051721
C60	C	1.342584	0.283339	0.281612
C61	C	0.605228	-0.383329	-0.385064
C62	C	0.938562	-0.049996	-0.051731
C63	C	1.271895	0.283337	0.281602
C64	C	0.571732	-0.338356	-0.340013
C65	C	0.905065	-0.005022	-0.006680
C66	C	1.238398	0.328311	0.326654
C67	C	0.608927	-0.293373	-0.294954
C68	C	0.942261	0.039961	0.038379
C69	C	1.275594	0.373294	0.371713
C70	C	0.679614	-0.293368	-0.294948
C71	C	1.012948	0.039965	0.038385
C72	C	1.346281	0.373298	0.371719
C73	C	0.323853	-0.293388	-0.294977
C74	C	0.657187	0.039945	0.038356
C75	C	0.990520	0.373279	0.371690
C76	C	0.253161	-0.293397	-0.294985
C77	C	0.586494	0.039936	0.038348
C78	C	0.919827	0.373269	0.371682
C79	C	0.249467	-0.383349	-0.385093
C80	C	0.582800	-0.050016	-0.051760
C81	C	0.916134	0.283318	0.281574
C82	C	0.320154	-0.383345	-0.385087
C83	C	0.653488	-0.050012	-0.051754
C84	C	0.986821	0.283322	0.281579
C85	C	0.357344	-0.338360	-0.340031
C86	C	0.690677	-0.005026	-0.006698
C87	C	1.024011	0.328307	0.326636
C88	C	0.433992	-0.338358	-0.340022
C89	C	0.767326	-0.005025	-0.006689
C90	C	1.100659	0.328309	0.326645
C91	C	0.495084	-0.338360	-0.340018
C92	C	0.828418	-0.005027	-0.006685
C93	C	1.161751	0.328306	0.326648
C94	C	0.956613	-0.520833	-0.347479
C95	C	1.289947	-0.187500	-0.014146
C96	C	1.623280	0.145833	0.319187
C97	C	0.953431	-0.598899	-0.350696
C98	C	1.286765	-0.265566	-0.017363
C99	C	1.620098	0.067767	0.315971
C100	C	0.995246	-0.635566	-0.308963
C101	C	1.328580	-0.302233	0.024370
C102	C	1.661913	0.031101	0.357704
C103	C	0.992258	-0.708917	-0.311992
C104	C	1.325591	-0.375584	0.021341
C105	C	1.658925	-0.042251	0.354674
C106	C	0.947451	-0.745601	-0.356752
C107	C	1.280784	-0.412267	-0.023418
C108	C	1.614117	-0.078934	0.309915
C109	C	0.905634	-0.708929	-0.398489
C110	C	1.238968	-0.375596	-0.065156
C111	C	1.572301	-0.042262	0.268178
C112	C	0.908626	-0.635579	-0.395463
C113	C	1.241960	-0.302246	-0.062129
C114	C	1.575293	0.031088	0.271204
C115	C	0.936252	-0.967071	-0.368056
C116	C	1.269586	-0.633738	-0.034722
C117	C	1.602919	-0.300404	0.298611
C118	C	0.933262	-1.040426	-0.371078
C119	C	1.266595	-0.707093	-0.037744
C120	C	1.599929	-0.373759	0.295589
C121	C	1.019887	-1.040409	-0.284581
C122	C	1.353220	-0.707076	0.048752
C123	C	1.686554	-0.373743	0.382085
C124	C	1.022872	-0.967058	-0.281556
C125	C	1.356206	-0.633725	0.051777
C126	C	1.689539	-0.300391	0.385110
C127	C	0.981058	-0.930393	-0.323296
C128	C	1.314392	-0.597059	0.010037
C129	C	1.647725	-0.263726	0.343371
C130	C	0.944394	-0.820578	-0.359848
C131	C	1.277727	-0.487244	-0.026514
C132	C	1.611060	-0.153911	0.306819
C133	C	0.984119	-0.855417	-0.320203
C134	C	1.317453	-0.522084	0.013130
C135	C	1.650786	-0.188750	0.346464
C136	C	1.140737	-0.338366	-0.340036
C137	C	1.474071	-0.005033	-0.006703
C138	C	1.807404	0.328300	0.326631
C139	C	1.215969	-0.338372	-0.340046
C140	C	1.549302	-0.005039	-0.006712
C141	C	1.882636	0.328294	0.326621
C142	C	0.964235	-0.338308	-0.516554
C143	C	1.297568	-0.004975	-0.183221
C144	C	1.630902	0.328359	0.150113
C145	C	0.964252	-0.338289	-0.591785
C146	C	1.297585	-0.004956	-0.258452
C147	C	1.630919	0.328377	0.074881
C148	C	0.971825	-0.155159	-0.332532
C149	C	1.305159	0.178174	0.000801
C150	C	1.638492	0.511508	0.334134
C151	C	0.975077	-0.077093	-0.329345
C152	C	1.308410	0.256241	0.003989
C153	C	1.641744	0.589574	0.337322
C154	C	1.009414	-0.293369	-0.625302
C155	C	1.342748	0.039964	-0.291968
C156	C	1.676081	0.373297	0.041365
C157	C	1.009422	-0.293349	-0.695989
C158	C	1.342755	0.039985	-0.362656
C159	C	1.676089	0.373318	-0.029323
C160	C	0.964270	-0.338253	-0.733159
C161	C	1.297604	-0.004919	-0.399826
C162	C	1.630937	0.328414	-0.066493
C163	C	0.919103	-0.383175	-0.699638
C164	C	1.252436	-0.049841	-0.366305
C165	C	1.585770	0.283492	-0.032971
C166	C	0.919093	-0.383191	-0.628952
C167	C	1.252426	-0.049858	-0.295618
C168	C	1.585759	0.283476	0.037715
C169	C	0.919144	-0.383109	-0.984709
C170	C	1.252477	-0.049776	-0.651375
C171	C	1.585811	0.283557	-0.318042
C172	C	0.919159	-0.383091	-1.055400
C173	C	1.252493	-0.049758	-0.722067
C174	C	1.585826	0.283576	-0.388734
C175	C	1.009474	-0.293267	-1.051747
C176	C	1.342807	0.040066	-0.718413
C177	C	1.676140	0.373400	-0.385080
C178	C	1.009463	-0.293283	-0.981060
C179	C	1.342796	0.040050	-0.647727
C180	C	1.676130	0.373383	-0.314393
C181	C	0.964294	-0.338202	-0.947545
C182	C	1.297627	-0.004869	-0.614211
C183	C	1.630960	0.328464	-0.280878
C184	C	0.964285	-0.338223	-0.870897
C185	C	1.297618	-0.004890	-0.537564
C186	C	1.630952	0.328444	-0.204231
C187	C	0.964282	-0.338236	-0.809806
C188	C	1.297615	-0.004903	-0.476473
C189	C	1.630949	0.328431	-0.143139
C190	C	0.964197	-0.338346	-0.164157
C191	C	1.297530	-0.005012	0.169177
C192	C	1.630863	0.328321	0.502510
C193	C	0.964319	-0.338167	-0.088918
C194	C	1.297652	-0.004833	0.244416
C195	C	1.630986	0.328500	0.577749
H196	H	0.703185	-0.419953	-0.421739
H197	H	1.036518	-0.086620	-0.088405
H198	H	1.369851	0.246713	0.244928
C199	C	0.869482	-0.432486	-1.096286
C200	C	1.202815	-0.099153	-0.762953
C201	C	1.536149	0.234181	-0.429619
N202	N	0.832066	-0.469688	-1.127081
N203	N	1.165400	-0.136355	-0.793748
N204	N	1.498733	0.196979	-0.460414
H205	H	1.046232	-0.256720	-0.950800
H206	H	1.379566	0.076613	-0.617466
H207	H	1.712899	0.409946	-0.284133
C208	C	1.033405	-0.815063	-0.270968
C209	C	1.366738	-0.481730	0.062365
C210	C	1.700071	-0.148396	0.395699
N211	N	1.070524	-0.784662	-0.233881
N212	N	1.403857	-0.451329	0.099452
N213	N	1.737190	-0.117995	0.432785
H214	H	1.026308	-0.738768	-0.278008
H215	H	1.359641	-0.405435	0.055325
H216	H	1.692974	-0.072101	0.388658
H217	H	1.046199	-0.256772	-0.723275
H218	H	1.379533	0.076561	-0.389942
H219	H	1.712866	0.409895	-0.056609
C220	C	1.065882	-1.080747	-0.238673
C221	C	1.399215	-0.747414	0.094661
C222	C	1.732548	-0.414080	0.427994
N223	N	1.100528	-1.111130	-0.204094
N224	N	1.433861	-0.777796	0.129239
N225	N	1.767194	-0.444463	0.462573
H226	H	0.882310	-0.419762	-0.601663
H227	H	1.215644	-0.086429	-0.268330
H228	H	1.548977	0.246904	0.065003
H229	H	0.882337	-0.419734	-0.729907
H230	H	1.215671	-0.086400	-0.396574
H231	H	1.549004	0.246933	-0.063241
H232	H	0.225890	-0.256770	-0.258298
H233	H	0.559223	0.076563	0.075035
H234	H	0.892557	0.409897	0.408368
H235	H	1.059358	-0.937192	-0.245110
H236	H	1.392691	-0.603858	0.088224
H237	H	1.726025	-0.270525	0.421557
H238	H	0.896783	-1.070292	-0.407538
H239	H	1.230116	-0.736958	-0.074204
H240	H	1.563449	-0.403625	0.259129
C241	C	0.890290	-0.926749	-0.414006
C242	C	1.223623	-0.593415	-0.080673
C243	C	1.556956	-0.260082	0.252661
N244	N	0.855681	-0.896375	-0.448631
N245	N	1.189015	-0.563042	-0.115297
N246	N	1.522348	-0.229709	0.218036
C247	C	1.059085	-0.243970	-0.584421
C248	C	1.392419	0.089363	-0.251088
C249	C	1.725752	0.422697	0.082246
N250	N	1.096497	-0.206758	-0.553631
N251	N	1.429830	0.126575	-0.220298
N252	N	1.763163	0.459908	0.113035
H253	H	0.574951	-0.419956	-0.421754
H254	H	0.908284	-0.086622	-0.088420
H255	H	1.241617	0.246711	0.244913
C256	C	0.869454	-0.432519	-0.947851
C257	C	1.202788	-0.099186	-0.614518
C258	C	1.536121	0.234147	-0.281184
N259	N	0.832025	-0.469736	-0.920088
N260	N	1.165358	-0.136403	-0.586754
N261	N	1.498691	0.196930	-0.253421
H262	H	1.046250	-0.256689	-1.079043
H263	H	1.379584	0.076644	-0.745710
H264	H	1.712917	0.409977	-0.412376
H265	H	0.874577	-0.605726	-0.429447
H266	H	1.207910	-0.272392	-0.096113
H267	H	1.541244	0.060941	0.237220
C268	C	0.356997	-0.432820	-0.434646
C269	C	0.690330	-0.099487	-0.101313
C270	C	1.023664	0.233846	0.232021
N271	N	0.384746	-0.470085	-0.471977
N272	N	0.718079	-0.136751	-0.138643
N273	N	1.051412	0.196582	0.194690
C274	C	0.208553	-0.432829	-0.434662
C275	C	0.541886	-0.099495	-0.101329
C276	C	0.875219	0.233838	0.232005
N277	N	0.177737	-0.470096	-0.471996
N278	N	0.511070	-0.136763	-0.138662
N279	N	0.844403	0.196570	0.194671
C280	C	0.572078	-0.243899	-0.245399
C281	C	0.905411	0.089434	0.087935
C282	C	1.238745	0.422768	0.421268
N283	N	0.544324	-0.206636	-0.208071
N284	N	0.877657	0.126697	0.125262
N285	N	1.210991	0.460031	0.458596
C286	C	0.364752	-0.243907	-0.245409
C287	C	0.698086	0.089426	0.087924
C288	C	1.031419	0.422759	0.421257
N289	N	0.395560	-0.206637	-0.208072
N290	N	0.728893	0.126696	0.125262
N291	N	1.062227	0.460030	0.458595
C292	C	1.044537	-0.595221	-0.259722
C293	C	1.377870	-0.261888	0.073611
C294	C	1.711203	0.071446	0.406944
N295	N	1.081665	-0.564835	-0.222634
N296	N	1.414999	-0.231502	0.110699
N297	N	1.748332	0.101832	0.444032
C298	C	0.720524	-0.243890	-0.245380
C299	C	1.053857	0.089443	0.087953
C300	C	1.387190	0.422776	0.421286
N301	N	0.751336	-0.206621	-0.208046
N302	N	1.084669	0.126712	0.125288
N303	N	1.418002	0.460046	0.458621
C304	C	0.856343	-0.749284	-0.447722
C305	C	1.189677	-0.415950	-0.114389
C306	C	1.523010	-0.082617	0.218944
N307	N	0.819214	-0.779678	-0.484803
N308	N	1.152547	-0.446345	-0.151470
N309	N	1.485880	-0.113011	0.181863
H310	H	0.907910	-0.850454	-0.396289
H311	H	1.241243	-0.517120	-0.062956
H312	H	1.574577	-0.183787	0.270377
