data_functionalizedCrystal
_audit_creation_method	'MofGen! by Chris Wilmer'
_symmetry_space_group_name_H-M	'P1'
_symmetry_Int_Tables_number	1
_symmetry_cell_setting	triclinic
loop_
_symmetry_equiv_pos_as_xyz
  x,y,z
_cell_length_a	8.559649
_cell_length_b	17.699083
_cell_length_c	16.176319
_cell_angle_alpha	90.001389
_cell_angle_beta	89.994559
_cell_angle_gamma	103.469160
loop_
_atom_site_label
_atom_site_type_symbol
_atom_site_fract_x
_atom_site_fract_y
_atom_site_fract_z
O1	O	0.202110	-0.992507	-0.068628
O2	O	0.228405	-0.770623	-0.068655
O3	O	-0.017421	-0.901113	-0.068638
O4	O	0.447935	-0.862017	-0.068645
O5	O	-0.017436	-0.901098	0.068855
O6	O	0.228389	-0.770608	0.068838
O7	O	0.202094	-0.992492	0.068865
Cu8	Cu	0.215240	-0.881549	0.081406
Cu9	Cu	0.215259	-0.881566	-0.081196
O10	O	0.447920	-0.862002	0.068849
C11	C	0.227455	-0.742473	0.000088
C12	C	0.224628	-0.658616	0.000078
C13	C	-0.076970	-0.904069	0.000107
C14	C	-0.254384	-0.912888	0.000104
C15	C	0.203044	-1.020643	0.000120
C16	C	0.205871	-1.104499	0.000125
C17	C	0.507469	-0.859047	0.000101
C18	C	0.684883	-0.850227	0.000099
N19	N	0.215226	-0.881542	0.195771
C20	C	0.368922	-0.601734	0.000076
C21	C	0.366257	-0.522943	0.000087
C22	C	0.219296	-0.501037	0.000094
C23	C	0.074990	-0.557926	0.000098
C24	C	0.077657	-0.636715	0.000093
C25	C	0.064231	-0.240179	0.000118
C26	C	0.061575	-0.161383	0.000121
C27	C	0.352831	-0.126407	0.000112
C28	C	0.355498	-0.205196	0.000108
C29	C	0.211193	-0.262078	0.000116
C30	C	0.214085	-0.347512	0.000106
C31	C	0.216402	-0.415605	0.000098
N32	N	0.215260	-0.881580	-0.195561
C33	C	0.106419	-0.939336	0.239043
C34	C	0.106417	-0.939340	0.325590
C35	C	0.215232	-0.881552	0.368864
C36	C	0.324044	-0.823752	0.325586
C37	C	0.324037	-0.823746	0.239041
C38	C	0.324074	-0.823776	0.674614
C39	C	0.324076	-0.823789	0.761166
C40	C	0.106455	-0.939370	0.761164
C41	C	0.106447	-0.939364	0.674618
C42	C	0.215253	-0.881562	0.631348
C43	C	0.215252	-0.881558	0.537504
C44	C	0.215242	-0.881559	0.462706
H45	H	-0.338124	-0.973285	0.000118
H46	H	0.412637	-0.776697	0.360825
O47	O	0.511823	-0.622876	0.000106
C48	C	0.638607	-0.555771	0.000087
H49	H	0.594007	-0.504737	0.026122
H50	H	0.683110	-0.542010	-0.065876
C51	C	0.832012	-0.632677	0.022026
C52	C	0.777236	-0.569997	0.054009
H53	H	0.917529	-0.641452	0.055284
H54	H	0.746597	-0.677887	0.022036
H55	H	0.869086	-0.621201	-0.032942
H56	H	0.740145	-0.581478	0.108972
H57	H	0.862649	-0.524789	0.054010
H58	H	-0.053271	-0.286484	0.000126
H59	H	0.412636	-0.776683	0.203810
H60	H	-0.231386	-0.789834	0.000095
H61	H	0.483756	-0.476631	0.000085
H62	H	0.475168	-0.223027	0.000099
O63	O	-0.081332	-0.140236	0.000169
C64	C	-0.208129	-0.207337	0.000157
H65	H	-0.163543	-0.258375	0.026183
H66	H	-0.252630	-0.221094	-0.065803
C67	C	-0.401511	-0.130418	0.022120
C68	C	-0.346753	-0.193103	0.054093
H69	H	-0.487025	-0.121638	0.055386
H70	H	-0.316087	-0.085211	0.022125
H71	H	-0.438584	-0.141891	-0.032846
H72	H	-0.309663	-0.181626	0.109053
H73	H	-0.432174	-0.238308	0.054098
H74	H	0.470330	-0.080083	0.000110
O75	O	0.000561	-0.995509	0.197138
C76	C	-0.095449	-1.046530	0.253894
H77	H	-0.097164	-1.015604	0.315590
H78	H	-0.043703	-1.099743	0.263088
C79	C	-0.265801	-1.110138	0.144354
C80	C	-0.267919	-1.072153	0.220128
H81	H	-0.372188	-1.125947	0.123525
H82	H	-0.201115	-1.075767	0.106115
H83	H	-0.222672	-1.154478	0.152026
H84	H	-0.311029	-1.027809	0.212453
H85	H	-0.332617	-1.106518	0.258365
O86	O	0.000568	-0.995391	0.367656
C87	C	-0.097916	-0.960601	0.417744
H88	H	-0.100469	-0.901060	0.391675
H89	H	-0.047894	-0.953733	0.483335
C90	C	-0.266484	-1.085432	0.451088
C91	C	-0.269630	-1.012307	0.419066
H92	H	-0.372404	-1.117328	0.451907
H93	H	-0.200131	-1.108872	0.417346
H94	H	-0.224791	-1.079698	0.505744
H95	H	-0.311303	-1.018041	0.364407
H96	H	-0.335995	-0.988869	0.452799
O97	O	0.000522	-0.995494	0.803108
C98	C	-0.157657	-0.992375	0.781984
H99	H	-0.157379	-0.963184	0.719148
H100	H	-0.206981	-0.957573	0.830698
C101	C	-0.264528	-1.111267	0.855160
C102	C	-0.264190	-1.075419	0.777981
H103	H	-0.330247	-1.162491	0.852694
H104	H	-0.157961	-1.113367	0.869395
H105	H	-0.305628	-1.082257	0.895747
H106	H	-0.223072	-1.104424	0.737398
H107	H	-0.370753	-1.073326	0.763739
H108	H	-0.044668	-0.540084	0.000115
O109	O	0.429835	-0.767570	0.803076
C110	C	0.525892	-0.716560	0.746327
H111	H	0.460368	-0.719510	0.684638
H112	H	0.644564	-0.734223	0.737112
C113	C	0.639504	-0.629369	0.855887
C114	C	0.559019	-0.632988	0.780121
H115	H	0.659946	-0.577819	0.876733
H116	H	0.574793	-0.663737	0.894120
H117	H	0.738388	-0.644093	0.848197
H118	H	0.460129	-0.618274	0.787814
H119	H	0.623715	-0.598616	0.741890
H120	H	-0.039842	-0.683029	0.000094
H121	H	0.017846	-0.986422	0.639387
O122	O	0.429853	-0.767737	0.632503
C123	C	0.528371	-0.802538	0.582449
H124	H	0.464545	-0.865465	0.569470
H125	H	0.646467	-0.800827	0.615802
C126	C	0.641068	-0.680572	0.516189
C127	C	0.562670	-0.757859	0.500243
H128	H	0.662232	-0.653010	0.465482
H129	H	0.574700	-0.657124	0.549914
H130	H	0.739472	-0.679156	0.543986
H131	H	0.464259	-0.759273	0.472456
H132	H	0.629022	-0.781305	0.466512
