data_functionalizedCrystal
_audit_creation_method	'MofGen! by Chris Wilmer'
_symmetry_space_group_name_H-M	'P1'
_symmetry_Int_Tables_number	1
_symmetry_cell_setting	triclinic
loop_
_symmetry_equiv_pos_as_xyz
  x,y,z
_cell_length_a	9.065218
_cell_length_b	15.072220
_cell_length_c	9.065218
_cell_angle_alpha	89.992461
_cell_angle_beta	94.984115
_cell_angle_gamma	90.003958
loop_
_atom_site_label
_atom_site_type_symbol
_atom_site_fract_x
_atom_site_fract_y
_atom_site_fract_z
O1	O	1.960399	0.073781	-0.216367
O2	O	1.531115	0.073782	-0.234113
O3	O	1.754630	0.073779	-0.010598
O4	O	1.736884	0.073783	-0.439883
O5	O	1.754615	-0.073786	-0.010570
O6	O	1.531099	-0.073783	-0.234086
O7	O	1.960384	-0.073784	-0.216339
Zn8	Zn	1.745739	-0.097213	-0.225208
Zn9	Zn	1.745759	0.097210	-0.225245
O10	O	1.736868	-0.073782	-0.439855
C11	C	1.476120	-0.000001	-0.232394
C12	C	1.312277	-0.000000	-0.227294
N13	N	1.745736	-0.229902	-0.225183
C14	C	1.745760	-0.589103	-0.225233
C15	C	1.865758	-0.551470	-0.106044
C16	C	1.865435	-0.448644	-0.105594
C17	C	1.745750	-0.410899	-0.225208
C18	C	1.591354	-0.448242	-0.189526
C19	C	1.592062	-0.551100	-0.188682
C20	C	1.778777	-0.551179	-0.380442
C21	C	1.782257	-0.448314	-0.379451
C22	C	1.745734	-0.310186	-0.225197
C23	C	1.745766	-0.689817	-0.225241
C24	C	2.015378	0.000000	-0.218059
C25	C	2.179221	0.000005	-0.223158
C26	C	1.752917	-0.000002	0.044403
C27	C	1.747817	0.000003	0.208245
N28	N	1.745774	0.229899	-0.225259
C29	C	1.738582	0.000001	-0.494855
C30	C	1.743681	0.000003	-0.658698
H31	H	1.980840	-0.576199	-0.127278
N32	N	1.839380	-0.583905	0.037571
N33	N	1.732589	-0.634617	0.052524
H34	H	1.713950	-0.657523	0.153953
N35	N	1.838849	-0.417794	0.038891
N36	N	1.820460	-0.472229	0.139707
H37	H	1.801736	-0.450443	0.241771
H38	H	1.563277	-0.575101	-0.075426
H39	H	1.499980	-0.575996	-0.272085
N40	N	1.476502	-0.417589	-0.295406
N41	N	1.399904	-0.472098	-0.372596
H42	H	1.318790	-0.450450	-0.447377
H43	H	1.895848	-0.423908	-0.406480
N44	N	1.679883	-0.416088	-0.496106
N45	N	1.544761	-0.432225	-0.494684
H46	H	1.472441	-0.409466	-0.577064
N47	N	1.554405	-0.415967	-0.049039
N48	N	1.435001	-0.438267	-0.000341
H49	H	1.408912	-0.415477	0.098884
H50	H	1.691297	-0.575521	-0.469164
N51	N	2.009293	-0.416977	-0.132776
N52	N	2.110638	-0.470842	-0.152204
H53	H	2.212233	-0.448482	-0.171449
N54	N	1.917131	-0.583722	-0.422818
N55	N	1.993087	-0.635269	-0.339129
H56	H	2.090805	-0.658256	-0.369043
