data_functionalizedCrystal
_audit_creation_method	'MofGen! by Chris Wilmer'
_symmetry_space_group_name_H-M	'P1'
_symmetry_Int_Tables_number	1
_symmetry_cell_setting	triclinic
loop_
_symmetry_equiv_pos_as_xyz
  x,y,z
_cell_length_a	18.215407
_cell_length_b	16.625546
_cell_length_c	18.215407
_cell_angle_alpha	90.013442
_cell_angle_beta	90.010236
_cell_angle_gamma	90.022916
loop_
_atom_site_label
_atom_site_type_symbol
_atom_site_fract_x
_atom_site_fract_y
_atom_site_fract_z
Zn1	Zn	1.125015	-0.321125	0.416109
Zn2	Zn	1.375015	-0.071125	0.666109
Zn3	Zn	1.625015	0.178875	0.916109
Zn4	Zn	1.875015	0.428875	1.166109
Zn5	Zn	1.124949	-0.455929	0.293040
Zn6	Zn	1.374949	-0.205929	0.543040
Zn7	Zn	1.624949	0.044071	0.793040
Zn8	Zn	1.874949	0.294071	1.043040
Zn9	Zn	1.001968	-0.321115	0.293057
Zn10	Zn	1.251968	-0.071115	0.543057
Zn11	Zn	1.501968	0.178885	0.793057
Zn12	Zn	1.751968	0.428885	1.043057
Zn13	Zn	1.001918	-0.455921	0.416065
Zn14	Zn	1.251918	-0.205921	0.666065
Zn15	Zn	1.501918	0.044079	0.916065
Zn16	Zn	1.751918	0.294079	1.166065
O17	O	1.063462	-0.388522	0.354568
O18	O	1.313462	-0.138522	0.604568
O19	O	1.563462	0.111478	0.854568
O20	O	1.813462	0.361478	1.104568
O21	O	1.227990	-0.339015	0.399796
O22	O	1.477990	-0.089015	0.649796
O23	O	1.727990	0.160985	0.899796
O24	O	1.977990	0.410985	1.149796
O25	O	1.108628	-0.438044	0.190058
O26	O	1.358628	-0.188044	0.440058
O27	O	1.608628	0.061956	0.690058
O28	O	1.858628	0.311956	0.940058
O29	O	1.018338	-0.208284	0.309405
O30	O	1.268338	0.041716	0.559405
O31	O	1.518338	0.291716	0.809405
O32	O	1.768338	0.541716	1.059405
O33	O	1.227942	-0.438055	0.309377
O34	O	1.477942	-0.188055	0.559377
O35	O	1.727942	0.061945	0.809377
O36	O	1.977942	0.311945	1.059377
O37	O	1.108740	-0.208292	0.399811
O38	O	1.358740	0.041708	0.649811
O39	O	1.608740	0.291708	0.899811
O40	O	1.858740	0.541708	1.149811
O41	O	1.018275	-0.338997	0.190070
O42	O	1.268275	-0.088997	0.440070
O43	O	1.518275	0.161003	0.690070
O44	O	1.768275	0.411003	0.940070
O45	O	0.898977	-0.338989	0.309363
O46	O	1.148977	-0.088989	0.559363
O47	O	1.398977	0.161011	0.809363
O48	O	1.648977	0.411011	1.059363
O49	O	1.018254	-0.438041	0.519055
O50	O	1.268254	-0.188041	0.769055
O51	O	1.518254	0.061959	1.019055
O52	O	1.768254	0.311959	1.269055
O53	O	0.898941	-0.438031	0.399736
O54	O	1.148941	-0.188031	0.649736
O55	O	1.398941	0.061969	0.899736
O56	O	1.648941	0.311969	1.149736
O57	O	1.108692	-0.339008	0.519088
O58	O	1.358692	-0.089008	0.769088
O59	O	1.608692	0.160992	1.019088
O60	O	1.858692	0.410992	1.269088
O61	O	1.108580	-0.568760	0.309335
O62	O	1.358580	-0.318760	0.559335
O63	O	1.608580	-0.068760	0.809335
O64	O	1.858580	0.181240	1.059335
O65	O	1.018190	-0.568754	0.399721
O66	O	1.268190	-0.318754	0.649721
O67	O	1.518190	-0.068754	0.899721
O68	O	1.768190	0.181246	1.149721
C69	C	0.872256	-0.388509	0.354547
C70	C	1.122256	-0.138509	0.604547
C71	C	1.372256	0.111491	0.854547
C72	C	1.622256	0.361491	1.104547
C73	C	0.790457	-0.388522	0.354555
C74	C	1.040457	-0.138522	0.604555
C75	C	1.290457	0.111478	0.854555
C76	C	1.540457	0.361478	1.104555
C77	C	0.602264	-0.440174	0.401554
C78	C	0.852264	-0.190174	0.651554
C79	C	1.102264	0.059826	0.901554
C80	C	1.352264	0.309826	1.151554
C81	C	0.525405	-0.440177	0.401563
C82	C	0.775405	-0.190177	0.651563
C83	C	1.025405	0.059823	0.901563
C84	C	1.275405	0.309823	1.151563
C85	C	0.525413	-0.336885	0.307598
C86	C	0.775413	-0.086885	0.557598
C87	C	1.025413	0.163115	0.807598
C88	C	1.275413	0.413115	1.057598
C89	C	0.602270	-0.336879	0.307593
C90	C	0.852270	-0.086879	0.557593
C91	C	1.102270	0.163121	0.807593
C92	C	1.352270	0.413121	1.057593
C93	C	0.640694	-0.388528	0.354570
C94	C	0.890694	-0.138528	0.604570
C95	C	1.140694	0.111472	0.854570
C96	C	1.390694	0.361472	1.104570
C97	C	0.486978	-0.388537	0.354584
C98	C	0.736978	-0.138537	0.604584
C99	C	0.986978	0.111463	0.854584
C100	C	1.236978	0.361463	1.104584
C101	C	0.403644	-0.388539	0.354594
C102	C	0.653644	-0.138539	0.604594
C103	C	0.903644	0.111461	0.854594
C104	C	1.153644	0.361461	1.104594
C105	C	0.724033	-0.388525	0.354562
C106	C	0.974033	-0.138525	0.604562
C107	C	1.224033	0.111475	0.854562
C108	C	1.474033	0.361475	1.104562
C109	C	1.063393	-0.598013	0.354537
C110	C	1.313393	-0.348013	0.604537
C111	C	1.563393	-0.098013	0.854537
C112	C	1.813393	0.151987	1.104537
C113	C	1.063430	-0.687634	0.354549
C114	C	1.313430	-0.437634	0.604549
C115	C	1.563430	-0.187634	0.854549
C116	C	1.813430	0.062366	1.104549
C117	C	1.063559	-1.015810	0.354625
C118	C	1.313559	-0.765810	0.604625
C119	C	1.563559	-0.515810	0.854625
C120	C	1.813559	-0.265810	1.104625
C121	C	1.063521	-0.924502	0.354606
C122	C	1.313521	-0.674502	0.604606
C123	C	1.563521	-0.424502	0.854606
C124	C	1.813521	-0.174502	1.104606
C125	C	1.063494	-0.851725	0.354587
C126	C	1.313494	-0.601725	0.604587
C127	C	1.563494	-0.351725	0.854587
C128	C	1.813494	-0.101725	1.104587
C129	C	1.063457	-0.760411	0.354568
C130	C	1.313457	-0.510411	0.604568
C131	C	1.563457	-0.260411	0.854568
C132	C	1.813457	-0.010411	1.104568
C133	C	1.255415	-0.388537	0.354590
C134	C	1.505415	-0.138537	0.604590
C135	C	1.755415	0.111463	0.854590
C136	C	2.005415	0.361463	1.104590
C137	C	1.337214	-0.388543	0.354599
C138	C	1.587214	-0.138543	0.604599
C139	C	1.837214	0.111457	0.854599
C140	C	2.087214	0.361457	1.104599
C141	C	1.063475	-0.388525	0.546521
C142	C	1.313475	-0.138525	0.796521
C143	C	1.563475	0.111475	1.046521
C144	C	1.813475	0.361475	1.296521
C145	C	1.063480	-0.388526	0.628320
C146	C	1.313480	-0.138526	0.878320
C147	C	1.563480	0.111474	1.128320
C148	C	1.813480	0.361474	1.378320
C149	C	1.063552	-0.178214	0.354615
C150	C	1.313552	0.071786	0.604615
C151	C	1.563552	0.321786	0.854615
C152	C	1.813552	0.571786	1.104615
C153	C	1.063591	-0.088592	0.354635
C154	C	1.313591	0.161408	0.604635
C155	C	1.563591	0.411408	0.854635
C156	C	1.813591	0.661408	1.104635
C157	C	1.110557	-0.336967	0.816532
C158	C	1.360557	-0.086967	1.066532
C159	C	1.610557	0.163033	1.316532
C160	C	1.860557	0.413033	1.566532
C161	C	1.110553	-0.336967	0.893390
C162	C	1.360553	-0.086967	1.143390
C163	C	1.610553	0.163033	1.393390
C164	C	1.860553	0.413033	1.643390
C165	C	1.016380	-0.440096	0.893346
C166	C	1.266380	-0.190096	1.143346
C167	C	1.516380	0.059904	1.393346
C168	C	1.766380	0.309904	1.643346
C169	C	1.016381	-0.440091	0.816488
C170	C	1.266381	-0.190091	1.066488
C171	C	1.516381	0.059909	1.316488
C172	C	1.766381	0.309909	1.566488
C173	C	1.063474	-0.388528	0.778083
C174	C	1.313474	-0.138528	1.028083
C175	C	1.563474	0.111472	1.278083
C176	C	1.813474	0.361472	1.528083
C177	C	1.063469	-0.388532	0.931799
C178	C	1.313469	-0.138532	1.181799
C179	C	1.563469	0.111468	1.431799
C180	C	1.813469	0.361468	1.681799
C181	C	1.063464	-0.388532	1.015133
C182	C	1.313464	-0.138532	1.265133
C183	C	1.563464	0.111468	1.515133
C184	C	1.813464	0.361468	1.765133
C185	C	1.063478	-0.388527	0.694744
C186	C	1.313478	-0.138527	0.944744
C187	C	1.563478	0.111473	1.194744
C188	C	1.813478	0.361473	1.444744
C189	C	1.063450	-0.388538	1.163362
C190	C	1.313450	-0.138538	1.413362
C191	C	1.563450	0.111462	1.663362
C192	C	1.813450	0.361462	1.913362
C193	C	1.063462	-0.388535	1.081563
C194	C	1.313462	-0.138535	1.331563
C195	C	1.563462	0.111465	1.581563
C196	C	1.813462	0.361465	1.831563
H197	H	0.633545	-0.482228	0.439807
H198	H	0.883545	-0.232228	0.689807
H199	H	1.133545	0.017772	0.939807
H200	H	1.383545	0.267772	1.189807
N201	N	0.483964	-0.281199	0.256921
N202	N	0.733964	-0.031199	0.506921
N203	N	0.983964	0.218801	0.756921
N204	N	1.233964	0.468801	1.006921
H205	H	0.497349	-0.223602	0.268435
H206	H	0.747349	0.026398	0.518435
H207	H	0.997349	0.276398	0.768435
H208	H	1.247349	0.526398	1.018435
H209	H	0.429458	-0.289118	0.264078
H210	H	0.679458	-0.039118	0.514078
H211	H	0.929458	0.210882	0.764078
H212	H	1.179458	0.460882	1.014078
N213	N	1.161327	-0.281346	0.934861
N214	N	1.411327	-0.031346	1.184861
N215	N	1.661327	0.218654	1.434861
N216	N	1.911327	0.468654	1.684861
H217	H	1.191156	-0.248680	0.898867
H218	H	1.441156	0.001320	1.148867
H219	H	1.691156	0.251320	1.398867
H220	H	1.941156	0.501320	1.648867
H221	H	1.195372	-0.314162	0.966753
H222	H	1.445372	-0.064162	1.216753
H223	H	1.695372	0.185838	1.466753
H224	H	1.945372	0.435838	1.716753
N225	N	0.483954	-0.495883	0.452235
N226	N	0.733954	-0.245883	0.702235
N227	N	0.983954	0.004117	0.952235
N228	N	1.233954	0.254117	1.202235
H229	H	0.519960	-0.528601	0.481990
H230	H	0.769960	-0.278601	0.731990
H231	H	1.019960	-0.028601	0.981990
H232	H	1.269960	0.221399	1.231990
H233	H	0.452048	-0.533146	0.422216
H234	H	0.702048	-0.283146	0.672216
H235	H	0.952048	-0.033146	0.922216
H236	H	1.202048	0.216854	1.172216
N237	N	1.161351	-0.281358	0.775110
N238	N	1.411351	-0.031358	1.025110
N239	N	1.661351	0.218642	1.275110
N240	N	1.911351	0.468642	1.525110
H241	H	1.154214	-0.289182	0.720587
H242	H	1.404214	-0.039182	0.970587
H243	H	1.654214	0.210818	1.220587
H244	H	1.904214	0.460818	1.470587
H245	H	1.213901	-0.293921	0.788559
H246	H	1.463901	-0.043921	1.038559
H247	H	1.713901	0.206079	1.288559
H248	H	1.963901	0.456079	1.538559
H249	H	0.978034	-0.482078	0.785183
H250	H	1.228034	-0.232078	1.035183
H251	H	1.478034	0.017922	1.285183
H252	H	1.728034	0.267922	1.535183
N253	N	0.643727	-0.281163	0.256925
N254	N	0.893727	-0.031163	0.506925
N255	N	1.143727	0.218837	0.756925
N256	N	1.393727	0.468837	1.006925
H257	H	0.607725	-0.248446	0.227165
H258	H	0.857725	0.001554	0.477165
H259	H	1.107725	0.251554	0.727165
H260	H	1.357725	0.501554	0.977165
H261	H	0.675603	-0.313917	0.222812
H262	H	0.925603	-0.063917	0.472812
H263	H	1.175603	0.186083	0.722812
H264	H	1.425603	0.436083	0.972812
N265	N	0.965578	-0.495696	0.934768
N266	N	1.215578	-0.245696	1.184768
N267	N	1.465578	0.004304	1.434768
N268	N	1.715578	0.254304	1.684768
H269	H	0.972718	-0.487873	0.989291
H270	H	1.222718	-0.237873	1.239291
H271	H	1.472718	0.012127	1.489291
H272	H	1.722718	0.262127	1.739291
H273	H	0.976997	-0.553286	0.921327
H274	H	1.226997	-0.303286	1.171327
H275	H	1.476997	-0.053286	1.421327
H276	H	1.726997	0.196714	1.671327
