data_functionalizedCrystal
_audit_creation_method	'MofGen! by Chris Wilmer'
_symmetry_space_group_name_H-M	'P1'
_symmetry_Int_Tables_number	1
_symmetry_cell_setting	triclinic
loop_
_symmetry_equiv_pos_as_xyz
  x,y,z
_cell_length_a	19.288864
_cell_length_b	15.944551
_cell_length_c	17.766277
_cell_angle_alpha	89.992686
_cell_angle_beta	89.976791
_cell_angle_gamma	83.317492
loop_
_atom_site_label
_atom_site_type_symbol
_atom_site_fract_x
_atom_site_fract_y
_atom_site_fract_z
O1	O	0.921629	0.104784	-0.062837
O2	O	1.421629	0.604784	0.437163
O3	O	0.719406	0.118919	-0.062786
O4	O	1.219406	0.618919	0.437214
O5	O	0.826040	-0.010445	-0.062806
O6	O	1.326040	0.489555	0.437194
O7	O	0.814995	0.234147	-0.062817
O8	O	1.314995	0.734147	0.437183
O9	O	0.826021	-0.010451	0.062382
O10	O	1.326021	0.489549	0.562382
O11	O	0.719387	0.118912	0.062403
O12	O	1.219387	0.618912	0.562403
O13	O	0.921610	0.104777	0.062351
O14	O	1.421610	0.604777	0.562351
Cu15	Cu	0.820497	0.111844	0.073808
Cu16	Cu	1.320497	0.611844	0.573808
Cu17	Cu	0.820519	0.111852	-0.074242
Cu18	Cu	1.320519	0.611852	0.425758
O19	O	0.814976	0.234141	0.062372
O20	O	1.314976	0.734141	0.562372
C21	C	0.693519	0.118461	-0.000185
C22	C	1.193519	0.618461	0.499815
C23	C	0.616411	0.117095	-0.000165
C24	C	1.116411	0.617095	0.499835
C25	C	0.571915	0.193000	-0.000181
C26	C	1.071915	0.693000	0.499819
C27	C	0.499465	0.191717	-0.000189
C28	C	0.999465	0.691717	0.499811
C29	C	0.471514	0.114526	-0.000197
C30	C	0.971514	0.614526	0.499803
C31	C	0.516020	0.038611	-0.000178
C32	C	1.016020	0.538611	0.499822
C33	C	0.588469	0.039896	-0.000162
C34	C	1.088469	0.539896	0.499838
C35	C	0.363099	0.053847	-0.044079
C36	C	0.863099	0.553847	0.455921
C37	C	0.290651	0.052565	-0.044099
C38	C	0.790651	0.552565	0.455901
C39	C	0.248058	0.110560	-0.000242
C40	C	0.748058	0.610560	0.499758
C41	C	0.277920	0.169850	0.043625
C42	C	0.777920	0.669850	0.543625
C43	C	0.350369	0.171135	0.043641
C44	C	0.850369	0.671135	0.543641
C45	C	0.392956	0.113124	-0.000214
C46	C	0.892956	0.613124	0.499786
C47	C	0.125002	0.185079	-0.000265
C48	C	0.625002	0.685079	0.499735
C49	C	0.052550	0.183793	-0.000269
C50	C	0.552550	0.683793	0.499731
C51	C	0.069107	0.030684	-0.000265
C52	C	0.569107	0.530684	0.499735
C53	C	0.141557	0.031972	-0.000254
C54	C	0.641557	0.531972	0.499746
C55	C	0.169500	0.109172	-0.000258
C56	C	0.669500	0.609172	0.499742
C57	C	0.825572	-0.041740	-0.000212
C58	C	1.325572	0.458260	0.499788
C59	C	0.824197	-0.134981	-0.000211
C60	C	1.324197	0.365019	0.499789
C61	C	0.754815	-0.349571	-0.000204
C62	C	1.254815	0.150429	0.499796
C63	C	0.787024	-0.410715	0.061514
C64	C	1.287024	0.089285	0.561514
C65	C	0.821710	-0.305697	-0.000216
C66	C	1.321710	0.194303	0.499784
C67	C	0.787059	-0.410692	-0.061912
C68	C	1.287059	0.089308	0.438088
C69	C	0.819303	-0.470601	-0.000224
C70	C	1.319303	0.029399	0.499776
C71	C	0.853938	-0.365614	0.061552
C72	C	1.353938	0.134386	0.561552
C73	C	0.853963	-0.365585	-0.061929
C74	C	1.353963	0.134415	0.438071
C75	C	0.886222	-0.426712	-0.000197
C76	C	1.386222	0.073288	0.499803
C77	C	0.823095	-0.210700	-0.000211
C78	C	1.323095	0.289300	0.499789
C79	C	0.817924	-0.565597	-0.000224
C80	C	1.317924	-0.065597	0.499776
C81	C	0.947497	0.105235	-0.000251
C82	C	1.447497	0.605235	0.499749
C83	C	1.024605	0.106600	-0.000276
C84	C	1.524605	0.606600	0.499724
C85	C	0.815444	0.265436	-0.000225
C86	C	1.315444	0.765436	0.499775
C87	C	0.816819	0.358677	-0.000230
C88	C	1.316819	0.858677	0.499770
N89	N	0.820486	0.111838	0.177938
N90	N	1.320486	0.611838	0.677938
N91	N	0.820535	0.111851	-0.178373
N92	N	1.320535	0.611851	0.321627
C93	C	0.867719	0.054584	0.217316
C94	C	1.367719	0.554584	0.717316
C95	C	0.867723	0.054580	0.296118
C96	C	1.367723	0.554580	0.796118
C97	C	0.820501	0.111845	0.335539
C98	C	1.320501	0.611845	0.835539
C99	C	0.773259	0.169103	0.296151
C100	C	1.273259	0.669103	0.796151
C101	C	0.773252	0.169100	0.217351
C102	C	1.273252	0.669100	0.717351
C103	C	0.811404	0.188378	0.460375
C104	C	1.311404	0.688378	0.960375
C105	C	0.811416	0.188382	0.539173
C106	C	1.311416	0.688382	1.039173
C107	C	0.820520	0.111855	0.578585
C108	C	1.320520	0.611855	1.078585
C109	C	0.829626	0.035319	0.539188
C110	C	1.329626	0.535319	1.039188
C111	C	0.829618	0.035316	0.460387
C112	C	1.329618	0.535316	0.960387
C113	C	0.820503	0.111854	0.420984
C114	C	1.320503	0.611854	0.920984
C115	C	0.867759	0.054592	0.703409
C116	C	1.367759	0.554592	1.203409
C117	C	0.867759	0.054587	0.782212
C118	C	1.367759	0.554587	1.282212
C119	C	0.773298	0.169117	0.782244
C120	C	1.273298	0.669117	1.282244
C121	C	0.773295	0.169115	0.703442
C122	C	1.273295	0.669115	1.203442
C123	C	0.820530	0.111853	0.664029
C124	C	1.320530	0.611853	1.164029
H125	H	0.016321	0.245606	-0.000277
H126	H	0.516321	0.745606	0.499723
H127	H	0.882241	-0.345560	-0.114123
H128	H	1.382241	0.154440	0.385877
N129	N	0.749576	-0.437149	-0.131024
N130	N	1.249576	0.062851	0.368976
H131	H	0.774346	-0.419926	-0.177651
H132	H	1.274346	0.080074	0.322349
H133	H	0.749324	-0.500454	-0.130702
H134	H	1.249324	-0.000454	0.369298
N135	N	0.918660	-0.007177	0.174806
N136	N	1.418660	0.492823	0.674806
H137	H	0.948582	-0.043449	0.211715
H138	H	1.448582	0.456551	0.711715
H139	H	0.892068	-0.044233	0.142134
H140	H	1.392068	0.455767	0.642134
H141	H	0.463229	0.253530	-0.000199
H142	H	0.963229	0.753530	0.499801
H143	H	0.758722	-0.430717	0.113705
H144	H	1.258722	0.069283	0.613705
N145	N	0.382578	0.235067	0.090965
N146	N	0.882578	0.735067	0.590965
H147	H	0.434936	0.227076	0.084319
H148	H	0.934936	0.727076	0.584319
H149	H	0.363541	0.293918	0.074569
H150	H	0.863541	0.793918	0.574569
N151	N	0.231992	0.232412	0.090928
N152	N	0.731992	0.732412	0.590928
H153	H	0.181564	0.222602	0.084266
H154	H	0.681564	0.722602	0.584266
H155	H	0.245477	0.224783	0.145637
H156	H	0.745477	0.724783	0.645637
N157	N	0.959834	-0.470923	-0.000177
N158	N	1.459834	0.029077	0.499823
H159	H	0.984997	-0.454549	0.046459
H160	H	1.484997	0.045451	0.546459
H161	H	0.958452	-0.534046	-0.000648
H162	H	1.458452	-0.034046	0.499352
H163	H	0.734846	0.215740	0.814340
H164	H	1.234846	0.715740	1.314340
H165	H	0.906219	0.007963	0.671318
H166	H	1.406219	0.507963	1.171318
N167	N	0.801589	0.270926	0.581663
N168	N	1.301589	0.770926	1.081663
H169	H	0.840189	0.305837	0.567921
H170	H	1.340189	0.805837	1.067921
H171	H	0.754994	0.302859	0.567950
H172	H	1.254994	0.802859	1.067950
H173	H	0.906219	0.007959	0.814274
H174	H	1.406219	0.507959	1.314274
N175	N	0.485882	-0.044650	-0.000191
N176	N	0.985882	0.455350	0.499809
H177	H	0.502083	-0.077893	0.046221
H178	H	1.002083	0.422107	0.546221
H179	H	0.433239	-0.033881	-0.000235
H180	H	0.933239	0.466119	0.499765
H181	H	0.803978	0.250700	0.428292
H182	H	1.303978	0.750700	0.928292
N183	N	0.189549	-0.049902	-0.000241
N184	N	0.689549	0.450098	0.499759
H185	H	0.180585	-0.083590	-0.046649
H186	H	0.680585	0.416410	0.453351
H187	H	0.239667	-0.037310	-0.000200
H188	H	0.739667	0.462690	0.499800
N189	N	0.155147	0.268338	-0.000266
N190	N	0.655147	0.768338	0.499734
H191	H	0.115962	0.316231	-0.000270
H192	H	0.615962	0.816231	0.499730
H193	H	0.184823	0.272202	0.046148
H194	H	0.684823	0.772202	0.546148
N195	N	0.409031	-0.008711	-0.091386
N196	N	0.909031	0.491289	0.408614
H197	H	0.435777	0.022673	-0.128885
H198	H	0.935777	0.522673	0.371115
H199	H	0.442930	-0.044241	-0.057731
H200	H	0.942930	0.455759	0.442269
N201	N	0.918677	-0.007173	0.338595
N202	N	1.418677	0.492827	0.838595
H203	H	0.949427	0.024841	0.371265
H204	H	1.449427	0.524841	0.871265
H205	H	0.892095	-0.044272	0.371268
H206	H	1.392095	0.455728	0.871268
H207	H	0.734837	0.215740	0.671378
H208	H	1.234837	0.715740	1.171378
N209	N	0.839437	-0.047224	0.417893
N210	N	1.339437	0.452776	0.917893
H211	H	0.845206	-0.095708	0.454812
H212	H	1.345206	0.404292	0.954812
H213	H	0.797239	-0.051998	0.385223
H214	H	1.297239	0.448002	0.885223
N215	N	0.681268	-0.305160	-0.000110
N216	N	1.181268	0.194840	0.499890
H217	H	0.655735	-0.322239	-0.046244
H218	H	1.155735	0.177761	0.453756
H219	H	0.656140	-0.321460	0.046597
H220	H	1.156140	0.178540	0.546597
H221	H	0.882201	-0.345735	0.113786
H222	H	1.382201	0.154265	0.613786
N223	N	0.839449	-0.047229	0.581683
N224	N	1.339449	0.452771	1.081683
H225	H	0.838069	-0.035617	0.637580
H226	H	1.338069	0.464383	1.137580
H227	H	0.800834	-0.082093	0.567932
H228	H	1.300834	0.417907	1.067932
H229	H	0.734809	0.215728	0.328251
H230	H	1.234809	0.715728	0.828251
N231	N	0.722304	0.230852	0.174873
N232	N	1.222304	0.730852	0.674873
H233	H	0.692385	0.267128	0.211800
H234	H	1.192385	0.767128	0.711800
H235	H	0.748889	0.267906	0.142159
H236	H	1.248889	0.767906	0.642159
N237	N	0.636461	-0.041980	-0.000144
N238	N	1.136461	0.458020	0.499856
H239	H	0.627496	-0.075671	-0.046552
H240	H	1.127496	0.424329	0.453448
H241	H	0.686579	-0.029386	-0.000106
H242	H	1.186579	0.470614	0.499894
N243	N	0.602054	0.276261	-0.000190
N244	N	1.102054	0.776261	0.499810
H245	H	0.562867	0.324153	-0.000203
H246	H	1.062867	0.824153	0.499797
H247	H	0.631728	0.280136	0.046224
H248	H	1.131728	0.780136	0.546224
H249	H	0.046351	-0.032167	-0.000319
H250	H	0.546351	0.467833	0.499681
H251	H	0.266342	0.004291	-0.079822
H252	H	0.766342	0.504291	0.420178
