data_functionalizedCrystal
_audit_creation_method	'MofGen! by Chris Wilmer'
_symmetry_space_group_name_H-M	'P1'
_symmetry_Int_Tables_number	1
_symmetry_cell_setting	triclinic
loop_
_symmetry_equiv_pos_as_xyz
  x,y,z
_cell_length_a	13.339070
_cell_length_b	15.186229
_cell_length_c	16.109301
_cell_angle_alpha	89.998295
_cell_angle_beta	99.545387
_cell_angle_gamma	89.992946
loop_
_atom_site_label
_atom_site_type_symbol
_atom_site_fract_x
_atom_site_fract_y
_atom_site_fract_z
O1	O	1.342148	-0.073272	0.416770
O2	O	1.842148	0.426728	0.916770
O3	O	1.047639	-0.073265	0.362066
O4	O	1.547639	0.426735	0.862066
O5	O	1.202984	-0.073259	0.270255
O6	O	1.702984	0.426741	0.770255
O7	O	1.186803	-0.073277	0.508581
O8	O	1.686803	0.426723	1.008581
O9	O	1.202965	0.073198	0.270258
O10	O	1.702965	0.573198	0.770258
O11	O	1.047620	0.073192	0.362069
O12	O	1.547620	0.573192	0.862069
O13	O	1.342129	0.073186	0.416773
O14	O	1.842129	0.573186	0.916773
Zn15	Zn	1.194872	0.096442	0.389421
Zn16	Zn	1.694872	0.596442	0.889421
Zn17	Zn	1.194896	-0.096521	0.389417
Zn18	Zn	1.694896	0.403479	0.889417
O19	O	1.186784	0.073180	0.508584
O20	O	1.686784	0.573180	1.008584
C21	C	1.009943	-0.000035	0.352827
C22	C	1.509943	0.499965	0.852827
C23	C	0.897651	-0.000032	0.325282
C24	C	1.397651	0.499968	0.825282
C25	C	1.202319	-0.000030	0.239130
C26	C	1.702319	0.499970	0.739130
C27	C	1.200354	-0.000029	0.146381
C28	C	1.700354	0.499971	0.646381
N29	N	1.194863	0.228135	0.389425
N30	N	1.694863	0.728135	0.889425
C31	C	0.532787	-0.000062	0.539450
C32	C	1.032787	0.499938	1.039450
C33	C	0.638291	-0.000068	0.565332
C34	C	1.138291	0.499932	1.065332
C35	C	0.703136	-0.000059	0.505322
C36	C	1.203136	0.499941	1.005322
C37	C	0.662467	-0.000045	0.419426
C38	C	1.162467	0.499955	0.919426
C39	C	0.556952	-0.000046	0.393541
C40	C	1.056952	0.499954	0.893541
C41	C	0.727301	-0.000042	0.359413
C42	C	1.227301	0.499958	0.859413
C43	C	0.686632	-0.000028	0.273517
C44	C	1.186632	0.499972	0.773517
C45	C	0.581127	-0.000029	0.247637
C46	C	1.081127	0.499971	0.747637
C47	C	0.516283	-0.000038	0.307647
C48	C	1.016283	0.499962	0.807647
C49	C	0.832816	-0.000041	0.385297
C50	C	1.332816	0.499959	0.885297
C51	C	0.856981	-0.000025	0.239388
C52	C	1.356981	0.499975	0.739388
C53	C	0.751477	-0.000019	0.213506
C54	C	1.251477	0.499981	0.713506
C55	C	1.379825	-0.000046	0.426012
C56	C	1.879825	0.499954	0.926012
C57	C	1.492117	-0.000054	0.453556
C58	C	1.992117	0.499946	0.953556
N59	N	1.194913	-0.228214	0.389409
N60	N	1.694913	0.271786	0.889409
C61	C	1.256212	0.453852	0.454019
C62	C	1.756212	0.953852	0.954019
C63	C	1.256223	0.546042	0.454016
C64	C	1.756223	1.046042	0.954016
C65	C	1.133562	0.546062	0.324808
C66	C	1.633562	1.046062	0.824808
C67	C	1.133557	0.453874	0.324809
C68	C	1.633557	0.953874	0.824809
C69	C	1.194880	0.407772	0.389419
C70	C	1.694880	0.907772	0.889419
C71	C	1.194896	0.592149	0.389415
C72	C	1.694896	1.092149	0.889415
C73	C	1.194907	0.692105	0.389411
C74	C	1.694907	1.192105	0.889411
C75	C	1.194870	0.307809	0.389423
C76	C	1.694870	0.807809	0.889423
C77	C	1.287963	-0.000045	-0.055662
C78	C	1.787963	0.499955	0.444338
C79	C	1.286109	-0.000052	-0.142810
C80	C	1.786109	0.499948	0.357190
C81	C	1.101798	-0.000045	-0.165494
C82	C	1.601798	0.499955	0.334506
C83	C	1.103653	-0.000044	-0.078347
C84	C	1.603653	0.499956	0.421653
C85	C	1.196739	-0.000039	-0.023433
C86	C	1.696739	0.499961	0.476567
C87	C	1.193029	-0.000048	-0.197729
C88	C	1.693029	0.499952	0.302271
C89	C	1.191018	-0.000055	-0.292219
C90	C	1.691018	0.499945	0.207781
C91	C	1.198750	-0.000033	0.071064
C92	C	1.698750	0.499967	0.571064
C93	C	1.187449	-0.000051	0.539708
C94	C	1.687449	0.499949	1.039708
C95	C	1.189414	-0.000058	0.632457
C96	C	1.689414	0.499942	1.132457
H97	H	0.789042	-0.000065	0.526400
H98	H	1.289042	0.499935	1.026400
N99	N	0.537255	-0.000021	0.154995
N100	N	1.037255	0.499979	0.654995
H101	H	0.560910	-0.054308	0.127601
H102	H	1.060910	0.445692	0.627601
H103	H	0.560900	0.054312	0.127677
H104	H	1.060900	0.554312	0.627677
N105	N	1.005256	-0.000044	-0.043579
N106	N	1.505256	0.499956	0.456421
H107	H	0.946005	-0.000041	-0.091589
H108	H	1.446005	0.499959	0.408411
H109	H	1.002008	0.054249	-0.007916
H110	H	1.502008	0.554249	0.492084
H111	H	1.306146	0.416319	0.506628
H112	H	1.806146	0.916319	1.006628
H113	H	1.083612	0.416354	0.272200
H114	H	1.583612	0.916354	0.772200
N115	N	1.067408	0.595783	0.255131
N116	N	1.567408	1.095783	0.755131
H117	H	1.087380	0.579739	0.199255
H118	H	1.587380	1.079739	0.699255
H119	H	1.076738	0.661161	0.265007
H120	H	1.576738	1.161161	0.765007
H121	H	0.671396	-0.000086	0.635268
H122	H	1.171396	0.499914	1.135268
N123	N	0.926903	-0.000005	0.174651
N124	N	1.426903	0.499995	0.674651
H125	H	0.913838	-0.054293	0.138250
H126	H	1.413838	0.445707	0.638250
H127	H	0.999885	0.000033	0.204140
H128	H	1.499885	0.500033	0.704140
N129	N	0.876666	-0.000058	0.477937
N130	N	1.376666	0.499942	0.977937
H131	H	0.853009	0.054230	0.505328
H132	H	1.353009	0.554230	1.005328
H133	H	0.953337	-0.000091	0.485165
H134	H	1.453337	0.499909	0.985165
H135	H	1.306167	0.583557	0.506619
H136	H	1.806167	1.083557	1.006619
H137	H	1.360393	-0.000059	-0.169046
H138	H	1.860393	0.499941	0.330954
N139	N	0.462852	-0.000083	0.604169
N140	N	0.962852	0.499917	1.104169
H141	H	0.389843	-0.000085	0.574736
H142	H	0.889843	0.499915	1.074736
H143	H	0.476000	0.054206	0.640555
H144	H	0.976000	0.554206	1.140555
N145	N	1.001402	-0.000045	-0.224723
N146	N	1.501402	0.499955	0.275277
H147	H	1.014067	-0.000044	-0.284822
H148	H	1.514067	0.499956	0.215178
H149	H	0.961481	0.054251	-0.214443
H150	H	1.461481	0.554251	0.285557
N151	N	1.388360	-0.000042	0.003566
N152	N	1.888360	0.499958	0.503566
H153	H	1.428330	-0.054336	-0.006636
H154	H	1.928330	0.445664	0.493364
H155	H	1.375610	-0.000003	0.063639
H156	H	1.875610	0.499997	0.563639
N157	N	0.402486	-0.000011	0.279729
N158	N	0.902486	0.499989	0.779729
H159	H	0.367583	-0.000008	0.330781
H160	H	0.867583	0.499992	0.830781
H161	H	0.381891	-0.054297	0.244830
H162	H	0.881891	0.445703	0.744830
H163	H	0.718348	-0.000015	0.143568
H164	H	1.218348	0.499985	0.643568
