data_functionalizedCrystal
_audit_creation_method	'MofGen! by Chris Wilmer'
_symmetry_space_group_name_H-M	'P1'
_symmetry_Int_Tables_number	1
_symmetry_cell_setting	triclinic
loop_
_symmetry_equiv_pos_as_xyz
  x,y,z
_cell_length_a	11.792254
_cell_length_b	10.540539
_cell_length_c	10.268362
_cell_angle_alpha	89.996859
_cell_angle_beta	89.995475
_cell_angle_gamma	84.362045
loop_
_atom_site_label
_atom_site_type_symbol
_atom_site_fract_x
_atom_site_fract_y
_atom_site_fract_z
O1	O	1.507353	0.174069	-0.108293
O2	O	1.177061	0.191984	-0.108295
O3	O	1.349743	-0.001705	-0.108292
O4	O	1.334672	0.367757	-0.108295
O5	O	1.349727	-0.001713	0.108309
O6	O	1.177046	0.191976	0.108306
O7	O	1.507338	0.174061	0.108308
Cu8	Cu	1.342191	0.183017	0.128084
Cu9	Cu	1.342209	0.183027	-0.128071
O10	O	1.334657	0.367749	0.108305
C11	C	1.134760	0.190851	0.000005
C12	C	1.008738	0.187473	0.000004
C13	C	0.906394	0.184729	-0.000001
C14	C	0.777999	0.181297	-0.000002
C15	C	1.348605	-0.049008	0.000006
C16	C	1.345223	-0.189945	-0.000001
C17	C	1.215653	-0.372957	-0.000488
C18	C	1.219081	-0.226349	-0.000001
C19	C	1.405920	-0.251802	0.123689
C20	C	1.401615	-0.398333	0.123793
C21	C	1.404198	-0.398850	-0.122522
C22	C	1.405360	-0.251872	-0.124158
C23	C	1.549639	0.175193	0.000005
C24	C	1.675661	0.178571	-0.000002
C25	C	1.335794	0.415052	0.000004
C26	C	1.339176	0.555989	0.000003
N27	N	1.342186	0.183010	0.308250
N28	N	1.342222	0.183024	-0.308237
C29	C	1.342203	0.183024	0.573921
C30	C	1.342190	0.183020	0.426083
H31	H	1.171321	-0.183590	-0.088666
H32	H	1.497328	-0.227945	-0.131626
H33	H	1.498556	-0.229745	0.128288
H34	H	1.360949	-0.210868	-0.215660
H35	H	1.495310	-0.446368	-0.123354
H36	H	1.165830	-0.401394	-0.089188
H37	H	1.170973	-0.184442	0.088813
H38	H	1.166020	-0.403008	0.087715
H39	H	1.356745	-0.426392	0.216253
H40	H	1.492335	-0.446592	0.129405
H41	H	1.363744	-0.209071	0.215734
H42	H	1.363378	-0.430269	-0.216271
