data_functionalizedCrystal
_audit_creation_method	'MofGen! by Chris Wilmer'
_symmetry_space_group_name_H-M	'P1'
_symmetry_Int_Tables_number	1
_symmetry_cell_setting	triclinic
loop_
_symmetry_equiv_pos_as_xyz
  x,y,z
_cell_length_a	14.853566
_cell_length_b	17.019294
_cell_length_c	13.930277
_cell_angle_alpha	86.116472
_cell_angle_beta	89.995631
_cell_angle_gamma	83.514243
loop_
_atom_site_label
_atom_site_type_symbol
_atom_site_fract_x
_atom_site_fract_y
_atom_site_fract_z
O1	O	1.196090	0.102985	-0.088279
O2	O	1.696090	0.602985	0.411721
O3	O	0.933597	0.115254	-0.089309
O4	O	1.433597	0.615254	0.410691
O5	O	1.072165	-0.005705	-0.079297
O6	O	1.572165	0.494295	0.420703
O7	O	1.057521	0.223944	-0.098291
O8	O	1.557521	0.723944	0.401709
O9	O	1.072146	-0.005708	0.080365
O10	O	1.572146	0.494292	0.580365
O11	O	0.933578	0.115252	0.070353
O12	O	1.433578	0.615252	0.570353
O13	O	1.196071	0.102982	0.071383
O14	O	1.696071	0.602982	0.571383
Zn15	Zn	1.064821	0.109116	0.096218
Zn16	Zn	1.564821	0.609116	0.596218
Zn17	Zn	1.064846	0.109120	-0.114144
Zn18	Zn	1.564846	0.609120	0.385856
O19	O	1.057502	0.223942	0.061371
O20	O	1.557502	0.723942	0.561371
C21	C	0.900000	0.114697	-0.009434
C22	C	1.400000	0.614697	0.490566
C23	C	0.799921	0.113032	-0.009302
C24	C	1.299921	0.613032	0.490698
C25	C	0.376765	0.105989	-0.095735
C26	C	0.876765	0.605989	0.404265
C27	C	0.376766	0.105987	0.078335
C28	C	0.876766	0.605987	0.578335
C29	C	0.470796	0.107551	0.078203
C30	C	0.970796	0.607551	0.578203
C31	C	0.517815	0.108335	-0.008900
C32	C	1.017815	0.608335	0.491100
C33	C	0.470804	0.107555	-0.095870
C34	C	0.970804	0.607555	0.404130
C35	C	0.517812	0.108338	0.165171
C36	C	1.017812	0.608338	0.665171
C37	C	0.611848	0.109903	0.165042
C38	C	1.111848	0.609903	0.665042
C39	C	0.658869	0.110682	0.077939
C40	C	1.158869	0.610682	0.577939
C41	C	0.611853	0.109901	-0.009035
C42	C	1.111853	0.609901	0.490965
C43	C	0.658872	0.110686	-0.096137
C44	C	1.158872	0.610686	0.403863
C45	C	0.611858	0.109900	-0.183111
C46	C	1.111858	0.609900	0.316889
C47	C	0.517825	0.108334	-0.182973
C48	C	1.017825	0.608334	0.317027
C49	C	0.752902	0.112247	0.077800
C50	C	1.252902	0.612247	0.577800
C51	C	0.752910	0.112252	-0.096273
C52	C	1.252910	0.612252	0.403727
C53	C	1.071600	-0.035096	0.002963
C54	C	1.571600	0.464904	0.502963
C55	C	1.069934	-0.122669	0.010199
C56	C	1.569934	0.377331	0.510199
C57	C	1.069164	-0.163804	-0.073432
C58	C	1.569164	0.336196	0.426568
C59	C	1.067592	-0.246087	-0.066630
C60	C	1.567592	0.253913	0.433370
C61	C	1.066798	-0.287233	0.023805
C62	C	1.566798	0.212767	0.523805
C63	C	1.067565	-0.246092	0.107443
C64	C	1.567565	0.253908	0.607443
C65	C	1.069130	-0.163810	0.100639
C66	C	1.569130	0.336190	0.600639
C67	C	1.062066	-0.535671	0.048701
C68	C	1.562066	-0.035671	0.548701
C69	C	1.060504	-0.617959	0.055498
C70	C	1.560504	-0.117959	0.555498
C71	C	1.060529	-0.617949	-0.118576
C72	C	1.560529	-0.117949	0.381424
C73	C	1.062099	-0.535666	-0.125371
C74	C	1.562099	-0.035666	0.374629
C75	C	1.062862	-0.494531	-0.041733
C76	C	1.562862	0.005469	0.458267
C77	C	1.065194	-0.371340	0.030760
C78	C	1.565194	0.128660	0.530760
C79	C	1.064459	-0.410425	-0.048690
C80	C	1.564459	0.089575	0.451310
C81	C	1.229667	0.103539	-0.008494
C82	C	1.729667	0.603539	0.491506
C83	C	1.329747	0.105205	-0.008632
C84	C	1.829747	0.605205	0.491368
C85	C	1.058067	0.253333	-0.020891
C86	C	1.558067	0.753333	0.479109
C87	C	1.059733	0.340905	-0.028134
C88	C	1.559733	0.840905	0.471866
N89	N	1.064810	0.109114	0.239784
N90	N	1.564810	0.609114	0.739784
N91	N	1.064864	0.109116	-0.257710
N92	N	1.564864	0.609116	0.242290
C93	C	1.003486	0.162660	0.687621
C94	C	1.503486	0.662660	1.187621
C95	C	1.126232	0.055574	0.696454
C96	C	1.626232	0.555574	1.196454
C97	C	1.126221	0.055571	0.595959
C98	C	1.626221	0.555571	1.095959
C99	C	1.064843	0.109115	0.541290
C100	C	1.564843	0.609115	1.041290
C101	C	1.003475	0.162660	0.587116
C102	C	1.503475	0.662660	1.087116
C103	C	1.187594	0.002032	0.550124
C104	C	1.687594	0.502032	1.050124
C105	C	1.187586	0.002028	0.449623
C106	C	1.687586	0.502028	0.949623
C107	C	1.126203	0.055568	0.394952
C108	C	1.626203	0.555568	0.894952
C109	C	1.064832	0.109115	0.440785
C110	C	1.564832	0.609115	0.940785
C111	C	1.003453	0.162659	0.386116
C112	C	1.503453	0.662659	0.886116
C113	C	0.942078	0.216203	0.431947
C114	C	1.442078	0.716203	0.931947
C115	C	0.942092	0.216201	0.532446
C116	C	1.442092	0.716201	1.032446
C117	C	1.126189	0.055570	0.294453
C118	C	1.626189	0.555570	0.794453
C119	C	1.003443	0.162659	0.285610
C120	C	1.503443	0.662659	0.785610
H121	H	0.650119	0.110542	0.235862
H122	H	1.150119	0.610542	0.735862
Br123	Br	0.312953	0.104934	0.196539
Br124	Br	0.812953	0.604934	0.696539
H125	H	0.791175	0.112895	0.148612
H126	H	1.291175	0.612895	0.648612
H127	H	1.069816	-0.130309	-0.147074
H128	H	1.569816	0.369691	0.352926
Br129	Br	1.209537	-0.017083	0.770643
Br130	Br	1.709537	0.482917	1.270643
Br131	Br	0.453996	0.107287	0.283373
Br132	Br	0.953996	0.607287	0.783373
H133	H	0.479538	0.107693	-0.253782
H134	H	0.979538	0.607693	0.246218
H135	H	1.059852	-0.651458	0.129144
H136	H	1.559852	-0.151458	0.629144
Br137	Br	1.209486	-0.017084	0.232259
Br138	Br	1.709486	0.482916	0.732259
Br139	Br	1.270899	-0.070624	0.624313
Br140	Br	1.770899	0.429376	1.124313
Br141	Br	1.270877	-0.070637	0.387429
Br142	Br	1.770877	0.429363	0.887429
H143	H	1.066969	-0.279577	-0.134732
H144	H	1.566969	0.220423	0.365268
Br145	Br	1.063184	-0.479831	-0.248108
Br146	Br	1.563184	0.020169	0.251892
Br147	Br	0.858790	0.288874	0.357742
Br148	Br	1.358790	0.788874	0.857742
Br149	Br	0.816715	0.113307	-0.214489
Br150	Br	1.316715	0.613307	0.285511
Br151	Br	0.920187	0.235319	0.749814
Br152	Br	1.420187	0.735319	1.249814
H153	H	0.650152	0.110544	-0.254031
H154	H	1.150152	0.610544	0.245969
H155	H	0.338483	0.105346	-0.166547
H156	H	0.838483	0.605346	0.333453
H157	H	1.059906	-0.651450	-0.186668
H158	H	1.559906	-0.151450	0.313332
H159	H	1.062705	-0.502191	0.116805
H160	H	1.562705	-0.002191	0.616805
Br161	Br	0.858803	0.288863	0.594646
Br162	Br	1.358803	0.788863	1.094646
Br163	Br	1.066472	-0.301930	0.230177
Br164	Br	1.566472	0.198070	0.730177
H165	H	1.065100	-0.376920	-0.122321
H166	H	1.565100	0.123080	0.377679
Br167	Br	1.064107	-0.427187	0.153490
Br168	Br	1.564107	0.072813	0.653490
Br169	Br	1.070171	-0.107981	0.214143
Br170	Br	1.570171	0.392019	0.714143
Br171	Br	0.920132	0.235323	0.211424
Br172	Br	1.420132	0.735323	0.711424
