data_functionalizedCrystal
_audit_creation_method	'MofGen! by Chris Wilmer'
_symmetry_space_group_name_H-M	'P1'
_symmetry_Int_Tables_number	1
_symmetry_cell_setting	triclinic
loop_
_symmetry_equiv_pos_as_xyz
  x,y,z
_cell_length_a	16.109301
_cell_length_b	23.532407
_cell_length_c	14.586319
_cell_angle_alpha	89.991801
_cell_angle_beta	89.999035
_cell_angle_gamma	83.155079
loop_
_atom_site_label
_atom_site_type_symbol
_atom_site_fract_x
_atom_site_fract_y
_atom_site_fract_z
O1	O	1.102555	0.073202	-0.076192
O2	O	0.860422	0.082312	-0.076208
O3	O	0.988790	-0.005148	-0.076183
O4	O	0.974187	0.160661	-0.076217
O5	O	0.988781	-0.005149	0.076298
O6	O	0.860412	0.082311	0.076273
O7	O	1.102546	0.073201	0.076289
Cu8	Cu	0.981478	0.077756	0.090204
Cu9	Cu	0.981490	0.077757	-0.090123
O10	O	0.974178	0.160661	0.076264
C11	C	0.829445	0.081942	0.000031
C12	C	0.737159	0.080836	0.000026
C13	C	0.514498	0.130160	0.000026
C14	C	0.427786	0.129116	0.000032
C15	C	0.448476	0.025348	0.000050
C16	C	0.535187	0.026393	0.000050
C17	C	0.568195	0.078801	0.000034
C18	C	0.394773	0.076712	0.000039
C19	C	0.300755	0.075580	0.000046
C20	C	0.662218	0.079933	0.000029
C21	C	0.988414	-0.026366	0.000060
C22	C	0.987296	-0.089587	0.000067
C23	C	1.056249	-0.488436	0.000021
C24	C	1.055210	-0.547840	0.000014
O25	O	1.119130	-0.584349	-0.000015
N26	N	0.978895	-0.570748	0.000010
C27	C	0.903614	-0.534248	0.000003
O28	O	0.838607	-0.559187	-0.000002
C29	C	0.904654	-0.474845	0.000004
C30	C	0.980973	-0.451941	0.000018
C31	C	1.132562	-0.465531	0.000034
C32	C	1.133601	-0.406131	0.000043
C33	C	1.058325	-0.369636	0.000039
C34	C	0.982012	-0.392541	0.000026
C35	C	0.829373	-0.438346	-0.000009
C36	C	0.830419	-0.378940	-0.000009
C37	C	0.906739	-0.356036	0.000004
C38	C	0.907774	-0.296645	0.000031
N39	N	0.984089	-0.273738	0.000035
C40	C	1.059365	-0.310233	0.000039
C41	C	0.901437	-0.658998	0.000001
C42	C	0.900396	-0.718400	0.000007
C43	C	1.051993	-0.731988	0.000016
C44	C	1.053032	-0.672585	0.000017
C45	C	0.977752	-0.636091	0.000005
C46	C	1.061539	-0.185488	0.000058
C47	C	1.062571	-0.126082	0.000071
C48	C	0.910975	-0.112499	0.000057
C49	C	0.909943	-0.171900	0.000049
C50	C	0.985232	-0.208394	0.000047
O51	O	0.843888	-0.260102	0.000057
O52	O	1.124361	-0.285285	0.000032
C53	C	1.133523	0.073570	0.000048
C54	C	1.225809	0.074677	0.000047
C55	C	0.974554	0.181878	0.000019
C56	C	0.975672	0.245100	0.000006
N57	N	0.981477	0.077755	0.217035
C58	C	1.038336	0.039041	0.452053
C59	C	1.038338	0.039040	0.548034
C60	C	0.924629	0.116472	0.548021
C61	C	0.924624	0.116469	0.452042
C62	C	0.981482	0.077755	0.404060
C63	C	0.981489	0.077756	0.596021
C64	C	0.981491	0.077755	0.700088
C65	C	0.981479	0.077755	0.299986
N66	N	0.981495	0.077756	0.783046
H67	H	0.384069	0.170939	0.000028
H68	H	0.421590	-0.017320	0.000069
N69	N	1.213758	-0.504890	0.000051
H70	H	1.216725	-0.529837	-0.056471
H71	H	1.262206	-0.481318	0.000095
H72	H	0.578910	-0.015433	0.000059
H73	H	0.878338	0.147993	0.587098
N74	N	1.133182	-0.771361	0.000012
H75	H	1.166504	-0.763990	-0.056510
H76	H	1.166435	-0.763987	0.056577
H77	H	0.878322	0.147995	0.412964
N78	N	1.144890	-0.101379	0.000091
H79	H	1.192417	-0.133516	0.000090
H80	H	1.148630	-0.077020	-0.056431
N81	N	0.550099	0.186684	0.000025
H82	H	0.613179	0.179554	0.000025
H83	H	0.530425	0.209161	-0.056503
N84	N	1.142742	-0.224844	0.000056
H85	H	1.191237	-0.201312	0.000067
H86	H	1.145611	-0.249793	0.056581
N87	N	1.215917	-0.381431	0.000054
H88	H	1.263439	-0.413571	0.000053
H89	H	1.219658	-0.357076	-0.056472
N90	N	1.135347	-0.647883	0.000032
H91	H	1.182872	-0.680022	0.000037
H92	H	1.139090	-0.623529	-0.056495
H93	H	0.838249	-0.737043	0.000012
H94	H	0.840130	-0.629287	-0.000001
N95	N	0.747056	-0.463040	-0.000012
H96	H	0.699535	-0.430899	-0.000016
H97	H	0.743318	-0.487385	-0.056539
H98	H	0.769115	-0.349228	-0.000020
H99	H	0.847797	-0.190549	0.000064
N100	N	1.099638	-0.002728	0.400303
H101	H	1.091007	0.003141	0.332217
H102	H	1.158568	0.003852	0.417066
H103	H	0.849688	-0.082774	0.000057
N104	N	1.099670	-0.002707	0.599799
H105	H	1.135690	-0.027228	0.554836
H106	H	1.136237	0.019114	0.639606
