data_functionalizedCrystal
_audit_creation_method	'MofGen! by Chris Wilmer'
_symmetry_space_group_name_H-M	'P1'
_symmetry_Int_Tables_number	1
_symmetry_cell_setting	triclinic
loop_
_symmetry_equiv_pos_as_xyz
  x,y,z
_cell_length_a	12.759401
_cell_length_b	12.759399
_cell_length_c	12.759393
_cell_angle_alpha	89.968020
_cell_angle_beta	89.981504
_cell_angle_gamma	90.015277
loop_
_atom_site_label
_atom_site_type_symbol
_atom_site_fract_x
_atom_site_fract_y
_atom_site_fract_z
Zn1	Zn	1.606252	-0.418200	-0.593978
Zn2	Zn	1.606145	-0.593919	-0.418297
Zn3	Zn	1.430554	-0.418255	-0.418318
Zn4	Zn	1.430542	-0.593838	-0.593939
O5	O	1.518373	-0.506053	-0.506133
O6	O	1.753259	-0.441520	-0.570682
O7	O	1.582813	-0.570673	-0.271279
O8	O	1.453911	-0.271227	-0.441645
O9	O	1.753181	-0.570620	-0.441610
O10	O	1.582996	-0.271186	-0.570702
O11	O	1.453807	-0.441614	-0.271294
O12	O	1.283532	-0.441535	-0.441606
O13	O	1.453890	-0.570482	-0.740965
O14	O	1.283522	-0.570536	-0.570634
O15	O	1.582983	-0.441442	-0.740994
O16	O	1.582801	-0.740929	-0.441571
O17	O	1.453786	-0.740870	-0.570614
C18	C	1.245406	-0.506033	-0.506119
C19	C	1.128629	-0.506050	-0.506138
C20	C	1.518309	-0.779020	-0.506109
C21	C	1.518378	-0.895797	-0.506134
C22	C	1.073790	-0.573328	-0.573211
C23	C	0.964066	-0.573342	-0.573223
C24	C	0.964030	-0.438796	-0.439078
C25	C	1.073752	-0.438778	-0.439072
C26	C	1.073810	-0.651010	-0.650656
C27	C	0.964086	-0.651024	-0.650667
C28	C	1.585633	-0.950655	-0.439018
C29	C	1.585700	-1.060379	-0.439053
C30	C	1.451249	-1.060377	-0.573324
C31	C	1.451187	-0.950655	-0.573293
C32	C	1.709709	-1.210258	-0.401662
C33	C	1.776955	-1.265120	-0.334530
C34	C	1.793120	-1.229581	-0.232019
C35	C	1.742023	-1.139183	-0.196620
C36	C	1.674770	-1.084327	-0.263747
C37	C	1.658625	-1.119864	-0.366273
C38	C	1.327177	-0.800774	-0.610673
C39	C	1.259917	-0.745916	-0.677795
C40	C	1.243742	-0.781452	-0.780308
C41	C	1.294820	-0.871854	-0.815703
C42	C	1.362079	-0.926712	-0.748580
C43	C	1.378256	-0.891168	-0.646069
C44	C	1.792407	-0.506073	-0.506148
C45	C	1.909183	-0.506082	-0.506154
C46	C	1.518447	-0.505947	-0.780166
C47	C	1.518478	-0.505902	-0.896943
C48	C	1.518467	-0.232019	-0.506180
C49	C	1.518506	-0.115243	-0.506200
C50	C	1.585707	-0.438704	-0.951822
C51	C	1.585732	-0.438666	-1.061546
C52	C	1.451297	-0.573033	-1.061503
C53	C	1.451267	-0.573064	-0.951781
C54	C	1.663325	-0.361131	-0.951848
C55	C	1.663350	-0.361093	-1.061572
C56	C	1.518361	-0.506083	-0.233166
C57	C	1.518533	-0.505832	-0.116389
H58	H	0.919336	-0.384025	-0.384476
H59	H	1.641557	-0.279767	-0.922093
C60	C	1.377338	-1.120724	-0.647192
C61	C	1.377399	-1.241414	-0.647228
C62	C	1.303486	-1.301758	-0.721097
C63	C	1.229511	-1.241412	-0.794930
C64	C	1.229447	-1.120716	-0.794896
C65	C	1.303360	-1.060372	-0.721027
H66	H	1.432163	-1.286092	-0.592570
H67	H	1.303534	-1.391106	-0.721122
H68	H	1.174796	-1.286083	-0.849612
H69	H	1.174684	-1.076038	-0.849554
H70	H	1.303312	-0.971024	-0.721002
H71	H	1.847874	-1.274257	-0.177359
C72	C	1.618571	-0.984891	-0.224825
C73	C	1.636344	-0.945795	-0.112060
C74	C	1.580153	-0.846351	-0.073137
C75	C	1.506189	-0.786003	-0.146979
C76	C	1.488412	-0.825098	-0.259750
C77	C	1.544603	-0.924542	-0.298673
H78	H	1.691100	-0.990468	-0.057392
H79	H	1.593313	-0.817410	0.010344
H80	H	1.464593	-0.712389	-0.118166
H81	H	1.433656	-0.780425	-0.314419
H82	H	1.531443	-0.953482	-0.382155
H83	H	1.818558	-1.338722	-0.363361
C84	C	1.119769	-0.755372	-0.611100
C85	C	1.191041	-0.756884	-0.513737
C86	C	1.237000	-0.861244	-0.474178
C87	C	1.211686	-0.964093	-0.531982
C88	C	1.140410	-0.962584	-0.629351
C89	C	1.094451	-0.858224	-0.668910
H90	H	1.209783	-0.680746	-0.470941
H91	H	1.289763	-0.862360	-0.402098
H92	H	1.245708	-1.041346	-0.502698
H93	H	1.121668	-1.038722	-0.672146
H94	H	1.041688	-0.857108	-0.740990
C95	C	1.759799	-1.100099	-0.083849
C96	C	1.870790	-1.070021	-0.047236
C97	C	1.888570	-1.030932	0.065535
C98	C	1.795360	-1.021922	0.141694
C99	C	1.684362	-1.052001	0.105083
C100	C	1.666582	-1.091089	-0.007689
H101	H	1.939796	-1.076690	-0.103615
H102	H	1.970738	-1.008666	0.092637
H103	H	1.808522	-0.992987	0.225175
H104	H	1.615356	-1.045332	0.161462
H105	H	1.584414	-1.113356	-0.034791
H106	H	1.634237	-0.283784	-1.095621
H107	H	1.188970	-0.736777	-0.834957
H108	H	0.930088	-0.621980	-0.728019
C109	C	1.277036	-0.910949	-0.928470
C110	C	1.333220	-1.010386	-0.967403
C111	C	1.315431	-1.049479	-1.080172
C112	C	1.241457	-0.989136	-1.154008
C113	C	1.185268	-0.889694	-1.115076
C114	C	1.203057	-0.850600	-1.002307
H115	H	1.387985	-1.055061	-0.912745
H116	H	1.357027	-1.123094	-1.108992
H117	H	1.228289	-1.018076	-1.237486
H118	H	1.130503	-0.845019	-1.169734
H119	H	1.161461	-0.776986	-0.973488
C120	C	1.377375	-0.646914	-1.121830
C121	C	1.422891	-0.729377	-1.197245
C122	C	1.348970	-0.803262	-1.257570
C123	C	1.229533	-0.794682	-1.242482
C124	C	1.184011	-0.712214	-1.167064
C125	C	1.257932	-0.638330	-1.106738
H126	H	1.511311	-0.735732	-1.208417
H127	H	1.382669	-0.864309	-1.313400
H128	H	1.174812	-0.849375	-1.287138
H129	H	1.095590	-0.705860	-1.155891
H130	H	1.224233	-0.577283	-1.050909
H131	H	1.740597	-0.390300	-0.917812
H132	H	1.118398	-0.383987	-0.384461
H133	H	1.103618	-0.629311	-0.732063
H134	H	0.934290	-0.732373	-0.628734
H135	H	1.696564	-1.239195	-0.485138
C136	C	1.773262	-0.390547	-1.101823
C137	C	1.787925	-0.488171	-1.171199
C138	C	1.897829	-0.517628	-1.211456
C139	C	1.993070	-0.449461	-1.182335
C140	C	1.978411	-0.351832	-1.112955
C141	C	1.868506	-0.322375	-1.072699
H142	H	1.717419	-0.538637	-1.192759
H143	H	1.908681	-0.589900	-1.262815
H144	H	2.074428	-0.471267	-1.212135
H145	H	2.048916	-0.301365	-1.091395
H146	H	1.857655	-0.250103	-1.021339
H147	H	1.640345	-0.905992	-0.384334
H148	H	1.218333	-0.672302	-0.648970
H149	H	1.403674	-1.000319	-0.777409
H150	H	1.340350	-0.771826	-0.527201
H151	H	1.396520	-0.627780	-0.907102
