data_functionalizedCrystal
_audit_creation_method	'MofGen! by Chris Wilmer'
_symmetry_space_group_name_H-M	'P1'
_symmetry_Int_Tables_number	1
_symmetry_cell_setting	triclinic
loop_
_symmetry_equiv_pos_as_xyz
  x,y,z
_cell_length_a	17.077404
_cell_length_b	19.805405
_cell_length_c	17.077396
_cell_angle_alpha	90.031650
_cell_angle_beta	90.019501
_cell_angle_gamma	90.026635
loop_
_atom_site_label
_atom_site_type_symbol
_atom_site_fract_x
_atom_site_fract_y
_atom_site_fract_z
Zn1	Zn	1.200035	-0.269459	0.443825
Zn2	Zn	1.700035	0.230541	0.943825
Zn3	Zn	1.199934	-0.382652	0.312552
Zn4	Zn	1.699934	0.117348	0.812552
Zn5	Zn	1.068767	-0.269483	0.312573
Zn6	Zn	1.568767	0.230517	0.812573
Zn7	Zn	1.068727	-0.382612	0.443776
Zn8	Zn	1.568727	0.117388	0.943776
O9	O	1.134366	-0.326052	0.378182
O10	O	1.634366	0.173948	0.878182
O11	O	1.309869	-0.284481	0.426424
O12	O	1.809869	0.215519	0.926424
O13	O	1.182509	-0.367667	0.202708
O14	O	1.682509	0.132333	0.702708
O15	O	1.086239	-0.174763	0.330014
O16	O	1.586239	0.325237	0.830014
O17	O	1.309795	-0.367644	0.329978
O18	O	1.809795	0.132356	0.829978
O19	O	1.182681	-0.174746	0.426444
O20	O	1.682681	0.325254	0.926444
O21	O	1.086141	-0.284522	0.202724
O22	O	1.586141	0.215478	0.702724
O23	O	0.958915	-0.284483	0.329966
O24	O	1.458915	0.215517	0.829966
O25	O	1.086171	-0.367575	0.553629
O26	O	1.586171	0.132425	1.053629
O27	O	0.958886	-0.367598	0.426360
O28	O	1.458886	0.132402	0.926360
O29	O	1.182643	-0.284442	0.553666
O30	O	1.682643	0.215558	1.053666
O31	O	1.182470	-0.477363	0.329930
O32	O	1.682470	0.022637	0.829930
O33	O	1.086073	-0.477334	0.426339
O34	O	1.586073	0.022666	0.926339
C35	C	0.930418	-0.326039	0.378160
C36	C	1.430418	0.173961	0.878160
C37	C	0.843168	-0.326050	0.378169
C38	C	1.343168	0.173950	0.878169
C39	C	0.802183	-0.369394	0.428281
C40	C	1.302183	0.130606	0.928281
C41	C	0.720203	-0.369395	0.428294
C42	C	1.220203	0.130605	0.928294
C43	C	0.679209	-0.326056	0.378190
C44	C	1.179209	0.173944	0.878190
C45	C	0.720200	-0.282708	0.328076
C46	C	1.220200	0.217292	0.828076
C47	C	0.802179	-0.282703	0.328068
C48	C	1.302179	0.217297	0.828068
C49	C	0.549330	-0.282721	0.328095
C50	C	1.049330	0.217279	0.828095
C51	C	0.467345	-0.282726	0.328102
C52	C	0.967345	0.217274	0.828102
C53	C	0.467354	-0.369413	0.428321
C54	C	0.967354	0.130587	0.928321
C55	C	0.549333	-0.369409	0.428313
C56	C	1.049333	0.130591	0.928313
C57	C	0.590318	-0.326061	0.378197
C58	C	1.090318	0.173939	0.878197
C59	C	1.134278	-0.501908	0.378144
C60	C	1.634278	-0.001908	0.878144
C61	C	1.134312	-0.577140	0.378154
C62	C	1.634312	-0.077140	0.878154
C63	C	1.184555	-0.612477	0.328006
C64	C	1.684555	-0.112477	0.828006
C65	C	1.184588	-0.683165	0.328023
C66	C	1.684588	-0.183165	0.828023
C67	C	1.134374	-0.718515	0.378185
C68	C	1.634374	-0.218515	0.878185
C69	C	1.084129	-0.683173	0.428338
C70	C	1.584129	-0.183173	0.928338
C71	C	1.084100	-0.612486	0.428324
C72	C	1.584100	-0.112486	0.928324
C73	C	1.084245	-0.968246	0.428397
C74	C	1.584245	-0.468246	0.928397
C75	C	1.084276	-1.038938	0.428405
C76	C	1.584276	-0.538938	0.928405
C77	C	1.184733	-1.038925	0.328095
C78	C	1.684733	-0.538925	0.828095
C79	C	1.184704	-0.968238	0.328081
C80	C	1.684704	-0.468238	0.828081
C81	C	1.134462	-0.932902	0.378237
C82	C	1.634462	-0.432902	0.878237
C83	C	1.134427	-0.856254	0.378219
C84	C	1.634427	-0.356254	0.878219
C85	C	1.134404	-0.795162	0.378200
C86	C	1.634404	-0.295162	0.878200
C87	C	1.339110	-0.326064	0.378204
C88	C	1.839110	0.173936	0.878204
C89	C	1.426360	-0.326070	0.378213
C90	C	1.926360	0.173930	0.878213
C91	C	1.134414	-0.326002	0.582926
C92	C	1.634414	0.173998	1.082926
C93	C	1.134434	-0.325980	0.670176
C94	C	1.634434	0.174020	1.170176
C95	C	1.134476	-0.149509	0.378237
C96	C	1.634476	0.350491	0.878237
C97	C	1.134523	-0.074277	0.378261
C98	C	1.634523	0.425723	0.878261
C99	C	1.134364	-0.326052	0.174234
C100	C	1.634364	0.173948	0.674234
C101	C	1.134496	-0.325883	0.086984
C102	C	1.634496	0.174117	0.586984
C103	C	1.184668	-0.282690	0.711186
C104	C	1.684668	0.217310	1.211186
C105	C	1.184678	-0.282667	0.793167
C106	C	1.684678	0.217333	1.293167
C107	C	1.134456	-0.325939	0.834135
C108	C	1.634456	0.174061	1.334135
C109	C	1.084216	-0.369232	0.793119
C110	C	1.584216	0.130768	1.293119
C111	C	1.084203	-0.369251	0.711140
C112	C	1.584203	0.130749	1.211140
C113	C	1.084248	-0.369191	0.963989
C114	C	1.584248	0.130809	1.463989
C115	C	1.084261	-0.369174	1.045974
C116	C	1.584261	0.130826	1.545974
C117	C	1.184722	-0.282608	1.046016
C118	C	1.684722	0.217392	1.546016
C119	C	1.184709	-0.282626	0.964037
C120	C	1.684709	0.217374	1.464037
C121	C	1.134470	-0.325920	0.923026
C122	C	1.634470	0.174080	1.423026
H123	H	0.835548	-0.247405	0.287266
H124	H	1.335548	0.252595	0.787266
H125	H	1.043325	-0.404435	0.930601
H126	H	1.543325	0.095565	1.430601
C127	C	1.290389	-1.118328	0.317315
C128	C	1.790389	-0.618328	0.817315
C129	C	1.239985	-1.077760	0.272977
C130	C	1.739985	-0.577760	0.772977
H131	H	1.324504	-1.142295	0.283288
H132	H	1.824504	-0.642295	0.783288
H133	H	1.260491	-1.149501	0.347176
H134	H	1.760491	-0.649501	0.847176
H135	H	1.320365	-1.090696	0.351542
H136	H	1.820365	-0.590696	0.851542
H137	H	1.210004	-1.105393	0.238753
H138	H	1.710004	-0.605393	0.738753
H139	H	1.269886	-1.046583	0.243102
H140	H	1.769886	-0.546583	0.743102
C141	C	0.442075	-0.484071	0.466307
C142	C	0.942075	0.015929	0.966307
C143	C	0.422303	-0.417062	0.483406
C144	C	0.922303	0.082938	0.983406
H145	H	0.414254	-0.513488	0.500308
H146	H	0.914254	-0.013488	1.000308
H147	H	0.496757	-0.490269	0.473477
H148	H	0.996757	0.009731	0.973477
H149	H	0.428608	-0.493905	0.413543
H150	H	0.928608	0.006095	0.913543
H151	H	0.435775	-0.407227	0.536170
H152	H	0.935775	0.092773	1.036170
H153	H	0.367608	-0.410861	0.476244
H154	H	0.867608	0.089139	0.976244
H155	H	1.043322	-0.404463	0.826482
H156	H	1.543322	0.095537	1.326482
C157	C	0.978710	-1.118500	0.439241
C158	C	1.478710	-0.618500	0.939241
C159	C	1.029080	-1.077797	0.483552
C160	C	1.529080	-0.577797	0.983552
H161	H	0.944635	-1.142486	0.473286
H162	H	1.444635	-0.642486	0.973286
H163	H	1.008636	-1.149658	0.409379
H164	H	1.508636	-0.649658	0.909379
H165	H	0.948690	-1.090958	0.405016
H166	H	1.448690	-0.590958	0.905016
H167	H	1.059105	-1.105339	0.517773
H168	H	1.559105	-0.605339	1.017773
H169	H	0.999152	-1.046635	0.513428
H170	H	1.499152	-0.546635	1.013428
H171	H	1.225609	-0.247394	0.930683
H172	H	1.725609	0.252606	1.430683
H173	H	1.225628	-0.247355	1.079411
H174	H	1.725628	0.252645	1.579411
H175	H	0.686816	-0.247417	0.287284
H176	H	1.186816	0.252583	0.787284
H177	H	0.686837	-0.404691	0.469099
H178	H	1.186837	0.095309	0.969099
H179	H	1.225590	-0.939458	0.287232
H180	H	1.725590	-0.439458	0.787232
C181	C	0.984925	-0.454834	0.719328
C182	C	1.484925	0.045166	1.219328
C183	C	1.028997	-0.416849	0.666058
C184	C	1.528997	0.083151	1.166058
H185	H	0.950848	-0.484224	0.691495
H186	H	1.450848	0.015776	1.191495
H187	H	0.954915	-0.425338	0.751300
H188	H	1.454915	0.074662	1.251300
H189	H	1.019127	-0.480710	0.751307
H190	H	1.519127	0.019290	1.251307
H191	H	0.994796	-0.390969	0.634083
H192	H	1.494796	0.109031	1.134083
H193	H	1.059010	-0.446349	0.634073
H194	H	1.559010	0.053651	1.134073
C195	C	0.375076	-0.273174	0.222570
C196	C	0.875076	0.226826	0.722570
C197	C	0.422267	-0.235070	0.273060
C198	C	0.922267	0.264930	0.773060
H199	H	0.347247	-0.243747	0.188596
H200	H	0.847247	0.256253	0.688596
H201	H	0.338952	-0.298999	0.252415
H202	H	0.838952	0.201001	0.752415
H203	H	0.407030	-0.302609	0.192448
H204	H	0.907030	0.197391	0.692448
H205	H	0.390313	-0.205639	0.303186
H206	H	0.890313	0.294361	0.803186
H207	H	0.458395	-0.209234	0.243211
H208	H	0.958395	0.290766	0.743211
C209	C	1.229437	-0.791517	0.283700
C210	C	1.729437	-0.291517	0.783700
C211	C	1.239948	-0.722008	0.273032
C212	C	1.739948	-0.222008	0.773032
H213	H	1.263660	-0.815495	0.249792
H214	H	1.763660	-0.315495	0.749792
H215	H	1.176759	-0.803205	0.272040
H216	H	1.676759	-0.303205	0.772040
H217	H	1.240777	-0.802992	0.336502
H218	H	1.740777	-0.302992	0.836502
H219	H	1.228602	-0.710533	0.220231
H220	H	1.728602	-0.210533	0.720231
H221	H	1.292638	-0.710315	0.284686
H222	H	1.792638	-0.210315	0.784686
H223	H	0.835555	-0.404688	0.469079
H224	H	1.335555	0.095312	0.969079
H225	H	1.043247	-0.711961	0.469184
H226	H	1.543247	-0.211961	0.969184
C227	C	0.641572	-0.378918	0.533866
C228	C	1.141572	0.121082	1.033866
C229	C	0.594396	-0.417046	0.483388
C230	C	1.094396	0.082954	0.983388
H231	H	0.669395	-0.408328	0.567865
H232	H	1.169395	0.091672	1.067865
H233	H	0.609617	-0.349470	0.563955
H234	H	1.109617	0.150530	1.063955
H235	H	0.677710	-0.353106	0.504009
H236	H	1.177710	0.146894	1.004009
H237	H	0.558254	-0.442855	0.513245
H238	H	1.058254	0.057145	1.013245
H239	H	0.626355	-0.446505	0.453295
H240	H	1.126355	0.053495	0.953295
H241	H	1.225567	-0.247454	0.677836
H242	H	1.725567	0.252546	1.177836
H243	H	0.582697	-0.247417	0.287293
H244	H	1.082697	0.252583	0.787293
H245	H	1.225441	-0.583699	0.287155
H246	H	1.725441	-0.083699	0.787155
H247	H	1.043334	-0.939481	0.469234
H248	H	1.543334	-0.439481	0.969234
H249	H	1.225586	-0.247417	0.826554
H250	H	1.725586	0.252583	1.326554
C251	C	0.984803	-0.619594	0.527481
C252	C	1.484803	-0.119594	1.027481
C253	C	1.028873	-0.573641	0.483450
C254	C	1.528873	-0.073641	0.983450
H255	H	0.950707	-0.595612	0.561513
H256	H	1.450707	-0.095612	1.061513
H257	H	1.018999	-0.647123	0.557538
H258	H	1.518999	-0.147123	1.057538
H259	H	0.954804	-0.647206	0.493251
H260	H	1.454804	-0.147206	0.993251
H261	H	1.058876	-0.546032	0.517680
H262	H	1.558876	-0.046032	1.017680
H263	H	0.994673	-0.546101	0.453391
H264	H	1.494673	-0.046101	0.953391
C265	C	0.984945	-0.454732	1.037703
C266	C	1.484945	0.045268	1.537703
C267	C	1.029051	-0.416734	1.091009
C268	C	1.529051	0.083266	1.591009
H269	H	0.950857	-0.484090	1.065507
H270	H	1.450857	0.015910	1.565507
H271	H	1.019118	-0.480636	1.005726
H272	H	1.519118	0.019364	1.505726
H273	H	0.954936	-0.425238	1.005732
H274	H	1.454936	0.074762	1.505732
H275	H	1.059065	-0.446228	1.122976
H276	H	1.559065	0.053772	1.622976
H277	H	0.994874	-0.390828	1.122999
H278	H	1.494874	0.109172	1.622999
