data_functionalizedCrystal
_audit_creation_method	'MofGen! by Chris Wilmer'
_symmetry_space_group_name_H-M	'P1'
_symmetry_Int_Tables_number	1
_symmetry_cell_setting	triclinic
loop_
_symmetry_equiv_pos_as_xyz
  x,y,z
_cell_length_a	14.044220
_cell_length_b	17.699103
_cell_length_c	16.776229
_cell_angle_alpha	89.988386
_cell_angle_beta	89.997978
_cell_angle_gamma	88.239969
loop_
_atom_site_label
_atom_site_type_symbol
_atom_site_fract_x
_atom_site_fract_y
_atom_site_fract_z
O1	O	1.257306	0.182443	-0.066220
O2	O	1.507306	0.432443	0.183780
O3	O	1.757306	0.682443	0.433780
O4	O	2.007306	0.932443	0.683780
O5	O	0.981351	0.175860	-0.066240
O6	O	1.231351	0.425860	0.183760
O7	O	1.481351	0.675860	0.433760
O8	O	1.731351	0.925860	0.683760
O9	O	1.127115	0.069500	-0.066214
O10	O	1.377115	0.319500	0.183786
O11	O	1.627115	0.569500	0.433786
O12	O	1.877115	0.819500	0.683786
O13	O	1.111542	0.288802	-0.066246
O14	O	1.361542	0.538802	0.183754
O15	O	1.611542	0.788802	0.433754
O16	O	1.861542	1.038802	0.683754
O17	O	1.127096	0.069492	0.066362
O18	O	1.377096	0.319492	0.316362
O19	O	1.627096	0.569492	0.566362
O20	O	1.877096	0.819492	0.816362
O21	O	0.981332	0.175851	0.066337
O22	O	1.231332	0.425851	0.316337
O23	O	1.481332	0.675851	0.566337
O24	O	1.731332	0.925851	0.816337
O25	O	1.257287	0.182435	0.066356
O26	O	1.507287	0.432435	0.316356
O27	O	1.757287	0.682435	0.566356
O28	O	2.007287	0.932435	0.816356
Zn29	Zn	1.119306	0.179141	0.087396
Zn30	Zn	1.369306	0.429141	0.337396
Zn31	Zn	1.619306	0.679141	0.587396
Zn32	Zn	1.869306	0.929141	0.837396
Zn33	Zn	1.119332	0.179153	-0.087279
Zn34	Zn	1.369332	0.429153	0.162721
Zn35	Zn	1.619332	0.679153	0.412721
Zn36	Zn	1.869332	0.929153	0.662721
O37	O	1.111523	0.288794	0.066331
O38	O	1.361523	0.538794	0.316331
O39	O	1.611523	0.788794	0.566331
O40	O	1.861523	1.038794	0.816331
C41	C	1.126545	0.041261	0.000076
C42	C	1.376545	0.291261	0.250076
C43	C	1.626545	0.541261	0.500076
C44	C	1.876545	0.791261	0.750076
C45	C	1.124861	-0.042873	0.000083
C46	C	1.374861	0.207127	0.250083
C47	C	1.624861	0.457127	0.500083
C48	C	1.874861	0.707127	0.750083
C49	C	0.946034	0.172974	0.000046
C50	C	1.196034	0.422974	0.250046
C51	C	1.446034	0.672974	0.500046
C52	C	1.696034	0.922974	0.750046
C53	C	0.840827	0.164378	0.000039
C54	C	1.090827	0.414378	0.250039
C55	C	1.340827	0.664378	0.500039
C56	C	1.590827	0.914378	0.750039
C57	C	1.114573	-0.559290	-0.072238
C58	C	1.364573	-0.309290	0.177762
C59	C	1.614573	-0.059290	0.427762
C60	C	1.864573	0.190710	0.677762
C61	C	1.116154	-0.480238	-0.072230
C62	C	1.366154	-0.230238	0.177770
C63	C	1.616154	0.019762	0.427770
C64	C	1.866154	0.269762	0.677770
C65	C	1.116932	-0.440730	0.000042
C66	C	1.366932	-0.190730	0.250042
C67	C	1.616932	0.059270	0.500042
C68	C	1.866932	0.309270	0.750042
C69	C	1.116139	-0.480278	0.072312
C70	C	1.366139	-0.230278	0.322312
C71	C	1.616139	0.019722	0.572312
C72	C	1.866139	0.269722	0.822312
C73	C	1.114565	-0.559329	0.072304
C74	C	1.364565	-0.309329	0.322304
C75	C	1.614565	-0.059329	0.572304
C76	C	1.864565	0.190671	0.822304
C77	C	1.122487	-0.161474	0.072345
C78	C	1.372487	0.088526	0.322345
C79	C	1.622487	0.338526	0.572345
C80	C	1.872487	0.588526	0.822345
C81	C	1.124058	-0.082417	0.072348
C82	C	1.374058	0.167583	0.322348
C83	C	1.624058	0.417583	0.572348
C84	C	1.874058	0.667583	0.822348
C85	C	1.124076	-0.082382	-0.072189
C86	C	1.374076	0.167618	0.177811
C87	C	1.624076	0.417618	0.427811
C88	C	1.874076	0.667618	0.677811
C89	C	1.122502	-0.161433	-0.072197
C90	C	1.372502	0.088567	0.177803
C91	C	1.622502	0.338567	0.427803
C92	C	1.872502	0.588567	0.677803
C93	C	1.121714	-0.200975	0.000073
C94	C	1.371714	0.049025	0.250073
C95	C	1.621714	0.299025	0.500073
C96	C	1.871714	0.549025	0.750073
C97	C	1.120002	-0.286693	0.000064
C98	C	1.370002	-0.036693	0.250064
C99	C	1.620002	0.213307	0.500064
C100	C	1.870002	0.463307	0.750064
C101	C	1.118637	-0.355013	0.000051
C102	C	1.368637	-0.105013	0.250051
C103	C	1.618637	0.144987	0.500051
C104	C	1.868637	0.394987	0.750051
C105	C	0.648200	0.148662	0.000057
C106	C	0.898200	0.398662	0.250057
C107	C	1.148200	0.648662	0.500057
C108	C	1.398200	0.898662	0.750057
C109	C	0.590432	0.209628	0.000052
C110	C	0.840432	0.459628	0.250052
C111	C	1.090432	0.709628	0.500052
C112	C	1.340432	0.959628	0.750052
C113	C	0.483248	0.200884	0.000062
C114	C	0.733248	0.450884	0.250062
C115	C	0.983248	0.700884	0.500062
C116	C	1.233248	0.950884	0.750062
C117	C	0.755394	0.157405	0.000047
C118	C	1.005394	0.407405	0.250047
C119	C	1.255394	0.657405	0.500047
C120	C	1.505394	0.907405	0.750047
C121	C	1.292604	0.185321	0.000068
C122	C	1.542604	0.435321	0.250068
C123	C	1.792604	0.685321	0.500068
C124	C	2.042604	0.935321	0.750068
C125	C	1.397811	0.193916	0.000070
C126	C	1.647811	0.443916	0.250070
C127	C	1.897811	0.693916	0.500070
C128	C	2.147811	0.943916	0.750070
C129	C	1.112094	0.317033	0.000038
C130	C	1.362094	0.567033	0.250038
C131	C	1.612094	0.817033	0.500038
C132	C	1.862094	1.067033	0.750038
C133	C	1.113777	0.401167	0.000027
C134	C	1.363777	0.651167	0.250027
C135	C	1.613777	0.901167	0.500027
C136	C	1.863777	1.151167	0.750027
N137	N	1.119296	0.179134	0.206607
N138	N	1.369296	0.429134	0.456607
N139	N	1.619296	0.679134	0.706607
N140	N	1.869296	0.929134	0.956607
N141	N	1.119350	0.179155	-0.206491
N142	N	1.369350	0.429155	0.043509
N143	N	1.619350	0.679155	0.293509
N144	N	1.869350	0.929155	0.543509
C145	C	1.183860	0.132060	0.248335
C146	C	1.433860	0.382060	0.498335
C147	C	1.683860	0.632060	0.748335
C148	C	1.933860	0.882060	0.998335
C149	C	1.183865	0.132060	0.331788
C150	C	1.433865	0.382060	0.581788
C151	C	1.683865	0.632060	0.831788
C152	C	1.933865	0.882060	1.081788
C153	C	1.119310	0.179138	0.373510
C154	C	1.369310	0.429138	0.623510
C155	C	1.619310	0.679138	0.873510
C156	C	1.869310	0.929138	1.123510
C157	C	1.054739	0.226213	0.331776
C158	C	1.304739	0.476213	0.581776
C159	C	1.554739	0.726213	0.831776
C160	C	1.804739	0.976213	1.081776
C161	C	1.054730	0.226209	0.248325
C162	C	1.304730	0.476209	0.498325
C163	C	1.554730	0.726209	0.748325
C164	C	1.804730	0.976209	0.998325
C165	C	1.054774	0.226230	0.668323
C166	C	1.304774	0.476230	0.918323
C167	C	1.554774	0.726230	1.168323
C168	C	1.804774	0.976230	1.418323
C169	C	1.054790	0.226233	0.751779
C170	C	1.304790	0.476233	1.001779
C171	C	1.554790	0.726233	1.251779
C172	C	1.804790	0.976233	1.501779
C173	C	1.183908	0.132082	0.751786
C174	C	1.433908	0.382082	1.001786
C175	C	1.683908	0.632082	1.251786
C176	C	1.933908	0.882082	1.501786
C177	C	1.183899	0.132077	0.668335
C178	C	1.433899	0.382077	0.918335
C179	C	1.683899	0.632077	1.168335
C180	C	1.933899	0.882077	1.418335
C181	C	1.119326	0.179150	0.626608
C182	C	1.369326	0.429150	0.876608
C183	C	1.619326	0.679150	1.126608
C184	C	1.869326	0.929150	1.376608
C185	C	1.119320	0.179148	0.536120
C186	C	1.369320	0.429148	0.786120
C187	C	1.619320	0.679148	1.036120
C188	C	1.869320	0.929148	1.286120
C189	C	1.119320	0.179144	0.463997
C190	C	1.369320	0.429144	0.713997
C191	C	1.619320	0.679144	0.963997
C192	C	1.869320	0.929144	1.213997
H193	H	1.113931	-0.591452	-0.131090
H194	H	1.363931	-0.341452	0.118910
H195	H	1.613931	-0.091452	0.368910
H196	H	1.863931	0.158548	0.618910
H197	H	0.621473	0.268390	0.000040
H198	H	0.871473	0.518390	0.250040
H199	H	1.121473	0.768390	0.500040
H200	H	1.371473	1.018390	0.750040
Cl201	Cl	0.973579	0.285394	0.384225
Cl202	Cl	1.223579	0.535394	0.634225
Cl203	Cl	1.473579	0.785394	0.884225
Cl204	Cl	1.723579	1.035394	1.134225
H205	H	1.124721	-0.050178	-0.131034
H206	H	1.374721	0.199822	0.118966
H207	H	1.624721	0.449822	0.368966
H208	H	1.874721	0.699822	0.618966
Cl209	Cl	1.125037	-0.032751	0.163212
Cl210	Cl	1.375037	0.217249	0.413212
Cl211	Cl	1.625037	0.467249	0.663212
Cl212	Cl	1.875037	0.717249	0.913212
H213	H	0.617161	0.089906	0.000070
H214	H	0.867161	0.339906	0.250070
H215	H	1.117161	0.589906	0.500070
H216	H	1.367161	0.839906	0.750070
H217	H	1.236432	0.093728	0.214371
H218	H	1.486432	0.343728	0.464371
H219	H	1.736432	0.593728	0.714371
H220	H	1.986432	0.843728	0.964371
Cl221	Cl	1.265031	0.072880	0.384248
Cl222	Cl	1.515031	0.322880	0.634248
Cl223	Cl	1.765031	0.572880	0.884248
Cl224	Cl	2.015031	0.822880	1.134248
Cl225	Cl	1.121487	-0.211173	0.163199
Cl226	Cl	1.371487	0.038827	0.413199
Cl227	Cl	1.621487	0.288827	0.663199
Cl228	Cl	1.871487	0.538827	0.913199
H229	H	1.236469	0.093745	0.634367
H230	H	1.486469	0.343745	0.884367
H231	H	1.736469	0.593745	1.134367
H232	H	1.986469	0.843745	1.384367
Cl233	Cl	1.265085	0.072901	0.804247
Cl234	Cl	1.515085	0.322901	1.054247
Cl235	Cl	1.765085	0.572901	1.304247
Cl236	Cl	2.015085	0.822901	1.554247
H237	H	1.121864	-0.193597	-0.131048
H238	H	1.371864	0.056403	0.118952
H239	H	1.621864	0.306403	0.368952
H240	H	1.871864	0.556403	0.618952
Cl241	Cl	0.973627	0.285419	0.804230
Cl242	Cl	1.223627	0.535419	1.054230
Cl243	Cl	1.473627	0.785419	1.304230
Cl244	Cl	1.723627	1.035419	1.554230
H245	H	1.002197	0.264560	0.634355
H246	H	1.252197	0.514560	0.884355
H247	H	1.502197	0.764560	1.134355
H248	H	1.752197	1.014560	1.384355
H249	H	1.002155	0.264540	0.214350
H250	H	1.252155	0.514540	0.464350
H251	H	1.502155	0.764540	0.714350
H252	H	1.752155	1.014540	0.964350
H253	H	1.116804	-0.448045	-0.131075
H254	H	1.366804	-0.198045	0.118925
H255	H	1.616804	0.051955	0.368925
H256	H	1.866804	0.301955	0.618925
Cl257	Cl	1.113570	-0.609041	0.163154
Cl258	Cl	1.363570	-0.359041	0.413154
Cl259	Cl	1.613570	-0.109041	0.663154
Cl260	Cl	1.863570	0.140959	0.913154
Cl261	Cl	1.117122	-0.430611	0.163169
Cl262	Cl	1.367122	-0.180611	0.413169
Cl263	Cl	1.617122	0.069389	0.663169
Cl264	Cl	1.867122	0.319389	0.913169
