data_functionalizedCrystal
_audit_creation_method	'MofGen! by Chris Wilmer'
_symmetry_space_group_name_H-M	'P1'
_symmetry_Int_Tables_number	1
_symmetry_cell_setting	triclinic
loop_
_symmetry_equiv_pos_as_xyz
  x,y,z
_cell_length_a	15.995350
_cell_length_b	15.944551
_cell_length_c	15.072220
_cell_angle_alpha	89.997918
_cell_angle_beta	89.991149
_cell_angle_gamma	83.495557
loop_
_atom_site_label
_atom_site_type_symbol
_atom_site_fract_x
_atom_site_fract_y
_atom_site_fract_z
O1	O	1.111002	0.108264	-0.073709
O2	O	0.867227	0.121634	-0.073728
O3	O	0.995772	-0.007326	-0.073710
O4	O	0.982458	0.237224	-0.073727
O5	O	0.995740	-0.007319	0.073855
O6	O	0.867196	0.121641	0.073837
O7	O	1.110970	0.108271	0.073856
Zn8	Zn	0.989078	0.114957	0.097276
Zn9	Zn	0.989120	0.114948	-0.097148
O10	O	0.982426	0.237232	0.073838
C11	C	0.836017	0.121085	0.000053
C12	C	0.743066	0.119428	0.000046
C13	C	0.405318	0.113477	0.000065
C14	C	0.452747	0.021634	0.000400
C15	C	0.549438	0.023291	0.000061
C16	C	0.572879	0.116429	0.000056
C17	C	0.531813	0.161725	-0.084211
C18	C	0.435177	0.159417	-0.084275
C19	C	0.434802	0.161323	0.083534
C20	C	0.531747	0.161301	0.084642
C21	C	0.667577	0.118102	0.000048
C22	C	0.310620	0.111806	0.000067
C23	C	0.995203	-0.038616	0.000073
C24	C	0.993546	-0.131862	0.000073
C25	C	0.909908	-0.346714	0.000054
C26	C	0.948731	-0.407730	0.072816
C27	C	0.990548	-0.302588	0.000066
C28	C	0.948781	-0.407721	-0.072672
C29	C	0.987647	-0.467501	0.000055
C30	C	1.029394	-0.362376	0.072888
C31	C	1.029433	-0.362360	-0.072665
C32	C	1.068315	-0.423358	0.000114
C33	C	0.992217	-0.207586	0.000073
C34	C	0.985984	-0.562502	0.000055
C35	C	1.142181	0.108821	0.000074
C36	C	1.235131	0.110478	0.000075
C37	C	0.982995	0.268522	0.000053
C38	C	0.984652	0.361768	0.000047
N39	N	0.989055	0.114963	0.229965
N40	N	0.989149	0.114935	-0.229836
C41	C	0.989118	0.114945	0.589166
C42	C	0.920105	0.183717	0.551550
C43	C	0.920264	0.183968	0.448724
C44	C	0.989086	0.114954	0.410962
C45	C	1.076452	0.134096	0.448258
C46	C	1.076065	0.134585	0.551116
C47	C	0.971544	0.026826	0.551271
C48	C	0.969539	0.027414	0.448407
C49	C	0.989074	0.114958	0.310249
C50	C	0.989136	0.114943	0.689879
H51	H	0.416880	0.126380	-0.147262
H52	H	0.914676	-0.427799	-0.134190
N53	N	0.825936	-0.304933	0.000141
N54	N	0.777119	-0.316784	0.062515
H55	H	0.717815	-0.287275	0.062580
H56	H	0.403044	0.229038	0.084100
H57	H	1.092308	0.197628	0.422486
N58	N	0.905920	-0.432946	0.149975
N59	N	0.830662	-0.405177	0.162933
H60	H	0.800421	-0.422983	0.217423
H61	H	1.063459	-0.342384	0.134469
H62	H	0.414251	0.131301	0.147406
N63	N	1.142423	0.074134	0.582323
N64	N	1.188875	0.031723	0.528135
H65	H	1.235742	-0.010968	0.550170
H66	H	1.135309	-0.456521	0.000160
N67	N	1.072197	-0.337118	-0.149837
N68	N	1.044728	-0.351397	-0.225331
H69	H	1.074925	-0.333569	-0.279842
N70	N	0.838680	0.170071	0.417101
N71	N	0.781228	0.160107	0.470997
H72	H	0.723562	0.150449	0.448669
H73	H	0.931487	0.249360	0.424107
H74	H	0.547115	0.229220	0.089727
N75	N	0.838377	0.169639	0.582610
N76	N	0.830035	0.108758	0.632837
H77	H	0.772312	0.098812	0.654778
H78	H	0.909220	0.008419	0.577258
H79	H	0.545942	0.230150	-0.087348
H80	H	0.905272	0.012886	0.424031
N81	N	0.933994	0.265285	0.583965
N82	N	0.994498	0.272987	0.634651
H83	H	1.004310	0.330593	0.657546
H84	H	1.091551	0.198850	0.575095
N85	N	1.028498	-0.039792	0.416154
N86	N	1.086145	-0.024194	0.364820
H87	H	1.127791	-0.071656	0.342040
H88	H	1.129033	0.085338	0.423796
N89	N	1.034681	-0.037371	0.581793
N90	N	1.092400	-0.018424	0.631237
H91	H	1.136993	-0.063756	0.652799
H92	H	0.434210	-0.015075	0.060831
N93	N	0.585077	-0.021384	0.075838
N94	N	0.538545	-0.054010	0.129343
H95	H	0.563711	-0.085570	0.182860
H96	H	0.577307	-0.012561	-0.060445
N97	N	0.428167	-0.024211	-0.074980
N98	N	0.375870	0.010463	-0.128947
H99	H	0.358507	-0.021913	-0.182186
N100	N	0.567450	0.122267	-0.162874
N101	N	0.623080	0.060796	-0.157094
H102	H	0.648258	0.032931	-0.212648
H103	H	0.559048	0.128236	0.146982
N104	N	0.394734	0.244008	-0.089076
N105	N	0.437906	0.304558	-0.092375
H106	H	0.409347	0.364300	-0.095770
