data_functionalizedCrystal
_audit_creation_method	'MofGen! by Chris Wilmer'
_symmetry_space_group_name_H-M	'P1'
_symmetry_Int_Tables_number	1
_symmetry_cell_setting	triclinic
loop_
_symmetry_equiv_pos_as_xyz
  x,y,z
_cell_length_a	10.540539
_cell_length_b	10.540539
_cell_length_c	9.016244
_cell_angle_alpha	90.005301
_cell_angle_beta	89.999933
_cell_angle_gamma	95.474508
loop_
_atom_site_label
_atom_site_type_symbol
_atom_site_fract_x
_atom_site_fract_y
_atom_site_fract_z
O1	O	0.178895	-1.685893	-0.123263
O2	O	0.195751	-1.316480	-0.123280
O3	O	0.002617	-1.509614	-0.123269
O4	O	0.372030	-1.492759	-0.123274
O5	O	0.002621	-1.509586	0.123411
O6	O	0.195755	-1.316452	0.123400
O7	O	0.178900	-1.685865	0.123418
Cu8	Cu	0.187328	-1.501156	0.145933
Cu9	Cu	0.187323	-1.501189	-0.145795
O10	O	0.372034	-1.492730	0.123407
C11	C	0.194489	-1.269163	0.000058
C12	C	0.190707	-1.128215	0.000051
N13	N	0.187331	-1.501141	0.351119
C14	C	-0.044684	-1.508336	0.000068
C15	C	-0.185632	-1.504554	0.000060
C16	C	-0.369059	-1.359637	-0.000500
C17	C	-0.222441	-1.363471	0.000055
C18	C	-0.247287	-1.572434	0.140930
C19	C	-0.393832	-1.567619	0.141049
C20	C	-0.394355	-1.570520	-0.139473
C21	C	-0.247373	-1.571820	-0.141336
C22	C	0.419335	-1.494008	0.000066
C23	C	0.560283	-1.497790	0.000064
C24	C	0.180161	-1.733182	0.000077
C25	C	0.183943	-1.874130	0.000074
C26	C	0.045790	-0.944788	0.000628
C27	C	0.049624	-1.091406	0.000057
C28	C	0.258600	-1.066558	-0.140811
C29	C	0.253785	-0.920014	-0.140914
C30	C	0.256660	-0.919493	0.139608
C31	C	0.257960	-1.066475	0.141455
N32	N	0.187310	-1.501213	-0.350982
C33	C	0.290298	-1.397510	0.586146
C34	C	0.290684	-1.397739	0.414255
C35	C	0.217464	-1.633864	0.413464
C36	C	0.218193	-1.633298	0.585409
C37	C	0.053892	-1.473367	0.585663
C38	C	0.054757	-1.470322	0.413709
H39	H	-0.397661	-1.303918	-0.101521
N40	N	0.017918	-1.354493	0.640079
N41	N	-0.085778	-1.316251	0.601467
H42	H	-0.111174	-1.232290	0.639897
N43	N	-0.217013	-1.700868	-0.151983
N44	N	-0.304188	-1.790009	-0.152341
H45	H	-0.282747	-1.881156	-0.159846
H46	H	-0.180683	-1.309661	0.101200
H47	H	0.362208	-1.088912	-0.146054
H48	H	0.355250	-0.872045	-0.147309
N49	N	0.340314	-1.663829	0.635682
N50	N	0.438472	-1.594505	0.600216
H51	H	0.524726	-1.616063	0.635712
H52	H	0.313702	-1.658762	0.370386
H53	H	-0.441581	-1.672424	-0.140416
N54	N	0.386976	-1.096911	0.152204
N55	N	0.455029	-1.055549	0.258446
H56	H	0.546142	-1.077072	0.266054
N57	N	0.199456	-1.120042	-0.272314
N58	N	0.107318	-1.203548	-0.262657
H59	H	0.065552	-1.241334	-0.355528
H60	H	-0.003797	-1.134008	0.101034
H61	H	0.272446	-1.298584	0.627535
H62	H	-0.004177	-1.133163	-0.101092
H63	H	0.358564	-0.872266	0.140559
H64	H	0.031916	-1.372684	0.372962
H65	H	-0.022762	-1.548979	0.626319
N66	N	-0.406961	-1.290000	0.125513
N67	N	-0.485784	-1.341676	0.215734
H68	H	-0.512557	-1.292499	0.304734
N69	N	-0.429195	-1.504654	0.273147
N70	N	-0.345682	-1.464564	0.364609
H71	H	-0.370650	-1.420092	0.457907
N72	N	-0.168964	-1.296455	-0.126601
N73	N	-0.051271	-1.287821	-0.147853
H74	H	-0.013505	-1.240484	-0.237305
N75	N	0.127761	-1.733078	0.637627
N76	N	0.012709	-1.733377	0.603899
H77	H	-0.051147	-1.803850	0.640786
N78	N	-0.024179	-0.908980	0.127350
N79	N	-0.066051	-0.991706	0.218850
H80	H	-0.115480	-0.966430	0.308351
N81	N	-0.045999	-1.558795	0.359782
N82	N	-0.021628	-1.646400	0.273967
H83	H	-0.092784	-1.708894	0.235879
N84	N	-0.219235	-1.702402	0.147563
N85	N	-0.260620	-1.771822	0.252636
H86	H	-0.240802	-1.863612	0.257324
H87	H	0.388722	-1.415177	0.629339
N88	N	0.195741	-1.117799	0.272208
N89	N	0.256644	-1.175444	0.365441
H90	H	0.212698	-1.211683	0.457791
H91	H	-0.441800	-1.669083	0.147444
H92	H	-0.204686	-1.525258	0.245756
N93	N	-0.023849	-0.906877	-0.125367
N94	N	-0.042250	-0.792408	-0.142665
H95	H	-0.091429	-0.765625	-0.231651
H96	H	-0.206517	-1.522153	-0.245547
N97	N	0.190837	-0.884605	-0.272993
N98	N	0.248105	-0.809647	-0.363417
H99	H	0.203645	-0.784642	-0.456700
H100	H	-0.425910	-1.524871	-0.246244
H101	H	0.272553	-1.299123	0.372106
H102	H	0.211004	-0.887935	0.246381
N103	N	0.414843	-1.420211	0.362597
N104	N	0.436705	-1.424288	0.226506
H105	H	0.524396	-1.440164	0.190020
H106	H	0.144501	-1.712919	0.372564
