data_functionalizedCrystal
_audit_creation_method	'MofGen! by Chris Wilmer'
_symmetry_space_group_name_H-M	'P1'
_symmetry_Int_Tables_number	1
_symmetry_cell_setting	triclinic
loop_
_symmetry_equiv_pos_as_xyz
  x,y,z
_cell_length_a	19.121241
_cell_length_b	25.639240
_cell_length_c	25.639234
_cell_angle_alpha	89.967912
_cell_angle_beta	87.535611
_cell_angle_gamma	92.466620
loop_
_atom_site_label
_atom_site_type_symbol
_atom_site_fract_x
_atom_site_fract_y
_atom_site_fract_z
Zn1	Zn	1.073731	-0.174158	-0.329758
Zn2	Zn	1.073626	-0.261589	-0.242308
Zn3	Zn	0.956274	-0.177888	-0.238598
Zn4	Zn	0.956228	-0.265287	-0.325976
O5	O	1.014965	-0.219731	-0.284160
O6	O	1.172005	-0.182647	-0.321292
O7	O	1.058034	-0.250500	-0.168649
O8	O	0.971919	-0.104226	-0.250721
O9	O	1.171928	-0.246882	-0.257043
O10	O	1.058214	-0.101485	-0.317695
O11	O	0.971817	-0.189005	-0.165924
O12	O	0.857980	-0.192591	-0.247053
O13	O	0.971839	-0.253185	-0.399643
O14	O	0.857946	-0.256803	-0.311249
O15	O	1.058169	-0.186233	-0.402422
O16	O	1.057989	-0.335247	-0.253376
O17	O	0.971737	-0.337964	-0.314847
C18	C	0.832478	-0.225503	-0.278339
C19	C	0.754410	-0.227985	-0.275861
C20	C	0.717774	-0.195761	-0.308199
C21	C	0.644420	-0.198090	-0.305866
C22	C	0.607704	-0.232648	-0.271198
C23	C	0.644345	-0.264874	-0.238856
C24	C	0.717697	-0.262541	-0.241187
C25	C	0.386225	-0.241360	-0.262483
C26	C	0.312868	-0.243691	-0.260156
C27	C	0.312949	-0.176906	-0.327166
C28	C	0.386302	-0.174579	-0.329495
C29	C	0.422937	-0.206803	-0.297152
C30	C	0.532725	-0.235031	-0.268814
C31	C	0.497915	-0.204417	-0.299533
C32	C	1.014866	-0.355576	-0.284115
C33	C	1.014887	-0.413690	-0.284116
C34	C	1.059921	-0.772584	-0.319094
C35	C	1.059942	-0.827187	-0.319106
O36	O	1.098113	-0.854179	-0.348800
N37	N	1.015062	-0.855966	-0.284213
C38	C	0.970154	-0.830139	-0.249311
O39	O	0.931982	-0.859632	-0.219634
C40	C	0.970130	-0.775537	-0.249303
C41	C	1.015018	-0.746760	-0.284194
C42	C	1.104804	-0.743807	-0.353983
C43	C	1.104784	-0.689208	-0.353971
C44	C	1.059881	-0.663384	-0.319070
C45	C	1.014998	-0.692160	-0.284182
C46	C	0.925219	-0.749711	-0.214403
C47	C	0.925199	-0.695104	-0.214398
C48	C	0.970086	-0.666328	-0.249289
C49	C	0.970075	-0.611737	-0.249269
N50	N	1.014954	-0.582958	-0.284161
C51	C	1.059857	-0.608781	-0.319062
C52	C	0.970207	-0.944808	-0.249332
C53	C	0.970233	-0.999410	-0.249337
C54	C	1.060020	-0.996454	-0.319133
C55	C	1.059996	-0.941852	-0.319124
C56	C	1.015086	-0.916029	-0.284224
C57	C	1.059812	-0.494118	-0.319034
C58	C	1.059790	-0.439513	-0.319017
C59	C	0.970001	-0.442474	-0.249223
C60	C	0.970026	-0.497073	-0.249238
C61	C	1.014933	-0.522894	-0.284147
O62	O	0.931921	-0.584710	-0.219591
O63	O	1.098016	-0.579283	-0.348739
C64	C	1.198164	-0.213936	-0.290004
C65	C	1.276232	-0.211466	-0.292494
C66	C	1.015010	-0.219705	-0.420534
C67	C	1.015030	-0.219694	-0.478649
C68	C	1.015084	-0.083354	-0.284216
C69	C	1.015134	-0.025238	-0.284240
C70	C	0.970156	-0.187611	-0.837599
C71	C	0.970160	-0.187602	-0.892203
O72	O	0.931971	-0.160382	-0.919238
N73	N	1.015053	-0.219612	-0.920932
C74	C	1.059941	-0.251637	-0.895054
O75	O	1.098126	-0.278864	-0.924504
C76	C	1.059933	-0.251649	-0.840450
C77	C	1.015042	-0.219633	-0.811724
C78	C	0.925268	-0.155598	-0.808873
C79	C	0.925265	-0.155607	-0.754272
C80	C	0.970151	-0.187629	-0.728398
C81	C	1.015039	-0.219642	-0.757124
C82	C	1.104816	-0.283677	-0.814572
C83	C	1.104804	-0.283687	-0.759965
C84	C	1.059913	-0.251671	-0.731239
C85	C	1.059922	-0.251673	-0.676648
N86	N	1.015028	-0.219663	-0.647919
C87	C	0.970143	-0.187641	-0.673794
C88	C	1.059953	-0.251610	-1.009725
C89	C	1.059965	-0.251596	-1.064327
C90	C	0.970183	-0.187561	-1.061473
C91	C	0.970175	-0.187573	-1.006870
C92	C	1.015060	-0.219600	-0.980996
C93	C	0.970141	-0.187662	-0.559129
C94	C	0.970144	-0.187672	-0.504524
C95	C	1.059923	-0.251709	-0.507382
C96	C	1.059923	-0.251697	-0.561983
C97	C	1.015026	-0.219672	-0.587855
O98	O	1.098089	-0.278881	-0.649579
O99	O	0.931958	-0.160424	-0.644337
C100	C	1.014960	-0.219717	-0.148317
C101	C	1.015076	-0.219576	-0.090207
H102	H	0.614595	-0.171851	-0.332200
N103	N	1.153232	-0.318215	-0.845543
H104	H	1.124667	-0.343344	-0.867272
H105	H	1.185801	-0.295904	-0.869220
H106	H	0.502822	-0.263168	-0.240586
H107	H	1.141369	-0.764827	-0.382407
H108	H	1.096346	-0.416085	-0.347429
N109	N	0.921824	-1.030446	-0.211703
H110	H	0.950393	-1.052195	-0.188405
H111	H	0.893387	-1.005764	-0.189628
N112	N	1.108371	-0.286154	-0.981821
H113	H	1.136809	-0.306427	-1.008310
H114	H	1.140894	-0.263849	-0.960215
H115	H	0.888625	-0.674082	-0.185978
H116	H	0.416192	-0.146440	-0.357728
N117	N	1.108336	-0.286244	-0.479470
H118	H	1.101438	-0.281452	-0.440518
H119	H	1.097443	-0.323924	-0.488711
N120	N	0.273437	-0.142151	-0.362048
H121	H	0.221397	-0.148871	-0.355312
H122	H	0.286276	-0.104391	-0.354389
N123	N	1.153219	-0.318234	-0.732064
H124	H	1.203410	-0.308524	-0.743181
H125	H	1.146351	-0.313372	-0.693120
N126	N	0.757373	-0.158491	-0.345595
H127	H	0.723031	-0.138430	-0.365726
H128	H	0.787810	-0.133297	-0.325327
H129	H	0.527812	-0.176278	-0.327758
N130	N	1.108349	-0.286220	-0.592970
H131	H	1.136785	-0.306505	-0.568291
H132	H	1.079739	-0.311320	-0.614697
H133	H	1.096376	-0.515135	-0.347463
H134	H	0.282975	-0.271835	-0.231924
N135	N	0.921566	-0.414614	-0.211588
H136	H	0.893131	-0.441126	-0.189485
H137	H	0.950162	-0.391050	-0.188317
N138	N	0.921718	-0.153139	-0.473547
H139	H	0.889147	-0.175418	-0.449839
H140	H	0.950328	-0.128012	-0.451850
N141	N	0.921717	-0.153123	-0.587029
H142	H	0.893285	-0.132846	-0.560539
H143	H	0.950328	-0.128016	-0.610610
N144	N	0.876853	-0.121071	-0.723293
H145	H	0.848425	-0.100785	-0.747978
H146	H	0.844322	-0.143379	-0.699586
N147	N	0.425733	-0.276112	-0.227598
H148	H	0.391341	-0.298358	-0.205285
H149	H	0.456169	-0.299371	-0.249797
H150	H	0.614444	-0.293009	-0.210626
N151	N	0.921771	-0.916958	-0.211683
H152	H	0.893348	-0.943479	-0.189581
H153	H	0.950370	-0.893397	-0.188412
N154	N	1.108405	-0.910821	-0.356764
H155	H	1.079834	-0.889076	-0.380063
H156	H	1.140955	-0.887157	-0.336539
N157	N	0.876850	-0.121059	-0.836775
H158	H	0.848416	-0.100784	-0.810284
H159	H	0.905463	-0.095950	-0.860353
H160	H	0.747525	-0.288782	-0.214853
H161	H	1.141333	-0.665781	-0.382384
H162	H	1.096581	-1.017490	-0.347552
H163	H	0.888667	-0.773131	-0.185991
N164	N	0.921622	-0.528114	-0.211601
H165	H	0.893175	-0.503468	-0.189488
H166	H	0.889107	-0.551802	-0.231832
N167	N	0.921760	-0.153040	-0.975889
H168	H	0.893332	-0.132752	-1.000571
H169	H	0.889230	-0.175352	-0.952185
H170	H	0.933634	-0.161487	-1.082550
N171	N	1.108392	-0.286120	-1.095308
H172	H	1.136824	-0.306405	-1.070626
H173	H	1.079785	-0.311220	-1.117037
