data_functionalizedCrystal
_audit_creation_method	'MofGen! by Chris Wilmer'
_symmetry_space_group_name_H-M	'P1'
_symmetry_Int_Tables_number	1
_symmetry_cell_setting	triclinic
loop_
_symmetry_equiv_pos_as_xyz
  x,y,z
_cell_length_a	10.654550
_cell_length_b	9.482944
_cell_length_c	10.654550
_cell_angle_alpha	79.656143
_cell_angle_beta	95.515069
_cell_angle_gamma	100.388288
loop_
_atom_site_label
_atom_site_type_symbol
_atom_site_fract_x
_atom_site_fract_y
_atom_site_fract_z
O1	O	1.685533	0.120787	-0.193993
O2	O	1.320058	0.120813	-0.210803
O3	O	1.511197	0.120790	-0.019658
O4	O	1.494394	0.120810	-0.385139
O5	O	1.475765	-0.121001	0.015569
O6	O	1.284626	-0.120978	-0.175577
O7	O	1.650101	-0.121005	-0.158767
Cu8	Cu	1.464128	-0.143069	-0.163955
Cu9	Cu	1.506031	0.142877	-0.205615
O10	O	1.458962	-0.120982	-0.349912
C11	C	1.255545	-0.000079	-0.191957
C12	C	1.116103	-0.000069	-0.188266
C13	C	1.036618	-0.000067	-0.300808
C14	C	0.905593	-0.000093	-0.297328
C15	C	0.933553	-0.000116	-0.068755
C16	C	1.064573	-0.000101	-0.072235
N17	N	1.434665	-0.344188	-0.134654
C18	C	1.497332	-0.416389	-0.196971
C19	C	1.472828	-0.583806	-0.172580
C20	C	1.714615	-0.000109	-0.177614
C21	C	1.854058	-0.000110	-0.181306
C22	C	1.492247	-0.000105	0.044753
C23	C	1.488556	-0.000102	0.184196
N24	N	1.535504	0.343997	-0.234907
C25	C	1.477912	-0.000084	-0.414324
C26	C	1.481605	-0.000077	-0.553768
C27	C	1.601096	-0.000110	0.263683
C28	C	1.597622	-0.000092	0.394701
C29	C	1.369057	-0.000065	0.366734
C30	C	1.372534	-0.000072	0.235717
H31	H	0.891580	-0.000150	0.025715
H32	H	1.280884	-0.000062	0.170994
H33	H	1.274595	-0.000043	0.408699
H34	H	1.607303	-0.593882	-0.306319
H35	H	1.078567	-0.000052	-0.395286
F36	F	1.340833	-0.425388	-0.041307
H37	H	0.840880	-0.000094	-0.388970
F38	F	1.149172	-0.000112	0.047556
F39	F	1.724577	-0.000140	0.208855
F40	F	1.378992	-0.665000	-0.079228
F41	F	1.717404	-0.000097	0.479292
H42	H	1.569128	-0.354260	-0.268376
