data_functionalizedCrystal
_audit_creation_method	'MofGen! by Chris Wilmer'
_symmetry_space_group_name_H-M	'P1'
_symmetry_Int_Tables_number	1
_symmetry_cell_setting	triclinic
loop_
_symmetry_equiv_pos_as_xyz
  x,y,z
_cell_length_a	13.635800
_cell_length_b	17.458045
_cell_length_c	17.982968
_cell_angle_alpha	84.866424
_cell_angle_beta	102.451960
_cell_angle_gamma	73.632038
loop_
_atom_site_label
_atom_site_type_symbol
_atom_site_fract_x
_atom_site_fract_y
_atom_site_fract_z
V1	V	2.015055	-0.111316	0.238230
O2	O	2.001102	0.004579	0.232998
O3	O	1.998186	-0.219980	0.237271
O4	O	1.988216	-0.109942	0.341825
O5	O	2.011141	-0.106221	0.127721
V6	V	2.256261	-0.097414	0.224931
O7	O	2.146903	-0.141812	0.267403
O8	O	2.349512	-0.066918	0.195758
O9	O	2.161526	0.011250	0.225890
O10	O	2.328912	-0.213308	0.230163
O11	O	2.318873	-0.102508	0.335440
O12	O	2.171497	-0.098788	0.121336
V13	V	2.515055	-0.111316	0.238230
O14	O	2.501102	0.004579	0.232998
O15	O	2.498186	-0.219980	0.237271
O16	O	2.488216	-0.109942	0.341825
O17	O	2.511141	-0.106221	0.127721
V18	V	2.756261	-0.097414	0.224931
O19	O	2.646903	-0.141812	0.267403
O20	O	2.849512	-0.066918	0.195758
O21	O	2.661526	0.011250	0.225890
O22	O	2.828912	-0.213308	0.230163
O23	O	2.818873	-0.102508	0.335440
O24	O	2.671497	-0.098788	0.121336
C25	C	1.922555	-0.246459	0.233686
C26	C	1.949389	-0.335295	0.233592
C27	C	1.870760	-0.372951	0.229720
C28	C	1.895976	-0.456421	0.229623
C29	C	1.999824	-0.502234	0.233403
C30	C	2.078458	-0.464573	0.237272
C31	C	2.053239	-0.381104	0.237364
C32	C	2.085029	-0.752308	0.233534
C33	C	2.110243	-0.835784	0.233444
C34	C	1.927759	-0.827625	0.225793
C35	C	1.902550	-0.744155	0.225890
C36	C	1.981184	-0.706501	0.229755
N37	N	2.025602	-0.587555	0.233306
N38	N	1.955404	-0.621181	0.229846
C39	C	1.909837	-0.106093	0.367054
C40	C	1.928583	-0.105689	0.451747
C41	C	2.068828	0.037726	0.229473
C42	C	2.031614	0.126561	0.229572
C43	C	2.081547	-0.102638	0.096104
C44	C	2.052420	-0.103039	0.011409
C45	C	2.422555	-0.246459	0.233686
C46	C	2.449389	-0.335295	0.233592
C47	C	2.409837	-0.106093	0.367054
C48	C	2.428583	-0.105689	0.451747
C49	C	2.028620	-0.109503	0.495442
C50	C	2.046229	-0.109123	0.575020
C51	C	1.963800	-0.104933	0.610903
C52	C	1.863754	-0.101116	0.567202
C53	C	1.846145	-0.101491	0.487624
C54	C	1.934765	-0.099603	0.888130
C55	C	1.952383	-0.099230	0.967714
C56	C	2.134849	-0.107234	0.975526
C57	C	2.117240	-0.107609	0.895948
C58	C	2.017195	-0.103788	0.852253
C59	C	1.998102	-0.104199	0.765965
C60	C	1.982893	-0.104528	0.697191
C61	C	2.568828	0.037726	0.229473
C62	C	2.531614	0.126561	0.229572
C63	C	2.581547	-0.102638	0.096104
C64	C	2.552420	-0.103039	0.011409
C65	C	2.553239	-0.381101	0.237379
C66	C	2.578469	-0.464574	0.237303
C67	C	2.499847	-0.502240	0.233433
C68	C	2.395989	-0.456429	0.229648
C69	C	2.370761	-0.372958	0.229730
C70	C	2.528625	-0.109495	0.495428
C71	C	2.546250	-0.109105	0.575006
C72	C	2.463833	-0.104913	0.610902
C73	C	2.363782	-0.101104	0.567214
C74	C	2.346157	-0.101489	0.487637
C75	C	2.600258	0.172366	0.225787
C76	C	2.565299	0.255839	0.225867
C77	C	2.461699	0.293505	0.229738
C78	C	2.393050	0.247694	0.233521
C79	C	2.428006	0.164224	0.233436
C80	C	2.452605	-0.107222	-0.024467
C81	C	2.425218	-0.107588	-0.104048
C82	C	2.497651	-0.103779	-0.147749
C83	C	2.597473	-0.099593	-0.111868
C84	C	2.624856	-0.099221	-0.032290
H85	H	1.786200	-0.335656	0.226648
H86	H	2.627723	-0.112210	0.610565
H87	H	2.372104	0.126934	0.236525
Cl88	Cl	2.297159	-0.503792	0.224779
H89	H	2.433248	0.361472	0.229807
Cl90	Cl	2.299728	-0.112857	-0.149137
Cl91	Cl	2.260623	-0.112034	1.030461
H92	H	1.885253	-0.095817	0.996926
H93	H	2.308695	0.278374	0.236673
Cl94	Cl	2.651618	0.313412	0.221112
H95	H	2.127686	-0.112224	0.610593
H96	H	2.117268	-0.350445	0.240512
H97	H	2.286194	-0.335668	0.226641
Cl98	Cl	2.361526	-0.112010	0.030455
H99	H	2.478199	-0.104601	0.675699
Cl100	Cl	2.463212	-0.104252	-0.247790
H101	H	2.656440	-0.096489	-0.147462
H102	H	2.296685	-0.097692	0.596453
H103	H	2.520403	-0.570208	0.233367
Cl104	Cl	1.809003	-0.094821	0.833212
Cl105	Cl	2.730504	0.125033	0.220918
Cl106	Cl	2.220872	-0.112880	0.850844
H107	H	2.706138	-0.095820	-0.003085
H108	H	2.595746	-0.112911	0.466213
Cl109	Cl	1.797117	-0.503753	0.224739
H110	H	2.264692	-0.098391	0.452078
H111	H	1.817987	-0.706858	0.222808
H112	H	2.617270	-0.350444	0.240526
Cl113	Cl	1.828912	-0.874967	0.220929
H114	H	2.194811	-0.873084	0.236522
H115	H	2.149064	-0.721661	0.236688
Cl116	Cl	1.720376	-0.096688	0.432692
Cl117	Cl	2.132256	-0.114776	0.450341
Cl118	Cl	1.760128	-0.095850	0.612312
Cl119	Cl	2.709036	-0.522147	0.242058
Cl120	Cl	2.209007	-0.522166	0.242014
