data_functionalizedCrystal
_audit_creation_method	'MofGen! by Chris Wilmer'
_symmetry_space_group_name_H-M	'P1'
_symmetry_Int_Tables_number	1
_symmetry_cell_setting	triclinic
loop_
_symmetry_equiv_pos_as_xyz
  x,y,z
_cell_length_a	16.109318
_cell_length_b	14.519731
_cell_length_c	14.586319
_cell_angle_alpha	89.995223
_cell_angle_beta	90.000075
_cell_angle_gamma	83.578708
loop_
_atom_site_label
_atom_site_type_symbol
_atom_site_fract_x
_atom_site_fract_y
_atom_site_fract_z
O1	O	1.103335	0.118615	-0.076166
O2	O	1.353335	0.368615	0.173834
O3	O	1.603335	0.618615	0.423834
O4	O	1.853335	0.868615	0.673834
O5	O	0.861302	0.133350	-0.076185
O6	O	1.111302	0.383350	0.173815
O7	O	1.361302	0.633350	0.423815
O8	O	1.611302	0.883350	0.673815
O9	O	0.988727	-0.008268	-0.076167
O10	O	1.238727	0.241732	0.173833
O11	O	1.488727	0.491732	0.423833
O12	O	1.738727	0.741732	0.673833
O13	O	0.975911	0.260233	-0.076184
O14	O	1.225911	0.510233	0.173816
O15	O	1.475911	0.760233	0.423816
O16	O	1.725911	1.010233	0.673816
O17	O	0.988718	-0.008270	0.076314
O18	O	1.238718	0.241730	0.326314
O19	O	1.488718	0.491730	0.576314
O20	O	1.738718	0.741730	0.826314
O21	O	0.861293	0.133348	0.076296
O22	O	1.111293	0.383348	0.326296
O23	O	1.361293	0.633348	0.576296
O24	O	1.611293	0.883348	0.826296
O25	O	1.103326	0.118613	0.076315
O26	O	1.353326	0.368613	0.326315
O27	O	1.603326	0.618613	0.576315
O28	O	1.853326	0.868613	0.826315
Cu29	Cu	0.982309	0.125980	0.090228
Cu30	Cu	1.232309	0.375980	0.340228
Cu31	Cu	1.482309	0.625980	0.590228
Cu32	Cu	1.732309	0.875980	0.840228
Cu33	Cu	0.982319	0.125983	-0.090098
Cu34	Cu	1.232319	0.375983	0.159902
Cu35	Cu	1.482319	0.625983	0.409902
Cu36	Cu	1.732319	0.875983	0.659902
O37	O	0.975902	0.260231	0.076296
O38	O	1.225902	0.510231	0.326296
O39	O	1.475902	0.760231	0.576296
O40	O	1.725902	1.010231	0.826296
C41	C	0.830322	0.132749	0.000053
C42	C	1.080322	0.382749	0.250053
C43	C	1.330322	0.632749	0.500053
C44	C	1.580322	0.882749	0.750053
C45	C	0.738024	0.130951	0.000046
C46	C	0.988024	0.380951	0.250046
C47	C	1.238024	0.630951	0.500046
C48	C	1.488024	0.880951	0.750046
C49	C	0.438945	0.125146	-0.083055
C50	C	0.688945	0.375146	0.166945
C51	C	0.938945	0.625146	0.416945
C52	C	1.188945	0.875146	0.666945
C53	C	0.525669	0.126829	-0.083060
C54	C	0.775669	0.376829	0.166940
C55	C	1.025669	0.626829	0.416940
C56	C	1.275669	0.876829	0.666940
C57	C	0.525678	0.126814	0.083183
C58	C	0.775678	0.376814	0.333183
C59	C	1.025678	0.626814	0.583183
C60	C	1.275678	0.876814	0.833183
C61	C	0.438956	0.125124	0.083187
C62	C	0.688956	0.375124	0.333187
C63	C	0.938956	0.625124	0.583187
C64	C	1.188956	0.875124	0.833187
C65	C	0.395591	0.124295	0.000066
C66	C	0.645591	0.374295	0.250066
C67	C	0.895591	0.624295	0.500066
C68	C	1.145591	0.874295	0.750066
C69	C	0.569037	0.127668	0.000056
C70	C	0.819037	0.377668	0.250056
C71	C	1.069037	0.627668	0.500056
C72	C	1.319037	0.877668	0.750056
C73	C	0.663068	0.129493	0.000050
C74	C	0.913068	0.379493	0.250050
C75	C	1.163068	0.629493	0.500050
C76	C	1.413068	0.879493	0.750050
C77	C	0.301555	0.122468	0.000071
C78	C	0.551555	0.372468	0.250071
C79	C	0.801555	0.622468	0.500071
C80	C	1.051555	0.872468	0.750071
C81	C	0.988122	-0.042627	0.000074
C82	C	1.238122	0.207373	0.250074
C83	C	1.488122	0.457373	0.500074
C84	C	1.738122	0.707373	0.750074
C85	C	0.986322	-0.145004	0.000074
C86	C	1.236322	0.104996	0.250074
C87	C	1.486322	0.354996	0.500074
C88	C	1.736322	0.604996	0.750074
C89	C	0.984860	-0.228145	0.000072
C90	C	1.234860	0.021855	0.250072
C91	C	1.484860	0.271855	0.500072
C92	C	1.734860	0.521855	0.750072
C93	C	0.983033	-0.332450	0.000065
C94	C	1.233033	-0.082450	0.250065
C95	C	1.483033	0.167550	0.500065
C96	C	1.733033	0.417550	0.750065
C97	C	0.981583	-0.415586	0.000059
C98	C	1.231583	-0.165586	0.250059
C99	C	1.481583	0.084414	0.500059
C100	C	1.731583	0.334414	0.750059
C101	C	0.979756	-0.519897	0.000053
C102	C	1.229756	-0.269897	0.250053
C103	C	1.479756	-0.019897	0.500053
C104	C	1.729756	0.230103	0.750053
C105	C	1.134307	0.119213	0.000075
C106	C	1.384307	0.369213	0.250075
C107	C	1.634307	0.619213	0.500075
C108	C	1.884307	0.869213	0.750075
C109	C	1.226604	0.121011	0.000076
C110	C	1.476604	0.371011	0.250076
C111	C	1.726604	0.621011	0.500076
C112	C	1.976604	0.871011	0.750076
C113	C	0.976507	0.294590	0.000054
C114	C	1.226507	0.544590	0.250054
C115	C	1.476507	0.794590	0.500054
C116	C	1.726507	1.044590	0.750054
C117	C	0.978306	0.396966	0.000047
C118	C	1.228306	0.646966	0.250047
C119	C	1.478306	0.896966	0.500047
C120	C	1.728306	1.146966	0.750047
N121	N	0.982308	0.125978	0.217060
N122	N	1.232308	0.375978	0.467060
N123	N	1.482308	0.625978	0.717060
N124	N	1.732308	0.875978	0.967060
N125	N	0.982327	0.125978	-0.216930
N126	N	1.232327	0.375978	0.033070
N127	N	1.482327	0.625978	0.283070
N128	N	1.732327	0.875978	0.533070
C129	C	1.038750	0.063290	0.452074
C130	C	1.288750	0.313290	0.702074
C131	C	1.538750	0.563290	0.952074
C132	C	1.788750	0.813290	1.202074
C133	C	1.038752	0.063288	0.548056
C134	C	1.288752	0.313288	0.798056
C135	C	1.538752	0.563288	1.048056
C136	C	1.788752	0.813288	1.298056
C137	C	0.925879	0.188668	0.548049
C138	C	1.175879	0.438668	0.798049
C139	C	1.425879	0.688668	1.048049
C140	C	1.675879	0.938668	1.298049
C141	C	0.925873	0.188665	0.452069
C142	C	1.175873	0.438665	0.702069
C143	C	1.425873	0.688665	0.952069
C144	C	1.675873	0.938665	1.202069
C145	C	0.982313	0.125977	0.404085
C146	C	1.232313	0.375977	0.654085
C147	C	1.482313	0.625977	0.904085
C148	C	1.732313	0.875977	1.154085
C149	C	0.982321	0.125978	0.596045
C150	C	1.232321	0.375978	0.846045
C151	C	1.482321	0.625978	1.096045
C152	C	1.732321	0.875978	1.346045
C153	C	0.982324	0.125976	0.700112
C154	C	1.232324	0.375976	0.950112
C155	C	1.482324	0.625976	1.200112
C156	C	1.732324	0.875976	1.450112
C157	C	0.982310	0.125978	0.300011
C158	C	1.232310	0.375978	0.550011
C159	C	1.482310	0.625978	0.800011
C160	C	1.732310	0.875978	1.050011
H161	H	0.560964	0.127521	-0.150745
H162	H	0.810964	0.377521	0.099255
H163	H	1.060964	0.627521	0.349255
H164	H	1.310964	0.877521	0.599255
Br165	Br	0.849269	0.273739	0.386933
Br166	Br	1.099269	0.523739	0.636933
Br167	Br	1.349269	0.773739	0.886933
Br168	Br	1.599269	1.023739	1.136933
Br169	Br	0.584535	0.127948	0.195985
Br170	Br	0.834535	0.377948	0.445985
Br171	Br	1.084535	0.627948	0.695985
Br172	Br	1.334535	0.877948	0.945985
H173	H	0.403657	0.124431	0.150878
H174	H	0.653657	0.374431	0.400878
H175	H	0.903657	0.624431	0.650878
H176	H	1.153657	0.874431	0.900878
Br177	Br	1.115345	-0.021787	0.386955
Br178	Br	1.365345	0.228213	0.636955
Br179	Br	1.615345	0.478213	0.886955
Br180	Br	1.865345	0.728213	1.136955
Br181	Br	1.115344	-0.021795	0.613183
Br182	Br	1.365344	0.228205	0.863183
Br183	Br	1.615344	0.478205	1.113183
Br184	Br	1.865344	0.728205	1.363183
H185	H	0.403639	0.124469	-0.150737
H186	H	0.653639	0.374469	0.099263
H187	H	0.903639	0.624469	0.349263
H188	H	1.153639	0.874469	0.599263
Br189	Br	0.849286	0.273743	0.613174
Br190	Br	1.099286	0.523743	0.863174
Br191	Br	1.349286	0.773743	1.113174
Br192	Br	1.599286	1.023743	1.363174
