data_functionalizedCrystal
_audit_creation_method	'MofGen! by Chris Wilmer'
_symmetry_space_group_name_H-M	'P1'
_symmetry_Int_Tables_number	1
_symmetry_cell_setting	triclinic
loop_
_symmetry_equiv_pos_as_xyz
  x,y,z
_cell_length_a	15.944551
_cell_length_b	19.288864
_cell_length_c	18.366186
_cell_angle_alpha	90.022894
_cell_angle_beta	89.992809
_cell_angle_gamma	96.682508
loop_
_atom_site_label
_atom_site_type_symbol
_atom_site_fract_x
_atom_site_fract_y
_atom_site_fract_z
O1	O	0.104784	-0.921629	-0.060785
O2	O	0.118919	-0.719405	-0.060735
O3	O	-0.010445	-0.826039	-0.060755
O4	O	0.234147	-0.814995	-0.060765
O5	O	-0.010451	-0.826021	0.060345
O6	O	0.118912	-0.719387	0.060364
O7	O	0.104777	-0.921611	0.060315
Zn8	Zn	0.111844	-0.820496	0.079567
Zn9	Zn	0.111852	-0.820520	-0.079987
O10	O	0.234141	-0.814977	0.060334
C11	C	0.118461	-0.693519	-0.000179
C12	C	0.117095	-0.616411	-0.000160
C13	C	-0.041740	-0.825572	-0.000205
C14	C	-0.134981	-0.824197	-0.000204
N15	N	0.111838	-0.820485	0.188458
C16	C	-0.349571	-0.754815	-0.000197
C17	C	-0.410715	-0.787025	0.059504
C18	C	-0.305697	-0.821710	-0.000209
C19	C	-0.410692	-0.787058	-0.059890
C20	C	-0.470601	-0.819303	-0.000217
C21	C	-0.365614	-0.853939	0.059542
C22	C	-0.365585	-0.853963	-0.059906
C23	C	-0.426712	-0.886222	-0.000190
C24	C	-0.210700	-0.823095	-0.000204
C25	C	-0.565597	-0.817924	-0.000217
C26	C	0.265436	-0.815444	-0.000217
C27	C	0.358677	-0.816819	-0.000223
C28	C	0.105235	-0.947497	-0.000243
C29	C	0.106600	-1.024605	-0.000267
C30	C	0.193000	-0.571915	-0.000175
C31	C	0.191717	-0.499465	-0.000183
C32	C	0.114526	-0.471514	-0.000191
C33	C	0.038611	-0.516020	-0.000172
C34	C	0.039896	-0.588469	-0.000156
C35	C	0.053847	-0.363098	-0.042639
C36	C	0.052565	-0.290650	-0.042659
C37	C	0.110560	-0.248058	-0.000234
C38	C	0.169850	-0.277920	0.042200
C39	C	0.171135	-0.350369	0.042216
C40	C	0.113124	-0.392956	-0.000207
C41	C	0.185079	-0.125002	-0.000257
C42	C	0.183793	-0.052550	-0.000260
C43	C	0.030684	-0.069107	-0.000257
C44	C	0.031972	-0.141557	-0.000246
C45	C	0.109172	-0.169500	-0.000249
N46	N	0.111852	-0.820537	-0.188878
C47	C	0.054583	-0.867718	0.226549
C48	C	0.054580	-0.867722	0.302777
C49	C	0.111844	-0.820500	0.340910
C50	C	0.169103	-0.773258	0.302810
C51	C	0.169100	-0.773251	0.226583
C52	C	0.188378	-0.811404	0.461669
C53	C	0.188383	-0.811416	0.537894
C54	C	0.111855	-0.820520	0.576018
C55	C	0.035320	-0.829626	0.537908
C56	C	0.035316	-0.829618	0.461681
C57	C	0.111854	-0.820503	0.423565
C58	C	0.054592	-0.867760	0.696765
C59	C	0.054587	-0.867760	0.772994
C60	C	0.169118	-0.773299	0.773025
C61	C	0.169115	-0.773296	0.696797
C62	C	0.111853	-0.820531	0.658671
H63	H	-0.316049	-0.699288	-0.000124
N64	N	-0.339304	-0.891375	0.126479
H65	H	-0.310751	-0.933179	0.111333
H66	H	-0.298769	-0.858560	0.156155
H67	H	-0.026997	-0.837039	0.568947
N68	N	-0.470923	-0.959834	-0.000171
H69	H	-0.454549	-0.984997	0.044941
H70	H	-0.534046	-0.958452	-0.000627
N71	N	-0.339059	-0.891426	-0.126781
H72	H	-0.355262	-0.866118	-0.171855
H73	H	-0.275883	-0.892463	-0.125961
N74	N	0.232411	-0.231999	0.087966
H75	H	0.267956	-0.198054	0.055464
H76	H	0.200972	-0.205305	0.124241
H77	H	0.006619	-0.397772	-0.077190
N78	N	-0.437161	-0.749579	-0.126742
H79	H	-0.408805	-0.699950	-0.126673
H80	H	-0.419942	-0.774403	-0.171811
H81	H	-0.029838	-0.177787	-0.000238
N82	N	0.230883	-0.722362	0.655709
H83	H	0.222192	-0.729522	0.601634
H84	H	0.221334	-0.673090	0.669059
H85	H	0.007955	-0.906186	0.333797
N86	N	0.268341	-0.155142	-0.000256
H87	H	0.301581	-0.138894	0.044634
H88	H	0.257569	-0.207786	-0.000277
N89	N	0.276261	-0.602054	-0.000184
H90	H	0.324153	-0.562867	-0.000196
H91	H	0.280136	-0.631728	0.044714
N92	N	0.273588	-0.451460	-0.000200
H93	H	0.322688	-0.480155	-0.000200
H94	H	0.276382	-0.421068	-0.045102
N95	N	0.235074	-0.382580	0.087983
H96	H	0.271622	-0.344610	0.114859
H97	H	0.204692	-0.415961	0.124227
N98	N	-0.007162	-0.918710	0.814085
H99	H	0.024858	-0.949455	0.845691
H100	H	-0.044260	-0.892127	0.845690
H101	H	0.215728	-0.734808	0.333861
H102	H	0.250702	-0.804006	0.568917
N103	N	-0.047224	-0.839437	0.420575
H104	H	-0.095708	-0.845206	0.456288
H105	H	-0.051998	-0.797239	0.388972
H106	H	0.215741	-0.734848	0.804072
H107	H	0.245606	-0.016321	-0.000268
H108	H	0.004290	-0.266342	-0.077214
H109	H	-0.032167	-0.046351	-0.000308
N110	N	-0.437205	-0.749546	0.126386
H111	H	-0.408851	-0.699916	0.126357
H112	H	-0.500517	-0.749344	0.126100
N113	N	-0.044647	-0.485878	-0.000172
H114	H	-0.033944	-0.433230	-0.000184
H115	H	-0.077854	-0.502182	-0.045058
H116	H	-0.021917	-0.624699	-0.000145
H117	H	0.007955	-0.906177	0.195510
N118	N	-0.007167	-0.918700	0.655637
H119	H	-0.043444	-0.948620	0.691338
H120	H	-0.044219	-0.892108	0.624026
H121	H	0.250700	-0.803978	0.430635
N122	N	0.230852	-0.722302	0.185493
H123	H	0.267127	-0.692384	0.221214
H124	H	0.267906	-0.748887	0.153847
