data_functionalizedCrystal
_audit_creation_method	'MofGen! by Chris Wilmer'
_symmetry_space_group_name_H-M	'P1'
_symmetry_Int_Tables_number	1
_symmetry_cell_setting	triclinic
loop_
_symmetry_equiv_pos_as_xyz
  x,y,z
_cell_length_a	21.395364
_cell_length_b	12.759400
_cell_length_c	12.759386
_cell_angle_alpha	89.936073
_cell_angle_beta	89.956902
_cell_angle_gamma	90.028117
loop_
_atom_site_label
_atom_site_type_symbol
_atom_site_fract_x
_atom_site_fract_y
_atom_site_fract_z
Zn1	Zn	0.958050	-0.417438	-0.594080
Zn2	Zn	1.458050	0.082562	-0.094080
Zn3	Zn	0.957951	-0.593259	-0.418403
Zn4	Zn	1.457951	-0.093259	0.081597
Zn5	Zn	0.853231	-0.417641	-0.418409
Zn6	Zn	1.353231	0.082359	0.081591
Zn7	Zn	0.853267	-0.593121	-0.594035
Zn8	Zn	1.353267	-0.093121	-0.094035
O9	O	0.905625	-0.505365	-0.506232
O10	O	1.405625	-0.005365	-0.006232
O11	O	1.045715	-0.440734	-0.570792
O12	O	1.545715	0.059266	-0.070792
O13	O	0.944003	-0.570106	-0.271383
O14	O	1.444003	-0.070106	0.228617
O15	O	0.867163	-0.270593	-0.441734
O16	O	1.367163	0.229407	0.058266
O17	O	1.045642	-0.569909	-0.441723
O18	O	1.545642	-0.069909	0.058277
O19	O	0.944173	-0.270444	-0.570798
O20	O	1.444173	0.229556	-0.070798
O21	O	0.867066	-0.441080	-0.271387
O22	O	1.367066	0.058920	0.228613
O23	O	0.765558	-0.440946	-0.441690
O24	O	1.265558	0.059054	0.058310
O25	O	0.867223	-0.569674	-0.741062
O26	O	1.367223	-0.069674	-0.241062
O27	O	0.765584	-0.569871	-0.570722
O28	O	1.265584	-0.069871	-0.070722
O29	O	0.944207	-0.440600	-0.741095
O30	O	1.444207	0.059400	-0.241095
O31	O	0.944038	-0.740262	-0.441680
O32	O	1.444038	-0.240262	0.058320
O33	O	0.867126	-0.740161	-0.570716
O34	O	1.367126	-0.240161	-0.070716
C35	C	0.742837	-0.505416	-0.506202
C36	C	1.242837	-0.005416	-0.006202
C37	C	0.673196	-0.505463	-0.506215
C38	C	1.173196	-0.005463	-0.006215
C39	C	0.640543	-0.438311	-0.573525
C40	C	1.140543	0.061689	-0.073525
C41	C	0.575108	-0.438284	-0.573529
C42	C	1.075108	0.061716	-0.073529
C43	C	0.542328	-0.505426	-0.506234
C44	C	1.042328	-0.005426	-0.006234
C45	C	0.574988	-0.572582	-0.438911
C46	C	1.074988	-0.072582	0.061089
C47	C	0.640422	-0.572601	-0.438901
C48	C	1.140422	-0.072601	0.061099
C49	C	0.438619	-0.600048	-0.497796
C50	C	0.938619	-0.100048	0.002204
C51	C	0.373186	-0.600031	-0.497813
C52	C	0.873186	-0.100031	0.002187
C53	C	0.340507	-0.505368	-0.506257
C54	C	0.840507	-0.005368	-0.006257
C55	C	0.373269	-0.410719	-0.514706
C56	C	0.873269	0.089281	-0.014706
C57	C	0.438703	-0.410737	-0.514697
C58	C	0.938703	0.089263	-0.014697
C59	C	0.471375	-0.505413	-0.506236
C60	C	0.971375	-0.005413	-0.006236
C61	C	0.236902	-0.438181	-0.573575
C62	C	0.736902	0.061819	-0.073575
C63	C	0.171465	-0.438151	-0.573572
C64	C	0.671465	0.061849	-0.073572
C65	C	0.171347	-0.572459	-0.438959
C66	C	0.671347	-0.072459	0.061041
C67	C	0.236782	-0.572479	-0.438957
C68	C	0.736782	-0.072479	0.061043
C69	C	0.269556	-0.505342	-0.506271
C70	C	0.769556	-0.005342	-0.006271
C71	C	0.905592	-0.778332	-0.506215
C72	C	1.405592	-0.278332	-0.006215
C73	C	0.905635	-0.895109	-0.506243
C74	C	1.405635	-0.395109	-0.006243
C75	C	0.945714	-0.949813	-0.573502
C76	C	1.445714	-0.449813	-0.073502
C77	C	0.945743	-1.059537	-0.573528
C78	C	1.445743	-0.559537	-0.073528
C79	C	0.865613	-1.059843	-0.439027
C80	C	1.365613	-0.559843	0.060973
C81	C	0.865581	-0.950121	-0.439007
C82	C	1.365581	-0.450121	0.060993
C83	C	0.991979	-0.949638	-0.651152
C84	C	1.491979	-0.449638	-0.151152
C85	C	0.992008	-1.059362	-0.651178
C86	C	1.492008	-0.559362	-0.151178
C87	C	1.069048	-0.505314	-0.506262
C88	C	1.569048	-0.005314	-0.006262
C89	C	1.138689	-0.505293	-0.506275
C90	C	1.638689	-0.005293	-0.006275
C91	C	0.905730	-0.505099	-0.780266
C92	C	1.405730	-0.005099	-0.280266
C93	C	0.905775	-0.504985	-0.897043
C94	C	1.405775	-0.004985	-0.397043
C95	C	0.905675	-0.231332	-0.506272
C96	C	1.405675	0.268668	-0.006272
C97	C	0.905696	-0.114555	-0.506288
C98	C	1.405696	0.385445	-0.006288
C99	C	0.905556	-0.505554	-0.233264
C100	C	1.405556	-0.005554	0.266736
C101	C	0.905633	-0.505372	-0.116488
C102	C	1.405633	-0.005372	0.383512
C103	C	0.865949	-0.572767	0.048417
C104	C	1.365949	-0.072767	0.548417
C105	C	0.865879	-0.572963	-0.061307
C106	C	1.365879	-0.072963	0.438693
C107	C	0.945463	-0.437587	-0.061940
C108	C	1.445463	0.062413	0.438060
C109	C	0.945535	-0.437397	0.047782
C110	C	1.445535	0.062603	0.547782
C111	C	0.819999	-0.650921	0.048781
C112	C	1.319999	-0.150921	0.548781
C113	C	0.819930	-0.651118	-0.060942
C114	C	1.319930	-0.151118	0.439058
H115	H	0.346663	-0.333635	-0.521583
H116	H	0.846663	0.166365	-0.021583
H117	H	0.837608	-0.728257	-0.094807
H118	H	1.337608	-0.228257	0.405193
H119	H	0.978969	-0.919778	-0.732498
H120	H	1.478969	-0.419778	-0.232498
H121	H	0.548294	-0.627249	-0.384118
H122	H	1.048294	-0.127249	0.115882
H123	H	0.667008	-0.627286	-0.384088
H124	H	1.167008	-0.127286	0.115912
H125	H	0.771296	-0.629977	-0.090631
H126	H	1.271296	-0.129977	0.409369
Cl127	Cl	0.815260	-1.129008	-0.354508
Cl128	Cl	1.315260	-0.629008	0.145492
Cl129	Cl	0.681741	-0.353907	-0.658145
Cl130	Cl	1.181741	0.146093	-0.158145
Cl131	Cl	0.995613	-0.352197	0.116344
Cl132	Cl	1.495613	0.147803	0.616344
Cl133	Cl	0.479887	-0.291756	-0.525312
Cl134	Cl	0.979887	0.208244	-0.025312
H135	H	0.263587	-0.383506	-0.628379
H136	H	0.763587	0.116494	-0.128379
Cl137	Cl	0.995446	-0.352625	-0.131311
Cl138	Cl	1.495446	0.147375	0.368689
H139	H	0.832940	-0.905581	-0.384249
H140	H	1.332940	-0.405581	0.115751
Cl141	Cl	0.748685	-0.606716	0.101430
Cl142	Cl	1.248685	-0.106716	0.601430
Cl143	Cl	0.840613	-0.776213	0.095054
Cl144	Cl	1.340613	-0.276213	0.595054
Cl145	Cl	0.130415	-0.353719	-0.658194
Cl146	Cl	0.630415	0.146281	-0.158194
H147	H	0.974618	-1.093320	-0.728448
H148	H	1.474618	-0.593320	-0.228448
Cl149	Cl	0.130143	-0.656860	-0.354351
Cl150	Cl	0.630143	-0.156860	0.145649
H151	H	1.038066	-0.915568	-0.622068
H152	H	1.538066	-0.415568	-0.122068
Cl153	Cl	0.332006	-0.719019	-0.487209
Cl154	Cl	0.832006	-0.219019	0.012791
H155	H	0.548517	-0.383595	-0.628339
H156	H	1.048517	0.116405	-0.128339
Cl157	Cl	0.277834	-0.656899	-0.354329
Cl158	Cl	0.777834	-0.156899	0.145671
H159	H	0.465221	-0.677140	-0.490919
H160	H	0.965221	-0.177140	0.009081
Cl161	Cl	1.066941	-1.105268	-0.617647
Cl162	Cl	1.566941	-0.605268	-0.117647
