data_functionalizedCrystal
_audit_creation_method	'MofGen! by Chris Wilmer'
_symmetry_space_group_name_H-M	'P1'
_symmetry_Int_Tables_number	1
_symmetry_cell_setting	triclinic
loop_
_symmetry_equiv_pos_as_xyz
  x,y,z
_cell_length_a	10.540514
_cell_length_b	27.732048
_cell_length_c	9.616153
_cell_angle_alpha	89.992780
_cell_angle_beta	89.992599
_cell_angle_gamma	83.578907
loop_
_atom_site_label
_atom_site_type_symbol
_atom_site_fract_x
_atom_site_fract_y
_atom_site_fract_z
O1	O	1.682955	0.068054	-0.115680
O2	O	1.313259	0.074484	-0.115681
O3	O	1.509589	0.000944	-0.115654
O4	O	1.486625	0.141594	-0.115707
O5	O	1.509563	0.000946	0.115638
O6	O	1.313232	0.074486	0.115611
O7	O	1.682929	0.068055	0.115611
Zn8	Zn	1.498076	0.071271	0.152334
Zn9	Zn	1.498112	0.071269	-0.152403
O10	O	1.486599	0.141595	0.115585
C11	C	1.265963	0.074005	-0.000034
C12	C	1.125076	0.072570	-0.000034
C13	C	1.052086	0.125165	-0.000056
C14	C	0.905537	0.123690	-0.000588
C15	C	0.933995	0.043966	-0.131853
C16	C	1.080455	0.045814	-0.131957
C17	C	1.080861	0.045037	0.131074
C18	C	0.933904	0.044530	0.132800
C19	C	1.509094	-0.017065	-0.000004
C20	C	1.507642	-0.070729	0.000007
C21	C	1.614523	-0.408875	-0.000064
C22	C	1.609137	-0.610568	-0.000083
O23	O	1.706871	-0.641212	-0.000144
N24	N	1.492721	-0.630421	-0.000082
C25	C	1.377644	-0.599847	-0.000085
O26	O	1.278502	-0.621361	-0.000099
C27	C	1.383031	-0.398154	-0.000076
C28	C	1.499454	-0.378305	-0.000063
C29	C	1.730936	-0.389024	-0.000053
C30	C	1.732281	-0.338604	-0.000040
C31	C	1.617213	-0.308034	-0.000039
C32	C	1.500799	-0.327884	-0.000051
C33	C	1.267955	-0.367581	-0.000089
C34	C	1.269312	-0.317156	-0.000090
C35	C	1.385735	-0.297306	-0.000077
C36	C	1.387076	-0.246894	-0.000037
N37	N	1.503491	-0.227041	-0.000038
C38	C	1.618560	-0.257611	-0.000039
C39	C	1.374824	-0.705738	-0.000088
C40	C	1.373477	-0.756161	-0.000087
C41	C	1.604971	-0.766879	-0.000088
C42	C	1.606316	-0.716455	-0.000078
C43	C	1.491240	-0.685886	-0.000089
C44	C	1.621376	-0.151724	-0.000012
C45	C	1.622711	-0.101299	0.000006
C46	C	1.391218	-0.090586	-0.000001
C47	C	1.389882	-0.141006	-0.000011
C48	C	1.504972	-0.171575	-0.000022
O49	O	1.289394	-0.216221	0.000008
O50	O	1.717688	-0.236088	-0.000056
C51	C	1.613177	-0.459295	-0.000076
C52	C	1.496764	-0.479145	-0.000088
C53	C	1.381695	-0.448575	-0.000087
C54	C	1.495417	-0.529568	-0.000088
C55	C	1.610485	-0.560138	-0.000089
C56	C	1.726901	-0.540286	-0.000090
C57	C	1.728246	-0.489865	-0.000077
C58	C	1.265279	-0.468428	-0.000086
C59	C	1.263944	-0.518849	-0.000097
C60	C	1.379012	-0.549419	-0.000098
C61	C	1.730225	0.068534	-0.000038
C62	C	1.871112	0.069969	-0.000048
C63	C	1.487094	0.159605	-0.000068
C64	C	1.488545	0.213269	-0.000088
N65	N	1.498062	0.071272	0.360308
N66	N	1.498136	0.071264	-0.360377
C67	C	1.392728	0.110479	0.580664
C68	C	1.392950	0.110626	0.419496
C69	C	1.630289	0.082740	0.418753
C70	C	1.629712	0.083018	0.579971
C71	C	1.472495	0.020468	0.580239
C72	C	1.469435	0.020797	0.419012
H73	H	0.862932	0.144054	-0.095642
N74	N	0.847837	0.150788	0.124529
H75	H	0.784606	0.178657	0.092684
H76	H	0.802729	0.128034	0.184162
H77	H	1.710551	0.054958	0.380410
H78	H	1.294632	0.103726	0.379984
N79	N	1.855063	-0.421988	-0.000040
H80	H	1.859655	-0.443149	0.085705
H81	H	1.859625	-0.443116	-0.085832
N82	N	1.414413	0.160533	0.368200
H83	H	1.339156	0.174203	0.309895
H84	H	1.423834	0.182536	0.450355
H85	H	1.653595	0.119381	0.378348
H86	H	1.294097	0.103685	0.619478
H87	H	1.823050	-0.473708	-0.000067
H88	H	0.913395	0.004509	-0.136367
N89	N	1.145188	-0.284186	-0.000063
H90	H	1.163696	-0.249230	-0.000047
H91	H	1.094408	-0.290651	-0.085802
H92	H	1.652457	0.120077	0.617544
N93	N	1.347604	0.006017	0.634147
H94	H	1.333040	-0.026671	0.594751
H95	H	1.350707	0.004065	0.738989
N96	N	1.851007	-0.573266	-0.000082
H97	H	1.855607	-0.594420	-0.085826
H98	H	1.924902	-0.553012	-0.000024
N99	N	1.340557	0.009296	0.368517
H100	H	1.300877	0.036661	0.307854
H101	H	1.351281	-0.021805	0.312996
N102	N	1.736667	0.046653	0.631602
H103	H	1.797580	0.063814	0.689769
H104	H	1.700022	0.021268	0.689929
N105	N	1.116778	0.070966	-0.262982
H106	H	1.037687	0.080752	-0.320128
H107	H	1.158526	0.100813	-0.237574
N108	N	1.121551	0.068225	0.263457
H109	H	1.169068	0.096816	0.239777
H110	H	1.043581	0.079661	0.320641
H111	H	1.549376	-0.008720	0.618366
N112	N	1.088649	0.153435	0.125112
H113	H	1.152884	0.132424	0.183050
H114	H	1.127376	0.183250	0.093173
N115	N	1.090921	0.153017	-0.125087
H116	H	1.155588	0.131713	-0.181714
H117	H	1.013265	0.163211	-0.184077
H118	H	1.278674	-0.772318	-0.000074
N119	N	1.414019	0.160117	0.634241
H120	H	1.409607	0.160295	0.739162
H121	H	1.500807	0.168181	0.603478
N122	N	1.250698	-0.672770	-0.000096
H123	H	1.176755	-0.693003	-0.000091
H124	H	1.246199	-0.651619	0.085648
N125	N	1.146280	-0.005359	-0.139383
H126	H	1.080115	-0.029016	-0.142581
H127	H	1.200805	-0.009134	-0.225910
H128	H	0.890626	0.061789	-0.230330
H129	H	0.892072	0.063533	0.230311
N130	N	0.904042	-0.007327	0.143956
H131	H	0.849156	-0.015101	0.062678
H132	H	0.986228	-0.029863	0.143090
N133	N	1.145686	-0.006350	0.132794
H134	H	1.203419	-0.011790	0.049105
H135	H	1.197962	-0.011832	0.220537
N136	N	1.264317	-0.162420	-0.000020
H137	H	1.258584	-0.183110	0.085710
H138	H	1.191701	-0.135374	-0.000066
H139	H	1.717521	-0.085140	0.000020
H140	H	1.698664	-0.791778	-0.000088
H141	H	1.715093	-0.176608	-0.000026
H142	H	1.297532	-0.065686	0.000005
H143	H	1.827085	-0.322447	-0.000035
H144	H	1.541290	-0.009786	0.378728
H145	H	1.173151	-0.383734	-0.000108
H146	H	1.169131	-0.535005	-0.000095
N147	N	1.731885	-0.695048	-0.000063
H148	H	1.804569	-0.722069	-0.000060
H149	H	1.737505	-0.674358	-0.085807
N150	N	1.141163	-0.435460	-0.000086
H151	H	1.067220	-0.455692	-0.000087
H152	H	1.136667	-0.414312	0.085664
