data_functionalizedCrystal
_audit_creation_method	'MofGen! by Chris Wilmer'
_symmetry_space_group_name_H-M	'P1'
_symmetry_Int_Tables_number	1
_symmetry_cell_setting	triclinic
loop_
_symmetry_equiv_pos_as_xyz
  x,y,z
_cell_length_a	6.817900
_cell_length_b	15.301126
_cell_length_c	14.858572
_cell_angle_alpha	94.836512
_cell_angle_beta	104.524003
_cell_angle_gamma	104.177575
loop_
_atom_site_label
_atom_site_type_symbol
_atom_site_fract_x
_atom_site_fract_y
_atom_site_fract_z
V1	V	-4.041820	-0.125327	-0.290244
V2	V	-3.708487	0.208007	0.043089
V3	V	-3.375153	0.541340	0.376423
O4	O	-4.025461	0.005439	-0.284428
O5	O	-3.692127	0.338772	0.048905
O6	O	-3.358794	0.672105	0.382238
O7	O	-3.996683	-0.247940	-0.288539
O8	O	-3.663350	0.085393	0.044795
O9	O	-3.330016	0.418726	0.378128
O10	O	-3.998413	-0.123655	-0.416702
O11	O	-3.665080	0.209678	-0.083369
O12	O	-3.331747	0.543011	0.249965
O13	O	-4.023718	-0.119707	-0.155378
O14	O	-3.690385	0.213626	0.177956
O15	O	-3.357052	0.546960	0.511289
V16	V	-4.524378	-0.109655	-0.274079
V17	V	-4.191045	0.223678	0.059254
V18	V	-3.857711	0.557011	0.392588
O19	O	-4.305195	-0.159703	-0.325704
O20	O	-3.971862	0.173630	0.007630
O21	O	-3.638528	0.506964	0.340963
O22	O	-4.711200	-0.075279	-0.238620
O23	O	-4.377867	0.258054	0.094714
O24	O	-4.044534	0.591387	0.428047
O25	O	-4.346309	0.012958	-0.275784
O26	O	-4.012975	0.346291	0.057549
O27	O	-3.679642	0.679625	0.390882
O28	O	-4.658135	-0.240421	-0.279895
O29	O	-4.324801	0.092913	0.053438
O30	O	-3.991468	0.426246	0.386772
O31	O	-4.659877	-0.115275	-0.408945
O32	O	-4.326543	0.218058	-0.075612
O33	O	-3.993210	0.551391	0.257721
O34	O	-4.344578	-0.111327	-0.147621
O35	O	-4.011245	0.222006	0.185712
O36	O	-3.677912	0.555340	0.519046
C37	C	-3.842316	-0.277823	-0.284032
C38	C	-3.508983	0.055510	0.049301
C39	C	-3.175650	0.388844	0.382634
C40	C	-3.886732	-0.378063	-0.283481
C41	C	-3.553398	-0.044729	0.049853
C42	C	-3.220065	0.288604	0.383186
C43	C	-3.844522	-0.119284	-0.447516
C44	C	-3.511189	0.214050	-0.114183
C45	C	-3.177856	0.547383	0.219151
C46	C	-3.890338	-0.118728	-0.550898
C47	C	-3.557004	0.214605	-0.217564
C48	C	-3.223671	0.547938	0.115769
C49	C	-4.090019	-0.429757	-0.287871
C50	C	-3.756685	-0.096424	0.045462
C51	C	-3.423352	0.236909	0.378796
C52	C	-4.131743	-0.523944	-0.287358
C53	C	-3.798409	-0.190611	0.045975
C54	C	-3.465076	0.142723	0.379308
C55	C	-3.970173	-0.566433	-0.282449
C56	C	-3.636840	-0.233100	0.050884
C57	C	-3.303506	0.100234	0.384218
C58	C	-3.766870	-0.514732	-0.278061
C59	C	-3.433537	-0.181399	0.055272
C60	C	-3.100204	0.151935	0.388605
C61	C	-3.725153	-0.420548	-0.278581
C62	C	-3.391819	-0.087215	0.054753
C63	C	-3.058486	0.246119	0.388086
C64	C	-3.853835	-0.711041	-0.276977
C65	C	-3.520501	-0.377707	0.056356
C66	C	-3.187168	-0.044374	0.389690
C67	C	-3.895553	-0.805231	-0.276456
C68	C	-3.562220	-0.471897	0.056878
C69	C	-3.228887	-0.138564	0.390211
C70	C	-4.260425	-0.814436	-0.285755
C71	C	-3.927091	-0.481103	0.047579
C72	C	-3.593758	-0.147770	0.380912
C73	C	-4.218707	-0.720253	-0.286274
C74	C	-3.885374	-0.386919	0.047059
C75	C	-3.552040	-0.053586	0.380393
C76	C	-4.015405	-0.668558	-0.281884
C77	C	-3.682072	-0.335224	0.051449
C78	C	-3.348739	-0.001891	0.384782
C79	C	-4.058023	-0.116699	-0.929461
C80	C	-3.724690	0.216635	-0.596128
C81	C	-3.391356	0.549968	-0.262795
C82	C	-4.011359	-0.117264	-0.824133
C83	C	-3.678026	0.216070	-0.490800
C84	C	-3.344693	0.549403	-0.157466
C85	C	-3.974182	-0.117714	-0.740183
C86	C	-3.640848	0.215619	-0.406850
C87	C	-3.307515	0.548952	-0.073516
C88	C	-3.927515	-0.118278	-0.634848
C89	C	-3.594182	0.215056	-0.301515
C90	C	-3.260848	0.548389	0.031819
C91	C	-4.164018	0.042836	-0.280288
C92	C	-3.830684	0.376169	0.053045
C93	C	-3.497351	0.709503	0.386378
C94	C	-4.098841	0.143075	-0.280846
C95	C	-3.765507	0.476408	0.052488
C96	C	-3.432174	0.809741	0.385821
C97	C	-4.161811	-0.115701	-0.116802
C98	C	-3.828478	0.217632	0.216531
C99	C	-3.495145	0.550965	0.549864
C100	C	-4.095234	-0.116252	-0.013420
C101	C	-3.761901	0.217081	0.319914
C102	C	-3.428568	0.550414	0.653247
H103	H	-4.221589	-0.395169	-0.291860
H104	H	-3.888255	-0.061835	0.041474
H105	H	-3.554922	0.271498	0.374807
H106	H	-4.297276	-0.566030	-0.290935
H107	H	-3.963943	-0.232697	0.042399
H108	H	-3.630610	0.100636	0.375732
H109	H	-3.764001	-0.839826	-0.272486
H110	H	-3.430667	-0.506493	0.060848
H111	H	-3.097334	-0.173160	0.394181
H112	H	-4.350272	-0.685660	-0.290266
H113	H	-4.016938	-0.352327	0.043067
H114	H	-3.683605	-0.018993	0.376400
H115	H	-4.425954	-0.856529	-0.289315
H116	H	-4.092621	-0.523196	0.044018
H117	H	-3.759288	-0.189862	0.377352
H118	H	-3.688292	-0.668954	-0.273410
H119	H	-3.354959	-0.335621	0.059923
H120	H	-3.021625	-0.002287	0.393257
H121	H	-3.635323	-0.549335	-0.274070
H122	H	-3.301990	-0.216001	0.059264
H123	H	-2.968657	0.117332	0.392597
H124	H	-3.559620	-0.378460	-0.275009
H125	H	-3.226286	-0.045126	0.058324
H126	H	-2.892953	0.288207	0.391657
