data_functionalizedCrystal
_audit_creation_method	'MofGen! by Chris Wilmer'
_symmetry_space_group_name_H-M	'P1'
_symmetry_Int_Tables_number	1
_symmetry_cell_setting	triclinic
loop_
_symmetry_equiv_pos_as_xyz
  x,y,z
_cell_length_a	19.188933
_cell_length_b	19.188930
_cell_length_c	15.500215
_cell_angle_alpha	93.196573
_cell_angle_beta	93.190207
_cell_angle_gamma	83.145175
loop_
_atom_site_label
_atom_site_type_symbol
_atom_site_fract_x
_atom_site_fract_y
_atom_site_fract_z
O1	O	0.929030	0.090059	0.071926
O2	O	1.429030	0.590059	0.571926
O3	O	0.725719	0.101793	0.071935
O4	O	1.225719	0.601793	0.571935
O5	O	0.833241	-0.005730	0.071913
O6	O	1.333241	0.494270	0.571913
O7	O	0.821508	0.197582	0.071948
O8	O	1.321508	0.697582	0.571948
O9	O	0.827458	-0.011506	-0.071977
O10	O	1.327458	0.488494	0.428023
O11	O	0.719937	0.096017	-0.071955
O12	O	1.219937	0.596017	0.428045
O13	O	0.923247	0.084284	-0.071964
O14	O	1.423247	0.584284	0.428036
Cu15	Cu	0.821064	0.089623	-0.085098
Cu16	Cu	1.321064	0.589623	0.414902
Cu17	Cu	0.827902	0.096453	0.085069
Cu18	Cu	1.327902	0.596453	0.585069
O19	O	0.815726	0.191807	-0.071942
O20	O	1.315726	0.691807	0.428058
C21	C	0.696817	0.098525	-0.000009
C22	C	1.196817	0.598525	0.499991
C23	C	0.619313	0.097384	-0.000006
C24	C	1.119313	0.597384	0.499994
C25	C	0.829969	-0.034629	-0.000034
C26	C	1.329969	0.465371	0.499966
C27	C	0.828828	-0.112134	-0.000042
C28	C	1.328828	0.387866	0.499958
C29	C	0.069209	0.092386	0.078418
C30	C	0.569209	0.592386	0.578418
C31	C	0.142033	0.093454	0.078421
C32	C	0.642033	0.593454	0.578421
C33	C	0.175298	0.090844	-0.000013
C34	C	0.675298	0.590844	0.499987
C35	C	0.135735	0.087146	-0.078456
C36	C	0.635735	0.587146	0.421544
C37	C	0.062913	0.086071	-0.078458
C38	C	0.562913	0.586071	0.421542
N39	N	0.281972	0.129919	-0.058388
N40	N	0.781972	0.629919	0.441612
N41	N	0.351150	0.130942	-0.058381
N42	N	0.851150	0.630942	0.441619
C43	C	0.394707	0.094081	-0.000014
C44	C	0.894707	0.594081	0.499986
N45	N	0.366471	0.056168	0.058360
N46	N	0.866471	0.556168	0.558360
N47	N	0.297287	0.055148	0.058356
N48	N	0.797287	0.555148	0.558356
C49	C	0.254261	0.092009	-0.000020
C50	C	0.754261	0.592009	0.499980
C51	C	0.513226	0.098932	0.078429
C52	C	1.013226	0.598932	0.578429
C53	C	0.586052	0.099996	0.078429
C54	C	1.086052	0.599996	0.578429
C55	C	0.579752	0.093694	-0.078451
C56	C	1.079752	0.593694	0.421549
C57	C	0.506928	0.092624	-0.078449
C58	C	1.006928	0.592624	0.421551
C59	C	0.473669	0.095246	-0.000007
C60	C	0.973669	0.595246	0.499993
C61	C	0.891919	-0.157058	-0.000049
C62	C	1.391919	0.342942	0.499951
C63	C	0.890848	-0.229881	-0.000035
C64	C	1.390848	0.270119	0.499965
C65	C	0.826682	-0.257778	-0.000031
C66	C	1.326682	0.242222	0.499969
C67	C	0.763583	-0.212844	-0.000019
C68	C	1.263583	0.287156	0.499981
C69	C	0.764657	-0.140022	-0.000024
C70	C	1.264657	0.359978	0.499976
N71	N	0.775667	-0.367749	-0.048997
N72	N	1.275667	0.132251	0.451003
N73	N	0.774652	-0.436927	-0.048994
N74	N	1.274652	0.063073	0.451006
C75	C	0.823445	-0.477186	-0.000013
C76	C	1.323445	0.022814	0.499987
N77	N	0.873301	-0.445655	0.048953
N78	N	1.373301	0.054345	0.548953
N79	N	0.874319	-0.376470	0.048946
N80	N	1.374319	0.123530	0.548946
C81	C	0.825511	-0.336740	-0.000025
C82	C	1.325511	0.163260	0.499975
C83	C	0.885378	-0.601073	-0.000004
C84	C	1.385378	-0.101073	0.499996
C85	C	0.884305	-0.673897	0.000015
C86	C	1.384305	-0.173897	0.500015
C87	C	0.757038	-0.656859	0.000022
C88	C	1.257038	-0.156859	0.500022
C89	C	0.758114	-0.584037	0.000011
C90	C	1.258114	-0.084037	0.500011
C91	C	0.822285	-0.556148	-0.000006
C92	C	1.322285	-0.056148	0.499994
C93	C	0.952150	0.087552	-0.000018
C94	C	1.452150	0.587552	0.499982
C95	C	1.029654	0.088693	-0.000015
C96	C	1.529654	0.588693	0.499985
C97	C	0.818997	0.220706	0.000007
C98	C	1.318997	0.720706	0.500007
C99	C	0.820138	0.298211	0.000020
C100	C	1.320138	0.798211	0.500020
N101	N	0.816259	0.084819	-0.204784
N102	N	1.316259	0.584819	0.295216
C103	C	0.856657	0.125246	-0.250052
C104	C	1.356657	0.625246	0.249948
C105	C	0.853032	0.121608	-0.340625
C106	C	1.353032	0.621608	0.159375
C107	C	0.809007	0.077546	-0.385929
C108	C	1.309007	0.577546	0.114071
C109	C	0.768608	0.037114	-0.340655
C110	C	1.268608	0.537114	0.159345
C111	C	0.772236	0.040749	-0.250083
C112	C	1.272236	0.540749	0.249917
C113	C	0.795942	0.064455	-0.659399
C114	C	1.295942	0.564455	-0.159399
C115	C	0.792315	0.060825	-0.749978
C116	C	1.292315	0.560825	-0.249978
C117	C	0.876741	0.145318	-0.749941
C118	C	1.376741	0.645318	-0.249941
C119	C	0.880363	0.148952	-0.659367
C120	C	1.380363	0.648952	-0.159367
C121	C	0.839967	0.108517	-0.614101
C122	C	1.339967	0.608517	-0.114101
C123	C	0.805299	0.073828	-0.478510
C124	C	1.305299	0.573828	0.021490
C125	C	0.843678	0.112232	-0.521522
C126	C	1.343678	0.612232	-0.021522
N127	N	0.832712	0.101252	0.204755
N128	N	1.332712	0.601252	0.704755
H129	H	0.174244	0.096466	0.142293
H130	H	0.674244	0.596466	0.642293
H131	H	0.937631	-0.578366	-0.000014
H132	H	1.437631	-0.078366	0.499986
C133	C	0.487180	0.026920	-0.212170
C134	C	0.987180	0.526920	0.287830
C135	C	0.463448	0.088573	-0.164669
C136	C	0.963448	0.588573	0.335331
H137	H	0.460340	0.024421	-0.265404
H138	H	0.960340	0.524421	0.234596
H139	H	0.481982	-0.012660	-0.179949
H140	H	0.981982	0.487340	0.320051
H141	H	0.535312	0.027194	-0.223384
H142	H	1.035312	0.527194	0.276616
H143	H	0.415317	0.088296	-0.153450
H144	H	0.915317	0.588296	0.346550
H145	H	0.468639	0.128163	-0.196898
H146	H	0.968639	0.628163	0.303102
C147	C	0.443012	0.041378	0.169431
C148	C	0.943012	0.541378	0.669431
C149	C	0.476664	0.101806	0.164649
C150	C	0.976664	0.601806	0.664649
H151	H	0.420439	0.043156	0.222658
H152	H	0.920439	0.543156	0.722658
H153	H	0.476736	0.000966	0.166168
H154	H	0.976736	0.500966	0.666168
H155	H	0.409029	0.039038	0.122714
H156	H	0.909029	0.539038	0.622714
H157	H	0.510650	0.104143	0.211363
H158	H	1.010650	0.604143	0.711363
H159	H	0.442936	0.142229	0.167921
H160	H	0.942936	0.642229	0.667921
C161	C	0.222015	0.024700	-0.169464
C162	C	0.722015	0.524700	0.330536
C163	C	0.172299	0.084277	-0.164672
C164	C	0.672299	0.584277	0.335328
H165	H	0.244589	0.022930	-0.222690
H166	H	0.744589	0.522930	0.277310
H167	H	0.199186	-0.016288	-0.166212
H168	H	0.699186	0.483712	0.333788
H169	H	0.255992	0.027061	-0.122744
H170	H	0.755992	0.527061	0.377256
H171	H	0.138318	0.081914	-0.211388
H172	H	0.638318	0.581914	0.288612
H173	H	0.195128	0.125276	-0.167932
H174	H	0.695128	0.625276	0.332068
H175	H	0.030707	0.083066	-0.142329
H176	H	0.530707	0.583066	0.357671
C177	C	1.010207	-0.683421	-0.000016
C178	C	1.510207	-0.183421	0.499984
C179	C	0.953659	-0.723282	0.000005
C180	C	1.453659	-0.223282	0.500005
H181	H	1.053023	-0.713911	-0.000028
H182	H	1.553023	-0.213911	0.499972
H183	H	1.010001	-0.652642	0.050155
H184	H	1.510001	-0.152642	0.550155
H185	H	1.005951	-0.656684	-0.050200
H186	H	1.505951	-0.156684	0.449800
H187	H	0.957912	-0.750015	0.050193
H188	H	1.457912	-0.250015	0.550193
H189	H	0.953867	-0.754072	-0.050172
H190	H	1.453867	-0.254072	0.449828
C191	C	-0.000997	0.034829	0.169418
C192	C	0.499003	0.534829	0.669418
C193	C	0.032648	0.095260	0.164637
C194	C	0.532648	0.595260	0.664637
H195	H	-0.023573	0.036606	0.222644
H196	H	0.476427	0.536606	0.722644
H197	H	0.032731	-0.005580	0.166159
H198	H	0.532731	0.494420	0.666159
H199	H	-0.034977	0.032484	0.122699
H200	H	0.465023	0.532484	0.622699
H201	H	0.066632	0.097602	0.211353
H202	H	0.566632	0.597602	0.711353
H203	H	-0.001084	0.135680	0.167905
H204	H	0.498916	0.635680	0.667905
C205	C	0.709235	-0.022341	-0.740915
C206	C	1.209235	0.477659	-0.240915
C207	C	0.743922	0.012384	-0.799775
C208	C	1.243922	0.512384	-0.299775
H209	H	0.679363	-0.052246	-0.771659
H210	H	1.179363	0.447754	-0.271659
H211	H	0.681940	0.011276	-0.705586
H212	H	1.181940	0.511276	-0.205586
H213	H	0.742879	-0.049611	-0.705589
H214	H	1.242879	0.450389	-0.205589
H215	H	0.710278	0.039658	-0.835097
H216	H	1.210278	0.539658	-0.335097
H217	H	0.771218	-0.021237	-0.835118
H218	H	1.271218	0.478763	-0.335118
H219	H	0.706738	-0.547458	0.000012
H220	H	1.206738	-0.047458	0.500012
H221	H	0.763049	0.031530	-0.622554
H222	H	1.263049	0.531530	-0.122554
C223	C	0.688415	-0.043126	-0.259211
C224	C	1.188415	0.456874	0.240789
C225	C	0.727827	-0.003686	-0.200322
C226	C	1.227827	0.496314	0.299678
H227	H	0.660997	-0.070557	-0.228489
H228	H	1.160997	0.429443	0.271511
H229	H	0.719218	-0.073232	-0.294536
H230	H	1.219218	0.426768	0.205464
H231	H	0.658292	-0.012333	-0.294536
H232	H	1.158292	0.487667	0.205464
H233	H	0.757955	-0.034479	-0.165000
H234	H	1.257955	0.465521	0.335000
H235	H	0.697021	0.026422	-0.164981
H236	H	1.197021	0.526422	0.335019
H237	H	0.711339	-0.235562	-0.000014
H238	H	1.211339	0.264438	0.499986
C239	C	0.923394	0.192055	-0.520513
C240	C	1.423394	0.692055	-0.020513
C241	C	0.928748	0.197395	-0.609570
C242	C	1.428748	0.697395	-0.109570
H243	H	0.953258	0.221970	-0.489772
H244	H	1.453258	0.721970	0.010228
H245	H	0.937120	0.144854	-0.505676
H246	H	1.437120	0.644854	-0.005676
H247	H	0.876173	0.205731	-0.505692
H248	H	1.376173	0.705731	-0.005692
H249	H	0.975969	0.183713	-0.624393
H250	H	1.475969	0.683713	-0.124393
H251	H	0.915026	0.244606	-0.624413
H252	H	1.415026	0.744606	-0.124413
H253	H	0.892503	0.161130	-0.213171
H254	H	1.392503	0.661130	0.286829
C255	C	0.588767	0.148659	-0.212160
C256	C	1.088767	0.648659	0.287840
C257	C	0.616308	0.090822	-0.164669
C258	C	1.116308	0.590822	0.335331
H259	H	0.611336	0.146879	-0.265391
H260	H	1.111336	0.646879	0.234609
H261	H	0.596552	0.190828	-0.179929
H262	H	1.096552	0.690828	0.320071
H263	H	0.539735	0.147485	-0.223380
H264	H	1.039735	0.647485	0.276620
H265	H	0.665339	0.091999	-0.153444
H266	H	1.165339	0.591999	0.346556
H267	H	0.608528	0.048642	-0.196908
H268	H	1.108528	0.548642	0.303092
H269	H	0.618258	0.102998	0.142301
H270	H	1.118258	0.602998	0.642301
C271	C	0.651210	-0.661774	0.074001
C272	C	1.151210	-0.161774	0.574001
C273	C	0.686504	-0.687514	0.000030
C274	C	1.186504	-0.187514	0.500030
H275	H	0.607667	-0.680705	0.074009
H276	H	1.107667	-0.180705	0.574009
H277	H	0.642822	-0.611980	0.073989
H278	H	1.142822	-0.111980	0.573989
H279	H	0.679204	-0.675190	0.124171
H280	H	1.179204	-0.175190	0.624171
H281	H	0.658513	-0.674093	-0.050141
H282	H	1.158513	-0.174093	0.449859
H283	H	0.694890	-0.737319	0.000034
H284	H	1.194890	-0.237319	0.500034
C285	C	0.963988	-0.088031	-0.074027
C286	C	1.463988	0.411969	0.425973
C287	C	0.962455	-0.126402	-0.000057
C288	C	1.462455	0.373598	0.499943
H289	H	1.007536	-0.069108	-0.074031
H290	H	1.507536	0.430892	0.425969
H291	H	0.926570	-0.050854	-0.074019
H292	H	1.426570	0.449146	0.425981
H293	H	0.958907	-0.118113	-0.124198
H294	H	1.458907	0.381887	0.375802
H295	H	0.967531	-0.096319	0.050115
H296	H	1.467531	0.403681	0.550115
H297	H	0.999883	-0.163583	-0.000057
H298	H	1.499883	0.336417	0.499943
C299	C	1.016752	-0.239416	-0.000065
C300	C	1.516752	0.260584	0.499935
C301	C	0.960201	-0.279273	-0.000049
C302	C	1.460201	0.220727	0.499951
H303	H	1.059567	-0.269909	-0.000079
H304	H	1.559567	0.230091	0.499921
H305	H	1.016548	-0.208641	0.050110
H306	H	1.516548	0.291359	0.550110
H307	H	1.012499	-0.212676	-0.050246
H308	H	1.512499	0.287324	0.449754
H309	H	0.964452	-0.306010	0.050136
H310	H	1.464452	0.193990	0.550136
H311	H	0.960407	-0.310061	-0.050228
H312	H	1.460407	0.189939	0.449772
H313	H	0.769453	0.037953	-0.515407
H314	H	1.269453	0.537953	-0.015407
C315	C	0.638753	-0.130497	-0.000018
C316	C	1.138753	0.369503	0.499982
C317	C	0.695302	-0.090637	-0.000025
C318	C	1.195302	0.409363	0.499975
H319	H	0.595936	-0.100007	-0.000025
H320	H	1.095936	0.399993	0.499975
H321	H	0.642996	-0.157228	0.050161
H322	H	1.142996	0.342772	0.550161
H323	H	0.638969	-0.161281	-0.050194
H324	H	1.138969	0.338719	0.449806
H325	H	0.695089	-0.059856	0.050155
H326	H	1.195089	0.440144	0.550155
H327	H	0.691057	-0.063894	-0.050209
H328	H	1.191057	0.436106	0.449791
H329	H	0.885929	0.154527	-0.377478
H330	H	1.385929	0.654527	0.122522
H331	H	0.909630	0.178237	-0.786807
H332	H	1.409630	0.678237	-0.286807
H333	H	0.732765	0.001235	-0.377549
H334	H	1.232765	0.501235	0.122451
H335	H	0.879526	0.148104	-0.484632
H336	H	1.379526	0.648104	0.015368
