data_functionalizedCrystal
_audit_creation_method	'MofGen! by Chris Wilmer'
_symmetry_space_group_name_H-M	'P1'
_symmetry_Int_Tables_number	1
_symmetry_cell_setting	triclinic
loop_
_symmetry_equiv_pos_as_xyz
  x,y,z
_cell_length_a	12.759395
_cell_length_b	12.645330
_cell_length_c	12.759387
_cell_angle_alpha	89.969429
_cell_angle_beta	89.981185
_cell_angle_gamma	90.019229
loop_
_atom_site_label
_atom_site_type_symbol
_atom_site_fract_x
_atom_site_fract_y
_atom_site_fract_z
Zn1	Zn	1.606229	-0.421928	-0.594015
Zn2	Zn	1.606116	-0.599233	-0.418340
Zn3	Zn	1.430533	-0.421989	-0.418352
Zn4	Zn	1.430511	-0.599155	-0.593979
O5	O	1.518347	-0.510576	-0.506172
O6	O	1.753235	-0.445455	-0.570722
O7	O	1.582786	-0.575780	-0.271320
O8	O	1.453896	-0.273634	-0.441674
O9	O	1.753152	-0.575721	-0.441654
O10	O	1.582979	-0.273589	-0.570733
O11	O	1.453786	-0.445560	-0.271329
O12	O	1.283509	-0.445483	-0.441639
O13	O	1.453858	-0.575586	-0.741005
O14	O	1.283493	-0.575646	-0.570672
O15	O	1.582958	-0.445379	-0.741032
O16	O	1.582765	-0.747570	-0.441619
O17	O	1.453748	-0.747512	-0.570660
C18	C	1.245380	-0.510563	-0.506153
C19	C	1.128603	-0.510583	-0.506171
C20	C	1.128625	-0.646341	-0.640315
C21	C	1.073775	-0.714228	-0.707390
C22	C	0.964053	-0.714241	-0.707403
C23	C	0.909179	-0.646357	-0.640335
C24	C	0.964029	-0.578470	-0.573260
C25	C	1.073753	-0.578467	-0.573253
C26	C	0.964007	-0.442709	-0.439123
C27	C	1.073729	-0.442700	-0.439103
C28	C	0.909133	-0.374825	-0.372056
C29	C	0.963983	-0.306942	-0.304974
C30	C	1.073711	-0.306932	-0.304963
C31	C	1.128579	-0.374813	-0.372028
C32	C	1.518270	-0.786006	-0.506157
C33	C	1.518334	-0.903836	-0.506186
C34	C	1.437504	-1.071408	-0.587616
C35	C	1.437091	-0.948848	-0.587354
C36	C	1.488361	-0.948442	-0.395464
C37	C	1.487868	-1.071040	-0.395958
C38	C	1.629630	-1.070920	-0.534579
C39	C	1.628948	-0.948312	-0.537001
C40	C	1.792381	-0.510590	-0.506190
C41	C	1.909157	-0.510596	-0.506198
C42	C	1.518418	-0.510467	-0.780205
C43	C	1.518449	-0.510420	-0.896982
C44	C	1.518453	-0.234071	-0.506209
C45	C	1.518498	-0.116241	-0.506225
C46	C	1.384130	-0.374812	-0.897010
C47	C	1.316989	-0.306987	-0.951885
C48	C	1.317021	-0.306949	-1.061607
C49	C	1.384198	-0.374745	-1.116456
C50	C	1.451338	-0.442570	-1.061581
C51	C	1.451301	-0.442599	-0.951857
C52	C	1.585650	-0.578182	-1.061553
C53	C	1.585626	-0.578216	-0.951831
C54	C	1.652827	-0.645978	-1.116402
C55	C	1.719974	-0.713799	-1.061527
C56	C	1.719941	-0.713834	-0.951799
C57	C	1.652766	-0.646041	-0.896956
C58	C	1.518337	-0.510609	-0.233204
C59	C	1.518510	-0.510357	-0.116428
H60	H	1.217920	-0.374815	-0.372023
H61	H	1.384208	-0.374717	-1.205797
H62	H	1.692470	-0.917666	-0.482037
N63	N	0.790791	-0.374844	-0.372058
H64	H	0.764385	-0.355459	-0.444165
H65	H	0.764434	-0.447563	-0.352568
H66	H	1.118465	-0.769496	-0.761996
N67	N	1.132865	-0.233714	-0.232610
H68	H	1.210700	-0.244006	-0.242773
H69	H	1.113712	-0.158026	-0.249101
N70	N	1.381868	-0.907911	-0.363078
H71	H	1.332859	-0.969603	-0.351728
H72	H	1.388593	-0.866292	-0.295879
H73	H	1.544300	-1.100702	-0.333248
N74	N	1.564019	-0.909833	-0.312933
H75	H	1.618580	-0.862941	-0.346605
H76	H	1.524520	-0.868350	-0.258042
N77	N	0.790837	-0.646367	-0.640348
H78	H	0.764417	-0.699673	-0.693016
H79	H	0.764462	-0.665737	-0.568207
H80	H	1.455843	-0.918685	-0.669454
H81	H	1.774618	-0.769062	-0.907126
H82	H	1.652843	-0.645947	-1.205743
N83	N	1.327965	-0.910116	-0.562457
H84	H	1.301091	-0.865742	-0.622545
H85	H	1.280022	-0.972738	-0.551585
H86	H	1.262348	-0.251721	-1.106286
H87	H	1.689972	-1.099912	-0.475299
N88	N	0.904886	-0.787455	-0.779749
H89	H	0.956292	-0.830456	-0.822236
H90	H	0.859332	-0.836461	-0.736897
N91	N	1.244535	-0.233864	-0.892734
H92	H	1.195812	-0.276949	-0.847198
H93	H	1.287316	-0.184770	-0.847284
H94	H	0.919296	-0.251671	-0.250379
H95	H	1.456085	-1.100811	-0.669985
H96	H	1.355631	-1.102312	-0.569071
H97	H	1.656972	-1.101755	-0.613945
H98	H	1.406629	-1.099736	-0.371938
N99	N	1.384098	-0.374846	-0.778668
H100	H	1.436824	-0.428099	-0.752228
H101	H	1.403409	-0.302098	-0.752346
N102	N	1.792427	-0.786915	-1.120676
H103	H	1.776070	-0.862661	-1.101559
H104	H	1.782225	-0.776518	-1.198492
H105	H	1.652736	-0.646060	-0.807615
H106	H	1.651552	-0.919153	-0.618486
H107	H	1.217966	-0.646345	-0.640303
