data_functionalizedCrystal
_audit_creation_method	'MofGen! by Chris Wilmer'
_symmetry_space_group_name_H-M	'P1'
_symmetry_Int_Tables_number	1
_symmetry_cell_setting	triclinic
loop_
_symmetry_equiv_pos_as_xyz
  x,y,z
_cell_length_a	14.971486
_cell_length_b	11.792241
_cell_length_c	14.048226
_cell_angle_alpha	89.993434
_cell_angle_beta	89.998499
_cell_angle_gamma	83.903772
loop_
_atom_site_label
_atom_site_type_symbol
_atom_site_fract_x
_atom_site_fract_y
_atom_site_fract_z
O1	O	1.187540	0.147909	-0.079051
O2	O	0.927210	0.165622	-0.079077
O3	O	1.063692	-0.008446	-0.079057
O4	O	1.051058	0.321977	-0.079072
O5	O	1.063676	-0.008456	0.079264
O6	O	0.927194	0.165611	0.079244
O7	O	1.187523	0.147899	0.079270
Zn8	Zn	1.057356	0.156753	0.104394
Zn9	Zn	1.057378	0.156767	-0.104201
O10	O	1.051041	0.321966	0.079250
C11	C	0.893874	0.164824	0.000080
C12	C	0.794568	0.162451	0.000070
C13	C	0.737752	0.264710	0.000067
C14	C	0.644444	0.262473	0.000081
C15	C	0.607953	0.157975	0.000092
C16	C	0.664776	0.055707	0.000098
C17	C	0.758082	0.057946	0.000091
C18	C	0.470294	0.051049	0.000111
C19	C	0.376981	0.048810	0.000117
C20	C	0.356656	0.255577	0.000102
C21	C	0.449963	0.257815	0.000095
C22	C	0.506779	0.155547	0.000099
C23	C	1.062891	-0.050737	0.000103
C24	C	1.060515	-0.176735	0.000102
C25	C	1.056147	-0.407419	0.000086
C26	C	1.058574	-0.279050	0.000095
C27	C	1.220859	0.148696	0.000110
C28	C	1.320166	0.151070	0.000114
C29	C	1.051843	0.364257	0.000087
C30	C	1.054218	0.490256	0.000082
N31	N	1.057347	0.156744	0.246754
N32	N	1.057393	0.156768	-0.246562
C33	C	1.117801	0.079698	0.296582
C34	C	1.117807	0.079698	0.396239
C35	C	1.057363	0.156749	0.446068
C36	C	0.996903	0.233797	0.396234
C37	C	0.996894	0.233792	0.296578
C38	C	0.996929	0.233806	0.603948
C39	C	0.996940	0.233813	0.703611
C40	C	1.117843	0.079712	0.703609
C41	C	1.117833	0.079706	0.603953
C42	C	1.057374	0.156757	0.554126
H43	H	0.598187	0.345744	0.000078
H44	H	0.635057	-0.029377	0.000120
H45	H	0.947719	0.296555	0.744177
O46	O	0.813404	-0.041284	0.000132
C47	C	0.903583	-0.016903	0.000101
H48	H	0.907591	0.072249	0.030068
H49	H	0.945538	-0.082078	0.046068
H50	H	0.930541	-0.021165	-0.075855
H51	H	1.167032	0.016961	0.436808
H52	H	0.310391	0.338847	0.000103
O53	O	0.773089	0.366293	-0.000071
C54	C	0.744115	0.428631	-0.082080
H55	H	0.679259	0.397608	-0.109410
H56	H	0.731620	0.523128	-0.063642
H57	H	0.798035	0.415567	-0.139501
H58	H	0.347274	-0.036282	0.000127
O59	O	0.938150	0.308488	0.444742
C60	C	0.882672	0.247589	0.502388
H61	H	0.917872	0.158850	0.517323
H62	H	0.868760	0.294936	0.572463
H63	H	0.816526	0.239736	0.463995
O64	O	0.525359	-0.048399	0.000068
C65	C	0.473146	-0.141113	0.000097
H66	H	0.403650	-0.112397	-0.029867
H67	H	0.507210	-0.212762	-0.045874
H68	H	0.466357	-0.173152	0.076052
O69	O	1.176551	0.004741	0.248330
C70	C	1.229923	-0.063243	0.313684
H71	H	1.193252	-0.064596	0.384727
H72	H	1.243130	-0.153858	0.284903
H73	H	1.296545	-0.026250	0.324268
O74	O	1.176581	0.004752	0.555695
C75	C	1.229960	-0.063236	0.621041
H76	H	1.193295	-0.064597	0.692087
H77	H	1.243166	-0.153848	0.592253
H78	H	1.296582	-0.026241	0.631622
H79	H	0.479670	0.342907	0.000077
O80	O	1.176484	0.004901	0.752153
C81	C	1.163546	0.021438	0.850797
H82	H	1.092640	0.063705	0.864412
H83	H	1.173090	-0.064495	0.888679
H84	H	1.214444	0.078474	0.879066
O85	O	0.938168	0.308764	0.555692
C86	C	0.884808	0.376758	0.621039
H87	H	0.921490	0.378117	0.692073
H88	H	0.871601	0.467371	0.592235
H89	H	0.818187	0.339771	0.631651
H90	H	0.947665	0.296528	0.256010
