data_functionalizedCrystal
_audit_creation_method	'MofGen! by Chris Wilmer'
_symmetry_space_group_name_H-M	'P1'
_symmetry_Int_Tables_number	1
_symmetry_cell_setting	triclinic
loop_
_symmetry_equiv_pos_as_xyz
  x,y,z
_cell_length_a	19.805407
_cell_length_b	19.121111
_cell_length_c	19.805399
_cell_angle_alpha	87.586854
_cell_angle_beta	89.982197
_cell_angle_gamma	87.532387
loop_
_atom_site_label
_atom_site_type_symbol
_atom_site_fract_x
_atom_site_fract_y
_atom_site_fract_z
Zn1	Zn	1.023225	0.279680	-0.394183
Zn2	Zn	1.356559	0.613014	-0.060850
Zn3	Zn	1.689892	0.946347	0.272484
Zn4	Zn	1.018306	0.397133	-0.285822
Zn5	Zn	1.351640	0.730466	0.047511
Zn6	Zn	1.684973	1.063799	0.380845
Zn7	Zn	0.910039	0.279694	-0.281012
Zn8	Zn	1.243373	0.613028	0.052322
Zn9	Zn	1.576706	0.946361	0.385655
Zn10	Zn	0.905171	0.397090	-0.398971
Zn11	Zn	1.238505	0.730423	-0.065637
Zn12	Zn	1.571838	1.063756	0.267696
O13	O	0.964186	0.338399	-0.339997
O14	O	1.297519	0.671733	-0.006663
O15	O	1.630852	1.005066	0.326670
O16	O	1.117289	0.295273	-0.379818
O17	O	1.450622	0.628606	-0.046485
O18	O	1.783956	0.961939	0.286849
O19	O	1.003923	0.381578	-0.190468
O20	O	1.337257	0.714911	0.142865
O21	O	1.670590	1.048245	0.476198
O22	O	0.929150	0.181408	-0.292007
O23	O	1.262483	0.514741	0.041326
O24	O	1.595816	0.848075	0.374660
O25	O	1.113675	0.381564	-0.300206
O26	O	1.447008	0.714898	0.033127
O27	O	1.780342	1.048231	0.366461
O28	O	1.012307	0.181398	-0.375154
O29	O	1.345640	0.514731	-0.041820
O30	O	1.678973	0.848064	0.291513
O31	O	0.924380	0.295296	-0.186934
O32	O	1.257713	0.628630	0.146399
O33	O	1.591047	0.961963	0.479733
O34	O	0.814678	0.295255	-0.296649
O35	O	1.148011	0.628588	0.036684
O36	O	1.481344	0.961922	0.370017
O37	O	0.920853	0.381491	-0.493051
O38	O	1.254186	0.714825	-0.159718
O39	O	1.587520	1.048158	0.173616
O40	O	0.811101	0.381505	-0.383313
O41	O	1.144434	0.714838	-0.049980
O42	O	1.477768	1.048172	0.283353
O43	O	1.007587	0.295231	-0.489534
O44	O	1.340920	0.628565	-0.156200
O45	O	1.674253	0.961898	0.177133
O46	O	0.999203	0.495411	-0.304848
O47	O	1.332536	0.828745	0.028485
O48	O	1.665870	1.162078	0.361818
O49	O	0.916083	0.495380	-0.387978
O50	O	1.249417	0.828713	-0.054645
O51	O	1.582750	1.162047	0.278689
C52	C	0.788331	0.338377	-0.339979
C53	C	1.121664	0.671711	-0.006646
C54	C	1.454997	1.005044	0.326687
C55	C	0.713098	0.338385	-0.339989
C56	C	1.046432	0.671718	-0.006655
C57	C	1.379765	1.005051	0.326678
C58	C	0.679633	0.293532	-0.381512
C59	C	1.012967	0.626866	-0.048179
C60	C	1.346300	0.960199	0.285155
C61	C	0.608945	0.293536	-0.381515
C62	C	0.942278	0.626869	-0.048181
C63	C	1.275611	0.960203	0.285152
C64	C	0.571722	0.338396	-0.339997
C65	C	0.905056	0.671730	-0.006664
C66	C	1.238389	1.005063	0.326669
C67	C	0.605192	0.383251	-0.298469
C68	C	0.938525	0.716584	0.034864
C69	C	1.271859	1.049917	0.368197
C70	C	0.675880	0.383243	-0.298464
C71	C	1.009213	0.716576	0.034870
C72	C	1.342546	1.049910	0.368203
C73	C	0.320117	0.383282	-0.298492
C74	C	0.653451	0.716616	0.034842
C75	C	0.986784	1.049949	0.368175
C76	C	0.249425	0.383288	-0.298502
C77	C	0.582758	0.716621	0.034831
C78	C	0.916092	1.049955	0.368165
C79	C	0.253183	0.293575	-0.381543
C80	C	0.586516	0.626909	-0.048209
C81	C	0.919849	0.960242	0.285124
C82	C	0.323870	0.293567	-0.381537
C83	C	0.657203	0.626901	-0.048203
C84	C	0.990537	0.960234	0.285130
C85	C	0.357334	0.338419	-0.340007
C86	C	0.690667	0.671752	-0.006673
C87	C	1.024001	1.005086	0.326660
C88	C	0.433983	0.338414	-0.340003
C89	C	0.767316	0.671747	-0.006670
C90	C	1.100649	1.005080	0.326664
C91	C	0.495075	0.338406	-0.340004
C92	C	0.828408	0.671739	-0.006671
C93	C	1.161741	1.005072	0.326663
C94	C	0.956599	0.520880	-0.347469
C95	C	1.289933	0.854213	-0.014136
C96	C	1.623266	1.187546	0.319197
C97	C	0.953416	0.598946	-0.350689
C98	C	1.286749	0.932279	-0.017356
C99	C	1.620083	1.265612	0.315978
C100	C	0.995230	0.635614	-0.308956
C101	C	1.328563	0.968948	0.024377
C102	C	1.661897	1.302281	0.357711
C103	C	0.992240	0.708966	-0.311988
C104	C	1.325573	1.042299	0.021345
C105	C	1.658907	1.375632	0.354679
C106	C	0.947432	0.745647	-0.356750
C107	C	1.280765	1.078980	-0.023416
C108	C	1.614099	1.412314	0.309917
C109	C	0.905616	0.708973	-0.398487
C110	C	1.238950	1.042306	-0.065154
C111	C	1.572283	1.375640	0.268179
C112	C	0.908610	0.635623	-0.395458
C113	C	1.241944	0.968957	-0.062125
C114	C	1.575277	1.302290	0.271208
C115	C	0.936229	0.967116	-0.368062
C116	C	1.269562	1.300450	-0.034729
C117	C	1.602895	1.633783	0.298605
C118	C	0.933237	1.040472	-0.371086
C119	C	1.266570	1.373805	-0.037753
C120	C	1.599903	1.707138	0.295580
C121	C	1.019861	1.040459	-0.284588
C122	C	1.353195	1.373792	0.048746
C123	C	1.686528	1.707126	0.382079
C124	C	1.022849	0.967108	-0.281560
C125	C	1.356182	1.300441	0.051773
C126	C	1.689515	1.633774	0.385107
C127	C	0.981035	0.930440	-0.323300
C128	C	1.314369	1.263774	0.010034
C129	C	1.647702	1.597107	0.343367
C130	C	0.944373	0.820624	-0.359848
C131	C	1.277706	1.153957	-0.026515
C132	C	1.611040	1.487290	0.306818
C133	C	0.984098	0.855465	-0.320204
C134	C	1.317431	1.188798	0.013129
C135	C	1.650765	1.522132	0.346463
C136	C	1.140727	0.338422	-0.340015
C137	C	1.474061	0.671755	-0.006681
C138	C	1.807394	1.005088	0.326652
C139	C	1.215959	0.338431	-0.340022
C140	C	1.549292	0.671765	-0.006689
C141	C	1.882626	1.005098	0.326644
C142	C	0.971814	1.155206	-0.332518
C143	C	1.305148	1.488539	0.000815
C144	C	1.638481	1.821873	0.334148
C145	C	0.975051	1.077140	-0.329354
C146	C	1.308384	1.410473	0.003980
C147	C	1.641717	1.743807	0.337313
C148	C	0.964225	0.338355	-0.516538
C149	C	1.297559	0.671688	-0.183204
C150	C	1.630892	1.005022	0.150129
C151	C	0.964242	0.338336	-0.591769
C152	C	1.297576	0.671669	-0.258436
C153	C	1.630909	1.005003	0.074898
C154	C	1.009406	0.293418	-0.625283
C155	C	1.342739	0.626752	-0.291949
C156	C	1.676072	0.960085	0.041384
C157	C	1.009413	0.293398	-0.695970
C158	C	1.342747	0.626731	-0.362637
C159	C	1.676080	0.960065	-0.029304
C160	C	0.964261	0.338299	-0.733143
C161	C	1.297594	0.671633	-0.399810
C162	C	1.630927	1.004966	-0.066476
C163	C	0.919093	0.383219	-0.699625
C164	C	1.252426	0.716553	-0.366291
C165	C	1.585759	1.049886	-0.032958
C166	C	0.919082	0.383236	-0.628938
C167	C	1.252415	0.716569	-0.295605
C168	C	1.585749	1.049902	0.037729
C169	C	0.919133	0.383154	-0.984695
C170	C	1.252467	0.716487	-0.651362
C171	C	1.585800	1.049821	-0.318029
C172	C	0.919149	0.383136	-1.055387
C173	C	1.252482	0.716469	-0.722053
C174	C	1.585816	1.049802	-0.388720
C175	C	1.009465	0.293316	-1.051727
C176	C	1.342798	0.626649	-0.718394
C177	C	1.676132	0.959983	-0.385061
C178	C	1.009454	0.293332	-0.981041
C179	C	1.342788	0.626666	-0.647708
C180	C	1.676121	0.959999	-0.314374
C181	C	0.964284	0.338249	-0.947529
C182	C	1.297617	0.671583	-0.614195
C183	C	1.630951	1.004916	-0.280862
C184	C	0.964275	0.338270	-0.870881
C185	C	1.297609	0.671603	-0.537548
C186	C	1.630942	1.004937	-0.204214
C187	C	0.964272	0.338283	-0.809790
C188	C	1.297606	0.671616	-0.476456
C189	C	1.630939	1.004950	-0.143123
C190	C	0.964187	0.338393	-0.164140
C191	C	1.297520	0.671726	0.169193
C192	C	1.630854	1.005059	0.502526
C193	C	0.964309	0.338214	-0.088902
C194	C	1.297643	0.671547	0.244432
C195	C	1.630976	1.004880	0.577765
H196	H	0.225928	0.257052	-0.415356
H197	H	0.559261	0.590386	-0.082023
H198	H	0.892595	0.923719	0.251311
H199	H	0.882299	0.419805	-0.601652
H200	H	1.215632	0.753139	-0.268319
H201	H	1.548966	1.086472	0.065015
H202	H	1.046242	0.256740	-1.079022
H203	H	1.379576	0.590073	-0.745688
H204	H	1.712909	0.923407	-0.412355
O205	O	0.863509	0.596074	-0.440472
O206	O	1.196842	0.929407	-0.107138
O207	O	1.530176	1.262740	0.226195
H208	H	0.873123	0.538907	-0.430852
H209	H	1.206457	0.872240	-0.097518
H210	H	1.539790	1.205573	0.235815
O211	O	1.043565	0.596049	-0.260685
O212	O	1.376898	0.929382	0.072649
O213	O	1.710231	1.262716	0.405982
H214	H	1.031422	0.610173	-0.208133
H215	H	1.364756	0.943506	0.125200
H216	H	1.698089	1.276840	0.458534
O217	O	1.058113	0.244990	-0.585195
O218	O	1.391446	0.578323	-0.251862
O219	O	1.724779	0.911657	0.081472
H220	H	1.050525	0.252552	-0.530411
H221	H	1.383859	0.585885	-0.197078
H222	H	1.717192	0.919218	0.136255
H223	H	0.354173	0.257040	-0.415347
H224	H	0.687507	0.590373	-0.082013
H225	H	1.020840	0.923707	0.251320
O226	O	1.058129	0.244955	-0.732120
O227	O	1.391462	0.578289	-0.398787
O228	O	1.724795	0.911622	-0.065453
H229	H	1.089531	0.213743	-0.694396
H230	H	1.422864	0.547076	-0.361063
H231	H	1.756198	0.880410	-0.027730
H232	H	0.219120	0.419821	-0.264691
H233	H	0.552454	0.753154	0.068642
H234	H	0.885787	1.086487	0.401976
H235	H	1.046225	0.256771	-0.950778
H236	H	1.379558	0.590105	-0.617445
H237	H	1.712891	0.923438	-0.284112
O238	O	0.870439	0.431559	-1.095485
O239	O	1.203773	0.764892	-0.762151
O240	O	1.537106	1.098226	-0.428818
H241	H	0.839021	0.462789	-1.060306
H242	H	1.172355	0.796123	-0.726973
H243	H	1.505688	1.129456	-0.393640
O244	O	0.870384	0.431561	-0.948551
O245	O	1.203717	0.764895	-0.615218
O246	O	1.537051	1.098228	-0.281885
H247	H	0.838982	0.462771	-0.986277
H248	H	1.172315	0.796104	-0.652944
H249	H	1.505649	1.129438	-0.319611
H250	H	0.907889	0.850498	-0.396292
H251	H	1.241222	1.183831	-0.062959
H252	H	1.574556	1.517164	0.270374
H253	H	0.882326	0.419776	-0.729896
H254	H	1.215659	0.753110	-0.396563
H255	H	1.548993	1.086443	-0.063230
H256	H	0.709935	0.257003	-0.415322
H257	H	1.043268	0.590337	-0.081989
H258	H	1.376602	0.923670	0.251345
O259	O	0.857287	0.748530	-0.446770
O260	O	1.190620	1.081864	-0.113436
O261	O	1.523954	1.415197	0.219897
H262	H	0.804747	0.734493	-0.434535
H263	H	1.138080	1.067826	-0.101202
H264	H	1.471413	1.401160	0.232131
H265	H	1.026289	0.738818	-0.278004
H266	H	1.359622	1.072151	0.055329
H267	H	1.692956	1.405485	0.388662
O268	O	1.032428	0.815907	-0.271927
O269	O	1.365762	1.149240	0.061406
O270	O	1.699095	1.482574	0.394739
H271	H	1.084971	0.829933	-0.284167
H272	H	1.418304	1.163266	0.049167
H273	H	1.751637	1.496599	0.382500
O274	O	0.572847	0.245159	-0.426299
O275	O	0.906181	0.578492	-0.092966
O276	O	1.239514	0.911826	0.240367
H277	H	0.610606	0.213970	-0.455173
H278	H	0.943939	0.547303	-0.121840
H279	H	1.277273	0.880636	0.211493
O280	O	1.071183	0.927543	-0.233288
O281	O	1.404516	1.260877	0.100046
O282	O	1.737850	1.594210	0.433379
H283	H	1.099763	0.965365	-0.204782
H284	H	1.433096	1.298699	0.128552
H285	H	1.766430	1.632032	0.461885
H286	H	0.347355	0.419804	-0.264676
H287	H	0.680688	0.753137	0.068658
H288	H	1.014022	1.086471	0.401991
H289	H	0.896757	1.070335	-0.407549
H290	H	1.230090	1.403669	-0.074215
H291	H	1.563423	1.737002	0.259118
O292	O	0.565050	0.431636	-0.253686
O293	O	0.898383	0.764969	0.079648
O294	O	1.231717	1.098303	0.412981
H295	H	0.510274	0.424112	-0.260669
H296	H	0.843607	0.757445	0.072664
H297	H	1.176940	1.090778	0.405997
H298	H	1.053904	1.070321	-0.250607
H299	H	1.387238	1.403655	0.082727
H300	H	1.720571	1.736988	0.416060
O301	O	0.711980	0.431617	-0.253676
O302	O	1.045313	0.764950	0.079657
O303	O	1.378647	1.098284	0.412990
H304	H	0.696139	0.486759	-0.267457
H305	H	1.029473	0.820093	0.065876
H306	H	1.362806	1.153426	0.399209
O307	O	0.891112	0.927571	-0.413058
O308	O	1.224445	1.260905	-0.079725
O309	O	1.557779	1.594238	0.253609
H310	H	0.859441	0.965403	-0.444679
H311	H	1.192774	1.298737	-0.111346
H312	H	1.526108	1.632070	0.221987
