data_functionalizedCrystal
_audit_creation_method	'MofGen! by Chris Wilmer'
_symmetry_space_group_name_H-M	'P1'
_symmetry_Int_Tables_number	1
_symmetry_cell_setting	triclinic
loop_
_symmetry_equiv_pos_as_xyz
  x,y,z
_cell_length_a	12.827893
_cell_length_b	25.639239
_cell_length_c	12.827885
_cell_angle_alpha	89.964018
_cell_angle_beta	89.980538
_cell_angle_gamma	90.038657
loop_
_atom_site_label
_atom_site_type_symbol
_atom_site_fract_x
_atom_site_fract_y
_atom_site_fract_z
Zn1	Zn	1.597502	-0.208126	-0.590804
Zn2	Zn	1.597325	-0.295571	-0.416045
Zn3	Zn	1.422743	-0.208151	-0.416077
Zn4	Zn	1.422658	-0.295532	-0.590745
O5	O	1.510057	-0.251845	-0.503418
O6	O	1.743715	-0.219731	-0.567633
O7	O	1.574128	-0.284002	-0.269813
O8	O	1.446035	-0.134983	-0.439293
O9	O	1.743584	-0.283977	-0.439238
O10	O	1.574430	-0.134964	-0.567664
O11	O	1.445863	-0.219775	-0.269837
O12	O	1.276496	-0.219737	-0.439236
O13	O	1.445890	-0.283911	-0.736989
O14	O	1.276433	-0.283935	-0.567564
O15	O	1.574348	-0.219694	-0.737032
O16	O	1.574045	-0.368731	-0.439181
O17	O	1.445718	-0.368702	-0.567533
C18	C	1.238547	-0.251835	-0.503398
C19	C	1.122394	-0.251843	-0.503414
C20	C	1.070606	-0.283660	-0.566817
C21	C	0.950556	-0.283670	-0.566835
C22	C	1.509881	-0.387688	-0.503370
C23	C	1.509902	-0.445802	-0.503384
C24	C	1.577051	-0.806167	-0.436699
C25	C	1.577092	-0.860771	-0.436713
O26	O	1.634003	-0.889010	-0.379962
N27	N	1.510241	-0.888084	-0.503487
C28	C	1.443352	-0.860790	-0.570259
O29	O	1.386495	-0.889035	-0.627057
C30	C	1.443318	-0.806186	-0.570249
C31	C	1.510166	-0.778876	-0.503463
C32	C	1.643895	-0.778857	-0.369920
C33	C	1.643853	-0.724256	-0.369904
C34	C	1.576967	-0.696966	-0.436669
C35	C	1.510124	-0.724276	-0.503448
C36	C	1.376436	-0.778893	-0.637026
C37	C	1.376407	-0.724286	-0.637011
C38	C	1.443255	-0.696976	-0.570225
C39	C	1.443196	-0.642385	-0.570198
N40	N	1.510047	-0.615072	-0.503424
C41	C	1.576933	-0.642363	-0.436659
C42	C	1.443431	-0.975460	-0.570275
C43	C	1.443460	-1.030063	-0.570280
C44	C	1.577201	-1.030040	-0.436735
C45	C	1.577166	-0.975437	-0.436726
C46	C	1.510282	-0.948148	-0.503501
C47	C	1.576838	-0.527698	-0.436632
C48	C	1.576787	-0.473092	-0.436620
C49	C	1.443051	-0.473119	-0.570168
C50	C	1.443097	-0.527720	-0.570177
C51	C	1.510000	-0.555008	-0.503405
O52	O	1.386317	-0.614112	-0.626923
O53	O	1.633790	-0.614110	-0.379880
C54	C	1.782627	-0.251856	-0.503438
C55	C	1.898780	-0.251860	-0.503447
C56	C	1.510129	-0.251795	-0.775988
C57	C	1.510160	-0.251773	-0.892141
C58	C	1.510262	-0.115472	-0.503489
C59	C	1.510349	-0.057358	-0.503519
C60	C	1.573666	-0.283519	-1.063959
C61	C	1.573636	-0.283542	-0.943908
C62	C	1.510046	-0.251857	-0.231908
C63	C	1.510217	-0.251731	-0.115755
H64	H	1.077855	-0.224608	-0.449151
H65	H	1.631600	-0.953205	-0.382344
O66	O	1.371258	-0.946032	-0.642280
H67	H	1.389125	-0.956479	-0.724316
H68	H	1.631223	-0.450858	-0.382231
H69	H	1.631666	-1.052270	-0.382375
H70	H	1.631319	-0.549909	-0.382263
H71	H	1.455871	-0.224535	-1.071223
O72	O	1.715968	-0.694803	-0.297887
H73	H	1.762488	-0.722961	-0.251480
H74	H	1.321996	-0.801120	-0.691405
H75	H	1.698367	-0.801071	-0.315552
O76	O	0.957752	-0.215779	-0.431523
H77	H	0.936911	-0.174746	-0.449566
H78	H	1.627961	-0.310755	-0.899365
O79	O	1.645659	-0.319548	-1.122931
H80	H	1.634391	-0.313873	-1.207969
O81	O	1.370981	-0.557173	-0.642200
H82	H	1.317852	-0.582093	-0.595387
H83	H	1.321943	-0.702069	-0.691391
O84	O	1.129587	-0.319724	-0.638733
H85	H	1.214624	-0.314053	-0.627442
O86	O	0.891576	-0.319753	-0.638747
H87	H	0.806540	-0.314095	-0.627483
O88	O	1.371353	-1.059517	-0.642305
H89	H	1.324846	-1.031361	-0.688729
H90	H	1.388590	-0.450891	-0.624524
H91	H	1.455841	-0.224555	-0.936678
