data_functionalizedCrystal
_audit_creation_method	'MofGen! by Chris Wilmer'
_symmetry_space_group_name_H-M	'P1'
_symmetry_Int_Tables_number	1
_symmetry_cell_setting	triclinic
loop_
_symmetry_equiv_pos_as_xyz
  x,y,z
_cell_length_a	14.908571
_cell_length_b	12.594516
_cell_length_c	14.908308
_cell_angle_alpha	93.271498
_cell_angle_beta	90.175053
_cell_angle_gamma	86.712497
loop_
_atom_site_label
_atom_site_type_symbol
_atom_site_fract_x
_atom_site_fract_y
_atom_site_fract_z
Zn1	Zn	1.345329	-0.555460	-0.587618
Zn2	Zn	1.845329	-0.055460	-0.087618
Zn3	Zn	1.353920	-0.723816	-0.437269
Zn4	Zn	1.853920	-0.223816	0.062731
Zn5	Zn	1.203643	-0.535016	-0.428614
Zn6	Zn	1.703643	-0.035016	0.071386
Zn7	Zn	1.194948	-0.722551	-0.578920
Zn8	Zn	1.694948	-0.222551	-0.078920
O9	O	1.274460	-0.634211	-0.508105
O10	O	1.774460	-0.134211	-0.008105
O11	O	1.472295	-0.586878	-0.574935
O12	O	1.972295	-0.086878	-0.074935
O13	O	1.341220	-0.690745	-0.310295
O14	O	1.841220	-0.190745	0.189705
O15	O	1.222482	-0.388787	-0.449724
O16	O	1.722482	0.111213	0.050276
O17	O	1.478607	-0.710568	-0.464475
O18	O	1.978607	-0.210568	0.035525
O19	O	1.326578	-0.403807	-0.566543
O20	O	1.826578	0.096193	-0.066543
O21	O	1.230812	-0.552034	-0.303937
O22	O	1.730812	-0.052034	0.196063
O23	O	1.076663	-0.550808	-0.441291
O24	O	1.576663	-0.050808	0.058709
O25	O	1.207662	-0.708413	-0.705899
O26	O	1.707662	-0.208413	-0.205899
O27	O	1.070275	-0.688589	-0.551720
O28	O	1.570275	-0.188589	-0.051720
O29	O	1.318147	-0.585652	-0.712289
O30	O	1.818147	-0.085652	-0.212289
O31	O	1.332788	-0.872590	-0.456041
O32	O	1.832788	-0.372590	0.043959
O33	O	1.215992	-0.871661	-0.560112
O34	O	1.715992	-0.371661	-0.060112
C35	C	1.040844	-0.617344	-0.494623
C36	C	1.540844	-0.117344	0.005377
C37	C	0.940900	-0.610155	-0.488877
C38	C	1.440900	-0.110155	0.011123
C39	C	0.746501	-0.740319	-0.592914
C40	C	1.246501	-0.240319	-0.092914
C41	C	0.652595	-0.733568	-0.587518
C42	C	1.152595	-0.233568	-0.087518
C43	C	0.659180	-0.589898	-0.472693
C44	C	1.159180	-0.089898	0.027307
C45	C	0.753086	-0.596649	-0.478089
C46	C	1.253086	-0.096649	0.021911
C47	C	0.796743	-0.671863	-0.538201
C48	C	1.296743	-0.171863	-0.038201
C49	C	0.890651	-0.678619	-0.543592
C50	C	1.390651	-0.178619	-0.043592
C51	C	0.897235	-0.534943	-0.428772
C52	C	1.397235	-0.034943	0.071228
C53	C	0.803329	-0.528192	-0.423376
C54	C	1.303329	-0.028192	0.076624
C55	C	1.274402	-0.910747	-0.508093
C56	C	1.774402	-0.410747	-0.008093
C57	C	1.274457	-1.029058	-0.508123
C58	C	1.774457	-0.529058	-0.008123
C59	C	1.210928	-1.097842	-0.564684
C60	C	1.710928	-0.597842	-0.064684
C61	C	1.193759	-1.161862	-0.481377
C62	C	1.693759	-0.661862	0.018623
C63	C	1.291708	-1.175844	-0.591449
C64	C	1.791708	-0.675844	-0.091449
C65	C	1.257247	-1.091515	-0.424769
C66	C	1.757247	-0.591515	0.075231
C67	C	1.355231	-1.105496	-0.534899
C68	C	1.855231	-0.605496	-0.034899
C69	C	1.338096	-1.169483	-0.451537
C70	C	1.838096	-0.669483	0.048463
C71	C	1.508989	-0.651145	-0.521641
C72	C	2.008989	-0.151145	-0.021641
C73	C	1.608931	-0.658361	-0.527409
C74	C	2.108931	-0.158361	-0.027409
C75	C	1.260976	-0.649172	-0.742631
C76	C	1.760976	-0.149172	-0.242631
C77	C	1.255230	-0.655547	-0.842572
C78	C	1.755230	-0.155547	-0.342572
C79	C	1.274542	-0.356598	-0.508138
C80	C	1.774542	0.143402	-0.008138
C81	C	1.274577	-0.238296	-0.508153
C82	C	1.774577	0.261704	-0.008153
C83	C	1.359477	-0.539672	-1.037028
C84	C	1.859477	-0.039672	-0.537028
C85	C	1.354081	-0.545658	-1.130932
C86	C	1.854081	-0.045658	-0.630932
C87	C	1.239037	-0.673502	-1.124285
C88	C	1.739037	-0.173502	-0.624285
C89	C	1.244433	-0.667515	-1.030381
C90	C	1.744433	-0.167515	-0.530381
C91	C	1.304656	-0.600599	-0.986756
C92	C	1.804656	-0.100599	-0.486756
C93	C	1.310057	-0.594618	-0.892851
C94	C	1.810057	-0.094618	-0.392851
C95	C	1.195009	-0.722455	-0.886206
C96	C	1.695009	-0.222455	-0.386206
C97	C	1.189612	-0.728442	-0.980110
C98	C	1.689612	-0.228442	-0.480110
C99	C	1.287944	-0.619235	-0.274494
C100	C	1.787944	-0.119235	0.225506
C101	C	1.293864	-0.612572	-0.174564
C102	C	1.793864	-0.112572	0.325436
H103	H	0.938152	-0.479203	-0.384219
H104	H	1.438152	0.020797	0.115781
H105	H	1.150372	-0.772070	-0.845265
H106	H	1.650372	-0.272070	-0.345265
H107	H	0.926195	-0.739864	-0.592536
H108	H	1.426195	-0.239864	-0.092536
H109	H	0.767770	-0.466952	-0.374438
H110	H	1.267770	0.033048	0.125562
H111	H	1.391875	-1.200727	-0.403659
H112	H	1.891875	-0.700727	0.096341
H113	H	1.306251	-1.212658	-0.661905
H114	H	1.806251	-0.712658	-0.161905
H115	H	1.190006	-0.727981	-1.159821
H116	H	1.690006	-0.227981	-0.659821
H117	H	1.359094	-0.540133	-0.857333
H118	H	1.859094	-0.040133	-0.357333
N119	N	1.139659	-1.056177	-0.627944
N120	N	1.639659	-0.556177	-0.127944
H121	H	1.078711	-1.076476	-0.607608
H122	H	1.578711	-0.576476	-0.107608
H123	H	1.140575	-0.976053	-0.627891
H124	H	1.640575	-0.476053	-0.127891
N125	N	1.445618	-1.072349	-0.564911
N126	N	1.945618	-0.572349	-0.064911
H127	H	1.458549	-1.103163	-0.627884
H128	H	1.958549	-0.603163	-0.127884
H129	H	1.445012	-0.992069	-0.564047
H130	H	1.945012	-0.492069	-0.064047
H131	H	1.125505	-1.186887	-0.458752
H132	H	1.625505	-0.686887	0.041248
H133	H	1.408518	-0.485191	-1.001508
H134	H	1.908518	0.014809	-0.501508
H135	H	1.242625	-1.054822	-0.354289
H136	H	1.742625	-0.554822	0.145711
N137	N	1.413208	-0.479934	-1.185146
N138	N	1.913208	0.020066	-0.685146
H139	H	1.478388	-0.500053	-1.172508
H140	H	1.978388	-0.000053	-0.672508
H141	H	1.400579	-0.493898	-1.251234
H142	H	1.900579	0.006102	-0.751234
N143	N	0.793596	-0.821448	-0.657733
N144	N	1.293596	-0.321448	-0.157733
H145	H	0.747517	-0.863796	-0.691573
H146	H	1.247517	-0.363796	-0.191573
H147	H	0.830178	-0.783662	-0.701646
H148	H	1.330178	-0.283662	-0.201646
N149	N	0.598400	-0.807406	-0.646523
N150	N	1.098400	-0.307406	-0.146523
H151	H	0.611064	-0.796268	-0.711730
H152	H	1.111064	-0.296268	-0.211730
H153	H	0.615567	-0.883673	-0.633314
H154	H	1.115567	-0.383673	-0.133314
N155	N	0.612088	-0.508815	-0.407832
N156	N	1.112088	-0.008815	0.092168
H157	H	0.544976	-0.514941	-0.412709
H158	H	1.044976	-0.014941	0.087291
H159	H	0.632192	-0.522396	-0.344549
H160	H	1.132192	-0.022396	0.155451
N161	N	1.124642	-0.800589	-1.027164
N162	N	1.624642	-0.300589	-0.527164
H163	H	1.129535	-0.795131	-1.094280
H164	H	1.629535	-0.295131	-0.594280
H165	H	1.139549	-0.876573	-1.011560
H166	H	1.639549	-0.376573	-0.511560
