data_functionalizedCrystal
_audit_creation_method	'MofGen! by Chris Wilmer'
_symmetry_space_group_name_H-M	'P1'
_symmetry_Int_Tables_number	1
_symmetry_cell_setting	triclinic
loop_
_symmetry_equiv_pos_as_xyz
  x,y,z
_cell_length_a	18.215407
_cell_length_b	12.759400
_cell_length_c	12.759393
_cell_angle_alpha	89.968436
_cell_angle_beta	90.021831
_cell_angle_gamma	89.984868
loop_
_atom_site_label
_atom_site_type_symbol
_atom_site_fract_x
_atom_site_fract_y
_atom_site_fract_z
Zn1	Zn	1.125139	0.418192	0.594075
Zn2	Zn	1.625139	0.918192	1.094075
Zn3	Zn	1.125065	0.593911	0.418395
Zn4	Zn	1.625065	1.093911	0.918395
Zn5	Zn	1.002067	0.418248	0.418404
Zn6	Zn	1.502067	0.918248	0.918404
Zn7	Zn	1.002059	0.593831	0.594026
Zn8	Zn	1.502059	1.093831	1.094026
O9	O	1.063582	0.506045	0.506225
O10	O	1.563582	1.006045	1.006225
O11	O	1.228113	0.441511	0.570787
O12	O	1.728113	0.941511	1.070787
O13	O	1.108721	0.570665	0.271375
O14	O	1.608721	1.070665	0.771375
O15	O	1.018427	0.271219	0.441731
O16	O	1.518427	0.771219	0.941731
O17	O	1.228059	0.570611	0.441716
O18	O	1.728059	1.070611	0.941716
O19	O	1.108847	0.271178	0.570796
O20	O	1.608847	0.771178	1.070796
O21	O	1.018355	0.441607	0.271382
O22	O	1.518355	0.941607	0.771382
O23	O	0.899082	0.441529	0.441684
O24	O	1.399082	0.941529	0.941684
O25	O	1.018413	0.570475	0.741054
O26	O	1.518413	1.070475	1.241054
O27	O	0.899076	0.570529	0.570713
O28	O	1.399076	1.070529	1.070713
O29	O	1.108840	0.441434	0.741090
O30	O	1.608840	0.941434	1.241090
O31	O	1.108713	0.740921	0.441669
O32	O	1.608713	1.240921	0.941669
O33	O	1.018342	0.740862	0.570704
O34	O	1.518342	1.240862	1.070704
C35	C	0.872376	0.506027	0.506195
C36	C	1.372376	1.006027	1.006195
C37	C	0.790577	0.506045	0.506207
C38	C	1.290577	1.006045	1.006207
C39	C	1.063539	0.779013	0.506203
C40	C	1.563539	1.279013	1.006203
C41	C	1.063587	0.895789	0.506229
C42	C	1.563587	1.395789	1.006229
C43	C	1.063634	0.505939	0.780258
C44	C	1.563634	1.005939	1.280258
C45	C	1.063656	0.505894	0.897035
C46	C	1.563656	1.005894	1.397035
C47	C	0.602399	0.573321	0.573308
C48	C	1.102399	1.073321	1.073308
C49	C	0.525541	0.573324	0.573321
C50	C	1.025541	1.073324	1.073321
C51	C	0.525517	0.438789	0.439165
C52	C	1.025517	0.938789	0.939165
C53	C	0.602375	0.438781	0.439158
C54	C	1.102375	0.938781	0.939158
C55	C	0.640814	0.506053	0.506228
C56	C	1.140814	1.006053	1.006228
C57	C	0.487098	0.506064	0.506248
C58	C	0.987098	1.006064	1.006248
C59	C	0.403764	0.506067	0.506262
C60	C	0.903764	1.006067	1.006262
C61	C	0.724153	0.506049	0.506216
C62	C	1.224153	1.006049	1.006216
C63	C	1.255535	0.506064	0.506256
C64	C	1.755535	1.006064	1.006256
C65	C	1.337334	0.506072	0.506269
C66	C	1.837334	1.006072	1.006269
C67	C	1.063646	0.232012	0.506270
C68	C	1.563646	0.732012	1.006270
C69	C	1.063673	0.115235	0.506289
C70	C	1.563673	0.615235	1.006289
C71	C	1.110696	0.950647	0.439114
C72	C	1.610696	1.450647	0.939114
C73	C	1.110741	1.060371	0.439147
C74	C	1.610741	1.560371	0.939147
C75	C	1.016563	1.060370	0.573411
C76	C	1.516563	1.560370	1.073411
C77	C	1.016522	0.950648	0.573383
C78	C	1.516522	1.450648	1.073383
C79	C	1.165067	0.950648	0.361595
C80	C	1.665067	1.450648	0.861595
C81	C	1.165112	1.060372	0.361627
C82	C	1.665112	1.560372	0.861627
C83	C	1.063573	0.506075	0.233258
C84	C	1.563573	1.006075	0.733258
C85	C	1.063694	0.505824	0.116482
C86	C	1.563694	1.005824	0.616482
C87	C	1.110747	0.438696	0.951918
C88	C	1.610747	0.938696	1.451918
C89	C	1.110765	0.438658	1.061642
C90	C	1.610765	0.938658	1.561642
C91	C	1.016597	0.573025	1.061591
C92	C	1.516597	1.073025	1.561591
C93	C	1.016577	0.573057	0.951869
C94	C	1.516577	1.073057	1.451869
C95	C	1.165116	0.361123	0.951947
C96	C	1.665116	0.861123	1.451947
C97	C	1.165134	0.361085	1.061672
C98	C	1.665134	0.861085	1.561672
H99	H	0.633694	0.628095	0.627923
H100	H	1.133694	1.128095	1.127923
N101	N	0.965830	0.645472	1.120738
N102	N	1.465830	1.145472	1.620738
H103	H	0.935996	0.688048	1.069318
H104	H	1.435996	1.188048	1.569318
H105	H	0.931791	0.602688	1.166266
H106	H	1.431791	1.102688	1.666266
H107	H	1.149868	0.279759	0.922190
H108	H	1.649868	0.779759	1.422190
N109	N	1.144948	1.099936	0.253831
N110	N	1.644948	1.599936	0.753831
H111	H	1.186441	1.143885	0.225123
H112	H	1.686441	1.643885	0.725123
H113	H	1.135901	1.038394	0.205790
H114	H	1.635901	1.538394	0.705790
H115	H	1.222046	0.920790	0.383451
H116	H	1.722046	1.420790	0.883451
H117	H	1.219262	1.094317	0.390843
H118	H	1.719262	1.594317	0.890843
N119	N	0.965758	0.645494	0.892672
N120	N	1.465758	1.145494	1.392672
H121	H	0.935933	0.688026	0.944061
H122	H	1.435933	1.188026	1.444061
H123	H	0.995669	0.694147	0.847123
H124	H	1.495669	1.194147	1.347123
N125	N	0.643804	0.366219	0.366798
N126	N	1.143804	0.866219	0.866798
H127	H	0.675673	0.408854	0.318035
H128	H	1.175673	0.908854	0.818035
H129	H	0.675667	0.317589	0.409648
H130	H	1.175667	0.817589	0.909648
N131	N	0.484107	0.645881	0.645667
N132	N	0.984107	1.145881	1.145667
H133	H	0.520123	0.688496	0.688149
H134	H	1.020123	1.188496	1.188149
H135	H	0.452199	0.694452	0.602815
H136	H	0.952199	1.194452	1.102815
H137	H	1.219243	0.390291	0.917916
H138	H	1.719243	0.890291	1.417916
H139	H	1.144740	0.283776	1.095718
H140	H	1.644740	0.783776	1.595718
N141	N	1.240629	0.389949	1.101136
N142	N	1.740629	0.889949	1.601136
H143	H	1.274305	0.402865	1.039605
H144	H	1.774305	0.902865	1.539605
H145	H	1.237286	0.455556	1.145127
H146	H	1.737286	0.955556	1.645127
H147	H	0.494211	0.384020	0.384558
H148	H	0.994211	0.884020	0.884558
H149	H	0.978169	0.905984	0.628042
H150	H	1.478169	1.405984	1.128042
H151	H	0.978244	1.105049	0.628087
H152	H	1.478244	1.605049	1.128087
H153	H	1.144666	0.916701	0.284267
H154	H	1.644666	1.416701	0.784267
