data_functionalizedCrystal
_audit_creation_method	'MofGen! by Chris Wilmer'
_symmetry_space_group_name_H-M	'P1'
_symmetry_Int_Tables_number	1
_symmetry_cell_setting	triclinic
loop_
_symmetry_equiv_pos_as_xyz
  x,y,z
_cell_length_a	10.654550
_cell_length_b	19.188930
_cell_length_c	9.130313
_cell_angle_alpha	89.993647
_cell_angle_beta	89.996220
_cell_angle_gamma	83.814841
loop_
_atom_site_label
_atom_site_type_symbol
_atom_site_fract_x
_atom_site_fract_y
_atom_site_fract_z
O1	O	1.665759	0.098059	-0.121938
O2	O	1.300083	0.107401	-0.121916
O3	O	1.493474	0.001143	-0.121899
O4	O	1.472368	0.204317	-0.121955
O5	O	1.493471	0.001146	0.121700
O6	O	1.300081	0.107404	0.121682
O7	O	1.665757	0.098062	0.121661
Cu8	Cu	1.482918	0.102733	0.143914
Cu9	Cu	1.482921	0.102730	-0.144170
O10	O	1.472366	0.204320	0.121644
C11	C	1.253298	0.106717	-0.000114
C12	C	1.113898	0.104664	-0.000104
C13	C	1.492789	-0.024871	-0.000096
C14	C	1.490737	-0.102389	-0.000083
C15	C	1.033089	0.167227	-0.000143
C16	C	0.902109	0.165295	-0.000168
C17	C	0.932761	0.038231	-0.000121
C18	C	1.063738	0.040164	-0.000086
C19	C	1.015391	0.240587	-0.000176
C20	C	0.884411	0.238654	-0.000201
C21	C	1.604213	-0.146570	-0.000083
C22	C	1.602285	-0.219407	-0.000106
C23	C	1.486876	-0.248058	-0.000100
C24	C	1.373386	-0.203867	-0.000109
C25	C	1.375316	-0.131032	-0.000100
N26	N	1.398658	-0.356639	0.082806
N27	N	1.396832	-0.425830	0.082801
C28	C	1.481052	-0.467505	-0.000129
N29	N	1.567186	-0.437377	-0.083037
N30	N	1.569016	-0.368180	-0.083025
C31	C	1.484770	-0.327034	-0.000110
C32	C	1.592445	-0.590665	-0.000157
C33	C	1.590513	-0.663502	-0.000189
C34	C	1.361610	-0.647960	-0.000177
C35	C	1.363545	-0.575125	-0.000159
C36	C	1.478966	-0.546481	-0.000142
C37	C	1.712541	0.098746	-0.000145
C38	C	1.851941	0.100798	-0.000164
C39	C	1.473051	0.230334	-0.000163
C40	C	1.475102	0.307852	-0.000186
N41	N	1.482926	0.102735	0.346537
N42	N	1.482924	0.102722	-0.346792
C43	C	1.568581	0.055700	0.423196
C44	C	1.568577	0.055692	0.576533
C45	C	1.397260	0.149759	0.576537
C46	C	1.397258	0.149764	0.423203
C47	C	1.667493	0.001393	0.423195
C48	C	1.667490	0.001385	0.576532
H49	H	1.129530	-0.010781	-0.000034
Cl50	Cl	1.289559	0.208885	0.326830
H51	H	0.891904	-0.014283	-0.000129
H52	H	1.044114	0.269279	0.101768
Cl53	Cl	1.744951	-0.274960	-0.000107
H54	H	1.698197	-0.123254	-0.000074
Cl55	Cl	1.636139	-0.081456	0.358950
Cl56	Cl	1.816102	0.019847	0.640781
H57	H	1.279418	-0.227199	-0.000107
Cl58	Cl	1.069690	0.276648	-0.162559
Cl59	Cl	0.813161	0.272886	0.162153
H60	H	1.686428	-0.567342	-0.000149
H61	H	0.842095	0.266294	-0.102162
Cl62	Cl	1.807708	0.027655	0.349740
Cl63	Cl	1.232649	-0.075486	-0.000100
Cl64	Cl	1.733181	-0.719047	-0.000198
H65	H	1.638050	-0.049327	0.624095
H66	H	1.267641	-0.671287	-0.000180
Cl67	Cl	1.220882	-0.519579	-0.000153
H68	H	1.327511	0.188049	0.638976
