data_functionalizedCrystal
_audit_creation_method	'MofGen! by Chris Wilmer'
_symmetry_space_group_name_H-M	'P1'
_symmetry_Int_Tables_number	1
_symmetry_cell_setting	triclinic
loop_
_symmetry_equiv_pos_as_xyz
  x,y,z
_cell_length_a	18.760492
_cell_length_b	12.970454
_cell_length_c	12.970454
_cell_angle_alpha	89.998132
_cell_angle_beta	59.998066
_cell_angle_gamma	59.998434
loop_
_atom_site_label
_atom_site_type_symbol
_atom_site_fract_x
_atom_site_fract_y
_atom_site_fract_z
Zr1	Zr	0.780257	-0.135372	0.993176
O2	O	0.928969	-0.300000	0.828545
O3	O	0.631544	-0.084900	1.043650
O4	O	0.780257	-0.299999	1.043642
O5	O	0.780255	0.084766	0.828552
O6	O	0.780258	-0.300004	1.213309
O7	O	0.780256	-0.084901	0.828552
O8	O	0.514237	0.084769	1.213322
O9	O	1.046276	-0.300006	0.828539
O10	O	0.692712	-0.063384	1.191790
O11	O	0.692711	0.063241	1.065169
O12	O	0.867802	-0.190011	1.065161
O13	O	0.867801	-0.063386	0.938540
Zr14	Zr	0.780257	0.135219	1.263774
Zr15	Zr	0.780258	-0.135381	1.263775
Zr16	Zr	0.780256	0.135228	0.993175
Zr17	Zr	0.967348	-0.135382	0.993166
Zr18	Zr	0.593165	0.135229	1.263784
O19	O	0.928969	0.084747	1.213300
O20	O	0.928971	-0.300012	1.213301
O21	O	0.928968	0.084758	0.828544
O22	O	0.631544	0.299847	1.428405
O23	O	0.631545	-0.084912	1.428406
O24	O	0.631543	0.299859	1.043649
O25	O	0.780258	-0.084920	1.428398
O26	O	0.780256	0.299845	1.213308
O27	O	0.780255	0.299851	1.043641
O28	O	0.780257	0.084748	1.428398
O29	O	1.046277	-0.300013	1.043628
O30	O	0.514236	0.299860	1.213322
O31	O	0.514237	0.299853	1.428411
O32	O	0.514238	0.084762	1.428412
O33	O	1.046276	-0.084915	0.828538
O34	O	1.046276	-0.084922	1.043628
O35	O	0.692711	0.189858	1.191789
O36	O	0.692712	0.063233	1.318410
O37	O	0.867802	-0.063394	1.191781
O38	O	0.867801	0.063231	1.065160
C39	C	0.546234	-0.000064	1.128487
C40	C	0.466809	-0.000060	1.128491
C41	C	0.780255	-0.000066	0.789997
C42	C	0.780255	-0.000063	0.675121
C43	C	0.780255	0.338403	1.128474
C44	C	0.780255	0.453279	1.128474
C45	C	0.131014	0.066009	1.062364
C46	C	0.131019	-0.066190	1.194558
C47	C	0.205635	-0.066182	1.194567
C48	C	0.242944	-0.000080	1.128473
C49	C	0.205638	0.066015	1.062369
C50	C	0.242954	-0.132287	1.260660
C51	C	0.317575	-0.132283	1.260671
C52	C	0.354880	-0.066172	1.194583
C53	C	0.317569	-0.000073	1.128477
C54	C	0.354878	0.066029	1.062383
C55	C	0.317563	0.132136	0.996283
C56	C	0.242944	0.132126	0.996280
C57	C	0.429499	-0.066162	1.194586
C58	C	0.429503	0.066035	1.062387
C59	C	1.014279	-0.000089	1.128463
C60	C	1.093704	-0.000093	1.128459
C61	C	0.780258	-0.338556	1.128476
C62	C	0.780258	-0.453433	1.128476
C63	C	0.780258	-0.000087	1.466953
C64	C	0.780258	-0.000091	1.581829
C65	C	0.546235	-0.000074	1.466965
C66	C	0.466811	-0.000074	1.581845
C67	C	0.546233	0.338415	1.128487
C68	C	0.466807	0.453296	1.128490
C69	C	0.546234	0.338405	1.466964
C70	C	0.466809	0.453282	1.581844
C71	C	1.014279	-0.338558	0.789986
C72	C	1.093704	-0.453436	0.675106
C73	C	1.014278	-0.000079	0.789985
C74	C	1.093703	-0.000079	0.675105
C75	C	1.014280	-0.338568	1.128463
C76	C	1.093706	-0.453449	1.128460
C77	C	0.429512	-0.066177	1.569700
C78	C	0.354894	-0.066202	1.677632
C79	C	0.317572	-0.000115	1.797708
C80	C	0.354878	0.065991	1.809850
C81	C	0.429499	0.066007	1.701920
C82	C	0.429508	0.573350	1.194587
C83	C	0.354890	0.681303	1.194586
C84	C	0.317567	0.669200	1.128495
C85	C	0.354873	0.549134	1.062391
C86	C	0.429495	0.441183	1.062385
C87	C	0.429510	0.441133	1.701899
C88	C	0.354892	0.549062	1.809851
C89	C	0.317569	0.669140	1.797746
C90	C	0.354875	0.681286	1.677679
C91	C	0.429497	0.573358	1.569729
C92	C	1.131012	-0.441286	0.555051
C93	C	1.205653	-0.549216	0.447099
C94	C	1.242980	-0.669293	0.459204
C95	C	1.205670	-0.681440	0.579271
C96	C	1.131035	-0.573511	0.687221
C97	C	1.131009	0.066013	0.687250
C98	C	1.205648	0.066008	0.579318
C99	C	1.242973	-0.000083	0.459242
C100	C	1.205663	-0.066184	0.447100
C101	C	1.131031	-0.066185	0.555030
C102	C	1.131005	-0.441306	1.194563
C103	C	1.205624	-0.549239	1.194584
C104	C	1.242947	-0.669313	1.128493
C105	C	1.205641	-0.681454	1.062388
C106	C	1.131018	-0.573523	1.062375
H107	H	0.459874	0.119867	1.008566
N108	N	0.469721	0.137314	1.715029
H109	H	0.434747	0.179176	1.807476
H110	H	0.456723	0.203775	1.673138
N111	N	0.237084	0.785543	1.914183
H112	H	0.219123	0.759614	1.992071
H113	H	0.175206	0.837452	1.914135
N114	N	0.469752	0.586422	1.265878
H115	H	0.434794	0.678864	1.307740
H116	H	0.544667	0.544509	1.205185
H117	H	0.324526	0.539150	1.907606
H118	H	1.100657	-0.583428	1.008540
H119	H	1.236065	-0.119993	0.349319
N120	N	1.323470	-0.785688	0.342758
H121	H	1.297500	-0.837639	0.342697
H122	H	1.385377	-0.837554	0.342753
N123	N	0.314614	0.810801	1.664632
H124	H	0.261679	0.877319	1.751242
H125	H	0.283695	0.820811	1.616917
N126	N	1.323439	-0.785708	1.128517
H127	H	1.385374	-0.837665	1.039003
H128	H	1.297390	-0.837570	1.166197
H129	H	0.212555	0.185948	0.942467
N130	N	0.237089	-0.000140	1.914113
H131	H	0.219127	-0.052047	1.888187
H132	H	0.175210	0.089409	1.966024
N133	N	0.357819	-0.203580	1.331958
H134	H	0.322861	-0.245457	1.373825
H135	H	0.344821	-0.142886	1.398413
N136	N	0.469718	0.586471	1.440243
H137	H	0.434743	0.678919	1.448967
H138	H	0.456719	0.544582	1.392586
N139	N	0.469744	0.311678	0.991107
H140	H	0.544658	0.263955	0.924600
H141	H	0.434722	0.320463	0.949306
H142	H	0.324524	0.779055	1.248420
H143	H	1.100624	-0.343523	0.545170
H144	H	0.100645	-0.120016	1.248363
H145	H	0.256805	0.757111	1.128510
N146	N	0.357812	0.203424	0.924989
H147	H	0.410748	0.193387	0.935022
H148	H	0.300818	0.295860	0.959698
H149	H	1.236019	-0.539301	0.349345
H150	H	1.100628	-0.343545	1.248382
N151	N	0.314608	0.536090	0.991118
H152	H	0.261671	0.622700	1.001168
H153	H	0.283690	0.488374	1.025838
H154	H	0.324479	0.119797	1.907631
N155	N	0.469749	0.311630	1.714974
H156	H	0.434789	0.320330	1.807416
H157	H	0.544664	0.263956	1.673060
H158	H	1.303743	-0.000072	0.371369
H159	H	1.236071	-0.779219	0.589113
H160	H	1.100660	-0.583419	0.784972
H161	H	0.459883	-0.119993	1.248396
N162	N	0.090767	0.137317	0.991083
H163	H	0.037831	0.127291	1.001109
H164	H	0.147763	0.102616	0.898649
N165	N	1.090797	-0.137474	0.541921
H166	H	1.125771	-0.179336	0.449474
H167	H	1.015884	-0.076784	0.583816
H168	H	0.324529	-0.120033	1.667720
H169	H	1.100625	0.119841	0.785013
N170	N	1.245850	-0.536128	1.265889
H171	H	1.210885	-0.443681	1.307742
H172	H	1.320766	-0.578036	1.205207
N173	N	1.245889	0.137287	0.592437
H174	H	1.298845	0.127251	0.505850
H175	H	1.276778	0.102560	0.640182
N176	N	0.469756	-0.137460	1.440198
H177	H	0.434799	-0.179338	1.448900
H178	H	0.544671	-0.203905	1.392531
H179	H	1.236041	-0.779234	1.008579
H180	H	0.212579	-0.186113	1.314465
