data_functionalizedCrystal
_audit_creation_method	'MofGen! by Chris Wilmer'
_symmetry_space_group_name_H-M	'P1'
_symmetry_Int_Tables_number	1
_symmetry_cell_setting	triclinic
loop_
_symmetry_equiv_pos_as_xyz
  x,y,z
_cell_length_a	12.837943
_cell_length_b	12.503572
_cell_length_c	12.837942
_cell_angle_alpha	86.103696
_cell_angle_beta	94.828940
_cell_angle_gamma	93.890817
loop_
_atom_site_label
_atom_site_type_symbol
_atom_site_fract_x
_atom_site_fract_y
_atom_site_fract_z
O1	O	1.407773	0.089300	0.266682
O2	O	1.104640	0.089307	0.253238
O3	O	1.249484	0.089297	0.108394
O4	O	1.262928	0.089310	0.411526
O5	O	1.238593	-0.089344	0.119307
O6	O	1.093749	-0.089334	0.264151
O7	O	1.396882	-0.089341	0.277595
Cu8	Cu	1.244321	-0.105649	0.271870
Cu9	Cu	1.257201	0.105615	0.258964
O10	O	1.252037	-0.089331	0.422440
C11	C	1.060125	-0.000013	0.254153
C12	C	0.943710	-0.000011	0.240609
N13	N	1.235269	-0.254241	0.280947
C14	C	0.718836	-0.000019	0.403439
C15	C	0.609453	-0.000018	0.390717
C16	C	0.615561	-0.000014	0.202446
C17	C	0.724943	-0.000016	0.215167
C18	C	0.776577	-0.000017	0.315667
C19	C	0.885961	-0.000010	0.328387
C20	C	0.892066	-0.000014	0.140117
C21	C	0.782684	-0.000013	0.127395
C22	C	1.221955	-0.473355	0.294310
C23	C	1.279571	-0.526686	0.236519
C24	C	1.272163	-0.648609	0.243954
C25	C	1.229362	-0.351421	0.286876
C26	C	1.441397	-0.000019	0.276680
C27	C	1.557812	-0.000014	0.290224
C28	C	1.239497	-0.000023	0.074781
C29	C	1.225953	-0.000021	-0.041634
N30	N	1.266260	0.254207	0.249879
C31	C	1.388784	-0.000002	-0.266509
C32	C	1.376062	0.000000	-0.375892
C33	C	1.187791	-0.000007	-0.369784
C34	C	1.200512	-0.000009	-0.260402
C35	C	1.301012	-0.000008	-0.208768
C36	C	1.313731	-0.000018	-0.099383
C37	C	1.125461	-0.000017	-0.093278
C38	C	1.112740	-0.000015	-0.202660
C39	C	1.262024	-0.000009	0.456052
C40	C	1.275569	-0.000004	0.572467
H41	H	0.928000	-0.000013	0.410219
H42	H	1.167068	-0.519259	0.349366
Cl43	Cl	1.440071	-0.000024	-0.034473
H44	H	0.760877	-0.000018	0.485269
H45	H	1.470614	-0.000011	-0.224468
Cl46	Cl	1.364759	-0.455812	0.151951
H47	H	1.447536	0.000009	-0.422901
H48	H	1.105969	0.000004	-0.411844
H49	H	0.562444	-0.000023	0.462191
H50	H	1.030916	-0.000012	-0.244716
Cl51	Cl	1.015112	-0.000039	-0.020682
H52	H	0.573496	-0.000102	0.120629
H53	H	0.740628	-0.000025	0.045572
H54	H	0.939091	-0.000005	0.068646
