data_functionalizedCrystal
_audit_creation_method	'MofGen! by Chris Wilmer'
_symmetry_space_group_name_H-M	'P1'
_symmetry_Int_Tables_number	1
_symmetry_cell_setting	triclinic
loop_
_symmetry_equiv_pos_as_xyz
  x,y,z
_cell_length_a	10.723024
_cell_length_b	19.188930
_cell_length_c	9.198806
_cell_angle_alpha	90.008548
_cell_angle_beta	90.003396
_cell_angle_gamma	83.806325
loop_
_atom_site_label
_atom_site_type_symbol
_atom_site_fract_x
_atom_site_fract_y
_atom_site_fract_z
O1	O	1.655155	0.097922	0.120901
O2	O	1.291808	0.107295	0.120908
O3	O	1.483967	0.001021	0.120876
O4	O	1.462996	0.204196	0.120933
O5	O	1.483952	0.001020	-0.120909
O6	O	1.291794	0.107294	-0.120877
O7	O	1.655140	0.097921	-0.120884
Cu8	Cu	1.473466	0.102608	-0.142957
Cu9	Cu	1.473482	0.102609	0.142982
O10	O	1.462982	0.204195	-0.120852
C11	C	1.245315	0.106613	0.000016
C12	C	1.106803	0.104572	0.000017
C13	C	0.916362	0.041179	0.000002
C14	C	1.059522	0.043287	0.000001
C15	C	1.483280	-0.024995	-0.000021
C16	C	1.481242	-0.102512	-0.000033
C17	C	1.593994	-0.146704	-0.000042
C18	C	1.592079	-0.219540	-0.000019
C19	C	1.477405	-0.248182	-0.000016
C20	C	1.364638	-0.203981	0.000002
C21	C	1.366556	-0.131146	-0.000007
N22	N	1.389745	-0.356756	-0.082298
N23	N	1.387931	-0.425947	-0.082293
C24	C	1.471618	-0.467628	0.000014
N25	N	1.557207	-0.437506	0.082297
N26	N	1.559026	-0.368309	0.082285
C27	C	1.475312	-0.327158	-0.000005
C28	C	1.582302	-0.590797	0.000032
C29	C	1.580382	-0.663634	0.000065
C30	C	1.352937	-0.648073	0.000070
C31	C	1.354860	-0.575238	0.000053
C32	C	1.469546	-0.546604	0.000027
C33	C	1.701633	0.098604	0.000012
C34	C	1.840145	0.100645	0.000020
C35	C	1.463668	0.230211	0.000048
C36	C	1.465706	0.307729	0.000070
N37	N	1.473463	0.102607	-0.344071
C38	C	1.554344	0.057888	-0.583686
C39	C	1.554328	0.057889	-0.416273
N40	N	1.473495	0.102605	0.344096
H41	H	1.125011	-0.007620	-0.000005
C42	C	1.230828	-0.526622	0.000036
C43	C	1.104686	-0.558122	0.000035
C44	C	0.980648	-0.509506	0.000021
C45	C	0.982753	-0.429391	0.000007
C46	C	1.108900	-0.397887	0.000008
C47	C	1.232938	-0.446502	0.000022
H48	H	1.103123	-0.617432	0.000046
H49	H	0.887265	-0.532828	0.000021
H50	H	0.890932	-0.393402	-0.000003
H51	H	1.110463	-0.338577	-0.000002
H52	H	1.326321	-0.423181	0.000023
C53	C	1.018349	0.173352	0.000038
C54	C	1.023558	0.226040	-0.125500
C55	C	0.935093	0.294820	-0.125480
C56	C	0.841420	0.310911	0.000078
C57	C	0.836207	0.258222	0.125625
C58	C	0.924672	0.189442	0.125605
H59	H	1.092904	0.214129	-0.218454
H60	H	0.938953	0.333823	-0.218419
H61	H	0.775933	0.361826	0.000093
H62	H	0.766861	0.270133	0.218579
H63	H	0.920813	0.150438	0.218544
C64	C	1.647877	0.006166	-0.667574
C65	C	1.647763	0.006237	-0.834979
C66	C	1.741300	-0.045488	-0.918862
C67	C	1.834950	-0.097285	-0.835339
C68	C	1.835067	-0.097358	-0.667924
C69	C	1.741531	-0.045633	-0.584042
H70	H	1.578435	0.044582	-0.896817
H71	H	1.741213	-0.045434	-1.042794
H72	H	1.904192	-0.135575	-0.897434
H73	H	1.904396	-0.135702	-0.606087
H74	H	1.741618	-0.045687	-0.460110
C75	C	1.238495	-0.235484	0.000003
C76	C	1.144929	-0.219062	-0.125542
C77	C	1.018782	-0.250564	-0.125533
C78	C	0.986200	-0.298489	0.000022
C79	C	1.079768	-0.314914	0.125577
C80	C	1.205915	-0.283411	0.125567
H81	H	1.169046	-0.183583	-0.218494
H82	H	0.949517	-0.238405	-0.218477
H83	H	0.892819	-0.321809	0.000029
H84	H	1.055651	-0.350393	0.218529
H85	H	1.275180	-0.295570	0.218512
H86	H	0.880878	0.153116	0.000026
C87	C	1.379963	0.154327	-0.572013
C88	C	1.284750	0.126527	-0.467365
C89	C	1.191215	0.178252	-0.383478
C90	C	1.192893	0.257775	-0.404239
C91	C	1.288110	0.285578	-0.508891
C92	C	1.381645	0.233854	-0.592778
H93	H	1.283505	0.067656	-0.451993
H94	H	1.120730	0.157669	-0.306008
H95	H	1.123653	0.296064	-0.342140
H96	H	1.289355	0.344450	-0.524263
H97	H	1.452131	0.254437	-0.670249
H98	H	0.875629	-0.011292	-0.000034
H99	H	1.687380	-0.123395	-0.000058
H100	H	1.683899	-0.255527	-0.000020
H101	H	1.274736	-0.095165	-0.000000
H102	H	1.404237	0.140889	-0.406167
H103	H	1.672202	-0.699615	0.000065
H104	H	1.675686	-0.567482	0.000018
H105	H	1.623541	0.019603	-0.354168
H106	H	1.259567	-0.671393	0.000080
