data_functionalizedCrystal
_audit_creation_method	'MofGen! by Chris Wilmer'
_symmetry_space_group_name_H-M	'P1'
_symmetry_Int_Tables_number	1
_symmetry_cell_setting	triclinic
loop_
_symmetry_equiv_pos_as_xyz
  x,y,z
_cell_length_a	12.837932
_cell_length_b	14.044190
_cell_length_c	11.295483
_cell_angle_alpha	94.464886
_cell_angle_beta	85.460332
_cell_angle_gamma	94.010740
loop_
_atom_site_label
_atom_site_type_symbol
_atom_site_fract_x
_atom_site_fract_y
_atom_site_fract_z
O1	O	1.404888	0.242697	-0.099055
O2	O	1.101947	0.230420	-0.099056
O3	O	1.248865	0.098164	-0.099032
O4	O	1.257970	0.374953	-0.099079
O5	O	1.235959	0.109761	0.099017
O6	O	1.089041	0.242017	0.098993
O7	O	1.391982	0.254294	0.098993
Cu8	Cu	1.239333	0.249214	0.117077
Cu9	Cu	1.254596	0.235500	-0.117139
O10	O	1.245064	0.386550	0.098970
C11	C	1.056489	0.232072	-0.000031
C12	C	0.940268	0.219704	-0.000030
C13	C	0.780862	0.116330	-0.000010
C14	C	0.890063	0.127945	-0.000013
C15	C	0.881265	0.299854	-0.000041
C16	C	0.772064	0.288239	-0.000039
C17	C	0.721867	0.196474	-0.000025
C18	C	0.612665	0.184860	-0.000031
C19	C	0.603868	0.356769	-0.000051
C20	C	0.713068	0.368384	-0.000054
C21	C	1.238430	0.068289	-0.000004
C22	C	1.226552	-0.038009	0.000006
C23	C	1.289077	-0.282651	-0.000040
C24	C	1.204857	-0.232629	-0.000032
C25	C	1.216931	-0.124333	-0.000011
C26	C	1.277005	-0.390957	-0.000062
C27	C	1.437439	0.252642	-0.000034
C28	C	1.553661	0.265010	-0.000043
C29	C	1.255499	0.416426	-0.000061
C30	C	1.267378	0.522723	-0.000079
N31	N	1.228606	0.258860	0.281811
N32	N	1.265331	0.225847	-0.281873
C33	C	1.342548	0.156357	0.531119
C34	C	1.334449	0.163654	0.655781
C35	C	1.204304	0.280745	0.655801
C36	C	1.212403	0.273449	0.531138
C37	C	1.281528	0.211253	0.468802
C38	C	1.289632	0.203962	0.344137
C39	C	1.159482	0.321048	0.344159
C40	C	1.151383	0.328345	0.468821
H41	H	0.739992	0.041611	-0.000011
Br42	Br	1.069565	-0.296806	-0.000038
H43	H	1.370241	-0.244145	-0.000028
Br44	Br	1.383449	0.119561	0.259539
Br45	Br	1.436374	0.071966	0.446517
Br46	Br	1.417260	0.089144	0.740353
H47	H	1.148017	0.331376	0.706571
H48	H	0.938093	0.062683	-0.000000
H49	H	1.095100	0.378980	0.519590
H50	H	0.922153	0.374566	-0.000042
H51	H	0.555822	0.422028	-0.000064
Br52	Br	0.544541	0.060324	-0.000016
Br53	Br	0.781202	0.492916	-0.000071
Br54	Br	1.076676	0.395562	0.259574
