data_functionalizedCrystal
_audit_creation_method	'MofGen! by Chris Wilmer'
_symmetry_space_group_name_H-M	'P1'
_symmetry_Int_Tables_number	1
_symmetry_cell_setting	triclinic
loop_
_symmetry_equiv_pos_as_xyz
  x,y,z
_cell_length_a	12.759401
_cell_length_b	12.759399
_cell_length_c	12.759393
_cell_angle_alpha	90.028437
_cell_angle_beta	89.980316
_cell_angle_gamma	89.985281
loop_
_atom_site_label
_atom_site_type_symbol
_atom_site_fract_x
_atom_site_fract_y
_atom_site_fract_z
Zn1	Zn	1.606249	0.418229	-0.594037
Zn2	Zn	2.106249	0.918229	-0.094037
Zn3	Zn	1.606140	0.593948	-0.418367
Zn4	Zn	2.106140	1.093948	0.081633
Zn5	Zn	1.430551	0.418281	-0.418373
Zn6	Zn	1.930551	0.918281	0.081627
Zn7	Zn	1.430537	0.593864	-0.594005
Zn8	Zn	1.930537	1.093864	-0.094005
O9	O	1.518369	0.506081	-0.506196
O10	O	2.018369	1.006081	-0.006196
O11	O	1.753255	0.441552	-0.570745
O12	O	2.253255	0.941552	-0.070745
O13	O	1.582809	0.570702	-0.271347
O14	O	2.082809	1.070702	0.228653
O15	O	1.453909	0.271253	-0.441692
O16	O	1.953909	0.771253	0.058308
O17	O	1.753176	0.570652	-0.441681
O18	O	2.253176	1.070652	0.058319
O19	O	1.582993	0.271215	-0.570751
O20	O	2.082993	0.771215	-0.070751
O21	O	1.453804	0.441640	-0.271351
O22	O	1.953804	0.941640	0.228649
O23	O	1.283528	0.441559	-0.441660
O24	O	1.783528	0.941559	0.058340
O25	O	1.453885	0.570509	-0.741030
O26	O	1.953885	1.070509	-0.241030
O27	O	1.283518	0.570559	-0.570696
O28	O	1.783518	1.070559	-0.070696
O29	O	1.582980	0.441471	-0.741054
O30	O	2.082980	0.941471	-0.241054
O31	O	1.582795	0.740958	-0.441650
O32	O	2.082795	1.240958	0.058350
O33	O	1.453780	0.740896	-0.570690
O34	O	1.953780	1.240896	-0.070690
C35	C	1.245402	0.506056	-0.506176
C36	C	1.745402	1.006056	-0.006176
C37	C	1.128625	0.506071	-0.506192
C38	C	1.628625	1.006071	-0.006192
C39	C	1.073738	0.438812	-0.439127
C40	C	1.573738	0.938812	0.060873
C41	C	0.964014	0.438837	-0.439140
C42	C	1.464014	0.938837	0.060860
C43	C	0.964074	0.573383	-0.573294
C44	C	1.464074	1.073383	-0.073294
C45	C	1.073796	0.573362	-0.573274
C46	C	1.573796	1.073362	-0.073274
C47	C	1.073702	0.361130	-0.361677
C48	C	1.573702	0.861130	0.138323
C49	C	0.963978	0.361155	-0.361691
C50	C	1.463978	0.861155	0.138309
C51	C	1.518302	0.779048	-0.506189
C52	C	2.018302	1.279048	-0.006189
C53	C	1.518370	0.895824	-0.506221
C54	C	2.018370	1.395824	-0.006221
C55	C	1.585622	0.950684	-0.439107
C56	C	2.085622	1.450684	0.060893
C57	C	1.585685	1.060408	-0.439145
C58	C	2.085685	1.560408	0.060855
C59	C	1.451235	1.060404	-0.573415
C60	C	1.951235	1.560404	-0.073415
C61	C	1.451178	0.950682	-0.573381
C62	C	1.951178	1.450682	-0.073381
C63	C	1.663243	0.950687	-0.361584
C64	C	2.163243	1.450687	0.138416
C65	C	1.663305	1.060411	-0.361623
C66	C	2.163305	1.560411	0.138377
C67	C	1.792402	0.506106	-0.506216
C68	C	2.292402	1.006106	-0.006216
C69	C	1.909179	0.506116	-0.506225
C70	C	2.409179	1.006116	-0.006225
C71	C	1.518443	0.505975	-0.780229
C72	C	2.018443	1.005975	-0.280229
C73	C	1.518474	0.505929	-0.897006
C74	C	2.018474	1.005929	-0.397006
C75	C	1.518461	1.232047	-0.506239
C76	C	2.018461	1.732047	-0.006239
C77	C	1.518489	1.115271	-0.506293
C78	C	2.018489	1.615271	-0.006293
C79	C	1.585703	0.438733	-0.951882
C80	C	2.085703	0.938733	-0.451882
C81	C	1.585728	0.438695	-1.061606
C82	C	2.085728	0.938695	-0.561606
C83	C	1.451292	0.573059	-1.061568
C84	C	1.951292	1.073059	-0.561568
C85	C	1.451263	0.573091	-0.951846
C86	C	1.951263	1.073091	-0.451846
C87	C	1.663322	0.361162	-0.951905
C88	C	2.163322	0.861162	-0.451905
C89	C	1.663347	0.361124	-1.061629
C90	C	2.163347	0.861124	-0.561629
C91	C	1.518356	0.506110	-0.233228
C92	C	2.018356	1.006110	0.266772
C93	C	1.518528	0.505859	-0.116452
C94	C	2.018528	1.005859	0.383548
H95	H	0.919419	0.628169	-0.627909
H96	H	1.419419	1.128169	-0.127909
H97	H	1.634118	0.916739	-0.284256
H98	H	2.134118	1.416739	0.215744
H99	H	1.396569	0.627737	-1.106233
H100	H	1.896569	1.127737	-0.606233
H101	H	1.396515	0.627805	-0.907170
H102	H	1.896515	1.127805	-0.407170
H103	H	0.934215	0.279815	-0.383623
H104	H	1.434215	0.779815	0.116377
H105	H	1.103434	0.382819	-0.280265
H106	H	1.603434	0.882819	0.219735
H107	H	1.740609	1.094357	-0.390838
H108	H	2.240609	1.594357	0.109162
H109	H	1.740593	0.390332	-0.917872
H110	H	2.240593	0.890332	-0.417872
H111	H	1.641554	0.279797	-0.922144
H112	H	2.141554	0.779797	-0.422144
H113	H	1.634234	0.283814	-1.095672
H114	H	2.134234	0.783814	-0.595672
H115	H	1.744586	0.920831	-0.383436
H116	H	2.244586	1.420831	0.116564
H117	H	1.744717	0.382918	-1.091410
H118	H	2.244717	0.882918	-0.591410
H119	H	1.118481	0.628141	-0.627875
H120	H	1.618481	1.128141	-0.127875
H121	H	1.107755	0.283867	-0.390951
H122	H	1.607755	0.783867	0.109049
H123	H	0.929906	0.390213	-0.284349
H124	H	1.429906	0.890213	0.215651
H125	H	1.396426	0.906016	-0.628040
H126	H	1.896426	1.406016	-0.128040
H127	H	1.396530	1.105082	-0.628095
H128	H	1.896530	1.605082	-0.128095
H129	H	1.641567	1.090273	-0.280243
H130	H	2.141567	1.590273	0.219757
