data_functionalizedCrystal
_audit_creation_method	'MofGen! by Chris Wilmer'
_symmetry_space_group_name_H-M	'P1'
_symmetry_Int_Tables_number	1
_symmetry_cell_setting	triclinic
loop_
_symmetry_equiv_pos_as_xyz
  x,y,z
_cell_length_a	10.908878
_cell_length_b	10.967829
_cell_length_c	14.048226
_cell_angle_alpha	77.865708
_cell_angle_beta	89.993336
_cell_angle_gamma	72.684712
loop_
_atom_site_label
_atom_site_type_symbol
_atom_site_fract_x
_atom_site_fract_y
_atom_site_fract_z
O1	O	1.702159	-0.192378	-0.047586
O2	O	1.329154	-0.095111	-0.063547
O3	O	1.524256	-0.327181	-0.025472
O4	O	1.507056	0.039691	-0.085661
O5	O	1.524232	-0.327187	0.132851
O6	O	1.329130	-0.095118	0.094776
O7	O	1.702135	-0.192385	0.110736
Zn8	Zn	1.515629	-0.143752	0.127893
Zn9	Zn	1.515660	-0.143744	-0.080704
O10	O	1.507032	0.039685	0.072661
C11	C	1.281380	-0.086024	0.014123
C12	C	1.139067	-0.058954	0.009680
C13	C	1.089186	-0.157729	0.025885
C14	C	0.942098	-0.129753	0.021294
C15	C	1.522991	-0.373414	0.061272
C16	C	1.519241	-0.511162	0.083865
C17	C	1.517582	-0.572565	0.011921
C18	C	1.513706	-0.714934	0.035270
C19	C	1.749908	-0.201471	0.033065
C20	C	1.892222	-0.228542	0.037501
C21	C	1.508298	0.085918	-0.014085
C22	C	1.512047	0.223666	-0.036684
N23	N	1.515617	-0.143760	0.270255
N24	N	1.515682	-0.143747	-0.223064
C25	C	1.602036	-0.246492	0.336928
C26	C	1.602044	-0.246494	0.436586
C27	C	1.515639	-0.143760	0.469568
C28	C	1.429211	-0.041022	0.402887
C29	C	1.429197	-0.041026	0.303232
C30	C	1.429248	-0.041021	0.610602
C31	C	1.429263	-0.041016	0.710263
C32	C	1.602095	-0.246489	0.743955
C33	C	1.602081	-0.246493	0.644300
C34	C	1.515654	-0.143754	0.577626
H35	H	1.519025	-0.519732	-0.066959
C36	C	0.853708	0.010572	-0.001879
C37	C	0.776103	0.031883	-0.086818
C38	C	0.694651	0.161125	-0.108187
H39	H	0.903916	0.069051	-0.011521
H40	H	0.800868	0.025299	0.050885
H41	H	0.828937	0.017169	-0.139570
H42	H	0.725868	-0.026564	-0.077198
H43	H	0.641811	0.175853	-0.055422
H44	H	0.744869	0.219593	-0.117825
H45	H	0.641978	0.175598	-0.165814
H46	H	1.512250	-0.767758	0.114155
C47	C	1.695938	-0.357884	0.301023
C48	C	1.775003	-0.307827	0.235567
C49	C	1.861504	-0.410417	0.202476
H50	H	1.649459	-0.400212	0.269044
H51	H	1.747482	-0.419098	0.354962
H52	H	1.723465	-0.246636	0.181637
H53	H	1.821511	-0.265510	0.267525
H54	H	1.913048	-0.471631	0.256415
H55	H	1.815014	-0.452738	0.170501
H56	H	1.915168	-0.376470	0.158068
C57	C	1.517510	-0.581505	0.189101
C58	C	1.628421	-0.586977	0.242115
C59	C	1.626861	-0.651750	0.339065
H60	H	1.515226	-0.667872	0.190952
H61	H	1.443504	-0.535345	0.217061
H62	H	1.702408	-0.633139	0.214162
H63	H	1.630729	-0.500629	0.240292
H64	H	1.552855	-0.605590	0.367025
H65	H	1.624573	-0.738113	0.340906
H66	H	1.702106	-0.655461	0.375049
H67	H	1.513481	-0.723504	-0.115571
H68	H	1.672412	-0.330146	0.490872
C69	C	1.695723	-0.358143	0.816404
C70	C	1.626796	-0.420298	0.883810
C71	C	1.713004	-0.523162	0.950557
H72	H	1.749507	-0.324530	0.849833
H73	H	1.747164	-0.419390	0.782526
H74	H	1.575377	-0.359062	0.917685
H75	H	1.573017	-0.453940	0.850409
H76	H	1.764445	-0.584409	0.916678
H77	H	1.766783	-0.489537	0.983978
H78	H	1.666250	-0.565354	0.996294
H79	H	1.155375	-0.263006	0.043153
C80	C	1.335223	0.070346	0.230818
C81	C	1.256152	0.020230	0.181867
C82	C	1.169551	0.122789	0.115162
H83	H	1.381626	0.112719	0.184898
H84	H	1.283692	0.131531	0.264702
H85	H	1.307676	-0.040932	0.147984
H86	H	1.209720	-0.022133	0.227761
H87	H	1.118019	0.183974	0.149047
H88	H	1.215964	0.165155	0.069249
H89	H	1.115882	0.088802	0.081947
C90	C	1.695949	-0.358182	0.608685
C91	C	1.771617	-0.448175	0.688405
C92	C	1.858088	-0.551090	0.655635
H93	H	1.749808	-0.324584	0.564279
H94	H	1.649410	-0.400566	0.576795
H95	H	1.818153	-0.405797	0.720279
H96	H	1.717794	-0.481808	0.732818
H97	H	1.811549	-0.593474	0.623746
H98	H	1.911938	-0.517480	0.611230
H99	H	1.909431	-0.612168	0.709721
H100	H	0.958405	-0.333827	0.054767
C101	C	1.050673	0.081364	-0.013491
C102	C	0.973068	0.102675	-0.098430
C103	C	0.891616	0.231917	-0.119799
H104	H	1.100881	0.139843	-0.023133
H105	H	0.997833	0.096091	0.039273
H106	H	1.025902	0.087961	-0.151182
H107	H	0.922833	0.044227	-0.088810
H108	H	0.838776	0.246645	-0.067035
H109	H	0.941835	0.290385	-0.129437
H110	H	0.838944	0.246390	-0.177426
C111	C	1.335288	0.070592	0.745892
C112	C	1.259558	0.160538	0.666180
C113	C	1.172956	0.263354	0.698966
H114	H	1.381688	0.113067	0.777796
H115	H	1.281492	0.036845	0.790293
H116	H	1.313347	0.194283	0.621796
H117	H	1.213131	0.118103	0.634268
H118	H	1.119160	0.229606	0.743366
H119	H	1.219366	0.305817	0.730869
H120	H	1.121555	0.324388	0.644887
C121	C	1.335621	0.070543	0.538084
C122	C	1.404561	0.132635	0.470648
C123	C	1.318364	0.235401	0.403823
H124	H	1.284128	0.131861	0.571865
H125	H	1.281886	0.036805	0.504700
H126	H	1.458273	0.166374	0.504029
H127	H	1.456049	0.071353	0.436843
H128	H	1.264629	0.201664	0.370439
H129	H	1.266876	0.296710	0.437613
H130	H	1.365127	0.277536	0.358055
H131	H	1.358852	0.042623	0.429748
