data_functionalizedCrystal
_audit_creation_method	'MofGen! by Chris Wilmer'
_symmetry_space_group_name_H-M	'P1'
_symmetry_Int_Tables_number	1
_symmetry_cell_setting	triclinic
loop_
_symmetry_equiv_pos_as_xyz
  x,y,z
_cell_length_a	16.992694
_cell_length_b	16.992695
_cell_length_c	9.130313
_cell_angle_alpha	89.995176
_cell_angle_beta	90.002155
_cell_angle_gamma	90.668223
loop_
_atom_site_label
_atom_site_type_symbol
_atom_site_fract_x
_atom_site_fract_y
_atom_site_fract_z
O1	O	1.050849	0.166916	-0.121617
O2	O	1.550849	0.666916	0.378383
O3	O	0.822449	0.165085	-0.121660
O4	O	1.322449	0.665085	0.378340
O5	O	0.935734	0.051801	-0.121627
O6	O	1.435734	0.551801	0.378373
O7	O	0.937565	0.280201	-0.121650
O8	O	1.437565	0.780201	0.378350
O9	O	0.935725	0.051797	0.121972
O10	O	1.435725	0.551797	0.621972
O11	O	0.822441	0.165081	0.121939
O12	O	1.322441	0.665081	0.621939
O13	O	1.050841	0.166912	0.121982
O14	O	1.550841	0.666912	0.621982
Cu15	Cu	0.936640	0.165996	0.144203
Cu16	Cu	1.436640	0.665996	0.644203
Cu17	Cu	0.936650	0.166001	-0.143881
Cu18	Cu	1.436650	0.666001	0.356119
O19	O	0.937557	0.280197	0.121949
O20	O	1.437557	0.780197	0.621949
C21	C	0.793085	0.162727	0.000134
C22	C	1.293085	0.662727	0.500134
C23	C	0.705600	0.155699	0.000118
C24	C	1.205600	0.655699	0.500118
C25	C	0.659610	0.223517	0.000112
C26	C	1.159610	0.723517	0.500112
C27	C	0.577409	0.216908	0.000133
C28	C	1.077409	0.716908	0.500133
C29	C	0.541201	0.142480	0.000149
C30	C	1.041201	0.642480	0.500149
C31	C	0.587198	0.074657	0.000159
C32	C	1.087198	0.574657	0.500159
C33	C	0.669397	0.081267	0.000148
C34	C	1.169397	0.581267	0.500148
C35	C	0.295886	0.115086	0.000191
C36	C	0.795886	0.615086	0.500191
C37	C	0.213681	0.108481	0.000197
C38	C	0.713681	0.608481	0.500197
C39	C	0.203898	0.250732	0.000173
C40	C	0.703898	0.750732	0.500173
C41	C	0.286099	0.257336	0.000154
C42	C	0.786099	0.757336	0.500154
C43	C	0.332089	0.189512	0.000172
C44	C	0.832089	0.689512	0.500172
N45	N	0.457178	0.135723	0.000166
N46	N	0.957178	0.635723	0.500166
N47	N	0.416110	0.196270	0.000166
N48	N	0.916110	0.696270	0.500166
C49	C	0.933374	0.022439	0.000172
C50	C	1.433374	0.522439	0.500172
C51	C	0.926345	-0.065046	0.000170
C52	C	1.426345	0.434954	0.500170
C53	C	0.994163	-0.111037	0.000184
C54	C	1.494163	0.388963	0.500184
C55	C	0.987554	-0.193238	0.000169
C56	C	1.487554	0.306762	0.500169
C57	C	0.913127	-0.229446	0.000150
C58	C	1.413127	0.270554	0.500150
C59	C	0.845303	-0.183449	0.000131
C60	C	1.345303	0.316551	0.500131
C61	C	0.851913	-0.101250	0.000136
C62	C	1.351913	0.398750	0.500136
C63	C	0.885732	-0.474760	0.000125
C64	C	1.385732	0.025240	0.500125
C65	C	0.879127	-0.556966	0.000124
C66	C	1.379127	-0.056966	0.500124
C67	C	1.021379	-0.566749	0.000159
C68	C	1.521379	-0.066749	0.500159
C69	C	1.027982	-0.484547	0.000173
C70	C	1.527982	0.015453	0.500173
C71	C	0.960159	-0.438558	0.000146
C72	C	1.460159	0.061442	0.500146
N73	N	0.906369	-0.313468	0.000139
N74	N	1.406369	0.186532	0.500139
N75	N	0.966917	-0.354537	0.000147
N76	N	1.466917	0.145463	0.500147
C77	C	1.080205	0.169270	0.000184
C78	C	1.580205	0.669270	0.500184
C79	C	1.167690	0.176299	0.000191
C80	C	1.667690	0.676299	0.500191
C81	C	0.939917	0.309559	0.000147
C82	C	1.439917	0.809559	0.500147
C83	C	0.946945	0.397044	0.000139
C84	C	1.446945	0.897044	0.500139
N85	N	0.936639	0.165993	0.346825
N86	N	1.436639	0.665993	0.846825
N87	N	0.936657	0.165999	-0.346504
N88	N	1.436657	0.665999	0.153496
C89	C	0.986821	0.115854	0.423492
C90	C	1.486821	0.615854	0.923492
C91	C	0.986828	0.115855	0.576829
C92	C	1.486828	0.615855	1.076829
C93	C	0.886470	0.216140	0.576819
C94	C	1.386470	0.716140	1.076819
C95	C	0.886459	0.216135	0.423485
C96	C	1.386459	0.716135	0.923485
H97	H	0.184203	0.047870	0.000208
H98	H	0.684203	0.547870	0.500208
H99	H	0.845592	0.256964	0.361059
H100	H	1.345592	0.756964	0.861059
C101	C	0.719987	0.006667	0.000140
C102	C	1.219987	0.506667	0.500140
H103	H	0.686651	-0.038606	0.000135
H104	H	1.186651	0.461394	0.500135
H105	H	0.752263	0.006285	0.085082
H106	H	1.252263	0.506285	0.585082
H107	H	0.752249	0.006293	-0.084825
H108	H	1.252249	0.506293	0.415175
H109	H	1.088589	-0.455073	0.000189
H110	H	1.588589	0.044927	0.500189
C111	C	1.076032	-0.071211	0.000210
C112	C	1.576032	0.428789	0.500210
H113	H	1.070258	-0.015669	0.000225
H114	H	1.570258	0.484331	0.500225
H115	H	1.104178	-0.086688	-0.084731
H116	H	1.604178	0.413312	0.415269
H117	H	1.104166	-0.086700	0.085176
H118	H	1.604166	0.413300	0.585176
H119	H	0.333322	0.059859	0.000206
H120	H	0.833322	0.559859	0.500206
H121	H	1.027679	0.075025	0.361079
H122	H	1.527679	0.575025	0.861079
C123	C	0.153312	0.325333	0.000161
C124	C	0.653312	0.825333	0.500161
H125	H	0.186649	0.370605	0.000140
H126	H	0.686649	0.870605	0.500140
H127	H	0.121045	0.325714	0.085110
H128	H	0.621045	0.825714	0.585110
H129	H	0.121041	0.325711	-0.084797
H130	H	0.621041	0.825711	0.415203
H131	H	0.830505	-0.437325	0.000104
H132	H	1.330505	0.062675	0.500104
C133	C	1.042031	0.060705	0.661156
C134	C	1.542031	0.560705	1.161156
H135	H	1.071916	0.030848	0.593534
H136	H	1.571916	0.530848	1.093534
H137	H	1.011671	0.026144	0.720985
H138	H	1.511671	0.526144	1.220985
H139	H	1.076577	0.091105	0.720956
H140	H	1.576577	0.591105	1.220956
C141	C	0.777316	-0.050656	0.000120
C142	C	1.277316	0.449344	0.500120
H143	H	0.791911	0.003484	0.000109
H144	H	1.291911	0.503484	0.500109
H145	H	0.747002	-0.062119	0.085058
H146	H	1.247002	0.437881	0.585058
H147	H	0.747017	-0.062114	-0.084850
H148	H	1.247017	0.437886	0.415150
C149	C	0.547371	-0.007212	0.000174
C150	C	1.047371	0.492788	0.500174
H151	H	0.491829	-0.001436	0.000163
H152	H	0.991829	0.498564	0.500163
H153	H	0.562855	-0.035355	0.085123
H154	H	1.062855	0.464645	0.585123
H155	H	0.562850	-0.035348	-0.084785
H156	H	1.062850	0.464652	0.415215
H157	H	1.076596	-0.604202	0.000178
H158	H	1.576596	-0.104202	0.500178
C159	C	0.699432	0.305388	0.000093
C160	C	1.199432	0.805388	0.500093
H161	H	0.660265	0.344830	0.000106
H162	H	1.160265	0.844830	0.500106
H163	H	0.731290	0.310926	-0.084858
H164	H	1.231290	0.810926	0.415142
H165	H	0.731297	0.310921	0.085049
H166	H	1.231297	0.810921	0.585049
C167	C	0.526822	0.291508	0.000122
C168	C	1.026822	0.791508	0.500122
H169	H	0.560159	0.336780	0.000092
H170	H	1.060159	0.836780	0.500092
H171	H	0.494558	0.291890	0.085075
H172	H	0.994558	0.791890	0.585075
H173	H	0.494548	0.291884	-0.084832
H174	H	0.994548	0.791884	0.415168
C175	C	0.797254	-0.596793	0.000079
C176	C	1.297254	-0.096793	0.500079
H177	H	0.757807	-0.557631	0.000045
H178	H	1.257807	-0.057631	0.500045
H179	H	0.791707	-0.628662	0.085021
H180	H	1.291707	-0.128662	0.585021
H181	H	0.791735	-0.628650	-0.084886
H182	H	1.291735	-0.128650	0.415114
C183	C	0.763433	-0.223272	0.000099
C184	C	1.263433	0.276728	0.500099
H185	H	0.723990	-0.184106	0.000075
H186	H	1.223990	0.315894	0.500075
H187	H	0.757889	-0.255141	0.085042
H188	H	1.257889	0.244859	0.585042
H189	H	0.757906	-0.255128	-0.084865
H190	H	1.257906	0.244872	0.415135
C191	C	0.325923	0.339206	0.000158
C192	C	0.825923	0.839206	0.500158
H193	H	0.286758	0.378650	0.000173
H194	H	0.786758	0.878650	0.500173
H195	H	0.357784	0.344746	-0.084790
H196	H	0.857784	0.844746	0.415210
H197	H	0.357786	0.344734	0.085117
H198	H	0.857786	0.844734	0.585117
H199	H	1.042779	-0.230680	0.000184
H200	H	1.542779	0.269320	0.500184
C201	C	0.831285	0.271299	0.661149
C202	C	1.331285	0.771299	1.161149
H203	H	0.838484	0.264128	0.763450
H204	H	1.338484	0.764128	1.263450
H205	H	0.778211	0.259428	0.636037
H206	H	1.278211	0.759428	1.136037
H207	H	0.843128	0.324378	0.635999
H208	H	1.343128	0.824378	1.135999
