data_functionalizedCrystal
_audit_creation_method	'MofGen! by Chris Wilmer'
_symmetry_space_group_name_H-M	'P1'
_symmetry_Int_Tables_number	1
_symmetry_cell_setting	triclinic
loop_
_symmetry_equiv_pos_as_xyz
  x,y,z
_cell_length_a	15.944551
_cell_length_b	12.837943
_cell_length_c	11.295483
_cell_angle_alpha	94.538773
_cell_angle_beta	94.094426
_cell_angle_gamma	90.836161
loop_
_atom_site_label
_atom_site_type_symbol
_atom_site_fract_x
_atom_site_fract_y
_atom_site_fract_z
O1	O	0.213265	-1.382450	-0.099009
O2	O	0.713265	-0.882450	0.400991
O3	O	0.202478	-1.080644	-0.099016
O4	O	0.702478	-0.580644	0.400984
O5	O	0.086257	-1.239788	-0.099002
O6	O	0.586257	-0.739788	0.400998
O7	O	0.329487	-1.223306	-0.099023
O8	O	0.829487	-0.723306	0.400977
O9	O	0.096448	-1.225810	0.099048
O10	O	0.596448	-0.725810	0.599048
O11	O	0.212669	-1.066666	0.099034
O12	O	0.712669	-0.566666	0.599034
O13	O	0.223456	-1.368472	0.099040
O14	O	0.723456	-0.868472	0.599040
Cu15	Cu	0.218993	-1.216293	0.117121
Cu16	Cu	0.718993	-0.716293	0.617121
Cu17	Cu	0.206941	-1.232823	-0.117096
Cu18	Cu	0.706941	-0.732823	0.382904
O19	O	0.339677	-1.209328	0.099026
O20	O	0.839677	-0.709328	0.599026
C21	C	0.203930	-1.035034	0.000008
C22	C	0.703930	-0.535034	0.500008
C23	C	0.193062	-0.919957	0.000006
C24	C	0.693062	-0.419957	0.500006
C25	C	0.060004	-1.232115	0.000023
C26	C	0.560004	-0.732115	0.500023
C27	C	-0.033407	-1.230063	0.000024
C28	C	0.466593	-0.730063	0.500024
C29	C	0.222005	-1.414082	0.000014
C30	C	0.722005	-0.914082	0.500014
C31	C	0.232872	-1.529160	0.000008
C32	C	0.732872	-1.029160	0.500008
C33	C	-0.256548	-1.126515	0.000005
C34	C	0.243452	-0.626515	0.500005
C35	C	-0.308694	-1.167708	0.097657
C36	C	0.191306	-0.667708	0.597657
C37	C	-0.204430	-1.226352	0.000015
C38	C	0.295570	-0.726352	0.500015
C39	C	-0.318722	-1.181513	-0.097604
C40	C	0.181278	-0.681513	0.402396
C41	C	-0.369631	-1.222761	0.000001
C42	C	0.130369	-0.722761	0.500001
C43	C	-0.255341	-1.267567	0.097747
C44	C	0.244659	-0.767567	0.597747
C45	C	-0.265369	-1.281364	-0.097602
C46	C	0.234631	-0.781364	0.402398
C47	C	-0.317491	-1.322627	0.000073
C48	C	0.182509	-0.822627	0.500073
C49	C	-0.109262	-1.228418	0.000024
C50	C	0.390738	-0.728418	0.500024
C51	C	-0.464796	-1.220702	0.000000
C52	C	0.035204	-0.720702	0.500000
C53	C	0.365931	-1.217002	-0.000001
C54	C	0.865931	-0.717002	0.499999
C55	C	0.459340	-1.219054	-0.000010
C56	C	0.959340	-0.719054	0.499990
N57	N	0.227469	-1.204674	0.281856
N58	N	0.727469	-0.704674	0.781856
C59	C	0.323714	-0.679007	0.000011
C60	C	0.823714	-0.179007	0.500011
C61	C	0.313507	-0.570881	0.000010
C62	C	0.813507	-0.070881	0.500010
C63	C	0.162440	-0.595575	0.000011
C64	C	0.662440	-0.095575	0.500011
C65	C	0.172648	-0.703701	0.000012
C66	C	0.672648	-0.203701	0.500012
C67	C	0.253287	-0.745413	0.000011
C68	C	0.753287	-0.245413	0.500011
C69	C	0.263494	-0.853542	0.000003
C70	C	0.763494	-0.353542	0.500003
C71	C	0.112428	-0.878234	0.000013
C72	C	0.612428	-0.378234	0.500013
C73	C	0.102221	-0.770107	0.000011
C74	C	0.602221	-0.270107	0.500011
N75	N	0.198459	-1.244451	-0.281831
N76	N	0.698459	-0.744451	0.218169
C77	C	0.137394	-1.328092	0.531156
C78	C	0.637394	-0.828092	1.031156
C79	C	0.143806	-1.319318	0.655819
C80	C	0.643806	-0.819318	1.155819
C81	C	0.246701	-1.178349	0.655847
C82	C	0.746701	-0.678349	1.155847
C83	C	0.240289	-1.187123	0.531184
C84	C	0.740289	-0.687123	1.031184
C85	C	0.185634	-1.261997	0.468843
C86	C	0.685634	-0.761997	0.968843
C87	C	0.179227	-1.270775	0.344178
C88	C	0.679227	-0.770775	0.844178
C89	C	0.282117	-1.129802	0.344208
C90	C	0.782117	-0.629802	0.844208
C91	C	0.288530	-1.121028	0.468871
C92	C	0.788530	-0.621028	0.968871
H93	H	-0.229864	-1.043639	0.000101
H94	H	0.270136	-0.543639	0.500101
C95	C	0.034953	-0.951290	0.000009
C96	C	0.534953	-0.451290	0.500009
N97	N	-0.023400	-1.006318	0.000002
N98	N	0.476600	-0.506318	0.500002
C99	C	0.119104	-1.353135	0.275605
C100	C	0.619104	-0.853135	0.775605
N101	N	0.073815	-1.415168	0.223959
N102	N	0.573815	-0.915168	0.723959
C103	C	-0.334689	-1.102789	0.209181
C104	C	0.165311	-0.602789	0.709181
N105	N	-0.354267	-1.053886	0.293177
N106	N	0.145733	-0.553886	0.793177
H107	H	0.092898	-1.389064	0.480398
H108	H	0.592898	-0.889064	0.980398
H109	H	0.329155	-0.887502	0.000004
H110	H	0.829155	-0.387502	0.500004
H111	H	0.370856	-0.516815	0.000014
H112	H	0.870856	-0.016815	0.500014
H113	H	0.104523	-1.373138	0.706551
H114	H	0.604523	-0.873138	1.206551
C115	C	-0.218033	-1.316682	0.209403
C116	C	0.281967	-0.816682	0.709403
N117	N	-0.189930	-1.353670	0.293504
N118	N	0.310070	-0.853670	0.793504
H119	H	0.291194	-1.117381	0.706621
H120	H	0.791194	-0.617381	1.206621
C121	C	-0.239350	-1.346233	-0.209137
C122	C	0.260650	-0.846233	0.290863
N123	N	-0.219750	-1.395086	-0.293155
N124	N	0.280250	-0.895086	0.206845
C125	C	0.412417	-0.724893	0.000002
C126	C	0.912417	-0.224893	0.500002
N127	N	0.479230	-0.759453	-0.000005
N128	N	0.979230	-0.259453	0.499995
H129	H	0.333026	-1.060064	0.519643
H130	H	0.833026	-0.560064	1.019643
C131	C	-0.356161	-1.132315	-0.209132
C132	C	0.143839	-0.632315	0.290868
N133	N	-0.384356	-1.095253	-0.293131
N134	N	0.115644	-0.595253	0.206869
C135	C	0.073744	-0.549670	0.000026
C136	C	0.573744	-0.049670	0.500026
N137	N	0.006937	-0.515094	0.000038
N138	N	0.506937	-0.015094	0.500038
H139	H	0.036567	-0.736129	0.000026
H140	H	0.536567	-0.236129	0.500026
H141	H	-0.344011	-1.405566	0.000130
H142	H	0.155989	-0.905566	0.500130
C143	C	0.335186	-1.057093	0.275653
C144	C	0.835186	-0.557093	0.775653
N145	N	0.375157	-1.002332	0.224016
N146	N	0.875157	-0.502332	0.724016
