data_functionalizedCrystal
_audit_creation_method	'MofGen! by Chris Wilmer'
_symmetry_space_group_name_H-M	'P1'
_symmetry_Int_Tables_number	1
_symmetry_cell_setting	triclinic
loop_
_symmetry_equiv_pos_as_xyz
  x,y,z
_cell_length_a	16.120530
_cell_length_b	16.120507
_cell_length_c	16.120297
_cell_angle_alpha	95.611825
_cell_angle_beta	89.871860
_cell_angle_gamma	89.824460
loop_
_atom_site_label
_atom_site_type_symbol
_atom_site_fract_x
_atom_site_fract_y
_atom_site_fract_z
Zn1	Zn	1.224927	0.422262	0.554794
Zn2	Zn	1.224803	0.554945	0.422093
Zn3	Zn	1.093668	0.408178	0.408037
Zn4	Zn	1.078800	0.554178	0.554026
O5	O	1.155550	0.484891	0.484738
O6	O	1.340945	0.446078	0.543395
O7	O	1.213578	0.529903	0.303596
O8	O	1.117353	0.293416	0.421944
O9	O	1.340854	0.543560	0.445900
O10	O	1.213789	0.303764	0.529766
O11	O	1.117234	0.422074	0.293269
O12	O	0.975661	0.421330	0.421199
O13	O	1.092014	0.542252	0.670760
O14	O	0.964738	0.528595	0.528456
O15	O	1.199372	0.445334	0.671325
O16	O	1.199162	0.671474	0.445155
O17	O	1.091894	0.670910	0.542085
C18	C	0.940113	0.473351	0.473219
C19	C	0.847946	0.468436	0.468313
C20	C	0.679196	0.459442	0.459360
C21	C	0.632737	0.510404	0.510179
C22	C	0.538839	0.505400	0.505197
C23	C	0.773103	0.464445	0.464340
C24	C	1.143923	0.701435	0.495081
C25	C	1.139023	0.794078	0.499538
C26	C	1.181035	1.005235	0.461749
C27	C	1.130093	0.963695	0.507685
C28	C	1.135063	0.869312	0.503151
C29	C	1.176066	1.099627	0.466283
C30	C	1.371828	0.496476	0.496301
C31	C	1.463992	0.501413	0.501229
C32	C	1.144049	0.495278	0.702129
C33	C	1.139147	0.499705	0.794769
C34	C	1.167212	1.267501	0.474359
C35	C	1.172102	1.174857	0.469899
C36	C	1.167057	0.474486	0.268191
C37	C	1.172131	0.469833	0.175550
C38	C	1.130170	0.507767	0.964380
C39	C	1.181106	0.461774	1.005944
C40	C	1.176111	0.466259	1.100321
C41	C	1.135164	0.503282	0.869994
H42	H	0.663483	0.557791	0.557427
H43	H	0.648452	0.412058	0.412116
Br44	Br	1.051176	1.022562	0.578907
H45	H	1.228378	0.969917	0.419020
H46	H	1.228464	0.419028	0.970649
H47	H	1.082815	0.550509	0.999673
