data_functionalizedCrystal
_audit_creation_method	'MofGen! by Chris Wilmer'
_symmetry_space_group_name_H-M	'P1'
_symmetry_Int_Tables_number	1
_symmetry_cell_setting	triclinic
loop_
_symmetry_equiv_pos_as_xyz
  x,y,z
_cell_length_a	21.395362
_cell_length_b	12.759394
_cell_length_c	21.395355
_cell_angle_alpha	89.985423
_cell_angle_beta	89.956060
_cell_angle_gamma	90.030716
loop_
_atom_site_label
_atom_site_type_symbol
_atom_site_fract_x
_atom_site_fract_y
_atom_site_fract_z
Zn1	Zn	0.957929	-0.417943	-0.354603
Zn2	Zn	1.457929	0.082057	0.145397
Zn3	Zn	0.957860	-0.593608	-0.249833
Zn4	Zn	1.457860	-0.093608	0.250167
Zn5	Zn	0.853143	-0.417992	-0.249804
Zn6	Zn	1.353143	0.082008	0.250196
Zn7	Zn	0.853142	-0.593629	-0.354537
Zn8	Zn	1.353142	-0.093629	0.145463
O9	O	0.905518	-0.505793	-0.302194
O10	O	1.405518	-0.005793	0.197806
O11	O	1.045597	-0.441216	-0.340744
O12	O	1.545597	0.058784	0.159256
O13	O	0.943941	-0.570323	-0.162151
O14	O	1.443941	-0.070323	0.337849
O15	O	0.867073	-0.270964	-0.263721
O16	O	1.367073	0.229036	0.236279
O17	O	1.045547	-0.570276	-0.263770
O18	O	1.545547	-0.070276	0.236230
O19	O	0.944058	-0.270928	-0.340717
O20	O	1.444058	0.229072	0.159283
O21	O	0.867006	-0.441299	-0.162130
O22	O	1.367006	0.058701	0.337870
O23	O	0.765465	-0.441320	-0.263658
O24	O	1.265465	0.058680	0.236342
O25	O	0.867070	-0.570313	-0.442224
O26	O	1.367070	-0.070313	0.057776
O27	O	0.765464	-0.570360	-0.340605
O28	O	1.265464	-0.070360	0.159395
O29	O	0.944056	-0.441237	-0.442272
O30	O	1.444056	0.058763	0.057728
O31	O	0.943940	-0.740632	-0.263706
O32	O	1.443940	-0.240632	0.236294
O33	O	0.867003	-0.740647	-0.340632
O34	O	1.367003	-0.240647	0.159368
C35	C	0.742731	-0.505848	-0.302121
C36	C	1.242731	-0.005848	0.197879
C37	C	0.673089	-0.505897	-0.302105
C38	C	1.173089	-0.005897	0.197895
C39	C	0.640392	-0.573178	-0.342112
C40	C	1.140392	-0.073178	0.157888
C41	C	0.574957	-0.573152	-0.342139
C42	C	1.074957	-0.073152	0.157861
C43	C	0.542221	-0.505857	-0.302150
C44	C	1.042221	-0.005857	0.197850
C45	C	0.574927	-0.438564	-0.262141
C46	C	1.074927	0.061436	0.237859
C47	C	0.640361	-0.438584	-0.262118
C48	C	1.140361	0.061416	0.237882
C49	C	0.438495	-0.497393	-0.245744
C50	C	0.938495	0.002607	0.254256
C51	C	0.373062	-0.497380	-0.245766
C52	C	0.873062	0.002620	0.254234
C53	C	0.340401	-0.505788	-0.302219
C54	C	0.840401	-0.005788	0.197781
C55	C	0.373180	-0.514231	-0.358653
C56	C	0.873180	-0.014231	0.141347
C57	C	0.438614	-0.514252	-0.358631
C58	C	0.938614	-0.014252	0.141369
C59	C	0.471269	-0.505827	-0.302170
C60	C	0.971269	-0.005827	0.197830
C61	C	0.236751	-0.573044	-0.342259
C62	C	0.736751	-0.073044	0.157741
C63	C	0.171314	-0.573011	-0.342288
C64	C	0.671314	-0.073011	0.157712
C65	C	0.171285	-0.438429	-0.262284
C66	C	0.671285	0.061571	0.237716
C67	C	0.236720	-0.438456	-0.262260
C68	C	0.736720	0.061544	0.237740
C69	C	0.269449	-0.505770	-0.302247
C70	C	0.769449	-0.005770	0.197753
C71	C	0.905481	-0.778760	-0.302179
C72	C	1.405481	-0.278760	0.197821
C73	C	0.905522	-0.895537	-0.302193
C74	C	1.405522	-0.395537	0.197807
C75	C	0.985696	-0.895467	-0.222150
C76	C	1.485696	-0.395467	0.277850
C77	C	1.025799	-0.950293	-0.182136
C78	C	1.525799	-0.450293	0.317864
C79	C	1.025836	-1.060015	-0.182153
C80	C	1.525836	-0.560015	0.317847
C81	C	0.985766	-1.114913	-0.222190
C82	C	1.485766	-0.614913	0.277810
C83	C	0.945663	-1.060087	-0.262204
C84	C	1.445663	-0.560087	0.237796
C85	C	0.945629	-0.950363	-0.262182
C86	C	1.445629	-0.450363	0.237818
C87	C	0.865493	-1.060157	-0.342250
C88	C	1.365493	-0.560157	0.157750
C89	C	0.865453	-0.950435	-0.342230
C90	C	1.365453	-0.450435	0.157770
C91	C	0.825424	-1.115055	-0.382286
C92	C	1.325424	-0.615055	0.117714
C93	C	0.785317	-1.060229	-0.422298
C94	C	1.285317	-0.560229	0.077702
C95	C	0.785281	-0.950501	-0.422279
C96	C	1.285281	-0.450501	0.077721
C97	C	0.825349	-0.895609	-0.382244
C98	C	1.325349	-0.395609	0.117756
C99	C	1.068942	-0.505738	-0.302267
C100	C	1.568942	-0.005738	0.197733
C101	C	1.138583	-0.505714	-0.302299
C102	C	1.638583	-0.005714	0.197701
C103	C	0.905570	-0.505772	-0.465618
C104	C	1.405570	-0.005772	0.034382
C105	C	0.905593	-0.505762	-0.535259
C106	C	1.405593	-0.005762	-0.035259
C107	C	0.905573	-0.231759	-0.302223
C108	C	1.405573	0.268241	0.197777
C109	C	0.905597	-0.114983	-0.302235
C110	C	1.405597	0.385017	0.197765
C111	C	0.945678	-0.438550	-0.567998
C112	C	1.445678	0.061450	-0.067998
C113	C	0.945677	-0.438505	-0.633433
C114	C	1.445677	0.061495	-0.133433
C115	C	0.905597	-0.505691	-0.666127
C116	C	1.405597	-0.005691	-0.166127
C117	C	0.865505	-0.572908	-0.633380
C118	C	1.365505	-0.072908	-0.133380
C119	C	0.865502	-0.572944	-0.567946
C120	C	1.365502	-0.072944	-0.067946
C121	C	0.900637	-0.600292	-0.769795
C122	C	1.400637	-0.100292	-0.269795
C123	C	0.900644	-0.600258	-0.835228
C124	C	1.400644	-0.100258	-0.335228
C125	C	0.905601	-0.505580	-0.867948
C126	C	1.405601	-0.005580	-0.367948
C127	C	0.910565	-0.410933	-0.835227
C128	C	1.410565	0.089067	-0.335227
C129	C	0.910563	-0.410968	-0.769793
C130	C	1.410563	0.089032	-0.269793
C131	C	0.905595	-0.505659	-0.737080
C132	C	1.405595	-0.005659	-0.237080
C133	C	0.945688	-0.438313	-0.971640
C134	C	1.445688	0.061687	-0.471640
C135	C	0.945682	-0.438266	-1.037076
C136	C	1.445682	0.061734	-0.537076
C137	C	0.865513	-0.572679	-1.037022
C138	C	1.365513	-0.072679	-0.537022
C139	C	0.865515	-0.572716	-0.971586
C140	C	1.365515	-0.072716	-0.471586
C141	C	0.905606	-0.505535	-0.938899
C142	C	1.405606	-0.005535	-0.438899
C143	C	0.905503	-0.505738	-0.139407
C144	C	1.405503	-0.005738	0.360593
C145	C	0.905602	-0.505451	-0.069766
C146	C	1.405602	-0.005451	0.430234
H147	H	0.548269	-0.383770	-0.229582
H148	H	1.048269	0.116230	0.270418
H149	H	0.346588	-0.521076	-0.404623
H150	H	0.846588	-0.021076	0.095377
H151	H	0.896606	-0.677326	-0.861864
H152	H	1.396606	-0.177326	-0.361864
H153	H	0.978324	-0.383527	-1.063732
H154	H	1.478324	0.116473	-0.563732
H155	H	0.914603	-0.333904	-0.743154
H156	H	1.414603	0.166096	-0.243154
C157	C	0.741248	-1.120612	-0.466336
C158	C	1.241248	-0.620612	0.033664
H159	H	0.717359	-1.072248	-0.490166
H160	H	1.217359	-0.572248	0.009834
H161	H	0.713975	-1.163495	-0.442347
H162	H	1.213975	-0.663495	0.057653
H163	H	0.765227	-1.163336	-0.493674
H164	H	1.265227	-0.663336	0.006326
H165	H	0.825320	-0.806268	-0.382221
H166	H	1.325320	-0.306268	0.117779
H167	H	0.985805	-1.204254	-0.222206
H168	H	1.485805	-0.704254	0.277794
C169	C	0.741169	-0.890201	-0.466297
C170	C	1.241169	-0.390201	0.033703
H171	H	0.717311	-0.938614	-0.490139
H172	H	1.217311	-0.438614	0.009861
H173	H	0.765111	-0.847328	-0.493616
H174	H	1.265111	-0.347328	0.006384
H175	H	0.713859	-0.847473	-0.442289
H176	H	1.213859	-0.347473	0.057711
H177	H	0.914603	-0.333837	-0.861866
H178	H	1.414603	0.166163	-0.361866
C179	C	0.538979	-0.647165	-0.386144
C180	C	1.038979	-0.147165	0.113856
H181	H	0.495321	-0.637506	-0.380432
H182	H	0.995321	-0.137506	0.119568
H183	H	0.549662	-0.717734	-0.376896
H184	H	1.049662	-0.217734	0.123104
H185	H	0.549753	-0.631897	-0.428258
H186	H	1.049753	-0.131897	0.071742
C187	C	0.474420	-0.488144	-0.183643
C188	C	0.974420	0.011856	0.316357
H189	H	0.518084	-0.489355	-0.191712
H190	H	1.018084	0.010645	0.308288
H191	H	0.463642	-0.545228	-0.157233
H192	H	0.963642	-0.045228	0.342767
H193	H	0.463701	-0.424125	-0.163679
H194	H	0.963701	0.075875	0.336321
H195	H	0.978328	-0.383603	-0.945025
H196	H	1.478328	0.116397	-0.445025
H197	H	1.058494	-1.104654	-0.149573
H198	H	1.558494	-0.604654	0.350427
C199	C	1.069872	-0.889904	-0.138099
C200	C	1.569872	-0.389904	0.361901
H201	H	1.064104	-0.816705	-0.143814
H202	H	1.564104	-0.316705	0.356186
H203	H	1.111971	-0.907802	-0.147319
H204	H	1.611971	-0.407802	0.352681
H205	H	1.060720	-0.907942	-0.095992
H206	H	1.560720	-0.407942	0.404008
H207	H	0.825459	-1.204396	-0.382300
H208	H	1.325459	-0.704396	0.117700
C209	C	0.676329	-0.364579	-0.218106
C210	C	1.176329	0.135421	0.281894
H211	H	0.647464	-0.324498	-0.194291
H212	H	1.147464	0.175502	0.305709
H213	H	0.701905	-0.318873	-0.242111
H214	H	1.201905	0.181127	0.257889
H215	H	0.701804	-0.404718	-0.190753
H216	H	1.201804	0.095282	0.309247
C217	C	0.474672	-0.523534	-0.420700
C218	C	0.974672	-0.023534	0.079300
H219	H	0.518319	-0.522350	-0.412599
H220	H	1.018319	-0.022350	0.087401
H221	H	0.464005	-0.466447	-0.447121
H222	H	0.964005	0.033553	0.052879
H223	H	0.463944	-0.587549	-0.440670
H224	H	0.963944	-0.087549	0.059330
H225	H	0.978322	-0.383844	-0.541388
H226	H	1.478322	0.116156	-0.041388
H227	H	0.985662	-0.806126	-0.222124
H228	H	1.485662	-0.306126	0.277876
C229	C	0.821431	-0.646589	-1.072977
C230	C	1.321431	-0.146589	-0.572977
H231	H	0.827176	-0.636949	-1.116637
H232	H	1.327176	-0.136949	-0.616637
H233	H	0.779335	-0.631243	-1.062223
H234	H	1.279335	-0.131243	-0.562223
H235	H	0.830595	-0.717184	-1.062261
H236	H	1.330595	-0.217184	-0.562261
C237	C	0.989777	-0.364576	-0.669454
C238	C	1.489777	0.135424	-0.169454
H239	H	1.013656	-0.324577	-0.640615
H240	H	1.513656	0.175423	-0.140615
H241	H	0.965825	-0.318791	-0.694964
H242	H	1.465825	0.181209	-0.194964
H243	H	1.017068	-0.404762	-0.694998
H244	H	1.517068	0.095238	-0.194998
H245	H	0.263400	-0.627850	-0.374822
H246	H	0.763400	-0.127850	0.125178
H247	H	0.896433	-0.677371	-0.743160
H248	H	1.396433	-0.177371	-0.243160
C249	C	0.821426	-0.646659	-0.935572
C250	C	1.321426	-0.146659	-0.435572
H251	H	0.797558	-0.686673	-0.964413
H252	H	1.297558	-0.186673	-0.464413
H253	H	0.794134	-0.606493	-0.910023
H254	H	1.294134	-0.106493	-0.410023
H255	H	0.845387	-0.692446	-0.910066
H256	H	1.345387	-0.192446	-0.410066
C257	C	0.337008	-0.488168	-0.183690
C258	C	0.837008	0.011832	0.316310
H259	H	0.293360	-0.489395	-0.191786
H260	H	0.793360	0.010605	0.308214
H261	H	0.347719	-0.424177	-0.163692
H262	H	0.847719	0.075823	0.336308
H263	H	0.347696	-0.545287	-0.157296
H264	H	0.847696	-0.045287	0.342704
C265	C	0.135347	-0.647038	-0.386288
C266	C	0.635347	-0.147038	0.113712
H267	H	0.164213	-0.687138	-0.410091
H268	H	0.664213	-0.187138	0.089909
H269	H	0.109865	-0.606927	-0.413644
H270	H	0.609865	-0.106927	0.086356
H271	H	0.109779	-0.692741	-0.362268
H272	H	0.609779	-0.192741	0.137732
C273	C	0.821421	-0.646816	-0.669340
C274	C	1.321421	-0.146816	-0.169340
H275	H	0.827169	-0.637177	-0.713000
H276	H	1.327169	-0.137177	-0.213000
H277	H	0.779326	-0.631464	-0.658588
H278	H	1.279326	-0.131464	-0.158588
H279	H	0.830582	-0.717412	-0.658624
H280	H	1.330582	-0.217412	-0.158624
C281	C	0.821410	-0.646884	-0.531928
C282	C	1.321410	-0.146884	-0.031928
H283	H	0.827148	-0.637279	-0.488276
H284	H	1.327148	-0.137279	0.011724
H285	H	0.830563	-0.717465	-0.542663
H286	H	1.330563	-0.217465	-0.042663
H287	H	0.779314	-0.631506	-0.542618
H288	H	1.279314	-0.131506	-0.042618
C289	C	0.676393	-0.647238	-0.386082
C290	C	1.176393	-0.147238	0.113918
H291	H	0.720047	-0.637630	-0.380332
H292	H	1.220047	-0.137630	0.119668
H293	H	0.665730	-0.631994	-0.428204
H294	H	1.165730	-0.131994	0.071796
H295	H	0.665620	-0.717796	-0.376821
H296	H	1.165620	-0.217796	0.123179
C297	C	0.135287	-0.364400	-0.218297
C298	C	0.635287	0.135600	0.281703
H299	H	0.164135	-0.324329	-0.194468
H300	H	0.664135	0.175671	0.305532
H301	H	0.109711	-0.404509	-0.190964
H302	H	0.609711	0.095491	0.309036
H303	H	0.109811	-0.318670	-0.242326
H304	H	0.609811	0.181330	0.257674
C305	C	0.272689	-0.364460	-0.218245
C306	C	0.772689	0.135540	0.281755
H307	H	0.243823	-0.324384	-0.194428
H308	H	0.743823	0.175616	0.305572
H309	H	0.298264	-0.318750	-0.242248
H310	H	0.798264	0.181250	0.257752
H311	H	0.298165	-0.404602	-0.190893
H312	H	0.798165	0.095398	0.309107
