data_functionalizedCrystal
_audit_creation_method	'MofGen! by Chris Wilmer'
_symmetry_space_group_name_H-M	'P1'
_symmetry_Int_Tables_number	1
_symmetry_cell_setting	triclinic
loop_
_symmetry_equiv_pos_as_xyz
  x,y,z
_cell_length_a	14.519709
_cell_length_b	16.109302
_cell_length_c	14.586319
_cell_angle_alpha	89.994552
_cell_angle_beta	89.997598
_cell_angle_gamma	96.429037
loop_
_atom_site_label
_atom_site_type_symbol
_atom_site_fract_x
_atom_site_fract_y
_atom_site_fract_z
O1	O	-0.118543	1.103336	-0.076269
O2	O	0.381457	1.603336	0.423731
O3	O	-0.133295	0.861299	-0.076260
O4	O	0.366705	1.361299	0.423740
O5	O	0.008333	0.988735	-0.076273
O6	O	0.508333	1.488735	0.423727
O7	O	-0.260171	0.975900	-0.076256
O8	O	0.239829	1.475900	0.423744
O9	O	0.008335	0.988726	0.076208
O10	O	0.508335	1.488726	0.576208
O11	O	-0.133292	0.861290	0.076221
O12	O	0.366708	1.361290	0.576221
O13	O	-0.118541	1.103327	0.076212
O14	O	0.381459	1.603327	0.576212
Cu15	Cu	-0.125917	0.982308	0.090139
Cu16	Cu	0.374083	1.482308	0.590139
Cu17	Cu	-0.125919	0.982318	-0.090187
Cu18	Cu	0.374081	1.482318	0.409813
O19	O	-0.260169	0.975891	0.076225
O20	O	0.239831	1.475891	0.576225
C21	C	-0.132696	0.830319	-0.000019
C22	C	0.367304	1.330319	0.499981
C23	C	-0.130904	0.738021	-0.000016
C24	C	0.369096	1.238021	0.499984
C25	C	-0.126760	0.525668	0.083092
C26	C	0.373240	1.025668	0.583092
C27	C	-0.125066	0.438945	0.083089
C28	C	0.374934	0.938945	0.583089
C29	C	-0.125073	0.438965	-0.083154
C30	C	0.374927	0.938965	0.416846
C31	C	-0.126760	0.525687	-0.083150
C32	C	0.373240	1.025687	0.416850
C33	C	-0.127608	0.569036	-0.000024
C34	C	0.372392	1.069036	0.499976
C35	C	-0.124228	0.395590	-0.000032
C36	C	0.375772	0.895590	0.499968
C37	C	-0.122391	0.301562	-0.000036
C38	C	0.377609	0.801562	0.499964
C39	C	-0.129442	0.663071	-0.000020
C40	C	0.370558	1.163071	0.499980
C41	C	-0.294528	0.976494	-0.000013
C42	C	0.205472	1.476494	0.499987
C43	C	-0.396906	0.978286	-0.000007
C44	C	0.103094	1.478286	0.499993
C45	C	-0.771788	0.984885	-0.000044
C46	C	-0.271788	1.484885	0.499956
C47	C	-0.667484	0.983053	-0.000033
C48	C	-0.167484	1.483053	0.499967
C49	C	-0.584350	0.981586	-0.000025
C50	C	-0.084350	1.481586	0.499975
C51	C	-0.480039	0.979753	-0.000016
C52	C	0.019961	1.479753	0.499984
C53	C	0.042693	0.988132	-0.000037
C54	C	0.542693	1.488132	0.499963
C55	C	0.145070	0.986340	-0.000049
C56	C	0.645070	1.486340	0.499951
C57	C	-0.119140	1.134307	-0.000031
C58	C	0.380860	1.634307	0.499969
C59	C	-0.120932	1.226605	-0.000040
C60	C	0.379068	1.726605	0.499960
N61	N	-0.125914	0.982306	0.216971
N62	N	0.374086	1.482306	0.716971
N63	N	-0.125914	0.982326	-0.217019
N64	N	0.374086	1.482326	0.282981
C65	C	-0.063222	1.038754	0.451972
C66	C	0.436778	1.538754	0.951972
C67	C	-0.063220	1.038756	0.547953
C68	C	0.436780	1.538756	1.047953
C69	C	-0.188609	0.925873	0.547974
C70	C	0.311391	1.425873	1.047974
C71	C	-0.188606	0.925867	0.451994
C72	C	0.311394	1.425867	0.951994
C73	C	-0.125914	0.982312	0.403996
C74	C	0.374086	1.482312	0.903996
C75	C	-0.125914	0.982320	0.595956
C76	C	0.374086	1.482320	1.095956
C77	C	-0.125913	0.982323	0.700024
C78	C	0.374087	1.482323	1.200024
C79	C	-0.125914	0.982309	0.299922
C80	C	0.374086	1.482309	0.799922
H81	H	-0.124384	0.403660	-0.150832
H82	H	0.375616	0.903660	0.349168
H83	H	-0.012173	1.084713	0.412893
H84	H	0.487827	1.584713	0.912893
H85	H	-0.124376	0.403638	0.150770
H86	H	0.375624	0.903638	0.650770
C87	C	-0.126609	0.517002	-0.247482
C88	C	0.373391	1.017002	0.252518
C89	C	-0.127697	0.573363	-0.174519
C90	C	0.372303	1.073363	0.325481
H91	H	-0.127190	0.546437	-0.303885
H92	H	0.372810	1.046437	0.196115
H93	H	-0.072207	0.489439	-0.244035
H94	H	0.427793	0.989439	0.255965
H95	H	-0.179702	0.476913	-0.244015
H96	H	0.320298	0.976913	0.255985
H97	H	-0.074600	0.613448	-0.177981
H98	H	0.425400	1.113448	0.322019
H99	H	-0.182104	0.600939	-0.177968
H100	H	0.317896	1.100939	0.322032
C101	C	0.060710	1.150341	0.538285
C102	C	0.560710	1.650341	1.038285
C103	C	0.005688	1.100802	0.600688
C104	C	0.505688	1.600802	1.100688
H105	H	0.103250	1.188650	0.570843
H106	H	0.603250	1.688650	1.070843
H107	H	0.093895	1.115686	0.500856
H108	H	0.593895	1.615686	1.000856
H109	H	0.022299	1.180296	0.500844
H110	H	0.522299	1.680296	1.000844
H111	H	0.044099	1.070842	0.638124
H112	H	0.544099	1.570842	1.138124
H113	H	-0.027499	1.135461	0.638132
H114	H	0.472501	1.635461	1.138132
C115	C	-0.207883	0.613947	0.179558
C116	C	0.292117	1.113947	0.679558
C117	C	-0.127682	0.573317	0.174463
C118	C	0.372318	1.073317	0.674463
H119	H	-0.208450	0.643358	0.235972
H120	H	0.291550	1.143358	0.735972
H121	H	-0.208625	0.652188	0.130066
H122	H	0.291375	1.152188	0.630066
H123	H	-0.260966	0.573847	0.176107
H124	H	0.239034	1.073847	0.676107
H125	H	-0.074599	0.613418	0.177907
H126	H	0.425401	1.113418	0.677907
H127	H	-0.126931	0.535073	0.223969
H128	H	0.373069	1.035073	0.723969
C129	C	-0.244297	0.875766	0.695114
C130	C	0.255703	1.375766	1.195114
C131	C	-0.257527	0.863839	0.600737
C132	C	0.242473	1.363839	1.100737
H133	H	-0.286851	0.837472	0.727684
H134	H	0.213149	1.337472	1.227684
H135	H	-0.182753	0.866643	0.710842
H136	H	0.317247	1.366643	1.210842
H137	H	-0.254330	0.931270	0.710821
H138	H	0.245670	1.431270	1.210821
H139	H	-0.247487	0.808336	0.585029
H140	H	0.252513	1.308336	1.085029
H141	H	-0.319085	0.872955	0.585003
H142	H	0.180915	1.372955	1.085003
C143	C	-0.312560	0.814289	0.461648
C144	C	0.187440	1.314289	0.961648
C145	C	-0.257524	0.863824	0.399252
C146	C	0.242476	1.363824	0.899252
H147	H	-0.355106	0.775991	0.429085
H148	H	0.144894	1.275991	0.929085
H149	H	-0.274165	0.784330	0.499087
H150	H	0.225835	1.284330	0.999087
H151	H	-0.345745	0.848954	0.499079
H152	H	0.154255	1.348954	0.999079
H153	H	-0.224334	0.829160	0.361825
H154	H	0.275666	1.329160	0.861825
H155	H	-0.295924	0.893785	0.361797
H156	H	0.204076	1.393785	0.861797
