data_functionalizedCrystal
_audit_creation_method	'MofGen! by Chris Wilmer'
_symmetry_space_group_name_H-M	'P1'
_symmetry_Int_Tables_number	1
_symmetry_cell_setting	triclinic
loop_
_symmetry_equiv_pos_as_xyz
  x,y,z
_cell_length_a	11.026607
_cell_length_b	9.482900
_cell_length_c	17.699083
_cell_angle_alpha	99.314469
_cell_angle_beta	84.065484
_cell_angle_gamma	101.363848
loop_
_atom_site_label
_atom_site_type_symbol
_atom_site_fract_x
_atom_site_fract_y
_atom_site_fract_z
O1	O	1.628173	0.120914	-0.307538
O2	O	1.274973	0.120914	-0.271463
O3	O	1.461550	0.120901	-0.180683
O4	O	1.441597	0.120926	-0.398318
O5	O	1.423652	-0.120889	-0.199217
O6	O	1.237075	-0.120876	-0.289997
O7	O	1.590275	-0.120876	-0.326072
Cu8	Cu	1.410215	-0.142954	-0.309727
Cu9	Cu	1.455034	0.142991	-0.287808
O10	O	1.403698	-0.120863	-0.416852
C11	C	1.210833	0.000018	-0.274075
C12	C	1.076177	0.000018	-0.254235
C13	C	1.002211	0.000025	-0.309015
C14	C	0.863037	0.000025	-0.288511
N15	N	1.378700	-0.344072	-0.325144
C16	C	1.445730	-0.416275	-0.292350
C17	C	1.419518	-0.583691	-0.305185
C18	C	1.654416	0.000022	-0.323460
C19	C	1.789073	0.000032	-0.343298
C20	C	1.441886	0.000006	-0.161655
C21	C	1.439740	0.000005	-0.077342
N22	N	1.486558	0.344109	-0.272386
C23	C	1.423363	0.000035	-0.435880
C24	C	1.425510	0.000045	-0.520192
C25	C	1.549258	0.000003	-0.043768
C26	C	1.547237	0.000016	0.035454
C27	C	1.435695	0.000020	0.081100
C28	C	1.326170	0.000027	0.047522
C29	C	1.328194	0.000024	-0.031698
C30	C	1.318006	0.000039	0.367008
C31	C	1.315990	0.000037	0.446232
C32	C	1.537049	0.000030	0.434160
C33	C	1.539072	0.000028	0.354940
C34	C	1.429549	0.000042	0.321369
C35	C	1.431742	0.000031	0.235467
C36	C	1.433499	0.000021	0.167000
H37	H	1.041920	0.000024	-0.371093
H38	H	0.823339	0.000055	-0.226426
Br39	Br	1.179559	0.000039	-0.077263
Br40	Br	1.614844	-0.552369	-0.209965
H41	H	0.828774	0.000030	-0.405381
H42	H	1.342717	-0.645810	-0.342761
Br43	Br	1.250694	-0.447604	-0.387771
Br44	Br	1.010004	-0.000011	-0.150765
Br45	Br	1.573420	-0.312744	-0.229485
H46	H	1.640086	-0.000009	-0.080929
Br47	Br	1.695874	0.000014	0.081015
H48	H	1.629900	0.000017	0.317777
H49	H	1.626229	0.000026	0.461503
Br50	Br	1.164602	0.000041	0.508182
H51	H	1.228825	0.000050	0.339684
H52	H	1.235353	0.000040	0.084694
