data_functionalizedCrystal
_audit_creation_method	'MofGen! by Chris Wilmer'
_symmetry_space_group_name_H-M	'P1'
_symmetry_Int_Tables_number	1
_symmetry_cell_setting	triclinic
loop_
_symmetry_equiv_pos_as_xyz
  x,y,z
_cell_length_a	12.759401
_cell_length_b	10.685194
_cell_length_c	12.759393
_cell_angle_alpha	85.596579
_cell_angle_beta	89.980316
_cell_angle_gamma	94.376267
loop_
_atom_site_label
_atom_site_type_symbol
_atom_site_fract_x
_atom_site_fract_y
_atom_site_fract_z
Zn1	Zn	1.574243	-0.502368	-0.561933
Zn2	Zn	1.560688	-0.713438	-0.372774
Zn3	Zn	1.398541	-0.502431	-0.386265
Zn4	Zn	1.385090	-0.713337	-0.548418
O5	O	1.479640	-0.607894	-0.467348
O6	O	1.719465	-0.530384	-0.536851
O7	O	1.539135	-0.685516	-0.227538
O8	O	1.433151	-0.325824	-0.420870
O9	O	1.709506	-0.685456	-0.397877
O10	O	1.562238	-0.325778	-0.549932
O11	O	1.420006	-0.530490	-0.237450
O12	O	1.249737	-0.530392	-0.407765
O13	O	1.410226	-0.685284	-0.697237
O14	O	1.239855	-0.685344	-0.526898
O15	O	1.549195	-0.530286	-0.707166
O16	O	1.526092	-0.890024	-0.384772
O17	O	1.397081	-0.889950	-0.513817
C18	C	1.206675	-0.607865	-0.467330
C19	C	1.089897	-0.607882	-0.467345
C20	C	1.040157	-0.527093	-0.405442
C21	C	0.930431	-0.527123	-0.405454
C22	C	0.920195	-0.688736	-0.529279
C23	C	1.029919	-0.688711	-0.529261
C24	C	1.046066	-0.433782	-0.333956
C25	C	0.936340	-0.433812	-0.333968
C26	C	1.458684	-0.935777	-0.446387
C27	C	1.449816	-1.076046	-0.437455
C28	C	1.753672	-0.607924	-0.467366
C29	C	1.870448	-0.607937	-0.467374
C30	C	1.479722	-0.607766	-0.741389
C31	C	1.479757	-0.607712	-0.858169
C32	C	1.500707	-0.278730	-0.488413
C33	C	1.509684	-0.138461	-0.497390
C34	C	1.552128	-0.526997	-0.918204
C35	C	1.552156	-0.526951	-1.027931
C36	C	1.407438	-0.688347	-1.017579
C37	C	1.407406	-0.688385	-0.907854
C38	C	1.635683	-0.433820	-0.924181
C39	C	1.635711	-0.433775	-1.033908
C40	C	1.479625	-0.607930	-0.194378
C41	C	1.479817	-0.607628	-0.077621
H42	H	0.871347	-0.754544	-0.579689
H43	H	1.715414	-0.459953	-1.062016
H44	H	1.391760	-1.129928	-0.379309
H45	H	1.074138	-0.459834	-0.250879
H46	H	1.348471	-0.754107	-0.858978
N47	N	1.099018	-0.310856	-0.380585
H48	H	1.043899	-0.251477	-0.403127
H49	H	1.146043	-0.271996	-0.326224
H50	H	1.348530	-0.754025	-1.058046
N51	N	0.888249	-0.480042	-0.228572
H52	H	0.945717	-0.502355	-0.177637
H53	H	0.848015	-0.411666	-0.200776
H54	H	0.912802	-0.336109	-0.362143
H55	H	1.567727	-1.084587	-0.555542
H56	H	1.620143	-0.336087	-0.900666
N57	N	1.734959	-0.480535	-0.876102
H58	H	1.782969	-0.503030	-0.933580
H59	H	1.771745	-0.412409	-0.835808
H60	H	1.070412	-0.754510	-0.579657
H61	H	1.612515	-0.340912	-1.073886
