data_functionalizedCrystal
_audit_creation_method	'MofGen! by Chris Wilmer'
_symmetry_space_group_name_H-M	'P1'
_symmetry_Int_Tables_number	1
_symmetry_cell_setting	triclinic
loop_
_symmetry_equiv_pos_as_xyz
  x,y,z
_cell_length_a	21.295418
_cell_length_b	25.639239
_cell_length_c	21.295411
_cell_angle_alpha	89.980474
_cell_angle_beta	89.956262
_cell_angle_gamma	90.054499
loop_
_atom_site_label
_atom_site_type_symbol
_atom_site_fract_x
_atom_site_fract_y
_atom_site_fract_z
Zn1	Zn	0.962320	-0.207990	-0.356243
Zn2	Zn	0.962207	-0.295410	-0.250972
Zn3	Zn	0.857043	-0.208014	-0.250953
Zn4	Zn	0.856998	-0.295420	-0.356169
O5	O	0.909642	-0.251708	-0.303584
O6	O	1.050395	-0.219572	-0.342318
O7	O	0.948229	-0.283822	-0.162880
O8	O	0.871075	-0.134846	-0.264943
O9	O	1.050312	-0.283799	-0.264976
O10	O	0.948421	-0.134828	-0.342299
O11	O	0.870965	-0.219613	-0.162866
O12	O	0.768948	-0.219623	-0.264871
O13	O	0.870997	-0.283816	-0.444268
O14	O	0.768914	-0.283840	-0.342172
O15	O	0.948377	-0.219582	-0.444322
O16	O	0.948185	-0.368576	-0.264904
O17	O	0.870888	-0.368584	-0.342191
C18	C	0.746090	-0.251736	-0.303512
C19	C	0.676122	-0.251760	-0.303496
C20	C	0.909536	-0.387551	-0.303555
C21	C	0.909548	-0.445665	-0.303564
C22	C	0.643255	-0.285242	-0.343686
C23	C	0.577512	-0.285229	-0.343715
C24	C	0.544640	-0.251740	-0.303541
C25	C	0.577515	-0.218252	-0.263347
C26	C	0.643257	-0.218262	-0.263325
N27	N	0.441365	-0.247648	-0.248483
N28	N	0.378913	-0.247641	-0.248506
C29	C	0.346565	-0.251707	-0.303608
N30	N	0.379028	-0.255789	-0.358686
N31	N	0.441485	-0.255799	-0.358662
C32	C	0.473354	-0.251725	-0.303561
C33	C	0.242412	-0.285176	-0.343832
C34	C	0.176668	-0.285160	-0.343862
C35	C	0.176673	-0.218185	-0.263489
C36	C	0.242415	-0.218199	-0.263465
C37	C	0.275281	-0.251697	-0.303636
C38	C	0.949996	-0.806011	-0.263409
C39	C	0.950020	-0.860616	-0.263418
O40	O	0.984300	-0.888838	-0.229245
N41	N	0.909753	-0.887947	-0.303626
C42	C	0.869463	-0.860672	-0.343833
O43	O	0.835215	-0.888934	-0.378034
C44	C	0.869442	-0.806069	-0.343827
C45	C	0.909708	-0.778740	-0.303612
C46	C	0.990259	-0.778683	-0.223198
C47	C	0.990233	-0.724082	-0.223188
C48	C	0.949945	-0.696810	-0.263391
C49	C	0.909682	-0.724139	-0.303603
C50	C	0.829156	-0.778794	-0.384037
C51	C	0.829139	-0.724187	-0.384028
C52	C	0.869404	-0.696858	-0.343812
C53	C	0.869369	-0.642267	-0.343796
N54	N	0.909636	-0.614935	-0.303588
C55	C	0.949924	-0.642207	-0.263385
C56	C	0.869510	-0.975343	-0.343842
C57	C	0.869527	-1.029945	-0.343845
C58	C	0.950086	-1.029885	-0.263431
C59	C	0.950065	-0.975282	-0.263425
C60	C	0.909778	-0.948011	-0.303634
C61	C	0.949868	-0.527542	-0.263369
C62	C	0.949837	-0.472937	-0.263361
C63	C	0.869281	-0.473001	-0.343778
C64	C	0.869309	-0.527602	-0.343783
C65	C	0.909607	-0.554871	-0.303577
O66	O	0.835108	-0.614010	-0.377953
O67	O	0.984172	-0.613939	-0.229195
C68	C	1.073832	-0.251681	-0.303657
C69	C	1.143801	-0.251670	-0.303688
C70	C	0.909694	-0.251697	-0.467774
C71	C	0.909717	-0.251693	-0.537743
C72	C	0.909766	-0.115335	-0.303627
C73	C	0.909818	-0.057221	-0.303645
C74	C	0.950007	-0.218244	-0.570639
C75	C	0.950006	-0.218221	-0.636381
C76	C	0.909721	-0.251657	-0.669225
C77	C	0.869424	-0.285108	-0.636321
C78	C	0.869421	-0.285126	-0.570580
N79	N	0.904857	-0.297396	-0.772441
N80	N	0.904863	-0.297377	-0.834892
C81	C	0.909725	-0.251604	-0.867300
N82	N	0.914594	-0.205848	-0.834897
N83	N	0.914591	-0.205867	-0.772440
C84	C	0.909719	-0.251641	-0.740511
C85	C	0.950017	-0.218128	-0.971482
C86	C	0.950011	-0.218104	-1.037225
C87	C	0.869433	-0.284995	-1.037164
C88	C	0.869435	-0.285014	-0.971422
C89	C	0.909730	-0.251581	-0.938584
C90	C	0.909626	-0.251682	-0.140032
C91	C	0.909726	-0.251539	-0.070065
H92	H	0.550746	-0.312494	-0.376445
O93	O	0.825870	-0.557075	-0.387153
H94	H	0.793865	-0.581996	-0.358942
O95	O	1.033720	-0.808094	-0.179838
H96	H	1.005575	-0.833016	-0.147779
O97	O	0.678708	-0.182148	-0.219970
H98	H	0.729944	-0.187780	-0.226706
O99	O	0.993505	-0.945812	-0.220057
H100	H	1.025508	-0.920893	-0.248274
O101	O	0.141223	-0.182062	-0.220161
H102	H	0.175127	-0.158779	-0.192210
O103	O	0.141171	-0.321274	-0.387178
H104	H	0.111155	-0.347804	-0.358909
O105	O	0.277872	-0.182100	-0.220100
H106	H	0.243971	-0.158815	-0.192161
O107	O	0.993337	-0.556953	-0.220013
H108	H	0.965196	-0.581881	-0.187956
O109	O	0.785728	-0.808263	-0.427414
H110	H	0.796507	-0.797750	-0.476828
O111	O	0.826037	-0.945935	-0.387201
H112	H	0.836802	-0.956391	-0.436621
O113	O	0.825973	-0.321168	-0.671745
H114	H	0.797951	-0.344427	-0.637822
H115	H	0.836609	-0.312363	-0.543796
H116	H	0.982824	-0.190902	-0.944744
H117	H	0.982813	-0.190981	-0.663170
O118	O	0.825976	-0.321054	-1.072579
H119	H	0.836728	-0.362091	-1.059967
O120	O	0.993272	-0.443459	-0.219990
H121	H	1.021296	-0.471600	-0.192043
O122	O	0.993470	-0.182021	-1.072704
H123	H	0.965321	-0.155410	-1.102627
H124	H	0.982893	-1.052099	-0.230698
O125	O	0.825970	-0.321093	-0.935949
H126	H	0.854105	-0.347702	-0.906010
O127	O	0.678704	-0.321364	-0.387020
H128	H	0.644800	-0.344640	-0.414977
O129	O	0.825832	-0.443577	-0.387137
H130	H	0.776434	-0.454107	-0.376281
H131	H	0.836733	-1.052191	-0.376587
O132	O	0.277871	-0.321286	-0.387176
H133	H	0.307758	-0.347863	-0.358945
O134	O	1.033672	-0.694608	-0.179823
H135	H	1.061693	-0.722753	-0.151879
H136	H	0.550747	-0.190983	-0.230639
O137	O	0.785677	-0.694772	-0.427389
H138	H	0.757680	-0.722953	-0.455345
H139	H	0.982818	-0.191020	-0.543907
