data_functionalizedCrystal
_audit_creation_method	'MofGen! by Chris Wilmer'
_symmetry_space_group_name_H-M	'P1'
_symmetry_Int_Tables_number	1
_symmetry_cell_setting	triclinic
loop_
_symmetry_equiv_pos_as_xyz
  x,y,z
_cell_length_a	19.805407
_cell_length_b	10.685194
_cell_length_c	19.805399
_cell_angle_alpha	94.395351
_cell_angle_beta	90.017803
_cell_angle_gamma	94.374384
loop_
_atom_site_label
_atom_site_type_symbol
_atom_site_fract_x
_atom_site_fract_y
_atom_site_fract_z
Zn1	Zn	1.014162	-0.502526	0.362033
Zn2	Zn	1.005437	-0.713562	0.240171
Zn3	Zn	0.900975	-0.502551	0.248860
Zn4	Zn	0.892303	-0.713485	0.353324
O5	O	0.953219	-0.608031	0.301097
O6	O	1.107720	-0.530542	0.345876
O7	O	0.991558	-0.685614	0.146605
O8	O	0.923271	-0.325951	0.271154
O9	O	1.101310	-0.685590	0.256344
O10	O	1.006428	-0.325933	0.354302
O11	O	0.914810	-0.530585	0.152989
O12	O	0.805109	-0.530510	0.262709
O13	O	0.908490	-0.685459	0.449198
O14	O	0.798738	-0.685483	0.339459
O15	O	0.998019	-0.530467	0.455596
O16	O	0.983148	-0.890148	0.247900
O17	O	0.900030	-0.890092	0.331033
C18	C	0.777365	-0.607992	0.301082
C19	C	0.702132	-0.608005	0.301091
C20	C	0.670121	-0.527415	0.347770
C21	C	0.599432	-0.527421	0.347772
C22	C	0.560756	-0.608026	0.301098
C23	C	0.592772	-0.688620	0.254414
C24	C	0.663460	-0.688606	0.254409
C25	C	0.307697	-0.688676	0.254432
C26	C	0.237004	-0.688687	0.254442
C27	C	0.243669	-0.527492	0.347796
C28	C	0.314357	-0.527478	0.347791
C29	C	0.346367	-0.608067	0.301105
C30	C	0.423016	-0.608057	0.301102
C31	C	0.484108	-0.608043	0.301104
C32	C	0.939720	-0.935910	0.287593
C33	C	0.934006	-1.076177	0.281839
C34	C	1.129760	-0.608072	0.301112
C35	C	1.204992	-0.608089	0.301119
C36	C	0.953261	-0.607952	0.477643
C37	C	0.953278	-0.607918	0.552877
C38	C	0.966790	-0.278872	0.314668
C39	C	0.972573	-0.138604	0.320452
C40	C	0.953221	-0.608019	0.125242
C41	C	0.953349	-0.607698	0.050023
C42	C	0.999897	-0.527210	0.591554
C43	C	0.999905	-0.527173	0.662244
C44	C	0.953298	-0.607852	0.694255
C45	C	0.906674	-0.688563	0.655573
C46	C	0.906663	-0.688593	0.584884
C47	C	0.906717	-0.688446	0.940651
C48	C	0.906733	-0.688413	1.011345
C49	C	0.999960	-0.527026	1.018010
C50	C	0.999948	-0.527056	0.947322
C51	C	0.953323	-0.607762	0.908646
C52	C	0.953313	-0.607799	0.831996
C53	C	0.953310	-0.607822	0.770903
H54	H	0.689523	-0.754230	0.216398
O55	O	1.045314	-0.448574	1.055479
C56	C	1.086438	-0.377356	1.012066
H57	H	1.086641	-0.429074	0.959547
H58	H	1.065604	-0.281509	1.008493
C59	C	1.158980	-0.295652	1.104919
C60	C	1.159233	-0.359178	1.040416
H61	H	1.203883	-0.284433	1.122407
H62	H	1.131272	-0.343629	1.134168
H63	H	1.141615	-0.215786	1.101933
H64	H	1.176590	-0.439048	1.043404
H65	H	1.186946	-0.311213	1.011168
H66	H	0.573372	-0.461799	0.385784
H67	H	0.345843	-0.461846	0.385800
O68	O	0.338895	-0.766851	0.209117
C69	C	0.409578	-0.749586	0.219126
H70	H	0.423247	-0.652245	0.245382
H71	H	0.426570	-0.824520	0.252021
C72	C	0.428582	-0.880550	0.117912
C73	C	0.445371	-0.760990	0.150154
H74	H	0.450662	-0.887590	0.075367
H75	H	0.380961	-0.892186	0.111169
H76	H	0.442743	-0.942982	0.145331
H77	H	0.431203	-0.698562	0.122739
H78	H	0.492991	-0.749343	0.156890
O79	O	0.889430	-1.140294	0.237057
C80	C	0.905565	-1.108260	0.170908
H81	H	0.935444	-1.012495	0.173411
H82	H	0.937389	-1.182396	0.145137
C83	C	0.803138	-1.220106	0.127009
C84	C	0.839832	-1.102480	0.130083
H85	H	0.762592	-1.216546	0.101825
H86	H	0.792269	-1.241692	0.171574
H87	H	0.829666	-1.281873	0.105535
H88	H	0.813307	-1.040719	0.151565
H89	H	0.850695	-1.080883	0.085521
O90	O	1.045279	-0.448854	0.916185
C91	C	1.086016	-0.520710	0.872319
H92	H	1.086120	-0.620091	0.889524
H93	H	1.064890	-0.525085	0.818567
C94	C	1.158786	-0.336979	0.852642
C95	C	1.158918	-0.459038	0.873777
H96	H	1.203754	-0.298935	0.853538
H97	H	1.131339	-0.288567	0.882193
H98	H	1.141177	-0.340641	0.807851
H99	H	1.176518	-0.455373	0.918570
H100	H	1.186370	-0.507448	0.844233
H101	H	1.037853	-0.461516	0.565495
H102	H	0.868776	-0.754113	1.037406
H103	H	1.009964	-1.084743	0.357915
H104	H	0.561277	-0.754243	0.216408
O105	O	0.861489	-0.767067	0.686692
C106	C	0.896670	-0.848548	0.724238
H107	H	0.949652	-0.856368	0.702622
H108	H	0.900620	-0.809508	0.779421
C109	C	0.793118	-0.970125	0.746460
C110	C	0.858190	-0.979737	0.719906
H111	H	0.769381	-1.051047	0.743790
H112	H	0.769415	-0.915227	0.721166
H113	H	0.796419	-0.937587	0.792443
H114	H	0.854888	-1.012259	0.673921
H115	H	0.881892	-1.034643	0.745191
O116	O	0.212491	-0.449371	0.393169
C117	C	0.168673	-0.521336	0.433871
H118	H	0.154142	-0.616912	0.405978
H119	H	0.195360	-0.535327	0.483439
C120	C	0.122234	-0.334551	0.483314
C121	C	0.104382	-0.451936	0.449051
H122	H	0.082578	-0.291741	0.492681
H123	H	0.151757	-0.286066	0.455894
H124	H	0.144474	-0.346227	0.524616
H125	H	0.082151	-0.440258	0.407746
H126	H	0.074854	-0.500418	0.476465
H127	H	1.037869	-0.461456	0.693731
O128	O	0.861359	-0.767128	0.547410
C129	C	0.820216	-0.838317	0.590821
H130	H	0.847765	-0.842658	0.641037
H131	H	0.770712	-0.792105	0.600231
C132	C	0.771097	-0.967313	0.496019
C133	C	0.804935	-0.972653	0.557694
H134	H	0.761668	-1.050176	0.475585
H135	H	0.798814	-0.919349	0.466772
H136	H	0.729848	-0.928797	0.503869
H137	H	0.846188	-1.011154	0.549842
H138	H	0.777225	-1.020627	0.586939
H139	H	0.701606	-0.461780	0.385779
H140	H	0.205515	-0.754328	0.216432
H141	H	0.868760	-0.754180	0.909169
