data_functionalizedCrystal
_audit_creation_method	'MofGen! by Chris Wilmer'
_symmetry_space_group_name_H-M	'P1'
_symmetry_Int_Tables_number	1
_symmetry_cell_setting	triclinic
loop_
_symmetry_equiv_pos_as_xyz
  x,y,z
_cell_length_a	18.215407
_cell_length_b	14.908520
_cell_length_c	18.215399
_cell_angle_alpha	93.269364
_cell_angle_beta	89.980167
_cell_angle_gamma	93.321174
loop_
_atom_site_label
_atom_site_type_symbol
_atom_site_fract_x
_atom_site_fract_y
_atom_site_fract_z
Zn1	Zn	1.108178	-0.359158	-0.433017
Zn2	Zn	1.100989	-0.510027	-0.317051
Zn3	Zn	0.985109	-0.359188	-0.309966
Zn4	Zn	0.977982	-0.509977	-0.440073
O5	O	1.043064	-0.434588	-0.375027
O6	O	1.210208	-0.379180	-0.417646
O7	O	1.085592	-0.490052	-0.213128
O8	O	1.007425	-0.232939	-0.320371
O9	O	1.204927	-0.490023	-0.332446
O10	O	1.097843	-0.232917	-0.410776
O11	O	1.000455	-0.379230	-0.207923
O12	O	0.881180	-0.379182	-0.327213
O13	O	0.995278	-0.489937	-0.542120
O14	O	0.875943	-0.489966	-0.422802
O15	O	1.090932	-0.379131	-0.536936
O16	O	1.078681	-0.636266	-0.339288
O17	O	0.988308	-0.636229	-0.429672
C18	C	0.851859	-0.434572	-0.375005
C19	C	0.770059	-0.434587	-0.375014
C20	C	0.579154	-0.492363	-0.424733
C21	C	0.502295	-0.492366	-0.424742
C22	C	0.507726	-0.376828	-0.325338
C23	C	0.584584	-0.376822	-0.325333
C24	C	0.620295	-0.434594	-0.375029
C25	C	0.466579	-0.434604	-0.375044
C26	C	0.383245	-0.434606	-0.375053
C27	C	0.703635	-0.434591	-0.375021
C28	C	1.031961	-0.668981	-0.386030
C29	C	1.027278	-0.769256	-0.390762
C30	C	1.112681	-0.957660	-0.305613
C31	C	1.108284	-1.051877	-0.310057
C32	C	1.014091	-1.051908	-0.404097
C33	C	1.018488	-0.957691	-0.399653
C34	C	1.067784	-0.910570	-0.350409
C35	C	1.072177	-0.816352	-0.345962
C36	C	0.977988	-0.816385	-0.440005
C37	C	0.973591	-0.910602	-0.444449
C38	C	1.235017	-0.434604	-0.375049
C39	C	1.316815	-0.434611	-0.375059
C40	C	1.043112	-0.434526	-0.566977
C41	C	1.043133	-0.434499	-0.648775
C42	C	1.054231	-0.199279	-0.363996
C43	C	1.058990	-0.099004	-0.359296
C44	C	1.092959	-0.376748	-0.834268
C45	C	1.092969	-0.376722	-0.911126
C46	C	0.993364	-0.492110	-0.916513
C47	C	0.993351	-0.492131	-0.839656
C48	C	1.043153	-0.434452	-0.798536
C49	C	1.043176	-0.434404	-0.952250
C50	C	1.043186	-0.434376	-1.035582
C51	C	1.043142	-0.434478	-0.715198
C52	C	1.043062	-0.434585	-0.183820
C53	C	1.043196	-0.434357	-0.102011
H54	H	0.478640	-0.329793	-0.284876
N55	N	0.628965	-0.314499	-0.271730
H56	H	0.594681	-0.277903	-0.240247
H57	H	0.659110	-0.351159	-0.239343
H58	H	1.112315	-0.777987	-0.305863
H59	H	0.608228	-0.539403	-0.465200
N60	N	0.939634	-0.554368	-0.801101
H61	H	0.907269	-0.517703	-0.767491
H62	H	0.908136	-0.590902	-0.838850
H63	H	1.152815	-0.919293	-0.265511
N64	N	0.457924	-0.554683	-0.478347
H65	H	0.424045	-0.596442	-0.450345
H66	H	0.427829	-0.518015	-0.510774
H67	H	1.144846	-1.090213	-0.273581
N68	N	0.960929	-1.102739	-0.457210
H69	H	0.964960	-1.169570	-0.453226
H70	H	0.909141	-1.086342	-0.444929
N71	N	0.920422	-0.961435	-0.497554
H72	H	0.868611	-0.945104	-0.485297
H73	H	0.932645	-0.944967	-0.549351
N74	N	0.929557	-0.765593	-0.488319
H75	H	0.961265	-0.726440	-0.520607
H76	H	0.897668	-0.809799	-0.520139
N77	N	1.146670	-0.314539	-0.789915
H78	H	1.178222	-0.277980	-0.824217
H79	H	1.118688	-0.272798	-0.756065
N80	N	1.146681	-0.314475	-0.949666
H81	H	1.178223	-0.277938	-0.911951
H82	H	1.179003	-0.351181	-0.983286
N83	N	0.939642	-0.554306	-0.960863
H84	H	0.947204	-0.545534	-1.014974
H85	H	0.948025	-0.618746	-0.950455
