data_functionalizedCrystal
_audit_creation_method	'MofGen! by Chris Wilmer'
_symmetry_space_group_name_H-M	'P1'
_symmetry_Int_Tables_number	1
_symmetry_cell_setting	triclinic
loop_
_symmetry_equiv_pos_as_xyz
  x,y,z
_cell_length_a	16.992694
_cell_length_b	16.053802
_cell_length_c	16.992695
_cell_angle_alpha	87.258926
_cell_angle_beta	90.668223
_cell_angle_gamma	92.750953
loop_
_atom_site_label
_atom_site_type_symbol
_atom_site_fract_x
_atom_site_fract_y
_atom_site_fract_z
O1	O	1.053959	0.069325	0.163815
O2	O	1.387293	0.402658	0.497148
O3	O	1.720626	0.735992	0.830482
O4	O	0.825560	0.069350	0.161983
O5	O	1.158894	0.402683	0.495316
O6	O	1.492227	0.736016	0.828649
O7	O	0.938844	0.069331	0.048699
O8	O	1.272177	0.402664	0.382032
O9	O	1.605510	0.735997	0.715366
O10	O	0.940676	0.069344	0.277099
O11	O	1.274009	0.402677	0.610432
O12	O	1.607342	0.736011	0.943765
O13	O	0.932607	-0.069527	0.054907
O14	O	1.265940	0.263806	0.388241
O15	O	1.599273	0.597140	0.721574
O16	O	0.819323	-0.069508	0.168191
O17	O	1.152656	0.263825	0.501524
O18	O	1.485990	0.597158	0.834857
O19	O	1.047722	-0.069533	0.170023
O20	O	1.381055	0.263800	0.503356
O21	O	1.714389	0.597134	0.836690
Zn22	Zn	0.932532	-0.091567	0.170093
Zn23	Zn	1.265866	0.241766	0.503426
Zn24	Zn	1.599199	0.575099	0.836759
Zn25	Zn	0.940750	0.091384	0.161913
Zn26	Zn	1.274083	0.424717	0.495247
Zn27	Zn	1.607417	0.758051	0.828580
O28	O	0.934438	-0.069514	0.283307
O29	O	1.267772	0.263819	0.616640
O30	O	1.601105	0.597153	0.949973
C31	C	0.793082	-0.000076	0.162731
C32	C	1.126415	0.333257	0.496064
C33	C	1.459748	0.666590	0.829398
C34	C	0.705597	-0.000067	0.155702
C35	C	1.038931	0.333266	0.489035
C36	C	1.372264	0.666600	0.822368
N37	N	0.926930	-0.216427	0.175675
N38	N	1.260263	0.116907	0.509008
N39	N	1.593596	0.450240	0.842341
C40	C	0.659607	-0.000064	0.223520
C41	C	0.992940	0.333270	0.556853
C42	C	1.326273	0.666603	0.890186
C43	C	0.577405	-0.000076	0.216911
C44	C	0.910739	0.333258	0.550244
C45	C	1.244072	0.666591	0.883578
C46	C	0.541197	-0.000085	0.142484
C47	C	0.874530	0.333249	0.475817
C48	C	1.207863	0.666582	0.809151
C49	C	0.587193	-0.000091	0.074661
C50	C	0.920527	0.333243	0.407994
C51	C	1.253860	0.666576	0.741328
C52	C	0.669393	-0.000085	0.081270
C53	C	1.002726	0.333249	0.414604
C54	C	1.336060	0.666582	0.747937
C55	C	0.295881	-0.000109	0.115090
C56	C	0.629215	0.333225	0.448424
C57	C	0.962548	0.666558	0.781757
C58	C	0.213676	-0.000112	0.108486
C59	C	0.547009	0.333221	0.441819
C60	C	0.880343	0.666555	0.775153
C61	C	0.203893	-0.000099	0.250737
C62	C	0.537227	0.333234	0.584070
C63	C	0.870560	0.666568	0.917403
C64	C	0.286095	-0.000088	0.257339
C65	C	0.619428	0.333245	0.590673
C66	C	0.952762	0.666579	0.924006
C67	C	0.332084	-0.000098	0.189517
C68	C	0.665418	0.333235	0.522850
C69	C	0.998751	0.666569	0.856183
N70	N	0.457174	-0.000094	0.135727
N71	N	0.790507	0.333239	0.469060
N72	N	1.123841	0.666572	0.802394
N73	N	0.416105	-0.000094	0.196275
N74	N	0.749439	0.333239	0.529608
N75	N	1.082772	0.666572	0.862941
C76	C	0.975152	-0.260129	0.127492
C77	C	1.308485	0.073205	0.460825
C78	C	1.641819	0.406538	0.794158
C79	C	0.971241	-0.347535	0.131404
C80	C	1.304574	-0.014201	0.464738
C81	C	1.637907	0.319132	0.798071
C82	C	0.919110	-0.391237	0.183504
C83	C	1.252444	-0.057904	0.516838
C84	C	1.585777	0.275429	0.850171
C85	C	0.870883	-0.347529	0.231689
C86	C	1.204216	-0.014196	0.565023
C87	C	1.537550	0.319137	0.898356
C88	C	0.874791	-0.260125	0.227772
C89	C	1.208124	0.073209	0.561105
C90	C	1.541457	0.406542	0.894439
C91	C	0.902039	-0.652644	0.200593
C92	C	1.235372	-0.319311	0.533926
C93	C	1.568705	0.014023	0.867260
C94	C	0.898136	-0.740055	0.204508
C95	C	1.231470	-0.406721	0.537842
C96	C	1.564803	-0.073388	0.871175
C97	C	0.998493	-0.740054	0.104222
C98	C	1.331827	-0.406721	0.437555
C99	C	1.665160	-0.073387	0.770888
C100	C	1.002400	-0.652648	0.100313
C101	C	1.335733	-0.319315	0.433646
C102	C	1.669067	0.014019	0.766979
C103	C	0.954169	-0.608948	0.148494
C104	C	1.287503	-0.275614	0.481828
C105	C	1.620836	0.057719	0.815161
N106	N	0.915113	-0.480580	0.187507
N107	N	1.248446	-0.147247	0.520840
N108	N	1.581780	0.186086	0.854174
N109	N	0.958163	-0.519606	0.144487
N110	N	1.291497	-0.186273	0.477821
N111	N	1.624830	0.147061	0.811154
C112	C	1.080201	-0.000105	0.169275
C113	C	1.413534	0.333228	0.502608
C114	C	1.746867	0.666561	0.835942
C115	C	1.167685	-0.000109	0.176304
C116	C	1.501018	0.333224	0.509637
C117	C	1.834352	0.666558	0.842970
C118	C	0.933370	-0.000098	0.022443
C119	C	1.266703	0.333236	0.355776
C120	C	1.600036	0.666569	0.689110
C121	C	0.926341	-0.000097	-0.065042
C122	C	1.259674	0.333237	0.268292
C123	C	1.593007	0.666570	0.601625
N124	N	0.946358	0.216243	0.156325
N125	N	1.279692	0.549577	0.489659
N126	N	1.613025	0.882910	0.822992
C127	C	0.994158	-0.000105	-0.111032
C128	C	1.327492	0.333228	0.222301
C129	C	1.660825	0.666562	0.555634
C130	C	0.987550	-0.000096	-0.193233
C131	C	1.320883	0.333237	0.140100
C132	C	1.654216	0.666570	0.473433
C133	C	0.913123	-0.000086	-0.229442
C134	C	1.246456	0.333248	0.103891
C135	C	1.579789	0.666581	0.437225
C136	C	0.845300	-0.000075	-0.183446
C137	C	1.178633	0.333258	0.149888
C138	C	1.511967	0.666592	0.483221
C139	C	0.851910	-0.000078	-0.101246
C140	C	1.185243	0.333256	0.232087
C141	C	1.518576	0.666589	0.565420
C142	C	0.885729	-0.000071	-0.474757
C143	C	1.219062	0.333262	-0.141424
C144	C	1.552395	0.666596	0.191910
C145	C	0.879124	-0.000071	-0.556962
C146	C	1.212458	0.333262	-0.223629
C147	C	1.545791	0.666596	0.109704
C148	C	1.021375	-0.000091	-0.566745
C149	C	1.354708	0.333242	-0.233411
C150	C	1.688041	0.666576	0.099922
C151	C	1.027978	-0.000099	-0.484543
C152	C	1.361311	0.333235	-0.151210
C153	C	1.694644	0.666568	0.182124
C154	C	0.960155	-0.000083	-0.438554
C155	C	1.293488	0.333250	-0.105221
C156	C	1.626822	0.666583	0.228113
N157	N	0.906366	-0.000079	-0.313465
N158	N	1.239699	0.333254	0.019869
N159	N	1.573032	0.666587	0.353202
N160	N	0.966913	-0.000084	-0.354533
N161	N	1.300246	0.333250	-0.021200
N162	N	1.633580	0.666583	0.312134
C163	C	0.939913	-0.000084	0.309563
C164	C	1.273246	0.333250	0.642896
C165	C	1.606579	0.666583	0.976229
C166	C	0.946942	-0.000079	0.397047
C167	C	1.280275	0.333254	0.730380
C168	C	1.613608	0.666588	1.063714
H169	H	0.689081	-0.000056	0.284126
H170	H	1.022415	0.333278	0.617459
H171	H	1.355748	0.666611	0.950793
H172	H	0.828433	-0.383117	0.274107
H173	H	1.161767	-0.049784	0.607441
H174	H	1.495100	0.283550	0.940774
Br175	Br	0.836587	-0.593341	0.265982
Br176	Br	1.169920	-0.260008	0.599315
Br177	Br	1.503254	0.073326	0.932649
H178	H	0.706838	-0.000087	0.026046
H179	H	1.040171	0.333247	0.359379
H180	H	1.373505	0.666580	0.692712
H181	H	0.784700	-0.000061	-0.212933
H182	H	1.118033	0.333273	0.120400
H183	H	1.451367	0.666606	0.453733
Br184	Br	0.164535	-0.000142	0.007472
Br185	Br	0.497868	0.333191	0.340805
Br186	Br	0.831202	0.666524	0.674138
Br187	Br	0.809338	-0.200815	0.293161
Br188	Br	1.142671	0.132519	0.626494
Br189	Br	1.476004	0.465852	0.959827
H190	H	1.088584	-0.000108	-0.455068
H191	H	1.421917	0.333226	-0.121735
H192	H	1.755251	0.666559	0.211599
H193	H	1.054765	-0.000119	-0.081557
H194	H	1.388098	0.333214	0.251776
H195	H	1.721431	0.666548	0.585109
Br196	Br	1.079593	-0.000107	-0.255647
Br197	Br	1.412926	0.333226	0.077687
Br198	Br	1.746259	0.666559	0.411020
Br199	Br	1.113414	-0.000111	-0.629162
Br200	Br	1.446747	0.333222	-0.295828
Br201	Br	1.780081	0.666555	0.037505
H202	H	1.044848	-0.617067	0.057889
H203	H	1.378182	-0.283734	0.391222
H204	H	1.711515	0.049600	0.724555
H205	H	0.539963	-0.000072	0.272136
H206	H	0.873296	0.333261	0.605469
H207	H	1.206630	0.666595	0.938802
Br208	Br	1.045910	-0.200827	0.056787
Br209	Br	1.379243	0.132506	0.390120
Br210	Br	1.712576	0.465840	0.723453
Br211	Br	0.778109	-0.000065	-0.606102
Br212	Br	1.111442	0.333268	-0.272769
Br213	Br	1.444775	0.666602	0.060565
H214	H	0.830503	-0.000059	-0.437322
H215	H	1.163836	0.333274	-0.103989
H216	H	1.497169	0.666608	0.229344
H217	H	0.315571	-0.000071	0.317945
H218	H	0.648904	0.333263	0.651279
H219	H	0.982237	0.666596	0.984612
Br220	Br	0.759868	-0.000060	-0.038829
Br221	Br	1.093201	0.333274	0.294504
Br222	Br	1.426535	0.666607	0.627837
Br223	Br	0.358285	-0.000125	0.023045
Br224	Br	0.691618	0.333209	0.356378
Br225	Br	1.024952	0.666542	0.689711
H226	H	0.855683	-0.775633	0.246937
H227	H	1.189017	-0.442300	0.580271
H228	H	1.522350	-0.108967	0.913604
Br229	Br	0.538054	-0.000111	-0.026348
Br230	Br	0.871387	0.333222	0.306985
Br231	Br	1.204720	0.666555	0.640318
H232	H	1.010506	-0.383116	0.092170
H233	H	1.343840	-0.049783	0.425503
H234	H	1.677173	0.283550	0.758836
Br235	Br	1.063944	-0.799365	0.038834
Br236	Br	1.397278	-0.466031	0.372167
Br237	Br	1.730611	-0.132698	0.705501
H238	H	0.166440	-0.000092	0.305954
H239	H	0.499774	0.333241	0.639287
H240	H	0.833107	0.666574	0.972621
