data_functionalizedCrystal
_audit_creation_method	'MofGen! by Chris Wilmer'
_symmetry_space_group_name_H-M	'P1'
_symmetry_Int_Tables_number	1
_symmetry_cell_setting	triclinic
loop_
_symmetry_equiv_pos_as_xyz
  x,y,z
_cell_length_a	18.050591
_cell_length_b	18.050589
_cell_length_c	12.759387
_cell_angle_alpha	89.970013
_cell_angle_beta	89.971092
_cell_angle_gamma	90.024227
loop_
_atom_site_label
_atom_site_type_symbol
_atom_site_fract_x
_atom_site_fract_y
_atom_site_fract_z
Zn1	Zn	1.135351	-0.295699	-0.594246
Zn2	Zn	1.135244	-0.419908	-0.418569
Zn3	Zn	1.011153	-0.295728	-0.418557
Zn4	Zn	1.011118	-0.419843	-0.594183
O5	O	1.073217	-0.357795	-0.506389
O6	O	1.239262	-0.312191	-0.570974
O7	O	1.118753	-0.403474	-0.271547
O8	O	1.027687	-0.191799	-0.441885
O9	O	1.239183	-0.403447	-0.441905
O10	O	1.118935	-0.191779	-0.570963
O11	O	1.027584	-0.312240	-0.271538
O12	O	0.907224	-0.312177	-0.441823
O13	O	1.027628	-0.403336	-0.741212
O14	O	0.907198	-0.403364	-0.570854
O15	O	1.118901	-0.312128	-0.741259
O16	O	1.118720	-0.523824	-0.441843
O17	O	1.027525	-0.523777	-0.570865
C18	C	0.880265	-0.357767	-0.506331
C19	C	0.797719	-0.357773	-0.506331
C20	C	0.598261	-0.308128	-0.436325
C21	C	0.548838	-0.375868	-0.410478
C22	C	0.646588	-0.357796	-0.506378
C23	C	0.548929	-0.290079	-0.532223
C24	C	0.500603	-0.357811	-0.506422
C25	C	0.598253	-0.425571	-0.480481
C26	C	0.598349	-0.339737	-0.602271
C27	C	0.548949	-0.407523	-0.576460
C28	C	0.730687	-0.357786	-0.506350
C29	C	0.416507	-0.357829	-0.506450
C30	C	1.073127	-0.550747	-0.506371
C31	C	1.073157	-0.633293	-0.506399
C32	C	1.023614	-0.832744	-0.576537
C33	C	1.005506	-0.882191	-0.480665
C34	C	1.073230	-0.784423	-0.506413
C35	C	1.091373	-0.882058	-0.602296
C36	C	1.073299	-0.930408	-0.506435
C37	C	1.055087	-0.832782	-0.410490
C38	C	1.140985	-0.832645	-0.532186
C39	C	1.122904	-0.882069	-0.436248
C40	C	1.073188	-0.700325	-0.506402
C41	C	1.073341	-1.014505	-0.506435
C42	C	1.266922	-0.357823	-0.506448
C43	C	1.349468	-0.357835	-0.506473
C44	C	1.073273	-0.357722	-0.780423
C45	C	1.073297	-0.357691	-0.897199
C46	C	1.073327	-0.164089	-0.506429
C47	C	1.073374	-0.081543	-0.506447
C48	C	1.168346	-0.262722	-0.897268
C49	C	1.215881	-0.215227	-0.952163
C50	C	1.215899	-0.215200	-1.061885
C51	C	1.168376	-0.262672	-1.116714
C52	C	1.120841	-0.310167	-1.061819
C53	C	1.120829	-0.310191	-0.952094
C54	C	1.025789	-0.405131	-1.061750
C55	C	1.025773	-0.405163	-0.952028
C56	C	0.978265	-0.452603	-1.116579
C57	C	0.930733	-0.500103	-1.061684
C58	C	0.930717	-0.500129	-0.951956
C59	C	0.978238	-0.452658	-0.897133
C60	C	1.073204	-0.357814	-0.233421
C61	C	1.073324	-0.357635	-0.116645
H62	H	0.527223	-0.232814	-0.554029
H63	H	1.198239	-0.810868	-0.554011
O64	O	0.884646	-0.546304	-0.898514
C65	C	0.874578	-0.646630	-0.774655
C66	C	0.926835	-0.594371	-0.835090
H67	H	0.908667	-0.685516	-0.723379
H68	H	0.835775	-0.612578	-0.723203
H69	H	0.840599	-0.680518	-0.832708
H70	H	0.960861	-0.560471	-0.777113
H71	H	0.965589	-0.628466	-0.886558
O72	O	0.973387	-0.806934	-0.647065
C73	C	0.845239	-0.802939	-0.699584
C74	C	0.902040	-0.832205	-0.619631
H75	H	0.787545	-0.823371	-0.677445
H76	H	0.845988	-0.739785	-0.699446
H77	H	0.860149	-0.824038	-0.781106
H78	H	0.887170	-0.811161	-0.538070
H79	H	0.901281	-0.895357	-0.619860
H80	H	0.978233	-0.452678	-0.807792
O81	O	0.523240	-0.457591	-0.647278
C82	C	0.451164	-0.477671	-0.803623
C83	C	0.480244	-0.420889	-0.723517
H84	H	0.416383	-0.448022	-0.865270
H85	H	0.499939	-0.506405	-0.843225
H86	H	0.415598	-0.520639	-0.761626
H87	H	0.515798	-0.377876	-0.765435
H88	H	0.431435	-0.392211	-0.683919
O89	O	0.937240	-0.908283	-0.454631
C90	C	0.860971	-1.015832	-0.424680
C91	C	0.938323	-0.986387	-0.454140
H92	H	0.861817	-1.078982	-0.424294
H93	H	0.845102	-0.994773	-0.343498
H94	H	0.818709	-0.995530	-0.484516
H95	H	0.980636	-1.006676	-0.394374
H96	H	0.954128	-1.007440	-0.535348
H97	H	1.039702	-0.811227	-0.329389
O98	O	0.624062	-0.258156	-0.365438
C99	C	0.628062	-0.220745	-0.184269
C100	C	0.598809	-0.277396	-0.264434
H101	H	0.607645	-0.236271	-0.102593
H102	H	0.691216	-0.220827	-0.185348
H103	H	0.606941	-0.163158	-0.205538
H104	H	0.619876	-0.335009	-0.243221
H105	H	0.535656	-0.277248	-0.263340
O106	O	0.522736	-0.394073	-0.313831
C107	C	0.415156	-0.414968	-0.205878
C108	C	0.444632	-0.394400	-0.315391
H109	H	0.352006	-0.415223	-0.207097
H110	H	0.436198	-0.472308	-0.183160
H111	H	0.435452	-0.372543	-0.146276
H112	H	0.424349	-0.436775	-0.375066
H113	H	0.423596	-0.337041	-0.338020
H114	H	1.168343	-0.262746	-0.807927
H115	H	0.619830	-0.482861	-0.458549
H116	H	0.620112	-0.324430	-0.683322
H117	H	1.106692	-0.903703	-0.683375
H118	H	1.254573	-0.176575	-0.907509
O119	O	1.262143	-0.169039	-1.115053
C120	C	1.356389	-0.074813	-1.103554
C121	C	1.304070	-0.127063	-1.043212
H122	H	1.390289	-0.040850	-1.045497
H123	H	1.395254	-0.108873	-1.154901
H124	H	1.322311	-0.035996	-1.154950
H125	H	1.338088	-0.165890	-0.991759
H126	H	1.265202	-0.092957	-0.991931
H127	H	1.164892	-0.903591	-0.376887
O128	O	1.168504	-0.262570	-1.223297
C129	C	1.220640	-0.210383	-1.380790
C130	C	1.220584	-0.210434	-1.260086
H131	H	1.262731	-0.168225	-1.410571
H132	H	1.236060	-0.267867	-1.410635
H133	H	1.163122	-0.194985	-1.410525
H134	H	1.278084	-0.225801	-1.230262
H135	H	1.205122	-0.152944	-1.230312
H136	H	0.978280	-0.452575	-1.205920
O137	O	0.884643	-0.546188	-1.115106
C138	C	0.842506	-0.588194	-1.284114
C139	C	0.894752	-0.535976	-1.223741
H140	H	0.850650	-0.579944	-1.371956
H141	H	0.855508	-0.648103	-1.262618
H142	H	0.782637	-0.575155	-1.262451
H143	H	0.954639	-0.548948	-1.245371
H144	H	0.881686	-0.476082	-1.245242
