data_functionalizedCrystal
_audit_creation_method	'MofGen! by Chris Wilmer'
_symmetry_space_group_name_H-M	'P1'
_symmetry_Int_Tables_number	1
_symmetry_cell_setting	triclinic
loop_
_symmetry_equiv_pos_as_xyz
  x,y,z
_cell_length_a	19.805407
_cell_length_b	18.050590
_cell_length_c	19.805399
_cell_angle_alpha	89.972574
_cell_angle_beta	89.979591
_cell_angle_gamma	90.020493
loop_
_atom_site_label
_atom_site_type_symbol
_atom_site_fract_x
_atom_site_fract_y
_atom_site_fract_z
Zn1	Zn	1.034773	-0.295638	-0.382736
Zn2	Zn	1.034703	-0.419830	-0.269548
Zn3	Zn	0.921587	-0.295663	-0.269558
Zn4	Zn	0.921566	-0.419795	-0.382693
O5	O	0.978157	-0.357732	-0.326134
O6	O	1.129480	-0.312117	-0.367734
O7	O	1.019678	-0.403384	-0.174832
O8	O	0.936639	-0.191735	-0.284594
O9	O	1.129429	-0.403360	-0.284576
O10	O	1.019796	-0.191717	-0.367745
O11	O	0.936572	-0.312159	-0.174840
O12	O	0.826868	-0.312125	-0.284553
O13	O	0.936604	-0.403300	-0.477415
O14	O	0.826853	-0.403324	-0.367672
O15	O	1.019776	-0.312083	-0.477446
O16	O	1.019657	-0.523750	-0.284534
O17	O	0.936536	-0.523724	-0.367661
C18	C	0.802301	-0.357724	-0.326109
C19	C	0.727069	-0.357739	-0.326115
C20	C	0.265308	-0.310310	-0.369527
C21	C	0.335997	-0.310311	-0.369522
C22	C	0.371308	-0.357743	-0.326155
C23	C	0.335926	-0.405181	-0.282796
C24	C	0.265239	-0.405183	-0.282805
C25	C	0.621000	-0.405176	-0.282760
C26	C	0.691692	-0.405169	-0.282753
C27	C	0.691757	-0.310304	-0.369477
C28	C	0.621070	-0.310306	-0.369486
C29	C	0.585695	-0.357747	-0.326129
C30	C	0.509047	-0.357746	-0.326136
C31	C	0.447955	-0.357741	-0.326145
C32	C	0.978105	-0.550684	-0.326107
C33	C	0.978145	-0.633230	-0.326118
C34	C	1.023440	-0.832667	-0.280976
C35	C	1.039973	-0.882000	-0.342751
C36	C	0.978183	-0.784360	-0.326145
C37	C	0.961720	-0.882108	-0.264397
C38	C	0.978222	-0.930345	-0.326165
C39	C	0.994748	-0.832606	-0.387952
C40	C	0.916466	-0.832709	-0.309557
C41	C	0.932975	-0.882020	-0.371374
C42	C	0.978163	-0.700262	-0.326132
C43	C	0.978242	-1.014441	-0.326185
C44	C	1.154700	-0.357740	-0.326158
C45	C	1.229932	-0.357743	-0.326169
C46	C	0.978195	-0.357685	-0.502676
C47	C	0.978211	-0.357665	-0.577908
C48	C	0.978228	-0.164026	-0.326175
C49	C	0.978258	-0.081480	-0.326193
C50	C	1.021520	-0.310166	-0.613270
C51	C	1.021527	-0.310144	-0.683958
C52	C	0.978228	-0.357626	-0.719284
C53	C	0.934915	-0.405128	-0.683917
C54	C	0.934905	-0.405145	-0.613230
C55	C	0.934953	-0.405058	-0.968991
C56	C	0.934968	-0.405039	-1.039683
C57	C	1.021575	-0.310058	-1.039719
C58	C	1.021565	-0.310075	-0.969032
C59	C	0.978250	-0.357573	-0.933672
C60	C	0.978242	-0.357595	-0.857023
C61	C	0.978239	-0.357609	-0.795931
C62	C	0.978158	-0.357725	-0.150278
C63	C	0.978273	-0.357535	-0.075046
H64	H	0.364797	-0.271689	-0.404830
N65	N	0.850994	-0.805518	-0.291903
N66	N	0.843840	-0.765042	-0.241213
H67	H	0.797600	-0.745837	-0.228736
H68	H	1.056781	-0.271502	-0.584513
H69	H	0.947779	-0.903852	-0.212170
N70	N	0.229232	-0.261870	-0.413827
N71	N	0.166119	-0.261877	-0.413832
H72	H	0.140641	-0.227667	-0.445122
H73	H	0.592324	-0.271679	-0.404797
N74	N	0.884985	-0.909049	-0.419352
N75	N	0.876893	-0.977232	-0.426833
H76	H	0.843000	-0.996322	-0.460717
H77	H	0.899693	-0.443745	-0.940209
N78	N	1.065770	-0.261620	-0.720069
N79	N	1.104430	-0.219233	-0.688520
H80	H	1.135679	-0.184960	-0.714022
N81	N	1.012332	-0.805453	-0.453487
N82	N	1.068153	-0.821755	-0.478914
H83	H	1.080576	-0.802578	-0.525196
N84	N	1.105470	-0.909179	-0.360345
N85	N	1.152365	-0.864735	-0.372409
H86	H	1.198625	-0.883934	-0.384820
N87	N	1.065803	-0.261574	-0.932959
N88	N	1.104469	-0.219166	-0.964541
H89	H	1.135713	-0.184909	-0.939066
N90	N	0.890684	-0.453619	-0.720010
N91	N	0.890698	-0.453598	-0.783123
H92	H	0.859460	-0.487847	-0.808613
H93	H	1.056843	-0.271379	-1.068518
N94	N	0.890729	-0.453545	-1.075758
N95	N	0.852056	-0.495948	-1.044179
H96	H	0.820813	-0.530204	-1.069657
N97	N	0.890657	-0.453664	-0.577117
N98	N	0.851999	-0.496054	-0.608664
H99	H	0.820744	-0.530320	-0.583160
N100	N	0.727894	-0.261837	-0.413761
N101	N	0.767339	-0.214478	-0.390016
H102	H	0.792859	-0.180246	-0.421289
N103	N	0.727752	-0.453624	-0.238446
N104	N	0.696160	-0.495977	-0.199738
H105	H	0.721626	-0.530196	-0.168446
H106	H	0.592206	-0.443803	-0.247454
H107	H	0.364682	-0.443804	-0.247489
H108	H	0.236436	-0.443810	-0.247500
H109	H	1.061725	-0.810997	-0.242818
