data_functionalizedCrystal
_audit_creation_method	'MofGen! by Chris Wilmer'
_symmetry_space_group_name_H-M	'P1'
_symmetry_Int_Tables_number	1
_symmetry_cell_setting	triclinic
loop_
_symmetry_equiv_pos_as_xyz
  x,y,z
_cell_length_a	16.109301
_cell_length_b	15.186229
_cell_length_c	9.065215
_cell_angle_alpha	90.002790
_cell_angle_beta	84.238089
_cell_angle_gamma	90.000638
loop_
_atom_site_label
_atom_site_type_symbol
_atom_site_fract_x
_atom_site_fract_y
_atom_site_fract_z
O1	O	1.104586	0.073171	0.189629
O2	O	0.862706	0.073185	0.213228
O3	O	0.988647	0.073174	-0.013335
O4	O	0.978645	0.073182	0.416192
O5	O	0.988638	-0.073283	-0.013339
O6	O	0.862697	-0.073272	0.213224
O7	O	1.104578	-0.073286	0.189625
Zn8	Zn	0.983636	-0.096533	0.201424
Zn9	Zn	0.983647	0.096431	0.201429
O10	O	0.978637	-0.073275	0.416189
C11	C	0.831719	-0.000042	0.212270
C12	C	0.739402	-0.000037	0.209404
C13	C	0.518110	-0.000045	0.337178
C14	C	0.431369	-0.000050	0.334474
C15	C	0.449180	-0.000052	0.065665
C16	C	0.535919	-0.000052	0.068370
C17	C	0.570382	-0.000044	0.204132
C18	C	0.396901	-0.000049	0.198721
C19	C	0.302853	-0.000056	0.195788
C20	C	0.664437	-0.000040	0.207066
N21	N	0.983635	-0.228225	0.201421
C22	C	1.039421	-0.453953	0.101132
C23	C	1.039423	-0.546143	0.101129
C24	C	0.927863	-0.546142	0.301714
C25	C	0.927857	-0.453954	0.301709
C26	C	0.983641	-0.407862	0.201420
C27	C	0.983649	-0.592240	0.201421
C28	C	0.983652	-0.692196	0.201418
C29	C	0.983638	-0.307899	0.201421
C30	C	1.135564	-0.000057	0.190583
C31	C	1.227882	-0.000057	0.193449
C32	C	0.987682	-0.000054	-0.068301
C33	C	0.984810	-0.000051	-0.232074
N34	N	0.983656	0.228124	0.201421
C35	C	0.979602	-0.000046	0.471154
C36	C	0.982474	-0.000043	0.634927
H37	H	0.421109	-0.000064	-0.044868
H38	H	0.882430	-0.416424	0.383376
H39	H	0.578481	-0.000055	-0.039979
H40	H	1.084842	-0.416427	0.019469
H41	H	0.546167	-0.000045	0.447724
H42	H	1.084844	-0.583667	0.019464
H43	H	0.882447	-0.583679	0.383369
Cl44	Cl	0.365659	-0.000052	0.501741
