data_functionalizedCrystal
_audit_creation_method	'MofGen! by Chris Wilmer'
_symmetry_space_group_name_H-M	'P1'
_symmetry_Int_Tables_number	1
_symmetry_cell_setting	triclinic
loop_
_symmetry_equiv_pos_as_xyz
  x,y,z
_cell_length_a	34.490303
_cell_length_b	34.489386
_cell_length_c	34.485816
_cell_angle_alpha	60.004462
_cell_angle_beta	60.008900
_cell_angle_gamma	59.994399
loop_
_atom_site_label
_atom_site_type_symbol
_atom_site_fract_x
_atom_site_fract_y
_atom_site_fract_z
O1	O	0.053846	-0.566517	0.473678
O2	O	0.020329	-0.441078	0.381663
O3	O	0.099768	-0.520436	0.381578
O4	O	-0.025592	-0.487159	0.473762
O5	O	0.126127	-0.494082	0.407849
O6	O	0.046689	-0.414724	0.407933
O7	O	0.080206	-0.540163	0.499949
Zn8	Zn	0.067632	-0.473259	0.458112
Zn9	Zn	0.032903	-0.507982	0.423499
O10	O	0.000767	-0.460805	0.500033
N11	N	0.091336	-0.449565	0.481736
N12	N	0.009203	-0.531680	0.399875
C13	C	0.142510	-0.268211	0.532817
C14	C	0.142641	-0.398441	0.662987
C15	C	0.142524	-0.398421	0.532817
C16	C	0.272762	-0.398394	0.532723
C17	C	0.156853	-0.311177	0.547124
C18	C	0.156928	-0.384109	0.620020
C19	C	0.229794	-0.384081	0.547073
C20	C	0.156863	-0.384097	0.547124
C21	C	0.124253	-0.213522	0.514606
C22	C	0.124277	-0.416652	0.514606
C23	C	0.175110	-0.365866	0.565335
C24	C	0.352285	-0.384669	0.490824
C25	C	0.401998	-0.401229	0.474223
C26	C	0.402027	-0.481671	0.504898
C27	C	0.352316	-0.465109	0.521500
C28	C	0.136220	-0.188652	0.465734
C29	C	0.119621	-0.138936	0.449181
C30	C	0.079092	-0.138961	0.530374
C31	C	0.095691	-0.188678	0.546927
C32	C	0.075398	-0.404656	0.526651
C33	C	0.058814	-0.421229	0.510091
C34	C	0.139984	-0.461794	0.469452
C35	C	0.156570	-0.445221	0.486007
C36	C	0.075593	-0.404694	0.742565
C37	C	0.059066	-0.421281	0.792280
C38	C	0.140274	-0.461856	0.792215
C39	C	0.156800	-0.445269	0.742499
C40	C	0.124458	-0.416687	0.717675
C41	C	0.327446	-0.416608	0.514460
C42	C	-0.023585	-0.564792	0.161919
C43	C	-0.023910	-0.769260	0.366530
C44	C	-0.023880	-0.564780	0.366623
C45	C	-0.228325	-0.564561	0.366222
C46	C	-0.129610	-0.597564	0.333467
C47	C	-0.056729	-0.597644	0.333613
C48	C	-0.074925	-0.615849	0.315324
C49	C	-0.088689	-0.695351	0.357144
C50	C	-0.072155	-0.745068	0.373736
C51	C	0.008283	-0.745150	0.343188
C52	C	-0.008252	-0.695435	0.326596
C53	C	-0.154529	-0.609541	0.382326
C54	C	-0.204241	-0.592916	0.398818
C55	C	-0.204114	-0.552341	0.317588
C56	C	-0.154401	-0.568966	0.301096
C57	C	-0.068707	-0.548770	0.321590
C58	C	-0.052166	-0.532225	0.338221
C59	C	-0.011669	-0.613425	0.378886
C60	C	-0.028210	-0.629972	0.362261
C61	C	-0.068581	-0.548777	0.235758
C62	C	-0.051939	-0.532234	0.186043
C63	C	-0.011379	-0.613438	0.186090
C64	C	-0.028020	-0.629981	0.235806
C65	C	-0.056622	-0.597649	0.260639
C66	C	-0.056739	-0.670537	0.333576
C67	C	-0.005614	-0.545951	0.107238
C68	C	-0.006360	-0.823943	0.385033
C69	C	-0.005995	-0.545937	0.384582
C70	C	-0.283006	-0.545971	0.383725
N71	N	0.426163	-0.449489	0.481488
O72	O	0.588601	-0.457377	0.364497
O73	O	0.588789	-0.549696	0.489801
O74	O	0.588709	-0.549485	0.410335
O75	O	0.588681	-0.457588	0.443963
O76	O	0.509731	-0.523223	0.436741
O77	O	0.509811	-0.523434	0.516207
O78	O	0.509624	-0.431115	0.390903
Zn79	Zn	0.497178	-0.473105	0.457747
Zn80	Zn	0.601234	-0.507706	0.422956
O81	O	0.509704	-0.431326	0.470368
N82	N	0.672250	-0.531322	0.399211
N83	N	0.091303	-0.114798	0.481730
O84	O	-0.025603	0.047729	0.473733
O85	O	0.099703	0.047764	0.381394
O86	O	0.020199	0.047731	0.381655
O87	O	0.053901	0.047761	0.473472
O88	O	0.046564	-0.031252	0.407974
O89	O	0.126068	-0.031219	0.407713
O90	O	0.000762	-0.031254	0.500052
Zn91	Zn	0.067601	-0.043777	0.458061
Zn92	Zn	0.032864	0.060287	0.423385
O93	O	0.080266	-0.031222	0.499791
N94	N	0.009156	0.131307	0.399717
N95	N	0.091635	-0.449614	0.816396
O96	O	0.083664	-0.566502	0.978913
O97	O	-0.008637	-0.441152	0.978954
O98	O	-0.008421	-0.520640	0.978930
O99	O	0.083448	-0.487013	0.978936
O100	O	0.017877	-0.494296	0.899950
O101	O	0.017661	-0.414807	0.899974
O102	O	0.109961	-0.540157	0.899933
Zn103	Zn	0.067986	-0.473299	0.887414
Zn104	Zn	0.033338	-0.508010	0.991473
O105	O	0.109746	-0.460669	0.899956
N106	N	0.009689	-0.531700	1.062491
C107	C	0.030367	-0.412095	0.382120
C108	C	0.128741	-0.510370	0.382016
C109	C	0.070168	-0.569147	0.499490
C110	C	-0.028207	-0.470871	0.499595
C111	C	0.549323	-0.549278	0.518791
C112	C	0.549225	-0.549017	0.420381
C113	C	0.549087	-0.431532	0.361914
C114	C	0.549188	-0.431794	0.460322
C115	C	0.128638	0.008374	0.381806
C116	C	0.030215	0.008236	0.382161
C117	C	-0.028206	0.008233	0.499608
C118	C	0.070250	0.008272	0.499285
C119	C	-0.008199	-0.412187	0.939469
C120	C	-0.007927	-0.510619	0.939425
C121	C	0.109523	-0.569121	0.939417
C122	C	0.109257	-0.470684	0.939444
H123	H	0.019274	-0.411508	0.812539
O124	O	0.549469	-0.583868	0.561702
C125	C	0.590460	-0.634034	0.618854
C126	C	0.590359	-0.594868	0.570243
H127	H	0.623511	-0.642932	0.625780
H128	H	0.590512	-0.667151	0.618926
H129	H	0.557409	-0.620989	0.647862
H130	H	0.623405	-0.607868	0.541208
H131	H	0.590282	-0.561759	0.570212
O132	O	0.011337	-0.409522	0.521709
C133	C	-0.054530	-0.371297	0.493205
C134	C	-0.000759	-0.384516	0.479981
H135	H	-0.064325	-0.351086	0.459475
H136	H	-0.074785	-0.348009	0.516470
H137	H	-0.064282	-0.405046	0.513462
H138	H	0.009037	-0.350793	0.459706
H139	H	0.019466	-0.407823	0.456738
H140	H	0.138503	-0.605120	0.939399
O141	O	0.548998	-0.396893	0.319018
C142	C	0.548923	-0.316815	0.270373
C143	C	0.549013	-0.355998	0.318977
H144	H	0.548944	-0.283746	0.270321
H145	H	0.515845	-0.307835	0.263444
H146	H	0.581949	-0.329874	0.241357
H147	H	0.516008	-0.342972	0.348024
H148	H	0.582112	-0.364973	0.325865
O149	O	0.021680	0.008248	0.347686
C150	C	0.052706	0.008218	0.267687
C151	C	0.062432	0.008216	0.306684
H152	H	0.085651	0.008181	0.234531
H153	H	0.021625	0.041273	0.258794
H154	H	0.043649	-0.024836	0.280883
H155	H	0.071509	0.041247	0.293521
H156	H	0.093500	-0.024861	0.315571
O157	O	0.143646	-0.462017	0.939418
C158	C	0.165356	-0.405605	0.939454
C159	C	0.126372	-0.415353	0.939473
H160	H	0.151401	-0.367881	0.939509
H161	H	0.197759	-0.409815	0.906386
H162	H	0.175760	-0.431920	0.972492
H163	H	0.115928	-0.389047	0.906458
H164	H	0.093995	-0.411160	0.972563
H165	H	0.077468	0.008281	0.528131
O166	O	0.078779	-0.612168	0.533911
C167	C	0.135149	-0.690334	0.555750
C168	C	0.125457	-0.641638	0.516724
H169	H	0.172891	-0.714170	0.541872
H170	H	0.108866	-0.707485	0.566144
H171	H	0.130873	-0.685381	0.588142
H172	H	0.129739	-0.646549	0.484306
H173	H	0.151739	-0.624503	0.506370
H174	H	0.164551	0.008603	0.352745
H175	H	0.549182	-0.402927	0.467517
H176	H	-0.064192	0.008222	0.528596
O177	O	-0.042726	-0.369221	0.939504
C178	C	-0.064798	-0.290979	0.939498
C179	C	-0.025658	-0.339620	0.939470
H180	H	-0.051009	-0.267029	0.939460
H181	H	-0.097178	-0.295943	0.972562
H182	H	-0.075173	-0.273944	0.906456
H183	H	-0.015242	-0.356682	0.972489
H184	H	0.006697	-0.334625	0.906384
H185	H	0.049253	-0.381417	0.722357
H186	H	0.166612	-0.485121	0.812425
H187	H	-0.036776	-0.517804	0.939391
H188	H	0.049100	-0.381393	0.549936
O189	O	0.204286	-0.456946	0.718396
C190	C	0.283088	-0.498960	0.723582
C191	C	0.229325	-0.485764	0.750936
H192	H	0.303348	-0.522269	0.749878
H193	H	0.292878	-0.465233	0.700319
H194	H	0.292841	-0.519176	0.700291
H195	H	0.219533	-0.465560	0.774252
H196	H	0.219564	-0.519509	0.774168
O197	O	0.549153	-0.583416	0.411807
C198	C	0.508239	-0.606102	0.390918
C199	C	0.508255	-0.567109	0.400627
H200	H	0.475182	-0.592928	0.381867
H201	H	0.508262	-0.639284	0.423842
H202	H	0.541284	-0.614951	0.359820
H203	H	0.475216	-0.558219	0.431709
H204	H	0.508256	-0.533951	0.367679
O205	O	0.171420	-0.489528	0.441661
C206	C	0.253683	-0.528042	0.403125
C207	C	0.218136	-0.496623	0.434593
H208	H	0.291459	-0.533795	0.397410
H209	H	0.247957	-0.509826	0.367359
H210	H	0.247943	-0.563795	0.421340
H211	H	0.223854	-0.460864	0.416420
H212	H	0.223870	-0.514875	0.470358
O213	O	0.204035	-0.456812	0.474337
C214	C	0.265561	-0.449282	0.481858
C215	C	0.211795	-0.436110	0.495100
H216	H	0.271852	-0.432559	0.498648
H217	H	0.282306	-0.435533	0.441604
H218	H	0.282331	-0.489541	0.495547
H219	H	0.194985	-0.395856	0.481443
H220	H	0.195085	-0.449893	0.535356
O221	O	0.328262	-0.496198	0.544433
C222	C	0.333545	-0.577739	0.573129
C223	C	0.360844	-0.542579	0.547140
H224	H	0.359876	-0.615246	0.575334
H225	H	0.310259	-0.567800	0.552824
H226	H	0.310284	-0.576200	0.610502
H227	H	0.384131	-0.544099	0.509767
H228	H	0.384100	-0.552529	0.567481
H229	H	0.422274	-0.521162	0.510626
H230	H	-0.064213	-0.463781	0.528541
H231	H	0.422223	-0.375220	0.454977
O232	O	0.055399	-0.769319	0.336327
C233	C	0.134493	-0.784592	0.279561
C234	C	0.081149	-0.757200	0.287265
H235	H	0.155328	-0.774796	0.239897
H236	H	0.140852	-0.824393	0.295434
H237	H	0.146791	-0.774840	0.297656
H238	H	0.068814	-0.766912	0.269170
H239	H	0.074820	-0.717405	0.271404
O240	O	0.328178	-0.337535	0.483904
C241	C	0.312893	-0.258480	0.427055
C242	C	0.340230	-0.311843	0.434826
H243	H	0.322620	-0.237693	0.387377
H244	H	0.322694	-0.246104	0.445039
H245	H	0.273097	-0.252142	0.443001
H246	H	0.380032	-0.318222	0.418878
H247	H	0.330390	-0.324193	0.416853
O248	O	0.163894	-0.212762	0.434319
C249	C	0.170200	-0.227940	0.369996
C250	C	0.138806	-0.200612	0.405555
H251	H	0.149933	-0.218119	0.346725
H252	H	0.180000	-0.267751	0.390197
H253	H	0.203927	-0.218155	0.346720
H254	H	0.105060	-0.210357	0.428840
H255	H	0.129045	-0.160808	0.385324
O256	O	0.051407	-0.114880	0.561816
C257	C	0.045128	-0.099662	0.626099
C258	C	0.076528	-0.126969	0.590522
H259	H	0.065430	-0.109418	0.649311
H260	H	0.011413	-0.109463	0.649433
H261	H	0.035305	-0.059858	0.605865
H262	H	0.086387	-0.166779	0.610718
H263	H	0.110221	-0.117128	0.567189
O264	O	0.084163	-0.212874	0.594392
C265	C	0.112827	-0.268946	0.660171
C266	C	0.125942	-0.241589	0.606404
H267	H	0.146597	-0.292161	0.669901
H268	H	0.092614	-0.292275	0.670024
H269	H	0.089552	-0.242623	0.680398
H270	H	0.149231	-0.267877	0.586140
H271	H	0.146131	-0.218253	0.596588
H272	H	0.129365	-0.118686	0.409385
H273	H	0.164745	-0.517463	0.353068
H274	H	-0.061683	-0.492436	0.165791
H275	H	0.011902	-0.639768	0.165877
O276	O	-0.096336	-0.517303	0.259806
C277	C	-0.134817	-0.435013	0.254512
C278	C	-0.103379	-0.470602	0.227218
H279	H	-0.140530	-0.397247	0.228176
H280	H	-0.116642	-0.440726	0.277820
H281	H	-0.170584	-0.440723	0.277751
H282	H	-0.067607	-0.464913	0.203953
H283	H	-0.121592	-0.464879	0.203940
H284	H	-0.018278	-0.669778	0.256062
H285	H	-0.091926	-0.522444	0.298262
O286	O	-0.228272	-0.524573	0.286210
C287	C	-0.304802	-0.480949	0.275619
C288	C	-0.277503	-0.512404	0.311206
H289	H	-0.344610	-0.471092	0.295814
H290	H	-0.295043	-0.501183	0.252343
H291	H	-0.294957	-0.447253	0.252348
H292	H	-0.287333	-0.546104	0.334508
H293	H	-0.287264	-0.492134	0.334449
H294	H	-0.061921	-0.492427	0.328433
H295	H	0.011557	-0.639751	0.402207
H296	H	0.017768	-0.675232	0.307405
O297	O	-0.016595	-0.677457	0.374003
C298	C	-0.020505	-0.751899	0.437006
C299	C	-0.033681	-0.698134	0.423787
H300	H	-0.034321	-0.768632	0.477255
H301	H	0.019748	-0.768724	0.423376
H302	H	-0.037217	-0.758140	0.420164
H303	H	-0.017001	-0.691851	0.440624
H304	H	-0.073938	-0.681336	0.437407
O305	O	-0.103266	-0.769100	0.396695
C306	C	-0.184810	-0.763774	0.425349
C307	C	-0.149624	-0.736497	0.399314
H308	H	-0.222297	-0.737426	0.427466
H309	H	-0.183340	-0.786996	0.462753
H310	H	-0.174833	-0.787099	0.405071
H311	H	-0.159578	-0.713146	0.419552
H312	H	-0.151100	-0.713304	0.361908
H313	H	-0.134345	-0.632833	0.408685
O314	O	-0.135768	-0.671109	0.363833
C315	C	-0.195826	-0.614952	0.327076
C316	C	-0.142496	-0.642373	0.319438
H317	H	-0.201284	-0.591720	0.291189
H318	H	-0.209860	-0.591634	0.348908
H319	H	-0.215821	-0.641232	0.346790
H320	H	-0.122463	-0.616128	0.299711
H321	H	-0.128500	-0.665699	0.297626
O322	O	-0.228431	-0.604633	0.446287
C323	C	-0.243740	-0.667629	0.520745
C324	C	-0.216324	-0.654423	0.466993
H325	H	-0.233954	-0.707885	0.537503
H326	H	-0.283534	-0.650872	0.526997
H327	H	-0.234003	-0.653901	0.537533
H328	H	-0.226021	-0.668149	0.450169
H329	H	-0.176536	-0.671173	0.460774
O330	O	-0.130212	-0.557391	0.253627
C331	C	-0.114915	-0.561175	0.179132
C332	C	-0.142330	-0.574322	0.232885
H333	H	-0.124710	-0.574849	0.162345
H334	H	-0.075121	-0.577984	0.172879
H335	H	-0.124644	-0.520922	0.162374
H336	H	-0.132641	-0.614568	0.249679
H337	H	-0.182118	-0.557480	0.239104
O338	O	0.021741	-0.369089	0.347685
C339	C	-0.034612	-0.290906	0.325863
C340	C	-0.024910	-0.339591	0.364900
H341	H	-0.072325	-0.267040	0.339770
H342	H	-0.030398	-0.295816	0.293473
H343	H	-0.008279	-0.273808	0.315455
H344	H	-0.051235	-0.356716	0.375348
H345	H	-0.029108	-0.334649	0.397264
