data_functionalizedCrystal
_audit_creation_method	'MofGen! by Chris Wilmer'
_symmetry_space_group_name_H-M	'P1'
_symmetry_Int_Tables_number	1
_symmetry_cell_setting	triclinic
loop_
_symmetry_equiv_pos_as_xyz
  x,y,z
_cell_length_a	16.120490
_cell_length_b	18.050589
_cell_length_c	16.120256
_cell_angle_alpha	87.122724
_cell_angle_beta	90.129807
_cell_angle_gamma	92.872757
loop_
_atom_site_label
_atom_site_type_symbol
_atom_site_fract_x
_atom_site_fract_y
_atom_site_fract_z
Zn1	Zn	1.247363	0.376321	-0.534558
Zn2	Zn	1.747363	0.876321	-0.034558
Zn3	Zn	1.254288	0.494541	-0.395507
Zn4	Zn	1.754288	0.994541	0.104493
Zn5	Zn	1.115355	0.363761	-0.388478
Zn6	Zn	1.615355	0.863761	0.111522
Zn7	Zn	1.108243	0.493854	-0.527480
Zn8	Zn	1.608243	0.993854	-0.027480
O9	O	1.181312	0.432119	-0.461506
O10	O	1.681312	0.932119	0.038494
O11	O	1.364647	0.397547	-0.522016
O12	O	1.864647	0.897547	-0.022016
O13	O	1.241732	0.472224	-0.278208
O14	O	1.741732	0.972224	0.221792
O15	O	1.132945	0.261507	-0.407877
O16	O	1.632945	0.761507	0.092123
O17	O	1.369735	0.484403	-0.419856
O18	O	1.869735	0.984403	0.080144
O19	O	1.229930	0.270734	-0.515201
O20	O	1.729930	0.770734	-0.015201
O21	O	1.139660	0.376140	-0.273044
O22	O	1.639660	0.876140	0.226956
O23	O	0.998046	0.375474	-0.401013
O24	O	1.498046	0.875474	0.098987
O25	O	1.120823	0.483231	-0.644785
O26	O	1.620823	0.983231	-0.144785
O27	O	0.992821	0.471053	-0.503137
O28	O	1.492821	0.971053	-0.003137
O29	O	1.223034	0.396880	-0.649986
O30	O	1.723034	0.896880	-0.149986
O31	O	1.234836	0.598370	-0.412992
O32	O	1.734836	1.098370	0.087008
O33	O	1.127538	0.597865	-0.509953
O34	O	1.627538	1.097865	-0.009953
C35	C	0.965261	0.421826	-0.450545
C36	C	1.465261	0.921826	0.049455
C37	C	0.872833	0.417442	-0.445876
C38	C	1.372833	0.917442	0.054124
C39	C	0.659863	0.454857	-0.485728
C40	C	1.159863	0.954857	0.014272
C41	C	0.703610	0.409444	-0.437349
C42	C	1.203610	0.909444	0.062651
C43	C	0.797774	0.413895	-0.442095
C44	C	1.297774	0.913895	0.057905
C45	C	0.565690	0.450406	-0.480983
C46	C	1.065690	0.950406	0.019017
C47	C	1.181188	0.625065	-0.461486
C48	C	1.681188	1.125065	0.038514
C49	C	1.181210	0.707613	-0.461510
C50	C	1.681210	1.207613	0.038490
C51	C	1.122891	0.906816	-0.514219
C52	C	1.622891	1.406816	-0.014219
C53	C	1.106462	0.952035	-0.437314
C54	C	1.606462	1.452035	0.062686
C55	C	1.181272	0.858746	-0.461524
C56	C	1.681272	1.358746	0.038476
C57	C	1.197722	0.960611	-0.538440
C58	C	1.697722	1.460611	-0.038440
C59	C	1.181330	1.004735	-0.461545
C60	C	1.681330	1.504735	0.038455
C61	C	1.164805	0.902874	-0.384576
C62	C	1.664805	1.402874	0.115424
C63	C	1.256098	0.911450	-0.485756
C64	C	1.756098	1.411450	0.014244
C65	C	1.239700	0.956645	-0.408799
C66	C	1.739700	1.456645	0.091201
C67	C	1.181236	0.774646	-0.461513
C68	C	1.681236	1.274646	0.038487
C69	C	1.181366	1.088833	-0.461547
C70	C	1.681366	1.588833	0.038453
C71	C	1.398207	0.442452	-0.472510
C72	C	1.898207	0.942452	0.027490
C73	C	1.490634	0.446856	-0.477199
C74	C	1.990634	0.946856	0.022801
C75	C	1.170363	0.441380	-0.678402
C76	C	1.670363	0.941380	-0.178402
C77	C	1.165697	0.445327	-0.770830
C78	C	1.665697	0.945327	-0.270830
C79	C	1.181427	1.238420	-0.461544
C80	C	1.681427	1.738420	0.038456
C81	C	1.181394	1.155874	-0.461558
C82	C	1.681394	1.655874	0.038442
C83	C	1.205643	0.411519	-0.983811
C84	C	1.705643	0.911519	-0.483811
C85	C	1.157150	0.452500	-0.940050
C86	C	1.657150	0.952500	-0.440050
C87	C	1.161907	0.448507	-0.845887
C88	C	1.661907	0.948507	-0.345887
C89	C	1.200888	0.415511	-1.077982
C90	C	1.700888	0.915511	-0.577982
C91	C	1.192267	0.422843	-0.245456
C92	C	1.692267	0.922843	0.254544
C93	C	1.197094	0.418695	-0.153037
C94	C	1.697094	0.918695	0.346963
H95	H	0.693127	0.497076	-0.530705
H96	H	1.193127	0.997076	-0.030705
C97	C	1.115226	0.577447	-0.964914
C98	C	1.615226	1.077447	-0.464914
C99	C	1.096285	0.503922	-0.984929
C100	C	1.596285	1.003922	-0.484929
H101	H	1.077650	0.609192	-0.992617
H102	H	1.577650	1.109192	-0.492617
H103	H	1.170381	0.591555	-0.981946
H104	H	1.670381	1.091555	-0.481946
H105	H	1.110479	0.581459	-0.906603
H106	H	1.610479	1.081459	-0.406603
H107	H	1.101038	0.499908	-1.043239
H108	H	1.601038	0.999908	-0.543239
H109	H	1.041117	0.489810	-0.967901
H110	H	1.541117	0.989810	-0.467901
C111	C	0.717423	0.311318	-0.332803
C112	C	1.217423	0.811318	0.167197
C113	C	0.658709	0.352446	-0.376619
C114	C	1.158709	0.852446	0.123381
H115	H	0.689699	0.276131	-0.295315
H116	H	1.189699	0.776131	0.204685
H117	H	0.752889	0.343841	-0.302612
H118	H	1.252889	0.843841	0.197388
H119	H	0.749491	0.286079	-0.370768
H120	H	1.249491	0.786079	0.129232
H121	H	0.626645	0.377690	-0.338654
H122	H	1.126645	0.877690	0.161346
H123	H	0.623229	0.319918	-0.406812
H124	H	1.123229	0.819918	0.093188
H125	H	1.073463	0.884939	-0.558712
H126	H	1.573463	1.384939	-0.058712
H127	H	1.319331	0.893461	-0.506269
H128	H	1.819331	1.393461	-0.006269
H129	H	1.043212	0.970027	-0.416836
H130	H	1.543212	1.470027	0.083164
C131	C	1.259508	0.366074	-0.852981
C132	C	1.759508	0.866074	-0.352981
C133	C	1.266519	0.360120	-0.938925
C134	C	1.766519	0.860120	-0.438925
H135	H	1.297096	0.334348	-0.825266
H136	H	1.797096	0.834348	-0.325266
H137	H	1.204356	0.351946	-0.835958
H138	H	1.704356	0.851946	-0.335958
H139	H	1.272333	0.415967	-0.839433
H140	H	1.772333	0.915967	-0.339433
H141	H	1.253688	0.310228	-0.952474
H142	H	1.753688	0.810228	-0.452474
H143	H	1.321683	0.374244	-0.955955
H144	H	1.821683	0.874244	-0.455955
H145	H	1.289098	0.978378	-0.364191
H146	H	1.789098	1.478378	0.135809
C147	C	1.146048	0.791420	-0.297540
C148	C	1.646048	1.291420	0.202460
C149	C	1.145945	0.868949	-0.296747
C150	C	1.645945	1.368949	0.203253
H151	H	1.134398	0.770476	-0.243320
H152	H	1.634398	1.270476	0.256680
H153	H	1.199004	0.777225	-0.314819
H154	H	1.699004	1.277225	0.185181
H155	H	1.104802	0.773978	-0.335012
H156	H	1.604802	1.273978	0.164988
H157	H	1.187197	0.886391	-0.259280
H158	H	1.687197	1.386391	0.240720
H159	H	1.092982	0.883150	-0.279457
H160	H	1.592982	1.383150	0.220543
C161	C	1.155234	0.969478	-0.681295
C162	C	1.655234	1.469478	-0.181295
C163	C	1.216483	0.994656	-0.626239
C164	C	1.716483	1.494656	-0.126239
H165	H	1.166816	0.990491	-0.735499
H166	H	1.666816	1.490491	-0.235499
H167	H	1.102509	0.983995	-0.663729
H168	H	1.602509	1.483995	-0.163729
H169	H	1.154851	0.916871	-0.682005
H170	H	1.654851	1.416871	-0.182005
H171	H	1.216862	1.047264	-0.625525
H172	H	1.716862	1.547264	-0.125525
H173	H	1.269223	0.980144	-0.643810
H174	H	1.769223	1.480144	-0.143810
