data_functionalizedCrystal
_audit_creation_method	'MofGen! by Chris Wilmer'
_symmetry_space_group_name_H-M	'P1'
_symmetry_Int_Tables_number	1
_symmetry_cell_setting	triclinic
loop_
_symmetry_equiv_pos_as_xyz
  x,y,z
_cell_length_a	15.944551
_cell_length_b	17.699083
_cell_length_c	16.176319
_cell_angle_alpha	90.007696
_cell_angle_beta	89.997076
_cell_angle_gamma	96.609124
loop_
_atom_site_label
_atom_site_type_symbol
_atom_site_fract_x
_atom_site_fract_y
_atom_site_fract_z
O1	O	1.114322	-0.097616	-0.068662
O2	O	0.869747	-0.109651	-0.068683
O3	O	0.998945	0.006544	-0.068665
O4	O	0.985125	-0.213811	-0.068680
O5	O	0.998927	0.006551	0.068829
O6	O	0.869729	-0.109643	0.068810
O7	O	1.114304	-0.097609	0.068831
Cu8	Cu	0.992015	-0.103625	0.081375
Cu9	Cu	0.992036	-0.103634	-0.081227
O10	O	0.985107	-0.213803	0.068813
C11	C	0.838445	-0.109147	0.000061
C12	C	0.745203	-0.107650	0.000054
C13	C	0.998440	0.034746	0.000082
C14	C	0.996955	0.118766	0.000082
N15	N	0.992007	-0.103619	0.195740
C16	C	0.530505	-0.032046	0.000075
C17	C	0.469420	-0.067158	-0.067719
C18	C	0.574482	-0.104940	0.000063
C19	C	0.469424	-0.067168	0.067839
C20	C	0.409575	-0.102317	0.000077
C21	C	0.514625	-0.140071	-0.067786
C22	C	0.514636	-0.140071	0.067832
C23	C	0.453569	-0.175235	0.000022
C24	C	0.669481	-0.106449	0.000055
C25	C	0.314577	-0.100814	0.000079
C26	C	1.145606	-0.098112	0.000085
C27	C	1.238849	-0.099610	0.000088
C28	C	0.985611	-0.242005	0.000064
C29	C	0.987097	-0.326026	0.000059
C30	C	1.072791	0.167258	0.000090
C31	C	1.071390	0.246203	0.000083
C32	C	0.994152	0.276656	0.000073
C33	C	0.918310	0.228158	0.000063
C34	C	0.919712	0.149214	0.000065
C35	C	0.912656	0.546531	0.000056
C36	C	0.911260	0.625481	0.000057
C37	C	1.064334	0.643520	0.000074
C38	C	1.065735	0.564576	0.000075
C39	C	0.989894	0.516085	0.000061
C40	C	0.991414	0.430484	0.000067
C41	C	0.992632	0.362256	0.000073
N42	N	0.992052	-0.103635	-0.195592
C43	C	1.049232	-0.052189	0.239013
C44	C	1.049237	-0.052188	0.325560
C45	C	0.992019	-0.103621	0.368833
C46	C	0.934787	-0.155054	0.325554
C47	C	0.934779	-0.155050	0.239009
C48	C	0.934815	-0.155068	0.674583
C49	C	0.934829	-0.155069	0.761134
C50	C	1.049273	-0.052205	0.761133
C51	C	1.049265	-0.052202	0.674588
C52	C	0.992031	-0.103631	0.631317
C53	C	0.992026	-0.103631	0.537473
C54	C	0.992027	-0.103626	0.462675
H55	H	0.563965	0.028449	-0.000005
O56	O	0.843207	0.257612	0.000015
C57	C	0.691521	0.231381	0.000045
C58	C	0.776517	0.197926	0.000078
H59	H	0.637580	0.183141	0.000113
H60	H	0.686990	0.267855	-0.057510
H61	H	0.687074	0.267922	0.057571
H62	H	0.781022	0.161351	-0.057409
H63	H	0.781012	0.161495	0.057671
O64	O	0.846068	0.102075	-0.000087
C65	C	0.758846	0.002433	-0.071305
C66	C	0.842272	0.055786	-0.071241
H67	H	0.755758	-0.035017	-0.128818
H68	H	0.703367	0.037719	-0.071364
H69	H	0.755678	-0.034938	-0.013739
H70	H	0.845523	0.093167	-0.128797
H71	H	0.897712	0.020455	-0.071139
O72	O	1.104847	-0.002152	0.197109
C73	C	1.218395	0.099850	0.206252
C74	C	1.155445	0.043234	0.253808
H75	H	1.259332	0.136549	0.252073
H76	H	1.182252	0.137736	0.165769
H77	H	1.260246	0.067136	0.165699
H78	H	1.113579	0.075886	0.294406
H79	H	1.191640	0.005348	0.294239
H80	H	1.126087	0.683011	0.000081
H81	H	0.534556	-0.170882	-0.125163
O82	O	0.445563	-0.030262	-0.136028
C83	C	0.458082	0.086891	-0.213286
C84	C	0.485148	0.045198	-0.135888
H85	H	0.490087	0.147903	-0.213207
H86	H	0.386629	0.087248	-0.212938
H87	H	0.477537	0.056364	-0.271048
H88	H	0.465750	0.075692	-0.078084
H89	H	0.556598	0.044834	-0.136308
H90	H	0.848360	0.650272	0.000051
H91	H	0.850901	0.507059	0.000045
H92	H	0.420283	-0.235793	-0.000021
H93	H	0.534696	-0.170873	0.125145
H94	H	0.449396	-0.036320	0.125151
O95	O	1.147895	0.137805	0.000060
C96	C	1.299580	0.164039	0.000115
C97	C	1.214583	0.197492	0.000134
H98	H	1.353520	0.212280	0.000192
H99	H	1.304127	0.127552	-0.057439
H100	H	1.304015	0.127511	0.057642
H101	H	1.210092	0.234054	-0.057354
H102	H	1.210073	0.233935	0.057727
O103	O	1.145037	0.293336	-0.000057
C104	C	1.232293	0.392950	-0.071263
C105	C	1.148861	0.339606	-0.071214
H106	H	1.235404	0.430384	-0.128778
H107	H	1.287767	0.357658	-0.071305
H108	H	1.235449	0.430337	-0.013699
H109	H	1.145623	0.302208	-0.128767
H110	H	1.093427	0.374943	-0.071128
O111	O	1.104716	-0.002155	0.367627
C112	C	1.122843	0.101176	0.465383
C113	C	1.059916	0.044565	0.417783
H114	H	1.086648	0.138953	0.505960
H115	H	1.163727	0.137985	0.419621
H116	H	1.164751	0.068456	0.505853
H117	H	1.017954	0.077224	0.377313
H118	H	1.019092	0.007757	0.463591
O119	O	0.879170	-0.204912	0.367681
C120	C	0.764407	-0.220957	0.465373
C121	C	0.827357	-0.164408	0.417733
H122	H	0.722488	-0.188233	0.505838
H123	H	0.800550	-0.258781	0.505933
H124	H	0.723540	-0.257731	0.419563
H125	H	0.868240	-0.127585	0.463484
H126	H	0.791163	-0.126637	0.377160
O127	O	1.140838	0.535121	0.000047
C128	C	1.292524	0.561348	0.000106
C129	C	1.207529	0.594805	0.000123
H130	H	1.346467	0.609585	0.000185
H131	H	1.297070	0.524860	-0.057448
H132	H	1.296954	0.524819	0.057633
H133	H	1.203042	0.631367	-0.057366
H134	H	1.203020	0.631249	0.057715
O135	O	1.104878	-0.002166	0.632681
C136	C	1.218425	0.099838	0.641817
C137	C	1.155478	0.043222	0.689377
H138	H	1.259363	0.136539	0.687634
H139	H	1.182279	0.137723	0.601335
H140	H	1.260274	0.067124	0.601262
H141	H	1.113614	0.075874	0.729976
H142	H	1.191677	0.005338	0.729806
O143	O	0.879157	-0.205058	0.803043
C144	C	0.765661	-0.307108	0.793916
C145	C	0.828645	-0.250530	0.746352
H146	H	0.724817	-0.343897	0.748102
H147	H	0.723725	-0.274439	0.834426
H148	H	0.801861	-0.344911	0.834444
H149	H	0.792514	-0.212713	0.705780
H150	H	0.870580	-0.283246	0.705894
O151	O	0.879160	-0.205085	0.197100
C152	C	0.765610	-0.307085	0.206229
C153	C	0.828571	-0.250475	0.253792
H154	H	0.724680	-0.343787	0.252044
H155	H	0.801745	-0.344968	0.165719
H156	H	0.723755	-0.274365	0.165701
H157	H	0.870442	-0.283133	0.294364
H158	H	0.792384	-0.212593	0.294250
H159	H	1.095874	-0.010326	0.796374
H160	H	0.888215	-0.196945	0.639358
