data_functionalizedCrystal
_audit_creation_method	'MofGen! by Chris Wilmer'
_symmetry_space_group_name_H-M	'P1'
_symmetry_Int_Tables_number	1
_symmetry_cell_setting	triclinic
loop_
_symmetry_equiv_pos_as_xyz
  x,y,z
_cell_length_a	12.759401
_cell_length_b	12.759394
_cell_length_c	12.759393
_cell_angle_alpha	90.031178
_cell_angle_beta	90.018292
_cell_angle_gamma	90.014998
loop_
_atom_site_label
_atom_site_type_symbol
_atom_site_fract_x
_atom_site_fract_y
_atom_site_fract_z
Zn1	Zn	1.606252	-0.418212	0.593976
Zn2	Zn	1.606147	-0.593927	0.418294
Zn3	Zn	1.430555	-0.418263	0.418315
Zn4	Zn	1.430542	-0.593850	0.593935
O5	O	1.518374	-0.506063	0.506130
O6	O	1.753259	-0.441531	0.570679
O7	O	1.582815	-0.570679	0.271276
O8	O	1.453911	-0.271235	0.441643
O9	O	1.753182	-0.570629	0.441607
O10	O	1.582995	-0.271197	0.570700
O11	O	1.453809	-0.441619	0.271291
O12	O	1.283532	-0.441544	0.441604
O13	O	1.453890	-0.570497	0.740962
O14	O	1.283523	-0.570547	0.570631
O15	O	1.582983	-0.441456	0.740992
O16	O	1.582803	-0.740938	0.441567
O17	O	1.453787	-0.740881	0.570610
C18	C	1.245407	-0.506044	0.506116
C19	C	1.128630	-0.506061	0.506135
C20	C	1.518311	-0.779030	0.506105
C21	C	1.518380	-0.895807	0.506129
C22	C	1.073791	-0.573340	0.573208
C23	C	0.964067	-0.573353	0.573219
C24	C	0.964031	-0.438805	0.439075
C25	C	1.073753	-0.438787	0.439070
C26	C	1.073811	-0.651023	0.650652
C27	C	0.964087	-0.651037	0.650664
C28	C	1.652825	-0.895813	0.371857
C29	C	1.720075	-0.950677	0.304734
C30	C	1.720137	-1.060398	0.304762
C31	C	1.652943	-1.115259	0.371924
C32	C	1.585693	-1.060395	0.439047
C33	C	1.585637	-0.950671	0.439009
C34	C	1.451255	-1.060389	0.573323
C35	C	1.451187	-0.950667	0.573291
C36	C	1.384062	-1.115249	0.640484
C37	C	1.316805	-1.060386	0.707604
C38	C	1.316746	-0.950657	0.707572
C39	C	1.383937	-0.895804	0.640414
C40	C	1.792407	-0.506083	0.506145
C41	C	1.909184	-0.506092	0.506151
C42	C	1.518447	-0.505962	0.780164
C43	C	1.518478	-0.505919	0.896940
C44	C	1.518466	-0.232029	0.506179
C45	C	1.518505	-0.115253	0.506199
C46	C	1.518362	-0.506087	0.233163
C47	C	1.518535	-0.505834	0.116387
C48	C	1.585655	-0.573095	0.951792
C49	C	1.585686	-0.573050	1.061516
C50	C	1.451355	-0.438651	1.061528
C51	C	1.451329	-0.438691	0.951806
C52	C	1.663207	-0.650693	0.951785
C53	C	1.663238	-0.650648	1.061510
H54	H	0.919337	-0.384033	0.384474
N55	N	1.113308	-0.622279	0.758477
H56	H	1.157292	-0.681499	0.787145
H57	H	1.051739	-0.609441	0.806520
N58	N	1.634313	-0.758407	1.100928
H59	H	1.568679	-0.753705	1.144907
H60	H	1.693552	-0.787137	1.144861
N61	N	0.924606	-0.758785	0.621612
H62	H	0.986129	-0.806857	0.608631
H63	H	0.880573	-0.753953	0.556002
N64	N	1.652750	-0.777471	0.371820
H65	H	1.580669	-0.751125	0.352444
H66	H	1.705562	-0.751128	0.319097
H67	H	1.396636	-0.383982	0.907150
H68	H	1.774785	-0.906000	0.250053
H69	H	1.383888	-0.806463	0.640375
H70	H	1.118399	-0.383995	0.384459
N71	N	1.378918	-0.366160	1.120704
H72	H	1.389123	-0.376329	1.198536
H73	H	1.303879	-0.382528	1.101509
N74	N	1.792674	-1.119581	0.232374
H75	H	1.835233	-1.068183	0.189825
H76	H	1.749952	-1.165180	0.183735
H77	H	1.107825	-0.728275	0.621367
N78	N	0.919085	-0.612494	0.753110
H79	H	0.943522	-0.659355	0.812017
H80	H	0.840032	-0.613864	0.749311
N81	N	1.653018	-1.233600	0.371969
H82	H	1.705820	-1.260032	0.319260
H83	H	1.580936	-1.260026	0.352640
H84	H	1.384122	-1.204590	0.640507
H85	H	1.744578	-0.628920	0.922020
N86	N	1.624514	-0.753068	0.906671
H87	H	1.605844	-0.802506	0.965576
H88	H	1.681360	-0.785387	0.862081
N89	N	1.244345	-1.119553	0.780041
H90	H	1.254594	-1.197385	0.769878
H91	H	1.169306	-1.100456	0.763622
H92	H	1.740556	-0.621501	1.095551
H93	H	1.261987	-0.905993	0.762236
