data_functionalizedCrystal
_audit_creation_method	'MofGen! by Chris Wilmer'
_symmetry_space_group_name_H-M	'P1'
_symmetry_Int_Tables_number	1
_symmetry_cell_setting	triclinic
loop_
_symmetry_equiv_pos_as_xyz
  x,y,z
_cell_length_a	12.784905
_cell_length_b	8.559649
_cell_length_c	7.088929
_cell_angle_alpha	95.344185
_cell_angle_beta	95.547591
_cell_angle_gamma	108.557008
loop_
_atom_site_label
_atom_site_type_symbol
_atom_site_fract_x
_atom_site_fract_y
_atom_site_fract_z
O1	O	1.397104	-0.028261	-0.158878
O2	O	1.081998	-0.097477	-0.158904
O3	O	1.267312	0.173591	-0.158887
O4	O	1.211790	-0.299328	-0.158895
O5	O	1.292084	0.209891	0.159091
O6	O	1.106769	-0.061177	0.159074
O7	O	1.421876	0.008040	0.159099
Cu8	Cu	1.266584	-0.023254	0.188120
Cu9	Cu	1.237289	-0.066184	-0.187925
O10	O	1.236561	-0.263028	0.159082
C11	C	1.283905	0.251855	0.000099
C12	C	1.296429	0.430974	0.000089
C13	C	1.054416	-0.083829	0.000082
C14	C	0.935328	-0.097224	0.000072
C15	C	1.449457	-0.005609	0.000109
C16	C	1.568544	0.007784	0.000107
C17	C	1.742649	-0.265102	0.000060
C18	C	1.854541	-0.252525	0.000057
C19	C	1.904219	0.045511	0.000084
C20	C	1.792327	0.032934	0.000087
C21	C	1.711546	-0.122377	0.000078
C22	C	1.599654	-0.134950	0.000094
C23	C	1.649332	0.163083	0.000108
C24	C	1.761224	0.175659	0.000105
C25	C	1.219968	-0.341293	0.000092
C26	C	1.207443	-0.520413	0.000090
N27	N	1.287197	0.006942	0.452610
N28	N	1.216686	-0.096366	-0.452415
H29	H	1.533882	-0.261412	0.000097
O30	O	1.982611	0.196489	0.000326
C31	C	1.983248	0.302868	0.165036
H32	H	1.899230	0.257641	0.219964
H33	H	1.999252	0.434528	0.127991
H34	H	2.051775	0.302459	0.280337
H35	H	1.879859	-0.368746	0.000046
O36	O	1.105193	0.365542	-0.000013
C37	C	1.115030	0.206092	0.000023
H38	H	1.194288	0.204653	-0.060168
H39	H	1.039860	0.110500	-0.092307
H40	H	1.118896	0.174185	0.152568
O41	O	1.374342	0.134861	0.549810
C42	C	1.365980	0.286830	0.501082
H43	H	1.313263	0.264348	0.355705
H44	H	1.452716	0.376981	0.494420
H45	H	1.325204	0.342049	0.613713
H46	H	1.676877	-0.391560	0.000075
O47	O	1.398797	0.544618	-0.000152
C48	C	1.443660	0.504845	-0.164861
H49	H	1.402641	0.367019	-0.219781
H50	H	1.537196	0.533551	-0.127820
H51	H	1.427423	0.581803	-0.280168
O52	O	1.129627	-0.224156	0.449977
C53	C	1.170205	-0.328909	0.334212
H54	H	1.257238	-0.256141	0.304402
H55	H	1.112360	-0.376719	0.193381
H56	H	1.173831	-0.438572	0.411239
H57	H	1.827009	0.302108	0.000106
H58	H	1.623986	0.279283	-0.000030
