data_functionalizedCrystal
_audit_creation_method	'MofGen! by Chris Wilmer'
_symmetry_space_group_name_H-M	'P1'
_symmetry_Int_Tables_number	1
_symmetry_cell_setting	triclinic
loop_
_symmetry_equiv_pos_as_xyz
  x,y,z
_cell_length_a	12.759401
_cell_length_b	10.686285
_cell_length_c	12.759393
_cell_angle_alpha	85.603657
_cell_angle_beta	89.979541
_cell_angle_gamma	85.633237
loop_
_atom_site_label
_atom_site_type_symbol
_atom_site_fract_x
_atom_site_fract_y
_atom_site_fract_z
Zn1	Zn	1.638396	-0.502244	-0.562005
Zn2	Zn	2.138396	-0.002244	-0.062005
Zn3	Zn	1.651791	-0.713281	-0.372873
Zn4	Zn	2.151791	-0.213281	0.127127
Zn5	Zn	1.462701	-0.502309	-0.386336
Zn6	Zn	1.962701	-0.002309	0.113664
Zn7	Zn	1.476184	-0.713195	-0.548516
Zn8	Zn	1.976184	-0.213195	-0.048516
O9	O	1.557268	-0.607757	-0.467432
O10	O	2.057268	-0.107757	0.032568
O11	O	1.787195	-0.530247	-0.536927
O12	O	2.287195	-0.030247	-0.036927
O13	O	1.626671	-0.685358	-0.227634
O14	O	2.126671	-0.185358	0.272366
O15	O	1.474758	-0.325724	-0.420919
O16	O	1.974758	0.174276	0.079081
O17	O	1.797036	-0.685295	-0.397973
O18	O	2.297036	-0.185295	0.102027
O19	O	1.603841	-0.325677	-0.549982
O20	O	2.103841	0.174323	-0.049982
O21	O	1.487747	-0.530358	-0.237525
O22	O	1.987747	-0.030358	0.262475
O23	O	1.317468	-0.530274	-0.407839
O24	O	1.817468	-0.030274	0.092161
O25	O	1.497739	-0.685149	-0.697330
O26	O	1.997739	-0.185149	-0.197330
O27	O	1.327374	-0.685211	-0.526991
O28	O	1.827374	-0.185211	-0.026991
O29	O	1.616915	-0.530164	-0.707241
O30	O	2.116915	-0.030164	-0.207241
O31	O	1.639746	-0.889845	-0.384893
O32	O	2.139746	-0.389845	0.115107
O33	O	1.510728	-0.889782	-0.513936
O34	O	2.010728	-0.389782	-0.013936
C35	C	1.284300	-0.607742	-0.467413
C36	C	1.784300	-0.107742	0.032587
C37	C	1.167525	-0.607765	-0.467427
C38	C	1.667525	-0.107765	0.032573
C39	C	1.117856	-0.688564	-0.529356
C40	C	1.617856	-0.188564	-0.029356
C41	C	1.008132	-0.688569	-0.529377
C42	C	1.508132	-0.188569	-0.029377
C43	C	0.997755	-0.526973	-0.405530
C44	C	1.497755	-0.026973	0.094470
C45	C	1.107476	-0.526963	-0.405516
C46	C	1.607476	-0.026963	0.094484
C47	C	1.578182	-0.935598	-0.446513
C48	C	2.078182	-0.435598	0.053487
C49	C	1.587225	-1.075850	-0.437598
C50	C	2.087225	-0.575850	0.062402
C51	C	1.831302	-0.607773	-0.467453
C52	C	2.331302	-0.107773	0.032547
C53	C	1.948079	-0.607780	-0.467462
C54	C	2.448079	-0.107780	0.032538
C55	C	1.557337	-0.607640	-0.741473
C56	C	2.057337	-0.107640	-0.241473
C57	C	1.557366	-0.607589	-0.858253
C58	C	2.057366	-0.107589	-0.358253
C59	C	1.536301	-0.278636	-0.488457
C60	C	2.036301	0.221364	0.011543
C61	C	1.527367	-0.138384	-0.497416
C62	C	2.027367	0.361616	0.002584
C63	C	1.629726	-0.688204	-1.017706
C64	C	2.129726	-0.188204	-0.517706
C65	C	1.629704	-0.688264	-0.907978
C66	C	2.129704	-0.188264	-0.407978
C67	C	1.485038	-0.526859	-0.918262
C68	C	1.985038	-0.026859	-0.418262
C69	C	1.485056	-0.526807	-1.027987
C70	C	1.985056	-0.026807	-0.527987
C71	C	1.557254	-0.607783	-0.194463
C72	C	2.057254	-0.107783	0.305537
C73	C	1.557406	-0.607478	-0.077707
C74	C	2.057406	-0.107478	0.422293
H75	H	1.166744	-0.754355	-0.579771
H76	H	1.666744	-0.254355	-0.079771
H77	H	1.469202	-1.084628	-0.555451
H78	H	1.969202	-0.584628	-0.055451
C79	C	0.931704	-0.438103	-0.337426
C80	C	1.431704	0.061897	0.162574
H81	H	0.977002	-0.389972	-0.300548
H82	H	1.477002	0.110028	0.199452
H83	H	0.891955	-0.486306	-0.288512
H84	H	1.391955	0.013694	0.211488
H85	H	0.885418	-0.383182	-0.381208
H86	H	1.385418	0.116818	0.118792
C87	C	0.953501	-0.777444	-0.597501
C88	C	1.453501	-0.277444	-0.097501
H89	H	1.004982	-0.825566	-0.634365
H90	H	1.504982	-0.325566	-0.134365
H91	H	0.907650	-0.729244	-0.646428
H92	H	1.407650	-0.229244	-0.146428
H93	H	0.914181	-0.832373	-0.553735
H94	H	1.414181	-0.332373	-0.053735
H95	H	1.645386	-1.129614	-0.379554
H96	H	2.145386	-0.629614	0.120446
C97	C	1.709301	-0.776944	-1.072395
C98	C	2.209301	-0.276944	-0.572395
H99	H	1.752363	-0.825037	-1.020941
H100	H	2.252363	-0.325037	-0.520941
H101	H	1.752012	-0.728660	-1.118287
H102	H	2.252012	-0.228660	-0.618287
H103	H	1.672616	-0.831905	-1.111681
H104	H	2.172616	-0.331905	-0.611681
H105	H	1.688594	-0.754000	-0.859131
H106	H	2.188594	-0.254000	-0.359131
H107	H	1.426135	-0.461178	-0.877766
H108	H	1.926135	0.038822	-0.377766
C109	C	1.162116	-0.438082	-0.337389
C110	C	1.662116	0.061918	0.162611
H111	H	1.110641	-0.389973	-0.300508
H112	H	1.610641	0.110027	0.199492
H113	H	1.201434	-0.383161	-0.381155
H114	H	1.701434	0.116839	0.118845
H115	H	1.207971	-0.486289	-0.288461
H116	H	1.707971	0.013711	0.211539
H117	H	1.426159	-0.461068	-1.076841
H118	H	1.926159	0.038932	-0.576841
