data_functionalizedCrystal
_audit_creation_method	'MofGen! by Chris Wilmer'
_symmetry_space_group_name_H-M	'P1'
_symmetry_Int_Tables_number	1
_symmetry_cell_setting	triclinic
loop_
_symmetry_equiv_pos_as_xyz
  x,y,z
_cell_length_a	16.109301
_cell_length_b	10.723024
_cell_length_c	15.186229
_cell_angle_alpha	89.997422
_cell_angle_beta	89.999362
_cell_angle_gamma	83.964675
loop_
_atom_site_label
_atom_site_type_symbol
_atom_site_fract_x
_atom_site_fract_y
_atom_site_fract_z
O1	O	1.104074	0.160391	-0.073171
O2	O	0.862130	0.180351	-0.073184
O3	O	0.988683	-0.011279	-0.073174
O4	O	0.977521	0.352021	-0.073181
O5	O	0.988674	-0.011282	0.073283
O6	O	0.862121	0.180348	0.073273
O7	O	1.104066	0.160388	0.073287
Zn8	Zn	0.983092	0.170368	0.096533
Zn9	Zn	0.983103	0.170371	-0.096431
O10	O	0.977513	0.352018	0.073276
C11	C	0.831146	0.179541	0.000043
C12	C	0.738836	0.177117	0.000037
C13	C	0.987866	-0.057770	0.000054
C14	C	0.985436	-0.196292	0.000050
C15	C	0.517200	0.285190	0.000045
C16	C	0.430466	0.282903	0.000051
C17	C	0.449003	0.055540	0.000052
C18	C	0.535735	0.057829	0.000052
C19	C	0.569831	0.172657	0.000045
C20	C	0.396365	0.168081	0.000050
C21	C	0.302324	0.165600	0.000056
C22	C	0.663877	0.175139	0.000040
C23	C	1.056249	-0.272213	0.000053
C24	C	1.053739	-0.415383	0.000050
C25	C	1.135050	0.161198	0.000058
C26	C	1.227359	0.163622	0.000057
C27	C	0.978329	0.398508	0.000047
C28	C	0.980760	0.537031	0.000044
N29	N	0.983091	0.170364	0.228226
N30	N	0.983112	0.170365	-0.228123
C31	C	1.039148	0.085539	0.453953
C32	C	1.039150	0.085536	0.546143
C33	C	0.927049	0.255194	0.546143
C34	C	0.927043	0.255190	0.453955
C35	C	0.983097	0.170364	0.407862
C36	C	0.983105	0.170365	0.592240
C37	C	0.983108	0.170362	0.692196
C38	C	0.983094	0.170365	0.307900
H39	H	0.544958	0.378691	0.000046
O40	O	0.908376	-0.385287	-0.000077
C41	C	0.861783	-0.407902	-0.075944
H42	H	0.881558	-0.506662	-0.101234
H43	H	0.792490	-0.398591	-0.058891
H44	H	0.873622	-0.336742	-0.129055
H45	H	1.118732	-0.231219	0.000062
O46	O	1.093635	0.003311	0.591012
C47	C	1.145320	0.070160	0.644316
H48	H	1.112763	0.167789	0.658127
H49	H	1.158180	0.018080	0.709143
H50	H	1.206810	0.078668	0.608783
O51	O	0.910818	-0.244977	0.000005
C52	C	0.845464	-0.146588	0.000026
H53	H	0.869193	-0.058116	-0.027696
H54	H	0.791925	-0.173872	-0.042499
H55	H	0.822428	-0.128215	0.070289
H56	H	1.084789	0.016467	0.416427
H57	H	0.881411	0.324259	0.583680
O58	O	0.872561	0.337716	0.409313
C59	C	0.823078	0.412572	0.469761
H60	H	0.857174	0.414006	0.535474
H61	H	0.810960	0.512217	0.443116
H62	H	0.761090	0.372028	0.479573
H63	H	0.387617	0.374539	0.000053
H64	H	0.421231	-0.037950	0.000063
H65	H	0.578589	-0.033815	0.000054
H66	H	1.114359	-0.480619	0.000056
