data_functionalizedCrystal
_audit_creation_method	'MofGen! by Chris Wilmer'
_symmetry_space_group_name_H-M	'P1'
_symmetry_Int_Tables_number	1
_symmetry_cell_setting	triclinic
loop_
_symmetry_equiv_pos_as_xyz
  x,y,z
_cell_length_a	23.532407
_cell_length_b	17.699083
_cell_length_c	16.176319
_cell_angle_alpha	89.992304
_cell_angle_beta	89.997915
_cell_angle_gamma	83.065846
loop_
_atom_site_label
_atom_site_type_symbol
_atom_site_fract_x
_atom_site_fract_y
_atom_site_fract_z
O1	O	0.755526	0.091879	-0.068645
O2	O	0.589701	0.105173	-0.068670
O3	O	0.677298	-0.011687	-0.068649
O4	O	0.667928	0.208739	-0.068665
O5	O	0.677286	-0.011694	0.068844
O6	O	0.589689	0.105166	0.068824
O7	O	0.755514	0.091872	0.068848
Cu8	Cu	0.672600	0.098518	0.081390
Cu9	Cu	0.672614	0.098527	-0.081212
O10	O	0.667916	0.208732	0.068828
C11	C	0.676956	-0.039886	0.000097
C12	C	0.675949	-0.123899	0.000097
C13	C	0.568478	0.104831	0.000074
C14	C	0.505258	0.103813	0.000065
C15	C	0.727367	-0.172781	0.000106
C16	C	0.726417	-0.251719	0.000099
C17	C	0.674049	-0.281774	0.000089
C18	C	0.622627	-0.232886	0.000077
C19	C	0.623577	-0.153949	0.000079
C20	C	0.618793	-0.551230	0.000070
C21	C	0.617847	-0.630173	0.000071
C22	C	0.721633	-0.649000	0.000090
C23	C	0.722583	-0.570063	0.000092
C24	C	0.671162	-0.521181	0.000076
C25	C	0.672192	-0.435587	0.000082
C26	C	0.673018	-0.367366	0.000088
C27	C	0.106335	0.166585	0.000098
C28	C	0.046932	0.165639	0.000103
O29	O	0.010354	0.223829	0.000129
N30	N	0.024106	0.096166	0.000107
C31	C	0.060687	0.027634	0.000113
O32	O	0.035817	-0.031545	0.000118
C33	C	0.120089	0.028580	0.000114
C34	C	0.142911	0.098058	0.000102
C35	C	0.129158	0.236057	0.000087
C36	C	0.188557	0.237002	0.000080
C37	C	0.225133	0.168475	0.000084
C38	C	0.202310	0.099003	0.000096
C39	C	0.156668	-0.039951	0.000127
C40	C	0.216073	-0.038999	0.000129
C41	C	0.238896	0.030479	0.000116
C42	C	0.298285	0.031421	0.000093
N43	N	0.321110	0.100894	0.000090
C44	C	0.284534	0.169421	0.000085
C45	C	-0.064061	0.025652	0.000113
C46	C	-0.123462	0.024705	0.000107
C47	C	-0.137213	0.162710	0.000097
C48	C	-0.077811	0.163657	0.000098
C49	C	-0.041236	0.095125	0.000110
C50	C	0.409277	0.171401	0.000070
C51	C	0.468682	0.172340	0.000060
C52	C	0.482427	0.034335	0.000074
C53	C	0.423028	0.033395	0.000080
C54	C	0.386453	0.101935	0.000081
O55	O	0.334897	-0.026738	0.000071
O56	O	0.309412	0.228591	0.000092
C57	C	0.776737	0.092214	0.000103
C58	C	0.839957	0.093232	0.000106
C59	C	0.668258	0.236931	0.000079
C60	C	0.669265	0.320944	0.000074
N61	N	0.672594	0.098512	0.195755
N62	N	0.672625	0.098528	-0.195577
C63	C	0.711394	0.046787	0.239028
C64	C	0.711397	0.046786	0.325576
C65	C	0.672602	0.098514	0.368848
C66	C	0.633798	0.150241	0.325569
C67	C	0.633793	0.150238	0.239023
C68	C	0.633818	0.150255	0.674597
C69	C	0.633827	0.150256	0.761149
C70	C	0.711422	0.046804	0.761149
C71	C	0.711416	0.046800	0.674604
C72	C	0.672611	0.098524	0.631332
C73	C	0.672607	0.098524	0.537488
C74	C	0.672608	0.098519	0.462690
H75	H	0.770011	-0.148316	0.000120
O76	O	0.749033	-0.003428	0.367739
C77	C	0.740729	0.007674	0.453405
H78	H	0.695412	0.036263	0.465229
H79	H	0.772907	0.045421	0.477954
C80	C	0.805063	-0.104925	0.483326
C81	C	0.749403	-0.069816	0.497849
H82	H	0.810416	-0.152723	0.510743
H83	H	0.810660	-0.112403	0.425612
H84	H	0.831872	-0.073460	0.503784
H85	H	0.722595	-0.101276	0.477382
H86	H	0.743801	-0.062344	0.555562
H87	H	0.575200	-0.654640	0.000064
O88	O	0.749089	-0.003554	0.803096
C89	C	0.739927	-0.078416	0.781975
H90	H	0.717974	-0.078173	0.719139
H91	H	0.711615	-0.101631	0.830690
C92	C	0.824784	-0.129458	0.855151
C93	C	0.797824	-0.129161	0.777973
H94	H	0.860497	-0.160761	0.852686
H95	H	0.830955	-0.079022	0.869384
H96	H	0.801184	-0.148802	0.895739
H97	H	0.821420	-0.109808	0.737388
H98	H	0.791658	-0.179595	0.763733
O99	O	0.776417	-0.299095	0.000150
C100	C	0.822842	-0.255641	0.000146
H101	H	0.808301	-0.196615	0.026173
H102	H	0.838910	-0.250132	-0.065811
C103	C	0.889352	-0.367846	0.022112
C104	C	0.871493	-0.295352	0.054087
H105	H	0.919363	-0.392343	0.055382
H106	H	0.858075	-0.397123	0.022112
H107	H	0.902738	-0.363246	-0.032851
H108	H	0.858100	-0.299954	0.109045
H109	H	0.902769	-0.266076	0.054097
H110	H	0.379504	0.227212	0.000074
O111	O	-0.028615	-0.040994	0.000074
C112	C	-0.061506	-0.102509	0.000097
H113	H	-0.105864	-0.082943	-0.025931
H114	H	-0.065710	-0.123833	0.066059
C115	C	0.022650	-0.191360	-0.021857
C116	C	-0.031831	-0.167331	-0.053831
H117	H	0.040955	-0.231347	-0.055118
H118	H	0.044809	-0.149918	-0.021868
H119	H	0.019138	-0.209125	0.033112
H120	H	-0.028318	-0.149558	-0.108794
H121	H	-0.053990	-0.208772	-0.053830
H122	H	0.576922	-0.511439	0.000058
O123	O	0.773504	-0.540994	0.000064
C124	C	0.818684	-0.601067	0.000090
H125	H	0.802796	-0.654573	-0.025942
H126	H	0.834535	-0.612364	0.066054
C127	C	0.887600	-0.513430	-0.021851
C128	C	0.868088	-0.579146	-0.053831
H129	H	0.918076	-0.499908	-0.055109
H130	H	0.857162	-0.472957	-0.021866
H131	H	0.900806	-0.522853	0.033118
H132	H	0.854877	-0.569720	-0.108795
H133	H	0.898526	-0.619617	-0.053827
H134	H	0.602198	0.192356	0.203791
O135	O	0.596081	0.200532	0.803057
C136	C	0.561836	0.246196	0.746307
H137	H	0.561234	0.215168	0.684619
H138	H	0.580240	0.302302	0.737088
C139	C	0.501124	0.300307	0.855865
C140	C	0.500380	0.262196	0.780101
H141	H	0.463215	0.310180	0.876711
H142	H	0.524196	0.269545	0.894099
H143	H	0.516463	0.347058	0.848173
H144	H	0.485048	0.215442	0.787796
H145	H	0.477303	0.292950	0.741869
H146	H	0.763503	-0.688809	0.000098
O147	O	0.596154	0.200436	0.632442
C148	C	0.604475	0.189362	0.546775
H149	H	0.625835	0.129040	0.534956
H150	H	0.632982	0.232003	0.522207
C151	C	0.519966	0.275239	0.516868
C152	C	0.546197	0.201147	0.502350
H153	H	0.484019	0.282512	0.489463
H154	H	0.514361	0.282702	0.574583
H155	H	0.543728	0.310764	0.496394
H156	H	0.522438	0.165624	0.522833
H157	H	0.551797	0.193678	0.444637
O158	O	0.571806	-0.262205	0.000104
C159	C	0.581991	-0.342359	0.000086
H160	H	0.626458	-0.361235	0.026124
H161	H	0.579267	-0.364307	-0.065876
C162	C	0.482115	-0.351583	0.022020
C163	C	0.536728	-0.374768	0.054007
H164	H	0.454193	-0.371575	0.055277
H165	H	0.475252	-0.297582	0.022029
H166	H	0.479853	-0.369875	-0.032948
H167	H	0.538991	-0.356468	0.108969
H168	H	0.543590	-0.428767	0.054008
H169	H	0.602208	0.192357	0.360806
H170	H	0.581708	-0.114149	0.000071
H171	H	0.487260	0.228920	0.000050
H172	H	0.742987	0.004667	0.203802
O173	O	0.210627	0.304560	0.000115
C174	C	0.165597	0.364832	0.000094
H175	H	0.125272	0.343915	0.026123
H176	H	0.157164	0.385955	-0.065868
C177	C	0.231800	0.456080	0.022049
C178	C	0.182273	0.430391	0.054023
H179	H	0.242086	0.496522	0.055311
H180	H	0.262138	0.415474	0.022059
H181	H	0.224766	0.473678	-0.032919
H182	H	0.189310	0.412786	0.108986
H183	H	0.151936	0.470996	0.054023
O184	O	0.134603	-0.107509	0.000183
C185	C	0.179634	-0.167780	0.000174
H186	H	0.219958	-0.146862	0.026192
H187	H	0.188067	-0.188901	-0.065784
C188	C	0.113435	-0.259032	0.022159
C189	C	0.162960	-0.233342	0.054122
H190	H	0.103149	-0.299476	0.055433
H191	H	0.083095	-0.218428	0.022162
H192	H	0.120469	-0.276628	-0.032805
H193	H	0.155923	-0.215738	0.109081
H194	H	0.193298	-0.273945	0.054129
H195	H	0.245851	-0.094807	0.000138
H196	H	0.099383	0.291863	0.000086
H197	H	-0.059234	0.220231	0.000093
O198	O	0.400949	-0.034160	0.000117
C199	C	0.445973	-0.094440	0.000091
H200	H	0.486302	-0.073538	0.026112
H201	H	0.454401	-0.115549	-0.065872
C202	C	0.379760	-0.185679	0.022057
C203	C	0.429292	-0.160008	0.054023
H204	H	0.369470	-0.226126	0.055321
H205	H	0.349426	-0.145068	0.022071
H206	H	0.386790	-0.203265	-0.032912
H207	H	0.422260	-0.142414	0.108987
H208	H	0.459625	-0.200618	0.054019
H209	H	-0.167004	0.218509	0.000098
H210	H	-0.142038	-0.031871	0.000103
H211	H	0.512218	-0.021458	0.000074
H212	H	0.743008	0.004681	0.639374
