data_functionalizedCrystal
_audit_creation_method	'MofGen! by Chris Wilmer'
_symmetry_space_group_name_H-M	'P1'
_symmetry_Int_Tables_number	1
_symmetry_cell_setting	triclinic
loop_
_symmetry_equiv_pos_as_xyz
  x,y,z
_cell_length_a	15.944551
_cell_length_b	15.944551
_cell_length_c	16.053802
_cell_angle_alpha	87.423060
_cell_angle_beta	87.429376
_cell_angle_gamma	96.501262
loop_
_atom_site_label
_atom_site_type_symbol
_atom_site_fract_x
_atom_site_fract_y
_atom_site_fract_z
O1	O	-0.104801	1.118063	-0.069333
O2	O	0.395199	1.618063	0.430667
O3	O	-0.118156	0.873514	-0.069353
O4	O	0.381844	1.373514	0.430647
O5	O	0.010797	1.002467	-0.069347
O6	O	0.510797	1.502467	0.430653
O7	O	-0.233753	0.989110	-0.069338
O8	O	0.266247	1.489110	0.430662
O9	O	0.003728	0.995369	0.069511
O10	O	0.503728	1.495369	0.569511
O11	O	-0.125225	0.866416	0.069506
O12	O	0.374775	1.366416	0.569506
O13	O	-0.111869	1.110965	0.069526
O14	O	0.388131	1.610965	0.569526
Zn15	Zn	-0.119669	0.987563	0.091563
Zn16	Zn	0.380331	1.487563	0.591563
Zn17	Zn	-0.110356	0.996915	-0.091390
Zn18	Zn	0.389644	1.496915	0.408610
O19	O	-0.240822	0.982012	0.069520
O20	O	0.259178	1.482012	0.569520
C21	C	-0.121136	0.838671	0.000074
C22	C	0.378864	1.338671	0.500074
C23	C	-0.119473	0.745426	0.000066
C24	C	0.380527	1.245426	0.500066
C25	C	-0.035569	0.530568	0.000079
C26	C	0.464431	1.030568	0.500079
C27	C	-0.071046	0.473048	-0.068384
C28	C	0.428954	0.973048	0.431616
C29	C	-0.116466	0.574699	0.000076
C30	C	0.383534	1.074699	0.500076
C31	C	-0.078035	0.466072	0.068520
C32	C	0.421965	0.966072	0.568520
C33	C	-0.113556	0.409786	0.000089
C34	C	0.386444	0.909786	0.500089
C35	C	-0.151963	0.518410	-0.068444
C36	C	0.348037	1.018410	0.431556
C37	C	-0.158943	0.511437	0.068521
C38	C	0.341057	1.011437	0.568521
C39	C	-0.194478	0.453935	0.000041
C40	C	0.305522	0.953935	0.500041
C41	C	-0.118140	0.669702	0.000068
C42	C	0.381860	1.169702	0.500068
C43	C	-0.111888	0.314785	0.000091
C44	C	0.388112	0.814785	0.500091
C45	C	-0.268582	0.986115	0.000092
C46	C	0.231418	1.486115	0.500092
C47	C	-0.361828	0.987778	0.000096
C48	C	0.138172	1.487778	0.500096
C49	C	-0.576684	1.071682	0.000090
C50	C	-0.076684	1.571682	0.500090
C51	C	-0.641186	1.029220	0.068552
C52	C	-0.141186	1.529220	0.568552
C53	C	-0.532553	0.990785	0.000089
C54	C	-0.032553	1.490785	0.500089
C55	C	-0.634202	1.036199	-0.068352
C56	C	-0.134202	1.536199	0.431648
C57	C	-0.697466	0.993696	0.000078
C58	C	-0.197466	1.493696	0.500078
C59	C	-0.595829	0.948298	0.068607
C60	C	-0.095829	1.448298	0.568607
C61	C	-0.588836	0.955292	-0.068358
C62	C	-0.088836	1.455292	0.431642
C63	C	-0.653321	0.912770	0.000121
C64	C	-0.153321	1.412770	0.500121
C65	C	-0.437551	0.989110	0.000095
C66	C	0.062449	1.489110	0.500095
C67	C	-0.792467	0.995365	0.000077
C68	C	-0.292467	1.495365	0.500077
C69	C	0.038557	0.998363	0.000079
C70	C	0.538557	1.498363	0.500079
C71	C	0.131803	0.996702	0.000070
C72	C	0.631803	1.496702	0.500070
C73	C	-0.108889	1.145808	0.000097
C74	C	0.391111	1.645808	0.500097
C75	C	-0.110552	1.239054	0.000100
C76	C	0.389448	1.739054	0.500100
N77	N	-0.126025	0.981187	0.216423
N78	N	0.373975	1.481187	0.716423
N79	N	-0.103994	1.003298	-0.216250
N80	N	0.396006	1.503298	0.283750
C81	C	-0.071175	1.036077	0.260119
C82	C	0.428825	1.536077	0.760119
C83	C	-0.075628	1.031624	0.347525
C84	C	0.424372	1.531624	0.847525
C85	C	-0.134937	0.972286	0.391234
C86	C	0.365063	1.472286	0.891234
C87	C	-0.189789	0.917390	0.347532
C88	C	0.310211	1.417390	0.847532
C89	C	-0.185331	0.921839	0.260127
C90	C	0.314669	1.421839	0.760127
C91	C	-0.154388	0.952852	0.652643
C92	C	0.345612	1.452852	1.152643
C93	C	-0.158844	0.948409	0.740054
C94	C	0.341156	1.448409	1.240054
C95	C	-0.044681	1.062642	0.740042
C96	C	0.455319	1.562642	1.240042
C97	C	-0.040232	1.067089	0.652635
C98	C	0.459768	1.567089	1.152635
C99	C	-0.095081	1.012191	0.608940
C100	C	0.404919	1.512191	1.108940
N101	N	-0.139493	0.967735	0.480578
N102	N	0.360507	1.467735	0.980578
N103	N	-0.090521	1.016738	0.519598
N104	N	0.409479	1.516738	1.019598
H105	H	-0.543382	1.138828	0.000163
H106	H	-0.043382	1.638828	0.500163
O107	O	-0.193339	0.548790	-0.145207
O108	O	0.306661	1.048790	0.354793
H109	H	-0.157060	0.533075	-0.201904
H110	H	0.342940	1.033075	0.298096
H111	H	-0.261683	0.420778	0.000005
H112	H	0.238317	0.920778	0.500005
O113	O	-0.208128	0.534207	0.145192
O114	O	0.291872	1.034207	0.645192
H115	H	-0.177303	0.513365	0.201944
H116	H	0.322697	1.013365	0.701944
H117	H	0.031573	0.563906	-0.000008
H118	H	0.531573	1.063906	0.499992
O119	O	-0.671739	1.070618	0.145224
O120	O	-0.171739	1.570618	0.645224
H121	H	-0.640748	1.136569	0.145089
H122	H	-0.140748	1.636569	0.645089
H123	H	-0.033884	0.455896	-0.126267
H124	H	0.466116	0.955896	0.373733
H125	H	-0.046750	0.443027	0.126398
H126	H	0.453250	0.943027	0.626398
O127	O	-0.573267	0.899097	0.145368
O128	O	-0.073267	1.399097	0.645368
H129	H	-0.503728	0.898284	0.144788
H130	H	-0.003728	1.398284	0.644788
H131	H	-0.000025	1.107337	0.775626
H132	H	0.499975	1.607337	1.275626
H133	H	-0.686481	0.845561	0.000154
H134	H	-0.186481	1.345561	0.500154
H135	H	-0.229995	0.877142	0.224550
H136	H	0.270005	1.377142	0.724550
H137	H	-0.565761	0.924063	-0.126246
H138	H	-0.065761	1.424063	0.373754
H139	H	-0.651346	1.073389	-0.126228
H140	H	-0.151346	1.573389	0.373772
H141	H	-0.022883	1.084400	0.224537
H142	H	0.477117	1.584400	0.724537
H143	H	-0.030965	1.076319	0.383103
H144	H	0.469035	1.576319	0.883103
O145	O	0.023744	1.131083	0.605491
O146	O	0.523744	1.631083	1.105491
H147	H	0.061143	1.168498	0.650561
H148	H	0.561143	1.668498	1.150561
H149	H	-0.199050	0.908153	0.617074
H150	H	0.300950	1.408153	1.117074
H151	H	-0.207143	0.900085	0.775638
H152	H	0.292857	1.400085	1.275638
H153	H	-0.238077	0.869071	0.383124
H154	H	0.261923	1.369071	0.883124
