data_functionalizedCrystal
_audit_creation_method	'MofGen! by Chris Wilmer'
_symmetry_space_group_name_H-M	'P1'
_symmetry_Int_Tables_number	1
_symmetry_cell_setting	triclinic
loop_
_symmetry_equiv_pos_as_xyz
  x,y,z
_cell_length_a	19.805407
_cell_length_b	19.121063
_cell_length_c	19.805398
_cell_angle_alpha	92.412609
_cell_angle_beta	89.984135
_cell_angle_gamma	92.469032
loop_
_atom_site_label
_atom_site_type_symbol
_atom_site_fract_x
_atom_site_fract_y
_atom_site_fract_z
Zn1	Zn	1.023208	-0.279643	-0.394203
Zn2	Zn	1.356541	0.053691	-0.060870
Zn3	Zn	1.689874	0.387024	0.272463
Zn4	Zn	1.018299	-0.397092	-0.285838
Zn5	Zn	1.351632	-0.063758	0.047495
Zn6	Zn	1.684965	0.269575	0.380828
Zn7	Zn	0.910029	-0.279658	-0.281029
Zn8	Zn	1.243362	0.053675	0.052305
Zn9	Zn	1.576696	0.387008	0.385638
Zn10	Zn	0.905156	-0.397058	-0.398984
Zn11	Zn	1.238489	-0.063724	-0.065650
Zn12	Zn	1.571823	0.269609	0.267683
O13	O	0.964173	-0.338363	-0.340013
O14	O	1.297506	-0.005029	-0.006680
O15	O	1.630839	0.328304	0.326653
O16	O	1.117273	-0.295230	-0.379841
O17	O	1.450606	0.038103	-0.046507
O18	O	1.783939	0.371437	0.286826
O19	O	1.003921	-0.381535	-0.190484
O20	O	1.337255	-0.048201	0.142849
O21	O	1.670588	0.285132	0.476182
O22	O	0.929136	-0.181372	-0.292028
O23	O	1.262470	0.151962	0.041305
O24	O	1.595803	0.485295	0.374639
O25	O	1.113666	-0.381519	-0.300225
O26	O	1.446999	-0.048186	0.033108
O27	O	1.780333	0.285147	0.366441
O28	O	1.012288	-0.181360	-0.375177
O29	O	1.345622	0.151974	-0.041844
O30	O	1.678955	0.485307	0.291490
O31	O	0.924376	-0.295257	-0.186951
O32	O	1.257709	0.038076	0.146383
O33	O	1.591043	0.371410	0.479716
O34	O	0.814666	-0.295224	-0.296663
O35	O	1.148000	0.038109	0.036670
O36	O	1.481333	0.371442	0.370003
O37	O	0.920831	-0.381461	-0.493065
O38	O	1.254164	-0.048128	-0.159732
O39	O	1.587498	0.285205	0.173601
O40	O	0.811086	-0.381477	-0.383324
O41	O	1.144419	-0.048144	-0.049991
O42	O	1.477753	0.285190	0.283342
O43	O	1.007563	-0.295197	-0.489553
O44	O	1.340896	0.038136	-0.156220
O45	O	1.674230	0.371470	0.177113
O46	O	0.999196	-0.495372	-0.304861
O47	O	1.332529	-0.162039	0.028473
O48	O	1.665863	0.171295	0.361806
O49	O	0.916071	-0.495347	-0.387988
O50	O	1.249404	-0.162014	-0.054655
O51	O	1.582737	0.171320	0.278679
C52	C	0.788317	-0.338349	-0.339991
C53	C	1.121651	-0.005016	-0.006658
C54	C	1.454984	0.328317	0.326676
C55	C	0.713085	-0.338360	-0.339998
C56	C	1.046418	-0.005027	-0.006665
C57	C	1.379752	0.328306	0.326669
C58	C	0.675891	-0.383340	-0.385055
C59	C	1.009225	-0.050006	-0.051722
C60	C	1.342558	0.283327	0.281611
C61	C	0.605203	-0.383341	-0.385065
C62	C	0.938536	-0.050008	-0.051731
C63	C	1.271870	0.283326	0.281602
C64	C	0.571709	-0.338366	-0.340013
C65	C	0.905042	-0.005032	-0.006680
C66	C	1.238376	0.328301	0.326653
C67	C	0.608908	-0.293381	-0.294954
C68	C	0.942241	0.039952	0.038379
C69	C	1.275574	0.373285	0.371712
C70	C	0.679595	-0.293377	-0.294949
C71	C	1.012928	0.039956	0.038385
C72	C	1.346262	0.373289	0.371718
C73	C	0.323834	-0.293397	-0.294977
C74	C	0.657167	0.039936	0.038356
C75	C	0.990500	0.373270	0.371689
C76	C	0.253141	-0.293406	-0.294985
C77	C	0.586475	0.039927	0.038348
C78	C	0.919808	0.373260	0.371681
C79	C	0.249442	-0.383361	-0.385094
C80	C	0.582775	-0.050027	-0.051760
C81	C	0.916108	0.283306	0.281573
C82	C	0.320129	-0.383356	-0.385088
C83	C	0.653462	-0.050023	-0.051754
C84	C	0.986796	0.283310	0.281579
C85	C	0.357322	-0.338370	-0.340031
C86	C	0.690655	-0.005037	-0.006698
C87	C	1.023988	0.328297	0.326635
C88	C	0.433970	-0.338368	-0.340022
C89	C	0.767303	-0.005035	-0.006689
C90	C	1.100637	0.328299	0.326644
C91	C	0.495062	-0.338371	-0.340019
C92	C	0.828395	-0.005037	-0.006685
C93	C	1.161728	0.328296	0.326648
C94	C	0.956590	-0.520844	-0.347480
C95	C	1.289924	-0.187510	-0.014146
C96	C	1.623257	0.145823	0.319187
C97	C	0.953408	-0.598910	-0.350696
C98	C	1.286742	-0.265577	-0.017363
C99	C	1.620075	0.067757	0.315970
C100	C	0.995226	-0.635575	-0.308963
C101	C	1.328559	-0.302242	0.024370
C102	C	1.661893	0.031091	0.357703
C103	C	0.992237	-0.708927	-0.311993
C104	C	1.325571	-0.375593	0.021341
C105	C	1.658904	-0.042260	0.354674
C106	C	0.947427	-0.745612	-0.356752
C107	C	1.280761	-0.412278	-0.023419
C108	C	1.614094	-0.078945	0.309915
C109	C	0.905608	-0.708941	-0.398489
C110	C	1.238941	-0.375608	-0.065156
C111	C	1.572275	-0.042274	0.268177
C112	C	0.908600	-0.635591	-0.395463
C113	C	1.241934	-0.302258	-0.062130
C114	C	1.575267	0.031076	0.271204
C115	C	0.936228	-0.967082	-0.368056
C116	C	1.269562	-0.633749	-0.034723
C117	C	1.602895	-0.300415	0.298610
C118	C	0.933237	-1.040437	-0.371078
C119	C	1.266571	-0.707104	-0.037745
C120	C	1.599904	-0.373771	0.295589
C121	C	1.019868	-1.040418	-0.284582
C122	C	1.353202	-0.707085	0.048752
C123	C	1.686535	-0.373751	0.382085
C124	C	1.022854	-0.967066	-0.281557
C125	C	1.356187	-0.633733	0.051777
C126	C	1.689521	-0.300400	0.385110
C127	C	0.981037	-0.930402	-0.323296
C128	C	1.314370	-0.597069	0.010037
C129	C	1.647704	-0.263736	0.343370
C130	C	0.944370	-0.820589	-0.359848
C131	C	1.277703	-0.487255	-0.026515
C132	C	1.611037	-0.153922	0.306819
C133	C	0.984098	-0.855427	-0.320203
C134	C	1.317432	-0.522093	0.013130
C135	C	1.650765	-0.188760	0.346463
C136	C	1.140715	-0.338377	-0.340036
C137	C	1.474048	-0.005043	-0.006703
C138	C	1.807382	0.328290	0.326630
C139	C	1.215947	-0.338383	-0.340046
C140	C	1.549280	-0.005049	-0.006713
C141	C	1.882613	0.328284	0.326621
C142	C	0.964201	-0.338324	-0.516555
C143	C	1.297534	-0.004990	-0.183221
C144	C	1.630868	0.328343	0.150112
C145	C	0.964213	-0.338307	-0.591786
C146	C	1.297546	-0.004974	-0.258453
C147	C	1.630880	0.328360	0.074881
C148	C	0.971803	-0.155169	-0.332533
C149	C	1.305137	0.178164	0.000801
C150	C	1.638470	0.511498	0.334134
C151	C	0.975055	-0.077103	-0.329345
C152	C	1.308388	0.256231	0.003988
C153	C	1.641722	0.589564	0.337322
C154	C	1.009461	-0.293265	-1.051744
C155	C	1.342794	0.040068	-0.718411
C156	C	1.676128	0.373402	-0.385078
C157	C	1.009450	-0.293286	-0.981057
C158	C	1.342783	0.040047	-0.647724
C159	C	1.676116	0.373380	-0.314390
C160	C	0.964286	-0.338209	-0.947544
C161	C	1.297620	-0.004876	-0.614211
C162	C	1.630953	0.328457	-0.280877
C163	C	0.919136	-0.383119	-0.984722
C164	C	1.252470	-0.049786	-0.651389
C165	C	1.585803	0.283548	-0.318056
C166	C	0.919152	-0.383100	-1.055409
C167	C	1.252485	-0.049767	-0.722076
C168	C	1.585818	0.283566	-0.388742
C169	C	0.919074	-0.383195	-0.699652
C170	C	1.252408	-0.049862	-0.366319
C171	C	1.585741	0.283472	-0.032985
C172	C	0.919061	-0.383209	-0.628961
C173	C	1.252395	-0.049875	-0.295627
C174	C	1.585728	0.283458	0.037706
C175	C	1.009372	-0.293381	-0.625300
C176	C	1.342706	0.039952	-0.291967
C177	C	1.676039	0.373286	0.041367
C178	C	1.009388	-0.293363	-0.695987
C179	C	1.342721	0.039971	-0.362653
C180	C	1.676054	0.373304	-0.029320
C181	C	0.964240	-0.338274	-0.733159
C182	C	1.297574	-0.004941	-0.399826
C183	C	1.630907	0.328392	-0.066492
C184	C	0.964254	-0.338251	-0.809807
C185	C	1.297588	-0.004918	-0.476473
C186	C	1.630921	0.328415	-0.143140
C187	C	0.964269	-0.338229	-0.870897
C188	C	1.297602	-0.004896	-0.537564
C189	C	1.630935	0.328437	-0.204231
C190	C	0.964186	-0.338351	-0.164157
C191	C	1.297519	-0.005017	0.169176
C192	C	1.630853	0.328316	0.502510
C193	C	0.964313	-0.338169	-0.088918
C194	C	1.297646	-0.004836	0.244415
C195	C	1.630980	0.328497	0.577749
H196	H	0.581632	-0.256759	-0.258276
H197	H	0.914965	0.076574	0.075058
H198	H	1.248298	0.409908	0.408391
Cl199	Cl	1.079199	-0.920954	-0.225295
Cl200	Cl	1.412532	-0.587620	0.108038
Cl201	Cl	1.745865	-0.254287	0.441372
Cl202	Cl	0.862393	-0.439556	-1.102142
Cl203	Cl	1.195727	-0.106223	-0.768808
Cl204	Cl	1.529060	0.227111	-0.435475
Cl205	Cl	0.717991	-0.439887	-0.441692
Cl206	Cl	1.051324	-0.106553	-0.108358
Cl207	Cl	1.384657	0.226780	0.224975
Cl208	Cl	1.066234	-0.236779	-1.093868
Cl209	Cl	1.399568	0.096554	-0.760534
Cl210	Cl	1.732901	0.429887	-0.427201
Cl211	Cl	0.849279	-0.755059	-0.454763
Cl212	Cl	1.182612	-0.421726	-0.121429
Cl213	Cl	1.515945	-0.088393	0.211904
H214	H	1.046215	-0.256722	-0.950793
H215	H	1.379549	0.076611	-0.617460
H216	H	1.712882	0.409944	-0.284127
Cl217	Cl	0.888038	-0.866713	-0.416114
Cl218	Cl	1.221371	-0.533379	-0.082781
Cl219	Cl	1.554705	-0.200046	0.250552
Cl220	Cl	1.066173	-0.236893	-0.738114
Cl221	Cl	1.399506	0.096441	-0.404780
Cl222	Cl	1.732839	0.429774	-0.071447
Cl223	Cl	0.862281	-0.439689	-0.586831
Cl224	Cl	1.195614	-0.106355	-0.253497
Cl225	Cl	1.528948	0.226978	0.079836
H226	H	0.709877	-0.256747	-0.258262
H227	H	1.043211	0.076587	0.075072
H228	H	1.376544	0.409920	0.408405
Cl229	Cl	1.066129	-0.236918	-0.578565
Cl230	Cl	1.399462	0.096415	-0.245231
Cl231	Cl	1.732795	0.429749	0.088102
Cl232	Cl	0.862320	-0.439659	-0.746374
Cl233	Cl	1.195654	-0.106326	-0.413041
Cl234	Cl	1.528987	0.227008	-0.079707
H235	H	0.882367	-0.419699	-0.957431
H236	H	1.215700	-0.086366	-0.624097
H237	H	1.549033	0.246968	-0.290764
H238	H	1.053914	-1.070278	-0.250600
H239	H	1.387247	-0.736944	0.082733
H240	H	1.720581	-0.403611	0.416066
Cl241	Cl	1.044813	-0.755017	-0.259528
Cl242	Cl	1.378147	-0.421684	0.073805
Cl243	Cl	1.711480	-0.088351	0.407139
H244	H	1.031712	-0.605711	-0.272513
H245	H	1.365046	-0.272378	0.060821
H246	H	1.698379	0.060955	0.394154
H247	H	0.874549	-0.605739	-0.429447
H248	H	1.207882	-0.272405	-0.096114
H249	H	1.541215	0.060928	0.237219
Cl250	Cl	0.876892	-1.086555	-0.427342
Cl251	Cl	1.210225	-0.753221	-0.094009
Cl252	Cl	1.543558	-0.419888	0.239324
H253	H	0.902178	-0.937236	-0.402041
H254	H	1.235511	-0.603903	-0.068708
H255	H	1.568845	-0.270569	0.264625
H256	H	0.574923	-0.419968	-0.421754
H257	H	0.908256	-0.086635	-0.088421
H258	H	1.241590	0.246698	0.244912
Cl259	Cl	0.362232	-0.439901	-0.441724
Cl260	Cl	0.695565	-0.106568	-0.108390
Cl261	Cl	1.028898	0.226765	0.224943
H262	H	0.225873	-0.256778	-0.258299
H263	H	0.559206	0.076556	0.075035
H264	H	0.892540	0.409889	0.408368
Cl265	Cl	0.202681	-0.439916	-0.441738
Cl266	Cl	0.536014	-0.106583	-0.108404
Cl267	Cl	0.869348	0.226751	0.224929
Cl268	Cl	0.370581	-0.236840	-0.238336
Cl269	Cl	0.703914	0.096493	0.094997
Cl270	Cl	1.037248	0.429826	0.428330
Cl271	Cl	1.040432	-0.809308	-0.263939
Cl272	Cl	1.373765	-0.475974	0.069394
Cl273	Cl	1.707098	-0.142641	0.402727
