data_functionalizedCrystal
_audit_creation_method	'MofGen! by Chris Wilmer'
_symmetry_space_group_name_H-M	'P1'
_symmetry_Int_Tables_number	1
_symmetry_cell_setting	triclinic
loop_
_symmetry_equiv_pos_as_xyz
  x,y,z
_cell_length_a	14.853558
_cell_length_b	15.072220
_cell_length_c	14.853567
_cell_angle_alpha	90.002676
_cell_angle_beta	96.366968
_cell_angle_gamma	90.011976
loop_
_atom_site_label
_atom_site_type_symbol
_atom_site_fract_x
_atom_site_fract_y
_atom_site_fract_z
O1	O	1.196381	0.073764	-0.117658
O2	O	0.933920	0.073767	-0.131688
O3	O	1.072161	0.073768	0.006557
O4	O	1.058140	0.073763	-0.255903
O5	O	1.072127	-0.073797	0.006549
O6	O	0.933886	-0.073798	-0.131696
O7	O	1.196347	-0.073801	-0.117666
Zn8	Zn	1.065111	-0.097229	-0.124682
Zn9	Zn	1.065156	0.097195	-0.124672
O10	O	1.058106	-0.073802	-0.255911
C11	C	0.900314	-0.000015	-0.131058
C12	C	0.800230	-0.000013	-0.129158
N13	N	1.065087	-0.229917	-0.124689
C14	C	0.753229	0.080428	-0.128262
C15	C	0.753190	-0.080453	-0.128260
C16	C	0.659156	-0.080455	-0.126469
C17	C	0.612155	-0.000014	-0.125574
C18	C	0.659187	0.080429	-0.126469
C19	C	0.612118	-0.160896	-0.125565
C20	C	0.518079	-0.160900	-0.123774
C21	C	0.471075	-0.080458	-0.122884
C22	C	0.518113	-0.000013	-0.123781
C23	C	0.471111	0.080429	-0.122885
C24	C	0.518146	0.160875	-0.123788
C25	C	0.612183	0.160871	-0.125580
C26	C	0.377038	-0.080454	-0.121092
C27	C	0.377069	0.080430	-0.121092
C28	C	1.065154	-0.589119	-0.124669
C29	C	0.990935	-0.551513	-0.198392
C30	C	0.991106	-0.448687	-0.198662
C31	C	1.065120	-0.410915	-0.124679
C32	C	1.159214	-0.448208	-0.145339
C33	C	1.158798	-0.551066	-0.145863
C34	C	1.046118	-0.551217	-0.030067
C35	C	1.043961	-0.448354	-0.030695
C36	C	1.065107	-0.310202	-0.124682
C37	C	1.065174	-0.689832	-0.124667
C38	C	1.229953	-0.000017	-0.118296
C39	C	1.330037	-0.000013	-0.120197
C40	C	1.071509	-0.000012	0.040141
C41	C	1.069605	-0.000004	0.140225
N42	N	1.065187	0.229884	-0.124659
C43	C	1.058758	-0.000020	-0.289496
C44	C	1.060662	-0.000022	-0.389580
C45	C	0.979439	-0.000020	0.552756
C46	C	1.143673	-0.000022	0.574042
C47	C	1.145463	-0.000017	0.480009
C48	C	1.064240	-0.000014	0.422344
C49	C	0.981227	-0.000017	0.458713
C50	C	1.228474	-0.000023	0.443632
C51	C	1.230268	-0.000018	0.349593
C52	C	1.149044	-0.000010	0.291927
C53	C	1.066027	-0.000012	0.328301
C54	C	0.984805	-0.000010	0.270637
C55	C	0.901787	-0.000005	0.307009
C56	C	0.900003	-0.000009	0.401047
C57	C	1.150828	-0.000006	0.197890
C58	C	0.986592	-0.000007	0.176594
H59	H	0.338806	0.145936	-0.120368
O60	O	1.117761	-0.583495	0.042620
H61	H	1.103842	-0.556474	0.109200
O62	O	1.234162	-0.584019	-0.077456
H63	H	1.234428	-0.657660	-0.077315
H64	H	0.920449	-0.000001	0.129649
H65	H	0.791465	-0.145945	-0.128982
O66	O	1.231271	-0.000031	0.636237
H67	H	1.289295	-0.000035	0.595147
O68	O	1.007223	-0.416080	-0.291649
H69	H	1.007392	-0.342440	-0.292170
H70	H	0.650395	-0.226386	-0.126286
H71	H	0.974744	-0.423980	-0.015019
O72	O	1.110913	-0.414325	0.045398
H73	H	1.160539	-0.370002	0.017293
O74	O	1.316073	-0.000040	0.505826
H75	H	1.319210	0.060107	0.549182
O76	O	0.467285	-0.247634	-0.122925
H77	H	0.432345	-0.251532	-0.060750
H78	H	0.835656	-0.000010	0.260047
O79	O	1.234132	-0.415804	-0.076114
H80	H	1.236607	-0.342223	-0.077654
H81	H	0.338746	-0.145952	-0.120366
H82	H	0.921168	-0.423475	-0.186336
O83	O	0.467450	0.247637	-0.122824
H84	H	0.394160	0.234116	-0.121428
O85	O	1.181940	-0.414094	-0.235696
H86	H	1.126372	-0.370589	-0.266027
H87	H	0.832414	-0.000006	0.430670
O88	O	0.889900	-0.000026	0.591976
H89	H	0.902297	-0.000034	0.667054
O90	O	0.957179	-0.585602	-0.003800
H91	H	0.925548	-0.630096	-0.057887
H92	H	0.650487	0.226366	-0.126313
O93	O	1.319801	-0.000002	0.310363
H94	H	1.375979	0.000006	0.366260
H95	H	1.218419	-0.000016	0.168279
H96	H	0.791529	0.145926	-0.129001
H97	H	1.002936	-0.577353	-0.268197
O98	O	0.897995	-0.584324	-0.182345
H99	H	0.882323	-0.562241	-0.114518
H100	H	1.175554	-0.575049	-0.214859
