data_functionalizedCrystal
_audit_creation_method	'MofGen! by Chris Wilmer'
_symmetry_space_group_name_H-M	'P1'
_symmetry_Int_Tables_number	1
_symmetry_cell_setting	triclinic
loop_
_symmetry_equiv_pos_as_xyz
  x,y,z
_cell_length_a	19.288864
_cell_length_b	19.288865
_cell_length_c	17.766277
_cell_angle_alpha	89.988397
_cell_angle_beta	89.976791
_cell_angle_gamma	83.136245
loop_
_atom_site_label
_atom_site_type_symbol
_atom_site_fract_x
_atom_site_fract_y
_atom_site_fract_z
O1	O	0.921353	0.086649	-0.062844
O2	O	0.719092	0.098337	-0.062794
O3	O	0.826067	-0.008637	-0.062806
O4	O	0.814378	0.193623	-0.062832
O5	O	0.826048	-0.008643	0.062383
O6	O	0.719074	0.098332	0.062395
O7	O	0.921334	0.086643	0.062344
Cu8	Cu	0.820202	0.092487	0.073800
Cu9	Cu	0.820224	0.092494	-0.074250
O10	O	0.814360	0.193618	0.062356
C11	C	0.693207	0.097959	-0.000193
C12	C	0.616103	0.096830	-0.000173
C13	C	0.825682	-0.034516	-0.000209
C14	C	0.824553	-0.111620	-0.000202
C15	C	0.571407	0.159598	-0.000193
C16	C	0.498960	0.158537	-0.000201
C17	C	0.471212	0.094705	-0.000205
C18	C	0.515918	0.031929	-0.000180
C19	C	0.588364	0.032991	-0.000164
C20	C	0.362957	0.044527	-0.044082
C21	C	0.290512	0.043468	-0.044103
C22	C	0.247767	0.091425	-0.000250
C23	C	0.277473	0.140454	0.043614
C24	C	0.349918	0.141517	0.043630
C25	C	0.392658	0.093546	-0.000221
C26	C	0.124514	0.153047	-0.000278
C27	C	0.052066	0.151984	-0.000281
C28	C	0.069026	0.025374	-0.000267
C29	C	0.141473	0.026439	-0.000256
C30	C	0.169212	0.090278	-0.000265
C31	C	0.887321	-0.156316	-0.000214
C32	C	0.886260	-0.228763	-0.000226
C33	C	0.822428	-0.256511	-0.000210
C34	C	0.759652	-0.211805	-0.000203
C35	C	0.760714	-0.139359	-0.000198
C36	C	0.772242	-0.364800	0.043653
C37	C	0.771182	-0.437245	0.043654
C38	C	0.819148	-0.479956	-0.000226
C39	C	0.868186	-0.450216	-0.044097
C40	C	0.869249	-0.377771	-0.044093
C41	C	0.821269	-0.335065	-0.000215
C42	C	0.880770	-0.603209	-0.000252
C43	C	0.879707	-0.675657	-0.000268
C44	C	0.753097	-0.658697	-0.000238
C45	C	0.754162	-0.586250	-0.000229
C46	C	0.818001	-0.558511	-0.000232
C47	C	0.947220	0.087022	-0.000258
C48	C	1.024324	0.088151	-0.000283
C49	C	0.814745	0.219497	-0.000242
C50	C	0.815874	0.296601	-0.000254
N51	N	0.820192	0.092482	0.177931
N52	N	0.820241	0.092493	-0.178380
C53	C	0.867575	0.045137	0.217312
C54	C	0.867579	0.045134	0.296114
C55	C	0.820206	0.092488	0.335531
C56	C	0.772814	0.139837	0.296140
C57	C	0.772807	0.139834	0.217340
C58	C	0.810908	0.155775	0.460362
C59	C	0.810920	0.155779	0.539161
C60	C	0.820225	0.092496	0.578577
C61	C	0.829533	0.029207	0.539185
C62	C	0.829525	0.029204	0.460385
C63	C	0.820209	0.092496	0.420977
C64	C	0.867616	0.045143	0.703405
C65	C	0.867615	0.045139	0.782208
C66	C	0.772853	0.139848	0.782233
C67	C	0.772850	0.139846	0.703431
C68	C	0.820235	0.092495	0.664022
H69	H	0.593987	0.211580	-0.000202
C70	C	0.919102	-0.006307	0.338748
C71	C	0.960605	-0.047768	0.287368
C72	C	1.008078	-0.095158	0.326612
H73	H	0.894290	-0.035222	0.369510
H74	H	0.947974	0.018590	0.369451
H75	H	0.931736	-0.072663	0.256678
H76	H	0.985431	-0.018872	0.256604
H77	H	1.036950	-0.070261	0.357315
H78	H	0.983261	-0.124068	0.357374
H79	H	1.036248	-0.123290	0.291758
C80	C	0.450338	0.226635	-0.000346
C81	C	0.408279	0.229706	-0.064755
C82	C	0.363476	0.292422	-0.064910
H83	H	0.477146	0.264864	-0.000387
H84	H	0.421657	0.228858	0.043279
H85	H	0.436956	0.227490	-0.108369
H86	H	0.381456	0.191491	-0.064728
H87	H	0.334795	0.294645	-0.021285
H88	H	0.390289	0.330647	-0.064949
H89	H	0.334929	0.294511	-0.108607
C90	C	0.800771	0.224562	0.581789
C91	C	0.792592	0.279981	0.530407
C92	C	0.783232	0.343355	0.569647
H93	H	0.840422	0.228420	0.612507
H94	H	0.760306	0.226105	0.612537
H95	H	0.833052	0.278439	0.499672
H96	H	0.752940	0.276147	0.499687
H97	H	0.742767	0.344898	0.600394
H98	H	0.822884	0.347206	0.600363
H99	H	0.777675	0.380965	0.534790
H100	H	0.906198	0.006585	0.671317
H101	H	0.046435	-0.026600	-0.000317
C102	C	0.920241	-0.496485	-0.091870
C103	C	0.911379	-0.477602	-0.167666
C104	C	0.959326	-0.520205	-0.211691
H105	H	0.912640	-0.543908	-0.085693
H106	H	0.966383	-0.490758	-0.076501
H107	H	0.865248	-0.483335	-0.183030
H108	H	0.918986	-0.430186	-0.173865
H109	H	1.005467	-0.514478	-0.196321
H110	H	0.951721	-0.567626	-0.205508
H111	H	0.953324	-0.507395	-0.263122
C112	C	0.922371	-0.345378	-0.091784
C113	C	0.887412	-0.299000	-0.143658
C114	C	0.936323	-0.269139	-0.187601
H115	H	0.950810	-0.381110	-0.117990
H116	H	0.950818	-0.320836	-0.060193
H117	H	0.858977	-0.323540	-0.175245
H118	H	0.858976	-0.263255	-0.117473
H119	H	0.964770	-0.244598	-0.156010
H120	H	0.964759	-0.304877	-0.213802
H121	H	0.912611	-0.237664	-0.222798
C122	C	0.154503	0.222425	-0.000240
C123	C	0.099849	0.277170	-0.000232
C124	C	0.127445	0.341091	-0.000186
H125	H	0.182422	0.225574	-0.043880
H126	H	0.182369	0.225506	0.043438
H127	H	0.071994	0.274092	-0.043905
H128	H	0.071925	0.274044	0.043405
H129	H	0.155312	0.344171	0.043491
H130	H	0.155364	0.344232	-0.043827
H131	H	0.090367	0.378243	-0.000174
C132	C	0.189890	-0.041786	-0.000282
C133	C	0.150087	-0.097916	-0.000306
C134	C	0.194665	-0.160778	-0.000337
H135	H	0.218496	-0.044105	0.043368
H136	H	0.218517	-0.044038	-0.043950
H137	H	0.121472	-0.095665	0.043358
H138	H	0.121483	-0.095621	-0.043952
H139	H	0.223292	-0.163030	-0.044004
H140	H	0.223269	-0.163090	0.043314
H141	H	0.167666	-0.198870	-0.000360
H142	H	0.493322	-0.020044	-0.000193
H143	H	0.266331	0.003548	-0.079822
C144	C	0.721301	0.191280	0.338796
C145	C	0.679788	0.232733	0.287436
C146	C	0.632315	0.280122	0.326702
H147	H	0.746112	0.220201	0.369517
H148	H	0.692434	0.166383	0.369542
H149	H	0.708650	0.257628	0.256702
H150	H	0.654961	0.203831	0.256713
H151	H	0.603449	0.255225	0.357448
H152	H	0.657133	0.309038	0.357421
H153	H	0.604139	0.308249	0.291860
H154	H	0.015674	0.203099	-0.000293
H155	H	0.397755	0.005473	-0.079797
H156	H	0.939303	-0.133736	-0.000220
C157	C	0.919143	-0.006297	0.824833
C158	C	0.960649	-0.047750	0.773450
C159	C	1.008132	-0.095134	0.812689
H160	H	0.894339	-0.035219	0.855596
H161	H	0.948012	0.018604	0.855535
H162	H	0.931784	-0.072649	0.742761
H163	H	0.985469	-0.018847	0.742685
H164	H	1.037002	-0.070232	0.843391
H165	H	0.983322	-0.124050	0.843451
H166	H	1.036304	-0.123260	0.777831
C167	C	0.636781	-0.035236	-0.000187
C168	C	0.596979	-0.091367	-0.000207
C169	C	0.641558	-0.154228	-0.000240
H170	H	0.665389	-0.037554	0.043461
H171	H	0.665405	-0.037488	-0.043856
H172	H	0.568367	-0.089116	0.043458
H173	H	0.568372	-0.089072	-0.043852
H174	H	0.670183	-0.156480	-0.043910
H175	H	0.670164	-0.156539	0.043409
H176	H	0.614560	-0.192321	-0.000261
H177	H	0.734278	0.178402	0.814325
H178	H	0.937375	-0.265162	-0.000238
H179	H	0.731249	-0.461453	0.079371
H180	H	0.930822	-0.712049	-0.000282
C181	C	0.950058	-0.573049	-0.000112
C182	C	0.954370	-0.531986	0.064308
C183	C	1.018192	-0.504202	0.064466
H184	H	0.953179	-0.545081	-0.043714
H185	H	0.987309	-0.610030	-0.000087
H186	H	0.917130	-0.495010	0.064276
H187	H	0.951262	-0.559938	0.107921
H188	H	1.055443	-0.541183	0.064491
H189	H	1.021307	-0.476238	0.020861
H190	H	1.021129	-0.476343	0.108177
H191	H	0.701123	-0.681288	-0.000229
H192	H	0.703049	-0.549857	-0.000215
C193	C	0.720120	-0.318551	0.091372
C194	C	0.676964	-0.360101	0.129808
C195	C	0.628947	-0.317522	0.173775
H196	H	0.692426	-0.286517	0.059835
H197	H	0.744521	-0.293523	0.126675
H198	H	0.652565	-0.385116	0.094509
H199	H	0.704638	-0.392133	0.161358
H200	H	0.653347	-0.292495	0.209078
H201	H	0.601258	-0.285490	0.142232
H202	H	0.599664	-0.345708	0.199864
C203	C	0.839477	-0.039536	0.417666
C204	C	0.785974	-0.079352	0.436870
C205	C	0.795108	-0.142678	0.397529
H206	H	0.883325	-0.064506	0.430529
H207	H	0.838105	-0.030511	0.365082
H208	H	0.787353	-0.088379	0.489442
H209	H	0.742120	-0.054403	0.424005
H210	H	0.793736	-0.133653	0.344946
H211	H	0.838957	-0.167642	0.410396
H212	H	0.758805	-0.169698	0.410549
C213	C	0.721489	0.191371	0.660710
C214	C	0.732552	0.259598	0.679842
C215	C	0.685254	0.307082	0.640497
H216	H	0.675129	0.184041	0.673620
H217	H	0.728271	0.184637	0.608127
H218	H	0.725765	0.266329	0.732413
H219	H	0.778903	0.266950	0.666931
H220	H	0.692036	0.300348	0.587914
H221	H	0.638897	0.299746	0.653409
H222	H	0.692758	0.353379	0.653467
H223	H	0.374102	0.181436	0.079347
H224	H	0.734220	0.178389	0.185274
C225	C	0.839789	-0.039521	0.581935
C226	C	0.904515	-0.076030	0.562759
C227	C	0.913997	-0.139336	0.602138
H228	H	0.803615	-0.066736	0.569084
H229	H	0.838501	-0.030481	0.634513
H230	H	0.905797	-0.085073	0.510193
H231	H	0.940702	-0.048836	0.575612
H232	H	0.912709	-0.130296	0.654716
H233	H	0.877820	-0.166545	0.589284
H234	H	0.957917	-0.164113	0.589138
C235	C	0.231162	0.192702	0.091117
C236	C	0.239813	0.260577	0.068150
C237	C	0.197184	0.308755	0.111877
H238	H	0.243806	0.186885	0.142600
H239	H	0.183724	0.185166	0.084862
H240	H	0.287240	0.268111	0.074412
H241	H	0.227165	0.266417	0.016674
H242	H	0.149746	0.301218	0.105622
H243	H	0.209831	0.302931	0.163358
H244	H	0.203043	0.354812	0.096296
H245	H	0.707679	-0.234401	-0.000192
H246	H	0.709599	-0.102967	-0.000188
H247	H	0.906158	0.006579	0.185228
H248	H	0.803318	0.207311	0.428276
