data_functionalizedCrystal
_audit_creation_method	'MofGen! by Chris Wilmer'
_symmetry_space_group_name_H-M	'P1'
_symmetry_Int_Tables_number	1
_symmetry_cell_setting	triclinic
loop_
_symmetry_equiv_pos_as_xyz
  x,y,z
_cell_length_a	10.723024
_cell_length_b	10.723024
_cell_length_c	9.198806
_cell_angle_alpha	89.997988
_cell_angle_beta	89.996352
_cell_angle_gamma	84.467869
loop_
_atom_site_label
_atom_site_type_symbol
_atom_site_fract_x
_atom_site_fract_y
_atom_site_fract_z
O1	O	1.657188	0.175024	-0.120879
O2	O	1.294035	0.191778	-0.120884
O3	O	1.483988	0.001825	-0.120876
O4	O	1.467235	0.364977	-0.120887
O5	O	1.483973	0.001824	0.120909
O6	O	1.294020	0.191777	0.120901
O7	O	1.657173	0.175024	0.120906
Cu8	Cu	1.475595	0.183401	0.142981
Cu9	Cu	1.475613	0.183401	-0.142958
O10	O	1.467220	0.364977	0.120898
C11	C	1.247528	0.190558	0.000008
C12	C	1.108974	0.186911	0.000007
C13	C	1.482762	-0.044675	0.000015
C14	C	1.479114	-0.183229	0.000010
C15	C	1.033991	0.293198	0.000002
C16	C	0.890788	0.289431	0.000001
C17	C	1.585401	-0.258212	0.000009
C18	C	1.581634	-0.401415	0.000004
C19	C	1.703680	0.176243	0.000011
C20	C	1.842234	0.179891	0.000003
C21	C	1.468447	0.411477	0.000004
C22	C	1.472094	0.550031	-0.000000
N23	N	1.475592	0.183399	0.344095
N24	N	1.475626	0.183393	-0.344072
C25	C	1.555347	0.103292	0.416295
C26	C	1.555367	0.103288	0.583707
H27	H	1.075814	0.386984	0.000008
C28	C	1.349158	-0.362943	0.000001
C29	C	1.254975	-0.369259	0.125551
C30	C	1.132040	-0.282222	0.125552
C31	C	1.103286	-0.188869	0.000003
C32	C	1.197471	-0.182548	-0.125557
C33	C	1.320407	-0.269585	-0.125558
H34	H	1.276258	-0.438369	0.218499
H35	H	1.062318	-0.286902	0.218500
H36	H	1.012282	-0.124439	0.000003
H37	H	1.176189	-0.113439	-0.218505
H38	H	1.390129	-0.264906	-0.218506
H39	H	1.385328	-0.225051	-0.000001
C40	C	1.383360	0.276052	0.428008
C41	C	1.241177	0.273077	0.407255
C42	C	1.148943	0.365733	0.491163
C43	C	1.198891	0.461365	0.595825
C44	C	1.341082	0.464344	0.616583
C45	C	1.433316	0.371688	0.532674
H46	H	1.204196	0.202281	0.329774
H47	H	1.043684	0.363527	0.475797
H48	H	1.130614	0.529955	0.657940
H49	H	1.378063	0.535140	0.694064
H50	H	1.538575	0.373894	0.548041
C51	C	1.647580	0.010638	0.332385
C52	C	1.647313	0.010653	0.164980
C53	C	1.739549	-0.082005	0.081076
C54	C	1.832052	-0.174678	0.164577
C55	C	1.832322	-0.174697	0.331991
C56	C	1.740086	-0.082039	0.415896
H57	H	1.578834	0.079259	0.103159
H58	H	1.739349	-0.081990	-0.042856
H59	H	1.900331	-0.243269	0.102466
H60	H	1.900801	-0.243303	0.393812
H61	H	1.740286	-0.082053	0.539827
C62	C	1.647617	0.010630	0.667574
C63	C	1.643893	-0.131466	0.646843
C64	C	1.736148	-0.224127	0.730713
C65	C	1.832126	-0.174692	0.835314
C66	C	1.835853	-0.032588	0.856049
C67	C	1.743599	0.060073	0.772179
H68	H	1.572841	-0.168068	0.569408
H69	H	1.733387	-0.329322	0.715363
H70	H	1.900418	-0.243285	0.897399
H71	H	1.906906	0.004014	0.933485
H72	H	1.746359	0.165268	0.787529
H73	H	1.407345	0.251984	0.593848
H74	H	0.826355	0.380421	-0.000009
H75	H	0.906659	0.088896	-0.000003
H76	H	1.679187	-0.216390	0.000019
H77	H	1.067152	0.093125	-0.000028
H78	H	1.672624	-0.465848	0.000010
