data_functionalizedCrystal
_audit_creation_method	'MofGen! by Chris Wilmer'
_symmetry_space_group_name_H-M	'P1'
_symmetry_Int_Tables_number	1
_symmetry_cell_setting	triclinic
loop_
_symmetry_equiv_pos_as_xyz
  x,y,z
_cell_length_a	16.959455
_cell_length_b	16.120444
_cell_length_c	16.959447
_cell_angle_alpha	87.132720
_cell_angle_beta	90.014322
_cell_angle_gamma	92.923490
loop_
_atom_site_label
_atom_site_type_symbol
_atom_site_fract_x
_atom_site_fract_y
_atom_site_fract_z
Zn1	Zn	1.192388	-0.331959	0.462855
Zn2	Zn	1.692388	0.168041	0.962855
Zn3	Zn	1.185592	-0.471387	0.337374
Zn4	Zn	1.685592	0.028613	0.837374
Zn5	Zn	1.060215	-0.331985	0.330694
Zn6	Zn	1.560215	0.168015	0.830694
Zn7	Zn	1.053466	-0.471325	0.469510
Zn8	Zn	1.553466	0.028675	0.969510
O9	O	1.122915	-0.401664	0.400108
O10	O	1.622915	0.098336	0.900108
O11	O	1.302097	-0.350469	0.446221
O12	O	1.802097	0.149531	0.946221
O13	O	1.168941	-0.452932	0.225879
O14	O	1.668941	0.047068	0.725879
O15	O	1.083417	-0.215316	0.342645
O16	O	1.583417	0.284684	0.842645
O17	O	1.297104	-0.452907	0.354030
O18	O	1.797104	0.047093	0.854030
O19	O	1.180524	-0.215296	0.439743
O20	O	1.680524	0.284704	0.939743
O21	O	1.076827	-0.350514	0.220971
O22	O	1.576827	0.149486	0.720971
O23	O	0.948710	-0.350454	0.349097
O24	O	1.448710	0.149546	0.849097
O25	O	1.071914	-0.452801	0.579236
O26	O	1.571914	0.047199	1.079236
O27	O	0.943751	-0.452826	0.451085
O28	O	1.443751	0.047174	0.951085
O29	O	1.173979	-0.350409	0.574347
O30	O	1.673979	0.149591	1.074347
O31	O	1.162397	-0.588045	0.360483
O32	O	1.662397	-0.088045	0.860483
O33	O	1.065324	-0.587999	0.457563
O34	O	1.565324	-0.087999	0.957563
C35	C	0.917550	-0.401637	0.400089
C36	C	1.417550	0.098363	0.900089
C37	C	0.829693	-0.401645	0.400100
C38	C	1.329693	0.098355	0.900100
C39	C	0.460777	-0.348315	0.347107
C40	C	0.960777	0.151685	0.847107
C41	C	0.455654	-0.455082	0.453158
C42	C	0.955654	0.044918	0.953158
C43	C	0.538200	-0.455070	0.453153
C44	C	1.038200	0.044930	0.953153
C45	C	0.582039	-0.401681	0.400123
C46	C	1.082039	0.098319	0.900123
C47	C	0.543331	-0.348303	0.347098
C48	C	1.043331	0.151697	0.847098
C49	C	0.576914	-0.508452	0.506171
C50	C	1.076914	-0.008452	1.006171
C51	C	0.659466	-0.508443	0.506167
C52	C	1.159466	-0.008443	1.006167
C53	C	0.703306	-0.455049	0.453141
C54	C	1.203306	0.044951	0.953141
C55	C	0.664593	-0.401669	0.400114
C56	C	1.164593	0.098331	0.900114
C57	C	0.708431	-0.348279	0.347084
C58	C	1.208431	0.151721	0.847084
C59	C	0.669720	-0.294894	0.294061
C60	C	1.169720	0.205106	0.794061
C61	C	0.587171	-0.294909	0.294071
C62	C	1.087171	0.205091	0.794071
C63	C	0.785855	-0.455034	0.453130
C64	C	1.285855	0.044966	0.953130
C65	C	0.790985	-0.348268	0.347076
C66	C	1.290985	0.151732	0.847076
C67	C	1.112412	-0.618272	0.410487
C68	C	1.612412	-0.118272	0.910487
C69	C	1.107991	-0.710938	0.414954
C70	C	1.607991	-0.210938	0.914954
C71	C	1.146044	-0.921883	0.377108
C72	C	1.646044	-0.421883	0.877108
C73	C	1.099933	-0.880594	0.423117
C74	C	1.599933	-0.380594	0.923117
C75	C	1.104418	-0.786189	0.418574
C76	C	1.604418	-0.286189	0.918574
C77	C	1.141560	-1.016297	0.381650
C78	C	1.641560	-0.516297	0.881650
C79	C	1.329082	-0.401692	0.400128
C80	C	1.829082	0.098308	0.900128
C81	C	1.416938	-0.401704	0.400137
C82	C	1.916938	0.098296	0.900137
C83	C	1.122952	-0.401595	0.606273
C84	C	1.622952	0.098405	1.106273
C85	C	1.122967	-0.401566	0.694129
C86	C	1.622967	0.098434	1.194129
C87	C	1.133482	-0.184210	0.389706
C88	C	1.633482	0.315790	0.889706
C89	C	1.137984	-0.091544	0.385273
C90	C	1.637984	0.408456	0.885273
C91	C	1.122928	-0.401673	0.194743
C92	C	1.622928	0.098327	0.694743
C93	C	1.123077	-0.401467	0.106877
C94	C	1.623077	0.098533	0.606877
C95	C	1.069925	-0.454788	1.068148
C96	C	1.569925	0.045212	1.568148
C97	C	1.176207	-0.348167	1.063052
C98	C	1.676207	0.151833	1.563052
C99	C	1.176185	-0.348185	0.980507
C100	C	1.676185	0.151815	1.480507
C101	C	1.123033	-0.401506	0.941779
C102	C	1.623033	0.098494	1.441779
C103	C	1.069903	-0.454810	0.985596
C104	C	1.569903	0.045190	1.485596
C105	C	1.229319	-0.294888	0.936684
C106	C	1.729319	0.205112	1.436684
C107	C	1.229300	-0.294904	0.854134
C108	C	1.729300	0.205096	1.354134
C109	C	1.176144	-0.348222	0.815404
C110	C	1.676144	0.151778	1.315404
C111	C	1.123011	-0.401527	0.859226
C112	C	1.623011	0.098473	1.359226
C113	C	1.069859	-0.454848	0.820498
C114	C	1.569859	0.045152	1.320498
C115	C	1.016722	-0.508150	0.864318
C116	C	1.516722	-0.008150	1.364318
C117	C	1.016746	-0.508127	0.946866
C118	C	1.516746	-0.008127	1.446866
C119	C	1.176119	-0.348244	0.732857
C120	C	1.676119	0.151756	1.232857
C121	C	1.069837	-0.454869	0.737946
C122	C	1.569837	0.045131	1.237946
H123	H	0.555645	-0.251447	0.250902
H124	H	1.055645	0.248553	0.750902
H125	H	1.057089	-0.916147	0.465920
H126	H	1.557089	-0.416147	0.965920
H127	H	1.219384	-0.304849	0.697182
H128	H	1.719384	0.195151	1.197182
N129	N	0.419031	-0.290752	0.289907
N130	N	0.919031	0.209248	0.789907
H131	H	0.360083	-0.298861	0.297952
H132	H	0.860083	0.201139	0.797952
H133	H	0.432824	-0.303671	0.234058
H134	H	0.932824	0.196329	0.734058
H135	H	1.188885	-0.886334	0.334307
H136	H	1.688885	-0.386334	0.834307
H137	H	1.026547	-0.498283	0.706419
H138	H	1.526547	0.001717	1.206419
H139	H	0.419956	-0.498554	0.496329
H140	H	0.919956	0.001446	0.996329
N141	N	0.529634	-0.566041	0.563357
N142	N	1.029634	-0.066041	1.063357
H143	H	0.471466	-0.557945	0.555318
H144	H	0.971466	-0.057945	1.055318
H145	H	0.544706	-0.553143	0.619211
H146	H	1.044706	-0.053143	1.119211
N147	N	0.959400	-0.565665	0.822545
N148	N	1.459400	-0.065665	1.322545
H149	H	0.967456	-0.557590	0.763603
H150	H	1.467456	-0.057590	1.263603
H151	H	0.903581	-0.552678	0.836345
H152	H	1.403581	-0.052678	1.336345
N153	N	0.959450	-0.565623	0.994131
N154	N	1.459450	-0.065623	1.494131
H155	H	0.925774	-0.599405	0.957073
H156	H	1.425774	-0.099405	1.457073
H157	H	0.924530	-0.531676	1.026764
H158	H	1.424530	-0.031676	1.526764
H159	H	1.272597	-0.251482	0.968223
H160	H	1.772597	0.248518	1.468223
N161	N	0.701216	-0.566019	0.563352
N162	N	1.201216	-0.066019	1.063352
H163	H	0.660917	-0.599843	0.596946
H164	H	1.160917	-0.099843	1.096946
H165	H	0.737115	-0.532125	0.598359
H166	H	1.237115	-0.032125	1.098359
H167	H	1.026660	-0.498183	1.103830
H168	H	1.526660	0.001817	1.603830
N169	N	1.233537	-0.290664	1.104819
N170	N	1.733537	0.209336	1.604819
H171	H	1.225490	-0.298741	1.163762
H172	H	1.725490	0.201259	1.663762
H173	H	1.224122	-0.231124	1.087549
H174	H	1.724122	0.268876	1.587549
N175	N	1.286608	-0.237418	0.806874
N176	N	1.786608	0.262582	1.306874
H177	H	1.320283	-0.203638	0.843935
H178	H	1.820283	0.296362	1.343935
H179	H	1.256298	-0.198839	0.770784
H180	H	1.756298	0.301161	1.270784
H181	H	0.705424	-0.251428	0.250881
H182	H	1.205424	0.248572	0.750881
N183	N	0.838259	-0.290672	0.289881
N184	N	1.338259	0.209328	0.789881
H185	H	0.823249	-0.303543	0.234002
H186	H	1.323249	0.196457	0.734002
H187	H	0.896414	-0.298786	0.297984
H188	H	1.396414	0.201214	0.797984
N189	N	0.827609	-0.512612	0.510306
N190	N	1.327609	-0.012612	1.010306
H191	H	0.787311	-0.546439	0.543898
H192	H	1.287311	-0.046439	1.043898
H193	H	0.863509	-0.478722	0.545315
H194	H	1.363509	0.021278	1.045315
