data_functionalizedCrystal
_audit_creation_method	'MofGen! by Chris Wilmer'
_symmetry_space_group_name_H-M	'P1'
_symmetry_Int_Tables_number	1
_symmetry_cell_setting	triclinic
loop_
_symmetry_equiv_pos_as_xyz
  x,y,z
_cell_length_a	13.032831
_cell_length_b	25.639240
_cell_length_c	13.032268
_cell_angle_alpha	97.139101
_cell_angle_beta	89.113023
_cell_angle_gamma	97.153060
loop_
_atom_site_label
_atom_site_type_symbol
_atom_site_fract_x
_atom_site_fract_y
_atom_site_fract_z
Zn1	Zn	1.498183	0.353070	0.780709
Zn2	Zn	1.831516	0.686403	1.114042
Zn3	Zn	2.164850	1.019737	1.447376
Zn4	Zn	1.519860	0.430963	0.608701
Zn5	Zn	1.853193	0.764296	0.942035
Zn6	Zn	2.186526	1.097630	1.275368
Zn7	Zn	1.348060	0.331230	0.586958
Zn8	Zn	1.681393	0.664563	0.920291
Zn9	Zn	2.014726	0.997897	1.253625
Zn10	Zn	1.326110	0.428136	0.758828
Zn11	Zn	1.659444	0.761470	1.092161
Zn12	Zn	1.992777	1.094803	1.425494
O13	O	1.423053	0.385850	0.683799
O14	O	1.756386	0.719183	1.017132
O15	O	2.089720	1.052517	1.350466
O16	O	1.644970	0.373726	0.776149
O17	O	1.978304	0.707059	1.109482
O18	O	2.311637	1.040392	1.442816
O19	O	1.515328	0.409776	0.461903
O20	O	1.848661	0.743110	0.795236
O21	O	2.181995	1.076443	1.128570
O22	O	1.368088	0.260973	0.612717
O23	O	1.701421	0.594306	0.946051
O24	O	2.034754	0.927639	1.279384
O25	O	1.660896	0.430953	0.649776
O26	O	1.994230	0.764287	0.983109
O27	O	2.327563	1.097620	1.316442
O28	O	1.478383	0.277018	0.755065
O29	O	1.811716	0.610352	1.088399
O30	O	2.145049	0.943685	1.421732
O31	O	1.389107	0.336503	0.445928
O32	O	1.722440	0.669836	0.779262
O33	O	2.055774	1.003169	1.112595
O34	O	1.201236	0.333762	0.591500
O35	O	1.534569	0.667095	0.924833
O36	O	1.867903	1.000428	1.258166
O37	O	1.330678	0.426136	0.905644
O38	O	1.664012	0.759469	1.238977
O39	O	1.997345	1.092802	1.572311
O40	O	1.185110	0.404959	0.717771
O41	O	1.518443	0.738292	1.051105
O42	O	1.851777	1.071625	1.384438
O43	O	1.457099	0.370985	0.921720
O44	O	1.790433	0.704318	1.255054
O45	O	2.123766	1.037651	1.588387
O46	O	1.494044	0.503742	0.628558
O47	O	1.827378	0.837076	0.961891
O48	O	2.160711	1.170409	1.295225
O49	O	1.351698	0.501666	0.738855
O50	O	1.685031	0.834999	1.072189
O51	O	2.018364	1.168332	1.405522
C52	C	1.155858	0.366684	0.649902
C53	C	1.489191	0.700017	0.983236
C54	C	1.822525	1.033351	1.316569
C55	C	1.041548	0.358499	0.635425
C56	C	1.374881	0.691832	0.968759
C57	C	1.708215	1.025165	1.302092
C58	C	1.422867	0.521675	0.683718
C59	C	1.756200	0.855009	1.017051
C60	C	2.089533	1.188342	1.350384
C61	C	1.422876	0.579791	0.683729
C62	C	1.756210	0.913124	1.017063
C63	C	2.089543	1.246457	1.350396
C64	C	0.982645	0.390122	0.691354
C65	C	1.315979	0.723455	1.024688
C66	C	1.649312	1.056789	1.358021
C67	C	0.864499	0.381663	0.676393
C68	C	1.197833	0.714996	1.009727
C69	C	1.531166	1.048329	1.343060
C70	C	1.497250	0.941249	0.626451
C71	C	1.830584	1.274582	0.959784
C72	C	2.163917	1.607915	1.293118
C73	C	1.497281	0.995856	0.626465
C74	C	1.830614	1.329189	0.959798
C75	C	2.163947	1.662522	1.293131
O76	O	1.560383	1.025012	0.577716
O77	O	1.893717	1.358345	0.911049
O78	O	2.227050	1.691678	1.244382
N79	N	1.423133	1.022096	0.683832
N80	N	1.756467	1.355429	1.017166
N81	N	2.089800	1.688763	1.350499
C82	C	1.348957	0.993728	0.741198
C83	C	1.682291	1.327061	1.074532
C84	C	2.015624	1.660394	1.407865
O85	O	1.285892	1.021061	0.789996
O86	O	1.619226	1.354395	1.123329
O87	O	1.952559	1.687728	1.456663
C88	C	1.348932	0.939122	0.741190
C89	C	1.682266	1.272455	1.074523
C90	C	2.015599	1.605789	1.407856
C91	C	1.423078	0.912884	0.683810
C92	C	1.756412	1.246217	1.017143
C93	C	2.089745	1.579550	1.350477
C94	C	1.571391	0.915010	0.569077
C95	C	1.904724	1.248343	0.902410
C96	C	2.238057	1.581677	1.235744
C97	C	1.571359	0.860406	0.569062
C98	C	1.904692	1.193740	0.902395
C99	C	2.238026	1.527073	1.235728
C100	C	1.497187	0.832042	0.626421
C101	C	1.830520	1.165375	0.959754
C102	C	2.163854	1.498708	1.293087
C103	C	1.423046	0.858280	0.683795
C104	C	1.756380	1.191613	1.017128
C105	C	2.089713	1.524947	1.350461
C106	C	1.274762	0.910755	0.798561
C107	C	1.608095	1.244089	1.131894
C108	C	1.941428	1.577422	1.465227
C109	C	1.274744	0.856146	0.798548
C110	C	1.608077	1.189480	1.131881
C111	C	1.941410	1.522813	1.465214
C112	C	1.348890	0.829908	0.741168
C113	C	1.682223	1.163241	1.074501
C114	C	2.015556	1.496574	1.407835
C115	C	1.348843	0.775312	0.741139
C116	C	1.682176	1.108645	1.074472
C117	C	2.015509	1.441978	1.407805
N118	N	1.422990	0.749071	0.683771
N119	N	1.756323	1.082404	1.017104
N120	N	2.089657	1.415738	1.350438
C121	C	1.497162	0.777436	0.626412
C122	C	1.830496	1.110769	0.959745
C123	C	2.163829	1.444103	1.293079
C124	C	1.349016	1.108403	0.741214
C125	C	1.682349	1.441736	1.074547
C126	C	2.015683	1.775070	1.407880
C127	C	1.349035	1.163007	0.741217
C128	C	1.682369	1.496340	1.074550
C129	C	2.015702	1.829673	1.407884
C130	C	1.497360	1.165131	0.626485
C131	C	1.830694	1.498464	0.959818
C132	C	2.164027	1.831798	1.293152
C133	C	1.497336	1.110526	0.626476
C134	C	1.830669	1.443859	0.959810
C135	C	2.164002	1.777192	1.293143
C136	C	1.423163	1.082162	0.683846
C137	C	1.756497	1.415496	1.017179
C138	C	2.089830	1.748829	1.350513
C139	C	1.497089	0.662765	0.626384
C140	C	1.830423	0.996098	0.959717
C141	C	2.163756	1.329431	1.293050
C142	C	1.497049	0.608156	0.626370
C143	C	1.830382	0.941489	0.959704
C144	C	2.163715	1.274822	1.293037
C145	C	1.348728	0.606037	0.741106
C146	C	1.682061	0.939370	1.074440
C147	C	2.015394	1.272703	1.407773
C148	C	1.348765	0.660640	0.741116
C149	C	1.682098	0.993973	1.074449
C150	C	2.015431	1.327307	1.407783
C151	C	1.422954	0.689003	0.683752
C152	C	1.756288	1.022337	1.017086
C153	C	2.089621	1.355670	1.350419
O154	O	1.285775	0.746122	0.789866
O155	O	1.619108	1.079455	1.123200
O156	O	1.952441	1.412789	1.456533
O157	O	1.560225	0.750097	0.577633
O158	O	1.893558	1.083430	0.910967
O159	O	2.226891	1.416763	1.244300
C160	C	1.691291	0.405091	0.717829
C161	C	2.024625	0.738424	1.051162
C162	C	2.357958	1.071758	1.384495
C163	C	1.805599	0.413290	0.732330
C164	C	2.138932	0.746624	1.065664
C165	C	2.472265	1.079957	1.398997
C166	C	1.389022	0.400681	0.952041
C167	C	1.722356	0.734014	1.285374
C168	C	2.055689	1.067348	1.618708
C169	C	1.374521	0.407001	1.066350
C170	C	1.707854	0.740335	1.399683
C171	C	2.041187	1.073668	1.733016
C172	C	1.423229	1.249493	0.683884
C173	C	1.756563	1.582827	1.017217
C174	C	2.089896	1.916160	1.350551
C175	C	1.423212	1.191377	0.683862
C176	C	1.756545	1.524710	1.017195
C177	C	2.089878	1.858044	1.350529
C178	C	1.457011	0.371043	0.416608
C179	C	1.790344	0.704376	0.749941
C180	C	2.123677	1.037709	1.083275
C181	C	1.471712	0.364590	0.302325
C182	C	1.805045	0.697923	0.635659
C183	C	2.138378	1.031256	0.968992
C184	C	1.430606	0.382531	1.125266
C185	C	1.763939	0.715865	1.458600
C186	C	2.097272	1.049198	1.791933
C187	C	1.415619	0.389063	1.243410
C188	C	1.748952	0.722396	1.576744
C189	C	2.082285	1.055730	1.910077
H190	H	1.019683	0.423457	0.750317
H191	H	1.353016	0.756790	1.083650
H192	H	1.686350	1.090123	1.416984
F193	F	0.993141	0.314922	0.558365
F194	F	1.326475	0.648255	0.891698
F195	F	1.659808	0.981589	1.225032
H196	H	1.288392	0.682005	0.787843
H197	H	1.621725	1.015338	1.121176
H198	H	1.955059	1.348672	1.454509
H199	H	1.315402	0.432783	1.103374
H200	H	1.648735	0.766116	1.436707
H201	H	1.982069	1.099449	1.770040
F202	F	1.270109	1.190924	0.802275
F203	F	1.603443	1.524258	1.135609
F204	F	1.936776	1.857591	1.468942
H205	H	1.288608	1.085311	0.787927
H206	H	1.621941	1.418645	1.121260
H207	H	1.955275	1.751978	1.454593
H208	H	1.557759	1.188236	0.579784
H209	H	1.891092	1.521570	0.913117
H210	H	2.224425	1.854903	1.246451
H211	H	1.557427	0.586794	0.579641
H212	H	1.890761	0.920127	0.912975
H213	H	2.224094	1.253461	1.246308
F214	F	0.816098	0.338084	0.599329
F215	F	1.149431	0.671417	0.932662
F216	F	1.482764	1.004751	1.265995
F217	F	1.576050	0.692943	0.565331
F218	F	1.909384	1.026276	0.898664
F219	F	2.242717	1.359610	1.231997
H220	H	1.631737	0.839047	0.522342
H221	H	1.965071	1.172380	0.855675
H222	H	2.298404	1.505713	1.189008
H223	H	1.631796	0.938099	0.522369
H224	H	1.965130	1.271433	0.855702
H225	H	2.298463	1.604766	1.189035
H226	H	0.842630	0.446627	0.791300
H227	H	1.175963	0.779960	1.124633
H228	H	1.509297	1.113293	1.457966
H229	H	1.356496	0.414846	1.280430
H230	H	1.689829	0.748179	1.613763
H231	H	2.023163	1.081513	1.947097
H232	H	1.214380	0.932109	0.845280
H233	H	1.547713	1.265442	1.178613
H234	H	1.881047	1.598775	1.511947
F235	F	1.269795	0.575839	0.802152
F236	F	1.603128	0.909173	1.135485
F237	F	1.936461	1.242506	1.468819
H238	H	1.557712	1.089166	0.579753
H239	H	1.891045	1.422499	0.913087
H240	H	2.224378	1.755832	1.246420
F241	F	1.195799	0.825963	0.859612
F242	F	1.529132	1.159297	1.192946
F243	F	1.862466	1.492630	1.526279
H244	H	1.489714	0.356744	1.088241
H245	H	1.823047	0.690077	1.421574
H246	H	2.156381	1.023411	1.754908
H247	H	1.530823	0.338799	1.265306
H248	H	1.864156	0.672133	1.598639
H249	H	2.197489	1.005466	1.931972
