data_functionalizedCrystal
_audit_creation_method	'MofGen! by Chris Wilmer'
_symmetry_space_group_name_H-M	'P1'
_symmetry_Int_Tables_number	1
_symmetry_cell_setting	triclinic
loop_
_symmetry_equiv_pos_as_xyz
  x,y,z
_cell_length_a	10.654550
_cell_length_b	19.288865
_cell_length_c	9.130313
_cell_angle_alpha	89.990258
_cell_angle_beta	89.999724
_cell_angle_gamma	83.810589
loop_
_atom_site_label
_atom_site_type_symbol
_atom_site_fract_x
_atom_site_fract_y
_atom_site_fract_z
O1	O	1.665751	0.097555	-0.121709
O2	O	1.300074	0.106849	-0.121738
O3	O	1.493479	0.001141	-0.121693
O4	O	1.472346	0.203263	-0.121753
O5	O	1.493466	0.001138	0.121905
O6	O	1.300061	0.106846	0.121861
O7	O	1.665738	0.097552	0.121890
Cu8	Cu	1.482898	0.102198	0.144118
Cu9	Cu	1.482914	0.102202	-0.143966
O10	O	1.472333	0.203260	0.121846
C11	C	1.253284	0.106165	0.000059
C12	C	1.113884	0.104123	0.000049
C13	C	1.033066	0.166363	0.000035
C14	C	0.902087	0.164440	0.000061
C15	C	0.932756	0.038033	0.000109
C16	C	1.063733	0.039956	0.000094
C17	C	1.492792	-0.024742	0.000110
C18	C	1.490751	-0.101859	0.000123
C19	C	1.604232	-0.145812	0.000139
C20	C	1.602315	-0.218272	0.000116
C21	C	1.486909	-0.246775	0.000106
C22	C	1.373413	-0.202812	0.000081
C23	C	1.375334	-0.130354	0.000090
C24	C	1.396183	-0.355657	0.085426
C25	C	1.394266	-0.428114	0.085426
C26	C	1.480980	-0.470259	0.000073
C27	C	1.569631	-0.439940	-0.085263
C28	C	1.571552	-0.367482	-0.085254
C29	C	1.484814	-0.325343	0.000095
C30	C	1.592390	-0.592782	0.000061
C31	C	1.590467	-0.665243	0.000029
C32	C	1.361562	-0.649781	0.000009
C33	C	1.363488	-0.577322	0.000027
C34	C	1.478905	-0.548827	0.000060
C35	C	1.712528	0.098236	0.000090
C36	C	1.851928	0.100277	0.000091
C37	C	1.473020	0.229142	0.000039
C38	C	1.475061	0.306259	0.000016
N39	N	1.482896	0.102195	0.346741
N40	N	1.482925	0.102200	-0.346588
C41	C	1.568565	0.055408	0.423412
C42	C	1.568577	0.055408	0.576749
C43	C	1.397248	0.148990	0.576729
C44	C	1.397231	0.148986	0.423395
H45	H	1.694728	-0.254065	0.000123
H46	H	0.836289	0.215122	0.000052
H47	H	0.891906	-0.014209	0.000154
C48	C	1.662784	0.003935	0.339091
C49	C	1.757012	-0.047534	0.423437
C50	C	1.851231	-0.099010	0.339121
C51	C	1.851224	-0.099018	0.170460
C52	C	1.756993	-0.047548	0.086105
C53	C	1.662773	0.003928	0.170420
H54	H	1.757020	-0.047530	0.548299
H55	H	1.920987	-0.137112	0.401568
H56	H	1.920971	-0.137124	0.108045
H57	H	1.756984	-0.047552	-0.038757
H58	H	1.593017	0.042030	0.107974
H59	H	1.279449	-0.226024	0.000070
H60	H	1.282921	-0.094566	0.000077
C61	C	1.238655	-0.528968	0.000036
C62	C	1.111708	-0.560316	0.000029
C63	C	0.986868	-0.511962	0.000036
C64	C	0.988976	-0.432260	0.000049
C65	C	1.115928	-0.400909	0.000056
C66	C	1.240767	-0.449263	0.000049
H67	H	1.110143	-0.619319	0.000019
H68	H	0.892890	-0.535171	0.000031
H69	H	0.896562	-0.396466	0.000054
H70	H	1.117492	-0.341906	0.000066
H71	H	1.334745	-0.426054	0.000054
C72	C	1.303028	0.200463	0.661050
C73	C	1.303112	0.200513	0.829712
C74	C	1.208892	0.251990	0.914027
C75	C	1.114589	0.303416	0.829682
C76	C	1.114502	0.303367	0.661011
C77	C	1.208722	0.251890	0.576695
H78	H	1.372924	0.162443	0.892158
H79	H	1.208957	0.252026	1.038889
H80	H	1.044842	0.341522	0.892097
H81	H	1.044690	0.341437	0.598564
H82	H	1.208657	0.251855	0.451833
H83	H	1.638334	0.017308	0.639171
H84	H	1.073895	0.218611	0.000009
H85	H	1.129539	-0.010730	0.000109
C86	C	1.296751	-0.461462	0.179286
C87	C	1.201347	-0.415107	0.273146
C88	C	1.103827	-0.448453	0.367005
C89	C	1.101710	-0.528154	0.367004
C90	C	1.197118	-0.574514	0.273141
C91	C	1.294638	-0.541168	0.179282
H92	H	1.202911	-0.356104	0.273150
H93	H	1.033200	-0.414134	0.436489
H94	H	1.029520	-0.552839	0.436484
H95	H	1.195554	-0.633517	0.273137
H96	H	1.365265	-0.575487	0.109798
C97	C	1.669048	-0.334128	-0.179133
C98	C	1.764434	-0.380475	-0.273030
C99	C	1.861925	-0.347121	-0.366917
C100	C	1.864031	-0.267420	-0.366907
C101	C	1.768641	-0.221068	-0.273007
C102	C	1.671149	-0.254422	-0.179120
H103	H	1.762879	-0.439479	-0.273040
H104	H	1.932539	-0.381435	-0.436428
H105	H	1.936200	-0.242729	-0.436408
H106	H	1.770196	-0.162064	-0.272997
H107	H	1.600536	-0.220108	-0.109609
H108	H	1.698214	-0.122616	0.000161
H109	H	1.325567	-0.321348	0.154939
H110	H	1.640241	-0.474253	-0.154767
H111	H	1.686369	-0.569580	0.000081
H112	H	1.682881	-0.701029	0.000034
H113	H	1.267597	-0.672988	-0.000006
H114	H	1.327464	0.187086	0.360965
