data_functionalizedCrystal
_audit_creation_method	'MofGen! by Chris Wilmer'
_symmetry_space_group_name_H-M	'P1'
_symmetry_Int_Tables_number	1
_symmetry_cell_setting	triclinic
loop_
_symmetry_equiv_pos_as_xyz
  x,y,z
_cell_length_a	6.817900
_cell_length_b	11.102244
_cell_length_c	23.753023
_cell_angle_alpha	95.103642
_cell_angle_beta	100.067528
_cell_angle_gamma	108.604870
loop_
_atom_site_label
_atom_site_type_symbol
_atom_site_fract_x
_atom_site_fract_y
_atom_site_fract_z
V1	V	-4.015125	-0.177443	-0.178387
O2	O	-3.975998	0.006876	-0.174992
O3	O	-3.992555	-0.350252	-0.177165
O4	O	-3.949862	-0.175438	-0.256188
O5	O	-4.018987	-0.169148	-0.095423
V6	V	-4.497590	-0.155311	-0.168464
O7	O	-4.278702	-0.225992	-0.200154
O8	O	-4.684210	-0.106762	-0.146697
O9	O	-4.296953	0.017498	-0.169685
O10	O	-4.654114	-0.339630	-0.171858
O11	O	-4.611125	-0.163606	-0.251428
O12	O	-4.339646	-0.157316	-0.090662
C13	C	-3.844386	-0.392356	-0.174351
C14	C	-3.907107	-0.533634	-0.173871
C15	C	-3.904715	-0.581396	-0.121253
C16	C	-3.963660	-0.714144	-0.120808
C17	C	-4.027379	-0.751359	-0.225604
C18	C	-3.968449	-0.618613	-0.226048
C19	C	-3.867919	-0.559911	-0.060750
C20	C	-3.926864	-0.692659	-0.060305
C21	C	-3.789925	-0.169363	-0.275151
C22	C	-3.818021	-0.168867	-0.338754
C23	C	-4.048262	-0.282404	-0.741344
C24	C	-4.074699	-0.281958	-0.801107
O25	O	-4.135852	-0.380770	-0.838967
N26	N	-4.032157	-0.165274	-0.822826
C27	C	-3.963196	-0.049028	-0.784778
O28	O	-3.929440	0.050262	-0.808740
C29	C	-3.936775	-0.049476	-0.725016
C30	C	-3.979301	-0.166167	-0.703301
C31	C	-4.090786	-0.399086	-0.719627
C32	C	-4.064347	-0.399531	-0.659868
C33	C	-3.995386	-0.283295	-0.621825
C34	C	-3.952862	-0.166613	-0.643541
C35	C	-3.867828	0.066767	-0.686970
C36	C	-3.841412	0.066310	-0.627204
C37	C	-3.883938	-0.050382	-0.605489
C38	C	-3.857462	-0.050821	-0.545739
N39	N	-3.900003	-0.167506	-0.524020
C40	C	-3.968965	-0.283742	-0.562063
C41	C	-4.018689	-0.048097	-0.910283
C42	C	-4.045094	-0.047647	-0.970044
C43	C	-4.156599	-0.280578	-0.986369
C44	C	-4.130178	-0.281025	-0.926607
C45	C	-4.061230	-0.164781	-0.888564
C46	C	-3.913436	-0.284669	-0.436563
C47	C	-3.886982	-0.285103	-0.376797
C48	C	-3.775490	-0.052174	-0.360478
C49	C	-3.801931	-0.051738	-0.420238
C50	C	-3.870915	-0.167996	-0.458280
O51	O	-3.796325	0.047939	-0.507845
O52	O	-4.002735	-0.383017	-0.538093
C53	C	-4.108466	0.059595	-0.172498
C54	C	-4.024982	0.200872	-0.172982
C55	C	-4.162926	-0.163396	-0.071696
C56	C	-4.114069	-0.163885	-0.008093
H57	H	-3.970417	-0.579733	-0.268894
C58	C	-3.821049	0.195139	-0.710843
N59	N	-3.785815	0.291836	-0.728823
C60	C	-3.740138	-0.723453	-0.025809
N61	N	-3.599497	-0.746649	0.000170
C62	C	-4.016486	-0.506838	-0.032493
N63	N	-4.128387	-0.466865	-0.011212
C64	C	-4.131393	-0.746232	-0.037805
N65	N	-4.285444	-0.786585	-0.020860
H66	H	-3.921610	-0.380131	-0.359120
H67	H	-4.077329	-0.820564	-0.268085
C68	C	-3.755140	0.076628	-0.444126
N69	N	-3.719916	0.173315	-0.462114
H70	H	-3.785272	0.160972	-0.596232
C71	C	-3.632549	-0.488317	-0.032519
N72	N	-3.455267	-0.434392	-0.011255
H73	H	-3.969604	-0.379337	-0.467530
H74	H	-4.212756	-0.375224	-1.017355
C75	C	-4.111169	-0.527903	-0.635990
N76	N	-4.146454	-0.624600	-0.618009
C77	C	-4.166616	-0.526966	-0.761466
N78	N	-4.223707	-0.623293	-0.792976
H79	H	-4.164808	-0.376046	-0.908931
H80	H	-4.010435	0.047376	-0.987719
C81	C	-3.699629	0.075680	-0.318620
N82	N	-3.642503	0.171980	-0.287090
C83	C	-3.942799	0.079791	-0.868440
N84	N	-3.885637	0.176116	-0.836927
