data_functionalizedCrystal
_audit_creation_method	'MofGen! by Chris Wilmer'
_symmetry_space_group_name_H-M	'P1'
_symmetry_Int_Tables_number	1
_symmetry_cell_setting	triclinic
loop_
_symmetry_equiv_pos_as_xyz
  x,y,z
_cell_length_a	23.532407
_cell_length_b	23.532407
_cell_length_c	9.616153
_cell_angle_alpha	89.993077
_cell_angle_beta	89.995831
_cell_angle_gamma	82.848712
loop_
_atom_site_label
_atom_site_type_symbol
_atom_site_fract_x
_atom_site_fract_y
_atom_site_fract_z
O1	O	0.755262	0.069133	-0.115572
O2	O	1.088595	0.402466	0.217761
O3	O	1.421928	0.735800	0.551095
O4	O	0.589398	0.079136	-0.115596
O5	O	0.922732	0.412469	0.217737
O6	O	1.256065	0.745803	0.551071
O7	O	0.677332	-0.008797	-0.115558
O8	O	1.010665	0.324536	0.217776
O9	O	1.343998	0.657869	0.551109
O10	O	0.667328	0.157066	-0.115610
O11	O	1.000662	0.490400	0.217723
O12	O	1.333995	0.823733	0.551057
O13	O	0.677320	-0.008795	0.115734
O14	O	1.010653	0.324538	0.449067
O15	O	1.343986	0.657871	0.782400
O16	O	0.589386	0.079138	0.115696
O17	O	0.922720	0.412471	0.449029
O18	O	1.256053	0.745805	0.782362
O19	O	0.755250	0.069135	0.115720
O20	O	1.088583	0.402468	0.449053
O21	O	1.421916	0.735802	0.782386
Zn22	Zn	0.672316	0.074137	0.152430
Zn23	Zn	1.005649	0.407470	0.485763
Zn24	Zn	1.338983	0.740803	0.819097
Zn25	Zn	0.672332	0.074134	-0.152306
Zn26	Zn	1.005665	0.407468	0.181027
Zn27	Zn	1.338999	0.740801	0.514360
O28	O	0.667316	0.157068	0.115681
O29	O	1.000650	0.490401	0.449015
O30	O	1.333983	0.823735	0.782348
C31	C	0.568176	0.078882	0.000047
C32	C	0.901510	0.412216	0.333380
C33	C	1.234843	0.745549	0.666714
C34	C	0.504959	0.078116	0.000039
C35	C	0.838293	0.411450	0.333372
C36	C	1.171626	0.744783	0.666706
C37	C	0.238792	0.022921	0.000094
C38	C	0.572125	0.356254	0.333428
C39	C	0.905458	0.689588	0.666761
C40	C	0.298192	0.023632	0.000094
C41	C	0.631525	0.356966	0.333427
C42	C	0.964859	0.690299	0.666760
O43	O	0.334937	-0.020153	0.000156
O44	O	0.668270	0.313180	0.333489
O45	O	1.001603	0.646513	0.666823
N46	N	0.320818	0.075909	0.000068
N47	N	0.654152	0.409242	0.333401
N48	N	0.987485	0.742575	0.666734
C49	C	0.284041	0.127477	0.000057
C50	C	0.617374	0.460810	0.333390
C51	C	0.950707	0.794144	0.666723
O52	O	0.308740	0.172007	0.000036
O53	O	0.642074	0.505341	0.333369
O54	O	0.975407	0.838674	0.666702
C55	C	0.224642	0.126765	0.000067
C56	C	0.557975	0.460098	0.333400
C57	C	0.891308	0.793432	0.666734
C58	C	0.202019	0.074485	0.000079
C59	C	0.535352	0.407819	0.333412
C60	C	0.868686	0.741152	0.666746
C61	C	0.216168	-0.029354	0.000108
C62	C	0.549502	0.303979	0.333441
C63	C	0.882835	0.637312	0.666774
C64	C	0.156772	-0.030066	0.000106
C65	C	0.490106	0.303268	0.333439
C66	C	0.823439	0.636601	0.666772
C67	C	0.119999	0.021499	0.000090
C68	C	0.453333	0.354832	0.333424
C69	C	0.786666	0.688165	0.666757
C70	C	0.142623	0.073774	0.000077
C71	C	0.475956	0.407107	0.333410
C72	C	0.809289	0.740441	0.666744
C73	C	0.187865	0.178333	0.000066
C74	C	0.521199	0.511666	0.333399
C75	C	0.854532	0.844999	0.666733
C76	C	0.128463	0.177616	0.000077
C77	C	0.461796	0.510949	0.333411
C78	C	0.795129	0.844283	0.666744
C79	C	0.105840	0.125336	0.000089
C80	C	0.439173	0.458670	0.333423
C81	C	0.772507	0.792003	0.666756
C82	C	0.046454	0.124627	0.000060
C83	C	0.379787	0.457960	0.333393
C84	C	0.713120	0.791294	0.666726
N85	N	0.023828	0.072351	0.000086
N86	N	0.357161	0.405684	0.333419
N87	N	0.690494	0.739017	0.666752
C88	C	0.060600	0.020787	0.000101
C89	C	0.393934	0.354120	0.333434
C90	C	0.727267	0.687453	0.666768
C91	C	0.408783	0.128968	0.000037
C92	C	0.742117	0.462302	0.333370
C93	C	1.075450	0.795635	0.666704
C94	C	0.468181	0.129681	0.000016
C95	C	0.801514	0.463014	0.333350
C96	C	1.134848	0.796348	0.666683
C97	C	0.482328	0.025836	0.000056
C98	C	0.815662	0.359170	0.333390
C99	C	1.148995	0.692503	0.666723
C100	C	0.422929	0.025124	0.000067
C101	C	0.756263	0.358457	0.333400
C102	C	1.089596	0.691791	0.666733
C103	C	0.386157	0.076692	0.000063
C104	C	0.719490	0.410025	0.333396
C105	C	1.052824	0.743359	0.666730
C106	C	-0.064136	0.019297	0.000096
C107	C	0.269197	0.352630	0.333429
C108	C	0.602530	0.685964	0.666762
C109	C	-0.123538	0.018590	0.000088
C110	C	0.209795	0.351924	0.333421
C111	C	0.543128	0.685257	0.666754
C112	C	-0.137680	0.122435	0.000055
C113	C	0.195653	0.455768	0.333389
C114	C	0.528986	0.789101	0.666722
C115	C	-0.078284	0.123142	0.000056
C116	C	0.255050	0.456475	0.333389
C117	C	0.588383	0.789808	0.666722
C118	C	-0.041512	0.071568	0.000081
C119	C	0.291821	0.404901	0.333414
C120	C	0.625154	0.738235	0.666747
O121	O	0.009675	0.168390	0.000003
O122	O	0.343008	0.501723	0.333337
O123	O	0.676341	0.835057	0.666670
O124	O	0.035892	-0.023737	0.000140
O125	O	0.369226	0.309597	0.333473
O126	O	0.702559	0.642930	0.666807
C127	C	0.677071	-0.030012	0.000092
C128	C	1.010404	0.303321	0.333425
C129	C	1.343738	0.636654	0.666758
C130	C	0.676305	-0.093229	0.000102
C131	C	1.009638	0.240104	0.333435
C132	C	1.342972	0.573437	0.666769
C133	C	0.723538	-0.492332	0.000033
C134	C	1.056872	-0.158999	0.333366
C135	C	1.390205	0.174334	0.666699
C136	C	0.722827	-0.551733	0.000022
C137	C	1.056160	-0.218399	0.333355
C138	C	1.389494	0.114934	0.666689
O139	O	0.766613	-0.588477	-0.000023
O140	O	1.099946	-0.255144	0.333310
O141	O	1.433280	0.078190	0.666644
N142	N	0.670551	-0.574359	0.000016
N143	N	1.003884	-0.241025	0.333349
N144	N	1.337217	0.092308	0.666682
C145	C	0.618982	-0.537581	0.000006
C146	C	0.952316	-0.204248	0.333339
C147	C	1.285649	0.129085	0.666672
O148	O	0.574452	-0.562281	-0.000002
O149	O	0.907785	-0.228948	0.333331
O150	O	1.241119	0.104386	0.666664
C151	C	0.619695	-0.478182	0.000006
C152	C	0.953028	-0.144849	0.333340
C153	C	1.286361	0.188485	0.666673
C154	C	0.671974	-0.455559	0.000027
C155	C	1.005308	-0.122226	0.333360
C156	C	1.338641	0.211107	0.666694
C157	C	0.775814	-0.469709	0.000052
C158	C	1.109147	-0.136376	0.333385
C159	C	1.442481	0.196958	0.666719
C160	C	0.776525	-0.410313	0.000065
C161	C	1.109858	-0.076980	0.333398
C162	C	1.443192	0.256354	0.666732
C163	C	0.724961	-0.373540	0.000059
C164	C	1.058294	-0.040207	0.333393
C165	C	1.391628	0.293127	0.666726
C166	C	0.672685	-0.396163	0.000040
C167	C	1.006019	-0.062830	0.333373
C168	C	1.339352	0.270503	0.666707
C169	C	0.568127	-0.441406	-0.000014
C170	C	0.901460	-0.108072	0.333320
C171	C	1.234794	0.225261	0.666653
C172	C	0.568843	-0.382003	-0.000014
C173	C	0.902177	-0.048670	0.333319
C174	C	1.235510	0.284663	0.666653
C175	C	0.621123	-0.359381	0.000007
C176	C	0.954457	-0.026047	0.333340
C177	C	1.287790	0.307286	0.666673
C178	C	0.621832	-0.299994	0.000048
C179	C	0.955166	0.033339	0.333381
C180	C	1.288499	0.366672	0.666714
N181	N	0.674109	-0.277368	0.000054
N182	N	1.007442	0.055965	0.333387
N183	N	1.340775	0.389299	0.666721
C184	C	0.725673	-0.314141	0.000060
C185	C	1.059006	0.019192	0.333393
C186	C	1.392340	0.352526	0.666727
C187	C	0.617491	-0.662324	0.000002
C188	C	0.950824	-0.328990	0.333335
C189	C	1.284158	0.004343	0.666668
C190	C	0.616778	-0.721722	0.000011
C191	C	0.950112	-0.388388	0.333344
C192	C	1.283445	-0.055055	0.666677
C193	C	0.720623	-0.735869	0.000025
C194	C	1.053957	-0.402536	0.333358
C195	C	1.387290	-0.069202	0.666691
C196	C	0.721335	-0.676470	0.000025
C197	C	1.054669	-0.343137	0.333359
C198	C	1.388002	-0.009803	0.666692
C199	C	0.669767	-0.639698	0.000008
C200	C	1.003101	-0.306364	0.333341
C201	C	1.336434	0.026969	0.666675
C202	C	0.727163	-0.189404	0.000089
C203	C	1.060496	0.143929	0.333422
C204	C	1.393829	0.477262	0.666756
C205	C	0.727869	-0.130002	0.000108
C206	C	1.061203	0.203331	0.333441
C207	C	1.394536	0.536664	0.666775
C208	C	0.624025	-0.115860	0.000087
C209	C	0.957358	0.217473	0.333420
C210	C	1.290691	0.550807	0.666753
C211	C	0.623318	-0.175257	0.000075
C212	C	0.956651	0.158076	0.333408
C213	C	1.289984	0.491410	0.666742
C214	C	0.674891	-0.212028	0.000071
C215	C	1.008225	0.121305	0.333405
C216	C	1.341558	0.454639	0.666738
O217	O	0.578069	-0.263215	0.000087
O218	O	0.911403	0.070118	0.333420
O219	O	1.244736	0.403452	0.666753
O220	O	0.770196	-0.289433	0.000050
O221	O	1.103529	0.043900	0.333383
O222	O	1.436863	0.377234	0.666716
C223	C	0.776472	0.069389	0.000073
C224	C	1.109805	0.402722	0.333407
C225	C	1.443138	0.736055	0.666740
C226	C	0.839689	0.070155	0.000072
C227	C	1.173022	0.403488	0.333406
C228	C	1.506355	0.736821	0.666739
C229	C	0.667577	0.178283	0.000029
C230	C	1.000910	0.511617	0.333362
C231	C	1.334244	0.844950	0.666696
C232	C	0.668343	0.241500	0.000009
C233	C	1.001676	0.574834	0.333343
C234	C	1.335010	0.908167	0.666676
N235	N	0.672309	0.074138	0.360405
N236	N	1.005643	0.407472	0.693738
N237	N	1.338976	0.740805	1.027071
N238	N	0.672343	0.074128	-0.360281
N239	N	1.005676	0.407462	-0.026948
N240	N	1.339010	0.740795	0.306386
C241	C	0.625132	0.121023	0.580754
C242	C	0.958465	0.454356	0.914088
C243	C	1.291798	0.787690	1.247421
C244	C	0.625232	0.121195	0.419587
C245	C	0.958565	0.454528	0.752920
C246	C	1.291898	0.787861	1.086253
C247	C	0.731662	0.086782	0.418858
C248	C	1.064995	0.420115	0.752191
C249	C	1.398329	0.753449	1.085524
C250	C	0.731404	0.087113	0.580075
C251	C	1.064737	0.420446	0.913409
C252	C	1.398071	0.753780	1.246742
C253	C	0.660730	0.014449	0.580333
C254	C	0.994063	0.347782	0.913666
C255	C	1.327397	0.681116	1.247000
C256	C	0.659357	0.014857	0.419106
C257	C	0.992691	0.348191	0.752439
C258	C	1.326024	0.681524	1.085773
H259	H	0.138359	-0.072637	0.000121
H260	H	0.471692	0.260696	0.333455
H261	H	0.805026	0.594030	0.666788
H262	H	0.741689	0.130626	0.617651
H263	H	1.075022	0.463960	0.950985
H264	H	1.408355	0.797293	1.284318
H265	H	0.525555	-0.459814	-0.000039
H266	H	0.858889	-0.126481	0.333294
H267	H	1.192222	0.206853	0.666628
O268	O	-0.147938	-0.037800	0.000103
O269	O	0.185395	0.295534	0.333437
O270	O	0.518728	0.628867	0.666770
H271	H	-0.174669	-0.040604	0.094370
H272	H	0.158665	0.292729	0.427703
H273	H	0.491998	0.626063	0.761036
H274	H	0.632409	0.165068	0.621240
H275	H	0.965742	0.498401	0.954573
H276	H	1.299075	0.831735	1.287907
O277	O	0.369126	0.184594	0.000012
O278	O	0.702460	0.517928	0.333345
O279	O	1.035793	0.851261	0.666678
H280	H	0.341728	0.186763	0.094292
H281	H	0.675062	0.520097	0.427625
H282	H	1.008395	0.853430	0.760959
H283	H	-0.034204	-0.022699	0.000115
H284	H	0.299130	0.310634	0.333449
H285	H	0.632463	0.643967	0.666782
H286	H	0.819097	-0.391900	0.000076
H287	H	1.152430	-0.058566	0.333410
H288	H	1.485763	0.274767	0.666743
H289	H	0.098525	0.219610	0.000081
H290	H	0.431858	0.552943	0.333414
H291	H	0.765191	0.886277	0.666747
O292	O	0.566488	0.111286	0.632153
O293	O	0.899822	0.444620	0.965486
O294	O	1.233155	0.777953	1.298820
H295	H	0.547419	0.149305	0.691894
H296	H	0.880752	0.482638	1.025228
H297	H	1.214086	0.815972	1.358561
H298	H	0.695163	-0.020445	0.618464
H299	H	1.028496	0.312889	0.951797
H300	H	1.361829	0.646222	1.285131
O301	O	-0.177351	0.178047	0.000062
O302	O	0.155982	0.511380	0.333395
O303	O	0.489315	0.844714	0.666728
H304	H	-0.204757	0.180206	-0.094195
H305	H	0.128576	0.513540	0.239138
H306	H	0.461909	0.846873	0.572471
H307	H	0.769159	-0.219337	0.000081
H308	H	1.102492	0.113996	0.333414
H309	H	1.435825	0.447330	0.666747
O310	O	0.779289	0.042729	0.368075
O311	O	1.112623	0.376062	0.701408
O312	O	1.445956	0.709395	1.034742
H313	H	0.801024	0.020225	0.458578
H314	H	1.134358	0.353558	0.791911
H315	H	1.467691	0.686891	1.125244
O316	O	0.212257	0.234720	0.000088
O317	O	0.545591	0.568054	0.333422
O318	O	0.878924	0.901387	0.666755
H319	H	0.176699	0.270450	0.000108
H320	H	0.510033	0.603784	0.333441
H321	H	0.843366	0.937117	0.666774
O322	O	0.492575	0.186070	-0.000016
O323	O	0.825908	0.519404	0.333318
O324	O	1.159241	0.852737	0.666651
H325	H	0.540057	0.177909	-0.000024
H326	H	0.873390	0.511242	0.333309
H327	H	1.206724	0.844576	0.666643
O328	O	-0.053877	0.179527	0.000038
O329	O	0.279456	0.512860	0.333372
O330	O	0.612789	0.846193	0.666705
H331	H	-0.089430	0.215262	0.000033
H332	H	0.243904	0.548596	0.333367
H333	H	0.577237	0.881929	0.666700
H334	H	0.246104	-0.071347	0.000125
H335	H	0.579437	0.261987	0.333458
H336	H	0.912771	0.595320	0.666792
H337	H	0.817806	-0.499644	0.000051
H338	H	1.151140	-0.166311	0.333385
H339	H	1.484473	0.167022	0.666718
O340	O	0.398529	-0.031262	0.000103
O341	O	0.731863	0.302071	0.333437
O342	O	1.065196	0.635405	0.666770
H343	H	0.434085	-0.066995	0.000123
H344	H	0.767418	0.266338	0.333456
H345	H	1.100751	0.599672	0.666789
H346	H	0.615699	0.005254	0.380903
H347	H	0.949032	0.338587	0.714236
H348	H	1.282365	0.671920	1.047570
O349	O	0.784258	-0.105601	0.000109
O350	O	1.117592	0.227733	0.333442
O351	O	1.450925	0.561066	0.666775
H352	H	0.819993	-0.141154	0.000090
H353	H	1.153326	0.192179	0.333423
H354	H	1.486660	0.525513	0.666756
H355	H	0.742198	0.129799	0.378455
H356	H	1.075531	0.463132	0.711789
H357	H	1.408864	0.796465	1.045122
O358	O	0.777721	-0.652070	0.000022
O359	O	1.111055	-0.318737	0.333355
O360	O	1.444388	0.014597	0.666688
H361	H	0.813454	-0.687625	0.000014
H362	H	1.146788	-0.354292	0.333348
H363	H	1.480121	-0.020959	0.666681
H364	H	0.512280	-0.016150	0.000069
H365	H	0.845613	0.317183	0.333402
H366	H	1.178947	0.650516	0.666736
H367	H	0.581103	0.113711	0.380068
H368	H	0.914436	0.447044	0.713402
H369	H	1.247770	0.780377	1.046735
H370	H	0.618412	0.002207	0.621068
H371	H	0.951745	0.335540	0.954402
H372	H	1.285078	0.668873	1.287735
O373	O	0.568413	-0.076189	0.000083
O374	O	0.901746	0.257144	0.333416
O375	O	1.235079	0.590478	0.666750
H376	H	0.531937	-0.101895	0.000079
H377	H	0.865271	0.231438	0.333413
H378	H	1.198604	0.564772	0.666746
O379	O	0.560389	-0.746115	0.000007
O380	O	0.893722	-0.412782	0.333340
O381	O	1.227056	-0.079448	0.666674
H382	H	0.557572	-0.772840	0.094280
H383	H	0.890905	-0.439507	0.427614
H384	H	1.224238	-0.106174	0.760947
H385	H	0.762610	-0.765821	0.000024
H386	H	1.095943	-0.432487	0.333358
H387	H	1.429276	-0.099154	0.666691
O388	O	0.561868	-0.622662	0.000020
O389	O	0.895202	-0.289329	0.333353
O390	O	1.228535	0.044005	0.666687
H391	H	0.525402	-0.648380	0.000033
H392	H	0.858735	-0.315046	0.333366
H393	H	1.192069	0.018287	0.666700
O394	O	0.635007	0.179866	0.368445
O395	O	0.968340	0.513199	0.701779
O396	O	1.301673	0.846532	1.035112
H397	H	0.639687	0.208225	0.458866
H398	H	0.973020	0.541558	0.792199
H399	H	1.306354	0.874891	1.125532
O400	O	0.779317	0.043575	0.631754
O401	O	1.112650	0.376909	0.965087
O402	O	1.445983	0.710242	1.298421
H403	H	0.772717	0.000440	0.593105
H404	H	1.106050	0.333774	0.926439
H405	H	1.439383	0.667107	1.259772
H406	H	0.526850	-0.352065	-0.000030
H407	H	0.860183	-0.018732	0.333303
H408	H	1.193516	0.314601	0.666636
H409	H	0.580747	-0.193677	0.000097
H410	H	0.914081	0.139656	0.333430
H411	H	1.247414	0.472990	0.666764
O412	O	0.701983	-0.033502	0.365792
O413	O	1.035317	0.299831	0.699125
O414	O	1.368650	0.633165	1.032458
H415	H	0.733207	-0.015961	0.296317
H416	H	1.066540	0.317372	0.629650
H417	H	1.399873	0.650706	0.962984
