data_functionalizedCrystal
_audit_creation_method	'MofGen! by Chris Wilmer'
_symmetry_space_group_name_H-M	'P1'
_symmetry_Int_Tables_number	1
_symmetry_cell_setting	triclinic
loop_
_symmetry_equiv_pos_as_xyz
  x,y,z
_cell_length_a	10.723024
_cell_length_b	14.519731
_cell_length_c	9.198806
_cell_angle_alpha	89.995832
_cell_angle_beta	89.996352
_cell_angle_gamma	84.078361
loop_
_atom_site_label
_atom_site_type_symbol
_atom_site_fract_x
_atom_site_fract_y
_atom_site_fract_z
O1	O	1.655992	0.129346	-0.120887
O2	O	2.155992	0.629346	0.379113
O3	O	1.292725	0.141727	-0.120892
O4	O	1.792725	0.641727	0.379108
O5	O	1.483976	0.001349	-0.120876
O6	O	1.983976	0.501349	0.379124
O7	O	1.464740	0.269725	-0.120903
O8	O	1.964740	0.769725	0.379097
O9	O	1.483961	0.001348	0.120909
O10	O	1.983961	0.501348	0.620909
O11	O	1.292710	0.141727	0.120893
O12	O	1.792710	0.641727	0.620893
O13	O	1.655976	0.129346	0.120898
O14	O	2.155976	0.629346	0.620898
Cu15	Cu	1.474342	0.135536	0.142973
Cu16	Cu	1.974342	0.635536	0.642973
Cu17	Cu	1.474360	0.135537	-0.142966
Cu18	Cu	1.974360	0.635537	0.357034
O19	O	1.464725	0.269724	0.120882
O20	O	1.964725	0.769724	0.620882
C21	C	1.246226	0.140826	0.000000
C22	C	1.746226	0.640826	0.500000
C23	C	1.107697	0.138130	-0.000002
C24	C	1.607697	0.638130	0.499998
C25	C	1.483067	-0.033016	0.000017
C26	C	1.983067	0.466984	0.500017
C27	C	1.480366	-0.135410	0.000018
C28	C	1.980366	0.364590	0.500018
C29	C	1.031987	0.216679	-0.000010
C30	C	1.531987	0.716679	0.499990
C31	C	0.888810	0.213894	-0.000012
C32	C	1.388810	0.713894	0.499988
C33	C	1.478172	-0.218565	0.000014
C34	C	1.978172	0.281435	0.500014
C35	C	1.475429	-0.322888	0.000003
C36	C	1.975429	0.177112	0.500003
C37	C	1.473253	-0.406038	-0.000006
C38	C	1.973253	0.093962	0.499994
C39	C	1.470511	-0.510367	-0.000015
C40	C	1.970511	-0.010367	0.499985
C41	C	1.702475	0.130247	0.000003
C42	C	2.202475	0.630247	0.500003
C43	C	1.841005	0.132943	-0.000005
C44	C	2.341005	0.632943	0.499995
C45	C	1.465634	0.304089	-0.000014
C46	C	1.965634	0.804089	0.499986
C47	C	1.468335	0.406483	-0.000024
C48	C	1.968335	0.906483	0.499976
N49	N	1.474338	0.135535	0.344087
N50	N	1.974338	0.635535	0.844087
N51	N	1.474373	0.135530	-0.344080
N52	N	1.974373	0.635530	0.155920
C53	C	1.554641	0.076335	0.416290
C54	C	2.054641	0.576335	0.916290
C55	C	1.554661	0.076331	0.583703
C56	C	2.054661	0.576331	1.083703
H57	H	1.073169	0.285988	-0.000009
H58	H	1.573169	0.785988	0.499991
H59	H	1.066515	0.068821	-0.000032
H60	H	1.566515	0.568821	0.499968
C61	C	1.721691	-0.046832	0.431215
C62	C	2.221691	0.453168	0.931215
C63	C	1.647437	0.007910	0.332443
C64	C	2.147437	0.507910	0.832443
H65	H	1.778975	-0.089079	0.379450
H66	H	2.278975	0.410921	0.879450
H67	H	1.766876	-0.008280	0.490562
H68	H	2.266876	0.491720	0.990562
H69	H	1.669577	-0.080273	0.490603
H70	H	2.169577	0.419727	0.990603
H71	H	1.699550	0.041356	0.273061
H72	H	2.199550	0.541356	0.773061
H73	H	1.602249	-0.030647	0.273070
H74	H	2.102249	0.469353	0.773070
C75	C	1.448167	0.260779	0.484579
C76	C	1.948167	0.760779	0.984579
C77	C	1.381554	0.203960	0.572117
C78	C	1.881554	0.703960	1.072117
H79	H	1.390863	0.303020	0.432830
H80	H	1.890863	0.803020	0.932830
H81	H	1.500269	0.294219	0.543947
H82	H	2.000269	0.794219	1.043947
H83	H	1.498532	0.223630	0.417576
H84	H	1.998532	0.723630	0.917576
H85	H	1.331197	0.241109	0.639127
H86	H	1.831197	0.741109	1.139127
H87	H	1.329431	0.170518	0.512744
H88	H	1.829431	0.670518	1.012744
C89	C	0.676159	0.284347	-0.000019
C90	C	1.176159	0.784347	0.499981
C91	C	0.800998	0.304677	-0.000021
C92	C	1.300998	0.804677	0.499979
H93	H	0.621948	0.340396	-0.000016
H94	H	1.121948	0.840396	0.499984
H95	H	0.660934	0.249439	-0.084328
H96	H	1.160934	0.749439	0.415672
H97	H	0.660927	0.249430	0.084305
H98	H	1.160927	0.749430	0.584305
H99	H	0.816233	0.339588	-0.084351
H100	H	1.316233	0.839588	0.415649
H101	H	0.816229	0.339600	0.084296
H102	H	1.316229	0.839600	0.584296
C103	C	1.004552	0.038562	-0.124286
C104	C	1.504552	0.538562	0.375714
C105	C	0.928811	0.042157	0.000004
C106	C	1.428811	0.542157	0.500004
H107	H	1.058770	-0.017483	-0.124273
H108	H	1.558770	0.482517	0.375727
H109	H	0.953170	0.041009	-0.208585
H110	H	1.453170	0.541009	0.291415
H111	H	1.053096	0.089715	-0.124276
H112	H	1.553096	0.589715	0.375724
H113	H	0.880259	-0.008993	-0.000011
H114	H	1.380259	0.491007	0.499989
H115	H	0.980198	0.039701	0.084325
H116	H	1.480198	0.539701	0.584325
H117	H	1.623416	0.025650	0.645795
H118	H	2.123416	0.525650	1.145795
H119	H	1.405597	0.186214	0.406209
H120	H	1.905597	0.686214	0.906209
