data_functionalizedCrystal
_audit_creation_method	'MofGen! by Chris Wilmer'
_symmetry_space_group_name_H-M	'P1'
_symmetry_Int_Tables_number	1
_symmetry_cell_setting	triclinic
loop_
_symmetry_equiv_pos_as_xyz
  x,y,z
_cell_length_a	19.188930
_cell_length_b	10.540539
_cell_length_c	18.266242
_cell_angle_alpha	89.995837
_cell_angle_beta	89.977082
_cell_angle_gamma	83.835136
loop_
_atom_site_label
_atom_site_type_symbol
_atom_site_fract_x
_atom_site_fract_y
_atom_site_fract_z
O1	O	-0.927206	-0.158472	0.061113
O2	O	-0.427206	0.341528	0.561113
O3	O	-0.724037	-0.179804	0.061063
O4	O	-0.224037	0.320196	0.561063
O5	O	-0.830256	0.015671	0.061088
O6	O	-0.330256	0.515671	0.561088
O7	O	-0.820986	-0.353947	0.061088
O8	O	-0.320986	0.146053	0.561088
O9	O	-0.830238	0.015681	-0.060674
O10	O	-0.330238	0.515681	0.439326
O11	O	-0.724018	-0.179794	-0.060699
O12	O	-0.224018	0.320206	0.439301
O13	O	-0.927187	-0.158462	-0.060649
O14	O	-0.427187	0.341538	0.439351
Zn15	Zn	-0.825600	-0.169126	-0.080006
Zn16	Zn	-0.325600	0.330874	0.419994
Zn17	Zn	-0.825624	-0.169140	0.080420
Zn18	Zn	-0.325624	0.330860	0.580420
O19	O	-0.820968	-0.353937	-0.060674
O20	O	-0.320968	0.146063	0.439326
C21	C	-0.698012	-0.179108	0.000175
C22	C	-0.198012	0.320892	0.500175
C23	C	-0.620494	-0.177035	0.000156
C24	C	-0.120494	0.322965	0.500156
C25	C	-0.829552	0.062963	0.000208
C26	C	-0.329552	0.562963	0.500208
C27	C	-0.827472	0.203866	0.000212
C28	C	-0.327472	0.703866	0.500212
C29	C	-0.953212	-0.159157	0.000240
C30	C	-0.453212	0.340843	0.500240
C31	C	-1.030731	-0.161231	0.000264
C32	C	-0.530731	0.338769	0.500264
C33	C	-0.576334	-0.291733	0.000167
C34	C	-0.076334	0.208267	0.500167
C35	C	-0.503497	-0.289785	0.000175
C36	C	-0.003497	0.210215	0.500175
C37	C	-0.474823	-0.173132	0.000187
C38	C	0.025177	0.326868	0.500187
C39	C	-0.518992	-0.058418	0.000171
C40	C	-0.018992	0.441582	0.500171
C41	C	-0.591827	-0.060370	0.000156
C42	C	-0.091827	0.439630	0.500156
N43	N	-0.366255	-0.083968	0.041657
N44	N	0.133745	0.416032	0.541657
N45	N	-0.297064	-0.082122	0.041673
N46	N	0.202936	0.417878	0.541673
C47	C	-0.255375	-0.167245	0.000232
C48	C	0.244625	0.332755	0.500232
N49	N	-0.285490	-0.254302	-0.041218
N50	N	0.214510	0.245698	0.458782
N51	N	-0.354687	-0.256152	-0.041231
N52	N	0.145313	0.243848	0.458769
C53	C	-0.395846	-0.171003	0.000203
C54	C	0.104154	0.328997	0.500203
C55	C	-0.132237	-0.279839	0.000251
C56	C	0.367763	0.220161	0.500251
C57	C	-0.059400	-0.277885	0.000254
C58	C	0.440600	0.222115	0.500254
C59	C	-0.074896	-0.046516	0.000257
C60	C	0.425104	0.453484	0.500257
C61	C	-0.147732	-0.048472	0.000247
C62	C	0.352268	0.451528	0.500247
C63	C	-0.176398	-0.165137	0.000247
C64	C	0.323602	0.334863	0.500247
C65	C	-0.821672	-0.401229	0.000207
C66	C	-0.321672	0.098771	0.500207
C67	C	-0.823752	-0.542132	0.000209
C68	C	-0.323752	-0.042132	0.500209
N69	N	-0.825589	-0.169117	-0.189493
N70	N	-0.325589	0.330883	0.310507
C71	C	-0.747771	0.385536	0.000465
C72	C	-0.247771	0.885536	0.500465
C73	C	-0.749879	0.238965	0.000192
C74	C	-0.249879	0.738965	0.500192
C75	C	-0.864803	0.266352	-0.069311
C76	C	-0.364803	0.766352	0.430689
C77	C	-0.862155	0.412838	-0.069370
C78	C	-0.362155	0.912838	0.430630
C79	C	-0.863753	0.413380	0.069096
C80	C	-0.363753	0.913380	0.569096
C81	C	-0.864468	0.266413	0.070016
C82	C	-0.364468	0.766413	0.570016
C83	C	-0.872639	-0.082603	-0.227791
C84	C	-0.372639	0.417397	0.272209
C85	C	-0.872643	-0.082597	-0.304436
C86	C	-0.372643	0.417403	0.195564
C87	C	-0.825604	-0.169127	-0.342780
C88	C	-0.325604	0.330873	0.157220
C89	C	-0.778546	-0.255647	-0.304473
C90	C	-0.278546	0.244353	0.195527
C91	C	-0.778538	-0.255642	-0.227830
C92	C	-0.278538	0.244358	0.272170
N93	N	-0.817278	-0.281492	-0.463114
N94	N	-0.317278	0.218508	0.036886
N95	N	-0.817289	-0.281493	-0.535922
N96	N	-0.317289	0.218507	-0.035922
C97	C	-0.825624	-0.169145	-0.573703
C98	C	-0.325624	0.330855	-0.073703
N99	N	-0.833960	-0.056793	-0.535924
N100	N	-0.333960	0.443207	-0.035924
N101	N	-0.833952	-0.056793	-0.463110
N102	N	-0.333952	0.443207	0.036890
C103	C	-0.825607	-0.169141	-0.425887
C104	C	-0.325607	0.330859	0.074113
C105	C	-0.872681	-0.082617	-0.695107
C106	C	-0.372681	0.417383	-0.195107
C107	C	-0.872681	-0.082610	-0.771754
C108	C	-0.372681	0.417390	-0.271754
C109	C	-0.778587	-0.255671	-0.771790
C110	C	-0.278587	0.244329	-0.271790
C111	C	-0.778584	-0.255668	-0.695145
C112	C	-0.278584	0.244332	-0.195145
C113	C	-0.825635	-0.169142	-0.656808
C114	C	-0.325635	0.330858	-0.156808
N115	N	-0.825641	-0.169139	0.189907
N116	N	-0.325641	0.330861	0.689907
H117	H	-0.599669	-0.386731	0.000169
H118	H	-0.099669	0.113269	0.500169
Br119	Br	-0.957165	0.494149	0.069901
Br120	Br	-0.457165	0.994149	0.569901
Br121	Br	-0.700921	0.166863	0.083255
Br122	Br	-0.200921	0.666863	0.583255
Br123	Br	-0.443555	-0.445458	0.000186
Br124	Br	0.056445	0.054542	0.500186
H125	H	-0.717237	0.415075	-0.049126
H126	H	-0.217237	0.915075	0.450874
H127	H	-0.495641	0.036562	0.000191
H128	H	0.004359	0.536562	0.500191
H129	H	-0.183688	0.044928	0.000241
H130	H	0.316312	0.544928	0.500241
H131	H	-0.627783	0.033035	0.000147
H132	H	-0.127783	0.533035	0.500147
H133	H	-0.720284	0.196561	-0.049742
H134	H	-0.220284	0.696561	0.450258
Br135	Br	-0.821559	0.194410	-0.155568
Br136	Br	-0.321559	0.694410	0.344432
Br137	Br	-0.936533	0.034822	-0.823733
Br138	Br	-0.436533	0.534822	-0.323733
H139	H	-0.155578	-0.374834	0.000240
H140	H	0.344422	0.125166	0.500240
Br141	Br	-0.696691	0.432064	0.083562
Br142	Br	-0.196691	0.932064	0.583562
Br143	Br	-0.936489	0.034826	-0.175762
Br144	Br	-0.436489	0.534826	0.324238
H145	H	-0.910958	-0.012144	-0.335623
H146	H	-0.410958	0.487856	0.164377
H147	H	-0.740284	-0.326121	-0.803009
H148	H	-0.240284	0.173879	-0.303009
Br149	Br	0.000534	-0.433562	0.000263
Br150	Br	0.500534	0.066438	0.500263
H151	H	-0.834550	0.440434	-0.121354
H152	H	-0.334550	0.940434	0.378646
H153	H	-0.051551	0.048466	0.000312
H154	H	0.448449	0.548466	0.500312
H155	H	-0.740223	-0.326094	-0.196647
H156	H	-0.240223	0.173906	0.303353
Br157	Br	-0.714701	-0.373074	-0.356509
Br158	Br	-0.214701	0.126926	0.143491
Br159	Br	-0.955160	0.494846	-0.074614
Br160	Br	-0.455160	0.994846	0.425386
Br161	Br	-0.819332	0.196487	0.155753
Br162	Br	-0.319332	0.696487	0.655753
H163	H	-0.921040	0.243438	0.074229
H164	H	-0.421040	0.743438	0.574229
H165	H	-0.910991	-0.012159	-0.663892
H166	H	-0.410991	0.487841	-0.163892
H167	H	-0.740274	-0.326121	-0.663961
H168	H	-0.240274	0.173879	-0.163961
Br169	Br	-0.959777	0.231195	-0.073601
Br170	Br	-0.459777	0.731195	0.426399
H171	H	-0.838648	0.444375	0.121791
H172	H	-0.338648	0.944375	0.621791
