data_functionalizedCrystal
_audit_creation_method	'MofGen! by Chris Wilmer'
_symmetry_space_group_name_H-M	'P1'
_symmetry_Int_Tables_number	1
_symmetry_cell_setting	triclinic
loop_
_symmetry_equiv_pos_as_xyz
  x,y,z
_cell_length_a	15.944551
_cell_length_b	14.044220
_cell_length_c	12.503572
_cell_angle_alpha	86.164750
_cell_angle_beta	86.471578
_cell_angle_gamma	91.656193
loop_
_atom_site_label
_atom_site_type_symbol
_atom_site_fract_x
_atom_site_fract_y
_atom_site_fract_z
O1	O	-0.198063	1.263177	-0.089184
O2	O	0.301937	1.763177	0.410816
O3	O	-0.190754	0.987209	-0.089212
O4	O	0.309246	1.487209	0.410788
O5	O	-0.072698	1.132729	-0.089204
O6	O	0.427302	1.632729	0.410796
O7	O	-0.316119	1.117656	-0.089193
O8	O	0.183881	1.617656	0.410807
O9	O	-0.081592	1.121785	0.089437
O10	O	0.418408	1.621785	0.589437
O11	O	-0.199649	0.976265	0.089429
O12	O	0.300351	1.476265	0.589429
O13	O	-0.206958	1.252233	0.089457
O14	O	0.293042	1.752233	0.589457
Cu15	Cu	-0.204115	1.113250	0.105754
Cu16	Cu	0.295885	1.613250	0.605754
Cu17	Cu	-0.193596	1.126192	-0.105510
Cu18	Cu	0.306404	1.626192	0.394490
O19	O	-0.325014	1.106712	0.089448
O20	O	0.174986	1.606712	0.589448
C21	C	-0.192002	0.946423	0.000104
C22	C	0.307998	1.446423	0.500104
C23	C	-0.182461	0.841197	0.000093
C24	C	0.317539	1.341197	0.500093
C25	C	-0.165018	0.648533	0.000114
C26	C	0.334982	1.148533	0.500114
C27	C	-0.232689	0.590904	0.000121
C28	C	0.267311	1.090904	0.500121
C29	C	-0.222984	0.483699	0.000133
C30	C	0.277016	0.983699	0.500133
C31	C	-0.174722	0.755748	0.000102
C32	C	0.325278	1.255748	0.500102
C33	C	-0.351908	1.112810	0.000129
C34	C	0.148092	1.612810	0.500129
C35	C	-0.445294	1.114686	0.000134
C36	C	0.054706	1.614686	0.500134
C37	C	-0.667240	1.209371	0.000127
C38	C	-0.167240	1.709371	0.500127
C39	C	-0.729350	1.160006	0.088203
C40	C	-0.229350	1.660006	0.588203
C41	C	-0.616274	1.118080	0.000125
C42	C	-0.116274	1.618080	0.500125
C43	C	-0.720564	1.170775	-0.087923
C44	C	-0.220564	1.670775	0.412077
C45	C	-0.781432	1.121365	0.000111
C46	C	-0.281432	1.621365	0.500111
C47	C	-0.677157	1.068686	0.088274
C48	C	-0.177157	1.568686	0.588274
C49	C	-0.668362	1.079472	-0.087932
C50	C	-0.168362	1.579472	0.412068
C51	C	-0.730450	1.030040	0.000166
C52	C	-0.230450	1.530040	0.500166
C53	C	-0.521130	1.116190	0.000134
C54	C	-0.021130	1.616190	0.500134
C55	C	-0.876574	1.123248	0.000110
C56	C	-0.376574	1.623248	0.500110
C57	C	-0.045804	1.126632	0.000113
C58	C	0.454196	1.626632	0.500113
C59	C	0.047583	1.124757	0.000101
C60	C	0.547583	1.624757	0.500101
C61	C	-0.205709	1.293019	0.000138
C62	C	0.294291	1.793019	0.500138
C63	C	-0.215251	1.398246	0.000142
C64	C	0.284749	1.898246	0.500142
N65	N	-0.211514	1.104153	0.254346
N66	N	0.288486	1.604153	0.754346
N67	N	-0.186192	1.135296	-0.254102
N68	N	0.313808	1.635296	0.245898
C69	C	-0.222404	1.090773	0.473460
C70	C	0.277596	1.590773	0.973460
C71	C	-0.175304	1.148674	0.526791
C72	C	0.324696	1.648674	1.026791
C73	C	-0.181364	1.141228	0.648714
C74	C	0.318636	1.641228	1.148714
C75	C	-0.216346	1.098217	0.351527
C76	C	0.283654	1.598217	0.851527
H77	H	-0.297913	0.622079	0.000119
H78	H	0.202087	1.122079	0.500119
O79	O	-0.281858	1.017719	0.534258
O80	O	0.218142	1.517719	1.034258
H81	H	-0.245615	0.968492	0.585508
H82	H	0.254385	1.468492	1.085508
O83	O	-0.632928	1.034450	-0.186590
O84	O	-0.132928	1.534450	0.313410
H85	H	-0.685086	1.014023	-0.236187
H86	H	-0.185086	1.514023	0.263813
O87	O	-0.746094	1.227982	-0.186553
O88	O	-0.246094	1.727982	0.313447
H89	H	-0.783996	1.181558	-0.234977
H90	H	-0.283996	1.681558	0.265023
H91	H	-0.099799	0.617360	0.000117
H92	H	0.400201	1.117360	0.500117
H93	H	-0.756056	1.194056	0.162673
H94	H	-0.256056	1.694056	0.662673
O95	O	-0.630629	1.309730	0.000246
O96	O	-0.130629	1.809730	0.500246
H97	H	-0.655144	1.342913	0.073479
H98	H	-0.155144	1.842913	0.573479
H99	H	-0.657988	1.025537	0.162815
H100	H	-0.157988	1.525537	0.662815
O101	O	-0.766868	0.929584	0.000215
O102	O	-0.266868	1.429584	0.500215
H103	H	-0.749538	0.887445	0.073395
H104	H	-0.249538	1.387445	0.573395
H105	H	-0.130430	1.203837	0.480881
H106	H	0.369570	1.703837	0.980881
