data_functionalizedCrystal
_audit_creation_method	'MofGen! by Chris Wilmer'
_symmetry_space_group_name_H-M	'P1'
_symmetry_Int_Tables_number	1
_symmetry_cell_setting	triclinic
loop_
_symmetry_equiv_pos_as_xyz
  x,y,z
_cell_length_a	26.455835
_cell_length_b	26.455273
_cell_length_c	26.451828
_cell_angle_alpha	60.005170
_cell_angle_beta	60.010757
_cell_angle_gamma	59.993435
loop_
_atom_site_label
_atom_site_type_symbol
_atom_site_fract_x
_atom_site_fract_y
_atom_site_fract_z
O1	O	0.069940	-0.738516	0.617604
O2	O	0.026299	-0.574986	0.497618
O3	O	0.129847	-0.678463	0.497546
O4	O	-0.033607	-0.635040	0.617676
O5	O	0.164197	-0.644116	0.531822
O6	O	0.060649	-0.540639	0.531894
O7	O	0.104290	-0.704170	0.651880
Cu8	Cu	0.085606	-0.619268	0.595016
Cu9	Cu	0.044984	-0.659887	0.554481
O10	O	0.000742	-0.600693	0.651952
N11	N	0.114179	-0.590703	0.623530
N12	N	0.016416	-0.688458	0.525968
C13	C	0.157553	-0.547535	0.933368
C14	C	0.424104	-0.547506	0.666656
C15	C	0.157413	-0.547503	0.666729
C16	C	0.157397	-0.280846	0.666749
C17	C	0.200330	-0.409550	0.709625
C18	C	0.200339	-0.504608	0.709615
C19	C	0.224118	-0.480848	0.733375
C20	C	0.327800	-0.462984	0.678792
C21	C	0.392611	-0.484588	0.657175
C22	C	0.392630	-0.589450	0.697162
C23	C	0.327821	-0.567844	0.718781
C24	C	0.215955	-0.377135	0.645910
C25	C	0.194327	-0.312320	0.624323
C26	C	0.141457	-0.312339	0.730169
C27	C	0.163084	-0.377154	0.751756
C28	C	0.136618	-0.488954	0.725292
C29	C	0.115007	-0.510553	0.703686
C30	C	0.220833	-0.563461	0.650740
C31	C	0.242447	-0.541861	0.672339
C32	C	0.136680	-0.488971	0.837094
C33	C	0.115112	-0.510589	0.901907
C34	C	0.220969	-0.563508	0.901868
C35	C	0.242535	-0.541892	0.837053
C36	C	0.200389	-0.504622	0.804668
C37	C	0.295409	-0.504610	0.709593
C38	C	0.132990	-0.570876	1.004655
C39	C	0.495389	-0.570440	0.642547
C40	C	0.132802	-0.570856	0.643399
C41	C	0.133212	-0.209553	0.643833
C42	C	-0.097217	-0.706972	0.506986
C43	C	-0.002040	-0.707108	0.412067
C44	C	-0.002230	-0.802124	0.507163
C45	C	-0.002214	-0.707101	0.507221
C46	C	-0.025925	-0.730827	0.483360
N47	N	0.553723	-0.590712	0.623415
O48	O	0.751638	-0.596429	0.475603
O49	O	0.751819	-0.716773	0.638980
O50	O	0.751753	-0.716500	0.535361
O51	O	0.751705	-0.596703	0.579222
O52	O	0.648791	-0.682239	0.569747
O53	O	0.648858	-0.682512	0.673366
O54	O	0.648676	-0.562169	0.509989
Cu55	Cu	0.639366	-0.619212	0.594817
Cu56	Cu	0.761130	-0.659729	0.554152
O57	O	0.648743	-0.562442	0.613609
N58	N	0.846773	-0.688230	0.525548
N59	N	0.114157	-0.151217	0.623565
O60	O	-0.033591	0.046803	0.617717
O61	O	0.129795	0.046806	0.497390
O62	O	0.026157	0.046789	0.497680
O63	O	0.070046	0.046819	0.617427
O64	O	0.060509	-0.056181	0.532004
O65	O	0.164146	-0.056164	0.531714
O66	O	0.000760	-0.056167	0.652041
Cu67	Cu	0.085590	-0.065568	0.595012
Cu68	Cu	0.044965	0.056206	0.554419
O69	O	0.104397	-0.056151	0.651751
N70	N	0.016390	0.141855	0.525867
N71	N	0.114410	-0.590756	1.062992
O72	O	0.108565	-0.738494	1.260998
O73	O	-0.011747	-0.575059	1.261012
O74	O	-0.011470	-0.678679	1.260970
O75	O	0.108287	-0.634874	1.261040
O76	O	0.022849	-0.644347	1.158004
O77	O	0.022572	-0.540726	1.158046
O78	O	0.142884	-0.704162	1.158033
Cu79	Cu	0.085861	-0.619309	1.148638
Cu80	Cu	0.045275	-0.659911	1.270406
O81	O	0.142606	-0.600541	1.158074
N82	N	0.016726	-0.688471	1.356052
C83	C	0.039385	-0.537207	0.498225
C84	C	0.167616	-0.665350	0.498136
C85	C	0.091204	-0.741950	0.651272
C86	C	-0.037027	-0.613806	0.651361
C87	C	0.700360	-0.716215	0.676756
C88	C	0.700279	-0.715877	0.548436
C89	C	0.700133	-0.562725	0.472214
C90	C	0.700218	-0.563065	0.600533
C91	C	0.167511	-0.004552	0.497940
C92	C	0.039211	-0.004699	0.498341
C93	C	-0.036999	-0.004682	0.651449
C94	C	0.091344	-0.004663	0.651090
C95	C	-0.011156	-0.537302	1.209530
C96	C	-0.010806	-0.665617	1.209458
C97	C	0.142293	-0.741918	1.209514
C98	C	0.141950	-0.613596	1.209563
H99	H	0.063231	-0.497836	0.928300
H100	H	0.214338	-0.004265	0.460069
C101	C	0.700057	-0.511679	0.408830
C102	C	0.753478	-0.484998	0.368944
C103	C	0.753402	-0.433952	0.305560
C104	C	0.699905	-0.409587	0.282061
C105	C	0.646479	-0.436269	0.321947
C106	C	0.646555	-0.487315	0.385331
H107	H	0.793084	-0.503034	0.386339
H108	H	0.792952	-0.414201	0.276034
H109	H	0.699848	-0.371800	0.235140
H110	H	0.606873	-0.418232	0.304552
H111	H	0.607006	-0.507066	0.414857
H112	H	0.100739	-0.004653	0.688708
H113	H	0.150353	-0.403547	0.803641
H114	H	0.700405	-0.753994	0.723681
H115	H	0.214562	-0.674609	0.460411
C116	C	0.193324	-0.805328	1.209510
C117	C	0.182079	-0.864517	1.262963
C118	C	0.233110	-0.927927	1.262959
C119	C	0.295387	-0.932148	1.209502
C120	C	0.306636	-0.872957	1.156045
C121	C	0.255604	-0.809547	1.156049
H122	H	0.135975	-0.861395	1.302539
H123	H	0.224783	-0.971744	1.302532
H124	H	0.333164	-0.979088	1.209500
H125	H	0.352740	-0.876080	1.116470
H126	H	0.263932	-0.765730	1.116477
H127	H	0.029814	-0.004702	0.460721
C128	C	-0.100449	-0.601308	0.702327
C129	C	-0.151416	-0.537869	0.689844
C130	C	-0.214838	-0.525371	0.740810
C131	C	-0.227293	-0.576312	0.804258
C132	C	-0.176325	-0.639756	0.816743
C133	C	-0.112903	-0.652254	0.765778
H134	H	-0.142196	-0.500155	0.642874
H135	H	-0.252567	-0.478406	0.731567
H136	H	-0.274242	-0.567061	0.841986
H137	H	-0.185544	-0.677469	0.863714
H138	H	-0.075173	-0.699219	0.775020
H139	H	0.700208	-0.525435	0.609919
C140	C	0.026799	-0.473748	0.447312
C141	C	0.031253	-0.469446	0.385048
C142	C	0.018667	-0.405988	0.334135
C143	C	0.001626	-0.346832	0.345486
C144	C	-0.002830	-0.351132	0.407753
C145	C	0.009756	-0.414590	0.458666
H146	H	0.043869	-0.513239	0.376643
H147	H	0.021965	-0.402805	0.288041
H148	H	-0.007692	-0.299856	0.307797
H149	H	-0.015446	-0.307339	0.416158
H150	H	0.006458	-0.417773	0.504760
H151	H	-0.083922	-0.004684	0.689225
H152	H	0.700298	-0.753510	0.539047
C153	C	-0.062188	-0.473892	1.209535
C154	C	-0.049822	-0.422876	1.209561
C155	C	-0.100854	-0.359466	1.209565
C156	C	-0.164251	-0.347073	1.209543
C157	C	-0.176620	-0.398090	1.209516
C158	C	-0.125588	-0.461500	1.209512
H159	H	-0.002889	-0.432049	1.209577
H160	H	-0.091697	-0.321700	1.209585
H161	H	-0.202028	-0.300133	1.209546
H162	H	-0.223553	-0.388917	1.209500
H163	H	-0.134745	-0.499267	1.209493
C164	C	-0.061613	-0.678248	1.209369
C165	C	-0.048930	-0.741732	1.209318
C166	C	-0.099737	-0.754363	1.209229
C167	C	-0.163227	-0.703511	1.209191
C168	C	-0.175913	-0.640023	1.209242
C169	C	-0.125106	-0.627392	1.209331
H170	H	-0.001928	-0.779379	1.209346
H171	H	-0.090345	-0.801361	1.209191
H172	H	-0.200837	-0.712862	1.209125
H173	H	-0.222915	-0.602376	1.209214
H174	H	-0.134497	-0.580394	1.209369
C175	C	0.192781	-0.600941	1.209582
C176	C	0.180109	-0.537446	1.209597
C177	C	0.230940	-0.524791	1.209616
C178	C	0.294442	-0.575631	1.209619
C179	C	0.307116	-0.639131	1.209603
C180	C	0.256285	-0.651786	1.209584
H181	H	0.133099	-0.499807	1.209595
H182	H	0.221557	-0.477784	1.209628
H183	H	0.332070	-0.566263	1.209632
H184	H	0.354127	-0.676770	1.209605
H185	H	0.265668	-0.698793	1.209573
H186	H	0.102355	-0.458618	0.810728
H187	H	0.255291	-0.593843	0.928229
H188	H	0.294416	-0.554643	0.810656
C189	C	0.100492	-0.276702	0.776513
C190	C	0.034690	-0.232152	0.776250
C191	C	-0.006276	-0.196518	0.822596
C192	C	0.018559	-0.205435	0.869205
C193	C	0.084364	-0.249986	0.869470
C194	C	0.125330	-0.285620	0.823124
H195	H	0.016303	-0.225550	0.741745
H196	H	-0.054989	-0.163538	0.822400
H197	H	-0.011767	-0.179056	0.903513
H198	H	0.102751	-0.256589	0.903975
H199	H	0.174043	-0.318600	0.823320
H200	H	0.102328	-0.458621	0.755642
H201	H	0.301415	-0.411495	0.671309
H202	H	0.255124	-0.593799	0.620395
C203	C	0.044915	-0.493341	0.720924
C204	C	0.004258	-0.512216	0.789381
C205	C	-0.065833	-0.495005	0.806618
C206	C	-0.095268	-0.458917	0.755396
C207	C	-0.054610	-0.440040	0.686935
C208	C	0.015481	-0.457251	0.669698
H209	H	0.026046	-0.538932	0.827302
H210	H	-0.095931	-0.508979	0.857298
H211	H	-0.147153	-0.446176	0.768156
H212	H	-0.076399	-0.413324	0.649014
H213	H	0.045578	-0.443277	0.619018
C214	C	0.312532	-0.559038	0.655105
C215	C	0.353286	-0.627477	0.673934
C216	C	0.423367	-0.644635	0.656704
C217	C	0.452694	-0.593354	0.620644
C218	C	0.411939	-0.524911	0.601812
C219	C	0.341858	-0.507753	0.619043
H220	H	0.331578	-0.665442	0.700630
H221	H	0.453536	-0.695301	0.670645
H222	H	0.504572	-0.606056	0.607889
H223	H	0.433648	-0.486946	0.575117
H224	H	0.311689	-0.457086	0.605102
C225	C	0.292188	-0.613637	0.752661
C226	C	0.220900	-0.589875	0.776445
C227	C	0.185268	-0.635668	0.810326
C228	C	0.220923	-0.705222	0.820424
C229	C	0.292216	-0.728987	0.796640
C230	C	0.327848	-0.683194	0.762759
H231	H	0.194502	-0.538384	0.768970
H232	H	0.132492	-0.618075	0.827933
H233	H	0.194546	-0.739120	0.845505
H234	H	0.318614	-0.780478	0.804115
H235	H	0.380623	-0.700787	0.745153
C236	C	0.428244	-0.438798	0.623287
C237	C	0.392591	-0.369241	0.613175
C238	C	0.428227	-0.323450	0.579284
C239	C	0.499515	-0.347215	0.555505
C240	C	0.535172	-0.416775	0.565615
C241	C	0.499536	-0.462566	0.599506
H242	H	0.339816	-0.351646	0.630779
H243	H	0.401831	-0.271957	0.571800
H244	H	0.525894	-0.313317	0.530416
H245	H	0.587947	-0.434370	0.548012
H246	H	0.525932	-0.514059	0.606991
C247	C	0.103789	-0.805409	0.702184
C248	C	0.156504	-0.828898	0.726431
C249	C	0.169089	-0.892358	0.777343
C250	C	0.128959	-0.932329	0.804007
C251	C	0.076241	-0.908841	0.779760
C252	C	0.063656	-0.845381	0.728848
H253	H	0.186213	-0.799308	0.706693
H254	H	0.208115	-0.909745	0.795293
H255	H	0.138275	-0.979305	0.841695
H256	H	0.046531	-0.938430	0.799499
H257	H	0.024630	-0.827994	0.710899
C258	C	0.256924	-0.412773	0.599570
C259	C	0.274103	-0.377116	0.529483
C260	C	0.315074	-0.412752	0.483139
C261	C	0.338866	-0.484046	0.506883
C262	C	0.321688	-0.519707	0.576973
C263	C	0.280717	-0.484070	0.623317
H264	H	0.256490	-0.324336	0.511903
H265	H	0.327790	-0.386353	0.431253
H266	H	0.369195	-0.510427	0.472577
H267	H	0.339300	-0.572487	0.594553
H268	H	0.268001	-0.510469	0.675203
H269	H	0.207047	-0.285927	0.572438
H270	H	0.419022	-0.640939	0.704632
