data_functionalizedCrystal
_audit_creation_method	'MofGen! by Chris Wilmer'
_symmetry_space_group_name_H-M	'P1'
_symmetry_Int_Tables_number	1
_symmetry_cell_setting	triclinic
loop_
_symmetry_equiv_pos_as_xyz
  x,y,z
_cell_length_a	16.109318
_cell_length_b	14.586319
_cell_length_c	16.109301
_cell_angle_alpha	90.005214
_cell_angle_beta	83.465022
_cell_angle_gamma	89.999925
loop_
_atom_site_label
_atom_site_type_symbol
_atom_site_fract_x
_atom_site_fract_y
_atom_site_fract_z
O1	O	1.103122	0.076167	0.106935
O2	O	1.603122	0.576167	0.606935
O3	O	0.861062	0.076186	0.120219
O4	O	1.361062	0.576186	0.620219
O5	O	0.988741	0.076167	-0.007454
O6	O	1.488741	0.576167	0.492546
O7	O	0.975442	0.076186	0.234607
O8	O	1.475442	0.576186	0.734607
O9	O	0.988733	-0.076314	-0.007456
O10	O	1.488733	0.423686	0.492544
O11	O	0.861053	-0.076295	0.120217
O12	O	1.361053	0.423705	0.620217
O13	O	1.103113	-0.076314	0.106933
O14	O	1.603113	0.423686	0.606933
Cu15	Cu	0.982082	-0.090227	0.113575
Cu16	Cu	1.482082	0.409773	0.613575
Cu17	Cu	0.982093	0.090099	0.113577
Cu18	Cu	1.482093	0.590099	0.613577
O19	O	0.975433	-0.076294	0.234606
O20	O	1.475433	0.423706	0.734606
C21	C	0.830083	-0.000052	0.119677
C22	C	1.330083	0.499948	0.619677
C23	C	0.737788	-0.000045	0.118057
C24	C	1.237788	0.499955	0.618057
C25	C	0.438719	0.083055	0.112823
C26	C	0.938719	0.583055	0.612823
C27	C	0.525441	0.083061	0.114340
C28	C	1.025441	0.583061	0.614340
C29	C	0.525450	-0.083182	0.114327
C30	C	1.025450	0.416818	0.614327
C31	C	0.438731	-0.083187	0.112803
C32	C	0.938731	0.416813	0.612803
C33	C	0.395367	-0.000065	0.112056
C34	C	0.895367	0.499935	0.612056
C35	C	0.568807	-0.000055	0.115096
C36	C	1.068807	0.499945	0.615096
C37	C	0.662835	-0.000049	0.116742
C38	C	1.162835	0.499951	0.616742
C39	C	0.301334	-0.000070	0.110409
C40	C	0.801334	0.499930	0.610409
N41	N	0.982081	-0.217059	0.113573
N42	N	1.482081	0.282941	0.613573
C43	C	1.038636	-0.452074	0.057058
C44	C	1.538636	0.047926	0.557058
C45	C	1.038638	-0.548055	0.057056
C46	C	1.538638	-0.048055	0.557056
C47	C	0.925539	-0.548047	0.170090
C48	C	1.425539	-0.048047	0.670090
C49	C	0.925534	-0.452068	0.170087
C50	C	1.425534	0.047932	0.670087
C51	C	0.982087	-0.404084	0.113572
C52	C	1.482087	0.095916	0.613572
C53	C	0.982095	-0.596044	0.113573
C54	C	1.482095	-0.096044	0.613573
C55	C	0.982097	-0.700111	0.113571
C56	C	1.482097	-0.200111	0.613571
C57	C	0.982084	-0.300010	0.113573
C58	C	1.482084	0.199990	0.613573
C59	C	1.134092	-0.000074	0.107474
C60	C	1.634092	0.499926	0.607474
C61	C	1.226387	-0.000075	0.109095
C62	C	1.726387	0.499925	0.609095
C63	C	0.988198	-0.000074	-0.038430
C64	C	1.488198	0.499926	0.461570
C65	C	0.986583	-0.000075	-0.130725
C66	C	1.486583	0.499925	0.369275
N67	N	0.982100	0.216931	0.113573
N68	N	1.482100	0.716931	0.613573
C69	C	1.058590	-0.000067	-0.352993
C70	C	1.558590	0.499933	0.147007
C71	C	1.057066	-0.000059	-0.439713
C72	C	1.557066	0.499941	0.060287
C73	C	0.905579	-0.000051	-0.419848
C74	C	1.405579	0.499949	0.080152
C75	C	0.907104	-0.000052	-0.333130
C76	C	1.407104	0.499948	0.166870
C77	C	0.983612	-0.000064	-0.299704
C78	C	1.483612	0.499936	0.200296
C79	C	0.980563	-0.000056	-0.473144
C80	C	1.480563	0.499944	0.026856
C81	C	0.978910	-0.000047	-0.567170
C82	C	1.478910	0.499953	-0.067170
C83	C	0.985265	-0.000071	-0.205672
C84	C	1.485265	0.499929	0.294328
C85	C	0.975976	-0.000052	0.265581
C86	C	1.475976	0.499948	0.765581
C87	C	0.977592	-0.000044	0.357877
C88	C	1.477592	0.499956	0.857877
H89	H	0.560734	0.150746	0.114964
H90	H	1.060734	0.650746	0.614964
H91	H	1.118121	-0.000059	-0.483098
H92	H	1.618121	0.499941	0.016902
H93	H	0.403415	0.150738	0.112213
H94	H	0.903415	0.650738	0.612213
H95	H	1.120888	-0.000075	-0.325781
H96	H	1.620888	0.499925	0.174219
H97	H	0.843288	-0.000042	-0.447074
H98	H	1.343288	0.499958	0.052926
H99	H	0.846043	-0.000047	-0.289740
H100	H	1.346043	0.499953	0.210260
Br101	Br	0.379891	-0.196002	0.111757
Br102	Br	0.879891	0.303998	0.611757
H103	H	0.560767	-0.150856	0.114937
H104	H	1.060767	0.349144	0.614937
Br105	Br	1.115385	-0.386956	-0.019642
Br106	Br	1.615385	0.113044	0.480358
H107	H	1.084685	-0.587126	0.011036
H108	H	1.584685	-0.087126	0.511036
H109	H	0.879496	-0.587126	0.216104
H110	H	1.379496	-0.087126	0.716104
Br111	Br	0.848776	-0.386931	0.246784
Br112	Br	1.348776	0.113069	0.746784
