data_functionalizedCrystal
_audit_creation_method	'MofGen! by Chris Wilmer'
_symmetry_space_group_name_H-M	'P1'
_symmetry_Int_Tables_number	1
_symmetry_cell_setting	triclinic
loop_
_symmetry_equiv_pos_as_xyz
  x,y,z
_cell_length_a	42.784839
_cell_length_b	42.784841
_cell_length_c	42.784893
_cell_angle_alpha	90.002418
_cell_angle_beta	59.997780
_cell_angle_gamma	119.999863
loop_
_atom_site_label
_atom_site_type_symbol
_atom_site_fract_x
_atom_site_fract_y
_atom_site_fract_z
O1	O	0.275695	-0.214412	-0.009300
O2	O	0.211692	-0.168961	0.009253
O3	O	0.275692	-0.168961	-0.054750
O4	O	0.211694	-0.214412	0.054702
O5	O	0.223708	-0.220945	-0.054749
O6	O	0.159708	-0.220945	0.009253
O7	O	0.223710	-0.266397	-0.009300
Cu8	Cu	0.186962	-0.248417	-0.000023
Cu9	Cu	0.248440	-0.186940	-0.000024
O10	O	0.159710	-0.266396	0.054703
C11	C	0.051021	-0.022778	0.028112
C12	C	0.013142	-0.041761	0.028375
C13	C	0.051018	-0.079378	0.028116
C14	C	0.013139	-0.098275	0.028379
C15	C	-0.005578	-0.079377	0.028112
C16	C	0.069652	-0.041762	0.028379
C17	C	0.152948	0.113708	0.017863
C18	C	0.173786	0.152360	0.014965
C19	C	0.155902	0.171750	0.013509
C20	C	0.178499	0.213661	0.010359
C21	C	0.117177	0.152485	0.014953
C22	C	0.096339	0.113835	0.017857
C23	C	0.114226	0.094447	0.019312
C24	C	-0.131813	-0.113936	0.017859
C25	C	-0.167567	-0.131750	0.014961
C26	C	-0.185502	-0.169024	0.013506
C27	C	-0.224264	-0.188340	0.010358
C28	C	-0.167685	-0.188485	0.014954
C29	C	-0.131938	-0.170675	0.017859
C30	C	-0.114002	-0.133396	0.019309
C31	C	0.152939	-0.113943	0.017877
C32	C	0.173778	-0.131757	0.014977
C33	C	0.155892	-0.169032	0.013523
C34	C	0.178486	-0.188349	0.010377
C35	C	0.117170	-0.188491	0.014967
C36	C	0.096334	-0.170675	0.017865
C37	C	0.114220	-0.133401	0.019323
C38	C	0.091629	0.052537	0.022456
C39	C	0.073617	0.019131	0.024964
C40	C	0.073613	-0.098693	0.024971
C41	C	0.091623	-0.114089	0.022466
C42	C	-0.044339	-0.098690	0.024964
C43	C	-0.075237	-0.114084	0.022456
O44	O	-0.327856	-0.266388	-0.009322
O45	O	-0.236954	-0.220935	0.009228
O46	O	-0.236950	-0.220939	-0.054773
O47	O	-0.327860	-0.266385	0.054680
O48	O	-0.236948	-0.168954	-0.054776
O49	O	-0.236952	-0.168950	0.009225
O50	O	-0.327854	-0.214403	-0.009325
Cu51	Cu	-0.282403	-0.186930	-0.000050
Cu52	Cu	-0.282405	-0.248408	-0.000046
O53	O	-0.327858	-0.214400	0.054676
C54	C	0.384390	-0.079141	-0.361606
C55	C	0.422270	-0.041526	-0.380503
C56	C	0.384390	-0.079141	-0.305008
C57	C	0.422270	-0.041526	-0.323990
C58	C	0.440988	-0.022543	-0.361606
C59	C	0.365758	-0.098038	-0.323991
C60	C	0.282465	-0.170819	-0.396168
C61	C	0.261627	-0.188759	-0.413983
C62	C	0.279513	-0.169420	-0.451257
C63	C	0.256917	-0.188867	-0.470572
C64	C	0.318239	-0.132140	-0.470717
C65	C	0.339076	-0.114205	-0.452905
C66	C	0.321187	-0.133546	-0.415628
C67	C	0.567227	0.113942	-0.453282
C68	C	0.602981	0.152594	-0.471222
C69	C	0.620916	0.171985	-0.451883
C70	C	0.659678	0.213894	-0.471328
C71	C	0.603097	0.152719	-0.414603
C72	C	0.567349	0.114068	-0.396667
C73	C	0.549414	0.094682	-0.416011
C74	C	0.282465	-0.170819	-0.168522
C75	C	0.261624	-0.188757	-0.129868
C76	C	0.279510	-0.169418	-0.110479
C77	C	0.256914	-0.188865	-0.068568
C78	C	0.318233	-0.132140	-0.129742
C79	C	0.339070	-0.114203	-0.168394
C80	C	0.321184	-0.133548	-0.187782
C81	C	0.343783	-0.114094	-0.396315
C82	C	0.361794	-0.098590	-0.380920
C83	C	0.361794	-0.098590	-0.263099
C84	C	0.343783	-0.114094	-0.229693
C85	C	0.479750	0.019366	-0.381054
C86	C	0.510649	0.052771	-0.396557
C87	C	0.440758	-0.356212	-0.028193
C88	C	0.422041	-0.393827	-0.028459
C89	C	0.384158	-0.356213	-0.028190
C90	C	0.365526	-0.393828	-0.028456
C91	C	0.384160	-0.412810	-0.028193
C92	C	0.422038	-0.337315	-0.028456
C93	C	0.567000	-0.264532	-0.017949
C94	C	0.602755	-0.246591	-0.015053
C95	C	0.620692	-0.265931	-0.013601
C96	C	0.659455	-0.246483	-0.010453
C97	C	0.602873	-0.303210	-0.015048
C98	C	0.567125	-0.321146	-0.017949
C99	C	0.549188	-0.301805	-0.019399
C100	C	0.339356	-0.549295	-0.017951
C101	C	0.318645	-0.587947	-0.015055
C102	C	0.279915	-0.607338	-0.013597
C103	C	0.257452	-0.649247	-0.010452
C104	C	0.261899	-0.588073	-0.015042
C105	C	0.282613	-0.549422	-0.017945
C106	C	0.321343	-0.530035	-0.019397
C107	C	0.339344	-0.264537	-0.017936
C108	C	0.318628	-0.246599	-0.015032
C109	C	0.279898	-0.265939	-0.013577
C110	C	0.257433	-0.246493	-0.010426
C111	C	0.261884	-0.303217	-0.015022
C112	C	0.282601	-0.321153	-0.017924
C113	C	0.321334	-0.301808	-0.019385
C114	C	0.510421	-0.321258	-0.022542
C115	C	0.479522	-0.336762	-0.025048
C116	C	0.361696	-0.336765	-0.025041
C117	C	0.343793	-0.321261	-0.022532
C118	C	0.361701	-0.454719	-0.025047
C119	C	0.343799	-0.488125	-0.022541
O120	O	0.223728	0.336934	-0.009323
O121	O	0.159726	0.227482	0.009227
O122	O	0.223729	0.291478	-0.054775
O123	O	0.159725	0.272938	0.054678
O124	O	0.275711	0.291477	-0.054771
O125	O	0.211707	0.227481	0.009230
O126	O	0.275710	0.336932	-0.009320
Cu127	Cu	0.248455	0.282206	-0.000045
Cu128	Cu	0.186981	0.282208	-0.000049
O129	O	0.211707	0.272936	0.054681
O130	O	0.763271	0.337164	-0.496871
O131	O	0.672367	0.227713	-0.451422
O132	O	0.672365	0.291711	-0.451418
O133	O	0.763273	0.273165	-0.496876
O134	O	0.672366	0.291712	-0.503402
O135	O	0.672368	0.227714	-0.503407
O136	O	0.763272	0.337165	-0.548856
Cu137	Cu	0.717820	0.282440	-0.530878
Cu138	Cu	0.717819	0.282438	-0.469400
O139	O	0.763275	0.273167	-0.548860
O140	O	0.211690	-0.214417	-0.548617
O141	O	0.275691	-0.168962	-0.503167
O142	O	0.211689	-0.168964	-0.503163
O143	O	0.275692	-0.214415	-0.548621
O144	O	0.159706	-0.220947	-0.451179
O145	O	0.223708	-0.220945	-0.451183
O146	O	0.159707	-0.266400	-0.496633
Cu147	Cu	0.186961	-0.248419	-0.469161
Cu148	Cu	0.248437	-0.186943	-0.530639
O149	O	0.223709	-0.266398	-0.496637
C150	C	-0.005343	-0.412572	0.361558
C151	C	0.013375	-0.393590	0.380456
C152	C	0.051255	-0.355974	0.304961
C153	C	0.069887	-0.337077	0.323944
C154	C	0.051254	-0.355974	0.361560
C155	C	0.013375	-0.393589	0.323943
C156	C	-0.131582	-0.549057	0.396116
C157	C	-0.167336	-0.587709	0.413930
C158	C	-0.185271	-0.607098	0.451205
C159	C	-0.224034	-0.649009	0.470519
C160	C	-0.167452	-0.587833	0.470666
C161	C	-0.131705	-0.549184	0.452854
C162	C	-0.113770	-0.529796	0.415578
C163	C	0.096061	-0.321414	0.453239
C164	C	0.116773	-0.303600	0.471179
C165	C	0.155502	-0.266327	0.451842
C166	C	0.177965	-0.247011	0.471288
C167	C	0.173517	-0.246866	0.414562
C168	C	0.152802	-0.264677	0.396625
C169	C	0.114073	-0.301955	0.415968
C170	C	0.096064	-0.321412	0.168474
C171	C	0.116779	-0.303599	0.129820
C172	C	0.155508	-0.266324	0.110432
C173	C	0.177972	-0.247009	0.068521
C174	C	0.173522	-0.246865	0.129696
C175	C	0.152807	-0.264680	0.168348
C176	C	0.114075	-0.301953	0.187735
C177	C	-0.075004	-0.487887	0.396265
C178	C	-0.044106	-0.454481	0.380871
C179	C	0.073715	-0.336660	0.263052
C180	C	0.091618	-0.321265	0.229646
C181	C	0.073714	-0.336661	0.381009
C182	C	0.091616	-0.321267	0.396513
C183	C	0.051046	-0.022794	-0.361634
C184	C	0.069679	-0.041778	-0.380530
C185	C	-0.005555	-0.079390	-0.305034
C186	C	0.013163	-0.098288	-0.324016
C187	C	0.051045	-0.079393	-0.361631
C188	C	0.013164	-0.041775	-0.324018
C189	C	0.095858	0.113693	-0.396200
C190	C	0.116571	0.152344	-0.414015
C191	C	0.155302	0.171732	-0.451290
C192	C	0.177767	0.213642	-0.470607
C193	C	0.173317	0.152465	-0.470750
C194	C	0.152600	0.113815	-0.452936
C195	C	0.113869	0.094429	-0.415659
C196	C	0.152973	-0.113959	-0.453306
C197	C	0.173810	-0.131775	-0.471245
C198	C	0.155926	-0.169048	-0.451906
C199	C	0.178519	-0.188366	-0.471350
C200	C	0.117198	-0.188507	-0.414626
C201	C	0.096358	-0.170694	-0.396690
C202	C	0.114251	-0.133416	-0.416035
C203	C	-0.131801	-0.113944	-0.168548
C204	C	-0.167554	-0.131755	-0.129895
C205	C	-0.185491	-0.169029	-0.110504
C206	C	-0.224255	-0.188343	-0.068593
C207	C	-0.167671	-0.188490	-0.129767
C208	C	-0.131918	-0.170677	-0.168418
C209	C	-0.113988	-0.133404	-0.187808
C210	C	0.091411	0.052521	-0.396344
C211	C	0.073508	0.019115	-0.380949
C212	C	-0.044320	-0.098701	-0.263125
C213	C	-0.075220	-0.114094	-0.229719
C214	C	0.073641	-0.098707	-0.381079
C215	C	0.091652	-0.114103	-0.396582
C216	C	-0.615853	-0.356193	0.361535
C217	C	-0.634487	-0.393808	0.380433
C218	C	-0.559253	-0.356195	0.304938
C219	C	-0.577972	-0.393810	0.323921
C220	C	-0.615854	-0.412792	0.361537
C221	C	-0.577972	-0.337297	0.323920
C222	C	-0.660661	-0.264512	0.396093
C223	C	-0.681373	-0.246571	0.413906
C224	C	-0.720104	-0.265909	0.451181
C225	C	-0.742568	-0.246461	0.470495
C226	C	-0.738120	-0.303189	0.470643
C227	C	-0.717405	-0.321125	0.452831
C228	C	-0.678674	-0.301785	0.415554
C229	C	-0.717784	-0.549275	0.453218
C230	C	-0.738622	-0.587926	0.471159
C231	C	-0.720740	-0.607319	0.451822
C232	C	-0.743333	-0.649227	0.471268
C233	C	-0.682012	-0.588055	0.414542
C234	C	-0.661170	-0.549403	0.396604
C235	C	-0.679063	-0.530016	0.415946
C236	C	-0.433006	-0.264522	0.168449
C237	C	-0.397253	-0.246585	0.129796
C238	C	-0.379317	-0.265926	0.110407
C239	C	-0.340553	-0.246480	0.068496
C240	C	-0.397138	-0.303204	0.129672
C241	C	-0.432891	-0.321139	0.168324
C242	C	-0.450820	-0.301793	0.187711
C243	C	-0.656216	-0.321238	0.396242
C244	C	-0.638314	-0.336743	0.380848
C245	C	-0.520488	-0.336748	0.263028
C246	C	-0.489588	-0.321245	0.229622
C247	C	-0.638451	-0.454700	0.380987
C248	C	-0.656463	-0.488106	0.396492
C249	C	0.440756	0.310302	-0.361620
C250	C	0.422038	0.310564	-0.380518
C251	C	0.384160	0.310312	-0.305026
C252	C	0.365528	0.310574	-0.324010
C253	C	0.384159	0.310303	-0.361624
C254	C	0.422038	0.310573	-0.324006
C255	C	0.566989	0.300046	-0.396172
C256	C	0.602741	0.297145	-0.413984
C257	C	0.620675	0.295684	-0.451257
C258	C	0.659436	0.292531	-0.470569
C259	C	0.602857	0.297127	-0.470719
C260	C	0.567111	0.300033	-0.452909
C261	C	0.549177	0.301493	-0.415634
C262	C	0.339351	0.300042	-0.453303
C263	C	0.318640	0.297142	-0.471244
C264	C	0.279912	0.295690	-0.451908
C265	C	0.257449	0.292541	-0.471354
C266	C	0.261899	0.297143	-0.414629
C267	C	0.282613	0.300049	-0.396692
C268	C	0.321341	0.301496	-0.416033
C269	C	0.339354	0.300088	-0.168540
C270	C	0.318640	0.297192	-0.129888
C271	C	0.279912	0.295742	-0.110501
C272	C	0.257450	0.292601	-0.068591
C273	C	0.261898	0.297184	-0.129766
C274	C	0.282612	0.300078	-0.168417
C275	C	0.321344	0.301533	-0.187802
C276	C	0.510413	0.304640	-0.396323
C277	C	0.479516	0.307151	-0.380931
C278	C	0.361701	0.307173	-0.263117
C279	C	0.343799	0.304671	-0.229712
C280	C	0.361700	0.307154	-0.381073
C281	C	0.343798	0.304644	-0.396578
O282	O	0.275503	0.336913	-0.548651
O283	O	0.211494	0.227461	-0.503201
O284	O	0.275490	0.291455	-0.503192
O285	O	0.211507	0.272919	-0.548659
O286	O	0.223502	0.291457	-0.451211
O287	O	0.159506	0.227463	-0.451219
O288	O	0.223515	0.336915	-0.496669
Cu289	Cu	0.186764	0.282189	-0.469197
Cu290	Cu	0.248246	0.282187	-0.530672
O291	O	0.159519	0.272921	-0.496677
C292	C	0.051032	0.254111	0.361530
C293	C	0.013154	0.253851	0.380425
C294	C	0.051031	0.254102	0.304932
C295	C	0.013153	0.253842	0.323913
C296	C	-0.005564	0.254113	0.361527
C297	C	0.069663	0.253840	0.323916
C298	C	0.152954	0.264360	0.396096
C299	C	0.173791	0.267260	0.413911
C300	C	0.155906	0.268721	0.451185
C301	C	0.178502	0.271871	0.470501
C302	C	0.117182	0.267279	0.470643
C303	C	0.096345	0.264374	0.452830
C304	C	0.114233	0.262915	0.415555
C305	C	-0.131796	0.264379	0.453195
C306	C	-0.167548	0.267281	0.471133
C307	C	-0.185483	0.268734	0.451793
C308	C	-0.224243	0.271886	0.471236
C309	C	-0.167664	0.267282	0.414515
C310	C	-0.131919	0.264374	0.396581
C311	C	-0.113984	0.262925	0.415925
C312	C	0.152952	0.264325	0.168451
C313	C	0.173792	0.267221	0.129798
C314	C	0.155907	0.268673	0.110407
C315	C	0.178502	0.271814	0.068498
C316	C	0.117186	0.267232	0.129669
C317	C	0.096350	0.264339	0.168320
C318	C	0.114234	0.262881	0.187709
C319	C	0.091638	0.259769	0.396240
C320	C	0.073627	0.257260	0.380845
C321	C	0.073626	0.257242	0.263024
C322	C	0.091636	0.259743	0.229619
C323	C	-0.044324	0.257264	0.380973
C324	C	-0.075221	0.259775	0.396474
H325	H	0.102618	0.168275	0.013770
H326	H	0.101900	0.168027	-0.398169
H327	H	0.102606	-0.218843	0.013783
H328	H	-0.667447	-0.603843	0.398798
H329	H	0.064825	-0.186540	-0.366338
C330	C	-0.112339	-0.192080	0.019452
C331	C	-0.093063	-0.205814	-0.013924
C332	C	-0.073463	-0.227219	-0.012333
C333	C	-0.073141	-0.234891	0.022635
C334	C	-0.092419	-0.221157	0.056013
C335	C	-0.112018	-0.199752	0.054422
H336	H	-0.093301	-0.200135	-0.039812
H337	H	-0.059193	-0.237386	-0.037042
H338	H	-0.058632	-0.250736	0.023812
H339	H	-0.092181	-0.226836	0.081901
H340	H	-0.126288	-0.189585	0.079131
C341	C	0.338458	-0.609137	-0.013461
C342	C	0.311161	-0.644426	0.021508
C343	C	0.330973	-0.665616	0.023103
C344	C	0.378084	-0.651517	-0.010271
C345	C	0.405384	-0.616227	-0.045242
C346	C	0.385571	-0.595037	-0.046837
H347	H	0.276284	-0.654864	0.046215
H348	H	0.310764	-0.691740	0.048991
H349	H	0.392750	-0.667204	-0.009090
H350	H	0.440260	-0.605789	-0.069949
H351	H	0.405781	-0.568912	-0.072725
C352	C	0.443194	0.311148	-0.303410
C353	C	0.416342	0.278383	-0.266300
C354	C	0.437492	0.278957	-0.245701
C355	C	0.485495	0.312297	-0.262212
C356	C	0.512350	0.345065	-0.299323
C357	C	0.491199	0.344490	-0.319922
H358	H	0.380804	0.253701	-0.254077
H359	H	0.417612	0.254701	-0.218229
H360	H	0.501152	0.312722	-0.246963
H361	H	0.547887	0.369747	-0.311546
H362	H	0.511079	0.368747	-0.347394
C363	C	-0.187161	-0.110343	0.013363
C364	C	-0.157953	-0.072376	-0.019214
C365	C	-0.177546	-0.050967	-0.020813
C366	C	-0.226346	-0.067525	0.010164
C367	C	-0.255557	-0.105494	0.042743
C368	C	-0.235964	-0.126903	0.044343
H369	H	-0.121825	-0.060116	-0.042148
H370	H	-0.155922	-0.022860	-0.044931
H371	H	-0.240850	-0.051677	0.008980
H372	H	-0.291685	-0.117753	0.065677
H373	H	-0.257588	-0.155010	0.068460
H374	H	-0.182060	-0.603623	0.501016
C375	C	-0.556795	-0.295543	0.303327
C376	C	-0.552446	-0.285275	0.266217
C377	C	-0.531265	-0.243521	0.245624
C378	C	-0.514432	-0.212035	0.262140
C379	C	-0.518781	-0.222303	0.299252
C380	C	-0.539962	-0.264057	0.319845
H381	H	-0.564907	-0.308583	0.253989
H382	H	-0.528046	-0.235920	0.218151
H383	H	-0.498753	-0.181127	0.246895
H384	H	-0.506320	-0.198995	0.311480
H385	H	-0.543181	-0.271657	0.347318
C386	C	0.110861	-0.021194	-0.422281
C387	C	0.109006	-0.037709	-0.453770
C388	C	0.150188	-0.017127	-0.495518
C389	C	0.193223	0.019968	-0.505778
C390	C	0.195079	0.036485	-0.474288
C391	C	0.153898	0.015904	-0.432539
H392	H	0.077147	-0.065171	-0.446176
H393	H	0.148814	-0.029354	-0.518829
H394	H	0.223708	0.035204	-0.536683
H395	H	0.226938	0.063947	-0.481882
H396	H	0.155272	0.028130	-0.409229
H397	H	0.204850	0.168253	-0.501099
H398	H	0.333309	0.296016	-0.114204
H399	H	0.167269	0.098131	-0.468782
C400	C	0.622350	-0.205589	-0.013456
C401	C	0.641623	-0.172579	-0.046828
C402	C	0.661217	-0.131577	-0.045230
C403	C	0.661538	-0.123584	-0.010261
C404	C	0.642265	-0.156596	0.023113
C405	C	0.622671	-0.197598	0.021515
H406	H	0.641386	-0.178494	-0.072716
H407	H	0.675485	-0.107140	-0.069936
H408	H	0.676043	-0.093232	-0.009078
H409	H	0.642502	-0.150680	0.049001
H410	H	0.608403	-0.222035	0.046221
C411	C	0.381960	-0.527968	-0.019554
C412	C	0.383149	-0.510115	0.011426
C413	C	0.425752	-0.488786	0.009823
C414	C	0.467167	-0.485310	-0.022760
C415	C	0.465980	-0.503163	-0.053742
C416	C	0.423377	-0.524492	-0.052140
H417	H	0.352489	-0.512688	0.035548
H418	H	0.426630	-0.475570	0.032758
H419	H	0.498704	-0.469521	-0.023946
H420	H	0.496639	-0.500590	-0.077864
H421	H	0.422498	-0.537708	-0.075075
H422	H	-0.382753	-0.216236	0.114110
H423	H	-0.382532	-0.318952	0.113884
C424	C	0.547503	0.092616	-0.474560
C425	C	0.567104	0.113803	-0.515564
C426	C	0.547378	0.092476	-0.536840
C427	C	0.508053	0.049962	-0.517112
C428	C	0.488451	0.028773	-0.476105
C429	C	0.508176	0.050100	-0.454830
H430	H	0.596217	0.145277	-0.530170
H431	H	0.561890	0.108162	-0.567196
H432	H	0.493451	0.034174	-0.532861
H433	H	0.459338	-0.002701	-0.461499
H434	H	0.493665	0.034414	-0.424474
C435	C	0.216410	-0.110370	-0.512248
C436	C	0.216051	-0.096634	-0.545260
C437	C	0.258652	-0.075229	-0.586263
C438	C	0.301612	-0.067558	-0.594253
C439	C	0.301973	-0.081295	-0.561239
C440	C	0.259371	-0.102700	-0.520237
H441	H	0.184248	-0.102312	-0.539347
H442	H	0.258385	-0.065060	-0.610702
H443	H	0.333148	-0.051713	-0.624605
H444	H	0.333776	-0.075617	-0.567153
H445	H	0.259639	-0.112869	-0.495798
H446	H	0.267943	-0.533739	-0.019121
C447	C	-0.187412	-0.229488	0.013357
C448	C	-0.158304	-0.238323	-0.019220
C449	C	-0.178030	-0.279325	-0.020819
C450	C	-0.226863	-0.311491	0.010158
C451	C	-0.255975	-0.302656	0.042737
C452	C	-0.236249	-0.261655	0.044337
H453	H	-0.122151	-0.214511	-0.042153
H454	H	-0.156479	-0.285865	-0.044937
H455	H	-0.241466	-0.341843	0.008974
H456	H	-0.292127	-0.326469	0.065671
H457	H	-0.257799	-0.255115	0.068454
H458	H	0.552391	0.301235	-0.365822
C459	C	0.219299	-0.609400	-0.013443
C460	C	0.176400	-0.644723	0.021527
C461	C	0.133798	-0.666051	0.023127
C462	C	0.134095	-0.652055	-0.010242
C463	C	0.176995	-0.616729	-0.045215
C464	C	0.219597	-0.595402	-0.046815
H465	H	0.176178	-0.655086	0.046231
H466	H	0.102040	-0.692201	0.049016
H467	H	0.102558	-0.667843	-0.009058
H468	H	0.177217	-0.606367	-0.069919
H469	H	0.251355	-0.569252	-0.072704
C470	C	0.262787	-0.362158	-0.019516
C471	C	0.220186	-0.383432	-0.017915
C472	C	0.200371	-0.424438	-0.019505
C473	C	0.223155	-0.444168	-0.022695
C474	C	0.265758	-0.422893	-0.024296
C475	C	0.285574	-0.381888	-0.022706
H476	H	0.203318	-0.368827	-0.015553
H477	H	0.168834	-0.440186	-0.018320
H478	H	0.208487	-0.474523	-0.023872
H479	H	0.282627	-0.437499	-0.026658
H480	H	0.317111	-0.366139	-0.023891
C481	C	0.219281	-0.324495	-0.013423
C482	C	0.176380	-0.332071	0.021547
C483	C	0.133779	-0.353349	0.023146
C484	C	0.134079	-0.367051	-0.010224
C485	C	0.176982	-0.359476	-0.045196
C486	C	0.219583	-0.338198	-0.046795
H487	H	0.176156	-0.321928	0.046252
H488	H	0.102019	-0.358957	0.049034
H489	H	0.102543	-0.382803	-0.009041
H490	H	0.177206	-0.369619	-0.069901
H491	H	0.251343	-0.332590	-0.072684
H492	H	-0.116983	-0.533275	0.365765
H493	H	0.100368	-0.306171	0.308703
C494	C	0.622337	0.295552	-0.392576
C495	C	0.593130	0.262982	-0.354604
C496	C	0.612724	0.261388	-0.333195
C497	C	0.661526	0.292365	-0.349758
C498	C	0.690736	0.324938	-0.387732
C499	C	0.671141	0.326531	-0.409141
H500	H	0.557001	0.240049	-0.342341
H501	H	0.591101	0.237276	-0.305084
H502	H	0.676031	0.291185	-0.333910
H503	H	0.726864	0.347871	-0.399995
H504	H	0.692764	0.350644	-0.437252
H505	H	0.167522	0.263171	0.365746
C506	C	-0.186932	-0.608900	0.392523
C507	C	-0.206207	-0.594802	0.378787
C508	C	-0.225801	-0.615994	0.357379
C509	C	-0.226120	-0.651283	0.349706
C510	C	-0.206844	-0.665382	0.363442
C511	C	-0.187250	-0.644191	0.384850
H512	H	-0.205971	-0.568678	0.384467
H513	H	-0.240070	-0.605556	0.347211
H514	H	-0.240625	-0.666970	0.333858
H515	H	-0.207080	-0.691507	0.357762
H516	H	-0.172981	-0.654629	0.395018
H517	H	-0.629638	-0.533721	0.366252
C518	C	-0.008024	-0.021175	0.028947
C519	C	0.018812	0.015921	-0.003827
C520	C	-0.002353	0.036505	-0.003255
C521	C	-0.050356	0.019992	0.030091
C522	C	-0.077195	-0.017106	0.062868
C523	C	-0.056029	-0.037689	0.062296
H524	H	0.054349	0.028147	-0.028514
H525	H	0.017515	0.063967	-0.027519
H526	H	-0.066024	0.035229	0.030514
H527	H	-0.112731	-0.029331	0.087555
H528	H	-0.075897	-0.065152	0.086560
C529	C	0.097521	-0.229508	-0.393350
C530	C	0.083210	-0.261676	-0.410016
C531	C	0.063534	-0.302677	-0.388740
C532	C	0.058169	-0.311509	-0.350798
C533	C	0.072480	-0.279340	-0.334130
C534	C	0.092156	-0.238339	-0.355406
H535	H	0.087181	-0.255138	-0.438105
H536	H	0.052940	-0.326490	-0.401079
H537	H	0.043604	-0.341860	-0.335048
H538	H	0.068509	-0.285878	-0.306041
H539	H	0.102750	-0.214526	-0.343067
H540	H	0.617482	-0.318952	-0.013867
C541	C	0.622583	0.295521	-0.511718
C542	C	0.622933	0.260547	-0.519641
C543	C	0.642658	0.258940	-0.560641
C544	C	0.662034	0.292306	-0.593717
C545	C	0.661686	0.327282	-0.585795
C546	C	0.641960	0.328889	-0.544795
H547	H	0.608589	0.235846	-0.495154
H548	H	0.642917	0.233049	-0.566505
H549	H	0.676637	0.291117	-0.624068
H550	H	0.676029	0.351984	-0.610282
H551	H	0.641702	0.354781	-0.538931
C552	C	-0.112105	-0.527994	0.474259
C553	C	-0.131829	-0.549318	0.515258
C554	C	-0.112228	-0.528129	0.536663
C555	C	-0.072903	-0.485615	0.517068
C556	C	-0.053177	-0.464288	0.476067
C557	C	-0.072778	-0.485477	0.454662
H558	H	-0.160941	-0.580792	0.529765
H559	H	-0.126830	-0.543917	0.567015
H560	H	-0.058393	-0.469929	0.532913
H561	H	-0.024064	-0.432814	0.461560
H562	H	-0.058175	-0.469689	0.424310
C563	C	-0.187400	-0.229493	-0.108438
C564	C	-0.158296	-0.238326	-0.104963
C565	C	-0.178024	-0.279327	-0.083635
C566	C	-0.226856	-0.311494	-0.065784
C567	C	-0.255963	-0.302661	-0.069259
C568	C	-0.236235	-0.261660	-0.090586
H569	H	-0.122145	-0.214514	-0.118178
H570	H	-0.156476	-0.285866	-0.081063
H571	H	-0.241459	-0.341846	-0.049996
H572	H	-0.292114	-0.326474	-0.056043
H573	H	-0.257783	-0.255122	-0.093159
C574	C	0.622577	0.173785	-0.512224
C575	C	0.671378	0.191606	-0.544464
C576	C	0.690973	0.212798	-0.585467
C577	C	0.661767	0.216168	-0.594229
C578	C	0.612963	0.198346	-0.561987
C579	C	0.593368	0.177155	-0.520985
H580	H	0.693000	0.189112	-0.537979
H581	H	0.727101	0.225991	-0.609334
H582	H	0.676273	0.231855	-0.624581
H583	H	0.591341	0.200840	-0.568473
H584	H	0.557240	0.163962	-0.497118
C585	C	0.053254	0.092369	-0.355197
C586	C	0.030468	0.049856	-0.335599
C587	C	-0.012135	0.028532	-0.294597
C588	C	-0.031951	0.049721	-0.273193
C589	C	-0.009165	0.092236	-0.292792
C590	C	0.033437	0.113561	-0.333794
H591	H	0.045137	0.034169	-0.351443
H592	H	-0.029002	-0.002941	-0.280089
H593	H	-0.063488	0.033935	-0.242841
H594	H	-0.023835	0.107924	-0.276948
H595	H	0.050305	0.145034	-0.348302
C596	C	-0.737220	-0.362129	0.474236
C597	C	-0.779822	-0.383403	0.515236
C598	C	-0.799640	-0.424408	0.536641
C599	C	-0.776854	-0.444139	0.517046
C600	C	-0.734250	-0.422865	0.476045
C601	C	-0.714433	-0.381860	0.454640
H602	H	-0.796692	-0.368797	0.529742
H603	H	-0.831178	-0.440156	0.566993
H604	H	-0.791524	-0.474493	0.532892
H605	H	-0.717381	-0.437471	0.461538
H606	H	-0.682894	-0.366111	0.424287
H607	H	-0.117412	-0.186525	-0.184100
C608	C	-0.556811	-0.414402	0.303335
C609	C	-0.515061	-0.393533	0.261870
C610	C	-0.493902	-0.414125	0.241285
C611	C	-0.514493	-0.455587	0.262166
C612	C	-0.556245	-0.476459	0.303634
C613	C	-0.577404	-0.455867	0.324219
H614	H	-0.499817	-0.362838	0.246410
H615	H	-0.462995	-0.398674	0.210588
H616	H	-0.498830	-0.470831	0.246928
H617	H	-0.571489	-0.507154	0.319094
H618	H	-0.608311	-0.471318	0.354916
C619	C	0.219301	0.295549	-0.393357
C620	C	0.177887	0.262977	-0.355413
C621	C	0.135287	0.261381	-0.334140
C622	C	0.134101	0.292358	-0.350811
C623	C	0.175516	0.324933	-0.388757
C624	C	0.218116	0.326529	-0.410030
H625	H	0.178764	0.240043	-0.343071
H626	H	0.104629	0.237266	-0.306050
H627	H	0.102566	0.291176	-0.335063
H628	H	0.174639	0.347866	-0.401099
H629	H	0.248774	0.350643	-0.438120
H630	H	0.064802	-0.186523	0.019045
H631	H	0.267897	-0.186572	-0.184305
H632	H	-0.447397	-0.351491	0.184007
C633	C	0.172625	0.262726	0.189780
C634	C	0.145226	0.227760	0.225108
C635	C	0.164896	0.226162	0.246439
C636	C	0.211966	0.259531	0.232443
C637	C	0.239367	0.294500	0.197114
C638	C	0.219697	0.296098	0.175782
H639	H	0.110380	0.203056	0.235470
H640	H	0.144612	0.200276	0.272593
H641	H	0.226527	0.258349	0.248234
H642	H	0.274213	0.319204	0.186751
H643	H	0.239982	0.321984	0.149629
C644	C	0.219030	-0.229762	-0.108679
C645	C	0.177688	-0.238534	-0.105309
C646	C	0.135095	-0.279540	-0.084120
C647	C	0.133844	-0.311773	-0.066301
C648	C	0.175187	-0.303002	-0.069671
C649	C	0.217780	-0.261996	-0.090860
H650	H	0.178614	-0.214673	-0.118500
H651	H	0.104490	-0.286033	-0.081625
H652	H	0.102313	-0.342128	-0.050615
H653	H	0.174262	-0.326863	-0.056480
H654	H	0.248385	-0.255503	-0.093354
C655	C	-0.008001	-0.140039	-0.303426
C656	C	0.018840	-0.150300	-0.297497
C657	C	-0.002322	-0.192049	-0.276907
C658	C	-0.050325	-0.223537	-0.262247
C659	C	-0.077169	-0.213277	-0.268175
C660	C	-0.056007	-0.171527	-0.288765
H661	H	0.054378	-0.126990	-0.308350
H662	H	0.017550	-0.199644	-0.272519
H663	H	-0.065991	-0.254442	-0.247005
H664	H	-0.112707	-0.236586	-0.257322
H665	H	-0.075879	-0.163932	-0.293154
C666	C	-0.781222	-0.609116	0.512162
C667	C	-0.780863	-0.595017	0.545173
C668	C	-0.823464	-0.616206	0.586176
C669	C	-0.866425	-0.651496	0.594167
C670	C	-0.866785	-0.665597	0.561154
C671	C	-0.824184	-0.644407	0.520152
H672	H	-0.749060	-0.568892	0.539259
H673	H	-0.823197	-0.605767	0.610614
H674	H	-0.897961	-0.667182	0.624519
H675	H	-0.898589	-0.691722	0.567069
H676	H	-0.824452	-0.654846	0.495713
H677	H	0.335046	0.310999	-0.308768
H678	H	-0.002298	-0.408829	0.411365
C679	C	0.216126	-0.205863	0.108372
C680	C	0.259026	-0.197932	0.073046
C681	C	0.301629	-0.156931	0.051724
C682	C	0.301330	-0.123861	0.065726
C683	C	0.258428	-0.131791	0.101054
C684	C	0.215826	-0.172791	0.122376
H685	H	0.259249	-0.222413	0.062679
H686	H	0.333388	-0.151061	0.025572
H687	H	0.332867	-0.093510	0.049942
H688	H	0.258206	-0.107309	0.111421
H689	H	0.184067	-0.178661	0.148528
C690	C	0.216387	0.268850	0.392507
C691	C	0.216021	0.235473	0.378776
C692	C	0.258618	0.237065	0.357371
C693	C	0.301581	0.272033	0.349697
C694	C	0.301948	0.305413	0.363428
C695	C	0.259351	0.303821	0.384833
H696	H	0.184215	0.209585	0.384457
H697	H	0.258345	0.212355	0.347207
H698	H	0.333113	0.273211	0.333852
H699	H	0.333754	0.331301	0.357748
H700	H	0.259624	0.328531	0.394998
H701	H	-0.182059	-0.115906	-0.114213
H702	H	-0.117415	0.263190	0.366230
H703	H	0.335043	-0.409068	-0.028878
C704	C	-0.007802	-0.414167	0.303360
C705	C	-0.049561	-0.455626	0.324237
C706	C	-0.070743	-0.476199	0.303657
C707	C	-0.050166	-0.455313	0.262201
C708	C	-0.008404	-0.413851	0.241322
C709	C	0.012778	-0.393279	0.261901
H710	H	-0.064796	-0.471090	0.354927
H711	H	-0.101658	-0.506892	0.319114
H712	H	-0.065846	-0.470542	0.246967
H713	H	0.006830	-0.398388	0.210632
H714	H	0.043693	-0.362586	0.246445
C715	C	0.381953	0.301640	-0.474578
C716	C	0.404738	0.304831	-0.454848
C717	C	0.447338	0.306427	-0.476121
C718	C	0.467154	0.304833	-0.517124
C719	C	0.444369	0.301642	-0.536856
C720	C	0.401768	0.300045	-0.515583
H721	H	0.390069	0.306011	-0.424494
H722	H	0.464205	0.308790	-0.461514
H723	H	0.498689	0.306015	-0.532871
H724	H	0.459038	0.300461	-0.567210
H725	H	0.384902	0.297683	-0.530190
C726	C	0.622825	0.174045	-0.393329
C727	C	0.642199	0.160049	-0.379632
C728	C	0.661926	0.181376	-0.358357
C729	C	0.662279	0.216699	-0.350780
C730	C	0.642904	0.230697	-0.364477
C731	C	0.623177	0.209370	-0.385752
H732	H	0.641939	0.133899	-0.385241
H733	H	0.676269	0.171013	-0.348217
H734	H	0.676882	0.232486	-0.335031
H735	H	0.643164	0.256847	-0.358868
H736	H	0.608834	0.219732	-0.395892
C737	C	0.216384	0.268805	0.108611
C738	C	0.217633	0.237820	0.090796
C739	C	0.260224	0.239403	0.069609
C740	C	0.301567	0.271971	0.066237
C741	C	0.300320	0.302960	0.084053
C742	C	0.257729	0.301377	0.105240
H743	H	0.187027	0.213708	0.093291
H744	H	0.261147	0.216463	0.056420
H745	H	0.333096	0.273143	0.050553
H746	H	0.330926	0.327071	0.081557
H747	H	0.256806	0.324316	0.118428
H748	H	-0.769653	-0.318930	0.500992
C749	C	-0.661561	-0.205569	0.392498
C750	C	-0.656166	-0.196808	0.354529
C751	C	-0.636354	-0.155806	0.333120
C752	C	-0.621938	-0.123566	0.349680
C753	C	-0.627332	-0.132326	0.387652
C754	C	-0.647144	-0.173328	0.409061
H755	H	-0.666839	-0.220675	0.342268
H756	H	-0.632361	-0.149321	0.305010
H757	H	-0.607272	-0.093214	0.333832
H758	H	-0.616660	-0.108459	0.399912
H759	H	-0.651137	-0.179813	0.437170
C760	C	0.262789	-0.192096	-0.355166
C761	C	0.220197	-0.233100	-0.333762
C762	C	0.200522	-0.254375	-0.292761
C763	C	0.223439	-0.234645	-0.273164
C764	C	0.266033	-0.193639	-0.294568
C765	C	0.285708	-0.172365	-0.335569
H766	H	0.203230	-0.247707	-0.348269
H767	H	0.168991	-0.284730	-0.276916
H768	H	0.208875	-0.250394	-0.242812
H769	H	0.283000	-0.179033	-0.280061
H770	H	0.317239	-0.142009	-0.351414
C771	C	0.338450	0.295539	-0.512245
C772	C	0.343838	0.262961	-0.521002
C773	C	0.363648	0.261357	-0.562003
C774	C	0.378069	0.292332	-0.594246
C775	C	0.372680	0.324913	-0.585490
C776	C	0.352871	0.326517	-0.544489
H777	H	0.333163	0.240029	-0.497132
H778	H	0.367637	0.237238	-0.568485
H779	H	0.392733	0.291144	-0.624598
H780	H	0.383356	0.347845	-0.609360
H781	H	0.348882	0.350636	-0.538007
C782	C	0.381666	-0.073200	-0.189584
C783	C	0.401343	-0.051927	-0.168259
C784	C	0.443940	-0.010923	-0.189449
C785	C	0.466860	0.008807	-0.231964
C786	C	0.447184	-0.012466	-0.253291
C787	C	0.404587	-0.053470	-0.232101
H788	H	0.384375	-0.066532	-0.136785
H789	H	0.458505	0.004825	-0.173661
H790	H	0.498393	0.039160	-0.247650
H791	H	0.464152	0.002139	-0.284765
H792	H	0.390022	-0.069217	-0.247889
C793	C	0.216371	-0.110354	0.013390
C794	C	0.259338	-0.102680	-0.021574
C795	C	0.301929	-0.081277	-0.023158
C796	C	0.301553	-0.067549	0.010222
C797	C	0.258584	-0.075222	0.045189
C798	C	0.215993	-0.096625	0.046773
H799	H	0.259617	-0.112843	-0.046287
H800	H	0.333737	-0.075597	-0.049043
H801	H	0.333082	-0.051705	0.009050
H802	H	0.258305	-0.065059	0.069902
H803	H	0.184185	-0.102306	0.072659
C804	C	0.262800	0.301646	-0.355689
C805	C	0.220202	0.300050	-0.334415
C806	C	0.200387	0.301645	-0.293411
C807	C	0.223172	0.304837	-0.273681
C808	C	0.265773	0.306434	-0.294954
C809	C	0.285587	0.304838	-0.335958
H810	H	0.203333	0.297687	-0.349021
H811	H	0.168851	0.300463	-0.277663
H812	H	0.208504	0.306018	-0.243327
H813	H	0.282641	0.308797	-0.280348
H814	H	0.317123	0.306020	-0.351706
C815	C	0.096965	-0.325001	0.108629
C816	C	0.082552	-0.308430	0.090811
C817	C	0.062737	-0.329831	0.069620
C818	C	0.057333	-0.367803	0.066247
C819	C	0.071746	-0.384375	0.084066
C820	C	0.091562	-0.362974	0.105257
H821	H	0.086552	-0.280319	0.093307
H822	H	0.052067	-0.317563	0.056429
H823	H	0.042664	-0.383645	0.050560
H824	H	0.067746	-0.412486	0.081569
H825	H	0.102231	-0.375243	0.118447
H826	H	0.437707	0.310988	-0.411425
H827	H	-0.664969	-0.409045	0.411340
H828	H	0.100131	-0.026521	0.028807
H829	H	0.064523	-0.351759	0.184259
C830	C	0.219298	0.295589	-0.108444
C831	C	0.218112	0.326574	-0.090598
C832	C	0.175513	0.324980	-0.069278
C833	C	0.134100	0.292401	-0.065803
C834	C	0.135283	0.261413	-0.083649
C835	C	0.177882	0.263008	-0.104970
H836	H	0.248771	0.350693	-0.093170
H837	H	0.174637	0.347919	-0.056067
H838	H	0.102565	0.291220	-0.050020
H839	H	0.104625	0.237294	-0.081078
H840	H	0.178758	0.240069	-0.118181
C841	C	0.172617	-0.072940	0.019474
C842	C	0.215213	-0.051532	0.017879
C843	C	0.234891	-0.010528	0.019474
C844	C	0.211972	0.009068	0.022663
C845	C	0.169374	-0.012340	0.024257
C846	C	0.149696	-0.053344	0.022663
H847	H	0.232181	-0.066038	0.015518
H848	H	0.266425	0.005319	0.018293
H849	H	0.226539	0.039421	0.023843
H850	H	0.152406	0.002166	0.026618
H851	H	0.118162	-0.069191	0.023843
C852	C	0.096961	-0.325007	0.512182
C853	C	0.124260	-0.332678	0.520172
C854	C	0.104449	-0.354086	0.561174
C855	C	0.057339	-0.367823	0.594186
C856	C	0.030037	-0.360152	0.586197
C857	C	0.049848	-0.338745	0.545195
H858	H	0.159137	-0.322508	0.495733
H859	H	0.124660	-0.359764	0.567088
H860	H	0.042673	-0.383670	0.624539
H861	H	-0.004839	-0.370322	0.610636
H862	H	0.029637	-0.333066	0.539281
C863	C	0.443202	-0.295562	-0.029034
C864	C	0.484953	-0.274684	-0.029321
C865	C	0.506116	-0.232932	-0.029901
C866	C	0.485527	-0.212059	-0.030193
C867	C	0.443774	-0.232937	-0.029906
C868	C	0.422611	-0.274689	-0.029326
H869	H	0.500196	-0.290136	-0.029104
H870	H	0.537024	-0.217477	-0.030113
H871	H	0.501193	-0.181151	-0.030622
H872	H	0.428531	-0.217485	-0.030122
H873	H	0.391703	-0.290144	-0.029114
H874	H	0.552621	-0.351498	-0.019128
H875	H	0.552607	0.301210	-0.468757
H876	H	0.100149	0.253421	0.308676
C877	C	0.216116	-0.205865	0.393289
C878	C	0.259016	-0.197936	0.385712
C879	C	0.301617	-0.156935	0.364439
C880	C	0.301319	-0.123862	0.350741
C881	C	0.258418	-0.131790	0.358318
C882	C	0.215816	-0.172792	0.379592
H883	H	0.259238	-0.222419	0.395852
H884	H	0.333376	-0.151066	0.358830
H885	H	0.332855	-0.093511	0.334993
H886	H	0.258195	-0.107308	0.348178
H887	H	0.184058	-0.178660	0.385200
C888	C	-0.008014	0.253262	0.303326
C889	C	0.012572	0.252969	0.261863
C890	C	-0.008596	0.252387	0.241279
C891	C	-0.050349	0.252097	0.262157
C892	C	-0.070937	0.252390	0.303622
C893	C	-0.049769	0.252972	0.324207
H894	H	0.043483	0.253183	0.246405
H895	H	0.006645	0.252170	0.210583
H896	H	-0.066019	0.251667	0.246919
H897	H	-0.101848	0.252176	0.319080
H898	H	-0.065010	0.253189	0.354902
C899	C	-0.007995	0.253306	0.422168
C900	C	0.012603	0.253042	0.443041
C901	C	-0.008538	0.252509	0.484779
C902	C	-0.050279	0.252238	0.505645
C903	C	-0.070880	0.252502	0.484772
C904	C	-0.049739	0.253036	0.443034
H905	H	0.043505	0.253243	0.427595
H906	H	0.006712	0.252314	0.500230
H907	H	-0.065930	0.251843	0.536542
H908	H	-0.101782	0.252302	0.500218
H909	H	-0.064989	0.253231	0.427583
H910	H	-0.447603	-0.248768	0.184232
C911	C	0.097511	0.268885	0.511642
C912	C	0.092153	0.301466	0.520472
C913	C	0.072480	0.303072	0.561473
C914	C	0.058167	0.272097	0.593643
C915	C	0.063525	0.239514	0.584813
C916	C	0.083197	0.237907	0.543813
H917	H	0.102749	0.324397	0.496658
H918	H	0.068514	0.327192	0.568009
H919	H	0.043604	0.273286	0.623994
H920	H	0.052929	0.216582	0.608628
H921	H	0.087164	0.213787	0.537277
C922	C	-0.187142	0.268884	0.512133
C923	C	-0.157934	0.301463	0.520892
C924	C	-0.177527	0.303068	0.561892
C925	C	-0.226328	0.272094	0.594134
C926	C	-0.255539	0.239513	0.585377
C927	C	-0.235947	0.237908	0.544376
H928	H	-0.121805	0.324393	0.497024
H929	H	-0.155902	0.327186	0.568375
H930	H	-0.240832	0.273282	0.624485
H931	H	-0.291668	0.216583	0.609245
H932	H	-0.257571	0.213790	0.537893
C933	C	0.216384	0.173551	0.013371
C934	C	0.259346	0.208839	-0.021599
C935	C	0.301945	0.230029	-0.023194
C936	C	0.301581	0.215932	0.010180
C937	C	0.258616	0.180643	0.045152
C938	C	0.216018	0.159452	0.046748
H939	H	0.259617	0.219276	-0.046307
H940	H	0.333749	0.256153	-0.049083
H941	H	0.333115	0.231619	0.008999
H942	H	0.258346	0.170206	0.069860
H943	H	0.184213	0.133328	0.072637
H944	H	-0.002500	-0.026531	-0.308780
C945	C	0.172616	-0.243273	0.355621
C946	C	0.215216	-0.202274	0.334346
C947	C	0.235032	-0.180870	0.293340
C948	C	0.212248	-0.200465	0.273610
C949	C	0.169646	-0.241466	0.294885
C950	C	0.149830	-0.262870	0.335890
H951	H	0.232085	-0.187766	0.348951
H952	H	0.266570	-0.150518	0.277591
H953	H	0.226917	-0.184620	0.243255
H954	H	0.152777	-0.255973	0.280279
H955	H	0.118292	-0.293222	0.351639
C956	C	0.097508	0.268827	0.108343
C957	C	0.083187	0.237842	0.090497
C958	C	0.063508	0.239437	0.069173
C959	C	0.058150	0.272016	0.065694
C960	C	0.072471	0.303004	0.083541
C961	C	0.092150	0.301410	0.104865
H962	H	0.087153	0.213723	0.093071
H963	H	0.052906	0.216497	0.055962
H964	H	0.043582	0.273197	0.049909
H965	H	0.068505	0.327124	0.080966
H966	H	0.102751	0.324349	0.118076
H967	H	-0.002525	-0.129181	0.028805
H968	H	0.167516	0.097925	0.019049
H969	H	0.064526	-0.351765	0.468991
H970	H	0.064808	0.098152	0.019035
H971	H	0.167543	-0.083608	-0.469060
C972	C	0.219030	-0.229762	-0.392576
C973	C	0.177690	-0.238525	-0.354606
C974	C	0.135091	-0.279527	-0.333199
C975	C	0.133831	-0.311766	-0.349761
C976	C	0.175172	-0.303004	-0.387733
C977	C	0.217772	-0.262001	-0.409141
H978	H	0.178621	-0.214659	-0.342344
H979	H	0.104488	-0.286014	-0.305090
H980	H	0.102297	-0.342119	-0.333914
H981	H	0.174241	-0.326870	-0.399996
H982	H	0.248375	-0.255515	-0.437250
C983	C	0.337912	-0.110862	-0.108417
C984	C	0.352230	-0.127525	-0.090568
C985	C	0.371909	-0.106247	-0.069244
C986	C	0.377270	-0.068308	-0.065770
C987	C	0.362951	-0.051643	-0.083620
C988	C	0.343272	-0.072921	-0.104944
H989	H	0.348262	-0.155612	-0.093139
H990	H	0.382509	-0.118584	-0.056031
H991	H	0.391838	-0.052557	-0.049986
H992	H	0.366919	-0.023556	-0.081049
H993	H	0.332672	-0.060584	-0.118157
H994	H	0.167477	-0.248833	0.184031
H995	H	-0.117212	-0.083598	-0.184336
H996	H	-0.629125	-0.248761	0.365741
H997	H	-0.117214	-0.083584	0.019042
H998	H	-0.732353	-0.533492	0.468971
H999	H	0.370892	0.301275	-0.184323
H1000	H	0.437930	-0.026285	-0.308746
H1001	H	0.437935	-0.026287	-0.411409
H1002	H	0.267941	0.301250	-0.184099
H1003	H	0.335269	-0.128941	-0.308748
H1004	H	0.332799	-0.116397	-0.501067
H1005	H	0.370607	-0.083853	-0.468752
H1006	H	0.552845	0.098385	-0.366316
H1007	H	0.064816	0.263199	0.468675
H1008	H	0.333296	-0.216247	-0.013853
H1009	H	0.437709	-0.409066	-0.028885
H1010	H	0.370881	-0.248784	-0.019122
H1011	H	0.552400	-0.248780	-0.019131
H1012	H	-0.117197	0.263199	0.468949
H1013	H	-0.182272	0.268459	0.398770
H1014	H	0.064821	0.263164	0.184001
