data_functionalizedCrystal
_audit_creation_method	'MofGen! by Chris Wilmer'
_symmetry_space_group_name_H-M	'P1'
_symmetry_Int_Tables_number	1
_symmetry_cell_setting	triclinic
loop_
_symmetry_equiv_pos_as_xyz
  x,y,z
_cell_length_a	13.897448
_cell_length_b	18.215407
_cell_length_c	18.215399
_cell_angle_alpha	89.980167
_cell_angle_beta	90.026328
_cell_angle_gamma	89.981860
loop_
_atom_site_label
_atom_site_type_symbol
_atom_site_fract_x
_atom_site_fract_y
_atom_site_fract_z
Zn1	Zn	-0.384013	-1.125109	0.416124
Zn2	Zn	0.115987	-0.625109	0.916124
Zn3	Zn	-0.545323	-1.125033	0.293061
Zn4	Zn	-0.045323	-0.625033	0.793061
Zn5	Zn	-0.384045	-1.002041	0.293072
Zn6	Zn	0.115955	-0.502041	0.793072
Zn7	Zn	-0.545269	-1.002023	0.416086
Zn8	Zn	-0.045269	-0.502023	0.916086
O9	O	-0.464663	-1.063551	0.354586
O10	O	0.035337	-0.563551	0.854586
O11	O	-0.405421	-1.228083	0.399811
O12	O	0.094579	-0.728083	0.899811
O13	O	-0.523965	-1.108693	0.190078
O14	O	-0.023965	-0.608693	0.690078
O15	O	-0.249059	-1.018406	0.309415
O16	O	0.250941	-0.518406	0.809415
O17	O	-0.523934	-1.228027	0.309398
O18	O	-0.023934	-0.728027	0.809398
O19	O	-0.249036	-1.108823	0.399821
O20	O	0.250964	-0.608823	0.899821
O21	O	-0.405474	-1.018332	0.190086
O22	O	0.094526	-0.518332	0.690086
O23	O	-0.405422	-0.899055	0.309378
O24	O	0.094578	-0.399055	0.809378
O25	O	-0.523843	-1.018374	0.519076
O26	O	-0.023843	-0.518374	1.019076
O27	O	-0.523873	-0.899041	0.399757
O28	O	-0.023873	-0.399041	0.899757
O29	O	-0.405369	-1.108805	0.519103
O30	O	0.094631	-0.608805	1.019103
O31	O	-0.680297	-1.108675	0.309361
O32	O	-0.180297	-0.608675	0.809361
O33	O	-0.680258	-1.018300	0.399747
O34	O	-0.180258	-0.518300	0.899747
C35	C	-0.715277	-1.063498	0.354565
C36	C	-0.215277	-0.563498	0.854565
C37	C	-0.822491	-1.063542	0.354580
C38	C	-0.322491	-0.563542	0.854580
C39	C	-0.464646	-0.872345	0.354565
C40	C	0.035354	-0.372345	0.854565
C41	C	-0.464662	-0.790546	0.354573
C42	C	0.035338	-0.290546	0.854573
C43	C	-0.464596	-1.063596	0.546539
C44	C	0.035404	-0.563596	1.046539
C45	C	-0.464568	-1.063615	0.628338
C46	C	0.035432	-0.563615	1.128338
C47	C	-1.018786	-1.063619	0.354626
C48	C	-0.518786	-0.563619	0.854626
C49	C	-0.909553	-1.063574	0.354603
C50	C	-0.409553	-0.563574	0.854603
C51	C	-0.213070	-1.063625	0.354623
C52	C	0.286930	-0.563625	0.854623
C53	C	-0.105856	-1.063657	0.354639
C54	C	0.394144	-0.563657	0.854639
C55	C	-0.464680	-1.255504	0.354607
C56	C	0.035320	-0.755504	0.854607
C57	C	-0.464687	-1.337303	0.354617
C58	C	0.035313	-0.837303	0.854617
C59	C	-0.526437	-0.602364	0.401574
C60	C	-0.026437	-0.102364	0.901574
C61	C	-0.526440	-0.525506	0.401583
C62	C	-0.026440	-0.025506	0.901583
C63	C	-0.402906	-0.525490	0.307614
C64	C	0.097094	-0.025490	0.807614
C65	C	-0.402899	-0.602348	0.307609
C66	C	0.097101	-0.102348	0.807609
C67	C	-0.464670	-0.640783	0.354588
C68	C	0.035330	-0.140783	0.854588
C69	C	-0.464680	-0.487067	0.354602
C70	C	0.035320	0.012933	0.854602
C71	C	-0.464683	-0.403733	0.354612
C72	C	0.035317	0.096267	0.854612
C73	C	-0.464666	-0.724122	0.354579
C74	C	0.035334	-0.224122	0.854579
C75	C	-0.464659	-1.063549	0.163380
C76	C	0.035341	-0.563549	0.663380
C77	C	-0.464416	-1.063672	0.081581
C78	C	0.035584	-0.563672	0.581581
C79	C	-0.402821	-1.110720	0.816547
C80	C	0.097179	-0.610720	1.316547
C81	C	-0.402792	-1.110728	0.893406
C82	C	0.097208	-0.610728	1.393406
C83	C	-0.526166	-1.016563	0.893366
C84	C	-0.026166	-0.516563	1.393366
C85	C	-0.526188	-1.016551	0.816509
C86	C	-0.026188	-0.516551	1.316509
C87	C	-0.464517	-1.063634	0.778101
C88	C	0.035483	-0.563634	1.278101
C89	C	-0.464466	-1.063654	0.931818
C90	C	0.035534	-0.563654	1.431818
C91	C	-0.464436	-1.063663	1.015151
C92	C	0.035564	-0.563663	1.515151
C93	C	-0.464546	-1.063624	0.694762
C94	C	0.035454	-0.563624	1.194762
H95	H	-0.576732	-0.633656	0.439829
H96	H	-0.076732	-0.133656	0.939829
H97	H	-0.576378	-0.978232	0.924647
H98	H	-0.076378	-0.478232	1.424647
F99	F	-0.337170	-0.484579	0.257617
F100	F	0.162830	0.015421	0.757617
F101	F	-0.592179	-0.484621	0.451594
F102	F	-0.092179	0.015379	0.951594
F103	F	-0.337149	-0.643238	0.257601
F104	F	0.162851	-0.143238	0.757601
F105	F	-0.337182	-1.160827	0.775674
F106	F	0.162818	-0.660827	1.275674
F107	F	-0.337133	-1.160849	0.934320
F108	F	0.162867	-0.660849	1.434320
F109	F	-0.591853	-0.966430	0.775589
F110	F	-0.091853	-0.466430	1.275589
