data_functionalizedCrystal
_audit_creation_method	'MofGen! by Chris Wilmer'
_symmetry_space_group_name_H-M	'P1'
_symmetry_Int_Tables_number	1
_symmetry_cell_setting	triclinic
loop_
_symmetry_equiv_pos_as_xyz
  x,y,z
_cell_length_a	14.971486
_cell_length_b	10.654550
_cell_length_c	9.130313
_cell_angle_alpha	90.004369
_cell_angle_beta	89.998566
_cell_angle_gamma	84.049530
loop_
_atom_site_label
_atom_site_type_symbol
_atom_site_fract_x
_atom_site_fract_y
_atom_site_fract_z
O1	O	-1.187834	-0.163656	-0.121630
O2	O	-0.687834	0.336344	0.378370
O3	O	-0.927541	-0.183254	-0.121670
O4	O	-0.427541	0.316746	0.378330
O5	O	-1.063672	0.009348	-0.121640
O6	O	-0.563672	0.509348	0.378360
O7	O	-1.051703	-0.356259	-0.121660
O8	O	-0.551703	0.143741	0.378340
O9	O	-1.063662	0.009354	0.121959
O10	O	-0.563662	0.509354	0.621959
O11	O	-0.927531	-0.183249	0.121929
O12	O	-0.427531	0.316751	0.621929
O13	O	-1.187825	-0.163651	0.121968
O14	O	-0.687825	0.336349	0.621968
Cu15	Cu	-1.057677	-0.173449	0.144191
Cu16	Cu	-0.557677	0.326551	0.644191
Cu17	Cu	-1.057688	-0.173456	-0.143893
Cu18	Cu	-0.557688	0.326544	0.356107
O19	O	-1.051693	-0.356253	0.121938
O20	O	-0.551693	0.143747	0.621938
C21	C	-0.894206	-0.182375	0.000124
C22	C	-0.394206	0.317625	0.500124
C23	C	-0.794895	-0.179749	0.000109
C24	C	-0.294895	0.320251	0.500109
C25	C	-1.062788	0.056139	0.000158
C26	C	-0.562788	0.556139	0.500158
C27	C	-1.060159	0.195555	0.000156
C28	C	-0.560159	0.695555	0.500156
C29	C	-1.221159	-0.164530	0.000171
C30	C	-0.721159	0.335470	0.500171
C31	C	-1.320470	-0.167156	0.000176
C32	C	-0.820470	0.332844	0.500176
C33	C	-0.738285	-0.292898	0.000105
C34	C	-0.238285	0.207102	0.500105
C35	C	-0.644972	-0.290422	0.000127
C36	C	-0.144972	0.209578	0.500127
C37	C	-0.608271	-0.174797	0.000143
C38	C	-0.108271	0.325203	0.500143
C39	C	-0.664888	-0.061639	0.000151
C40	C	-0.164888	0.438361	0.500151
C41	C	-0.758199	-0.064116	0.000140
C42	C	-0.258199	0.435884	0.500140
C43	C	-0.470397	-0.056485	0.000172
C44	C	0.029603	0.443515	0.500172
C45	C	-0.377080	-0.054007	0.000180
C46	C	0.122920	0.445993	0.500180
C47	C	-0.357171	-0.282791	0.000159
C48	C	0.142829	0.217209	0.500159
C49	C	-0.450482	-0.285268	0.000147
C50	C	0.049518	0.214732	0.500147
C51	C	-0.507092	-0.172110	0.000153
C52	C	-0.007092	0.327890	0.500153
C53	C	-1.052577	-0.403044	0.000137
C54	C	-0.552577	0.096956	0.500137
C55	C	-1.055206	-0.542460	0.000130
C56	C	-0.555206	-0.042460	0.500130
N57	N	-1.057676	-0.173444	0.346814
N58	N	-0.557676	0.326556	0.846814
C59	C	-1.140311	0.275900	0.000167
C60	C	-0.640311	0.775900	0.500167
C61	C	-1.137835	0.406894	0.000149
C62	C	-0.637835	0.906894	0.500149
C63	C	-0.975048	0.377185	0.000114
C64	C	-0.475048	0.877185	0.500114
C65	C	-0.977525	0.246193	0.000121
C66	C	-0.477525	0.746193	0.500121
N67	N	-1.057696	-0.173451	-0.346515
N68	N	-0.557696	0.326549	0.153485
C69	C	-1.117975	-0.088195	0.423479
C70	C	-0.617975	0.411805	0.923479
C71	C	-1.117984	-0.088195	0.576816
C72	C	-0.617984	0.411805	1.076816
C73	C	-0.997390	-0.258704	0.576809
C74	C	-0.497390	0.241296	1.076809
C75	C	-0.997378	-0.258697	0.423475
C76	C	-0.497378	0.241303	0.923475
H77	H	-0.768160	-0.387053	0.000091
H78	H	-0.268160	0.112947	0.500091
H79	H	-1.167072	-0.018775	0.361065
H80	H	-0.667072	0.481225	0.861065
H81	H	-1.167084	-0.018777	0.639232
H82	H	-0.667084	0.481223	1.139232
Cl83	Cl	-0.871171	0.440854	0.000071
Cl84	Cl	-0.371171	0.940854	0.500071
H85	H	-0.948299	-0.328117	0.639241
H86	H	-0.448299	0.171883	1.139241
H87	H	-0.634998	0.032505	0.000185
H88	H	-0.134998	0.532505	0.500185
Cl89	Cl	-1.244193	0.212244	0.000207
Cl90	Cl	-0.744193	0.712244	0.500207
H91	H	-0.804290	0.028022	0.000142
H92	H	-0.304290	0.528022	0.500142
H93	H	-0.598884	-0.382559	0.000122
H94	H	-0.098884	0.117441	0.500122
Cl95	Cl	-0.496620	-0.430628	0.000112
Cl96	Cl	0.003380	0.069372	0.500112
Cl97	Cl	-1.238603	0.507895	0.000161
Cl98	Cl	-0.738603	1.007895	0.500161
H99	H	-0.948271	-0.328117	0.361050
H100	H	-0.448271	0.171883	0.861050
Cl101	Cl	-0.330942	0.091353	0.000249
Cl102	Cl	0.169058	0.591353	0.500249
Cl103	Cl	-0.876754	0.145179	0.000094
Cl104	Cl	-0.376754	0.645179	0.500094
H105	H	-0.311074	-0.374929	0.000161
H106	H	0.188926	0.125071	0.500161
Cl107	Cl	-0.541564	0.085774	0.000182
Cl108	Cl	-0.041564	0.585774	0.500182
