data_functionalizedCrystal
_audit_creation_method	'MofGen! by Chris Wilmer'
_symmetry_space_group_name_H-M	'P1'
_symmetry_Int_Tables_number	1
_symmetry_cell_setting	triclinic
loop_
_symmetry_equiv_pos_as_xyz
  x,y,z
_cell_length_a	11.792241
_cell_length_b	11.792241
_cell_length_c	10.268362
_cell_angle_alpha	90.000374
_cell_angle_beta	89.994572
_cell_angle_gamma	95.806584
loop_
_atom_site_label
_atom_site_type_symbol
_atom_site_fract_x
_atom_site_fract_y
_atom_site_fract_z
O1	O	0.155569	-1.506909	-0.108174
O2	O	0.655569	-1.006909	0.391826
O3	O	0.171602	-1.176568	-0.108205
O4	O	0.671602	-0.676568	0.391795
O5	O	-0.001585	-1.349755	-0.108180
O6	O	0.498415	-0.849755	0.391820
O7	O	0.328756	-1.333722	-0.108199
O8	O	0.828756	-0.833722	0.391801
O9	O	-0.001593	-1.349740	0.108421
O10	O	0.498407	-0.849740	0.608421
O11	O	0.171594	-1.176553	0.108396
O12	O	0.671594	-0.676553	0.608396
O13	O	0.155561	-1.506894	0.108426
O14	O	0.655561	-1.006894	0.608426
Cu15	Cu	0.163577	-1.341722	0.128188
Cu16	Cu	0.663577	-0.841722	0.628188
Cu17	Cu	0.163586	-1.341740	-0.127967
Cu18	Cu	0.663586	-0.841740	0.372033
O19	O	0.328748	-1.333707	0.108401
O20	O	0.828748	-0.833707	0.608401
C21	C	0.170591	-1.134269	0.000092
C22	C	0.670591	-0.634269	0.500092
C23	C	0.167576	-1.008255	0.000080
C24	C	0.667576	-0.508255	0.500080
N25	N	0.163571	-1.341717	0.308354
N26	N	0.663571	-0.841717	0.808354
C27	C	-0.043880	-1.348740	0.000120
C28	C	0.456120	-0.848740	0.500120
C29	C	-0.169894	-1.345726	0.000119
C30	C	0.330106	-0.845726	0.500119
C31	C	-0.400606	-1.340183	0.000096
C32	C	0.099394	-0.840183	0.500096
C33	C	-0.272221	-1.343262	0.000108
C34	C	0.227779	-0.843262	0.500108
C35	C	0.371043	-1.334721	0.000099
C36	C	0.871043	-0.834721	0.500099
C37	C	0.497057	-1.337736	0.000092
C38	C	0.997057	-0.837736	0.500092
C39	C	0.156572	-1.549192	0.000127
C40	C	0.656572	-1.049192	0.500127
C41	C	0.159587	-1.675206	0.000130
C42	C	0.659587	-1.175206	0.500130
C43	C	0.162034	-0.777543	0.000118
C44	C	0.662034	-0.277543	0.500118
C45	C	0.165113	-0.905928	0.000097
C46	C	0.665113	-0.405928	0.500097
N47	N	0.163584	-1.341753	-0.308133
N48	N	0.663584	-0.841753	0.191867
C49	C	0.163583	-1.341734	0.574025
C50	C	0.663583	-0.841734	1.074025
C51	C	0.163580	-1.341721	0.426187
C52	C	0.663580	-0.841721	0.926187
