data_functionalizedCrystal
_audit_creation_method	'MofGen! by Chris Wilmer'
_symmetry_space_group_name_H-M	'P1'
_symmetry_Int_Tables_number	1
_symmetry_cell_setting	triclinic
loop_
_symmetry_equiv_pos_as_xyz
  x,y,z
_cell_length_a	13.339070
_cell_length_b	16.109301
_cell_length_c	14.586319
_cell_angle_alpha	90.000787
_cell_angle_beta	89.998714
_cell_angle_gamma	80.454612
loop_
_atom_site_label
_atom_site_type_symbol
_atom_site_fract_x
_atom_site_fract_y
_atom_site_fract_z
O1	O	0.130021	-1.133153	-0.076178
O2	O	0.146201	-0.894827	-0.076192
O3	O	-0.009144	-0.986638	-0.076184
O4	O	0.285365	-1.041342	-0.076186
O5	O	-0.009146	-0.986629	0.076297
O6	O	0.146199	-0.894818	0.076289
O7	O	0.130018	-1.133144	0.076303
Cu8	Cu	0.138108	-1.013980	0.090219
Cu9	Cu	0.138111	-1.013991	-0.090107
O10	O	0.285363	-1.041333	0.076295
C11	C	0.145545	-0.863697	0.000047
C12	C	0.143580	-0.770947	0.000041
C13	C	-0.046831	-0.977393	0.000055
C14	C	-0.159124	-0.949849	0.000050
C15	C	0.130675	-1.164275	0.000063
C16	C	0.132640	-1.257024	0.000062
C17	C	-0.523987	-1.164017	0.000063
C18	C	-0.418483	-1.189898	0.000073
C19	C	-0.353638	-1.129888	0.000067
C20	C	-0.394307	-1.043992	0.000051
C21	C	-0.499822	-1.018108	0.000048
C22	C	-0.329473	-0.983979	0.000052
C23	C	-0.370142	-0.898083	0.000037
C24	C	-0.475647	-0.872203	0.000033
C25	C	-0.540492	-0.932213	0.000039
C26	C	-0.223958	-1.009863	0.000055
C27	C	-0.199793	-0.863954	0.000041
C28	C	-0.305297	-0.838073	0.000030
C29	C	0.323050	-1.050578	0.000054
C30	C	0.435343	-1.078122	0.000054
N31	N	0.138106	-1.013978	0.217051
C32	C	0.231189	-0.568905	0.000051
C33	C	0.229335	-0.481756	0.000057
C34	C	0.045023	-0.459072	0.000055
C35	C	0.046879	-0.546219	0.000055
C36	C	0.139965	-0.601133	0.000049
C37	C	0.136255	-0.426838	0.000054
C38	C	0.134244	-0.332347	0.000061
C39	C	0.141976	-0.695630	0.000044
N40	N	0.138106	-1.013998	-0.216939
C41	C	0.069342	-1.054656	0.452061
C42	C	0.069340	-1.054658	0.548042
C43	C	0.206873	-0.973315	0.548044
C44	C	0.206870	-0.973308	0.452065
C45	C	0.138105	-1.013984	0.404075
C46	C	0.138106	-1.013992	0.596036
C47	C	0.138104	-1.013994	0.700103
C48	C	0.138106	-1.013981	0.300002
H49	H	-0.190856	-1.079800	0.000068
H50	H	-0.027412	-0.572459	0.000056
H51	H	0.306986	-0.613614	0.000053
H52	H	-0.030764	-0.414350	0.000066
H53	H	0.262865	-0.940184	0.412992
C54	C	-0.005183	-1.098897	0.399884
C55	C	0.048675	-1.162231	0.344763
C56	C	-0.019958	-1.202988	0.296687
H57	H	-0.047301	-1.059329	0.362389
H58	H	-0.046148	-1.123166	0.442164
H59	H	0.089623	-1.137961	0.302489
H60	H	0.090789	-1.201816	0.382235
H61	H	-0.060923	-1.227258	0.338967
H62	H	-0.062072	-1.163414	0.259198
H63	H	0.016575	-1.245970	0.259289
H64	H	0.262860	-0.940199	0.587127
H65	H	-0.267732	-1.150966	0.000075
H66	H	0.303619	-0.455520	0.000061
C67	C	-0.005271	-1.098737	0.600306
C68	C	0.009424	-1.090018	0.694633
C69	C	-0.059302	-1.130603	0.742806
H70	H	0.005669	-1.156781	0.584683
H71	H	-0.072808	-1.074123	0.584630
H72	H	0.076944	-1.114635	0.710302
H73	H	-0.001524	-1.031983	0.710283
H74	H	-0.126838	-1.105989	0.727131
H75	H	-0.048356	-1.188645	0.727176
H76	H	-0.049347	-1.124687	0.806812
H77	H	-0.338426	-0.768134	0.000018
H78	H	-0.576792	-1.212868	0.000075
C79	C	-0.374526	-1.283190	0.000043
C80	C	-0.453892	-1.330205	0.000024
C81	C	-0.413438	-1.416153	-0.000014
H82	H	-0.333890	-1.296426	0.053206
H83	H	-0.333893	-1.296366	-0.053148
H84	H	-0.494508	-1.317035	0.053210
H85	H	-0.494535	-1.316995	-0.053134
H86	H	-0.372805	-1.429329	-0.053206
H87	H	-0.372802	-1.429380	0.053149
H88	H	-0.467281	-1.448063	-0.000036
H89	H	-0.508756	-0.802261	0.000027
C90	C	-0.129521	-0.798701	-0.000112
C91	C	-0.147910	-0.748385	-0.078552
C92	C	-0.083199	-0.688263	-0.078714
H93	H	-0.060825	-0.826306	-0.000158
H94	H	-0.141862	-0.764430	0.053032
H95	H	-0.135561	-0.782650	-0.131681
H96	H	-0.216593	-0.720760	-0.078522
H97	H	-0.095540	-0.653993	-0.025571
H98	H	-0.014507	-0.715876	-0.078758
H99	H	-0.095673	-0.654112	-0.131930
H100	H	-0.626403	-0.911145	0.000027
