data_functionalizedCrystal
_audit_creation_method	'MofGen! by Chris Wilmer'
_symmetry_space_group_name_H-M	'P1'
_symmetry_Int_Tables_number	1
_symmetry_cell_setting	triclinic
loop_
_symmetry_equiv_pos_as_xyz
  x,y,z
_cell_length_a	10.686220
_cell_length_b	16.959453
_cell_length_c	10.686551
_cell_angle_alpha	94.408900
_cell_angle_beta	89.691918
_cell_angle_gamma	94.401879
loop_
_atom_site_label
_atom_site_type_symbol
_atom_site_fract_x
_atom_site_fract_y
_atom_site_fract_z
Zn1	Zn	1.972259	-0.192707	0.562369
Zn2	Zn	2.472259	0.307293	1.062369
Zn3	Zn	1.956009	-0.335775	0.352597
Zn4	Zn	2.456009	0.164225	0.852597
Zn5	Zn	1.746375	-0.212927	0.368684
Zn6	Zn	2.246375	0.287073	0.868684
Zn7	Zn	1.762439	-0.334173	0.578375
Zn8	Zn	2.262439	0.165827	1.078375
O9	O	1.859271	-0.268896	0.465506
O10	O	2.359271	0.231104	0.965506
O11	O	2.145647	-0.203893	0.521111
O12	O	2.645647	0.296107	1.021111
O13	O	1.914677	-0.328612	0.179185
O14	O	2.414677	0.171388	0.679185
O15	O	1.776417	-0.099629	0.394411
O16	O	2.276417	0.400371	0.894411
O17	O	2.133708	-0.309005	0.366993
O18	O	2.633708	0.190995	0.866993
O19	O	1.942373	-0.084773	0.536710
O20	O	2.442373	0.415227	1.036710
O21	O	1.760659	-0.238356	0.191004
O22	O	2.260659	0.261644	0.691004
O23	O	1.572963	-0.236803	0.409932
O24	O	2.072963	0.263197	0.909932
O25	O	1.803796	-0.306275	0.751798
O26	O	2.303796	0.193725	1.251798
O27	O	1.584765	-0.325882	0.563990
O28	O	2.084765	0.174118	1.063990
O29	O	1.957950	-0.202340	0.740038
O30	O	2.457950	0.297660	1.240038
O31	O	1.930254	-0.446179	0.382514
O32	O	2.430254	0.053821	0.882514
O33	O	1.788039	-0.445002	0.548392
O34	O	2.288039	0.054998	1.048392
C35	C	1.533348	-0.283363	0.490444
C36	C	2.033348	0.216637	0.990444
C37	C	1.393919	-0.289570	0.501143
C38	C	1.893919	0.210430	1.001143
C39	C	1.859162	-0.474269	0.465469
C40	C	2.359162	0.025731	0.965469
C41	C	1.859234	-0.562121	0.465485
C42	C	2.359234	-0.062121	0.965485
C43	C	1.945798	-0.925788	0.539745
C44	C	2.445798	-0.425788	1.039745
C45	C	1.773107	-0.941375	0.391427
C46	C	2.273107	-0.441375	0.891427
C47	C	1.773059	-0.858833	0.391402
C48	C	2.273059	-0.358833	0.891402
C49	C	1.859380	-0.809764	0.465551
C50	C	2.359380	-0.309764	0.965551
C51	C	1.945750	-0.843238	0.539725
C52	C	2.445750	-0.343238	1.039725
C53	C	1.686682	-0.825353	0.317239
C54	C	2.186682	-0.325353	0.817239
C55	C	1.686629	-0.742806	0.317212
C56	C	2.186629	-0.242806	0.817212
C57	C	1.772957	-0.693736	0.391355
C58	C	2.272957	-0.193736	0.891355
C59	C	1.859331	-0.727214	0.465531
C60	C	2.359331	-0.227214	0.965531
C61	C	1.945653	-0.678145	0.539680
C62	C	2.445653	-0.178145	1.039680
C63	C	2.032034	-0.711622	0.613850
C64	C	2.532034	-0.211622	1.113850
C65	C	2.032078	-0.794167	0.613868
C66	C	2.532078	-0.294167	1.113868
C67	C	1.772913	-0.611190	0.391337
C68	C	2.272913	-0.111190	0.891337
C69	C	1.945604	-0.595595	0.539660
C70	C	2.445604	-0.095595	1.039660
C71	C	2.186466	-0.254372	0.440472
C72	C	2.686466	0.245628	0.940472
C73	C	2.325897	-0.248183	0.429804
C74	C	2.825897	0.251817	0.929804
C75	C	1.884478	-0.251873	0.792708
C76	C	2.384478	0.248127	1.292708
C77	C	1.895220	-0.244619	0.932142
C78	C	2.395220	0.255381	1.432142
C79	C	1.859415	-0.062717	0.465569
C80	C	2.359415	0.437283	0.965569
C81	C	1.859477	0.025143	0.465596
C82	C	2.359477	0.525143	0.965596
C83	C	1.834234	-0.285792	0.139572
C84	C	2.334234	0.214208	0.639572
C85	C	1.823735	-0.292812	0.000120
C86	C	2.323735	0.207188	0.500120
H87	H	1.374329	-0.208003	0.360542
H88	H	1.874329	0.291997	0.860542
H89	H	1.754319	-0.339623	0.951648
H90	H	2.254319	0.160377	1.451648
H91	H	2.102312	-0.671660	0.674229
H92	H	2.602312	-0.171660	1.174229
H93	H	1.702824	-0.981331	0.331064
H94	H	2.202824	-0.481331	0.831064
H95	H	2.015902	-0.555647	0.600036
H96	H	2.515902	-0.055647	1.100036
H97	H	2.102404	-0.821432	0.674254
H98	H	2.602404	-0.321432	1.174254
H99	H	1.964649	-0.197810	0.980620
H100	H	2.464649	0.302190	1.480620
H101	H	2.016131	-0.953048	0.600129
H102	H	2.516131	-0.453048	1.100129
H103	H	1.345481	-0.329758	0.570401
H104	H	1.845481	0.170242	1.070401
H105	H	1.616401	-0.865310	0.256875
H106	H	2.116401	-0.365310	0.756875
H107	H	1.702577	-0.583937	0.330955
H108	H	2.202577	-0.083937	0.830955
H109	H	1.616294	-0.715555	0.256818
H110	H	2.116294	-0.215555	0.756818
