data_functionalizedCrystal
_audit_creation_method	'MofGen! by Chris Wilmer'
_symmetry_space_group_name_H-M	'P1'
_symmetry_Int_Tables_number	1
_symmetry_cell_setting	triclinic
loop_
_symmetry_equiv_pos_as_xyz
  x,y,z
_cell_length_a	12.759401
_cell_length_b	12.759400
_cell_length_c	19.076919
_cell_angle_alpha	92.274856
_cell_angle_beta	92.284146
_cell_angle_gamma	90.014845
loop_
_atom_site_label
_atom_site_type_symbol
_atom_site_fract_x
_atom_site_fract_y
_atom_site_fract_z
Zn1	Zn	1.582347	-0.442148	-0.397908
Zn2	Zn	1.589313	-0.610784	-0.280220
Zn3	Zn	1.413719	-0.435121	-0.280233
Zn4	Zn	1.406639	-0.617784	-0.397882
O5	O	1.498004	-0.526459	-0.339061
O6	O	1.730291	-0.464529	-0.382302
O7	O	1.571898	-0.581611	-0.181732
O8	O	1.436136	-0.289033	-0.295859
O9	O	1.735409	-0.588425	-0.295837
O10	O	1.560026	-0.294195	-0.382314
O11	O	1.442891	-0.452552	-0.181742
O12	O	1.265759	-0.459340	-0.295834
O13	O	1.424069	-0.600356	-0.496375
O14	O	1.260557	-0.593542	-0.382271
O15	O	1.553160	-0.471317	-0.496394
O16	O	1.565033	-0.758732	-0.295812
O17	O	1.430823	-0.763876	-0.382258
C18	C	1.225038	-0.526439	-0.339051
C19	C	1.108260	-0.526457	-0.339064
C20	C	1.050721	-0.596439	-0.383997
C21	C	0.940997	-0.596453	-0.384005
C22	C	0.946360	-0.456499	-0.294140
C23	C	1.056082	-0.456481	-0.294137
C24	C	1.102899	-0.666415	-0.428924
C25	C	1.045361	-0.736404	-0.473860
C26	C	0.935636	-0.736417	-0.473868
C27	C	0.883450	-0.666442	-0.428940
C28	C	1.497943	-0.799425	-0.339046
C29	C	1.498011	-0.916203	-0.339064
C30	C	1.567966	-0.968355	-0.294101
C31	C	1.568029	-1.078080	-0.294123
C32	C	1.428174	-1.083492	-0.384072
C33	C	1.428117	-0.973769	-0.384053
C34	C	1.637860	-0.910789	-0.249112
C35	C	1.707819	-0.962941	-0.204145
C36	C	1.707883	-1.072666	-0.204166
C37	C	1.637987	-1.130240	-0.249155
C38	C	1.772037	-0.526480	-0.339071
C39	C	1.888813	-0.526489	-0.339075
C40	C	1.487048	-0.537401	-0.522636
C41	C	1.482378	-0.542064	-0.600865
C42	C	1.498094	-0.252428	-0.339091
C43	C	1.498132	-0.135652	-0.339104
C44	C	1.547393	-0.477074	-0.637628
C45	C	1.542993	-0.481452	-0.711132
C46	C	1.473583	-0.550825	-0.747872
C47	C	1.408562	-0.615818	-0.711104
C48	C	1.412957	-0.611434	-0.637601
C49	C	1.453226	-0.571134	-0.967701
C50	C	1.448837	-0.575515	-1.041209
C51	C	1.583267	-0.441146	-1.041232
C52	C	1.587661	-0.436774	-0.967728
C53	C	1.522636	-0.501762	-0.930966
N54	N	1.469086	-0.555303	-0.823005
N55	N	1.527128	-0.497278	-0.855834
C56	C	1.508979	-0.515483	-0.156200
C57	C	1.513852	-0.510524	-0.077972
H58	H	0.794105	-0.666451	-0.428956
C59	C	1.102760	-0.813372	-0.523275
H60	H	1.176348	-0.803351	-0.516831
H61	H	1.081971	-0.800938	-0.570584
H62	H	1.085382	-0.883323	-0.512884
C63	C	0.872345	-0.813391	-0.523300
H64	H	0.919139	-0.855064	-0.550052
H65	H	0.827722	-0.775110	-0.554015
H66	H	0.831141	-0.857507	-0.496324
H67	H	0.903862	-0.399530	-0.257561
H68	H	1.102931	-0.399488	-0.257554
C69	C	1.372478	-0.651819	-1.081625
H70	H	1.379183	-0.645127	-1.130665
H71	H	1.302613	-0.635713	-1.069578
H72	H	1.388548	-0.721699	-1.069573
C73	C	1.637797	-0.790096	-0.249088
H74	H	1.689446	-0.763279	-0.215860
H75	H	1.570727	-0.764609	-0.236879
H76	H	1.653199	-0.767940	-0.294514
H77	H	1.764733	-0.916059	-0.167520
H78	H	1.764854	-1.115126	-0.167557
C79	C	1.638061	-1.250935	-0.249181
H80	H	1.689733	-1.273752	-0.215958
H81	H	1.653476	-1.278419	-0.294615
H82	H	1.571017	-1.275094	-0.236971
C83	C	1.654784	-0.369657	-1.081668
H84	H	1.696755	-0.327719	-1.049259
H85	H	1.612898	-0.325588	-1.110344
H86	H	1.698839	-0.411566	-1.110338
H87	H	1.371267	-1.130377	-0.420698
C88	C	1.623743	-0.400765	-0.597217
H89	H	1.617059	-0.407467	-0.548176
H90	H	1.607671	-0.330893	-0.609270
H91	H	1.693611	-0.416873	-0.609268
H92	H	1.371154	-0.931307	-0.420666
H93	H	1.595937	-0.428532	-0.741061
H94	H	1.644185	-0.380285	-0.937819
H95	H	1.400293	-0.624068	-0.937778
H96	H	1.192242	-0.666413	-0.428922
H97	H	1.352043	-0.672299	-0.741023
C98	C	1.341468	-0.682949	-0.597161
H99	H	1.299514	-0.724908	-0.629568
H100	H	1.297413	-0.641068	-0.568481
H101	H	1.383384	-0.727016	-0.568495
