data_functionalizedCrystal
_audit_creation_method	'MofGen! by Chris Wilmer'
_symmetry_space_group_name_H-M	'P1'
_symmetry_Int_Tables_number	1
_symmetry_cell_setting	triclinic
loop_
_symmetry_equiv_pos_as_xyz
  x,y,z
_cell_length_a	17.699083
_cell_length_b	16.109301
_cell_length_c	15.186229
_cell_angle_alpha	90.004940
_cell_angle_beta	89.998151
_cell_angle_gamma	96.627752
loop_
_atom_site_label
_atom_site_type_symbol
_atom_site_fract_x
_atom_site_fract_y
_atom_site_fract_z
O1	O	1.004225	-0.105136	-0.073197
O2	O	0.783866	-0.118815	-0.073207
O3	O	0.900099	0.009066	-0.073192
O4	O	0.887992	-0.233017	-0.073211
O5	O	0.900091	0.009067	0.073265
O6	O	0.783858	-0.118814	0.073251
O7	O	1.004217	-0.105135	0.073260
Zn8	Zn	0.894036	-0.111974	0.096509
Zn9	Zn	0.894047	-0.111976	-0.096455
O10	O	0.887984	-0.233016	0.073246
C11	C	0.755664	-0.118324	0.000021
C12	C	0.671644	-0.116854	0.000018
C13	C	1.032419	-0.105626	0.000031
C14	C	1.116439	-0.107096	0.000029
C15	C	0.899604	0.040040	0.000037
C16	C	0.898134	0.132333	0.000038
C17	C	1.164953	-0.032033	0.000031
C18	C	1.243898	-0.033419	0.000034
C19	C	1.274328	-0.109870	0.000028
C20	C	1.225808	-0.184939	0.000028
C21	C	1.146864	-0.183552	0.000031
C22	C	1.544179	-0.190536	0.000015
C23	C	1.623129	-0.191918	0.000009
C24	C	1.641213	-0.040404	0.000017
C25	C	1.562269	-0.039016	0.000021
C26	C	1.513756	-0.114085	0.000026
C27	C	1.428154	-0.112581	0.000024
C28	C	1.359928	-0.111375	0.000023
C29	C	0.888478	-0.263990	0.000015
C30	C	0.889949	-0.356283	0.000008
N31	N	0.894034	-0.111973	0.228202
C32	C	0.963686	0.354719	0.000027
C33	C	0.962298	0.441437	0.000019
C34	C	0.824392	0.421325	0.000017
C35	C	0.825780	0.334608	0.000018
C36	C	0.895429	0.301308	0.000027
C37	C	0.892654	0.474742	0.000019
C38	C	0.891149	0.568766	0.000011
C39	C	0.896934	0.207278	0.000034
C40	C	0.945519	-0.055367	0.453931
C41	C	0.945521	-0.055365	0.546120
C42	C	0.842561	-0.168583	0.546117
C43	C	0.842556	-0.168580	0.453929
C44	C	0.894039	-0.111973	0.407838
C45	C	0.894047	-0.111974	0.592216
C46	C	0.894048	-0.111973	0.692172
C47	C	0.894037	-0.111973	0.307876
N48	N	0.894052	-0.111975	0.771852
H49	H	1.283395	0.027705	0.000040
H50	H	1.537498	0.023238	0.000022
H51	H	0.767686	0.448449	0.000011
C52	C	1.656061	-0.274989	-0.000130
C53	C	1.631383	-0.320374	-0.075464
C54	C	1.661696	-0.396903	-0.075618
H55	H	1.710023	-0.265183	-0.000181
H56	H	1.639389	-0.305930	0.050919
H57	H	1.648059	-0.289440	-0.126500
H58	H	1.577425	-0.330203	-0.075429
H59	H	1.645024	-0.427844	-0.024569
H60	H	1.715657	-0.387088	-0.075667
H61	H	1.644950	-0.427709	-0.126727
C62	C	1.036488	0.499287	0.000067
C63	C	1.097777	0.451559	0.000097
C64	C	1.166135	0.504822	0.000151
H65	H	1.038926	0.533546	-0.050994
H66	H	1.038852	0.533528	0.051159
H67	H	1.095414	0.417334	-0.050990
H68	H	1.095364	0.417302	0.051153
H69	H	1.168499	0.539063	0.051243
H70	H	1.168564	0.539079	-0.050911
H71	H	1.207727	0.472447	0.000179
C72	C	0.751586	0.276750	0.000063
C73	C	0.690293	0.324472	0.000086
C74	C	0.621939	0.271202	0.000136
H75	H	0.749157	0.242482	-0.050996
H76	H	0.749220	0.242520	0.051157
H77	H	0.692659	0.358688	-0.051002
H78	H	0.692697	0.358738	0.051141
H79	H	0.619573	0.236972	0.051229
H80	H	0.619518	0.236936	-0.050925
H81	H	0.580344	0.303573	0.000159
C82	C	0.786577	-0.229911	0.403830
C83	C	0.740245	-0.185685	0.350933
C84	C	0.688664	-0.242150	0.304778
H85	H	0.813705	-0.264500	0.367787
H86	H	0.755876	-0.263619	0.444453
H87	H	0.770943	-0.151992	0.310315
H88	H	0.713101	-0.151099	0.386954
H89	H	0.657963	-0.275857	0.345400
H90	H	0.715798	-0.276736	0.268740
H91	H	0.657217	-0.212151	0.268888
H92	H	0.987438	-0.009273	0.416406
H93	H	1.107364	-0.244676	0.000032
H94	H	1.680722	0.020721	0.000017
C95	C	1.001501	0.006129	0.596004
C96	C	1.046595	0.055687	0.535905
C97	C	1.098179	0.112340	0.581825
H98	H	0.974377	0.040782	0.631976
H99	H	1.033040	-0.023715	0.631942
H100	H	1.015060	0.085529	0.499982
H101	H	1.073735	0.021057	0.499931
H102	H	1.129719	0.082496	0.617763
H103	H	1.071049	0.146987	0.617795
H104	H	1.128787	0.145967	0.541054
H105	H	0.800646	-0.214673	0.583653
H106	H	1.504688	-0.251662	0.000014
C107	C	1.132022	0.051034	-0.000100
C108	C	1.156699	0.096410	-0.075435
C109	C	1.126390	0.172941	-0.075577
H110	H	1.078060	0.041231	-0.000146
H111	H	1.148698	0.081979	0.050949
H112	H	1.140018	0.065472	-0.126470
H113	H	1.210657	0.106236	-0.075405
H114	H	1.143066	0.203887	-0.024528
H115	H	1.072429	0.163130	-0.075620
H116	H	1.143134	0.203742	-0.126686
C117	C	1.258887	-0.267920	-0.000158
C118	C	1.303663	-0.273154	-0.075521
C119	C	1.334138	-0.349589	-0.075730
H120	H	1.289361	-0.271690	0.050853
H121	H	1.218707	-0.312452	-0.000204
H122	H	1.343837	-0.228634	-0.075467
H123	H	1.273206	-0.269398	-0.126544
H124	H	1.293958	-0.394121	-0.075776
H125	H	1.364608	-0.353352	-0.024716
H126	H	1.364516	-0.353154	-0.126867
H127	H	1.020398	0.327608	0.000033
