data_functionalizedCrystal
_audit_creation_method	'MofGen! by Chris Wilmer'
_symmetry_space_group_name_H-M	'P1'
_symmetry_Int_Tables_number	1
_symmetry_cell_setting	triclinic
loop_
_symmetry_equiv_pos_as_xyz
  x,y,z
_cell_length_a	6.817900
_cell_length_b	17.078472
_cell_length_c	11.102193
_cell_angle_alpha	95.114488
_cell_angle_beta	108.604059
_cell_angle_gamma	99.306020
loop_
_atom_site_label
_atom_site_type_symbol
_atom_site_fract_x
_atom_site_fract_y
_atom_site_fract_z
V1	V	-4.064552	-0.109773	-0.396130
O2	O	-4.072802	0.005269	-0.388720
O3	O	-3.995176	-0.217656	-0.393294
O4	O	-4.042048	-0.108087	-0.568953
O5	O	-4.025605	-0.105058	-0.211845
V6	V	-4.547543	-0.096012	-0.374103
O7	O	-4.326979	-0.139958	-0.444447
O8	O	-4.735314	-0.065827	-0.325786
O9	O	-4.393713	0.011870	-0.376939
O10	O	-4.656690	-0.211054	-0.381513
O11	O	-4.703887	-0.100727	-0.558388
O12	O	-4.346841	-0.097698	-0.201280
C13	C	-3.834236	-0.243955	-0.387013
C14	C	-3.858972	-0.332151	-0.385846
C15	C	-4.052871	-0.377626	-0.391633
C16	C	-4.076105	-0.460496	-0.390544
C17	C	-3.905433	-0.497887	-0.383660
C18	C	-3.711520	-0.452406	-0.377877
C19	C	-3.688293	-0.369539	-0.378975
C20	C	-3.955357	-0.745291	-0.379706
C21	C	-3.978598	-0.828164	-0.378605
C22	C	-4.343183	-0.836248	-0.391275
C23	C	-4.319935	-0.753378	-0.392364
C24	C	-4.126029	-0.707905	-0.386588
N25	N	-3.929175	-0.582593	-0.382543
N26	N	-4.102293	-0.623202	-0.387714
C27	C	-3.894025	-0.104188	-0.611082
C28	C	-3.956769	-0.103524	-0.752365
C29	C	-4.014932	-0.248835	-0.788523
C30	C	-4.073484	-0.321175	-0.872975
C31	C	-4.132439	-0.320546	-1.005721
C32	C	-4.132847	-0.247569	-1.054017
C33	C	-4.074295	-0.175229	-0.969566
C34	C	-4.015336	-0.175866	-0.836818
C35	C	-4.016148	-0.029920	-0.933408
C36	C	-3.957177	-0.030547	-0.800661
C37	C	-4.016556	0.043057	-0.981705
C38	C	-3.957989	0.115399	-0.897252
C39	C	-3.899029	0.114767	-0.764498
C40	C	-3.898626	0.041793	-0.716209
C41	C	-4.217994	0.038166	-0.383217
C42	C	-4.172497	0.126360	-0.384392
C43	C	-4.158205	-0.101600	-0.159145
C44	C	-4.074699	-0.102260	-0.017860
H45	H	-4.233996	-0.497519	-0.395258
O46	O	-4.072877	-0.391989	-0.825841
C47	C	-4.008335	-0.377039	-0.690569
H48	H	-3.911976	-0.313306	-0.654656
H49	H	-4.153445	-0.384155	-0.659446
C50	C	-3.990329	-0.515468	-0.677470
C51	C	-3.871963	-0.437191	-0.633360
H52	H	-3.906216	-0.552574	-0.642180
H53	H	-4.033820	-0.525541	-0.768606
H54	H	-4.111248	-0.521386	-0.651531
H55	H	-3.751062	-0.431271	-0.659313
H56	H	-3.828448	-0.427118	-0.542227
O57	O	-4.531353	-0.880490	-0.396720
C58	C	-4.503160	-0.917884	-0.285882
H59	H	-4.330848	-0.923199	-0.243350
H60	H	-4.547364	-0.880403	-0.212010
C61	C	-4.857054	-0.995652	-0.374292
C62	C	-4.645421	-1.002187	-0.322059
H63	H	-4.944813	-1.047652	-0.396605
H64	H	-4.876053	-0.970457	-0.448964
H65	H	-4.893861	-0.964415	-0.312724
H66	H	-4.608611	-1.033414	-0.383633
H67	H	-4.626420	-1.027389	-0.247398
H68	H	-3.966899	-0.249354	-0.680434
H69	H	-4.191849	-0.347187	-0.397226
H70	H	-4.458923	-0.722941	-0.397979
H71	H	-3.530404	-0.332514	-0.374268
H72	H	-4.180119	-0.379452	-1.074484
O73	O	-3.958418	0.186212	-0.944377
C74	C	-4.023082	0.171253	-1.079654
H75	H	-3.992806	0.110274	-1.111073
H76	H	-4.198899	0.171385	-1.122149
C77	C	-3.934303	0.312003	-1.088985
C78	C	-3.897100	0.237110	-1.127575
H79	H	-3.856600	0.352628	-1.118548
H80	H	-3.890745	0.322082	-0.997847
H81	H	-4.080821	0.312101	-1.124401
H82	H	-3.750590	0.237010	-1.092146
H83	H	-3.940631	0.227033	-1.218709
O84	O	-3.842126	0.185115	-0.682640
C85	C	-3.855191	0.249652	-0.753742
H86	H	-3.842421	0.230178	-0.851423
H87	H	-4.012989	0.268564	-0.767993
C88	C	-3.689238	0.344826	-0.560238
C89	C	-3.673536	0.320910	-0.680207
H90	H	-3.577192	0.388783	-0.514877
H91	H	-3.680443	0.301347	-0.512334
H92	H	-3.820744	0.360581	-0.572130
H93	H	-3.542044	0.305146	-0.668313
H94	H	-3.682305	0.364388	-0.728108
H95	H	-4.180880	-0.247064	-1.162109
H96	H	-3.839619	-0.858609	-0.373029
H97	H	-3.797466	-0.708276	-0.374995
H98	H	-3.572561	-0.482858	-0.372279
H99	H	-4.064578	0.043564	-1.089796
H100	H	-3.850608	0.041272	-0.608121
