data_functionalizedCrystal
_audit_creation_method	'MofGen! by Chris Wilmer'
_symmetry_space_group_name_H-M	'P1'
_symmetry_Int_Tables_number	1
_symmetry_cell_setting	triclinic
loop_
_symmetry_equiv_pos_as_xyz
  x,y,z
_cell_length_a	18.215407
_cell_length_b	25.639240
_cell_length_c	18.215399
_cell_angle_alpha	90.032103
_cell_angle_beta	89.980167
_cell_angle_gamma	89.956389
loop_
_atom_site_label
_atom_site_type_symbol
_atom_site_fract_x
_atom_site_fract_y
_atom_site_fract_z
Zn1	Zn	1.124978	0.208150	-0.416095
Zn2	Zn	1.124848	0.295586	-0.293019
Zn3	Zn	1.001911	0.208167	-0.293042
Zn4	Zn	1.001838	0.295557	-0.416044
O5	O	1.063394	0.251865	-0.354550
O6	O	1.227945	0.219754	-0.399780
O7	O	1.108516	0.284009	-0.190038
O8	O	1.018322	0.135000	-0.309396
O9	O	1.227849	0.283992	-0.309357
O10	O	1.108739	0.134987	-0.399802
O11	O	1.018195	0.219783	-0.190055
O12	O	0.898917	0.219754	-0.309347
O13	O	1.018197	0.283943	-0.519035
O14	O	0.898863	0.283959	-0.399716
O15	O	1.108668	0.219725	-0.519072
O16	O	1.108445	0.368747	-0.309308
O17	O	1.018070	0.368726	-0.399694
C18	C	0.872187	0.251856	-0.354529
C19	C	0.790389	0.251865	-0.354537
C20	C	0.602186	0.285349	-0.401534
C21	C	0.525327	0.285350	-0.401543
C22	C	0.525354	0.218391	-0.307583
C23	C	0.602211	0.218387	-0.307578
C24	C	0.640625	0.251869	-0.354552
C25	C	0.486909	0.251874	-0.354566
C26	C	0.403575	0.251876	-0.354576
C27	C	0.723964	0.251867	-0.354544
C28	C	1.063255	0.387708	-0.354509
C29	C	1.063263	0.445822	-0.354517
C30	C	1.110514	0.806183	-0.307538
C31	C	1.110536	0.860787	-0.307545
O32	O	1.150613	0.889023	-0.267580
N33	N	1.063453	0.888104	-0.354566
C34	C	1.016350	0.860813	-0.401589
O35	O	0.976304	0.889062	-0.441585
C36	C	1.016331	0.806210	-0.401585
C37	C	1.063412	0.778896	-0.354555
C38	C	1.157591	0.778869	-0.260513
C39	C	1.157568	0.724269	-0.260505
C40	C	1.110466	0.696982	-0.307522
C41	C	1.063389	0.724296	-0.354548
C42	C	0.969232	0.778920	-0.448611
C43	C	0.969218	0.724313	-0.448603
C44	C	1.016299	0.697000	-0.401574
C45	C	1.016264	0.642409	-0.401557
N46	N	1.063347	0.615092	-0.354536
C47	C	1.110448	0.642379	-0.307519
C48	C	1.016392	0.975484	-0.401595
C49	C	1.016406	1.030086	-0.401595
C50	C	1.110594	1.030057	-0.307552
C51	C	1.110576	0.975453	-0.307548
C52	C	1.063476	0.948167	-0.354573
C53	C	1.110394	0.527714	-0.307505
C54	C	1.110364	0.473108	-0.307499
C55	C	1.016180	0.473143	-0.401545
C56	C	1.016207	0.527743	-0.401548
C57	C	1.063320	0.555028	-0.354526
O58	O	0.976210	0.614138	-0.441505
O59	O	1.150494	0.614123	-0.267536
C60	C	1.255347	0.251874	-0.354572
C61	C	1.337145	0.251878	-0.354581
C62	C	1.063439	0.251829	-0.546503
C63	C	1.063458	0.251814	-0.628302
C64	C	1.063525	1.115492	-0.354594
C65	C	1.063511	1.057378	-0.354580
C66	C	1.110583	0.218344	-0.816516
C67	C	1.110592	0.218329	-0.893375
C68	C	1.016385	0.285202	-0.893325
C69	C	1.016373	0.285214	-0.816468
C70	C	1.063476	0.251786	-0.778066
C71	C	1.063497	0.251759	-0.931782
C72	C	1.063506	0.251742	-1.015115
C73	C	1.063466	0.251802	-0.694727
C74	C	1.063391	0.251863	-0.163344
C75	C	1.063515	0.251731	-0.081545
H76	H	0.633509	0.191120	-0.269320
O77	O	1.156386	0.185916	-0.930809
C78	C	1.203902	0.215675	-0.975253
H79	H	1.177905	0.255296	-0.986744
H80	H	1.258431	0.221425	-0.945645
C81	C	1.249193	0.138231	-1.034162
C82	C	1.217261	0.186892	-1.048280
H83	H	1.257437	0.120476	-1.079207
H84	H	1.217183	0.118181	-1.004217
H85	H	1.294631	0.143030	-1.009487
H86	H	1.171820	0.182093	-1.072947
H87	H	1.249264	0.206941	-1.078231
H88	H	0.978036	0.312419	-0.924602
H89	H	0.978007	0.312446	-0.785161
O90	O	0.487906	0.317900	-0.447077
C91	C	0.443410	0.351641	-0.405095
H92	H	0.431888	0.333151	-0.349373
H93	H	0.472988	0.390379	-0.396905
C94	C	0.384563	0.383858	-0.514009
C95	C	0.370407	0.361146	-0.445572
H96	H	0.339533	0.389723	-0.538978
H97	H	0.414543	0.361127	-0.542294
H98	H	0.409214	0.416137	-0.507175
H99	H	0.345766	0.328865	-0.452408
H100	H	0.340421	0.383872	-0.417289
O101	O	0.639388	0.317885	-0.447237
C102	C	0.588975	0.347443	-0.488694
H103	H	0.534211	0.326032	-0.491297
H104	H	0.580752	0.387130	-0.461647
C105	C	0.686256	0.381341	-0.563802
C106	C	0.618995	0.355042	-0.567005
H107	H	0.704775	0.386031	-0.612107
H108	H	0.720221	0.361429	-0.535870
H109	H	0.679394	0.414411	-0.541260
H110	H	0.625860	0.321971	-0.589538
H111	H	0.585032	0.374949	-0.594942
H112	H	1.148703	0.450871	-0.269200
H113	H	0.978032	0.953271	-0.439886
O114	O	1.156180	0.554132	-0.261756
C115	C	1.197734	0.518306	-0.220267
H116	H	1.167570	0.479409	-0.217696
H117	H	1.253610	0.512443	-0.247265
C118	C	1.245441	0.587410	-0.145107
C119	C	1.208389	0.539637	-0.141944
H120	H	1.252017	0.600569	-0.096795
H121	H	1.217447	0.611547	-0.173061
H122	H	1.292000	0.582518	-0.167608
H123	H	1.161828	0.544531	-0.119452
H124	H	1.236375	0.515501	-0.113985
O125	O	0.488002	0.185945	-0.261874
C126	C	0.443481	0.215670	-0.214281
H127	H	0.466602	0.256844	-0.209625
H128	H	0.385241	0.217496	-0.237036
C129	C	0.413893	0.139487	-0.143561
C130	C	0.442294	0.190055	-0.137838
H131	H	0.413157	0.123686	-0.096408
H132	H	0.443885	0.119459	-0.175627
H133	H	0.365362	0.141015	-0.162527
H134	H	0.490827	0.188526	-0.118881
H135	H	0.412310	0.210082	-0.105767
O136	O	1.203380	0.697821	-0.214805
C137	C	1.244941	0.733623	-0.173303
H138	H	1.247473	0.772530	-0.203457
H139	H	1.218032	0.739475	-0.117383
C140	C	1.320162	0.664485	-0.125739
C141	C	1.323277	0.712270	-0.162778
H142	H	1.368482	0.651313	-0.119243
H143	H	1.292160	0.640364	-0.153697
H144	H	1.297735	0.669368	-0.079143
H145	H	1.345695	0.707385	-0.209376
H146	H	1.351285	0.736390	-0.134827
H147	H	1.195951	0.801081	-0.222226
H148	H	1.148935	0.191123	-0.785251
H149	H	1.148914	0.953218	-0.269253
H150	H	1.148949	1.052283	-0.269271
O151	O	0.923604	0.805500	-0.494339
C152	C	0.965492	0.837019	-0.541928
H153	H	1.021275	0.845179	-0.516017
H154	H	0.973554	0.815935	-0.596462
C155	C	0.856493	0.878881	-0.587073
C156	C	0.925004	0.888907	-0.555245
H157	H	0.831517	0.910887	-0.595290
H158	H	0.828271	0.857645	-0.555013
H159	H	0.863221	0.861310	-0.632514
H160	H	0.918276	0.906472	-0.509800
H161	H	0.953224	0.910147	-0.587297
O162	O	0.970643	1.056535	-0.447343
C163	C	0.929054	1.020735	-0.488822
H164	H	0.959185	0.981790	-0.491388
H165	H	0.873176	1.014981	-0.461819
C166	C	0.881401	1.089844	-0.563992
C167	C	0.918411	1.042012	-0.567149
H168	H	0.874832	1.102969	-0.612306
H169	H	0.909417	1.113964	-0.536045
H170	H	0.834840	1.085043	-0.541486
H171	H	0.964975	1.046815	-0.589646
H172	H	0.890402	1.017894	-0.595101
O173	O	0.923396	0.697890	-0.494310
C174	C	0.881866	0.733711	-0.535831
H175	H	0.879348	0.772648	-0.505686
H176	H	0.908793	0.739475	-0.591745
C177	C	0.806619	0.664633	-0.583401
C178	C	0.803521	0.712455	-0.546373
H179	H	0.758293	0.651521	-0.589907
H180	H	0.834600	0.640499	-0.555430
H181	H	0.829061	0.669443	-0.629992
H182	H	0.781087	0.707644	-0.499780
H183	H	0.775535	0.736588	-0.574336
H184	H	0.977872	0.549983	-0.439846
O185	O	0.970537	0.446605	-0.447295
C186	C	1.012411	0.414960	-0.494839
H187	H	1.070373	0.431378	-0.499435
H188	H	1.014950	0.373588	-0.472076
C189	C	0.905234	0.393937	-0.565672
C190	C	0.976422	0.414104	-0.571321
H191	H	0.883034	0.393407	-0.612849
H192	H	0.877022	0.415256	-0.533639
H193	H	0.907360	0.359462	-0.546699
H194	H	0.974294	0.448581	-0.590284
H195	H	1.004633	0.392792	-0.603359
