data_functionalizedCrystal
_audit_creation_method	'MofGen! by Chris Wilmer'
_symmetry_space_group_name_H-M	'P1'
_symmetry_Int_Tables_number	1
_symmetry_cell_setting	triclinic
loop_
_symmetry_equiv_pos_as_xyz
  x,y,z
_cell_length_a	12.759395
_cell_length_b	16.120484
_cell_length_c	12.759387
_cell_angle_alpha	92.863664
_cell_angle_beta	89.982772
_cell_angle_gamma	92.926975
loop_
_atom_site_label
_atom_site_type_symbol
_atom_site_fract_x
_atom_site_fract_y
_atom_site_fract_z
Zn1	Zn	1.584952	-0.331830	-0.615167
Zn2	Zn	1.575909	-0.471266	-0.448379
Zn3	Zn	1.409257	-0.331875	-0.439506
Zn4	Zn	1.400303	-0.471208	-0.624015
O5	O	1.492605	-0.401545	-0.531767
O6	O	1.730773	-0.350333	-0.593052
O7	O	1.553766	-0.452819	-0.300184
O8	O	1.440095	-0.215204	-0.455392
O9	O	1.724130	-0.452776	-0.470515
O10	O	1.569177	-0.215171	-0.584449
O11	O	1.431327	-0.350409	-0.293665
O12	O	1.261049	-0.350352	-0.463971
O13	O	1.424834	-0.452676	-0.769859
O14	O	1.254470	-0.452719	-0.599529
O15	O	1.560495	-0.350276	-0.763359
O16	O	1.545083	-0.587924	-0.479094
O17	O	1.416066	-0.587881	-0.608133
C18	C	1.219638	-0.401535	-0.531748
C19	C	1.102861	-0.401550	-0.531766
C20	C	1.096038	-0.508317	-0.672716
C21	C	1.037765	-0.561708	-0.743194
C22	C	0.928043	-0.561718	-0.743208
C23	C	0.876591	-0.508330	-0.672737
C24	C	0.934864	-0.454940	-0.602259
C25	C	1.044588	-0.454938	-0.602251
C26	C	0.941687	-0.348170	-0.461316
C27	C	1.051409	-0.348163	-0.461296
C28	C	0.890235	-0.294783	-0.390846
C29	C	0.948508	-0.241396	-0.320361
C30	C	1.058236	-0.241388	-0.320350
C31	C	1.109682	-0.294773	-0.390818
C32	C	1.478650	-0.618152	-0.545559
C33	C	1.472776	-0.710818	-0.551495
C34	C	1.462058	-0.880479	-0.562353
C35	C	1.523341	-0.921770	-0.501198
C36	C	1.517377	-1.016175	-0.507240
C37	C	1.468020	-0.786065	-0.556313
C38	C	1.766638	-0.401556	-0.531786
C39	C	1.883414	-0.401560	-0.531795
C40	C	1.492674	-0.401464	-0.805795
C41	C	1.492703	-0.401430	-0.922570
C42	C	1.506644	-0.184091	-0.517944
C43	C	1.512626	-0.091426	-0.512053
C44	C	1.620276	-0.508011	-1.148779
C45	C	1.684003	-0.561348	-1.097303
C46	C	1.683966	-0.561380	-0.987584
C47	C	1.620193	-0.508071	-0.929337
C48	C	1.556467	-0.454734	-0.980813
C49	C	1.556513	-0.454707	-1.090536
C50	C	1.428977	-0.348093	-0.974046
C51	C	1.429018	-0.348056	-1.083765
C52	C	1.365204	-0.294784	-0.915800
C53	C	1.301482	-0.241442	-0.967275
C54	C	1.301522	-0.241412	-1.077002
C55	C	1.365291	-0.294719	-1.135241
C56	C	1.492601	-0.401565	-0.258801
C57	C	1.492790	-0.401365	-0.142012
H58	H	1.199023	-0.294774	-0.390813
H59	H	1.580285	-0.886219	-0.444303
C60	C	1.620134	-0.508115	-0.808650
H61	H	1.573024	-0.468734	-0.781334
H62	H	1.688851	-0.493717	-0.782895
H63	H	1.598467	-0.561927	-0.787263
H64	H	1.405117	-0.916027	-0.619242
H65	H	1.249625	-0.197980	-1.118907
C66	C	1.365335	-0.294685	-1.255930
H67	H	1.318254	-0.255283	-1.278248
H68	H	1.343706	-0.348478	-1.284169
H69	H	1.434079	-0.280259	-1.279828
H70	H	1.735922	-0.604753	-1.144740
C71	C	1.216729	-0.508305	-0.672708
H72	H	1.239026	-0.547740	-0.724775
H73	H	1.240609	-0.522646	-0.605791
H74	H	1.245012	-0.454518	-0.687579
H75	H	1.620323	-0.507983	-1.238119
H76	H	1.079670	-0.605173	-0.800571
H77	H	1.365175	-0.294817	-0.826460
C78	C	1.754059	-0.620048	-0.930953
H79	H	1.744894	-0.612432	-0.857267
H80	H	1.825445	-0.607851	-0.948153
H81	H	1.735062	-0.676061	-0.952490
C82	C	0.755900	-0.508338	-0.672758
H83	H	0.728565	-0.547783	-0.724822
H84	H	0.734550	-0.454558	-0.687617
H85	H	0.730127	-0.522696	-0.605842
C86	C	0.863944	-0.620408	-0.820775
H87	H	0.910296	-0.652194	-0.862752
H88	H	0.823233	-0.588531	-0.864576
H89	H	0.818767	-0.656710	-0.782855
C90	C	0.769544	-0.294796	-0.390856
H91	H	0.742205	-0.334245	-0.442913
H92	H	0.748185	-0.241019	-0.405718
H93	H	0.743781	-0.309151	-0.323935
H94	H	1.249558	-0.198046	-0.919843
H95	H	0.906607	-0.197928	-0.262995
C96	C	1.122328	-0.182656	-0.242825
H97	H	1.075967	-0.150868	-0.200859
H98	H	1.167486	-0.146370	-0.280779
H99	H	1.163059	-0.214500	-0.198992
