data_functionalizedCrystal
_audit_creation_method	'MofGen! by Chris Wilmer'
_symmetry_space_group_name_H-M	'P1'
_symmetry_Int_Tables_number	1
_symmetry_cell_setting	triclinic
loop_
_symmetry_equiv_pos_as_xyz
  x,y,z
_cell_length_a	23.096457
_cell_length_b	23.096457
_cell_length_c	23.096457
_cell_angle_alpha	60.007374
_cell_angle_beta	90.011518
_cell_angle_gamma	60.000612
loop_
_atom_site_label
_atom_site_type_symbol
_atom_site_fract_x
_atom_site_fract_y
_atom_site_fract_z
Zr1	Zr	0.557762	0.633748	-0.075993
O2	O	0.465295	0.754536	-0.168437
O3	O	0.586107	0.512961	-0.047655
O4	O	0.586081	0.633750	-0.168444
O5	O	0.465343	0.633745	0.047634
O6	O	0.681361	0.633752	-0.168447
O7	O	0.465321	0.633746	-0.047648
O8	O	0.681407	0.417682	0.047622
O9	O	0.465297	0.849815	-0.168436
O10	O	0.669304	0.562644	-0.035570
O11	O	0.598214	0.562641	0.035541
O12	O	0.598184	0.704855	-0.106673
O13	O	0.527094	0.704853	-0.035562
Zr14	Zr	0.709760	0.633748	0.075966
Zr15	Zr	0.709724	0.633751	-0.075998
Zr16	Zr	0.557799	0.633746	0.075971
Zr17	Zr	0.557766	0.785708	-0.075990
Zr18	Zr	0.709756	0.481789	0.075963
O19	O	0.681416	0.754536	0.047628
O20	O	0.681364	0.754540	-0.168445
O21	O	0.465346	0.754532	0.047636
O22	O	0.802227	0.512961	0.168410
O23	O	0.802176	0.512965	-0.047662
O24	O	0.586158	0.512957	0.168418
O25	O	0.802179	0.633752	-0.047661
O26	O	0.681441	0.633746	0.168417
O27	O	0.586161	0.633745	0.168420
O28	O	0.802202	0.633750	0.047621
O29	O	0.586086	0.849817	-0.168440
O30	O	0.681436	0.417680	0.168413
O31	O	0.802225	0.417682	0.168409
O32	O	0.802196	0.417684	0.047618
O33	O	0.465326	0.849813	-0.047645
O34	O	0.586115	0.849815	-0.047649
O35	O	0.669338	0.562641	0.106646
O36	O	0.740428	0.562644	0.035535
O37	O	0.669308	0.704855	-0.035568
O38	O	0.598218	0.704853	0.035543
C39	C	0.633756	0.443670	-0.000016
C40	C	0.633755	0.379160	-0.000017
C41	C	0.581270	-0.028871	-0.052503
C42	C	0.581264	0.031747	-0.052503
C43	C	0.633766	0.009570	-0.000014
C44	C	0.686268	-0.073236	0.052489
C45	C	0.686269	-0.133852	0.052491
N46	N	0.696017	0.065672	0.015877
N47	N	0.696014	0.123259	0.015870
C48	C	0.633767	0.192200	-0.000016
N49	N	0.571520	0.201387	-0.015910
N50	N	0.571523	0.143797	-0.015907
C51	C	0.633771	0.075292	-0.000010
C52	C	0.581259	0.340724	-0.052513
C53	C	0.581253	0.401342	-0.052507
C54	C	0.686262	0.296356	0.052482
C55	C	0.686263	0.235741	0.052479
C56	C	0.633762	0.257930	-0.000022
C57	C	0.443681	0.633745	-0.000007
C58	C	0.379169	0.633744	-0.000004
C59	C	0.385987	0.559513	0.037104
C60	C	0.325372	0.559512	0.037107
C61	C	0.257939	0.633746	-0.000012
C62	C	0.251123	0.707987	-0.037122
C63	C	0.311738	0.707986	-0.037118
N64	N	0.135130	0.689003	-0.060422
N65	N	0.077551	0.688999	-0.060425
C66	C	0.075306	0.633753	-0.000024
N67	N	0.132822	0.578500	0.060377
N68	N	0.190408	0.578502	0.060378
C69	C	0.192207	0.633755	-0.000020
C70	C	0.016401	0.559516	0.037091
C71	C	-0.044218	0.559518	0.037096
C72	C	-0.118467	0.707995	-0.037140
C73	C	-0.057849	0.707991	-0.037138
C74	C	0.009582	0.633749	-0.000025
C75	C	0.823841	0.633752	-0.000020
C76	C	0.888353	0.633753	-0.000023
C77	C	0.633716	0.633752	-0.190097
C78	C	0.633701	0.633753	-0.254610
C79	C	0.633766	0.823827	-0.000011
C80	C	0.633767	0.888337	-0.000010
C81	C	0.596580	0.707984	-0.322028
C82	C	0.596598	0.707985	-0.382645
C83	C	0.633727	0.633751	-0.375838
C84	C	0.670856	0.559510	-0.308407
C85	C	0.670842	0.559511	-0.247793
N86	N	0.628603	0.578494	-0.443394
N87	N	0.628612	0.578498	-0.500978
C88	C	0.633771	0.633744	-0.558464
N89	N	0.638906	0.688997	-0.556197
N90	N	0.638894	0.688995	-0.498609
C91	C	0.633746	0.633742	-0.441560
C92	C	0.596668	0.707981	-0.691612
C93	C	0.596691	0.707979	-0.752228
C94	C	0.670944	0.559502	-0.677989
C95	C	0.670926	0.559506	-0.617375
C96	C	0.633784	0.633748	-0.624191
C97	C	0.633806	0.633745	0.190070
C98	C	0.633822	0.633744	0.254583
C99	C	0.823837	0.443674	-0.000023
C100	C	0.888347	0.379164	-0.000027
C101	C	0.633802	0.443667	0.190067
C102	C	0.633815	0.379155	0.254579
C103	C	0.823882	0.443670	0.190060
C104	C	0.888407	0.379160	0.254569
C105	C	0.443640	0.823827	-0.190087
C106	C	0.379115	0.888337	-0.254596
C107	C	0.443686	0.823823	-0.000004
C108	C	0.379176	0.888333	-0.000000
C109	C	0.633721	0.823830	-0.190094
C110	C	0.633707	0.888342	-0.254606
C111	C	0.881515	0.348869	-0.037151
C112	C	0.942123	0.288264	-0.037168
C113	C	1.009562	0.257950	-0.000057
C114	C	1.016392	0.288251	0.037068
C115	C	0.955785	0.348859	0.037081
C116	C	0.670947	0.348860	0.321997
C117	C	0.670958	0.288253	0.382618
C118	C	0.633839	0.257938	0.375820
C119	C	0.596703	0.288239	0.308395
C120	C	0.596689	0.348849	0.247775
C121	C	0.955823	0.348866	0.247745
C122	C	1.016457	0.288260	0.308352
C123	C	1.009674	0.257944	0.375784
C124	C	0.942250	0.288244	0.382607
C125	C	0.881618	0.348853	0.322000
C126	C	0.311699	0.918638	-0.247772
C127	C	0.251065	0.979263	-0.308379
C128	C	0.257848	1.009582	-0.375811
C129	C	0.325272	0.979279	-0.382634
C130	C	0.385904	0.918659	-0.322027
C131	C	0.386007	0.918634	0.037118
C132	C	0.325399	0.979256	0.037118
C133	C	0.257960	1.009572	0.000005
C134	C	0.251130	0.979269	-0.037118
C135	C	0.311738	0.918652	-0.037122
C136	C	0.670833	0.918637	-0.247785
C137	C	0.670833	0.979245	-0.308394
C138	C	0.633704	1.009560	-0.375824
C139	C	0.596578	0.979258	-0.382644
C140	C	0.596581	0.918648	-0.322035
H141	H	0.538518	-0.010797	-0.095251
H142	H	0.701201	0.263588	0.437512
F143	F	0.525382	0.364338	-0.108386
F144	F	0.332480	1.011553	-0.454405
F145	F	0.525370	0.489461	-0.108377
H146	H	0.566346	0.893988	-0.327598
H147	H	0.729015	0.168326	0.095223
H148	H	0.936738	0.263552	0.437518
H149	H	1.058907	0.208598	-0.000072
F150	F	0.557202	0.255967	0.301171
F151	F	1.088171	0.255978	0.076564
H152	H	0.701067	0.893964	-0.192885
F153	F	-0.190230	0.787001	-0.076641
F154	F	0.525388	0.119872	-0.108377
F155	F	0.963066	0.381090	0.076601
H156	H	-0.063404	0.768438	-0.067361
H157	H	0.440796	0.893988	-0.327592
H158	H	0.208472	1.058943	-0.425155
F159	F	0.809748	0.381123	-0.076655
H160	H	0.306162	0.893956	-0.192871
H161	H	-0.038660	0.499068	0.067319
F162	F	0.179351	1.011540	-0.076612
F163	F	0.742137	0.272748	0.108348
F164	F	0.742146	-0.221972	0.108365
F165	F	0.633861	0.193430	0.440344
F166	F	0.710373	0.480505	-0.301164
F167	F	0.557169	0.381082	0.176025
F168	F	0.457775	0.886382	0.076620
H169	H	0.961360	0.373540	0.192844
F170	F	1.088207	0.256021	0.301075
H171	H	0.936549	0.263601	-0.067400
H172	H	0.330974	1.003918	0.067350
F173	F	1.074211	0.193437	0.440282
H174	H	0.701065	1.003910	-0.302828
H175	H	0.196172	1.003926	-0.302810
H176	H	0.826727	0.373510	0.327567
F177	F	0.557153	0.786994	-0.698865
H178	H	0.306181	0.768435	-0.067334
H179	H	0.208615	1.058930	0.000014
F180	F	0.304456	0.886405	-0.076626
H181	H	0.633707	1.058913	-0.425170
H182	H	0.566348	1.003950	-0.437553
H183	H	0.729015	-0.091290	0.095227
H184	H	0.440889	0.499060	0.067321
H185	H	0.196215	0.768428	-0.067344
F186	F	0.332626	0.480502	0.076602
F187	F	0.557038	0.786998	-0.329287
F188	F	0.557089	0.786994	-0.454407
F189	F	0.088168	0.480503	0.076593
F190	F	0.710459	0.381110	0.329248
H191	H	0.701071	0.499062	-0.192896
H192	H	0.701176	0.499059	-0.672446
F193	F	0.557184	0.786990	-0.823985
H194	H	0.701150	0.499059	-0.562478
