data_functionalizedCrystal
_audit_creation_method	'MofGen! by Chris Wilmer'
_symmetry_space_group_name_H-M	'P1'
_symmetry_Int_Tables_number	1
_symmetry_cell_setting	triclinic
loop_
_symmetry_equiv_pos_as_xyz
  x,y,z
_cell_length_a	11.792241
_cell_length_b	14.472310
_cell_length_c	11.792241
_cell_angle_alpha	89.998842
_cell_angle_beta	95.806584
_cell_angle_gamma	90.008847
loop_
_atom_site_label
_atom_site_type_symbol
_atom_site_fract_x
_atom_site_fract_y
_atom_site_fract_z
O1	O	1.506924	0.076752	-0.155560
O2	O	1.840257	0.410085	0.177773
O3	O	2.173590	0.743418	0.511106
O4	O	1.176583	0.076773	-0.171593
O5	O	1.509916	0.410106	0.161740
O6	O	1.843249	0.743440	0.495074
O7	O	1.349770	0.076755	0.001594
O8	O	1.683103	0.410089	0.334927
O9	O	2.016436	0.743422	0.668261
O10	O	1.333737	0.076769	-0.328747
O11	O	1.667070	0.410103	0.004586
O12	O	2.000403	0.743436	0.337920
O13	O	1.349725	-0.076927	0.001584
O14	O	1.683058	0.256407	0.334917
O15	O	2.016391	0.589740	0.668251
O16	O	1.176538	-0.076909	-0.171603
O17	O	1.509871	0.256424	0.161730
O18	O	1.843204	0.589758	0.495064
O19	O	1.506879	-0.076930	-0.155570
O20	O	1.840212	0.256403	0.177763
O21	O	2.173545	0.589736	0.511097
Cu22	Cu	1.341704	-0.090952	-0.163587
Cu23	Cu	1.675038	0.242381	0.169746
Cu24	Cu	2.008371	0.575715	0.503079
Cu25	Cu	1.341757	0.090795	-0.163576
Cu26	Cu	1.675090	0.424128	0.169758
Cu27	Cu	2.008424	0.757461	0.503091
O28	O	1.333692	-0.076913	-0.328757
O29	O	1.667025	0.256421	0.004576
O30	O	2.000358	0.589754	0.337910
C31	C	1.134269	-0.000065	-0.170591
C32	C	1.467603	0.333268	0.162742
C33	C	1.800936	0.666602	0.496076
C34	C	1.008255	-0.000057	-0.167576
C35	C	1.341589	0.333276	0.165757
C36	C	1.674922	0.666610	0.499090
N37	N	1.341675	-0.218783	-0.163595
N38	N	1.675009	0.114550	0.169738
N39	N	2.008342	0.447884	0.503072
C40	C	0.777543	-0.000084	-0.162034
C41	C	1.110877	0.333249	0.171300
C42	C	1.444210	0.666583	0.504633
C43	C	0.905928	-0.000069	-0.165113
C44	C	1.239262	0.333264	0.168220
C45	C	1.572595	0.666598	0.501553
C46	C	1.341756	-0.592874	-0.163571
C47	C	1.675089	-0.259541	0.169762
C48	C	2.008422	0.073793	0.503096
C49	C	1.248772	-0.553699	-0.255925
C50	C	1.582105	-0.220365	0.077408
C51	C	1.915439	0.112968	0.410741
C52	C	1.248990	-0.446611	-0.256266
C53	C	1.582323	-0.113277	0.077068
C54	C	1.915657	0.220056	0.410401
C55	C	1.341715	-0.407283	-0.163583
C56	C	1.675048	-0.073950	0.169750
C57	C	2.008381	0.259384	0.503084
C58	C	1.460302	-0.446127	-0.190178
C59	C	1.793635	-0.112793	0.143155
C60	C	2.126968	0.220540	0.476489
C61	C	1.459780	-0.553248	-0.190836
C62	C	1.793114	-0.219915	0.142498
C63	C	2.126447	0.113418	0.475831
C64	C	1.317207	-0.553407	-0.044353
C65	C	1.650540	-0.220073	0.288981
C66	C	1.983874	0.113260	0.622314
C67	C	1.314496	-0.446279	-0.045130
C68	C	1.647829	-0.112946	0.288203
C69	C	1.981162	0.220388	0.621537
C70	C	1.341699	-0.302395	-0.163587
C71	C	1.675032	0.030938	0.169746
C72	C	2.008366	0.364272	0.503079
C73	C	1.341779	-0.697762	-0.163569
C74	C	1.675112	-0.364429	0.169764
C75	C	2.008446	-0.031096	0.503098
C76	C	1.549192	-0.000090	-0.156572
C77	C	1.882525	0.333243	0.176761
C78	C	2.215859	0.666577	0.510094
C79	C	1.675206	-0.000092	-0.159587
C80	C	2.008539	0.333241	0.173747
C81	C	2.341872	0.666575	0.507080
C82	C	1.348740	-0.000085	0.043880
C83	C	1.682073	0.333248	0.377213
C84	C	2.015407	0.666581	0.710547
C85	C	1.345726	-0.000084	0.169894
C86	C	1.679059	0.333249	0.503227
C87	C	2.012392	0.666583	0.836560
N88	N	1.341795	0.218626	-0.163559
N89	N	1.675128	0.551959	0.169774
N90	N	2.008462	0.885292	0.503107
C91	C	1.334721	-0.000070	-0.371043
C92	C	1.668055	0.333263	-0.037710
C93	C	2.001388	0.666597	0.295624
C94	C	1.337736	-0.000065	-0.497057
C95	C	1.671069	0.333268	-0.163723
C96	C	2.004402	0.666602	0.169610
C97	C	1.340183	-0.000068	0.400606
C98	C	1.673516	0.333265	0.733939
C99	C	2.006849	0.666598	1.067272
C100	C	1.343262	-0.000077	0.272221
C101	C	1.676596	0.333256	0.605554
C102	C	2.009929	0.666590	0.938887
H103	H	1.160865	-0.420350	-0.240313
H104	H	1.494199	-0.087016	0.093021
H105	H	1.827532	0.246317	0.426354
H106	H	1.264311	-0.580606	-0.343881
H107	H	1.597644	-0.247272	-0.010548
H108	H	1.930978	0.086061	0.322785
Cl109	Cl	1.273265	-0.407023	-0.392846
Cl110	Cl	1.606598	-0.073689	-0.059513
Cl111	Cl	1.939932	0.259644	0.273821
H112	H	1.481302	-0.578222	-0.277803
H113	H	1.814635	-0.244888	0.055530
H114	H	2.147968	0.088445	0.388864
H115	H	1.377765	-0.419512	0.026872
H116	H	1.711099	-0.086179	0.360206
H117	H	2.044432	0.247155	0.693539
Cl118	Cl	1.569733	-0.406799	-0.089135
Cl119	Cl	1.903067	-0.073466	0.244198
Cl120	Cl	2.236400	0.259867	0.577532
Cl121	Cl	1.421882	-0.592520	0.061771
Cl122	Cl	1.755215	-0.259186	0.395104
Cl123	Cl	2.088548	0.074147	0.728437
Cl124	Cl	1.112267	-0.593483	-0.231670
Cl125	Cl	1.445600	-0.260150	0.101663
Cl126	Cl	1.778933	0.073184	0.434997
Cl127	Cl	1.494299	-0.404693	-0.322926
Cl128	Cl	1.827633	-0.071359	0.010408
Cl129	Cl	2.160966	0.261974	0.343741
Cl130	Cl	1.569770	-0.593261	-0.090880
Cl131	Cl	1.903103	-0.259928	0.242453
Cl132	Cl	2.236436	0.073406	0.575787
Cl133	Cl	1.186512	-0.595157	-0.005170
Cl134	Cl	1.519845	-0.261824	0.328163
Cl135	Cl	1.853179	0.071509	0.661497
H136	H	1.227258	-0.420892	-0.024964
H137	H	1.560591	-0.087558	0.308370
H138	H	1.893924	0.245775	0.641703
