data_functionalizedCrystal
_audit_creation_method	'MofGen! by Chris Wilmer'
_symmetry_space_group_name_H-M	'P1'
_symmetry_Int_Tables_number	1
_symmetry_cell_setting	triclinic
loop_
_symmetry_equiv_pos_as_xyz
  x,y,z
_cell_length_a	13.635800
_cell_length_b	16.015009
_cell_length_c	17.078481
_cell_angle_alpha	101.357337
_cell_angle_beta	80.693839
_cell_angle_gamma	104.487874
loop_
_atom_site_label
_atom_site_type_symbol
_atom_site_fract_x
_atom_site_fract_y
_atom_site_fract_z
V1	V	-1.985343	-0.119378	0.212889
O2	O	-1.984245	0.005944	0.244369
O3	O	-1.956858	-0.236905	0.177259
O4	O	-1.950938	-0.117450	0.321328
O5	O	-1.990206	-0.114338	0.099302
V6	V	-2.229035	-0.104398	0.203455
O7	O	-2.111738	-0.152236	0.233584
O8	O	-2.327738	-0.071540	0.182759
O9	O	-2.145917	0.013129	0.239085
O10	O	-2.288831	-0.229720	0.171974
O11	O	-2.282870	-0.109438	0.317041
O12	O	-2.151836	-0.106326	0.095015
V13	V	-1.485343	-0.119378	0.212889
O14	O	-1.484245	0.005944	0.244369
O15	O	-1.456858	-0.236905	0.177259
O16	O	-1.450938	-0.117450	0.321328
O17	O	-1.490206	-0.114338	0.099302
V18	V	-1.729035	-0.104398	0.203455
O19	O	-1.611738	-0.152236	0.233584
O20	O	-1.827738	-0.071540	0.182759
O21	O	-1.645917	0.013129	0.239085
O22	O	-1.788831	-0.229720	0.171974
O23	O	-1.782870	-0.109438	0.317041
O24	O	-1.651836	-0.106326	0.095015
C25	C	-1.878646	-0.265559	0.165082
C26	C	-1.895931	-0.361639	0.136673
C27	C	-1.907554	-0.484779	0.027530
C28	C	-1.891313	-0.394498	0.054233
C29	C	-1.916799	-0.419054	0.192444
C30	C	-1.933047	-0.509339	0.165753
C31	C	-1.928422	-0.542193	0.083295
C32	C	-1.953915	-0.566754	0.221517
C33	C	-1.970157	-0.657030	0.194828
C34	C	-1.965531	-0.689891	0.112374
C35	C	-1.944664	-0.632470	0.056606
C36	C	-1.958532	-0.533897	0.303974
C37	C	-1.979400	-0.591312	0.359739
C38	C	-1.995649	-0.681590	0.333050
C39	C	-1.991024	-0.714452	0.250596
C40	C	-2.016516	-0.739012	0.388819
C41	C	-2.032758	-0.829288	0.362129
C42	C	-2.007265	-0.804728	0.223907
C43	C	-1.871094	-0.113181	0.348857
C44	C	-1.883578	-0.112383	0.437282
C45	C	-2.055800	0.041778	0.251258
C46	C	-2.028133	0.137857	0.279672
C47	C	-2.063351	-0.110598	0.067482
C48	C	-2.040487	-0.111392	-0.020943
C49	C	-1.378646	-0.265559	0.165082
C50	C	-1.395931	-0.361639	0.136673
C51	C	-1.371094	-0.113181	0.348857
C52	C	-1.383578	-0.112383	0.437282
C53	C	-1.979952	-0.116322	0.481620
C54	C	-1.991675	-0.115572	0.564705
C55	C	-1.907026	-0.110888	0.603449
C56	C	-1.810644	-0.106946	0.559106
C57	C	-1.798920	-0.107690	0.476023
C58	C	-1.932382	-0.108194	0.851631
C59	C	-1.944114	-0.107452	0.934719
C60	C	-2.125145	-0.116077	0.940313
C61	C	-2.113413	-0.116826	0.857228
C62	C	-2.017032	-0.112879	0.812892
N63	N	-1.919007	-0.110123	0.688375
N64	N	-2.005050	-0.113637	0.727969
C65	C	-1.555800	0.041778	0.251258
C66	C	-1.528133	0.137857	0.279672
C67	C	-1.563351	-0.110598	0.067482
C68	C	-1.540487	-0.111392	-0.020943
C69	C	-1.494572	-0.411163	0.126024
C70	C	-1.510830	-0.501442	0.099342
C71	C	-1.428444	-0.542196	0.083304
C72	C	-1.329795	-0.492666	0.093957
C73	C	-1.313540	-0.402389	0.120644
C74	C	-1.479958	-0.116314	0.481608
C75	C	-1.491699	-0.115552	0.564695
C76	C	-1.407061	-0.110866	0.603454
C77	C	-1.310673	-0.106932	0.559122
C78	C	-1.298931	-0.107688	0.476038
C79	C	-1.601986	0.187381	0.290323
C80	C	-1.576000	0.277660	0.317008
C81	C	-1.476162	0.318413	0.333048
C82	C	-1.402304	0.268884	0.322393
C83	C	-1.428289	0.178607	0.295703
C84	C	-1.442894	-0.116068	-0.059679
C85	C	-1.421393	-0.116803	-0.142761
C86	C	-1.497490	-0.112869	-0.187108
C87	C	-1.595091	-0.108190	-0.148366
C88	C	-1.616588	-0.107448	-0.065284
H89	H	-2.003506	-0.831480	0.156762
H90	H	-1.380919	-0.119271	-0.023582
F91	F	-1.676071	-0.104010	-0.195575
F92	F	-1.982807	-0.785972	0.083968
F93	F	-2.021419	-0.704033	0.476573
F94	F	-2.094250	-0.119773	0.611888
H95	H	-1.321015	0.302079	0.335456
F96	F	-1.615825	-0.554140	0.088006
F97	F	-1.902641	-0.519750	-0.060231
F98	F	-1.445759	-0.638279	0.054901
F99	F	-1.419573	-0.110066	0.691882
F100	F	-1.582270	-0.367807	0.143093
F101	F	-2.203512	-0.121814	0.815999
H102	H	-1.368145	0.138290	0.287039
F103	F	-1.220604	-0.101954	0.600383
H104	H	-2.203615	-0.119289	0.976420
F105	F	-1.317516	-0.121789	-0.183978
H106	H	-1.720439	-0.104461	0.439927
F107	F	-1.720466	-0.102482	-0.024070
H108	H	-1.940905	-0.659221	-0.010539
H109	H	-1.479975	-0.113484	-0.254759
H110	H	-2.049747	-0.876037	0.407539
F111	F	-1.869100	-0.333394	-0.005127
F112	F	-1.829809	-0.104011	0.804453
F113	F	-1.941241	-0.437815	0.332378
F114	F	-1.242122	-0.536051	0.076883
F115	F	-1.208548	-0.349689	0.131969
H116	H	-1.683284	0.154212	0.277267
H117	H	-1.983159	-0.564549	0.426877
H118	H	-1.636152	0.317974	0.325681
F119	F	-1.921711	-0.384078	0.280198
F120	F	-1.570051	-0.121301	0.440373
H121	H	-1.220447	-0.104488	0.439953
H122	H	-1.570191	-0.118759	0.600778
H123	H	-2.048886	-0.120142	0.450080
F124	F	-1.854012	-0.102467	0.975951
H125	H	-1.741720	-0.103127	0.590658
H126	H	-1.455017	0.391923	0.354780
