data_functionalizedCrystal
_audit_creation_method	'MofGen! by Chris Wilmer'
_symmetry_space_group_name_H-M	'P1'
_symmetry_Int_Tables_number	1
_symmetry_cell_setting	triclinic
loop_
_symmetry_equiv_pos_as_xyz
  x,y,z
_cell_length_a	10.654545
_cell_length_b	10.654551
_cell_length_c	9.130313
_cell_angle_alpha	89.998309
_cell_angle_beta	89.996934
_cell_angle_gamma	84.484220
loop_
_atom_site_label
_atom_site_type_symbol
_atom_site_fract_x
_atom_site_fract_y
_atom_site_fract_z
O1	O	1.667843	0.176372	-0.121775
O2	O	1.302364	0.193184	-0.121780
O3	O	1.493506	0.002038	-0.121778
O4	O	1.476701	0.367517	-0.121777
O5	O	1.493493	0.002033	0.121821
O6	O	1.302351	0.193178	0.121819
O7	O	1.667830	0.176366	0.121824
Cu8	Cu	1.485089	0.184771	0.144064
Cu9	Cu	1.485105	0.184778	-0.144020
O10	O	1.476688	0.367511	0.121822
C11	C	1.255560	0.191948	0.000019
C12	C	1.116116	0.188258	0.000016
C13	C	1.050604	0.186518	0.132803
C14	C	0.919585	0.183030	0.132803
C15	C	0.919600	0.183028	-0.132782
C16	C	1.050618	0.186507	-0.132780
C17	C	1.492265	-0.044762	0.000018
C18	C	1.488573	-0.184206	0.000008
C19	C	1.486848	-0.249714	-0.132775
C20	C	1.483368	-0.380735	-0.132768
C21	C	1.483343	-0.380726	0.132817
C22	C	1.486814	-0.249707	0.132808
C23	C	1.488607	-0.184213	-0.265575
C24	C	1.486883	-0.249722	-0.398369
C25	C	1.483403	-0.380742	-0.398362
C26	C	1.481646	-0.446253	-0.265562
C27	C	1.714635	0.177602	0.000022
C28	C	1.854078	0.181292	0.000015
C29	C	1.477929	0.414312	0.000023
C30	C	1.481622	0.553755	0.000023
N31	N	1.485088	0.184766	0.346687
N32	N	1.485117	0.184774	-0.346642
C33	C	1.569754	0.100163	0.423339
C34	C	1.569766	0.100163	0.576676
C35	C	1.400441	0.269381	0.576694
C36	C	1.400424	0.269374	0.423360
H37	H	1.491444	-0.077530	-0.265595
C38	C	1.481418	-0.452795	0.278887
N39	N	1.479973	-0.507077	0.388909
H40	H	1.331472	0.338268	0.360945
H41	H	1.103960	0.187920	-0.240918
C42	C	0.847526	0.181131	0.278879
N43	N	0.793252	0.179705	0.388910
H44	H	1.103929	0.187944	0.240935
H45	H	0.866255	0.181603	-0.240900
H46	H	1.488301	-0.196373	-0.506490
C47	C	1.477818	-0.590380	-0.265562
N48	N	1.474943	-0.698936	-0.265565
H49	H	1.481987	-0.434075	-0.506489
H50	H	1.638691	0.031269	0.360915
H51	H	1.488192	-0.196365	0.240932
H52	H	1.638708	0.031270	0.639083
C53	C	1.307314	0.362442	0.661049
N54	N	1.237168	0.432537	0.724584
