data_functionalizedCrystal
_audit_creation_method	'MofGen! by Chris Wilmer'
_symmetry_space_group_name_H-M	'P1'
_symmetry_Int_Tables_number	1
_symmetry_cell_setting	triclinic
loop_
_symmetry_equiv_pos_as_xyz
  x,y,z
_cell_length_a	14.971490
_cell_length_b	13.448316
_cell_length_c	14.971486
_cell_angle_alpha	90.002892
_cell_angle_beta	96.385112
_cell_angle_gamma	89.992749
loop_
_atom_site_label
_atom_site_type_symbol
_atom_site_fract_x
_atom_site_fract_y
_atom_site_fract_z
O1	O	-1.186943	0.082746	0.116576
O2	O	-0.853610	0.416079	0.449909
O3	O	-0.520277	0.749413	0.783242
O4	O	-0.926544	0.082736	0.130531
O5	O	-0.593210	0.416070	0.463864
O6	O	-0.259877	0.749403	0.797198
O7	O	-1.063723	0.082734	-0.006647
O8	O	-0.730390	0.416068	0.326687
O9	O	-0.397056	0.749401	0.660020
O10	O	-1.049764	0.082748	0.253753
O11	O	-0.716431	0.416081	0.587087
O12	O	-0.383098	0.749415	0.920420
O13	O	-1.063709	-0.082649	-0.006645
O14	O	-0.730376	0.250684	0.326688
O15	O	-0.397043	0.584017	0.660021
O16	O	-0.926530	-0.082647	0.130532
O17	O	-0.593197	0.250686	0.463866
O18	O	-0.259864	0.584019	0.797199
O19	O	-1.186930	-0.082638	0.116577
O20	O	-0.853597	0.250696	0.449910
O21	O	-0.520263	0.584029	0.783244
Cu22	Cu	-1.056729	-0.097743	0.123555
Cu23	Cu	-0.723396	0.235590	0.456888
Cu24	Cu	-0.390062	0.568923	0.790221
Cu25	Cu	-1.056745	0.097842	0.123553
Cu26	Cu	-0.723412	0.431175	0.456887
Cu27	Cu	-0.390078	0.764509	0.790220
O28	O	-1.049751	-0.082636	0.253755
O29	O	-0.716417	0.250698	0.587088
O30	O	-0.383084	0.584031	0.920421
C31	C	-0.893212	0.000043	0.129907
C32	C	-0.559879	0.333377	0.463240
C33	C	-0.226546	0.666710	0.796574
C34	C	-0.793915	0.000039	0.128035
C35	C	-0.460582	0.333373	0.461368
C36	C	-0.127249	0.666706	0.794702
C37	C	-0.366217	0.090209	0.119956
C38	C	-0.032884	0.423542	0.453290
C39	C	0.300450	0.756875	0.786623
C40	C	-0.459517	0.090206	0.121713
C41	C	-0.126184	0.423539	0.455046
C42	C	0.207149	0.756872	0.788379
C43	C	-0.506156	0.000052	0.122597
C44	C	-0.172822	0.333385	0.455931
C45	C	0.160511	0.666719	0.789264
C46	C	-0.459490	-0.090105	0.121716
C47	C	-0.126157	0.243229	0.455050
C48	C	0.207176	0.576562	0.788383
C49	C	-0.366192	-0.090101	0.119954
C50	C	-0.032859	0.243232	0.453287
C51	C	0.300474	0.576566	0.786620
C52	C	-0.653952	-0.090106	0.125393
C53	C	-0.320619	0.243227	0.458726
C54	C	0.012715	0.576560	0.792059
C55	C	-0.747256	-0.090111	0.127157
C56	C	-0.413923	0.243223	0.460490
C57	C	-0.080589	0.576556	0.793824
C58	C	-0.747277	0.090200	0.127151
C59	C	-0.413944	0.423534	0.460485
C60	C	-0.080610	0.756867	0.793818
C61	C	-0.653979	0.090204	0.125389
C62	C	-0.320646	0.423538	0.458722
C63	C	0.012687	0.756871	0.792055
C64	C	-0.607320	0.000047	0.124510
C65	C	-0.273986	0.333380	0.457843
C66	C	0.059347	0.666714	0.791176
N67	N	-1.056724	-0.235308	0.123555
N68	N	-0.723391	0.098026	0.456889
N69	N	-0.390057	0.431359	0.790222
C70	C	-1.063092	0.000043	-0.039971
C71	C	-0.729759	0.333376	0.293363
C72	C	-0.396425	0.666709	0.626696
C73	C	-1.061221	0.000044	-0.139268
C74	C	-0.727888	0.333377	0.194066
C75	C	-0.394555	0.666710	0.527399
C76	C	-0.220261	0.000055	0.117202
C77	C	0.113072	0.333389	0.450536
C78	C	0.446405	0.666722	0.783869
C79	C	-0.319558	0.000059	0.119078
C80	C	0.013776	0.333392	0.452412
C81	C	0.347109	0.666725	0.785745
C82	C	-1.002455	-0.712560	0.069205
C83	C	-0.669121	-0.379227	0.402538
C84	C	-0.335788	-0.045894	0.735871
C85	C	-1.002452	-0.608457	0.069202
C86	C	-0.669118	-0.275124	0.402535
C87	C	-0.335785	0.058209	0.735868
C88	C	-1.056747	-0.556389	0.123546
C89	C	-0.723413	-0.223056	0.456879
C90	C	-0.390080	0.110278	0.790212
C91	C	-1.111055	-0.608429	0.177889
C92	C	-0.777722	-0.275096	0.511222
C93	C	-0.444388	0.058237	0.844556
C94	C	-1.111062	-0.712531	0.177886
C95	C	-0.777729	-0.379197	0.511220
C96	C	-0.444395	-0.045864	0.844553
C97	C	-1.111034	-0.391449	0.177892
C98	C	-0.777701	-0.058116	0.511226
C99	C	-0.444368	0.275217	0.844559
C100	C	-1.111026	-0.287341	0.177897
C101	C	-0.777693	0.045993	0.511230
C102	C	-0.444360	0.379326	0.844563
C103	C	-1.002424	-0.287376	0.069208
C104	C	-0.669091	0.045958	0.402541
C105	C	-0.335757	0.379291	0.735874
C106	C	-1.002431	-0.391477	0.069205
C107	C	-0.669098	-0.058144	0.402538
C108	C	-0.335764	0.275190	0.735872
C109	C	-1.056738	-0.443510	0.123550
C110	C	-0.723405	-0.110177	0.456883
C111	C	-0.390072	0.223156	0.790217
N112	N	-1.056757	0.235406	0.123546
N113	N	-0.723423	0.568740	0.456879
N114	N	-0.390090	0.902073	0.790212
C115	C	-1.141810	0.000046	-0.196492
C116	C	-0.808477	0.333379	0.136841
C117	C	-0.475144	0.666713	0.470175
C118	C	-1.140047	0.000056	-0.289791
C119	C	-0.806714	0.333389	0.043542
C120	C	-0.473381	0.666723	0.376875
C121	C	-1.057694	0.000056	-0.325865
C122	C	-0.724361	0.333390	0.007468
C123	C	-0.391027	0.666723	0.340802
C124	C	-0.977099	0.000057	-0.268633
C125	C	-0.643766	0.333390	0.064700
C126	C	-0.310432	0.666724	0.398033
C127	C	-0.978863	0.000054	-0.175336
C128	C	-0.645530	0.333388	0.157998
C129	C	-0.312196	0.666721	0.491331
C130	C	-0.973428	0.000061	-0.463096
C131	C	-0.640095	0.333394	-0.129763
C132	C	-0.306761	0.666727	0.203571
C133	C	-0.971663	0.000062	-0.556400
C134	C	-0.638330	0.333395	-0.223067
C135	C	-0.304997	0.666728	0.110267
C136	C	-1.134612	0.000062	-0.577552
C137	C	-0.801279	0.333396	-0.244218
C138	C	-0.467946	0.666729	0.089115
C139	C	-1.136376	0.000059	-0.484254
C140	C	-0.803043	0.333393	-0.150921
C141	C	-0.469710	0.666726	0.182413
C142	C	-1.055780	0.000058	-0.427029
C143	C	-0.722447	0.333392	-0.093695
C144	C	-0.389114	0.666725	0.239638
C145	C	-1.050382	0.000058	0.287079
C146	C	-0.717048	0.333391	0.620412
C147	C	-0.383715	0.666725	0.953745
C148	C	-1.052252	0.000064	0.386376
C149	C	-0.718919	0.333397	0.719709
C150	C	-0.385586	0.666730	1.053043
H151	H	-0.616008	0.163615	0.124675
H152	H	-0.282675	0.496949	0.458008
H153	H	0.050659	0.830282	0.791341
H154	H	-0.785226	-0.163522	0.127882
H155	H	-0.451893	0.169812	0.461216
H156	H	-0.118559	0.503145	0.794549
Br157	Br	-0.928717	-0.216761	-0.004542
Br158	Br	-0.595384	0.116572	0.328791
Br159	Br	-0.262051	0.449906	0.662124
H160	H	-1.203435	0.000052	-0.454886
H161	H	-0.870102	0.333385	-0.121553
H162	H	-0.536769	0.666718	0.211780
H163	H	-0.328250	0.163622	0.119242
H164	H	0.005083	0.496956	0.452576
H165	H	0.338417	0.830289	0.785909
Br166	Br	-0.810597	0.212557	0.128360
Br167	Br	-0.477263	0.545890	0.461693
Br168	Br	-0.143930	0.879224	0.795027
H169	H	-0.615963	-0.163522	0.124688
H170	H	-0.282630	0.169811	0.458021
H171	H	0.050703	0.503145	0.791354
H172	H	-0.958215	-0.433868	0.024958
H173	H	-0.624882	-0.100535	0.358291
H174	H	-0.291548	0.232798	0.691625
H175	H	-0.958236	-0.566096	0.024949
H176	H	-0.624903	-0.232763	0.358282
H177	H	-0.291569	0.100570	0.691616
Br178	Br	-0.522785	-0.212458	0.122912
Br179	Br	-0.189451	0.120875	0.456246
Br180	Br	0.143882	0.454209	0.789579
H181	H	-0.913239	0.000053	-0.128744
H182	H	-0.579906	0.333386	0.204590
H183	H	-0.246572	0.666719	0.537923
H184	H	-0.328202	-0.163510	0.119248
H185	H	0.005131	0.169823	0.452582
H186	H	0.338464	0.503156	0.785915
Br187	Br	-0.522839	0.212558	0.122896
Br188	Br	-0.189506	0.545891	0.456229
Br189	Br	0.143828	0.879224	0.789563
H190	H	-1.208872	0.000039	-0.167129
H191	H	-0.875538	0.333373	0.166204
H192	H	-0.542205	0.666706	0.499538
Br193	Br	-0.928757	-0.783214	-0.004545
Br194	Br	-0.595424	-0.449881	0.328788
Br195	Br	-0.262091	-0.116548	0.662121
Br196	Br	-1.184749	-0.216677	0.251613
Br197	Br	-0.851416	0.116657	0.584947
Br198	Br	-0.518083	0.449990	0.918280
Br199	Br	-1.184744	-0.462066	0.251641
Br200	Br	-0.851411	-0.128732	0.584974
Br201	Br	-0.518077	0.204601	0.918307
H202	H	-1.155267	-0.566027	0.222132
H203	H	-0.821934	-0.232694	0.555466
H204	H	-0.488600	0.100639	0.888799
H205	H	-1.155281	-0.754895	0.222136
H206	H	-0.821948	-0.421561	0.555469
H207	H	-0.488614	-0.088228	0.888803
H208	H	-1.205671	0.000056	-0.336380
H209	H	-0.872338	0.333389	-0.003047
H210	H	-0.539004	0.666722	0.330286
H211	H	-1.200236	0.000066	-0.624149
H212	H	-0.866903	0.333400	-0.290816
H213	H	-0.533569	0.666733	0.042517
Br214	Br	-0.859897	0.000058	-0.605357
Br215	Br	-0.526564	0.333391	-0.272023
Br216	Br	-0.193231	0.666724	0.061310
H217	H	-0.907798	0.000062	-0.416505
H218	H	-0.574465	0.333396	-0.083172
H219	H	-0.241131	0.666729	0.250162
Br220	Br	-0.865332	0.000074	-0.317589
Br221	Br	-0.531999	0.333408	0.015745
Br222	Br	-0.198666	0.666741	0.349078
