data_functionalizedCrystal
_audit_creation_method	'MofGen! by Chris Wilmer'
_symmetry_space_group_name_H-M	'P1'
_symmetry_Int_Tables_number	1
_symmetry_cell_setting	triclinic
loop_
_symmetry_equiv_pos_as_xyz
  x,y,z
_cell_length_a	17.640112
_cell_length_b	17.639999
_cell_length_c	17.640618
_cell_angle_alpha	65.681636
_cell_angle_beta	87.865353
_cell_angle_gamma	87.810509
loop_
_atom_site_label
_atom_site_type_symbol
_atom_site_fract_x
_atom_site_fract_y
_atom_site_fract_z
Zn1	Zn	1.251371	0.023070	0.189703
Zn2	Zn	1.251282	0.188755	0.024070
Zn3	Zn	1.106795	0.075311	0.076161
Zn4	Zn	1.148396	0.178182	0.179122
O5	O	1.189461	0.116329	0.117264
O6	O	1.354923	0.027611	0.150359
O7	O	1.214668	0.199995	-0.081427
O8	O	1.108601	-0.044011	0.117451
O9	O	1.354858	0.149339	0.028670
O10	O	1.214820	-0.082392	0.200869
O11	O	1.108515	0.116647	-0.043156
O12	O	1.008750	0.106394	0.107191
O13	O	1.179503	0.131318	0.292932
O14	O	1.039314	0.181973	0.182836
O15	O	1.255159	0.017358	0.300706
O16	O	1.255007	0.299744	0.018410
O17	O	1.179416	0.291976	0.132325
C18	C	0.997179	0.148705	0.149518
C19	C	0.914926	0.162571	0.163331
C20	C	0.564743	0.010979	0.012337
C21	C	0.487458	0.024022	0.025324
C22	C	0.519332	0.102905	0.103883
C23	C	0.596622	0.089865	0.090906
C24	C	0.619320	0.043903	0.045132
C25	C	0.651199	0.122789	0.123701
C26	C	0.728482	0.109754	0.110721
C27	C	0.751187	0.063796	0.064947
C28	C	0.696603	0.030868	0.032153
C29	C	0.628499	0.168756	0.169470
C30	C	0.683076	0.201680	0.202264
C31	C	0.760361	0.188641	0.189290
C32	C	0.783066	0.142682	0.143516
C33	C	0.814945	0.221568	0.222085
C34	C	0.892227	0.208534	0.209105
C35	C	0.860348	0.129647	0.130537
C36	C	1.221739	0.324995	0.068581
C37	C	1.235619	0.414245	0.047770
C38	C	1.084244	0.687795	0.275608
C39	C	1.097284	0.771665	0.256027
C40	C	1.176071	0.779655	0.137500
C41	C	1.163040	0.695783	0.157074
C42	C	1.117125	0.649860	0.226128
C43	C	1.195922	0.657847	0.107594
C44	C	1.182889	0.573984	0.127164
C45	C	1.136974	0.528056	0.196214
C46	C	1.104092	0.565996	0.245698
C47	C	1.241832	0.703774	0.038537
C48	C	1.274714	0.665838	-0.010943
C49	C	1.261685	0.581972	0.008630
C50	C	1.215771	0.536044	0.077680
C51	C	1.294567	0.544031	-0.040854
C52	C	1.281534	0.460168	-0.021285
C53	C	1.202738	0.452180	0.097249
C54	C	1.382494	0.083827	0.084884
C55	C	1.464753	0.069977	0.071086
C56	C	1.221981	0.067331	0.326780
C57	C	1.235839	0.046451	0.416063
C58	C	1.157056	0.906847	0.166152
C59	C	1.143187	0.817590	0.186985
C60	C	1.157101	0.165072	-0.091431
C61	C	1.143352	0.185701	-0.180685
C62	C	1.294757	-0.042306	0.545953
C63	C	1.281731	-0.022679	0.462057
C64	C	1.202952	0.095979	0.453956
C65	C	1.215968	0.076360	0.537853
C66	C	1.261872	0.007217	0.583845
C67	C	1.183084	0.125883	0.575746
C68	C	1.196102	0.106267	0.659635
C69	C	1.242006	0.037128	0.705632
C70	C	1.274891	-0.012399	0.667735
C71	C	1.137184	0.195029	0.529751
C72	C	1.104300	0.244552	0.567644
C73	C	1.117314	0.224933	0.651536
C74	C	1.163217	0.155794	0.697533
C75	C	1.084429	0.274460	0.689434
C76	C	1.097448	0.254845	0.773323
C77	C	1.176236	0.136179	0.781422
H78	H	0.936667	0.235342	0.235811
F79	F	1.225064	0.062566	0.830386
H80	H	1.308511	-0.063013	0.431209
H81	H	1.252607	0.021160	0.773939
H82	H	1.165355	0.414785	0.153485
H83	H	0.664584	0.239106	0.239531
H84	H	1.213452	0.817058	0.081274
F85	F	0.720764	-0.018057	-0.016559
H86	H	1.070515	0.802545	0.296332
H87	H	1.312260	-0.068710	0.705188
H88	H	1.332126	-0.098618	0.583406
H89	H	1.165579	0.152278	0.416497
F90	F	1.255726	0.793021	0.017729
F91	F	1.055447	0.318137	0.518687
F92	F	1.123334	0.215908	0.440466
H93	H	1.047060	0.330761	0.651972
F94	F	1.343426	0.592918	-0.114348
F95	F	1.323579	0.714721	-0.084432
H96	H	1.070670	0.295171	0.804176
F97	F	0.833439	0.049928	0.051129
H98	H	0.878830	0.092205	0.093278
H99	H	0.583224	-0.026463	-0.024922
H100	H	0.443021	-0.002799	-0.001378
F101	F	0.495166	0.151830	0.152587
F102	F	0.790776	0.270499	0.270783
H103	H	1.126358	0.459771	0.212141
F104	F	1.055232	0.517114	0.319199
F105	F	1.316524	0.419794	-0.073951
H106	H	0.565570	0.179368	0.180036
F107	F	1.035383	0.638913	0.349109
