data_functionalizedCrystal
_audit_creation_method	'MofGen! by Chris Wilmer'
_symmetry_space_group_name_H-M	'P1'
_symmetry_Int_Tables_number	1
_symmetry_cell_setting	triclinic
loop_
_symmetry_equiv_pos_as_xyz
  x,y,z
_cell_length_a	16.120484
_cell_length_b	12.827893
_cell_length_c	12.827885
_cell_angle_alpha	90.019272
_cell_angle_beta	92.863928
_cell_angle_gamma	87.074569
loop_
_atom_site_label
_atom_site_type_symbol
_atom_site_fract_x
_atom_site_fract_y
_atom_site_fract_z
Zn1	Zn	-0.331866	-1.576504	-0.611895
Zn2	Zn	0.168134	-1.076504	-0.111895
Zn3	Zn	-0.471301	-1.567505	-0.445998
Zn4	Zn	0.028699	-1.067505	0.054002
Zn5	Zn	-0.331907	-1.401742	-0.437171
Zn6	Zn	0.168093	-0.901742	0.062829
Zn7	Zn	-0.471239	-1.392841	-0.620694
Zn8	Zn	0.028761	-0.892841	-0.120694
O9	O	-0.401579	-1.484648	-0.528940
O10	O	0.098421	-0.984648	-0.028940
O11	O	-0.350372	-1.721545	-0.589900
O12	O	0.149628	-1.221545	-0.089900
O13	O	-0.452853	-1.545475	-0.298594
O14	O	0.047147	-1.045475	0.201406
O15	O	-0.215236	-1.432416	-0.452972
O16	O	0.284764	-0.932416	0.047028
O17	O	-0.452814	-1.714934	-0.468017
O18	O	0.047186	-1.214934	0.031983
O19	O	-0.215206	-1.560812	-0.581341
O20	O	0.284794	-1.060812	-0.081341
O21	O	-0.350441	-1.423690	-0.292109
O22	O	0.149559	-0.923690	0.207891
O23	O	-0.350381	-1.254326	-0.461505
O24	O	0.149619	-0.754326	0.038495
O25	O	-0.452708	-1.417245	-0.765761
O26	O	0.047292	-0.917245	-0.265761
O27	O	-0.452748	-1.247787	-0.596338
O28	O	0.047252	-0.747787	-0.096338
O29	O	-0.350311	-1.552181	-0.759296
O30	O	0.149689	-1.052181	-0.259296
O31	O	-0.587959	-1.536844	-0.476549
O32	O	-0.087959	-1.036844	0.023451
O33	O	-0.587913	-1.408520	-0.604897
O34	O	-0.087913	-0.908520	-0.104897
C35	C	-0.401562	-1.213139	-0.528919
C36	C	0.098438	-0.713139	-0.028919
C37	C	-0.401576	-1.096985	-0.528936
C38	C	0.098424	-0.596985	-0.028936
C39	C	-0.618186	-1.470768	-0.542658
C40	C	-0.118186	-0.970768	-0.042658
C41	C	-0.710851	-1.464925	-0.548562
C42	C	-0.210851	-0.964925	-0.048562
C43	C	-0.401498	-1.484724	-0.801505
C44	C	0.098502	-0.984724	-0.301505
C45	C	-0.401464	-1.484757	-0.917656
C46	C	0.098536	-0.984757	-0.417656
C47	C	-0.880512	-1.454265	-0.559362
C48	C	-0.380512	-0.954265	-0.059362
C49	C	-0.921804	-1.515219	-0.498534
C50	C	-0.421804	-1.015219	0.001466
C51	C	-1.016209	-1.509287	-0.504544
C52	C	-0.516209	-1.009287	-0.004544
C53	C	-0.786099	-1.460195	-0.553355
C54	C	-0.286099	-0.960195	-0.053355
C55	C	-0.184125	-1.498611	-0.515191
C56	C	0.315875	-0.998611	-0.015191
C57	C	-0.091460	-1.504561	-0.509332
C58	C	0.408540	-1.004561	-0.009332
C59	C	-0.401595	-1.757217	-0.528962
C60	C	0.098405	-1.257217	-0.028962
C61	C	-0.401602	-1.873370	-0.528971
C62	C	0.098398	-1.373370	-0.028971
C63	C	-0.452309	-1.041987	-0.595563
C64	C	0.047691	-0.541987	-0.095563
C65	C	-0.452324	-0.921936	-0.595582
C66	C	0.047676	-0.421936	-0.095582
C67	C	-0.350785	-1.551535	-0.966241
C68	C	0.149215	-1.051535	-0.466241
C69	C	-0.350749	-1.551570	-1.086289
C70	C	0.149251	-1.051570	-0.586289
C71	C	-0.401598	-1.484636	-0.257431
C72	C	0.098402	-0.984636	0.242569
C73	C	-0.401397	-1.484821	-0.141266
C74	C	0.098603	-0.984821	0.358734
H75	H	-0.916059	-1.397630	-0.615947
H76	H	-0.416059	-0.897630	-0.115947
H77	H	-0.495730	-1.083779	-0.652594
H78	H	0.004270	-0.583779	-0.152594
H79	H	-0.444791	-1.427651	-1.099479
H80	H	0.055209	-0.927651	-0.599479
H81	H	-0.444820	-1.427605	-0.964935
H82	H	0.055180	-0.927605	-0.464935
O83	O	-0.293349	-1.627244	-0.903630
O84	O	0.206651	-1.127244	-0.403630
H85	H	-0.302397	-1.615344	-0.819165
H86	H	0.197603	-1.115344	-0.319165
H87	H	-0.358148	-1.055194	-0.471913
H88	H	0.141852	-0.555194	0.028087
H89	H	-0.886255	-1.571857	-0.441944
H90	H	-0.386255	-1.071857	0.058056
H91	H	-0.307363	-1.608744	-1.128084
H92	H	0.192637	-1.108744	-0.628084
H93	H	-0.495761	-0.874651	-0.652621
H94	H	0.004239	-0.374651	-0.152621
H95	H	-0.358168	-0.920648	-0.471922
H96	H	0.141832	-0.420648	0.028078
