data_functionalizedCrystal
_audit_creation_method	'MofGen! by Chris Wilmer'
_symmetry_space_group_name_H-M	'P1'
_symmetry_Int_Tables_number	1
_symmetry_cell_setting	triclinic
loop_
_symmetry_equiv_pos_as_xyz
  x,y,z
_cell_length_a	12.837936
_cell_length_b	27.732064
_cell_length_c	11.892277
_cell_angle_alpha	85.606278
_cell_angle_beta	93.950866
_cell_angle_gamma	91.260286
loop_
_atom_site_label
_atom_site_type_symbol
_atom_site_fract_x
_atom_site_fract_y
_atom_site_fract_z
O1	O	-1.367597	0.122542	0.093994
O2	O	-1.065889	0.116338	0.093994
O3	O	-1.226104	0.049507	0.093998
O4	O	-1.207382	0.189372	0.093990
O5	O	-1.237816	0.055562	-0.094004
O6	O	-1.077601	0.122393	-0.094008
O7	O	-1.379308	0.128597	-0.094009
Zn8	Zn	-1.230314	0.126456	-0.123858
Zn9	Zn	-1.214884	0.118478	0.123843
O10	O	-1.219094	0.195427	-0.094013
C11	C	-1.033158	0.117270	-0.000007
C12	C	-0.918180	0.111020	-0.000006
C13	C	-0.769168	0.058784	-0.000006
C14	C	-0.877200	0.064653	-0.000005
C15	C	-0.851119	0.151521	-0.000012
C16	C	-0.743086	0.145652	-0.000013
C17	C	-0.702115	0.099282	-0.000008
C18	C	-0.594079	0.093413	-0.000001
C19	C	-0.568000	0.180280	-0.000015
C20	C	-0.676033	0.186149	-0.000014
C21	C	-1.231564	0.034508	0.000001
C22	C	-1.230372	-0.019205	0.000011
C23	C	-1.127582	-0.401372	0.000016
C24	C	-1.131967	-0.199494	0.000017
O25	O	-1.052203	-0.172195	0.000062
N26	N	-1.226972	-0.175659	0.000017
C27	C	-1.320886	-0.202297	0.000024
O28	O	-1.401793	-0.177392	0.000036
C29	C	-1.316500	-0.404174	0.000031
C30	C	-1.221490	-0.428006	0.000019
C31	C	-1.032580	-0.425204	0.000005
C32	C	-1.031485	-0.475670	-0.000001
C33	C	-1.125393	-0.502304	0.000003
C34	C	-1.220395	-0.478472	0.000013
C35	C	-1.410413	-0.430811	0.000046
C36	C	-1.409308	-0.481283	0.000051
C37	C	-1.314298	-0.505115	0.000039
C38	C	-1.313208	-0.555572	0.000010
N39	N	-1.218203	-0.579407	0.000010
C40	C	-1.124296	-0.552773	0.000006
C41	C	-1.323183	-0.096309	0.000019
C42	C	-1.324280	-0.045840	0.000015
C43	C	-1.135360	-0.043040	0.000010
C44	C	-1.134265	-0.093510	0.000005
C45	C	-1.228178	-0.120144	0.000018
C46	C	-1.122004	-0.658756	-0.000008
C47	C	-1.120918	-0.709226	-0.000020
C48	C	-1.309836	-0.712021	-0.000009
C49	C	-1.310923	-0.661555	-0.000003
C50	C	-1.216998	-0.634923	0.000001
O51	O	-1.392929	-0.582902	-0.000022
O52	O	-1.043399	-0.577687	0.000020
C53	C	-1.128677	-0.350905	0.000022
C54	C	-1.223679	-0.327073	0.000032
C55	C	-1.317587	-0.353708	0.000036
C56	C	-1.224776	-0.276604	0.000029
C57	C	-1.130869	-0.249970	0.000025
C58	C	-1.035864	-0.273805	0.000025
C59	C	-1.034770	-0.324271	0.000019
C60	C	-1.412592	-0.329873	0.000036
C61	C	-1.413679	-0.279406	0.000041
C62	C	-1.319771	-0.252772	0.000038
C63	C	-0.412040	0.127664	-0.000007
C64	C	-0.527018	0.133913	-0.000006
C65	C	-1.213634	0.210426	-0.000013
C66	C	-1.214825	0.264140	-0.000016
N67	N	-1.240853	0.131901	-0.292908
C68	C	-1.130910	0.075112	-0.529602
C69	C	-1.138301	0.078922	-0.647941
C70	C	-1.263017	0.143332	-0.647926
C71	C	-1.255627	0.139522	-0.529587
C72	C	-1.189573	0.105411	-0.470429
C73	C	-1.182189	0.101599	-0.352089
C74	C	-1.306899	0.166011	-0.352076
C75	C	-1.314289	0.169821	-0.470415
N76	N	-1.204353	0.113030	0.292893
H77	H	-0.735808	0.021027	0.000008
H78	H	-1.485785	-0.502966	0.000067
H79	H	-1.354667	0.190682	-0.303885
C80	C	-1.386943	0.207341	-0.535489
H81	H	-1.420817	0.224842	-0.483296
H82	H	-1.437808	0.191243	-0.581647
H83	H	-1.347019	0.229094	-0.581657
C84	C	-0.494240	0.224830	-0.000014
H85	H	-0.424030	0.214695	-0.000018
H86	H	-0.502507	0.241525	0.065545
H87	H	-0.510667	0.245749	-0.065584
H88	H	-0.560722	0.055656	0.000007
C89	C	-0.926975	-0.501881	0.000006
H90	H	-0.939758	-0.535754	0.000000
H91	H	-0.884266	-0.495142	0.065568
H92	H	-0.892429	-0.490921	-0.065562
H93	H	-0.884498	0.189274	-0.000025
H94	H	-0.931792	0.031675	-0.000004
C95	C	-1.413129	-0.741323	0.000001
H96	H	-1.469874	-0.719904	0.000001
H97	H	-1.412529	-0.763182	0.065563
H98	H	-1.420716	-0.758957	-0.065567
C99	C	-0.930257	-0.350480	0.000019
H100	H	-0.874494	-0.327384	0.000028
H101	H	-0.929976	-0.367999	-0.065539
H102	H	-0.921813	-0.372220	0.065590
H103	H	-0.959402	-0.252110	0.000015
H104	H	-1.090530	0.054251	-0.696115
H105	H	-1.401647	-0.026440	0.000007
H106	H	-0.709408	0.223903	-0.000022
H107	H	-1.043546	-0.728627	-0.000034
H108	H	-1.045521	-0.637078	-0.000005
C109	C	-1.109525	0.064084	-0.287011
H110	H	-1.113527	0.066151	-0.208057
H111	H	-1.039726	0.070405	-0.306423
H112	H	-1.130503	0.032547	-0.306394
C113	C	-1.029754	-0.119721	0.000009
H114	H	-0.973988	-0.096626	0.000014
H115	H	-1.029475	-0.137242	-0.065545
H116	H	-1.021312	-0.141459	0.065585
C117	C	-1.032063	-0.013737	0.000021
H118	H	-1.046332	0.019732	0.000032
H119	H	-0.997140	-0.019316	-0.065531
H120	H	-0.988999	-0.023544	0.065598
H121	H	-1.077132	0.047335	-0.481435
C122	C	-1.335659	0.180856	-0.713007
H123	H	-1.369534	0.198360	-0.660820
H124	H	-1.386524	0.164760	-0.759171
H125	H	-1.295723	0.202606	-0.759170
C126	C	-1.514924	-0.404608	0.000075
H127	H	-1.570684	-0.427705	0.000094
H128	H	-1.523388	-0.382863	-0.065479
H129	H	-1.515186	-0.387095	0.065650
C130	C	-1.426495	-0.125599	0.000018
H131	H	-1.483226	-0.104171	0.000005
H132	H	-1.425924	-0.147458	0.065576
H133	H	-1.434081	-0.143231	-0.065553
C134	C	-1.415432	-0.635339	-0.000004
H135	H	-1.471202	-0.658431	-0.000001
H136	H	-1.423873	-0.613593	-0.065558
H137	H	-1.415700	-0.617826	0.065571
H138	H	-0.956105	-0.403523	0.000006
H139	H	-1.489064	-0.351553	0.000040
C140	C	-1.518197	-0.253197	0.000057
H141	H	-1.573962	-0.276292	0.000069
H142	H	-1.526652	-0.231451	-0.065496
H143	H	-1.518459	-0.235685	0.065633
