data_functionalizedCrystal
_audit_creation_method	'MofGen! by Chris Wilmer'
_symmetry_space_group_name_H-M	'P1'
_symmetry_Int_Tables_number	1
_symmetry_cell_setting	triclinic
loop_
_symmetry_equiv_pos_as_xyz
  x,y,z
_cell_length_a	17.917559
_cell_length_b	14.446369
_cell_length_c	17.917603
_cell_angle_alpha	90.003104
_cell_angle_beta	60.142335
_cell_angle_gamma	63.038514
loop_
_atom_site_label
_atom_site_type_symbol
_atom_site_fract_x
_atom_site_fract_y
_atom_site_fract_z
Zr1	Zr	0.806715	0.944731	-0.128927
O2	O	0.951734	0.811932	-0.249448
O3	O	0.654505	0.979074	-0.087294
O4	O	0.796338	0.995870	-0.242684
O5	O	0.820593	0.789130	0.023185
O6	O	0.796332	1.148207	-0.242679
O7	O	0.809901	0.795136	-0.094058
O8	O	0.542618	1.118162	0.035285
O9	O	1.074307	0.819175	-0.254779
O10	O	0.719769	1.115101	-0.075197
O11	O	0.727753	0.996931	0.012297
O12	O	0.894744	1.016706	-0.170654
O13	O	0.902728	0.898537	-0.083161
Zr14	Zr	0.823758	1.178111	0.058070
Zr15	Zr	0.806704	1.187690	-0.128919
Zr16	Zr	0.823768	0.935152	0.058062
Zr17	Zr	1.002204	0.956283	-0.137429
Zr18	Zr	0.628268	1.166560	0.066572
O19	O	0.975967	1.143768	0.016437
O20	O	0.951720	1.157389	-0.249437
O21	O	0.975982	0.798311	0.016426
O22	O	0.678738	1.310910	0.178591
O23	O	0.654490	1.324531	-0.087283
O24	O	0.678752	0.965454	0.178580
O25	O	0.809879	1.333713	-0.094042
O26	O	0.834134	1.126972	0.171827
O27	O	0.834140	0.974636	0.171822
O28	O	0.820571	1.327706	0.023201
O29	O	1.074299	1.012295	-0.254773
O30	O	0.556173	1.110547	0.183916
O31	O	0.556165	1.303668	0.183922
O32	O	0.542610	1.311282	0.035291
O33	O	1.087862	0.811561	-0.106148
O34	O	1.087854	1.004681	-0.106142
O35	O	0.735728	1.106136	0.099797
O36	O	0.727744	1.224305	0.012304
O37	O	0.902719	1.125911	-0.083154
O38	O	0.910703	1.007742	0.004340
C39	C	0.570708	1.046972	-0.024793
C40	C	0.487718	1.042068	-0.021184
C41	C	0.294760	1.089653	-0.056323
C42	C	0.335717	1.033192	-0.014536
C43	C	0.420298	1.038132	-0.018236
C44	C	0.210171	1.084714	-0.052624
C45	C	0.815249	0.757516	-0.035438
C46	C	0.815253	0.654374	-0.035441
C47	C	0.925623	0.445635	-0.095367
C48	C	0.925672	0.552888	-0.095679
C49	C	0.754267	0.649726	-0.073201
C50	C	0.754963	0.542021	-0.073635
C51	C	0.764979	0.536283	0.062354
C52	C	0.767140	0.642388	0.062110
C53	C	1.059764	1.075870	-0.046064
C54	C	1.142754	1.080774	-0.049673
C55	C	0.793905	1.073403	-0.269323
C56	C	0.786666	1.077470	-0.348705
C57	C	0.815223	1.365326	-0.035419
C58	C	0.815219	1.468468	-0.035416
C59	C	0.773442	1.084922	-0.494061
C60	C	0.857026	1.037923	-0.576798
C61	C	0.849668	1.042069	-0.657680
C62	C	0.780798	1.080777	-0.413171
C63	C	0.836567	1.049439	0.198466
C64	C	0.843806	1.045372	0.277848
C65	C	0.570696	1.350877	-0.024784
C66	C	0.487701	1.449116	-0.021171
C67	C	0.592039	1.034990	0.209101
C68	C	0.516288	1.026019	0.292093
C69	C	0.592027	1.338895	0.209111
C70	C	0.516271	1.433067	0.292105
C71	C	1.038446	0.783948	-0.279968
C72	C	1.114201	0.689776	-0.362962
C73	C	1.059776	0.771965	-0.046073
C74	C	1.142771	0.673727	-0.049686
C75	C	1.038433	1.087852	-0.279958
C76	C	1.114184	1.096823	-0.362950
C77	C	0.444562	1.438246	-0.065157
C78	C	0.366589	1.530544	-0.061780
C79	C	0.331751	1.633710	-0.014413
C80	C	0.374898	1.644577	0.029574
C81	C	0.452874	1.552281	0.026192
C82	C	0.484878	1.078810	0.376748
C83	C	0.413714	1.070377	0.454734
C84	C	0.373955	1.009160	0.448062
C85	C	0.405372	0.956363	0.363398
C86	C	0.476540	0.964790	0.285414
C87	C	0.476528	1.538984	0.285409
C88	C	0.405358	1.627479	0.363384
C89	C	0.373927	1.610054	0.448053
C90	C	0.413678	1.504125	0.454747
C91	C	0.484852	1.415633	0.376773
C92	C	1.153954	0.583859	-0.356267
C93	C	1.225148	0.495365	-0.434242
C94	C	1.256582	0.512791	-0.518912
C95	C	1.216827	0.618719	-0.525605
C96	C	1.145639	0.707210	-0.447631
C97	C	1.185917	0.684597	-0.005708
C98	C	1.263910	0.592301	-0.009106
C99	C	1.298751	0.489136	-0.056477
C100	C	1.255601	0.478268	-0.100460
C101	C	1.177614	0.570563	-0.097067
C102	C	1.153920	1.158049	-0.356249
C103	C	1.225087	1.166499	-0.434220
C104	C	1.256521	1.113716	-0.518892
C105	C	1.216777	1.052487	-0.525591
C106	C	1.145606	1.044044	-0.447620
H107	H	0.973313	0.552426	-0.070855
Cl108	Cl	1.299407	0.348565	-0.160004
Cl109	Cl	0.331086	1.774279	0.089124
H110	H	0.372999	1.713723	0.357918
H111	H	1.242381	1.009514	-0.594541
H112	H	1.257440	1.216355	-0.428749
Cl113	Cl	1.346075	0.401531	-0.616930
H114	H	0.686955	0.714296	0.110145
Cl115	Cl	0.976040	0.970988	-0.592379
Cl116	Cl	0.291795	0.952817	0.044974
H117	H	0.268256	1.708854	-0.011665
Cl118	Cl	0.374153	1.482237	0.561196
Cl119	Cl	1.095665	0.840360	-0.456063
Cl120	Cl	0.338700	1.170001	-0.115848
H121	H	0.973368	0.392980	-0.070474
Cl122	Cl	0.985391	0.370381	-0.206175
H123	H	0.696363	1.128268	-0.483974
Cl124	Cl	0.534801	1.282482	0.385207
H125	H	0.472925	1.354253	-0.103740
H126	H	0.683710	0.556591	0.107174
H127	H	0.315972	1.682120	0.511537
Cl128	Cl	0.516012	0.898423	0.178993
H129	H	0.964511	0.556713	-0.167879
H130	H	0.372990	0.906519	0.357979
Cl131	Cl	1.114451	0.561924	-0.249834
H132	H	1.257505	0.409122	-0.428774
H133	H	0.487989	1.561146	0.062016
Cl134	Cl	1.345998	1.124337	-0.616905
H135	H	0.502108	1.553193	0.216474
Cl136	Cl	1.095670	0.967056	-0.456060
Cl137	Cl	0.807995	0.473540	-0.184538
H138	H	0.388143	1.113376	0.523664
H139	H	1.242430	0.632894	-0.594553
H140	H	0.517243	1.128659	0.382198
H141	H	1.157557	0.768591	0.032872
Cl142	Cl	0.284484	0.998579	0.546110
H143	H	1.128339	1.201033	-0.287312
H144	H	1.362253	0.413992	-0.059233
H145	H	0.673699	0.561754	-0.032530
Cl146	Cl	0.805957	0.662139	-0.183016
Cl147	Cl	0.628563	0.759806	-0.008705
Cl148	Cl	0.826719	0.459755	0.111796
H149	H	1.142486	0.561697	-0.132876
Cl150	Cl	1.318136	0.605988	0.046197
Cl151	Cl	0.312359	1.516857	-0.117079
Cl152	Cl	0.835877	0.643049	0.105743
