data_functionalizedCrystal
_audit_creation_method	'MofGen! by Chris Wilmer'
_symmetry_space_group_name_H-M	'P1'
_symmetry_Int_Tables_number	1
_symmetry_cell_setting	triclinic
loop_
_symmetry_equiv_pos_as_xyz
  x,y,z
_cell_length_a	17.038272
_cell_length_b	23.532407
_cell_length_c	15.500227
_cell_angle_alpha	92.805592
_cell_angle_beta	86.956295
_cell_angle_gamma	86.980117
loop_
_atom_site_label
_atom_site_type_symbol
_atom_site_fract_x
_atom_site_fract_y
_atom_site_fract_z
O1	O	1.040103	0.121159	-0.071851
O2	O	0.812488	0.119196	-0.071876
O3	O	0.933158	0.037607	-0.071847
O4	O	0.919432	0.202748	-0.071880
O5	O	0.925836	0.042537	0.072040
O6	O	0.805165	0.124126	0.072011
O7	O	1.032780	0.126090	0.072036
Cu8	Cu	0.918304	0.125558	0.085162
Cu9	Cu	0.926964	0.119727	-0.085001
O10	O	0.912110	0.207678	0.072007
C11	C	0.779712	0.119875	0.000065
C12	C	0.692959	0.114548	0.000056
C13	C	0.929147	0.018838	0.000099
C14	C	0.928096	-0.044434	0.000105
C15	C	0.642483	0.163453	0.000046
C16	C	0.560969	0.158445	0.000059
C17	C	0.529932	0.104532	0.000075
C18	C	0.580414	0.055624	0.000087
C19	C	0.661927	0.060632	0.000080
C20	C	0.284304	0.086837	0.000102
C21	C	0.202786	0.081832	0.000106
C22	C	0.183345	0.184654	0.000080
C23	C	0.264860	0.189658	0.000068
C24	C	0.315335	0.140750	0.000084
C25	C	0.446612	0.099412	0.000086
C26	C	0.398653	0.145871	0.000080
C27	C	0.992917	-0.440131	0.000065
C28	C	0.991941	-0.499583	0.000058
O29	O	1.052030	-0.533169	0.000033
N30	N	0.920202	-0.525981	0.000051
C31	C	0.849435	-0.492924	0.000042
O32	O	0.788325	-0.520836	0.000034
C33	C	0.850412	-0.433473	0.000042
C34	C	0.922155	-0.407078	0.000058
C35	C	1.064654	-0.413736	0.000080
C36	C	1.065630	-0.354288	0.000089
C37	C	0.994868	-0.321235	0.000082
C38	C	0.923131	-0.347631	0.000067
C39	C	0.779646	-0.400418	0.000027
C40	C	0.780629	-0.340963	0.000026
C41	C	0.852372	-0.314569	0.000043
C42	C	0.853344	-0.255130	0.000068
N43	N	0.925083	-0.228732	0.000075
C44	C	0.995845	-0.261785	0.000082
C45	C	0.847388	-0.617774	0.000039
C46	C	0.846410	-0.677223	0.000045
C47	C	0.988916	-0.683878	0.000060
C48	C	0.989894	-0.624428	0.000061
C49	C	0.919127	-0.591376	0.000047
C50	C	0.997889	-0.136940	0.000100
C51	C	0.998858	-0.077487	0.000112
C52	C	0.856352	-0.070837	0.000093
C53	C	0.855382	-0.130285	0.000085
C54	C	0.926157	-0.163336	0.000086
O55	O	0.793287	-0.221508	0.000090
O56	O	1.056945	-0.233865	0.000078
C57	C	1.065556	0.125410	0.000094
C58	C	1.152310	0.130737	0.000097
C59	C	0.916121	0.226447	0.000059
C60	C	0.917172	0.289719	0.000047
N61	N	0.912219	0.129659	0.204845
N62	N	0.933055	0.115622	-0.204685
C63	C	0.963369	0.095101	0.250134
C64	C	0.958774	0.098208	0.340706
C65	C	0.903033	0.135876	0.385987
C66	C	0.851877	0.170435	0.340691
C67	C	0.856469	0.167324	0.250121
C68	C	0.886491	0.147071	0.659450
C69	C	0.881905	0.150180	0.750026
C70	C	0.988801	0.077952	0.750034
C71	C	0.993391	0.074848	0.659462
C72	C	0.942233	0.109404	0.614175
C73	C	0.898336	0.139054	0.478566
C74	C	0.946927	0.106223	0.521598
H75	H	0.667745	0.207354	0.000033
O76	O	0.844158	0.175570	0.522652
C77	C	0.793517	0.144520	0.575042
H78	H	0.824303	0.101957	0.588610
H79	H	0.777748	0.169859	0.638731
H80	H	0.737553	0.136637	0.540153
H81	H	0.519874	0.198268	0.000051
O82	O	0.711929	-0.308794	0.000130
C83	C	0.704419	-0.271672	0.074664
H84	H	0.765162	-0.264804	0.099521
H85	H	0.675798	-0.229032	0.057903
H86	H	0.666225	-0.291163	0.126837
O87	O	1.008443	0.064561	0.384599
C88	C	0.997303	0.006823	0.362505
H89	H	0.970505	0.003161	0.296753
H90	H	1.056431	-0.018440	0.359399
H91	H	0.955966	-0.010940	0.413494
H92	H	1.122281	-0.440642	0.000083
H93	H	0.290124	0.233559	0.000045
O94	O	0.709940	-0.426026	-0.000148
C95	C	0.670632	-0.411997	-0.074668
H96	H	0.715254	-0.399387	-0.126739
H97	H	0.638932	-0.450431	-0.099696
H98	H	0.625924	-0.374830	-0.057827
O99	O	0.333411	0.039366	-0.000008
C100	C	0.384911	0.036623	-0.074543
H101	H	0.389950	0.081158	-0.099393
H102	H	0.445492	0.018954	-0.057785
H103	H	0.360936	0.007539	-0.126719
O104	O	0.134201	0.232103	0.000110
C105	C	0.055601	0.216125	0.000097
H106	H	0.051440	0.172191	0.027347
H107	H	0.016295	0.248486	0.041869
H108	H	0.035511	0.214776	-0.068931
O109	O	0.797657	0.207036	0.384541
C110	C	0.753507	0.236879	0.325142
H111	H	0.756083	0.211278	0.260590
H112	H	0.689699	0.243408	0.351316
H113	H	0.779035	0.280080	0.315491
O114	O	0.778685	-0.585605	0.000153
C115	C	0.771180	-0.548481	0.074685
H116	H	0.831925	-0.541610	0.099535
H117	H	0.742555	-0.505842	0.057925
H118	H	0.732993	-0.567971	0.126864
O119	O	0.836766	0.180699	0.615599
C120	C	0.786574	0.214602	0.674990
H121	H	0.815343	0.219027	0.739544
H122	H	0.775620	0.258585	0.648809
H123	H	0.728175	0.193611	0.684643
O124	O	0.787543	-0.038808	0.000118
C125	C	0.724009	-0.074849	0.000077
H126	H	0.742802	-0.117273	0.027325
H127	H	0.672329	-0.053910	0.041834
H128	H	0.705521	-0.082506	-0.068960
H129	H	0.177520	0.037928	0.000118
O130	O	0.711047	0.013164	-0.000030
C131	C	0.762549	0.010423	-0.074563
H132	H	0.767578	0.054958	-0.099419
H133	H	0.823133	-0.007237	-0.057801
H134	H	0.738583	-0.018667	-0.126737
H135	H	0.814816	0.195464	0.213248
O136	O	0.550366	0.003218	-0.000014
C137	C	0.579967	-0.029382	-0.074540
H138	H	0.637648	-0.011979	-0.099389
H139	H	0.590798	-0.075667	-0.057771
H140	H	0.535393	-0.026861	-0.126722
H141	H	0.423926	0.189767	0.000072
H142	H	0.992309	0.075552	0.484727
H143	H	1.030451	0.049817	0.786915
O144	O	1.047446	0.038069	0.615712
C145	C	1.033855	-0.018059	0.638160
H146	H	0.969965	-0.020394	0.662944
H147	H	1.046122	-0.048382	0.578778
H148	H	1.074487	-0.030787	0.690907
O149	O	0.416494	0.047033	0.000244
C150	C	0.438560	0.019523	0.074754
H151	H	0.452640	0.052761	0.126836
H152	H	0.388093	-0.006232	0.099773
H153	H	0.492789	-0.010204	0.057903
O154	O	0.785748	-0.155999	-0.000038
C155	C	0.784706	-0.192717	-0.074579
H156	H	0.847688	-0.205359	-0.099418
H157	H	0.753012	-0.232543	-0.057834
H158	H	0.752576	-0.169940	-0.126759
O159	O	1.068623	-0.051940	0.000086
C160	C	1.130867	-0.093866	0.000109
H161	H	1.110664	-0.136197	-0.027139
H162	H	1.183109	-0.080445	-0.041659
H163	H	1.149159	-0.098857	0.069140
H164	H	1.055521	-0.163843	0.000098
H165	H	1.124051	-0.332803	0.000098
H166	H	1.046535	-0.710801	0.000062
O167	O	1.059655	-0.598883	0.000029
C168	C	1.121895	-0.640811	0.000059
H169	H	1.101688	-0.683143	-0.027179
H170	H	1.174138	-0.627396	-0.041712
H171	H	1.140187	-0.645797	0.069092
H172	H	1.008763	0.064431	0.213272
O173	O	0.776651	-0.702769	0.000001
C174	C	0.714409	-0.660840	0.000020
H175	H	0.737387	-0.620369	-0.027213
H176	H	0.666417	-0.677109	-0.041762
H177	H	0.689093	-0.651136	0.069048
O178	O	0.827716	0.186692	0.794113
C179	C	0.777084	0.155640	0.846510
H180	H	0.807879	0.113081	0.860080
H181	H	0.761312	0.180980	0.910196
H182	H	0.721120	0.147749	0.811624
