data_functionalizedCrystal
_audit_creation_method	'MofGen! by Chris Wilmer'
_symmetry_space_group_name_H-M	'P1'
_symmetry_Int_Tables_number	1
_symmetry_cell_setting	triclinic
loop_
_symmetry_equiv_pos_as_xyz
  x,y,z
_cell_length_a	16.625546
_cell_length_b	21.395364
_cell_length_c	21.395355
_cell_angle_alpha	89.974702
_cell_angle_beta	90.018476
_cell_angle_gamma	89.960831
loop_
_atom_site_label
_atom_site_type_symbol
_atom_site_fract_x
_atom_site_fract_y
_atom_site_fract_z
Zn1	Zn	-0.320736	-0.957895	0.354274
Zn2	Zn	0.012598	-0.624562	0.687607
Zn3	Zn	0.345931	-0.291228	1.020941
Zn4	Zn	-0.455551	-0.957813	0.249497
Zn5	Zn	-0.122217	-0.624479	0.582830
Zn6	Zn	0.211116	-0.291146	0.916163
Zn7	Zn	-0.320775	-0.853110	0.249509
Zn8	Zn	0.012558	-0.519777	0.582843
Zn9	Zn	0.345892	-0.186443	0.916176
Zn10	Zn	-0.455569	-0.853094	0.354236
Zn11	Zn	-0.122236	-0.519761	0.687569
Zn12	Zn	0.211097	-0.186428	1.020902
O13	O	-0.388158	-0.905478	0.301879
O14	O	-0.054824	-0.572145	0.635212
O15	O	0.278509	-0.238811	0.968546
O16	O	-0.338595	-1.045562	0.340386
O17	O	-0.005262	-0.712229	0.673719
O18	O	0.328072	-0.378895	1.007053
O19	O	-0.437681	-0.943896	0.161821
O20	O	-0.104348	-0.610562	0.495154
O21	O	0.228985	-0.277229	0.828487
O22	O	-0.207937	-0.867051	0.263428
O23	O	0.125396	-0.533718	0.596762
O24	O	0.458729	-0.200384	0.930095
O25	O	-0.437643	-1.045501	0.263407
O26	O	-0.104310	-0.712168	0.596740
O27	O	0.229024	-0.378835	0.930073
O28	O	-0.207909	-0.944036	0.340398
O29	O	0.125425	-0.610703	0.673732
O30	O	0.458758	-0.277370	1.007065
O31	O	-0.338662	-0.866971	0.161830
O32	O	-0.005329	-0.533638	0.495163
O33	O	0.328004	-0.200305	0.828497
O34	O	-0.338680	-0.765430	0.263391
O35	O	-0.005347	-0.432097	0.596724
O36	O	0.327987	-0.098763	0.930057
O37	O	-0.437675	-0.867024	0.441919
O38	O	-0.104341	-0.533691	0.775252
O39	O	0.228992	-0.200358	1.108585
O40	O	-0.437713	-0.765419	0.340333
O41	O	-0.104380	-0.432085	0.673666
O42	O	0.228954	-0.098752	1.006999
O43	O	-0.338613	-0.944021	0.441947
O44	O	-0.005280	-0.610688	0.775280
O45	O	0.328054	-0.277354	1.108614
O46	O	-0.568386	-0.943880	0.263369
O47	O	-0.235052	-0.610547	0.596702
O48	O	0.098281	-0.277214	0.930036
O49	O	-0.568399	-0.866944	0.340320
O50	O	-0.235066	-0.533611	0.673654
O51	O	0.098267	-0.200278	1.006987
C52	C	-0.388203	-0.742690	0.301859
C53	C	-0.054870	-0.409357	0.635193
C54	C	0.278463	-0.076024	0.968526
C55	C	-0.388242	-0.673049	0.301866
C56	C	-0.054909	-0.339716	0.635199
C57	C	0.278424	-0.006382	0.968532
C58	C	-0.336754	-0.640390	0.342010
C59	C	-0.003420	-0.307057	0.675344
C60	C	0.329913	0.026277	1.008677
C61	C	-0.336735	-0.574955	0.342012
C62	C	-0.003401	-0.241621	0.675345
C63	C	0.329932	0.091712	1.008679
C64	C	-0.388219	-0.542181	0.301875
C65	C	-0.054886	-0.208847	0.635209
C66	C	0.278448	0.124486	0.968542
C67	C	-0.439711	-0.574848	0.261723
C68	C	-0.106378	-0.241515	0.595056
C69	C	0.226955	0.091819	0.928390
C70	C	-0.439723	-0.640282	0.261718
C71	C	-0.106390	-0.306949	0.595051
C72	C	0.226944	0.026385	0.928385
C73	C	-0.460836	-0.438465	0.296837
C74	C	-0.127502	-0.105131	0.630170
C75	C	0.205831	0.228202	0.963503
C76	C	-0.460825	-0.373032	0.296846
C77	C	-0.127492	-0.039698	0.630179
C78	C	0.205841	0.293635	0.963512
C79	C	-0.388183	-0.340360	0.301887
C80	C	-0.054849	-0.007027	0.635220
C81	C	0.278484	0.326307	0.968553
C82	C	-0.315548	-0.373130	0.306932
C83	C	0.017786	-0.039796	0.640265
C84	C	0.351119	0.293537	0.973598
C85	C	-0.315559	-0.438564	0.306927
C86	C	0.017774	-0.105230	0.640260
C87	C	0.351107	0.228103	0.973593
C88	C	-0.388212	-0.471228	0.301876
C89	C	-0.054878	-0.137895	0.635209
C90	C	0.278455	0.195438	0.968543
C91	C	-0.336669	-0.236748	0.342035
C92	C	-0.003336	0.096585	0.675369
C93	C	0.329998	0.429918	1.008702
C94	C	-0.336649	-0.171312	0.342032
C95	C	-0.003316	0.162022	0.675366
C96	C	0.330018	0.495355	1.008699
C97	C	-0.439632	-0.171206	0.261747
C98	C	-0.106299	0.162127	0.595080
C99	C	0.227034	0.495460	0.928413
C100	C	-0.439645	-0.236642	0.261746
C101	C	-0.106312	0.096692	0.595079
C102	C	0.227021	0.430025	0.928413
C103	C	-0.388165	-0.269409	0.301894
C104	C	-0.054832	0.063925	0.635227
C105	C	0.278502	0.397258	0.968560
C106	C	-0.597649	-0.905419	0.301853
C107	C	-0.264315	-0.572085	0.635186
C108	C	0.069018	-0.238752	0.968519
C109	C	-0.687270	-0.905451	0.301862
C110	C	-0.353936	-0.572117	0.635196
C111	C	-0.020603	-0.238784	0.968529
C112	C	-1.015445	-0.905560	0.301928
C113	C	-0.682112	-0.572227	0.635261
C114	C	-0.348779	-0.238893	0.968594
C115	C	-0.924137	-0.905528	0.301911
C116	C	-0.590803	-0.572194	0.635245
C117	C	-0.257470	-0.238861	0.968578
C118	C	-0.851360	-0.905505	0.301895
C119	C	-0.518027	-0.572172	0.635228
C120	C	-0.184694	-0.238838	0.968561
C121	C	-0.760046	-0.905473	0.301879
C122	C	-0.426713	-0.572140	0.635212
C123	C	-0.093379	-0.238807	0.968546
C124	C	-0.177849	-0.905555	0.301919
C125	C	0.155485	-0.572221	0.635252
C126	C	0.488818	-0.238888	0.968586
C127	C	-0.088228	-0.905587	0.301936
C128	C	0.245106	-0.572254	0.635269
C129	C	0.578439	-0.238921	0.968603
C130	C	-0.388141	-0.905530	0.465302
C131	C	-0.054808	-0.572197	0.798636
C132	C	0.278525	-0.238863	1.131969
C133	C	-0.388134	-0.905552	0.534944
C134	C	-0.054801	-0.572219	0.868277
C135	C	0.278532	-0.238886	1.201610
C136	C	-0.388122	-0.068901	0.301896
C137	C	-0.054789	0.264432	0.635229
C138	C	0.278544	0.597765	0.968563
C139	C	-0.388133	-0.138543	0.301895
C140	C	-0.054799	0.194791	0.635228
C141	C	0.278534	0.528124	0.968561
C142	C	-0.388116	-0.905462	0.139091
C143	C	-0.054782	-0.572129	0.472425
C144	C	0.278551	-0.238796	0.805758
C145	C	-0.387896	-0.905562	0.069451
C146	C	-0.054562	-0.572228	0.402784
C147	C	0.278771	-0.238895	0.736117
C148	C	-0.336551	-0.945643	0.567672
C149	C	-0.003218	-0.612309	0.901006
C150	C	0.330116	-0.278976	1.234339
C151	C	-0.336516	-0.945642	0.633108
C152	C	-0.003183	-0.612308	0.966441
C153	C	0.330150	-0.278975	1.299775
C154	C	-0.388079	-0.905557	0.665812
C155	C	-0.054746	-0.572224	0.999145
C156	C	0.278587	-0.238890	1.332479
C157	C	-0.439667	-0.865459	0.633075
C158	C	-0.106333	-0.532126	0.966409
C159	C	0.227000	-0.198792	1.299742
C160	C	-0.439694	-0.865456	0.567641
C161	C	-0.106361	-0.532123	0.900974
C162	C	0.226972	-0.198790	1.234308
C163	C	-0.460682	-0.900589	0.769478
C164	C	-0.127349	-0.567256	1.102811
C165	C	0.205985	-0.233923	1.436144
C166	C	-0.460656	-0.900596	0.834911
C167	C	-0.127323	-0.567263	1.168244
C168	C	0.206011	-0.233929	1.501577
C169	C	-0.387994	-0.905561	0.867633
C170	C	-0.054661	-0.572228	1.200966
C171	C	0.278672	-0.238894	1.534300
C172	C	-0.315357	-0.910532	0.834914
C173	C	0.017977	-0.577199	1.168247
C174	C	0.351310	-0.243865	1.501581
C175	C	-0.315384	-0.910530	0.769480
C176	C	0.017949	-0.577196	1.102813
C177	C	0.351283	-0.243863	1.436147
C178	C	-0.388055	-0.905555	0.736764
C179	C	-0.054722	-0.572222	1.070098
C180	C	0.278612	-0.238888	1.403431
C181	C	-0.336369	-0.945653	0.971314
C182	C	-0.003035	-0.612319	1.304648
C183	C	0.330298	-0.278986	1.637981
C184	C	-0.336333	-0.945647	1.036751
C185	C	-0.002999	-0.612314	1.370084
C186	C	0.330334	-0.278981	1.703418
C187	C	-0.439490	-0.865468	1.036717
C188	C	-0.106157	-0.532134	1.370050
C189	C	0.227176	-0.198801	1.703384
C190	C	-0.439519	-0.865470	0.971282
C191	C	-0.106186	-0.532136	1.304615
C192	C	0.227147	-0.198803	1.637948
C193	C	-0.387960	-0.905565	0.938584
C194	C	-0.054626	-0.572232	1.271918
C195	C	0.278707	-0.238899	1.605251
H196	H	-0.481576	-0.263233	0.229058
H197	H	-0.148243	0.070100	0.562392
H198	H	0.185090	0.403433	0.895725
H199	H	-0.519969	-0.346356	0.292741
H200	H	-0.186636	-0.013022	0.626074
H201	H	0.146698	0.320311	0.959408
H202	H	-0.294566	-0.978291	0.541054
H203	H	0.038767	-0.644958	0.874388
H204	H	0.372101	-0.311624	1.207721
C205	C	-0.540558	-0.895127	0.870895
C206	C	-0.207225	-0.561794	1.204228
C207	C	0.126108	-0.228461	1.537561
N208	N	-0.600743	-0.891007	0.897997
N209	N	-0.267410	-0.557673	1.231330
N210	N	0.065924	-0.224340	1.564663
C211	C	-0.496445	-0.821353	0.531638
C212	C	-0.163111	-0.488020	0.864971
C213	C	0.170222	-0.154687	1.198305
N214	N	-0.539191	-0.788135	0.504520
N215	N	-0.205858	-0.454802	0.837853
N216	N	0.127476	-0.121468	1.171187
H217	H	-0.294506	-0.978287	0.659761
H218	H	0.038827	-0.644954	0.993094
H219	H	0.372160	-0.311620	1.326428
H220	H	-0.294381	-0.978298	0.944691
H221	H	0.038952	-0.644964	1.278024
H222	H	0.372285	-0.311631	1.611357
C223	C	-0.279582	-0.989751	1.072753
C224	C	0.053751	-0.656418	1.406086
C225	C	0.387085	-0.323085	1.739419
N226	N	-0.236837	-1.022972	1.099870
N227	N	0.096496	-0.689639	1.433203
N228	N	0.429830	-0.356305	1.766536
H229	H	-0.481552	-0.144523	0.229066
H230	H	-0.148218	0.188811	0.562400
H231	H	0.185115	0.522144	0.895733
H232	H	-0.519995	-0.465060	0.292731
H233	H	-0.186661	-0.131727	0.626064
H234	H	0.146672	0.201606	0.959398
H235	H	-0.294803	-0.548358	0.374702
H236	H	0.038531	-0.215025	0.708035
H237	H	0.371864	0.118308	1.041368
C238	C	-0.496371	-0.676208	0.217557
C239	C	-0.163037	-0.342875	0.550890
C240	C	0.170296	-0.009542	0.884223
N241	N	-0.539041	-0.703269	0.184295
N242	N	-0.205707	-0.369936	0.517628
N243	N	0.127626	-0.036602	0.850962
H244	H	-0.481529	-0.832827	0.944633
H245	H	-0.148196	-0.499494	1.277967
H246	H	0.185138	-0.166161	1.611300
H247	H	-0.294745	-0.263429	0.374722
H248	H	0.038588	0.069905	0.708055
H249	H	0.371921	0.403238	1.041389
H250	H	-0.481647	-0.832820	0.659707
H251	H	-0.148314	-0.499486	0.993040
H252	H	0.185019	-0.166153	1.326374
C253	C	-0.280113	-0.676430	0.386166
C254	C	0.053220	-0.343097	0.719500
C255	C	0.386554	-0.009763	1.052833
N256	N	-0.237448	-0.703576	0.419422
N257	N	0.095886	-0.370243	0.752756
N258	N	0.429219	-0.036910	1.086089
C259	C	-0.496344	-0.538796	0.217573
C260	C	-0.163011	-0.205462	0.550906
C261	C	0.170322	0.127871	0.884240
N262	N	-0.539001	-0.511641	0.184316
N263	N	-0.205667	-0.178308	0.517650
N264	N	0.127666	0.155026	0.850983
H265	H	-0.519837	-0.896379	0.742841
H266	H	-0.186503	-0.563045	1.076174
H267	H	0.146830	-0.229712	1.409507
H268	H	-0.294716	-0.144722	0.374722
H269	H	0.038618	0.188612	0.708055
H270	H	0.371951	0.521945	1.041389
H271	H	-0.256418	-0.465242	0.311032
H272	H	0.076916	-0.131909	0.644366
H273	H	0.410249	0.201425	0.977699
H274	H	-0.256189	-0.914576	0.861555
H275	H	0.077145	-0.581243	1.194889
H276	H	0.410478	-0.247909	1.528222
C277	C	-0.235633	-0.337196	0.312471
C278	C	0.097700	-0.003863	0.645804
C279	C	0.431034	0.329471	0.979138
N280	N	-0.175443	-0.310128	0.316642
N281	N	0.157890	0.023206	0.649976
N282	N	0.491223	0.356539	0.983309
C283	C	-0.235483	-0.915989	0.733492
C284	C	0.097850	-0.582656	1.066825
C285	C	0.431183	-0.249323	1.400159
N286	N	-0.175301	-0.920097	0.706386
N287	N	0.158033	-0.586764	1.039719
N288	N	0.491366	-0.253431	1.373052
C289	C	-0.496212	-0.821374	1.072688
C290	C	-0.162878	-0.488041	1.406021
C291	C	0.170455	-0.154708	1.739354
N292	N	-0.538935	-0.788162	1.099784
N293	N	-0.205602	-0.454828	1.433117
N294	N	0.127732	-0.121495	1.766451
