data_functionalizedCrystal
_audit_creation_method	'MofGen! by Chris Wilmer'
_symmetry_space_group_name_H-M	'P1'
_symmetry_Int_Tables_number	1
_symmetry_cell_setting	triclinic
loop_
_symmetry_equiv_pos_as_xyz
  x,y,z
_cell_length_a	21.395362
_cell_length_b	16.959454
_cell_length_c	16.959447
_cell_angle_alpha	89.973264
_cell_angle_beta	89.965163
_cell_angle_gamma	90.035955
loop_
_atom_site_label
_atom_site_type_symbol
_atom_site_fract_x
_atom_site_fract_y
_atom_site_fract_z
Zn1	Zn	0.957849	-0.314331	-0.447361
Zn2	Zn	1.457849	0.185669	0.052639
Zn3	Zn	0.957788	-0.446523	-0.315191
Zn4	Zn	1.457788	0.053477	0.184809
Zn5	Zn	0.853081	-0.314399	-0.315151
Zn6	Zn	1.353081	0.185601	0.184849
Zn7	Zn	0.853053	-0.446508	-0.447282
Zn8	Zn	1.353053	0.053492	0.052718
O9	O	0.905443	-0.380440	-0.381246
O10	O	1.405443	0.119560	0.118754
O11	O	1.045519	-0.331844	-0.429878
O12	O	1.545519	0.168156	0.070122
O13	O	0.943884	-0.429032	-0.204575
O14	O	1.443884	0.070968	0.295425
O15	O	0.867016	-0.203779	-0.332706
O16	O	1.367016	0.296221	0.167294
O17	O	1.045474	-0.428965	-0.332773
O18	O	1.545474	0.071035	0.167227
O19	O	0.943989	-0.203729	-0.429840
O20	O	1.443989	0.296271	0.070160
O21	O	0.866957	-0.331961	-0.204546
O22	O	1.366957	0.168039	0.295454
O23	O	0.765399	-0.331946	-0.332629
O24	O	1.265399	0.168054	0.167371
O25	O	0.866969	-0.428939	-0.557904
O26	O	1.366969	0.071061	-0.057904
O27	O	0.765379	-0.429006	-0.429705
O28	O	1.265379	0.070994	0.070295
O29	O	0.943962	-0.331829	-0.557962
O30	O	1.443962	0.168171	-0.057962
O31	O	0.943857	-0.557132	-0.332697
O32	O	1.443857	-0.057132	0.167303
O33	O	0.866909	-0.557121	-0.429743
O34	O	1.366909	-0.057121	0.070257
C35	C	0.742655	-0.380482	-0.381155
C36	C	1.242655	0.119518	0.118845
C37	C	0.673014	-0.380519	-0.381134
C38	C	1.173014	0.119481	0.118866
C39	C	0.640307	-0.431125	-0.431606
C40	C	1.140307	0.068875	0.068394
C41	C	0.574871	-0.431106	-0.431641
C42	C	1.074871	0.068894	0.068359
C43	C	0.542146	-0.380489	-0.381191
C44	C	1.042146	0.119511	0.118809
C45	C	0.574861	-0.329873	-0.330715
C46	C	1.074861	0.170127	0.169285
C47	C	0.640295	-0.329888	-0.330687
C48	C	1.140295	0.170112	0.169313
C49	C	0.438429	-0.374138	-0.310031
C50	C	0.938429	0.125862	0.189969
C51	C	0.372996	-0.374128	-0.310058
C52	C	0.872996	0.125872	0.189942
C53	C	0.340325	-0.380437	-0.381278
C54	C	0.840325	0.119563	0.118722
C55	C	0.373095	-0.386772	-0.452473
C56	C	0.873095	0.113228	0.047527
C57	C	0.438529	-0.386787	-0.452445
C58	C	0.938529	0.113213	0.047555
C59	C	0.471193	-0.380466	-0.381216
C60	C	0.971193	0.119534	0.118784
C61	C	0.236665	-0.431025	-0.431792
C62	C	0.736665	0.068975	0.068208
C63	C	0.171228	-0.431000	-0.431829
C64	C	0.671228	0.069000	0.068171
C65	C	0.171220	-0.329771	-0.330896
C66	C	0.671220	0.170229	0.169104
C67	C	0.236655	-0.329792	-0.330866
C68	C	0.736655	0.170208	0.169134
C69	C	0.269374	-0.380423	-0.381313
C70	C	0.769374	0.119577	0.118687
C71	C	0.905390	-0.585807	-0.381233
C72	C	1.405390	-0.085807	0.118767
C73	C	0.905425	-0.673663	-0.381254
C74	C	1.405425	-0.173663	0.118746
C75	C	0.865434	-1.045163	-0.431773
C76	C	1.365434	-0.545163	0.068227
C77	C	0.945626	-1.045115	-0.330800
C78	C	1.445626	-0.545115	0.169200
C79	C	0.945604	-0.962569	-0.330793
C80	C	1.445604	-0.462569	0.169207
C81	C	0.905496	-0.921316	-0.381276
C82	C	1.405496	-0.421316	0.118724
C83	C	0.865410	-0.962609	-0.431766
C84	C	1.365410	-0.462609	0.068234
C85	C	0.985686	-0.921269	-0.280298
C86	C	1.485686	-0.421269	0.219702
C87	C	0.985665	-0.838718	-0.280288
C88	C	1.485665	-0.338718	0.219712
C89	C	0.945559	-0.797464	-0.330775
C90	C	1.445559	-0.297464	0.169225
C91	C	0.905472	-0.838763	-0.381268
C92	C	1.405472	-0.338763	0.118732
C93	C	0.865363	-0.797510	-0.431751
C94	C	1.365363	-0.297510	0.068249
C95	C	0.825278	-0.838807	-0.482249
C96	C	1.325278	-0.338807	0.017751
C97	C	0.825304	-0.921355	-0.482253
C98	C	1.325304	-0.421355	0.017747
C99	C	0.945534	-0.714916	-0.330771
C100	C	1.445534	-0.214916	0.169229
C101	C	0.865339	-0.714956	-0.431744
C102	C	1.365339	-0.214956	0.068256
C103	C	1.068866	-0.380399	-0.381339
C104	C	1.568866	0.119601	0.118661
C105	C	1.138508	-0.380381	-0.381378
C106	C	1.638508	0.119619	0.118622
C107	C	0.905469	-0.380375	-0.587415
C108	C	1.405469	0.119625	-0.087415
C109	C	0.905480	-0.380347	-0.675271
C110	C	1.405480	0.119653	-0.175271
C111	C	0.905513	-0.174272	-0.381277
C112	C	1.405513	0.325728	0.118723
C113	C	0.905542	-0.086415	-0.381290
C114	C	1.405542	0.413585	0.118710
C115	C	0.865468	-0.430824	-1.046719
C116	C	1.365468	0.069176	-0.546719
C117	C	0.945642	-0.329703	-1.046775
C118	C	1.445642	0.170297	-0.546775
C119	C	0.945625	-0.329720	-0.964229
C120	C	1.445625	0.170280	-0.464229
C121	C	0.905530	-0.380290	-0.922925
C122	C	1.405530	0.119710	-0.422925
C123	C	0.865451	-0.430844	-0.964166
C124	C	1.365451	0.069156	-0.464166
C125	C	0.985708	-0.279172	-0.922982
C126	C	1.485708	0.220828	-0.422982
C127	C	0.985693	-0.279188	-0.840431
C128	C	1.485693	0.220812	-0.340431
C129	C	0.945594	-0.329755	-0.799124
C130	C	1.445594	0.170245	-0.299124
C131	C	0.905513	-0.380310	-0.840371
C132	C	1.405513	0.119690	-0.340371
C133	C	0.865418	-0.430881	-0.799066
C134	C	1.365418	0.069119	-0.299066
C135	C	0.825334	-0.481433	-0.840311
C136	C	1.325334	0.018567	-0.340311
C137	C	0.825352	-0.481411	-0.922860
C138	C	1.325352	0.018589	-0.422860
C139	C	0.945575	-0.329776	-0.716576
C140	C	1.445575	0.170224	-0.216576
C141	C	0.865401	-0.430901	-0.716513
C142	C	1.365401	0.069099	-0.216513
C143	C	0.905453	-0.380448	-0.175880
C144	C	1.405453	0.119552	0.324120
C145	C	0.905563	-0.380254	-0.088024
C146	C	1.405563	0.119746	0.411976
H147	H	0.144599	-0.472208	-0.472934
H148	H	0.644599	0.027792	0.027066
H149	H	1.018332	-0.238025	-0.806856
H150	H	1.518332	0.261975	-0.306856
H151	H	0.548212	-0.288659	-0.289639
H152	H	1.048212	0.211341	0.210361
H153	H	0.346496	-0.391908	-0.510467
H154	H	0.846496	0.108092	-0.010467
H155	H	0.144575	-0.288554	-0.289821
H156	H	0.644575	0.211446	0.210179
O157	O	0.988803	-0.275260	-0.672087
O158	O	1.488803	0.224740	-0.172087
H159	H	1.016685	-0.240092	-0.714677
H160	H	1.516685	0.259908	-0.214677
O161	O	0.675594	-0.485722	-0.486028
O162	O	1.175594	0.014278	0.013972
H163	H	0.662981	-0.547739	-0.472376
H164	H	1.162981	-0.047739	0.027624
H165	H	0.792619	-0.805209	-0.523349
H166	H	1.292619	-0.305209	-0.023349
O167	O	1.028954	-0.224624	-0.967514
O168	O	1.528954	0.275376	-0.467514
H169	H	1.018225	-0.162599	-0.951660
H170	H	1.518225	0.337401	-0.451660
H171	H	0.832830	-0.471980	-1.080305
H172	H	1.332830	0.028020	-0.580305
H173	H	0.548236	-0.472315	-0.472744
H174	H	1.048236	0.027685	0.027256
O175	O	1.028966	-0.965759	-0.225878
O176	O	1.528966	-0.465759	0.274122
H177	H	1.022262	-1.030097	-0.234386
H178	H	1.522262	-0.530097	0.265614
H179	H	0.978277	-1.078707	-0.289694
H180	H	1.478277	-0.578707	0.210306
O181	O	0.822078	-0.670469	-0.486199
O182	O	1.322078	-0.170469	0.013801
H183	H	0.828795	-0.606129	-0.477715
H184	H	1.328795	-0.106129	0.022285
O185	O	0.675574	-0.275304	-0.276243
O186	O	1.175574	0.224696	0.223757
H187	H	0.726571	-0.283817	-0.284702
H188	H	1.226571	0.216183	0.215298
O189	O	0.271939	-0.275230	-0.276408
O190	O	0.771939	0.224770	0.223592
H191	H	0.238192	-0.240038	-0.241322
H192	H	0.738192	0.259962	0.258678
H193	H	0.346320	-0.368975	-0.252087
H194	H	0.846320	0.131025	0.247913
H195	H	0.465024	-0.368997	-0.252032
H196	H	0.965024	0.131003	0.247968
O197	O	1.028906	-0.794183	-0.225835
O198	O	1.528906	-0.294183	0.274165
H199	H	1.000880	-0.756630	-0.185566
H200	H	1.500880	-0.256630	0.314434
H201	H	0.978289	-0.288535	-1.080410
H202	H	1.478289	0.211465	-0.580410
O203	O	0.782060	-0.965893	-0.536700
O204	O	1.282060	-0.465893	-0.036700
H205	H	0.788807	-1.030225	-0.528211
H206	H	1.288807	-0.530225	-0.028211
O207	O	0.473872	-0.393610	-0.529230
O208	O	0.973872	0.106390	-0.029230
H209	H	0.524859	-0.392564	-0.517241
H210	H	1.024859	0.107436	-0.017241
O211	O	0.822193	-1.089695	-0.486228
O212	O	1.322193	-0.589695	0.013772
H213	H	0.828941	-1.154028	-0.477751
H214	H	1.328941	-0.654028	0.022249
H215	H	0.263306	-0.472247	-0.472873
H216	H	0.763306	0.027753	0.027127
H217	H	0.978167	-0.681296	-0.289653
H218	H	1.478167	-0.181296	0.210347
O219	O	0.822141	-0.485428	-0.671962
O220	O	1.322141	0.014572	-0.171962
H221	H	0.794271	-0.520570	-0.714513
H222	H	1.294271	-0.020570	-0.214513
O223	O	0.782081	-0.535972	-0.795763
O224	O	1.282081	-0.035972	-0.295763
H225	H	0.810099	-0.576189	-0.758154
H226	H	1.310099	-0.076189	-0.258154
O227	O	0.782121	-0.535932	-0.967342
O228	O	1.282121	-0.035932	-0.467342
H229	H	0.788873	-0.527426	-1.031682
H230	H	1.288873	-0.027426	-0.531682
