data_functionalizedCrystal
_audit_creation_method	'MofGen! by Chris Wilmer'
_symmetry_space_group_name_H-M	'P1'
_symmetry_Int_Tables_number	1
_symmetry_cell_setting	triclinic
loop_
_symmetry_equiv_pos_as_xyz
  x,y,z
_cell_length_a	10.540539
_cell_length_b	26.210047
_cell_length_c	10.540510
_cell_angle_alpha	89.992965
_cell_angle_beta	84.519401
_cell_angle_gamma	90.007062
loop_
_atom_site_label
_atom_site_type_symbol
_atom_site_fract_x
_atom_site_fract_y
_atom_site_fract_z
O1	O	1.685878	0.042402	0.178885
O2	O	1.316464	0.042408	0.195741
O3	O	1.509619	0.042405	0.002604
O4	O	1.492723	0.042405	0.372022
O5	O	1.509581	-0.042453	0.002634
O6	O	1.316426	-0.042450	0.195771
O7	O	1.685841	-0.042456	0.178915
Cu8	Cu	1.501130	-0.050201	0.187346
Cu9	Cu	1.501174	0.050153	0.187310
O10	O	1.492686	-0.042453	0.372052
C11	C	1.269142	-0.000020	0.194492
C12	C	1.128194	-0.000018	0.190710
N13	N	1.501108	-0.120785	0.187370
C14	C	0.944783	-0.000216	0.045791
C15	C	1.091401	-0.000020	0.049624
C16	C	1.066536	0.048438	0.258589
C17	C	0.919992	0.048474	0.253774
C18	C	0.919461	-0.048026	0.256678
C19	C	1.066442	-0.048661	0.257978
C20	C	1.586695	-0.473301	0.101808
C21	C	1.586723	-0.686959	0.101791
O22	O	1.659442	-0.714583	0.029049
N23	N	1.501181	-0.713679	0.187282
C24	C	1.415620	-0.686981	0.272778
O25	O	1.342854	-0.714610	0.345484
C26	C	1.415588	-0.473323	0.272788
C27	C	1.501144	-0.446606	0.187300
C28	C	1.672243	-0.446584	0.016326
C29	C	1.672240	-0.393172	0.016336
C30	C	1.586689	-0.366478	0.101828
C31	C	1.501140	-0.393195	0.187310
C32	C	1.330022	-0.446626	0.358277
C33	C	1.330019	-0.393209	0.358270
C34	C	1.415575	-0.366492	0.272782
C35	C	1.415586	-0.313089	0.272812
N36	N	1.501128	-0.286369	0.187321
C37	C	1.586679	-0.313064	0.101829
C38	C	1.415645	-0.799154	0.272768
C39	C	1.415655	-0.852569	0.272768
C40	C	1.586756	-0.852543	0.101779
C41	C	1.586752	-0.799128	0.101786
C42	C	1.501187	-0.772435	0.187277
C43	C	1.586667	-0.200896	0.101857
C44	C	1.586660	-0.147480	0.101878
C45	C	1.415555	-0.147510	0.272862
C46	C	1.415566	-0.200921	0.272846
C47	C	1.501127	-0.227613	0.187333
O48	O	1.342895	-0.285433	0.345507
O49	O	1.659416	-0.285425	0.029114
C50	C	1.586698	-0.526712	0.101798
C51	C	1.501150	-0.553429	0.187281
C52	C	1.415599	-0.526735	0.272773
C53	C	1.501159	-0.606844	0.187280
C54	C	1.586711	-0.633538	0.101788
C55	C	1.672252	-0.606818	0.016297
C56	C	1.672249	-0.553407	0.016307
C57	C	1.330057	-0.553455	0.358264
C58	C	1.330068	-0.606866	0.358248
C59	C	1.415619	-0.633561	0.272756
C60	C	1.733163	-0.000027	0.180164
C61	C	1.874110	-0.000026	0.183946
C62	C	1.508341	-0.000023	-0.044685
C63	C	1.504574	-0.000020	-0.185635
N64	N	1.501206	0.120737	0.187276
C65	C	1.638758	-0.000217	-0.403090
C66	C	1.642776	-0.000023	-0.256495
C67	C	1.433849	0.048438	-0.230410
C68	C	1.430810	0.048476	-0.377171
C69	C	1.427889	-0.048023	-0.376946
C70	C	1.434444	-0.048661	-0.230604
C71	C	1.493964	-0.000024	0.419340
C72	C	1.497731	-0.000024	0.560290
H73	H	0.916188	-0.034967	-0.009934
H74	H	1.133167	0.034776	-0.004188
O75	O	1.708960	-0.041434	-0.221573
C76	C	1.834194	-0.039601	-0.281821
H77	H	1.859795	0.001510	-0.308727
H78	H	1.903405	-0.054681	-0.213967
H79	H	1.840651	-0.064150	-0.371483
H80	H	1.327444	0.050673	-0.400167
H81	H	1.692585	-0.034969	-0.445033
H82	H	1.741916	-0.628561	-0.053310
H83	H	1.692305	0.034337	-0.446608
H84	H	1.324126	-0.048348	-0.399096
H85	H	1.260389	-0.531724	0.427880
O86	O	1.314085	-0.052066	-0.171996
C87	C	1.290563	-0.010358	-0.088597
H88	H	1.357437	0.022370	-0.120367
H89	H	1.187545	0.002657	-0.090299
H90	H	1.307684	-0.022376	0.012312
O91	O	1.247128	-0.632839	0.441425
C92	C	1.315785	-0.663751	0.520388
H93	H	1.415917	-0.647654	0.523513
H94	H	1.264879	-0.664364	0.620787
H95	H	1.322078	-0.704230	0.480717
O96	O	1.669803	-0.878423	0.018550
C97	C	1.648009	-0.865378	-0.107316
H98	H	1.599086	-0.826597	-0.107631
H99	H	1.742861	-0.863547	-0.168930
H100	H	1.584460	-0.895441	-0.147168
H101	H	1.088878	0.050242	0.362197
H102	H	1.346001	-0.874318	0.342393
H103	H	1.345911	-0.222675	0.342470
H104	H	1.482996	0.084499	-0.199567
H105	H	1.471792	-0.084755	-0.419115
H106	H	1.741909	-0.468314	-0.053297
O107	O	1.709205	0.041454	-0.222394
C108	C	1.713085	0.041802	-0.089059
H109	H	1.697855	0.001411	-0.050443
H110	H	1.809818	0.056491	-0.065250
H111	H	1.634723	0.067786	-0.043668
O112	O	1.246856	-0.367359	0.441444
C113	C	1.171331	-0.402398	0.516866
H114	H	1.223395	-0.440470	0.518793
H115	H	1.152861	-0.386976	0.618067
H116	H	1.076668	-0.408082	0.474730
H117	H	0.887903	-0.084755	0.211032
H118	H	1.107394	-0.084509	0.208390
H119	H	1.345903	-0.125767	0.342472
H120	H	1.332108	0.050242	-0.183022
O121	O	1.246848	-0.472626	0.441141
C122	C	1.167908	-0.503511	0.372392
H123	H	1.217594	-0.511513	0.273550
H124	H	1.148272	-0.541072	0.425194
H125	H	1.074026	-0.482923	0.362839
O126	O	0.908895	0.041062	-0.020320
C127	C	0.940262	0.086051	0.043031
H128	H	1.020206	0.077702	0.105631
H129	H	0.973041	0.116457	-0.030231
H130	H	0.852907	0.100375	0.104916
O131	O	1.142196	-0.041416	-0.014306
C132	C	1.112790	-0.039559	-0.141938
H133	H	1.092259	0.001554	-0.168746
H134	H	1.197040	-0.054610	-0.207100
H135	H	1.025297	-0.064121	-0.153175
H136	H	1.109145	0.084501	0.211411
O137	O	1.495710	-0.091483	-0.196605
C138	C	1.431911	-0.134906	-0.237425
H139	H	1.374623	-0.124028	-0.319780
H140	H	1.504691	-0.165451	-0.270418
H141	H	1.364830	-0.150354	-0.155088
H142	H	0.891803	0.084695	0.203579
H143	H	0.872013	0.050673	0.355239
O144	O	1.488393	0.091736	-0.425008
C145	C	1.422678	0.134690	-0.371808
H146	H	1.367908	0.123638	-0.277300
H147	H	1.493906	0.166127	-0.354937
H148	H	1.353083	0.149040	-0.440165
O149	O	1.095542	-0.052132	0.380625
C150	C	1.228891	-0.055151	0.382593
H151	H	1.277473	-0.037999	0.291115
H152	H	1.258684	-0.033086	0.468103
H153	H	1.258347	-0.096809	0.390153
O154	O	0.862985	-0.048347	0.378203
C155	C	0.782912	-0.005407	0.397512
H156	H	0.754364	0.008546	0.301820
H157	H	0.693827	-0.016315	0.461688
H158	H	0.835795	0.026270	0.444642
O159	O	1.669817	-0.121606	0.018705
C160	C	1.745342	-0.156626	-0.056732
H161	H	1.693282	-0.194703	-0.058669
H162	H	1.763806	-0.141186	-0.157928
H163	H	1.840009	-0.162306	-0.014602
O164	O	1.332482	-0.773307	0.355949
C165	C	1.256975	-0.808351	0.431375
H166	H	1.309051	-0.846420	0.433294
H167	H	1.238510	-0.792931	0.532578
H168	H	1.162308	-0.814039	0.389248
H169	H	1.656337	-0.222622	0.032223
O170	O	1.755208	-0.367317	-0.067049
C171	C	1.733256	-0.380482	-0.192791
H172	H	1.631552	-0.395124	-0.194165
H173	H	1.747330	-0.345418	-0.256590
H174	H	1.803134	-0.411550	-0.229297
O175	O	1.669644	-0.773136	0.018617
C176	C	1.600902	-0.742274	-0.060382
H177	H	1.502054	-0.734264	-0.010721
H178	H	1.653702	-0.704716	-0.080070
H179	H	1.591364	-0.762886	-0.154234
H180	H	1.741917	-0.531657	-0.053306
