data_functionalizedCrystal
_audit_creation_method	'MofGen! by Chris Wilmer'
_symmetry_space_group_name_H-M	'P1'
_symmetry_Int_Tables_number	1
_symmetry_cell_setting	triclinic
loop_
_symmetry_equiv_pos_as_xyz
  x,y,z
_cell_length_a	10.685901
_cell_length_b	10.686685
_cell_length_c	10.686551
_cell_angle_alpha	90.361117
_cell_angle_beta	90.348291
_cell_angle_gamma	80.963890
loop_
_atom_site_label
_atom_site_type_symbol
_atom_site_fract_x
_atom_site_fract_y
_atom_site_fract_z
Zn1	Zn	2.022398	-0.610640	0.604928
Zn2	Zn	2.355731	-0.277306	0.938261
Zn3	Zn	2.689064	0.056027	1.271594
Zn4	Zn	2.024746	-0.836712	0.411112
Zn5	Zn	2.358079	-0.503379	0.744446
Zn6	Zn	2.691413	-0.170045	1.077779
Zn7	Zn	1.796329	-0.608268	0.411136
Zn8	Zn	2.129662	-0.274934	0.744470
Zn9	Zn	2.462996	0.058399	1.077803
Zn10	Zn	1.828531	-0.804437	0.634665
Zn11	Zn	2.161864	-0.471104	0.967998
Zn12	Zn	2.495197	-0.137771	1.301331
O13	O	1.918001	-0.715014	0.515460
O14	O	2.251334	-0.381681	0.848793
O15	O	2.584667	-0.048347	1.182127
O16	O	2.199437	-0.655129	0.566762
O17	O	2.532770	-0.321795	0.900096
O18	O	2.866103	0.011538	1.233429
O19	O	1.981952	-0.818923	0.236456
O20	O	2.315285	-0.485589	0.569789
O21	O	2.648619	-0.152256	0.903122
O22	O	1.811858	-0.431873	0.424408
O23	O	2.145192	-0.098539	0.757742
O24	O	2.478525	0.234794	1.091075
O25	O	2.201162	-0.821223	0.424367
O26	O	2.534495	-0.487890	0.757700
O27	O	2.867828	-0.154556	1.091034
O28	O	1.977950	-0.433615	0.566786
O29	O	2.311283	-0.100282	0.900119
O30	O	2.644617	0.233051	1.233452
O31	O	1.814135	-0.651085	0.236473
O32	O	2.147469	-0.317752	0.569807
O33	O	2.480802	0.015581	0.903140
O34	O	1.623873	-0.619790	0.453243
O35	O	1.957207	-0.286457	0.786576
O36	O	2.290540	0.046877	1.119910
O37	O	1.866741	-0.766215	0.805380
O38	O	2.200075	-0.432882	1.138713
O39	O	2.533408	-0.099549	1.472046
O40	O	1.647532	-0.763915	0.617468
O41	O	1.980865	-0.430582	0.950801
O42	O	2.314198	-0.097248	1.284135
O43	O	2.009175	-0.623833	0.783532
O44	O	2.342508	-0.290500	1.116865
O45	O	2.675841	0.042833	1.450199
O46	O	2.013177	-1.009140	0.453202
O47	O	2.346510	-0.675807	0.786535
O48	O	2.679843	-0.342474	1.119869
O49	O	1.869018	-0.985428	0.617445
O50	O	2.202352	-0.652095	0.950778
O51	O	2.535685	-0.318762	1.284111
C52	C	1.589879	-0.688094	0.538586
C53	C	1.923212	-0.354760	0.871919
C54	C	2.256546	-0.021427	1.205252
C55	C	1.449512	-0.676605	0.548511
C56	C	1.782845	-0.343272	0.881844
C57	C	2.116179	-0.009939	1.215177
C58	C	1.944883	-1.043104	0.538572
C59	C	2.278216	-0.709771	0.871906
C60	C	2.611549	-0.376437	1.205239
C61	C	1.956502	-1.183469	0.548493
C62	C	2.289835	-0.850135	0.881827
C63	C	2.623168	-0.516802	1.215160
C64	C	2.247404	-0.742041	0.492245
C65	C	2.580737	-0.408707	0.825578
C66	C	2.914070	-0.075374	1.158912
C67	C	2.387776	-0.753558	0.482352
C68	C	2.721109	-0.420224	0.815685
C69	C	3.054442	-0.086891	1.149019
C70	C	1.941288	-0.691689	0.841009
C71	C	2.274621	-0.358355	1.174343
C72	C	2.607955	-0.025022	1.507676
C73	C	1.951212	-0.681749	0.979739
C74	C	2.284545	-0.348415	1.313072
C75	C	2.617878	-0.015082	1.646406
C76	C	1.891050	-0.385644	0.492283
C77	C	2.224384	-0.052311	0.825616
C78	C	2.557717	0.281023	1.158949
C79	C	1.879565	-0.245286	0.482406
C80	C	2.212899	0.088047	0.815739
C81	C	2.546232	0.421381	1.149072
C82	C	1.894869	-0.738164	0.191166
C83	C	2.228203	-0.404830	0.524499
C84	C	2.561536	-0.071497	0.857833
C85	C	1.885161	-0.747768	0.052395
C86	C	2.218495	-0.414435	0.385728
C87	C	2.551828	-0.081101	0.719061
H88	H	1.442307	-0.828232	0.418127
H89	H	1.775640	-0.494899	0.751460
H90	H	2.108974	-0.161565	1.084794
Br91	Br	1.778261	-0.854663	0.979183
Br92	Br	2.111594	-0.521330	1.312516
Br93	Br	2.444928	-0.187997	1.645850
H94	H	2.031261	-1.237928	0.612653
H95	H	2.364595	-0.904595	0.945986
H96	H	2.697928	-0.571262	1.279320
Br97	Br	1.754967	-1.154519	0.375440
Br98	Br	2.088300	-0.821186	0.708773
Br99	Br	2.421633	-0.487853	1.042107
H100	H	1.394976	-0.601936	0.612752
H101	H	1.728309	-0.268603	0.946085
H102	H	2.061643	0.064730	1.279419
H103	H	2.015362	-0.617624	1.023673
H104	H	2.348695	-0.284291	1.357007
H105	H	2.682029	0.049043	1.690340
