data_functionalizedCrystal
_audit_creation_method	'MofGen! by Chris Wilmer'
_symmetry_space_group_name_H-M	'P1'
_symmetry_Int_Tables_number	1
_symmetry_cell_setting	triclinic
loop_
_symmetry_equiv_pos_as_xyz
  x,y,z
_cell_length_a	18.050591
_cell_length_b	18.050590
_cell_length_c	12.759393
_cell_angle_alpha	89.964247
_cell_angle_beta	89.972302
_cell_angle_gamma	90.014558
loop_
_atom_site_label
_atom_site_type_symbol
_atom_site_fract_x
_atom_site_fract_y
_atom_site_fract_z
Zn1	Zn	1.135392	-0.295695	-0.594209
Zn2	Zn	1.468725	0.037639	-0.260875
Zn3	Zn	1.802059	0.370972	0.072458
Zn4	Zn	1.135309	-0.419905	-0.418516
Zn5	Zn	1.468642	-0.086572	-0.085183
Zn6	Zn	1.801976	0.246762	0.248151
Zn7	Zn	1.011197	-0.295725	-0.418520
Zn8	Zn	1.344530	0.037609	-0.085187
Zn9	Zn	1.677863	0.370942	0.248147
Zn10	Zn	1.011180	-0.419839	-0.594129
Zn11	Zn	1.344514	-0.086505	-0.260796
Zn12	Zn	1.677847	0.246828	0.072537
O13	O	1.073270	-0.357791	-0.506343
O14	O	1.406603	-0.024457	-0.173010
O15	O	1.739936	0.308876	0.160323
O16	O	1.239306	-0.312187	-0.570934
O17	O	1.572639	0.021147	-0.237601
O18	O	1.905972	0.354480	0.095732
O19	O	1.118817	-0.403472	-0.271495
O20	O	1.452151	-0.070139	0.061838
O21	O	1.785484	0.263194	0.395171
O22	O	1.027713	-0.191796	-0.441860
O23	O	1.361046	0.141537	-0.108527
O24	O	1.694380	0.474871	0.224806
O25	O	1.239245	-0.403443	-0.441854
O26	O	1.572578	-0.070110	-0.108520
O27	O	1.905911	0.263223	0.224813
O28	O	1.118959	-0.191774	-0.570938
O29	O	1.452292	0.141559	-0.237605
O30	O	1.785626	0.474893	0.095729
O31	O	1.027633	-0.312238	-0.271498
O32	O	1.360966	0.021096	0.061835
O33	O	1.694299	0.354429	0.395168
O34	O	0.907270	-0.312173	-0.441783
O35	O	1.240603	0.021160	-0.108450
O36	O	1.573937	0.354493	0.224883
O37	O	1.027685	-0.403331	-0.741161
O38	O	1.361018	-0.069997	-0.407828
O39	O	1.694352	0.263336	-0.074494
O40	O	0.907258	-0.403360	-0.570803
O41	O	1.240591	-0.070026	-0.237469
O42	O	1.573925	0.263307	0.095864
O43	O	1.118943	-0.312122	-0.741219
O44	O	1.452276	0.021211	-0.407886
O45	O	1.785610	0.354544	-0.074553
O46	O	1.118802	-0.523821	-0.441777
O47	O	1.452135	-0.190487	-0.108443
O48	O	1.785468	0.142846	0.224890
O49	O	1.027605	-0.523772	-0.570799
O50	O	1.360938	-0.190439	-0.237465
O51	O	1.694271	0.142895	0.095868
C52	C	0.880317	-0.357763	-0.506285
C53	C	1.213651	-0.024430	-0.172952
C54	C	1.546984	0.308904	0.160381
C55	C	0.797772	-0.357769	-0.506285
C56	C	1.131105	-0.024436	-0.172952
C57	C	1.464438	0.308898	0.160381
C58	C	1.073212	-0.550743	-0.506302
C59	C	1.406546	-0.217410	-0.172968
C60	C	1.739879	0.115924	0.160365
C61	C	1.073256	-0.633289	-0.506319
C62	C	1.406589	-0.299955	-0.172985
C63	C	1.739923	0.033378	0.160348
C64	C	1.122952	-0.832739	-0.436254
C65	C	1.456285	-0.499405	-0.102921
C66	C	1.789619	-0.166072	0.230412
C67	C	1.141096	-0.882064	-0.532145
C68	C	1.474429	-0.548731	-0.198812
C69	C	1.807762	-0.215397	0.134522
C70	C	1.073298	-0.784419	-0.506361
C71	C	1.406631	-0.451086	-0.173027
C72	C	1.739965	-0.117752	0.160306
C73	C	1.055230	-0.882175	-0.410513
C74	C	1.388564	-0.548842	-0.077180
C75	C	1.721897	-0.215509	0.256153
C76	C	1.073340	-0.930404	-0.506393
C77	C	1.406674	-0.597071	-0.173059
C78	C	1.740007	-0.263737	0.160274
C79	C	1.091476	-0.832657	-0.602302
C80	C	1.424810	-0.499324	-0.268968
C81	C	1.758143	-0.165990	0.064365
C82	C	1.005580	-0.832764	-0.480605
C83	C	1.338913	-0.499431	-0.147272
C84	C	1.672246	-0.166097	0.186061
C85	C	1.023697	-0.882067	-0.576562
C86	C	1.357031	-0.548734	-0.243229
C87	C	1.690364	-0.215400	0.090105
C88	C	1.073276	-0.700321	-0.506341
C89	C	1.406609	-0.366987	-0.173007
C90	C	1.739942	-0.033654	0.160326
C91	C	1.073362	-1.014501	-0.506423
C92	C	1.406696	-0.681167	-0.173090
C93	C	1.740029	-0.347834	0.160243
C94	C	0.598306	-0.308125	-0.436286
C95	C	0.931639	0.025209	-0.102953
C96	C	1.264973	0.358542	0.230380
C97	C	0.548896	-0.375864	-0.410430
C98	C	0.882229	-0.042531	-0.077097
C99	C	1.215562	0.290802	0.256237
C100	C	0.646641	-0.357792	-0.506333
C101	C	0.979975	-0.024458	-0.173000
C102	C	1.313308	0.308875	0.160334
C103	C	0.548970	-0.290075	-0.532186
C104	C	0.882303	0.043258	-0.198853
C105	C	1.215637	0.376591	0.134480
C106	C	0.500656	-0.357807	-0.506377
C107	C	0.833989	-0.024474	-0.173043
C108	C	1.167323	0.308859	0.160290
C109	C	0.598318	-0.425567	-0.480427
C110	C	0.931651	-0.092234	-0.147093
C111	C	1.264985	0.241100	0.186240
C112	C	0.598397	-0.339732	-0.602228
C113	C	0.931730	-0.006399	-0.268894
C114	C	1.265064	0.326934	0.064439
C115	C	0.549009	-0.407519	-0.576408
C116	C	0.882342	-0.074186	-0.243074
C117	C	1.215675	0.259148	0.090259
C118	C	0.730740	-0.357782	-0.506305
C119	C	1.064073	-0.024448	-0.172972
C120	C	1.397406	0.308885	0.160362
C121	C	0.416560	-0.357825	-0.506405
C122	C	0.749893	-0.024492	-0.173072
C123	C	1.083226	0.308842	0.160262
C124	C	1.266975	-0.357819	-0.506402
C125	C	1.600308	-0.024486	-0.173069
C126	C	1.933642	0.308848	0.160264
C127	C	1.349521	-0.357831	-0.506427
C128	C	1.682854	-0.024498	-0.173094
C129	C	2.016188	0.308836	0.160239
C130	C	1.073322	-0.357716	-0.780377
C131	C	1.406655	-0.024382	-0.447044
C132	C	1.739988	0.308951	-0.113710
C133	C	1.073344	-0.357684	-0.897154
C134	C	1.406677	-0.024351	-0.563820
C135	C	1.740010	0.308983	-0.230487
C136	C	1.073347	-0.164085	-0.506408
C137	C	1.406680	0.169248	-0.173075
C138	C	1.740014	0.502582	0.160258
C139	C	1.073380	-0.081539	-0.506436
C140	C	1.406713	0.251794	-0.173103
C141	C	1.740047	0.585127	0.160230
C142	C	1.120868	-0.310187	-0.952048
C143	C	1.454202	0.023146	-0.618714
C144	C	1.787535	0.356479	-0.285381
C145	C	1.120886	-0.310160	-1.061772
C146	C	1.454219	0.023173	-0.728439
C147	C	1.787553	0.356506	-0.395105
C148	C	1.025852	-0.405133	-1.061698
C149	C	1.359186	-0.071800	-0.728365
C150	C	1.692519	0.261534	-0.395031
C151	C	1.025832	-0.405156	-0.951976
C152	C	1.359165	-0.071822	-0.618643
C153	C	1.692498	0.261511	-0.285309
C154	C	1.175737	-0.255358	-0.952091
C155	C	1.509071	0.077976	-0.618758
C156	C	1.842404	0.411309	-0.285425
C157	C	1.175755	-0.255331	-1.061815
C158	C	1.509088	0.078002	-0.728482
C159	C	1.842422	0.411336	-0.395149
C160	C	1.073260	-0.357812	-0.233376
C161	C	1.406594	-0.024478	0.099957
C162	C	1.739927	0.308855	0.433291
C163	C	1.073382	-0.357634	-0.116600
C164	C	1.406716	-0.024301	0.216733
C165	C	1.740049	0.309032	0.550067
H166	H	1.164957	-0.811078	-0.377029
H167	H	1.498290	-0.477745	-0.043696
H168	H	1.831623	-0.144412	0.289638
H169	H	1.106719	-0.810998	-0.683442
H170	H	1.440052	-0.477665	-0.350108
H171	H	1.773385	-0.144332	-0.016775
H172	H	0.987168	-0.443781	-1.106348
H173	H	1.320501	-0.110448	-0.773014
H174	H	1.653835	0.222885	-0.439681
H175	H	0.527154	-0.391151	-0.329352
H176	H	0.860487	-0.057818	0.003981
H177	H	1.193820	0.275516	0.337314
H178	H	1.233272	-0.270739	-1.091605
H179	H	1.566606	0.062594	-0.758272
H180	H	1.899939	0.395927	-0.424939
H181	H	0.987130	-0.443829	-0.907285
H182	H	1.320463	-0.110496	-0.573952
H183	H	1.653797	0.222837	-0.240619
H184	H	0.527254	-0.232809	-0.553999
H185	H	0.860588	0.100524	-0.220666
H186	H	1.193921	0.433857	0.112668
H187	H	0.619904	-0.482858	-0.458488
H188	H	0.953238	-0.149524	-0.125155
H189	H	1.286571	0.183809	0.208179
H190	H	1.230357	-0.275980	-0.918066
H191	H	1.563690	0.057353	-0.584732
H192	H	1.897024	0.390687	-0.251399
H193	H	0.620157	-0.324425	-0.683281
H194	H	0.953490	0.008908	-0.349947
H195	H	1.286823	0.342242	-0.016614
H196	H	1.160354	-0.197843	-0.922338
H197	H	1.493687	0.135491	-0.589004
H198	H	1.827020	0.468824	-0.255671
H199	H	0.619952	-0.266168	-0.376986
H200	H	0.953285	0.067165	-0.043653
H201	H	1.286618	0.400499	0.289681
H202	H	0.527499	-0.449576	-0.635663
H203	H	0.860833	-0.116243	-0.302329
H204	H	1.194166	0.217091	0.031004
H205	H	1.155179	-0.200682	-1.095864
H206	H	1.488513	0.132651	-0.762531
H207	H	1.821846	0.465985	-0.429198
H208	H	1.198382	-0.903721	-0.553950
H209	H	1.531715	-0.570388	-0.220616
H210	H	1.865048	-0.237054	0.112717
H211	H	0.981725	-0.903590	-0.635931
H212	H	1.315058	-0.570256	-0.302597
H213	H	1.648391	-0.236923	0.030736
H214	H	1.039931	-0.903926	-0.329443
H215	H	1.373264	-0.570592	0.003890
H216	H	1.706598	-0.237259	0.337224
H217	H	0.948310	-0.811091	-0.458772
H218	H	1.281643	-0.477758	-0.125439
H219	H	1.614977	-0.144424	0.207895
