data_functionalizedCrystal
_audit_creation_method	'MofGen! by Chris Wilmer'
_symmetry_space_group_name_H-M	'P1'
_symmetry_Int_Tables_number	1
_symmetry_cell_setting	triclinic
loop_
_symmetry_equiv_pos_as_xyz
  x,y,z
_cell_length_a	21.295418
_cell_length_b	29.839131
_cell_length_c	21.295411
_cell_angle_alpha	90.020364
_cell_angle_beta	90.043738
_cell_angle_gamma	90.057233
loop_
_atom_site_label
_atom_site_type_symbol
_atom_site_fract_x
_atom_site_fract_y
_atom_site_fract_z
Zn1	Zn	0.962308	-0.178715	0.356239
Zn2	Zn	0.962190	-0.253830	0.250967
Zn3	Zn	0.857031	-0.178736	0.250949
Zn4	Zn	0.856981	-0.253839	0.356163
O5	O	0.909628	-0.216280	0.303580
O6	O	1.050382	-0.188667	0.342314
O7	O	0.948213	-0.243874	0.162875
O8	O	0.871067	-0.115866	0.264940
O9	O	1.050295	-0.243854	0.264971
O10	O	0.948413	-0.115851	0.342296
O11	O	0.870953	-0.188703	0.162862
O12	O	0.768935	-0.188711	0.264867
O13	O	0.870981	-0.243869	0.444263
O14	O	0.768898	-0.243889	0.342167
O15	O	0.948364	-0.188675	0.444319
O16	O	0.948164	-0.316699	0.264897
O17	O	0.870866	-0.316705	0.342185
C18	C	0.746076	-0.216304	0.303507
C19	C	0.676108	-0.216325	0.303491
C20	C	0.643238	-0.245094	0.343681
C21	C	0.577496	-0.245083	0.343710
C22	C	0.544625	-0.216307	0.303536
C23	C	0.577503	-0.187532	0.263343
C24	C	0.643244	-0.187541	0.263321
N25	N	0.441350	-0.212791	0.248479
N26	N	0.378899	-0.212785	0.248502
C27	C	0.346551	-0.216279	0.303603
N28	N	0.379013	-0.219787	0.358681
N29	N	0.441470	-0.219795	0.358657
C30	C	0.473340	-0.216294	0.303557
C31	C	0.242396	-0.245037	0.343827
C32	C	0.176652	-0.245023	0.343857
C33	C	0.176660	-0.187475	0.263485
C34	C	0.242403	-0.187487	0.263461
C35	C	0.275266	-0.216271	0.303632
C36	C	0.909514	-0.333003	0.303548
C37	C	0.909523	-0.382937	0.303556
C38	C	0.949949	-0.692564	0.263395
C39	C	0.950027	-0.880238	0.263419
O40	O	0.984309	-0.904489	0.229249
N41	N	0.909758	-0.903722	0.303627
C42	C	0.869470	-0.880286	0.343835
O43	O	0.835225	-0.904567	0.378039
C44	C	0.869396	-0.692614	0.343813
C45	C	0.909663	-0.669131	0.303598
C46	C	0.990214	-0.669082	0.223184
C47	C	0.990192	-0.622167	0.223176
C48	C	0.949905	-0.598734	0.263379
C49	C	0.909641	-0.622216	0.303590
C50	C	0.829111	-0.669178	0.384023
C51	C	0.829097	-0.622257	0.384015
C52	C	0.869364	-0.598775	0.343800
C53	C	0.869332	-0.551867	0.343785
N54	N	0.909601	-0.528383	0.303577
C55	C	0.949887	-0.551816	0.263374
C56	C	0.869511	-0.978816	0.343842
C57	C	0.869528	-1.025734	0.343847
C58	C	0.950087	-1.025683	0.263432
C59	C	0.950065	-0.978764	0.263425
C60	C	0.909780	-0.955332	0.303634
C61	C	0.949837	-0.453290	0.263359
C62	C	0.949810	-0.406370	0.263353
C63	C	0.869254	-0.406426	0.343770
C64	C	0.869279	-0.453341	0.343774
C65	C	0.909576	-0.476772	0.303567
O66	O	0.835073	-0.527587	0.377942
O67	O	0.984137	-0.527526	0.229185
C68	C	0.949972	-0.739480	0.263403
C69	C	0.909707	-0.762962	0.303614
C70	C	0.869421	-0.739529	0.343817
C71	C	0.909725	-0.809880	0.303619
C72	C	0.950012	-0.833313	0.263416
C73	C	0.990281	-0.809829	0.223208
C74	C	0.990258	-0.762913	0.223200
C75	C	0.829152	-0.763014	0.384025
C76	C	0.829177	-0.809929	0.384029
C77	C	0.869463	-0.833362	0.343826
C78	C	1.073818	-0.216257	0.303653
C79	C	1.143786	-0.216247	0.303684
C80	C	0.909680	-0.216271	0.467770
C81	C	0.909702	-0.216267	0.537738
C82	C	0.909759	-0.099102	0.303625
C83	C	0.909815	-0.049167	0.303644
C84	C	0.909612	-0.216257	0.140028
C85	C	0.909712	-0.216135	0.070060
C86	C	0.949994	-0.187526	0.570635
C87	C	0.949993	-0.187507	0.636377
C88	C	0.909707	-0.216236	0.669221
C89	C	0.869407	-0.244978	0.636316
C90	C	0.869405	-0.244994	0.570575
N91	N	0.904840	-0.255537	0.772436
N92	N	0.904846	-0.255521	0.834887
C93	C	0.909711	-0.216190	0.867295
N94	N	0.914582	-0.176875	0.834893
N95	N	0.914580	-0.176891	0.772436
C96	C	0.909705	-0.216222	0.740506
C97	C	0.950004	-0.187426	0.971478
C98	C	0.949999	-0.187406	1.037221
C99	C	0.869416	-0.244882	1.037159
C100	C	0.869418	-0.244898	0.971417
C101	C	0.909716	-0.216171	0.938580
H102	H	0.550728	-0.268510	0.376440
C103	C	0.183276	-0.130592	0.184043
C104	C	0.140538	-0.155842	0.219327
H105	H	0.160972	-0.111060	0.156785
H106	H	0.208855	-0.150144	0.159905
H107	H	0.208980	-0.113442	0.211511
H108	H	0.114837	-0.172994	0.191858
H109	H	0.114948	-0.136288	0.243467
H110	H	0.982813	-0.164032	0.944741
H111	H	0.836608	-0.268269	1.063899
C112	C	0.183251	-0.301917	0.423283
C113	C	0.140519	-0.276651	0.388035
H114	H	0.160942	-0.321445	0.450553
H115	H	0.208951	-0.282376	0.447406
H116	H	0.208834	-0.319072	0.395792
H117	H	0.114939	-0.259493	0.415526
H118	H	0.114808	-0.296195	0.363910
H119	H	0.982890	-1.044770	0.230698
C120	C	1.034660	-0.181270	0.496748
C121	C	0.994265	-0.155939	0.534532
H122	H	1.061987	-0.161766	0.474460
H123	H	1.010664	-0.198392	0.467754
H124	H	1.058734	-0.200827	0.522410
H125	H	0.970188	-0.136384	0.508870
H126	H	1.018264	-0.138809	0.563529
H127	H	0.269155	-0.268472	0.376540
C128	C	0.476729	-0.161977	0.227680
C129	C	0.541374	-0.155906	0.219178
H130	H	0.454426	-0.142452	0.200410
H131	H	0.466013	-0.155441	0.269989
H132	H	0.465905	-0.192153	0.218396
H133	H	0.552199	-0.125730	0.228467
H134	H	0.552095	-0.162438	0.176859
C135	C	1.026104	-0.881732	0.187552
C136	C	1.034585	-0.835593	0.179037
H137	H	1.053465	-0.897638	0.160293
H138	H	0.983828	-0.889466	0.178266
H139	H	1.035278	-0.889383	0.229870
H140	H	1.025406	-0.827941	0.136719
H141	H	1.076871	-0.827855	0.188318
H142	H	0.836612	-0.268304	0.944632
C143	C	1.029658	-0.130705	0.629842
C144	C	0.994289	-0.155916	0.672548
H145	H	1.057007	-0.111205	0.652172
H146	H	1.002254	-0.113527	0.604185
H147	H	1.053709	-0.150287	0.604214
H148	H	0.970234	-0.136333	0.698173
H149	H	1.021697	-0.173095	0.698216
C150	C	0.999082	-0.721894	0.138562
C151	C	1.034524	-0.694854	0.179031
H152	H	1.026446	-0.737809	0.111316
H153	H	0.971685	-0.703634	0.114412
H154	H	0.975088	-0.742584	0.162515
H155	H	1.058515	-0.674162	0.155078
H156	H	1.061933	-0.713115	0.203183
H157	H	0.669992	-0.268531	0.376392
H158	H	0.982808	-0.163999	1.064005
H159	H	0.836604	-0.268368	0.663061
H160	H	0.670006	-0.164112	0.230593
C161	C	0.316252	-0.181170	0.178778
C162	C	0.278538	-0.155867	0.219276
H163	H	0.338562	-0.161647	0.151502
H164	H	0.290545	-0.200711	0.154660
H165	H	0.345233	-0.198308	0.202707
H166	H	0.249554	-0.138732	0.195347
H167	H	0.304247	-0.136319	0.243396
C168	C	0.838549	-0.391968	0.450322
C169	C	0.824979	-0.380661	0.387965
H170	H	0.811216	-0.376062	0.477609
H171	H	0.880836	-0.384240	0.459572
H172	H	0.832789	-0.423271	0.456077
H173	H	0.830743	-0.349358	0.382209
H174	H	0.782682	-0.388386	0.378712
H175	H	0.796292	-0.603181	0.416761
C176	C	1.029444	-0.411039	0.183868
C177	C	0.994077	-0.380559	0.219148
H178	H	1.056775	-0.395105	0.156582
H179	H	1.002037	-0.429372	0.159759
H180	H	1.053514	-0.429308	0.211336
H181	H	0.970003	-0.362293	0.191680
H182	H	1.021487	-0.362219	0.243259
H183	H	0.982652	-0.472362	0.230620
H184	H	1.022982	-0.603050	0.190431
C185	C	1.029692	-0.983437	0.183940
C186	C	0.994332	-0.952955	0.219224
H187	H	1.057024	-0.967504	0.156654
H188	H	1.002282	-1.001766	0.159831
H189	H	1.053761	-1.001708	0.211407
H190	H	0.970260	-0.934686	0.191757
H191	H	1.021746	-0.934617	0.243334
C192	C	0.789876	-0.983590	0.423321
C193	C	0.825217	-0.953063	0.388037
H194	H	0.762527	-0.967692	0.450599
H195	H	0.817299	-1.001855	0.447437
H196	H	0.765827	-1.001922	0.395853
H197	H	0.849269	-0.934733	0.415505
H198	H	0.797791	-0.934791	0.363920
C199	C	0.784617	-0.506183	0.352427
C200	C	0.825011	-0.479154	0.387974
H201	H	0.757288	-0.522113	0.379719
H202	H	0.808614	-0.526855	0.328495
H203	H	0.760545	-0.487909	0.324966
H204	H	0.849086	-0.497428	0.415432
H205	H	0.801011	-0.458480	0.411916
H206	H	0.836591	-0.268397	0.543791
C207	C	0.860757	-1.078475	0.428519
C208	C	0.825261	-1.051544	0.388048
H209	H	0.833428	-1.094409	0.455806
H210	H	0.888161	-1.060139	0.452625
H211	H	0.884747	-1.099148	0.404570
H212	H	0.801275	-1.030869	0.411996
H213	H	0.797847	-1.069882	0.363939
H214	H	0.796318	-0.688289	0.416767
H215	H	0.796381	-0.829044	0.416777
C216	C	0.820325	-0.710238	0.468690
C217	C	0.784862	-0.737262	0.428218
H218	H	0.792977	-0.694344	0.495975
H219	H	0.844293	-0.689534	0.444746
H220	H	0.847748	-0.728510	0.492804
H221	H	0.757442	-0.718989	0.404101
H222	H	0.760883	-0.757968	0.452165
H223	H	1.023048	-0.743797	0.190453
