data_functionalizedCrystal
_audit_creation_method	'MofGen! by Chris Wilmer'
_symmetry_space_group_name_H-M	'P1'
_symmetry_Int_Tables_number	1
_symmetry_cell_setting	triclinic
loop_
_symmetry_equiv_pos_as_xyz
  x,y,z
_cell_length_a	14.519709
_cell_length_b	10.654541
_cell_length_c	12.996460
_cell_angle_alpha	90.002542
_cell_angle_beta	89.999398
_cell_angle_gamma	84.082036
loop_
_atom_site_label
_atom_site_type_symbol
_atom_site_fract_x
_atom_site_fract_y
_atom_site_fract_z
O1	O	1.224723	0.164615	-0.085426
O2	O	1.724723	0.664615	0.414574
O3	O	0.956346	0.184001	-0.085457
O4	O	1.456346	0.684001	0.414543
O5	O	1.096706	-0.008491	-0.085441
O6	O	1.596706	0.491509	0.414559
O7	O	1.084363	0.357107	-0.085442
O8	O	1.584363	0.857107	0.414558
O9	O	1.096688	-0.008480	0.085692
O10	O	1.596688	0.491520	0.585692
O11	O	0.956328	0.184012	0.085677
O12	O	1.456328	0.684012	0.585677
O13	O	1.224705	0.164626	0.085708
O14	O	1.724705	0.664626	0.585708
Cu15	Cu	1.090515	0.174320	0.101318
Cu16	Cu	1.590515	0.674320	0.601318
Cu17	Cu	1.090536	0.174307	-0.101067
Cu18	Cu	1.590536	0.674307	0.398933
O19	O	1.084345	0.357118	0.085692
O20	O	1.584345	0.857118	0.585692
C21	C	0.921973	0.183103	0.000106
C22	C	1.421973	0.683103	0.500106
C23	C	0.819578	0.180396	0.000094
C24	C	1.319578	0.680396	0.500094
C25	C	1.095791	-0.055275	0.000123
C26	C	1.595791	0.444725	0.500123
C27	C	1.093081	-0.194692	0.000116
C28	C	1.593081	0.305308	0.500116
N29	N	1.090506	0.174329	0.243665
N30	N	1.590506	0.674329	0.743665
C31	C	0.444630	0.170429	0.000141
C32	C	0.944630	0.670429	0.500141
C33	C	0.548952	0.173197	0.000128
C34	C	1.048952	0.673197	0.500128
C35	C	0.632101	0.175412	0.000116
C36	C	1.132101	0.675412	0.500116
C37	C	0.736429	0.178181	0.000105
C38	C	1.236429	0.678181	0.500105
C39	C	1.259078	0.165524	0.000142
C40	C	1.759078	0.665524	0.500142
C41	C	1.361474	0.168231	0.000148
C42	C	1.861474	0.668231	0.500148
C43	C	1.085260	0.403902	0.000125
C44	C	1.585260	0.903902	0.500125
C45	C	1.087970	0.543319	0.000126
C46	C	1.587970	1.043319	0.500126
C47	C	0.920132	0.572904	0.000119
C48	C	1.420132	1.072904	0.500119
C49	C	0.837489	0.653193	0.000119
C50	C	1.337489	1.153193	0.500119
C51	C	0.840042	0.784186	0.000120
C52	C	1.340042	1.284186	0.500120
C53	C	0.925245	0.834892	0.000117
C54	C	1.425245	1.334892	0.500117
C55	C	1.007887	0.754603	0.000116
C56	C	1.507887	1.254603	0.500116
C57	C	1.005326	0.623609	0.000119
C58	C	1.505326	1.123609	0.500119
C59	C	1.175723	0.725019	0.000115
C60	C	1.675723	1.225019	0.500115
C61	C	1.173173	0.594025	0.000122
C62	C	1.673173	1.094025	0.500122
C63	C	1.260927	0.775725	0.000112
C64	C	1.760927	1.275725	0.500112
C65	C	1.343571	0.695436	0.000119
C66	C	1.843571	1.195436	0.500119
C67	C	1.341015	0.564435	0.000120
C68	C	1.841015	1.064435	0.500120
C69	C	1.255815	0.513736	0.000122
C70	C	1.755815	1.013736	0.500122
N71	N	1.090552	0.174289	-0.243415
N72	N	1.590552	0.674289	0.256585
C73	C	1.090511	0.174332	0.336771
C74	C	1.590511	0.674332	0.836771
C75	C	1.090519	0.174323	0.453576
C76	C	1.590519	0.674323	0.953576
C77	C	1.090531	0.174310	0.546675
C78	C	1.590531	0.674310	1.046675
C79	C	1.090540	0.174302	0.663487
C80	C	1.590540	0.674302	1.163487
H81	H	0.768118	0.611893	0.000119
H82	H	1.268118	1.111893	0.500119
H83	H	0.918045	0.466244	0.000121
H84	H	1.418045	0.966244	0.500121
C85	C	0.750389	0.871512	0.000280
C86	C	1.250389	1.371512	0.500280
C87	C	0.746965	0.947606	0.088311
C88	C	1.246965	1.447606	0.588311
C89	C	0.664397	1.028075	0.088486
C90	C	1.164397	1.528075	0.588486
H91	H	0.699205	0.822715	0.000332
H92	H	1.199205	1.322715	0.500332
H93	H	0.747895	0.923298	-0.059368
H94	H	1.247895	1.423298	0.440632
H95	H	0.749449	0.895825	0.147943
H96	H	1.249449	1.395825	0.647943
H97	H	0.798130	0.996429	0.088278
H98	H	1.298130	1.496429	0.588278
H99	H	0.661904	1.079862	0.028839
H100	H	1.161904	1.579862	0.528839
H101	H	0.613220	0.979268	0.088535
H102	H	1.113220	1.479268	0.588535
H103	H	0.662067	1.079722	0.148209
H104	H	1.162067	1.579722	0.648209
H105	H	0.927316	0.941555	0.000104
H106	H	1.427316	1.441555	0.500104
C107	C	1.435976	0.750731	0.000166
C108	C	1.935976	1.250731	0.500166
C109	C	1.420523	0.882633	0.000182
C110	C	1.920523	1.382633	0.500182
C111	C	1.505625	0.933619	0.000240
C112	C	2.005625	1.433619	0.500240
H113	H	1.470114	0.723317	-0.059493
H114	H	1.970114	1.223317	0.440507
H115	H	1.470046	0.723271	0.059871
H116	H	1.970046	1.223271	0.559871
H117	H	1.386467	0.910083	-0.059518
H118	H	1.886467	1.410083	0.440482
H119	H	1.386399	0.910082	0.059836
H120	H	1.886399	1.410082	0.559836
H121	H	1.539695	0.906158	0.059945
H122	H	2.039695	1.406158	0.559945
H123	H	1.539757	0.906195	-0.059420
H124	H	2.039757	1.406195	0.440580
H125	H	1.495152	1.023118	0.000260
H126	H	1.995152	1.523118	0.500260
C127	C	1.430845	0.477477	0.000169
C128	C	1.930845	0.977477	0.500169
C129	C	1.506000	0.549927	0.000189
C130	C	2.006000	1.049927	0.500189
C131	C	1.588767	0.469871	0.000248
C132	C	2.088767	0.969871	0.500248
H133	H	1.433469	0.425728	-0.059491
H134	H	1.933469	0.925728	0.440509
H135	H	1.433392	0.425785	0.059873
H136	H	1.933392	0.925785	0.559873
H137	H	1.503455	0.601597	-0.059508
H138	H	2.003455	1.101597	0.440492
H139	H	1.503408	0.601674	0.059846
H140	H	2.003408	1.101674	0.559846
H141	H	1.591314	0.418179	0.059951
H142	H	2.091314	0.918179	0.559951
H143	H	1.591382	0.418125	-0.059414
H144	H	2.091382	0.918125	0.440586
H145	H	1.639770	0.519016	0.000271
H146	H	2.139770	1.019016	0.500271
H147	H	1.262999	0.882388	0.000105
H148	H	1.762999	1.382388	0.500105
H149	H	1.253726	0.407076	0.000121
H150	H	1.753726	0.907076	0.500121
