data_functionalizedCrystal
_audit_creation_method	'MofGen! by Chris Wilmer'
_symmetry_space_group_name_H-M	'P1'
_symmetry_Int_Tables_number	1
_symmetry_cell_setting	triclinic
loop_
_symmetry_equiv_pos_as_xyz
  x,y,z
_cell_length_a	18.215407
_cell_length_b	16.625546
_cell_length_c	18.215399
_cell_angle_alpha	89.968415
_cell_angle_beta	89.985195
_cell_angle_gamma	90.016981
loop_
_atom_site_label
_atom_site_type_symbol
_atom_site_fract_x
_atom_site_fract_y
_atom_site_fract_z
Zn1	Zn	1.125062	-0.321109	-0.416070
Zn2	Zn	1.375062	-0.071109	-0.166070
Zn3	Zn	1.625062	0.178891	0.083930
Zn4	Zn	1.875062	0.428891	0.333930
Zn5	Zn	1.124982	-0.455955	-0.293001
Zn6	Zn	1.374982	-0.205955	-0.043001
Zn7	Zn	1.624982	0.044045	0.206999
Zn8	Zn	1.874982	0.294045	0.456999
Zn9	Zn	1.002001	-0.321127	-0.293022
Zn10	Zn	1.252001	-0.071127	-0.043022
Zn11	Zn	1.502001	0.178873	0.206978
Zn12	Zn	1.752001	0.428873	0.456978
Zn13	Zn	1.001966	-0.455890	-0.416030
Zn14	Zn	1.251966	-0.205890	-0.166030
Zn15	Zn	1.501966	0.044110	0.083970
Zn16	Zn	1.751966	0.294110	0.333970
O17	O	1.063503	-0.388520	-0.354531
O18	O	1.313503	-0.138520	-0.104531
O19	O	1.563503	0.111480	0.145469
O20	O	1.813503	0.361480	0.395469
O21	O	1.228036	-0.339016	-0.399753
O22	O	1.478036	-0.089016	-0.149753
O23	O	1.728036	0.160984	0.100247
O24	O	1.978036	0.410984	0.350247
O25	O	1.108650	-0.438104	-0.190019
O26	O	1.358650	-0.188104	0.059981
O27	O	1.608650	0.061896	0.309981
O28	O	1.858650	0.311896	0.559981
O29	O	1.018374	-0.208292	-0.309369
O30	O	1.268374	0.041708	-0.059369
O31	O	1.518374	0.291708	0.190631
O32	O	1.768374	0.541708	0.440631
O33	O	1.227977	-0.438087	-0.309334
O34	O	1.477977	-0.188087	-0.059334
O35	O	1.727977	0.061913	0.190666
O36	O	1.977977	0.311913	0.440666
O37	O	1.108786	-0.208279	-0.399773
O38	O	1.358786	0.041721	-0.149773
O39	O	1.608786	0.291721	0.100227
O40	O	1.858786	0.541721	0.350227
O41	O	1.018297	-0.339047	-0.190035
O42	O	1.268297	-0.089047	0.059965
O43	O	1.518297	0.160953	0.309965
O44	O	1.768297	0.410953	0.559965
O45	O	0.899013	-0.338984	-0.309331
O46	O	1.149013	-0.088984	-0.059331
O47	O	1.399013	0.161016	0.190669
O48	O	1.649013	0.411016	0.440669
O49	O	1.018314	-0.437977	-0.519020
O50	O	1.268314	-0.187977	-0.269020
O51	O	1.518314	0.062023	-0.019020
O52	O	1.768314	0.312023	0.230980
O53	O	0.898987	-0.437994	-0.399705
O54	O	1.148987	-0.187994	-0.149705
O55	O	1.398987	0.062006	0.100295
O56	O	1.648987	0.312006	0.350295
O57	O	1.108752	-0.338953	-0.519049
O58	O	1.358752	-0.088953	-0.269049
O59	O	1.608752	0.161047	-0.019049
O60	O	1.858752	0.411047	0.230951
O61	O	1.108616	-0.568779	-0.309296
O62	O	1.358616	-0.318779	-0.059296
O63	O	1.608616	-0.068779	0.190704
O64	O	1.858616	0.181221	0.440704
O65	O	1.018236	-0.568731	-0.399685
O66	O	1.268236	-0.318731	-0.149685
O67	O	1.518236	-0.068731	0.100315
O68	O	1.768236	0.181269	0.350315
C69	C	0.872297	-0.388485	-0.354516
C70	C	1.122297	-0.138485	-0.104516
C71	C	1.372297	0.111515	0.145484
C72	C	1.622297	0.361515	0.395484
C73	C	0.790498	-0.388489	-0.354528
C74	C	1.040498	-0.138489	-0.104528
C75	C	1.290498	0.111511	0.145472
C76	C	1.540498	0.361511	0.395472
C77	C	0.525465	-0.337033	-0.401686
C78	C	0.775465	-0.087033	-0.151686
C79	C	1.025465	0.162967	0.098314
C80	C	1.275465	0.412967	0.348314
C81	C	0.602324	-0.337020	-0.401684
C82	C	0.852324	-0.087020	-0.151684
C83	C	1.102324	0.162980	0.098316
C84	C	1.352324	0.412980	0.348316
C85	C	0.602282	-0.440033	-0.307391
C86	C	0.852282	-0.190033	-0.057391
C87	C	1.102282	0.059967	0.192609
C88	C	1.352282	0.309967	0.442609
C89	C	0.525425	-0.440050	-0.307398
C90	C	0.775425	-0.190050	-0.057398
C91	C	1.025425	0.059950	0.192602
C92	C	1.275425	0.309950	0.442602
C93	C	0.487018	-0.388545	-0.354544
C94	C	0.737018	-0.138545	-0.104544
C95	C	0.987018	0.111455	0.145456
C96	C	1.237018	0.361455	0.395456
C97	C	0.640734	-0.388516	-0.354535
C98	C	0.890734	-0.138516	-0.104535
C99	C	1.140734	0.111484	0.145465
C100	C	1.390734	0.361484	0.395465
C101	C	0.724068	-0.388502	-0.354532
C102	C	0.974068	-0.138502	-0.104532
C103	C	1.224068	0.111498	0.145468
C104	C	1.474068	0.361498	0.395468
C105	C	0.403679	-0.388560	-0.354548
C106	C	0.653679	-0.138560	-0.104548
C107	C	0.903679	0.111440	0.145452
C108	C	1.153679	0.361440	0.395452
C109	C	1.063433	-0.598011	-0.354500
C110	C	1.313433	-0.348011	-0.104500
C111	C	1.563433	-0.098011	0.145500
C112	C	1.813433	0.151989	0.395500
C113	C	1.063471	-0.687632	-0.354511
C114	C	1.313471	-0.437632	-0.104511
C115	C	1.563471	-0.187632	0.145489
C116	C	1.813471	0.062368	0.395489
C117	C	1.063599	-1.015808	-0.354588
C118	C	1.313599	-0.765808	-0.104588
C119	C	1.563599	-0.515808	0.145412
C120	C	1.813599	-0.265808	0.395412
C121	C	1.063561	-0.924499	-0.354569
C122	C	1.313561	-0.674499	-0.104569
C123	C	1.563561	-0.424499	0.145431
C124	C	1.813561	-0.174499	0.395431
C125	C	1.063535	-0.851723	-0.354549
C126	C	1.313535	-0.601723	-0.104549
C127	C	1.563535	-0.351723	0.145451
C128	C	1.813535	-0.101723	0.395451
C129	C	1.063498	-0.760409	-0.354531
C130	C	1.313498	-0.510409	-0.104531
C131	C	1.563498	-0.260409	0.145469
C132	C	1.813498	-0.010409	0.395469
C133	C	1.255456	-0.388556	-0.354546
C134	C	1.505456	-0.138556	-0.104546
C135	C	1.755456	0.111444	0.145454
C136	C	2.005456	0.361444	0.395454
C137	C	1.337255	-0.388572	-0.354552
C138	C	1.587255	-0.138572	-0.104552
C139	C	1.837255	0.111428	0.145448
C140	C	2.087255	0.361428	0.395448
C141	C	1.063538	-0.388456	-0.546484
C142	C	1.313538	-0.138456	-0.296484
C143	C	1.563538	0.111544	-0.046484
C144	C	1.813538	0.361544	0.203516
C145	C	1.063553	-0.388428	-0.628283
C146	C	1.313553	-0.138428	-0.378283
C147	C	1.563553	0.111572	-0.128283
C148	C	1.813553	0.361572	0.121717
C149	C	1.063593	-0.178211	-0.354578
C150	C	1.313593	0.071789	-0.104578
C151	C	1.563593	0.321789	0.145422
C152	C	1.813593	0.571789	0.395422
C153	C	1.063631	-0.088590	-0.354598
C154	C	1.313631	0.161410	-0.104598
C155	C	1.563631	0.411410	0.145402
C156	C	1.813631	0.661410	0.395402
C157	C	1.016545	-0.336814	-0.816485
C158	C	1.266545	-0.086814	-0.566485
C159	C	1.516545	0.163186	-0.316485
C160	C	1.766545	0.413186	-0.066485
C161	C	1.016558	-0.336798	-0.893344
C162	C	1.266558	-0.086798	-0.643344
C163	C	1.516558	0.163202	-0.393344
C164	C	1.766558	0.413202	-0.143344
C165	C	1.110648	-0.439946	-0.893318
C166	C	1.360648	-0.189946	-0.643318
C167	C	1.610648	0.060054	-0.393318
C168	C	1.860648	0.310054	-0.143318
C169	C	1.110631	-0.439966	-0.816460
C170	C	1.360631	-0.189966	-0.566460
C171	C	1.610631	0.060034	-0.316460
C172	C	1.860631	0.310034	-0.066460
C173	C	1.063581	-0.388395	-0.778046
C174	C	1.313581	-0.138395	-0.528046
C175	C	1.563581	0.111605	-0.278046
C176	C	1.813581	0.361605	-0.028046
C177	C	1.063611	-0.388359	-0.931762
C178	C	1.313611	-0.138359	-0.681762
C179	C	1.563611	0.111641	-0.431762
C180	C	1.813611	0.361641	-0.181762
C181	C	1.063625	-0.388342	-1.015096
C182	C	1.313625	-0.138342	-0.765096
C183	C	1.563625	0.111658	-0.515096
C184	C	1.813625	0.361658	-0.265096
C185	C	1.063565	-0.388413	-0.694707
C186	C	1.313565	-0.138413	-0.444707
C187	C	1.563565	0.111587	-0.194707
C188	C	1.813565	0.361587	0.055293
C189	C	1.063511	-0.388526	-0.163324
C190	C	1.313511	-0.138526	0.086676
C191	C	1.563511	0.111474	0.336676
C192	C	1.813511	0.361474	0.586676
C193	C	1.063639	-0.388326	-0.081526
C194	C	1.313639	-0.138326	0.168474
C195	C	1.563639	0.111674	0.418474
C196	C	1.813639	0.361674	0.668474
H197	H	0.633624	-0.295075	-0.440073
H198	H	0.883624	-0.045075	-0.190073
H199	H	1.133624	0.204925	0.059927
H200	H	1.383624	0.454925	0.309927
H201	H	0.494120	-0.482001	-0.269008
H202	H	0.744120	-0.232001	-0.019008
H203	H	0.994120	0.017999	0.230992
H204	H	1.244120	0.267999	0.480992
N205	N	1.158712	-0.492600	-0.932575
N206	N	1.408712	-0.242600	-0.682575
N207	N	1.658712	0.007400	-0.432575
N208	N	1.908712	0.257400	-0.182575
N209	N	1.205623	-0.464215	-0.975471
N210	N	1.455623	-0.214215	-0.725471
N211	N	1.705623	0.035785	-0.475471
N212	N	1.955623	0.285785	-0.225471
H213	H	1.239571	-0.501400	-1.003199
H214	H	1.489571	-0.251400	-0.753199
H215	H	1.739571	-0.001400	-0.503199
H216	H	1.989571	0.248600	-0.253199
N217	N	0.968486	-0.284130	-0.777257
N218	N	1.218486	-0.034130	-0.527257
N219	N	1.468486	0.215870	-0.277257
N220	N	1.718486	0.465870	-0.027257
N221	N	0.926495	-0.238077	-0.811591
N222	N	1.176495	0.011923	-0.561591
N223	N	1.426495	0.261923	-0.311591
N224	N	1.676495	0.511923	-0.061591
H225	H	0.892552	-0.200866	-0.783888
H226	H	1.142552	0.049134	-0.533888
H227	H	1.392552	0.299134	-0.283888
H228	H	1.642552	0.549134	-0.033888
N229	N	0.968504	-0.284108	-0.932597
N230	N	1.218504	-0.034108	-0.682597
N231	N	1.468504	0.215892	-0.432597
N232	N	1.718504	0.465892	-0.182597
N233	N	0.926498	-0.238074	-0.898287
N234	N	1.176498	0.011926	-0.648287
N235	N	1.426498	0.261926	-0.398287
N236	N	1.676498	0.511926	-0.148287
H237	H	0.892556	-0.200860	-0.926008
H238	H	1.142556	0.049140	-0.676008
H239	H	1.392556	0.299140	-0.426008
H240	H	1.642556	0.549140	-0.176008
N241	N	1.158673	-0.492652	-0.777176
N242	N	1.408673	-0.242652	-0.527176
N243	N	1.658673	0.007348	-0.277176
N244	N	1.908673	0.257348	-0.027176
N245	N	1.132749	-0.544034	-0.734268
N246	N	1.382749	-0.294034	-0.484268
N247	N	1.632749	-0.044034	-0.234268
N248	N	1.882749	0.205966	0.015732
H249	H	1.166676	-0.581242	-0.706521
H250	H	1.416676	-0.331242	-0.456521
H251	H	1.666676	-0.081242	-0.206521
H252	H	1.916676	0.168758	0.043479
H253	H	0.494197	-0.295095	-0.440076
H254	H	0.744197	-0.045095	-0.190076
H255	H	0.994197	0.204905	0.059924
H256	H	1.244197	0.454905	0.309924
H257	H	0.633562	-0.481965	-0.269004
H258	H	0.883562	-0.231965	-0.019004
H259	H	1.133562	0.018035	0.230996
H260	H	1.383562	0.268035	0.480996
