data_functionalizedCrystal
_audit_creation_method	'MofGen! by Chris Wilmer'
_symmetry_space_group_name_H-M	'P1'
_symmetry_Int_Tables_number	1
_symmetry_cell_setting	triclinic
loop_
_symmetry_equiv_pos_as_xyz
  x,y,z
_cell_length_a	10.723023
_cell_length_b	10.540539
_cell_length_c	9.798715
_cell_angle_alpha	89.999557
_cell_angle_beta	89.996141
_cell_angle_gamma	84.496520
loop_
_atom_site_label
_atom_site_type_symbol
_atom_site_fract_x
_atom_site_fract_y
_atom_site_fract_z
O1	O	1.657277	0.178040	-0.113480
O2	O	1.294133	0.195084	-0.113483
O3	O	1.483990	0.001851	-0.113480
O4	O	1.467420	0.371273	-0.113483
O5	O	1.483974	0.001853	0.113502
O6	O	1.294117	0.195085	0.113499
O7	O	1.657261	0.178042	0.113502
Zn8	Zn	1.475687	0.186564	0.149539
Zn9	Zn	1.475707	0.186562	-0.149520
O10	O	1.467404	0.371274	0.113499
C11	C	1.247625	0.193844	0.000007
C12	C	1.109069	0.190134	0.000006
C13	C	1.047304	0.188479	-0.117578
C14	C	0.904099	0.184644	-0.117582
C15	C	1.482739	-0.045450	0.000009
C16	C	1.479022	-0.186397	0.000001
C17	C	1.336564	-0.369750	-0.000509
C18	C	1.340333	-0.223134	0.000002
C19	C	1.545756	-0.248088	0.129620
C20	C	1.541023	-0.394630	0.129729
C21	C	1.543861	-0.395151	-0.128392
C22	C	1.545139	-0.248170	-0.130106
C23	C	1.703769	0.179281	0.000008
C24	C	1.842326	0.182991	0.000001
C25	C	1.468655	0.418576	0.000007
C26	C	1.472373	0.559522	0.000005
N27	N	1.475682	0.186565	0.353638
C28	C	1.402896	0.112953	0.421448
C29	C	1.402911	0.112950	0.578611
N30	N	1.475712	0.186561	0.646380
H31	H	0.895434	0.184409	0.100674
C32	C	1.037299	0.188217	0.136005
H33	H	1.094618	0.189761	0.209777
H34	H	0.995359	0.112961	0.141079
H35	H	0.977654	0.260767	0.141072
C36	C	1.483241	-0.437738	-0.261114
H37	H	1.527792	-0.409426	-0.337348
H38	H	1.398560	-0.401996	-0.265099
H39	H	1.485985	-0.528078	-0.262780
H40	H	0.850984	0.183218	-0.218250
C41	C	1.675759	-0.459507	0.137700
H42	H	1.733142	-0.396269	0.140869
H43	H	1.692515	-0.511692	0.059545
H44	H	1.684744	-0.510568	0.217636
H45	H	1.491690	-0.422803	0.226621
H46	H	1.287822	-0.180504	-0.092914
H47	H	1.100444	0.189908	-0.218243
C48	C	1.262548	-0.408359	-0.126064
H49	H	1.313800	-0.467965	-0.179294
H50	H	1.238113	-0.334932	-0.179443
H51	H	1.190070	-0.446034	-0.096906
H52	H	1.281995	-0.399928	0.091921
C53	C	1.268900	-0.166680	0.125740
H54	H	1.237473	-0.233368	0.176713
H55	H	1.201136	-0.108189	0.096843
H56	H	1.324040	-0.123671	0.181257
H57	H	1.647605	-0.225786	0.134440
C58	C	1.483107	-0.190529	0.259928
H59	H	1.416291	-0.128918	0.235619
H60	H	1.543046	-0.150987	0.312375
H61	H	1.451302	-0.256183	0.312171
C62	C	1.479275	-0.192834	-0.259650
H63	H	1.411768	-0.132330	-0.234564
H64	H	1.448035	-0.259660	-0.310545
H65	H	1.537392	-0.152343	-0.313749
H66	H	1.538035	0.249582	0.588075
C67	C	1.318690	0.027815	0.342712
H68	H	1.273020	-0.018362	0.405635
H69	H	1.369197	-0.030215	0.286955
H70	H	1.261880	0.079508	0.286987
H71	H	1.644036	-0.442429	-0.129263
C72	C	1.681740	-0.215532	-0.140681
H73	H	1.700323	-0.163580	-0.065546
H74	H	1.692714	-0.170950	-0.223409
H75	H	1.736466	-0.291942	-0.139579
C76	C	1.318723	0.027812	0.657377
H77	H	1.329771	0.038986	0.752675
H78	H	1.340880	-0.058891	0.634023
H79	H	1.233567	0.050836	0.634044
C80	C	1.559882	0.271708	0.432374
H81	H	1.605539	0.317899	0.369451
H82	H	1.616684	0.220031	0.488111
H83	H	1.509359	0.329746	0.488120
