data_functionalizedCrystal
_audit_creation_method	'MofGen! by Chris Wilmer'
_symmetry_space_group_name_H-M	'P1'
_symmetry_Int_Tables_number	1
_symmetry_cell_setting	triclinic
loop_
_symmetry_equiv_pos_as_xyz
  x,y,z
_cell_length_a	13.635800
_cell_length_b	9.514072
_cell_length_c	9.514088
_cell_angle_alpha	83.785444
_cell_angle_beta	61.156455
_cell_angle_gamma	61.156579
loop_
_atom_site_label
_atom_site_type_symbol
_atom_site_fract_x
_atom_site_fract_y
_atom_site_fract_z
V1	V	2.151881	-0.225059	-0.502017
O2	O	2.099169	0.007885	-0.491166
O3	O	2.168847	-0.443436	-0.499829
O4	O	2.168852	-0.222882	-0.720396
O5	O	2.099164	-0.214195	-0.269072
V6	V	2.383026	-0.197044	-0.474004
O7	O	2.305799	-0.286511	-0.563467
O8	O	2.454206	-0.135592	-0.412554
O9	O	2.254456	0.021333	-0.476192
O10	O	2.494435	-0.429988	-0.484855
O11	O	2.494440	-0.207908	-0.706949
O12	O	2.254450	-0.199220	-0.255625
V13	V	2.651881	-0.225059	-0.502017
O14	O	2.599169	0.007885	-0.491166
O15	O	2.668847	-0.443436	-0.499829
O16	O	2.668852	-0.222882	-0.720396
O17	O	2.599164	-0.214195	-0.269072
V18	V	2.883026	-0.197044	-0.474004
O19	O	2.805799	-0.286511	-0.563467
O20	O	2.954206	-0.135592	-0.412554
O21	O	2.754456	0.021333	-0.476192
O22	O	2.994435	-0.429988	-0.484855
O23	O	2.994440	-0.207908	-0.706949
O24	O	2.754450	-0.199220	-0.255625
C25	C	2.100030	-0.496631	-0.492231
C26	C	2.154820	-0.675166	-0.491898
C27	C	2.100036	-0.215291	-0.773584
C28	C	2.154826	-0.214957	-0.952118
C29	C	2.154944	0.074520	-0.483786
C30	C	2.089776	0.253053	-0.484130
C31	C	2.600030	-0.496631	-0.492231
C32	C	2.654820	-0.675166	-0.491898
C33	C	2.154938	-0.206816	-0.202429
C34	C	2.089765	-0.207143	-0.023893
C35	C	2.600036	-0.215291	-0.773584
C36	C	2.654826	-0.214957	-0.952118
C37	C	2.654944	0.074520	-0.483786
C38	C	2.589776	0.253053	-0.484130
C39	C	2.654938	-0.206816	-0.202429
C40	C	2.589765	-0.207143	-0.023893
H41	H	1.992144	-0.671806	-0.477655
Cl42	Cl	2.305560	-0.791177	-0.501871
H43	H	2.492134	-0.671796	-0.477649
Cl44	Cl	2.305552	-0.224895	-1.068123
Cl45	Cl	2.805552	-0.224895	-1.068123
Cl46	Cl	2.805531	-0.791161	-0.501812
H47	H	2.492152	-0.200723	-0.948761
Cl48	Cl	1.939055	-0.197231	-0.907899
