data_functionalizedCrystal
_audit_creation_method	'MofGen! by Chris Wilmer'
_symmetry_space_group_name_H-M	'P1'
_symmetry_Int_Tables_number	1
_symmetry_cell_setting	triclinic
loop_
_symmetry_equiv_pos_as_xyz
  x,y,z
_cell_length_a	6.817900
_cell_length_b	7.190334
_cell_length_c	17.982959
_cell_angle_alpha	88.793641
_cell_angle_beta	102.451857
_cell_angle_gamma	60.611776
loop_
_atom_site_label
_atom_site_type_symbol
_atom_site_fract_x
_atom_site_fract_y
_atom_site_fract_z
V1	V	-4.218170	0.665881	-0.104196
V2	V	-3.718170	1.165881	0.395804
O3	O	-4.207017	0.652289	0.006257
O4	O	-3.707017	1.152289	0.506257
O5	O	-4.163591	0.662208	-0.207805
O6	O	-3.663591	1.162208	0.292195
O7	O	-4.255433	0.955893	-0.102044
O8	O	-3.755433	1.455893	0.397956
O9	O	-4.114539	0.356572	-0.100236
O10	O	-3.614539	0.856572	0.399764
V11	V	-4.691498	0.628778	-0.091049
V12	V	-4.191498	1.128778	0.408951
O13	O	-4.501790	0.747269	-0.133034
O14	O	-4.001790	1.247269	0.366966
O15	O	-4.858075	0.547390	-0.062211
O16	O	-4.358075	1.047390	0.437789
O17	O	-4.522871	0.632451	0.012560
O18	O	-4.022871	1.132451	0.512560
O19	O	-4.820048	0.642370	-0.201502
O20	O	-4.320048	1.142370	0.298498
O21	O	-4.912526	0.938088	-0.095009
O22	O	-4.412526	1.438088	0.404991
O23	O	-4.431029	0.338766	-0.093201
O24	O	-3.931029	0.838766	0.406799
C25	C	-4.004316	0.651931	-0.233080
C26	C	-3.504316	1.151931	0.266920
C27	C	-4.041549	0.650861	-0.317779
C28	C	-3.541549	1.150861	0.182221
C29	C	-4.244110	0.661030	-0.361431
C30	C	-3.744110	1.161030	0.138569
C31	C	-4.279089	0.660038	-0.441015
C32	C	-3.779089	1.160038	0.058985
C33	C	-4.111496	0.648861	-0.476944
C34	C	-3.611496	1.148861	0.023056
C35	C	-3.908922	0.638698	-0.433286
C36	C	-3.408922	1.138698	0.066714
C37	C	-3.873953	0.639706	-0.353704
C38	C	-3.373953	1.139706	0.146296
C39	C	-4.049942	0.634635	-0.754229
C40	C	-3.549942	1.134635	-0.254229
C41	C	-4.084924	0.633622	-0.833816
C42	C	-3.584924	1.133622	-0.333816
C43	C	-4.455077	0.654967	-0.841540
C44	C	-3.955077	1.154967	-0.341540
C45	C	-4.420109	0.655975	-0.761958
C46	C	-3.920109	1.155975	-0.261958
C47	C	-4.217545	0.645823	-0.718308
C48	C	-3.717545	1.145823	-0.218308
C49	C	-4.179621	0.646904	-0.632014
C50	C	-3.679621	1.146904	-0.132014
C51	C	-4.149409	0.647765	-0.563235
C52	C	-3.649409	1.147765	-0.063235
C53	C	-4.121481	1.026552	-0.098168
C54	C	-3.621481	1.526552	0.401832
C55	C	-4.235289	1.268099	-0.097073
C56	C	-3.735289	1.768099	0.402927
C57	C	-4.345486	0.642722	0.037831
C58	C	-3.845486	1.142722	0.537831
C59	C	-4.287495	0.643806	0.122529
C60	C	-3.787495	1.143806	0.622529
H61	H	-3.772474	0.629611	-0.462546
H62	H	-3.272474	1.129611	0.037454
O63	O	-3.655468	0.628738	-0.306624
O64	O	-3.155468	1.128738	0.193376
H65	H	-3.703512	0.774815	-0.278059
H66	H	-3.203512	1.274815	0.221941
H67	H	-4.556578	0.665065	-0.732709
H68	H	-4.056578	1.165065	-0.232709
H69	H	-4.380578	0.670111	-0.332183
H70	H	-3.880578	1.170111	0.167817
O71	O	-4.497549	0.670973	-0.488099
O72	O	-3.997549	1.170973	0.011901
H73	H	-4.608191	0.678877	-0.449743
H74	H	-4.108191	1.178877	0.050257
H75	H	-4.620020	0.663236	-0.877090
H76	H	-4.120020	1.163236	-0.377090
H77	H	-3.948444	0.624534	-0.863067
H78	H	-3.448444	1.124534	-0.363067
H79	H	-3.885000	0.626357	-0.718697
H80	H	-3.385000	1.126357	-0.218697
