data_functionalizedCrystal
_audit_creation_method	'MofGen! by Chris Wilmer'
_symmetry_space_group_name_H-M	'P1'
_symmetry_Int_Tables_number	1
_symmetry_cell_setting	triclinic
loop_
_symmetry_equiv_pos_as_xyz
  x,y,z
_cell_length_a	21.395362
_cell_length_b	19.121063
_cell_length_c	21.395355
_cell_angle_alpha	92.420740
_cell_angle_beta	89.956060
_cell_angle_gamma	92.485681
loop_
_atom_site_label
_atom_site_type_symbol
_atom_site_fract_x
_atom_site_fract_y
_atom_site_fract_z
Zn1	Zn	0.947241	-0.279403	-0.365205
Zn2	Zn	1.197241	-0.029403	-0.115205
Zn3	Zn	1.447241	0.220597	0.134795
Zn4	Zn	1.697241	0.470597	0.384795
Zn5	Zn	0.942680	-0.396839	-0.264891
Zn6	Zn	1.192680	-0.146839	-0.014891
Zn7	Zn	1.442680	0.103161	0.235109
Zn8	Zn	1.692680	0.353161	0.485109
Zn9	Zn	0.842454	-0.279436	-0.260407
Zn10	Zn	1.092454	-0.029436	-0.010407
Zn11	Zn	1.342454	0.220564	0.239593
Zn12	Zn	1.592454	0.470564	0.489593
Zn13	Zn	0.837961	-0.396853	-0.369596
Zn14	Zn	1.087961	-0.146853	-0.119596
Zn15	Zn	1.337961	0.103147	0.130404
Zn16	Zn	1.587961	0.353147	0.380404
O17	O	0.892584	-0.338133	-0.315025
O18	O	1.142584	-0.088133	-0.065025
O19	O	1.392584	0.161867	0.184975
O20	O	1.642584	0.411867	0.434975
O21	O	1.034314	-0.294962	-0.351936
O22	O	1.284314	-0.044962	-0.101936
O23	O	1.534314	0.205038	0.148064
O24	O	1.784314	0.455038	0.398064
O25	O	0.929357	-0.381273	-0.176618
O26	O	1.179357	-0.131273	0.073382
O27	O	1.429357	0.118727	0.323382
O28	O	1.679357	0.368727	0.573382
O29	O	0.860144	-0.181145	-0.270595
O30	O	1.110144	0.068855	-0.020595
O31	O	1.360144	0.318855	0.229405
O32	O	1.610144	0.568855	0.479405
O33	O	1.030964	-0.381241	-0.278236
O34	O	1.280964	-0.131241	-0.028236
O35	O	1.530964	0.118759	0.221764
O36	O	1.780964	0.368759	0.471764
O37	O	0.937130	-0.181121	-0.347589
O38	O	1.187130	0.068879	-0.097589
O39	O	1.437130	0.318879	0.152411
O40	O	1.687130	0.568879	0.402411
O41	O	0.855721	-0.295017	-0.173324
O42	O	1.105721	-0.045017	0.076676
O43	O	1.355721	0.204983	0.326676
O44	O	1.605721	0.454983	0.576676
O45	O	0.754180	-0.295031	-0.274853
O46	O	1.004180	-0.045031	-0.024853
O47	O	1.254180	0.204969	0.225147
O48	O	1.504180	0.454969	0.475147
O49	O	0.852486	-0.381266	-0.456691
O50	O	1.102486	-0.131266	-0.206691
O51	O	1.352486	0.118734	0.043309
O52	O	1.602486	0.368734	0.293309
O53	O	0.750879	-0.381297	-0.355073
O54	O	1.000879	-0.131297	-0.105073
O55	O	1.250879	0.118703	0.144927
O56	O	1.500879	0.368703	0.394927
O57	O	0.932773	-0.294976	-0.453465
O58	O	1.182773	-0.044976	-0.203465
O59	O	1.432773	0.205024	0.046535
O60	O	1.682773	0.455024	0.296535
O61	O	0.925000	-0.495127	-0.282494
O62	O	1.175000	-0.245127	-0.032494
O63	O	1.425000	0.004873	0.217506
O64	O	1.675000	0.254873	0.467506
O65	O	0.848063	-0.495138	-0.359420
O66	O	1.098063	-0.245138	-0.109420
O67	O	1.348063	0.004862	0.140580
O68	O	1.598063	0.254862	0.390580
C69	C	0.729795	-0.338170	-0.314953
C70	C	0.979795	-0.088170	-0.064953
C71	C	1.229795	0.161830	0.185047
C72	C	1.479795	0.411830	0.435047
C73	C	0.660152	-0.338203	-0.314938
C74	C	0.910152	-0.088203	-0.064938
C75	C	1.160152	0.161797	0.185062
C76	C	1.410152	0.411797	0.435062
C77	C	0.885566	-0.520617	-0.321934
C78	C	1.135566	-0.270617	-0.071934
C79	C	1.385566	-0.020617	0.178066
C80	C	1.635566	0.229383	0.428066
C81	C	0.882621	-0.598685	-0.324911
C82	C	1.132621	-0.348685	-0.074911
C83	C	1.382621	-0.098685	0.175089
C84	C	1.632621	0.151315	0.425089
C85	C	0.625735	-0.383181	-0.356651
C86	C	0.875735	-0.133181	-0.106651
C87	C	1.125735	0.116819	0.143349
C88	C	1.375735	0.366819	0.393349
C89	C	0.560300	-0.383164	-0.356679
C90	C	0.810300	-0.133164	-0.106679
C91	C	1.060300	0.116836	0.143321
C92	C	1.310300	0.366836	0.393321
C93	C	0.529285	-0.338176	-0.314982
C94	C	0.779285	-0.088176	-0.064982
C95	C	1.029285	0.161824	0.185018
C96	C	1.279285	0.411824	0.435018
C97	C	0.563711	-0.293189	-0.273266
C98	C	0.813711	-0.043189	-0.023266
C99	C	1.063711	0.206811	0.226734
C100	C	1.313711	0.456811	0.476734
C101	C	0.629145	-0.293202	-0.273244
C102	C	0.879145	-0.043202	-0.023244
C103	C	1.129145	0.206798	0.226756
C104	C	1.379145	0.456798	0.476756
C105	C	0.425776	-0.332517	-0.258362
C106	C	0.675776	-0.082517	-0.008362
C107	C	0.925776	0.167483	0.241638
C108	C	1.175776	0.417483	0.491638
C109	C	0.360343	-0.332509	-0.258383
C110	C	0.610343	-0.082509	-0.008383
C111	C	0.860343	0.167491	0.241617
C112	C	1.110343	0.417491	0.491617
C113	C	0.327466	-0.338130	-0.315049
C114	C	0.577466	-0.088130	-0.065049
C115	C	0.827466	0.161870	0.184951
C116	C	1.077466	0.411870	0.434951
C117	C	0.360030	-0.343774	-0.371698
C118	C	0.610030	-0.093774	-0.121698
C119	C	0.860030	0.156226	0.128302
C120	C	1.110030	0.406226	0.378302
C121	C	0.425463	-0.343788	-0.371676
C122	C	0.675463	-0.093788	-0.121676
C123	C	0.925463	0.156212	0.128324
C124	C	1.175463	0.406212	0.378324
C125	C	0.458334	-0.338156	-0.315001
C126	C	0.708334	-0.088156	-0.065001
C127	C	0.958334	0.161844	0.184999
C128	C	1.208334	0.411844	0.434999
C129	C	0.222096	-0.383092	-0.356795
C130	C	0.472096	-0.133092	-0.106795
C131	C	0.722096	0.116908	0.143205
C132	C	0.972096	0.366908	0.393205
C133	C	0.156661	-0.383070	-0.356824
C134	C	0.406661	-0.133070	-0.106824
C135	C	0.656661	0.116930	0.143176
C136	C	0.906661	0.366930	0.393176
C137	C	0.160073	-0.293098	-0.273405
C138	C	0.410073	-0.043098	-0.023405
C139	C	0.660073	0.206902	0.226595
C140	C	0.910073	0.456902	0.476595
C141	C	0.225508	-0.293117	-0.273383
C142	C	0.475508	-0.043117	-0.023383
C143	C	0.725508	0.206883	0.226617
C144	C	0.975508	0.456883	0.476617
C145	C	0.256516	-0.338117	-0.315077
C146	C	0.506516	-0.088117	-0.065077
C147	C	0.756516	0.161883	0.184923
C148	C	1.006516	0.411883	0.434923
C149	C	0.921325	-0.635332	-0.286291
C150	C	1.171325	-0.385332	-0.036291
C151	C	1.421325	-0.135332	0.213709
C152	C	1.671325	0.114668	0.463709
C153	C	0.918559	-0.708685	-0.289094
C154	C	1.168559	-0.458685	-0.039094
C155	C	1.418559	-0.208685	0.210906
C156	C	1.668559	0.041315	0.460906
C157	C	0.877085	-0.745389	-0.330515
C158	C	1.127085	-0.495389	-0.080515
C159	C	1.377085	-0.245389	0.169485
C160	C	1.627085	0.004611	0.419485
C161	C	0.838379	-0.708736	-0.369139
C162	C	1.088379	-0.458736	-0.119139
C163	C	1.338379	-0.208736	0.130861
C164	C	1.588379	0.041264	0.380861
C165	C	0.841149	-0.635385	-0.366338
C166	C	1.091149	-0.385385	-0.116338
C167	C	1.341149	-0.135385	0.133662
C168	C	1.591149	0.114615	0.383662
C169	C	0.866720	-0.966864	-0.340976
C170	C	1.116720	-0.716864	-0.090976
C171	C	1.366720	-0.466864	0.159024
C172	C	1.616720	-0.216864	0.409024
C173	C	0.863952	-1.040221	-0.343772
C174	C	1.113952	-0.790221	-0.093772
C175	C	1.363952	-0.540221	0.156228
C176	C	1.613952	-0.290221	0.406228
C177	C	0.944133	-1.040164	-0.263728
C178	C	1.194133	-0.790164	-0.013728
C179	C	1.444133	-0.540164	0.236272
C180	C	1.694133	-0.290164	0.486272
C181	C	0.946896	-0.966812	-0.260928
C182	C	1.196896	-0.716812	-0.010928
C183	C	1.446896	-0.466812	0.239072
C184	C	1.696896	-0.216812	0.489072
C185	C	0.908193	-0.930165	-0.299555
C186	C	1.158193	-0.680165	-0.049555
C187	C	1.408193	-0.430165	0.200445
C188	C	1.658193	-0.180165	0.450445
C189	C	0.874256	-0.820367	-0.333380
C190	C	1.124256	-0.570367	-0.083380
C191	C	1.374256	-0.320367	0.166620
C192	C	1.624256	-0.070367	0.416620
C193	C	0.911026	-0.855188	-0.296692
C194	C	1.161026	-0.605188	-0.046692
C195	C	1.411026	-0.355188	0.203308
C196	C	1.661026	-0.105188	0.453308
C197	C	1.056009	-0.338096	-0.315097
C198	C	1.306009	-0.088096	-0.065097
C199	C	1.556009	0.161904	0.184903
C200	C	1.806009	0.411904	0.434903
C201	C	1.125651	-0.338080	-0.315127
C202	C	1.375651	-0.088080	-0.065127
C203	C	1.625651	0.161920	0.184873
C204	C	1.875651	0.411920	0.434873
C205	C	0.892637	-0.338119	-0.478447
C206	C	1.142637	-0.088119	-0.228447
C207	C	1.392637	0.161881	0.021553
C208	C	1.642637	0.411881	0.271553
C209	C	0.892659	-0.338112	-0.548089
C210	C	1.142659	-0.088112	-0.298089
C211	C	1.392659	0.161888	-0.048089
C212	C	1.642659	0.411888	0.201911
C213	C	0.899647	-0.154936	-0.308102
C214	C	1.149647	0.095064	-0.058102
C215	C	1.399647	0.345064	0.191898
C216	C	1.649647	0.595064	0.441898
C217	C	0.902656	-0.076868	-0.305152
C218	C	1.152656	0.173132	-0.055152
C219	C	1.402656	0.423132	0.194848
C220	C	1.652656	0.673132	0.444848
C221	C	0.934463	-0.293179	-0.579123
C222	C	1.184463	-0.043179	-0.329123
C223	C	1.434463	0.206821	-0.079123
C224	C	1.684463	0.456821	0.170877
C225	C	0.934463	-0.293149	-0.644557
C226	C	1.184463	-0.043149	-0.394557
C227	C	1.434463	0.206851	-0.144557
C228	C	1.684463	0.456851	0.105443
C229	C	0.892666	-0.338065	-0.678955
C230	C	1.142666	-0.088065	-0.428955
C231	C	1.392666	0.161935	-0.178955
C232	C	1.642666	0.411935	0.071045
C233	C	0.850854	-0.383001	-0.647913
C234	C	1.100854	-0.133001	-0.397913
C235	C	1.350854	0.116999	-0.147913
C236	C	1.600854	0.366999	0.102087
C237	C	0.850851	-0.383025	-0.582480
C238	C	1.100851	-0.133025	-0.332480
C239	C	1.350851	0.116975	-0.082480
C240	C	1.600851	0.366975	0.167520
C241	C	0.885286	-0.401308	-0.785023
C242	C	1.135286	-0.151308	-0.535023
C243	C	1.385286	0.098692	-0.285023
C244	C	1.635286	0.348692	-0.035023
C245	C	0.885294	-0.401285	-0.850455
C246	C	1.135294	-0.151285	-0.600455
C247	C	1.385294	0.098715	-0.350455
C248	C	1.635294	0.348715	-0.100455
C249	C	0.892672	-0.337990	-0.880773
C250	C	1.142672	-0.087990	-0.630773
C251	C	1.392672	0.162010	-0.380773
C252	C	1.642672	0.412010	-0.130773
C253	C	0.900056	-0.274717	-0.845651
C254	C	1.150056	-0.024717	-0.595651
C255	C	1.400056	0.225283	-0.345651
C256	C	1.650056	0.475283	-0.095651
C257	C	0.900053	-0.274741	-0.780218
C258	C	1.150053	-0.024741	-0.530218
C259	C	1.400053	0.225259	-0.280218
C260	C	1.650053	0.475259	-0.030218
C261	C	0.892664	-0.338043	-0.749907
C262	C	1.142664	-0.088043	-0.499907
C263	C	1.392664	0.161957	-0.249907
C264	C	1.642664	0.411957	0.000093
C265	C	0.934479	-0.293021	-0.982759
C266	C	1.184479	-0.043021	-0.732759
C267	C	1.434479	0.206979	-0.482759
C268	C	1.684479	0.456979	-0.232759
C269	C	0.934475	-0.292989	-1.048194
C270	C	1.184475	-0.042989	-0.798194
C271	C	1.434475	0.207011	-0.548194
C272	C	1.684475	0.457011	-0.298194
C273	C	0.850869	-0.382847	-1.051549
C274	C	1.100869	-0.132847	-0.801549
C275	C	1.350869	0.117153	-0.551549
C276	C	1.600869	0.367153	-0.301549
C277	C	0.850870	-0.382872	-0.986115
C278	C	1.100870	-0.132872	-0.736115
C279	C	1.350870	0.117128	-0.486115
C280	C	1.600870	0.367128	-0.236115
C281	C	0.892678	-0.337960	-0.951723
C282	C	1.142678	-0.087960	-0.701723
C283	C	1.392678	0.162040	-0.451723
C284	C	1.642678	0.412040	-0.201723
C285	C	0.892570	-0.338096	-0.152236
C286	C	1.142570	-0.088096	0.097764
C287	C	1.392570	0.161904	0.347764
C288	C	1.642570	0.411904	0.597764
C289	C	0.892676	-0.337904	-0.082588
C290	C	1.142676	-0.087904	0.167412
C291	C	1.392676	0.162096	0.417412
C292	C	1.642676	0.412096	0.667412
H293	H	0.650977	-0.419823	-0.390603
H294	H	0.900977	-0.169823	-0.140603
H295	H	1.150977	0.080177	0.109397
H296	H	1.400977	0.330177	0.359397
H297	H	0.975644	-1.070010	-0.232282
H298	H	1.225644	-0.820010	0.017718
H299	H	1.475644	-0.570010	0.267718
H300	H	1.725644	-0.320010	0.517718
H301	H	0.955095	-0.605453	-0.252559
H302	H	1.205095	-0.355453	-0.002559
H303	H	1.455095	-0.105453	0.247441
H304	H	1.705095	0.144547	0.497441
N305	N	0.805752	-0.431480	-0.549002
N306	N	1.055752	-0.181480	-0.299002
N307	N	1.305752	0.068520	-0.049002
N308	N	1.555752	0.318520	0.200998
H309	H	0.779268	-0.459926	-0.580719
H310	H	1.029268	-0.209926	-0.330719
H311	H	1.279268	0.040074	-0.080719
H312	H	1.529268	0.290074	0.169281
H313	H	0.829994	-0.463993	-0.523104
H314	H	1.079994	-0.213993	-0.273104
H315	H	1.329994	0.036007	-0.023104
H316	H	1.579994	0.286007	0.226896
N317	N	0.523167	-0.431676	-0.401672
N318	N	0.773167	-0.181676	-0.151672
N319	N	1.023167	0.068324	0.098328
N320	N	1.273167	0.318324	0.348328
H321	H	0.552739	-0.460184	-0.428082
H322	H	0.802739	-0.210184	-0.178082
H323	H	1.052739	0.039816	0.071918
H324	H	1.302739	0.289816	0.321918
H325	H	0.494728	-0.464128	-0.377353
H326	H	0.744728	-0.214128	-0.127353
H327	H	0.994728	0.035872	0.122647
H328	H	1.244728	0.285872	0.372647
H329	H	0.333835	-0.327917	-0.212256
H330	H	0.583835	-0.077917	0.037744
H331	H	0.833835	0.172083	0.287744
H332	H	1.083835	0.422083	0.537744
N333	N	0.530262	-0.244675	-0.228286
N334	N	0.780262	0.005325	0.021714
N335	N	1.030262	0.255325	0.271714
N336	N	1.280262	0.505325	0.521714
H337	H	0.504400	-0.212164	-0.252568
H338	H	0.754400	0.037836	-0.002568
H339	H	1.004400	0.287836	0.247432
H340	H	1.254400	0.537836	0.497432
H341	H	0.502013	-0.273226	-0.200310
H342	H	0.752013	-0.023226	0.049690
H343	H	1.002013	0.226774	0.299690
H344	H	1.252013	0.476774	0.549690
H345	H	0.980668	-0.936929	-0.227201
H346	H	1.230668	-0.686929	0.022799
H347	H	1.480668	-0.436929	0.272799
H348	H	1.730668	-0.186929	0.522799
H349	H	0.968506	-0.256607	-0.551125
H350	H	1.218506	-0.006607	-0.301125
H351	H	1.468506	0.243393	-0.051125
H352	H	1.718506	0.493393	0.198875
H353	H	0.830186	-1.070103	-0.377512
H354	H	1.080186	-0.820103	-0.127512
H355	H	1.330186	-0.570103	0.122488
H356	H	1.580186	-0.320103	0.372488
N357	N	0.793643	-0.748323	-0.413809
N358	N	1.043643	-0.498323	-0.163809
N359	N	1.293643	-0.248323	0.086191
N360	N	1.543643	0.001677	0.336191
H361	H	0.769544	-0.713974	-0.437850
H362	H	1.019544	-0.463974	-0.187850
H363	H	1.269544	-0.213974	0.062150
H364	H	1.519544	0.036026	0.312150
H365	H	0.817983	-0.778711	-0.443997
H366	H	1.067983	-0.528711	-0.193997
H367	H	1.317983	-0.278711	0.056003
H368	H	1.567983	-0.028711	0.306003
H369	H	0.809633	-0.605547	-0.397787
H370	H	1.059633	-0.355547	-0.147787
H371	H	1.309633	-0.105547	0.102213
H372	H	1.559633	0.144453	0.352213
H373	H	0.451974	-0.348381	-0.417801
H374	H	0.701974	-0.098381	-0.167801
H375	H	0.951974	0.151619	0.082199
H376	H	1.201974	0.401619	0.332199
H377	H	0.944797	-0.825302	-0.262970
H378	H	1.194797	-0.575302	-0.012970
H379	H	1.444797	-0.325302	0.237030
H380	H	1.694797	-0.075302	0.487030
N381	N	0.119536	-0.431589	-0.401813
N382	N	0.369536	-0.181589	-0.151813
N383	N	0.619536	0.068411	0.098187
N384	N	0.869536	0.318411	0.348187
H385	H	0.093529	-0.403094	-0.429826
H386	H	0.343529	-0.153094	-0.179826
H387	H	0.593529	0.096906	0.070174
H388	H	0.843529	0.346906	0.320174
H389	H	0.149151	-0.460088	-0.428175
H390	H	0.399151	-0.210088	-0.178175
H391	H	0.649151	0.039912	0.071825
H392	H	0.899151	0.289912	0.321825
H393	H	0.835205	-0.937033	-0.372426
H394	H	1.085205	-0.687033	-0.122426
H395	H	1.335205	-0.437033	0.127574
H396	H	1.585205	-0.187033	0.377574
N397	N	0.960301	-0.748213	-0.247437
N398	N	1.210301	-0.498213	0.002563
N399	N	1.460301	-0.248213	0.252563
N400	N	1.710301	0.001787	0.502563
H401	H	0.988180	-0.778593	-0.274094
H402	H	1.238180	-0.528593	-0.024094
H403	H	1.488180	-0.278593	0.225906
H404	H	1.738180	-0.028593	0.475906
H405	H	0.986951	-0.713786	-0.220777
H406	H	1.236951	-0.463786	0.029223
H407	H	1.486951	-0.213786	0.279223
H408	H	1.736951	0.036214	0.529223
H409	H	0.247344	-0.419730	-0.390749
H410	H	0.497344	-0.169730	-0.140749
H411	H	0.747344	0.080270	0.109251
H412	H	0.997344	0.330270	0.359251
H413	H	0.840486	-0.850260	-0.367103
H414	H	1.090486	-0.600260	-0.117103
H415	H	1.340486	-0.350260	0.132897
H416	H	1.590486	-0.100260	0.382897
H417	H	0.657168	-0.256574	-0.239276
H418	H	0.907168	-0.006574	0.010724
H419	H	1.157168	0.243426	0.260724
H420	H	1.407168	0.493426	0.510724
N421	N	0.126626	-0.244578	-0.228433
N422	N	0.376626	0.005422	0.021567
N423	N	0.626626	0.255422	0.271567
N424	N	0.876626	0.505422	0.521567
H425	H	0.137541	-0.255414	-0.184057
H426	H	0.387541	-0.005414	0.065943
H427	H	0.637541	0.244586	0.315943
H428	H	0.887541	0.494586	0.565943
H429	H	0.139988	-0.194432	-0.236388
H430	H	0.389988	0.055568	0.013612
H431	H	0.639988	0.305568	0.263612
H432	H	0.889988	0.555568	0.513612
N433	N	0.979553	-0.244684	-0.678040
N434	N	1.229553	0.005316	-0.428040
N435	N	1.479553	0.255316	-0.178040
N436	N	1.729553	0.505316	0.071960
H437	H	1.006037	-0.216236	-0.646325
H438	H	1.256037	0.033764	-0.396325
H439	H	1.506037	0.283764	-0.146325
H440	H	1.756037	0.533764	0.103675
H441	H	1.007444	-0.273264	-0.706296
H442	H	1.257444	-0.023264	-0.456296
H443	H	1.507444	0.226736	-0.206296
H444	H	1.757444	0.476736	0.043704
H445	H	0.906064	-0.223221	-0.751624
H446	H	1.156064	0.026779	-0.501624
H447	H	1.406064	0.276779	-0.251624
H448	H	1.656064	0.526779	-0.001624
N449	N	0.908021	-0.206443	-0.878341
N450	N	1.158021	0.043557	-0.628341
N451	N	1.408021	0.293557	-0.378341
N452	N	1.658021	0.543557	-0.128341
H453	H	0.906901	-0.216026	-0.925121
H454	H	1.156901	0.033974	-0.675121
H455	H	1.406901	0.283974	-0.425121
H456	H	1.656901	0.533974	-0.175121
H457	H	0.873000	-0.175053	-0.865681
H458	H	1.123000	0.074947	-0.615681
H459	H	1.373000	0.324947	-0.365681
H460	H	1.623000	0.574947	-0.115681
H461	H	0.968519	-0.256447	-0.954755
H462	H	1.218519	-0.006447	-0.704755
H463	H	1.468519	0.243553	-0.454755
H464	H	1.718519	0.493553	-0.204755
H465	H	0.968516	-0.256395	-1.073461
H466	H	1.218516	-0.006395	-0.823461
H467	H	1.468516	0.243605	-0.573461
H468	H	1.718516	0.493605	-0.323461
N469	N	0.805781	-0.431287	-1.088640
N470	N	1.055781	-0.181287	-0.838640
N471	N	1.305781	0.068713	-0.588640
N472	N	1.555781	0.318713	-0.338640
H473	H	0.812124	-0.424453	-1.134801
H474	H	1.062124	-0.174453	-0.884801
H475	H	1.312124	0.075547	-0.634801
H476	H	1.562124	0.325547	-0.384801
H477	H	0.813597	-0.481452	-1.079118
H478	H	1.063597	-0.231452	-0.829118
H479	H	1.313597	0.018548	-0.579118
H480	H	1.563597	0.268548	-0.329118
N481	N	0.805790	-0.431339	-0.952628
N482	N	1.055790	-0.181339	-0.702628
N483	N	1.305790	0.068661	-0.452628
N484	N	1.555790	0.318661	-0.202628
H485	H	0.777858	-0.402806	-0.924374
H486	H	1.027858	-0.152806	-0.674374
H487	H	1.277858	0.097194	-0.424374
H488	H	1.527858	0.347194	-0.174374
H489	H	0.779349	-0.459784	-0.984378
H490	H	1.029349	-0.209784	-0.734378
H491	H	1.279349	0.040216	-0.484378
H492	H	1.529349	0.290216	-0.234378
H493	H	0.253531	-0.256494	-0.239412
H494	H	0.503531	-0.006494	0.010588
H495	H	0.753531	0.243506	0.260588
H496	H	1.003531	0.493506	0.510588
N497	N	0.877335	-0.469526	-0.888334
N498	N	1.127335	-0.219526	-0.638334
N499	N	1.377335	0.030474	-0.388334
N500	N	1.627335	0.280474	-0.138334
H501	H	0.872652	-0.509625	-0.859200
H502	H	1.122652	-0.259625	-0.609200
H503	H	1.372652	-0.009625	-0.359200
H504	H	1.622652	0.240375	-0.109200
H505	H	0.838771	-0.468510	-0.915417
H506	H	1.088771	-0.218510	-0.665417
H507	H	1.338771	0.031490	-0.415417
H508	H	1.588771	0.281490	-0.165417
N509	N	0.324581	-0.349841	-0.432823
N510	N	0.574581	-0.099841	-0.182823
N511	N	0.824581	0.150159	0.067177
N512	N	1.074581	0.400159	0.317177
H513	H	0.278188	-0.348973	-0.424244
H514	H	0.528188	-0.098973	-0.174244
H515	H	0.778188	0.151027	0.075756
H516	H	1.028188	0.401027	0.325756
H517	H	0.337631	-0.309274	-0.459354
H518	H	0.587631	-0.059274	-0.209354
H519	H	0.837631	0.190726	0.040646
H520	H	1.087631	0.440726	0.290646
H521	H	0.879111	-0.452836	-0.760343
H522	H	1.129111	-0.202836	-0.510343
H523	H	1.379111	0.047164	-0.260343
H524	H	1.629111	0.297164	-0.010343
N525	N	0.805762	-0.431435	-0.685009
N526	N	1.055762	-0.181435	-0.435009
N527	N	1.305762	0.068565	-0.185009
N528	N	1.555762	0.318565	0.064991
H529	H	0.812106	-0.424600	-0.731170
H530	H	1.062106	-0.174600	-0.481170
H531	H	1.312106	0.075400	-0.231170
H532	H	1.562106	0.325400	0.018830
H533	H	0.813570	-0.481602	-0.675488
H534	H	1.063570	-0.231602	-0.425488
H535	H	1.313570	0.018398	-0.175488
H536	H	1.563570	0.268398	0.074512
H537	H	0.452538	-0.327937	-0.212214
H538	H	0.702538	-0.077937	0.037786
H539	H	0.952538	0.172063	0.287786
H540	H	1.202538	0.422063	0.537786
