data_functionalizedCrystal
_audit_creation_method	'MofGen! by Chris Wilmer'
_symmetry_space_group_name_H-M	'P1'
_symmetry_Int_Tables_number	1
_symmetry_cell_setting	triclinic
loop_
_symmetry_equiv_pos_as_xyz
  x,y,z
_cell_length_a	10.685980
_cell_length_b	17.639999
_cell_length_c	10.686551
_cell_angle_alpha	106.368655
_cell_angle_beta	81.591741
_cell_angle_gamma	97.736044
loop_
_atom_site_label
_atom_site_type_symbol
_atom_site_fract_x
_atom_site_fract_y
_atom_site_fract_z
Zn1	Zn	2.048879	0.177162	-0.813652
Zn2	Zn	2.075367	0.320353	-0.558510
Zn3	Zn	1.826899	0.199161	-0.578529
Zn4	Zn	1.879468	0.320276	-0.754443
O5	O	1.957653	0.254238	-0.676284
O6	O	2.227277	0.186982	-0.796208
O7	O	2.031492	0.313516	-0.380767
O8	O	1.823259	0.085630	-0.642876
O9	O	2.246738	0.292184	-0.608756
O10	O	1.986347	0.069468	-0.815620
O11	O	1.848944	0.224477	-0.395475
O12	O	1.658988	0.224402	-0.585463
O13	O	1.912856	0.292053	-0.942696
O14	O	1.697610	0.313385	-0.714707
O15	O	2.037321	0.186908	-0.986197
O16	O	2.082466	0.430956	-0.551344
O17	O	1.938540	0.430899	-0.695295
C18	C	1.632954	0.271273	-0.645833
C19	C	1.494054	0.278578	-0.632831
C20	C	2.019118	0.459605	-0.614754
C21	C	2.045529	0.547453	-0.588485
C22	C	1.757351	0.836409	-0.876317
C23	C	1.782169	0.918958	-0.851592
C24	C	1.932148	0.918938	-0.701872
C25	C	1.907348	0.836386	-0.726588
C26	C	1.819947	0.795129	-0.813811
C27	C	1.969944	0.795106	-0.664083
C28	C	1.945140	0.712563	-0.688793
C29	C	1.857740	0.671299	-0.776008
C30	C	1.795143	0.712585	-0.838521
C31	C	2.057338	0.836366	-0.576854
C32	C	2.119934	0.795086	-0.514348
C33	C	2.095137	0.712540	-0.539065
C34	C	2.007737	0.671277	-0.626280
C35	C	2.157734	0.671254	-0.476552
C36	C	2.132930	0.588711	-0.501262
C37	C	1.982933	0.588734	-0.650990
C38	C	2.283621	0.237138	-0.706854
C39	C	2.422529	0.229851	-0.719881
C40	C	1.977998	0.237018	-1.012530
C41	C	1.986667	0.229680	-1.155818
C42	C	1.895945	1.048069	-0.738076
C43	C	1.869548	0.960218	-0.764384
C44	C	1.937443	0.271331	-0.341370
C45	C	1.928948	0.278434	-0.198172
H46	H	1.911772	0.555139	-0.722026
Cl47	Cl	2.267596	0.723132	-0.366897
Cl48	Cl	1.424534	0.351619	-0.502387
Cl49	Cl	1.842417	0.351551	-1.084914
Cl50	Cl	1.492041	0.156805	-0.850308
Cl51	Cl	2.088567	0.940132	-0.545841
Cl52	Cl	2.073219	0.156567	-1.269080
Cl53	Cl	2.042023	0.970811	-0.592228
Cl54	Cl	1.826861	0.567499	-0.807399
Cl55	Cl	2.211610	0.536813	-0.422669
Cl56	Cl	1.685278	0.660711	-0.948188
Cl57	Cl	1.647486	0.784534	-0.985983
Cl58	Cl	1.703451	0.970852	-0.930165
Cl59	Cl	2.229809	0.846960	-0.404705
