data_functionalizedCrystal
_audit_creation_method	'MofGen! by Chris Wilmer'
_symmetry_space_group_name_H-M	'P1'
_symmetry_Int_Tables_number	1
_symmetry_cell_setting	triclinic
loop_
_symmetry_equiv_pos_as_xyz
  x,y,z
_cell_length_a	19.077105
_cell_length_b	16.625546
_cell_length_c	19.076919
_cell_angle_alpha	87.730083
_cell_angle_beta	89.923776
_cell_angle_gamma	87.718759
loop_
_atom_site_label
_atom_site_type_symbol
_atom_site_fract_x
_atom_site_fract_y
_atom_site_fract_z
Zn1	Zn	1.058283	-0.390077	0.440407
Zn2	Zn	1.062927	-0.519720	0.322896
Zn3	Zn	0.945500	-0.379275	0.318200
Zn4	Zn	0.940748	-0.519234	0.435649
O5	O	1.001864	-0.452076	0.379288
O6	O	1.157231	-0.411998	0.428775
O7	O	1.051282	-0.496773	0.223942
O8	O	0.960506	-0.267879	0.334437
O9	O	1.160642	-0.507246	0.342441
O10	O	1.043367	-0.275815	0.424222
O11	O	0.965009	-0.393589	0.220492
O12	O	0.846538	-0.393117	0.329824
O13	O	0.952407	-0.506418	0.534611
O14	O	0.843047	-0.495944	0.416113
O15	O	1.038759	-0.411527	0.538107
O16	O	1.046674	-0.632485	0.337827
O17	O	0.956910	-0.632127	0.420666
C18	C	0.819296	-0.443306	0.371943
C19	C	0.741192	-0.439575	0.368817
C20	C	1.001799	-0.661563	0.379256
C21	C	1.001834	-0.751186	0.379268
C22	C	0.702702	-0.491432	0.412204
C23	C	0.629314	-0.487916	0.409270
C24	C	0.594418	-0.432544	0.362946
C25	C	0.632913	-0.380681	0.319557
C26	C	0.706299	-0.384194	0.322495
C27	C	0.375130	-0.416284	0.349354
C28	C	0.301739	-0.412776	0.346418
C29	C	0.298145	-0.520010	0.436133
C30	C	0.371533	-0.523522	0.439063
C31	C	0.410021	-0.471655	0.395677
N32	N	0.519405	-0.428950	0.359945
N33	N	0.485034	-0.475247	0.398682
C34	C	1.001954	-1.079371	0.379346
C35	C	1.001918	-0.988060	0.379327
C36	C	1.001894	-0.915281	0.379307
C37	C	1.001859	-0.823965	0.379288
C38	C	1.185146	-0.460881	0.386662
C39	C	1.263249	-0.464634	0.389805
C40	C	0.994535	-0.460123	0.562568
C41	C	0.991412	-0.463552	0.640671
C42	C	1.001948	-0.241774	0.379336
C43	C	1.001984	-0.152155	0.379357
C44	C	1.009205	-0.444005	0.196723
C45	C	1.012465	-0.440356	0.118626
C46	C	1.034901	-0.415760	0.679185
C47	C	1.031958	-0.418978	0.752571
C48	C	0.985529	-0.469993	0.787441
C49	C	0.942035	-0.517786	0.748922
C50	C	0.944975	-0.514563	0.675537
C51	C	0.971911	-0.484926	1.006722
C52	C	0.968976	-0.488147	1.080112
C53	C	1.058898	-0.389338	1.083755
C54	C	1.061837	-0.386123	1.010369
C55	C	1.018341	-0.433913	0.971856
N56	N	0.982521	-0.473286	0.862453
N57	N	1.021346	-0.430616	0.896846
H58	H	0.597979	-0.530145	0.444600
H59	H	0.909554	-0.553472	0.644180
H60	H	0.399940	-0.568613	0.476784
N61	N	0.595274	-0.320969	0.269587
H62	H	0.607614	-0.264469	0.281096
H63	H	0.542956	-0.326692	0.274333
N64	N	1.111889	-0.331080	0.972745
H65	H	1.145659	-0.364063	0.943594
H66	H	1.138946	-0.301287	1.008311
N67	N	0.918896	-0.543160	1.117739
H68	H	0.930286	-0.600737	1.105401
H69	H	0.869224	-0.527590	1.102943
N70	N	0.747817	-0.328257	0.275704
H71	H	0.714576	-0.292646	0.245912
H72	H	0.779555	-0.361043	0.244352
N73	N	1.084984	-0.360742	0.641577
H74	H	1.112086	-0.330954	0.677114
H75	H	1.057616	-0.320717	0.609985
H76	H	0.904228	-0.559320	0.777319
N77	N	1.105809	-0.337794	1.125293
H78	H	1.096903	-0.347573	1.177073
H79	H	1.095408	-0.279121	1.112038
H80	H	1.067373	-0.380063	0.783926
H81	H	0.273329	-0.367677	0.308699
N82	N	0.740337	-0.551160	0.462164
H83	H	0.704815	-0.583477	0.489204
H84	H	0.769500	-0.521287	0.495954
N85	N	0.256633	-0.575948	0.482925
H86	H	0.204848	-0.565323	0.474037
H87	H	0.267468	-0.566307	0.533643
N88	N	0.924976	-0.536441	0.965187
H89	H	0.895113	-0.569239	0.998415
H90	H	0.954758	-0.573800	0.935867
H91	H	0.406459	-0.374056	0.314021
