data_functionalizedCrystal
_audit_creation_method	'MofGen! by Chris Wilmer'
_symmetry_space_group_name_H-M	'P1'
_symmetry_Int_Tables_number	1
_symmetry_cell_setting	triclinic
loop_
_symmetry_equiv_pos_as_xyz
  x,y,z
_cell_length_a	19.188925
_cell_length_b	19.188924
_cell_length_c	9.730217
_cell_angle_alpha	89.994694
_cell_angle_beta	89.997646
_cell_angle_gamma	83.142256
loop_
_atom_site_label
_atom_site_type_symbol
_atom_site_fract_x
_atom_site_fract_y
_atom_site_fract_z
O1	O	0.926142	0.087149	-0.114326
O2	O	1.426142	0.587149	0.385674
O3	O	0.722830	0.098887	-0.114323
O4	O	1.222830	0.598887	0.385677
O5	O	0.830356	-0.008638	-0.114308
O6	O	1.330356	0.491362	0.385692
O7	O	0.818616	0.194674	-0.114340
O8	O	1.318616	0.694674	0.385660
O9	O	0.830352	-0.008639	0.114272
O10	O	1.330352	0.491361	0.614272
O11	O	0.722827	0.098886	0.114257
O12	O	1.222827	0.598886	0.614257
O13	O	0.926139	0.087148	0.114254
O14	O	1.426139	0.587148	0.614254
Zn15	Zn	0.824482	0.093017	0.150548
Zn16	Zn	1.324482	0.593017	0.650548
Zn17	Zn	0.824487	0.093018	-0.150616
Zn18	Zn	1.324487	0.593018	0.349384
O19	O	0.818613	0.194673	0.114240
O20	O	1.318613	0.694673	0.614240
C21	C	0.696817	0.098507	-0.000032
C22	C	1.196817	0.598507	0.499968
C23	C	0.619313	0.097368	-0.000031
C24	C	1.119313	0.597368	0.499969
C25	C	0.057541	0.152832	-0.000043
C26	C	0.557541	0.652832	0.499957
C27	C	0.130364	0.153908	-0.000050
C28	C	0.630364	0.653908	0.499950
C29	C	0.175300	0.090816	-0.000038
C30	C	0.675300	0.590816	0.499962
C31	C	0.147408	0.026642	-0.000053
C32	C	0.647408	0.526642	0.499947
C33	C	0.074586	0.025568	-0.000059
C34	C	0.574586	0.525568	0.499941
N35	N	0.295977	0.045139	0.077780
N36	N	0.795977	0.545139	0.577780
N37	N	0.365155	0.046165	0.077789
N38	N	0.865155	0.546165	0.577789
C39	C	0.394709	0.094050	-0.000022
C40	C	0.894709	0.594050	0.499978
N41	N	0.352472	0.140882	-0.077825
N42	N	0.852472	0.640882	0.422175
N43	N	0.283288	0.139859	-0.077827
N44	N	0.783288	0.639859	0.422173
C45	C	0.254264	0.091974	-0.000032
C46	C	0.754264	0.591974	0.499968
C47	C	0.501557	0.159387	-0.000025
C48	C	1.001557	0.659387	0.499975
C49	C	0.574381	0.160461	-0.000041
C50	C	1.074381	0.660461	0.499959
C51	C	0.591424	0.033193	-0.000030
C52	C	1.091424	0.533193	0.499970
C53	C	0.518600	0.032121	-0.000027
C54	C	1.018600	0.532121	0.499973
C55	C	0.473671	0.095220	-0.000018
C56	C	0.973671	0.595220	0.499982
C57	C	0.829975	-0.034650	-0.000017
C58	C	1.329975	0.465350	0.499983
C59	C	0.828836	-0.112155	-0.000013
C60	C	1.328836	0.387845	0.499987
C61	C	0.828306	-0.148553	-0.124612
C62	C	1.328306	0.351447	0.375388
C63	C	0.827226	-0.221376	-0.124623
C64	C	1.327226	0.278624	0.375377
C65	C	0.826690	-0.257799	-0.000027
C66	C	1.326690	0.242201	0.499973
C67	C	0.827216	-0.221391	0.124589
C68	C	1.327216	0.278609	0.624589
C69	C	0.828289	-0.148569	0.124596
C70	C	1.328289	0.351431	0.624596
N71	N	0.864737	-0.377464	0.092706
N72	N	1.364737	0.122536	0.592706
N73	N	0.863719	-0.446642	0.092691
N74	N	1.363719	0.053358	0.592691
C75	C	0.823456	-0.477208	-0.000040
C76	C	1.323456	0.022792	0.499960
N77	N	0.784258	-0.435984	-0.092777
N78	N	1.284258	0.064016	0.407223
N79	N	0.785279	-0.366800	-0.092766
N80	N	1.285279	0.133200	0.407234
C81	C	0.825526	-0.336763	-0.000021
C82	C	1.325526	0.163237	0.499979
C83	C	0.821754	-0.592569	-0.124659
C84	C	1.321754	-0.092569	0.375341
C85	C	0.820670	-0.665393	-0.124665
C86	C	1.320670	-0.165393	0.375335
C87	C	0.820667	-0.665408	0.124551
C88	C	1.320667	-0.165408	0.624551
C89	C	0.821744	-0.592585	0.124552
C90	C	1.321744	-0.092585	0.624552
C91	C	0.822291	-0.556170	-0.000056
C92	C	1.322291	-0.056170	0.499944
C93	C	0.952151	0.087528	-0.000039
C94	C	1.452151	0.587528	0.499961
C95	C	1.029656	0.088667	-0.000050
C96	C	1.529656	0.588667	0.499950
C97	C	0.818994	0.220684	-0.000055
C98	C	1.318994	0.720684	0.499945
C99	C	0.820133	0.298189	-0.000067
C100	C	1.320133	0.798189	0.499933
N101	N	0.824484	0.093015	0.356084
N102	N	1.324484	0.593015	0.856084
N103	N	0.824490	0.093014	-0.356153
N104	N	1.324490	0.593014	0.143847
C105	C	0.919737	-0.002171	0.356088
C106	C	1.419737	0.497829	0.856088
C107	C	0.967368	-0.049762	0.428030
C108	C	1.467368	0.450238	0.928030
C109	C	0.967375	-0.049763	0.571909
C110	C	1.467375	0.450237	1.071909
C111	C	0.919745	-0.002168	0.643851
C112	C	1.419745	0.497832	1.143851
C113	C	0.872114	0.045423	0.571909
C114	C	1.372114	0.545423	1.071909
C115	C	0.872113	0.045420	0.428026
C116	C	1.372113	0.545420	0.928026
C117	C	0.776859	0.140605	0.571905
C118	C	1.276859	0.640605	1.071905
C119	C	0.776854	0.140610	0.428026
C120	C	1.276854	0.640610	0.928026
C121	C	0.729229	0.188199	0.643847
C122	C	1.229229	0.688199	1.143847
C123	C	0.681600	0.235795	0.571905
C124	C	1.181600	0.735795	1.071905
C125	C	0.681595	0.235794	0.428017
C126	C	1.181595	0.735794	0.928017
C127	C	0.729223	0.188201	0.356084
C128	C	1.229223	0.688201	0.856084
H129	H	0.464973	0.210766	-0.000020
H130	H	0.964973	0.710766	0.499980
H131	H	0.820235	-0.695026	-0.226132
H132	H	1.320235	-0.195026	0.273868
H133	H	0.642806	0.274546	0.369449
H134	H	1.142806	0.774546	0.869449
H135	H	0.153073	0.206161	-0.000031
H136	H	0.653073	0.706161	0.499969
O137	O	0.828873	-0.109310	0.258994
O138	O	1.328873	0.390690	0.758994
H139	H	0.781093	-0.116920	0.318754
H140	H	1.281093	0.383080	0.818754
H141	H	1.006157	-0.088518	0.630485
H142	H	1.506157	0.411482	1.130485
H143	H	0.822196	-0.562918	-0.226123
H144	H	1.322196	-0.062918	0.273877
H145	H	0.051883	-0.026685	-0.000065
H146	H	0.551883	0.473315	0.499935
H147	H	0.919748	-0.002177	0.761005
H148	H	1.419748	0.497823	1.261005
O149	O	0.729236	0.188208	0.799032
O150	O	1.229236	0.688208	1.299032
H151	H	0.770364	0.147126	0.836975
H152	H	1.270364	0.647126	1.336975
O153	O	1.018721	-0.101115	0.350441
O154	O	1.518721	0.398885	0.850441
H155	H	1.010714	-0.093125	0.238306
H156	H	1.510714	0.406875	0.738306
H157	H	0.828750	-0.118909	-0.226079
H158	H	1.328750	0.381091	0.273921
H159	H	0.820225	-0.695062	0.225999
H160	H	1.320225	-0.195062	0.725999
H161	H	0.822181	-0.562950	0.226015
H162	H	1.322181	-0.062950	0.726015
H163	H	0.919742	-0.002170	0.238933
H164	H	1.419742	0.497830	0.738933
O165	O	0.630234	0.287127	0.649492
O166	O	1.130234	0.787127	1.149492
H167	H	0.638241	0.279132	0.761626
H168	H	1.138241	0.779132	1.261626
H169	H	0.729226	0.188198	0.238930
H170	H	1.229226	0.688198	0.738930
O171	O	0.604463	0.229670	-0.000015
O172	O	1.104463	0.729670	0.499985
H173	H	0.560983	0.273363	0.000010
H174	H	1.060983	0.773363	0.500010
H175	H	0.020963	0.204212	-0.000042
H176	H	0.520963	0.704212	0.499958
H177	H	0.183999	-0.024728	-0.000047
H178	H	0.683999	0.475272	0.499953
H179	H	0.826777	-0.251052	0.226036
H180	H	1.326777	0.248948	0.726036
O181	O	0.639879	-0.034860	-0.000010
O182	O	1.139879	0.465140	0.499990
H183	H	0.695202	-0.023335	0.000004
H184	H	1.195202	0.476665	0.500004
H185	H	0.495897	-0.020129	-0.000025
H186	H	0.995897	0.479871	0.499975
O187	O	0.826657	-0.260648	-0.259016
O188	O	1.326657	0.239352	0.240984
H189	H	0.827220	-0.223093	-0.345661
H190	H	1.327220	0.276907	0.154339
